data_PCOD9479068
_publ_section_title
;
Structure prediction by ZEFSAII (Michael W. Deem and Ramdas Pophale) SiO2 
 PCOD9479068
Probable space group: C M C A
;
_chemical_formula_sum "Si O2"
_cell_formula_units_Z 80
_cell_length_a 25.158471
_cell_length_b 10.590074
_cell_length_c 16.037997
_cell_angle_alpha 90.000000
_cell_angle_beta 90.000000
_cell_angle_gamma 90.000000
_cell_volume 4273.004657
_symmetry_space_group_name_H-M "C M C A"
_symmetry_group_IT_number 64
_symmetry_cell_setting 'orthorhombic'
loop_
_space_group_symop_operation_xyz
x,y,z
-x,1/2-y,1/2+z
x,-y,-z
-x,1/2+y,1/2-z
-x,-y,-z
x,1/2+y,1/2-z
-x,y,z
x,1/2-y,1/2+z
1/2+x,1/2+y,z
1/2-x,-y,1/2+z
1/2+x,1/2-y,-z
1/2-x,y,1/2-z
1/2-x,1/2-y,-z
1/2+x,y,1/2-z
1/2-x,1/2+y,z
1/2+x,-y,1/2+z
loop_
_atom_site_type_symbol
_atom_site_label
_atom_site_fract_x
_atom_site_fract_y
_atom_site_fract_z
Si Si1 0.149316 0.619952 0.940492
Si Si2 0.681395 0.887989 0.564761
Si Si3 0.563118 0.121917 0.807066
Si Si4 0.717666 0.955942 0.833924
Si Si5 0.380654 0.373398 0.759982
O O1 0.167476 0.753440 0.976042
O O2 0.091921 0.627425 0.897193
O O3 0.191527 0.584237 0.868148
O O4 0.150850 0.500000 0.000000
O O5 0.644993 0.893590 0.648241
O O6 0.671838 0.000000 0.500000
O O7 0.741709 0.899532 0.598829
O O8 0.500000 0.124877 0.812100
O O9 0.586047 0.245016 0.760310
O O10 0.583829 0.993839 0.764022
O O11 0.750000 0.982429 0.750000
O O12 0.668152 0.869619 0.805679
#
# Coordination Sequence:
#
# PCOD9479068 Si02
#       5
#    16  16  16  16  16
#     4  10  22  36  52  79 111 141 178 221 263 314
#     4  10  21  35  54  79 111 147 176 210 260 320
#     4  10  20  37  60  80 102 137 179 226 273 315
#     4   9  19  34  54  80 109 140 175 216 264 314
#     4   9  20  36  56  82 109 135 176 225 266 315
#
# _framework density 18.722189
#
# number of rings (size 3 to 8) (size 9 to 14) (size 15 to 20)
#    0.000    2.400    0.000    1.200    0.000   14.000 
#    0.000    0.000    0.000   17.400    0.000    0.000 
#    0.000    0.000    0.000    0.000    0.000    0.000 
#
# Total GULP energy -223215.639372 kJ/mol
# GULP energy per Si atom -5580.390984 kJ/mol
# Density = 1.867958 g / cm^3
# Si number density = 18.722189 Si / 1000 Ang^3
#
#
#
# Elastic Constant Matrix: (Units=GPa)
#
#
# Indices 1 2 3 4 5 6 
#
# 1 132.4657 57.2029 16.7107 0.0000 0.0000 0.0000
# 2 57.2029 148.8713 40.2075 0.0000 0.0000 0.0000
# 3 16.7107 40.2075 37.3264 0.0000 0.0000 0.0000
# 4 0.0000 0.0000 0.0000 28.7838 0.0000 0.0000
# 5 0.0000 0.0000 0.0000 0.0000 10.8281 0.0000
# 6 0.0000 0.0000 0.0000 0.0000 0.0000 20.0776
#
#
#
# Elastic Compliance Matrix: (Units=1/GPa)
#
#
# Indices 1 2 3 4 5 6 
#
# 1 0.009056 -0.003363 -0.000432 0.000000 0.000000 0.000000
# 2 -0.003363 0.010722 -0.010044 0.000000 0.000000 0.000000
# 3 -0.000432 -0.010044 0.037803 0.000000 0.000000 0.000000
# 4 0.000000 0.000000 0.000000 0.034742 0.000000 0.000000
# 5 0.000000 0.000000 0.000000 0.000000 0.092352 0.000000
# 6 0.000000 0.000000 0.000000 0.000000 0.000000 0.049807
#
#
# Mechanical properties :
#
#
# Convention : Reuss Voigt Hill
#
# Bulk Modulus (GPa) = 33.44061 60.76729 47.10395
# Shear Modulus (GPa) = 18.37371 25.57404 21.97388
#
# Velocity S-wave (km/s) = 3.13611 3.69992 3.42962
# Velocity P-wave (km/s) = 5.56901 7.12603 6.39508
#
# Compressibility (1/GPa) = 0.02990376
#
# Stress axis : x y z
#
# Youngs Moduli (GPa) = 110.42569 93.26415 26.45268
#
# Poissons Ratio (x) = 0.31366 0.01141
# Poissons Ratio (y) = 0.37137 0.26570
# Poissons Ratio (z) = 0.04765 0.93676
#
# Static dielectric constant tensor:
#      x y z
#    x 1.633500 0.000000 0.000000 
#    y 0.000000 1.645090 0.000000 
#    z 0.000000 0.000000 1.682440 
# 
# From -- ./inp_files/35348.got.cif
#   From: 2010.05.17/outbox.cif.g08.bks.cpg/sg64_18_cif.got.tgz:35348.got - 2010.06.03 16:29:19.
