data_PCOD9479135
_publ_section_title
;
Structure prediction by ZEFSAII (Michael W. Deem and Ramdas Pophale) SiO2 
 PCOD9479135
Probable space group: C M C A
;
_chemical_formula_sum "Si O2"
_cell_formula_units_Z 112
_cell_length_a 29.987649
_cell_length_b 11.910972
_cell_length_c 14.119002
_cell_angle_alpha 90.000000
_cell_angle_beta 90.000000
_cell_angle_gamma 90.000000
_cell_volume 5043.054044
_symmetry_space_group_name_H-M "C M C A"
_symmetry_group_IT_number 64
_symmetry_cell_setting 'orthorhombic'
loop_
_space_group_symop_operation_xyz
x,y,z
-x,1/2-y,1/2+z
x,-y,-z
-x,1/2+y,1/2-z
-x,-y,-z
x,1/2+y,1/2-z
-x,y,z
x,1/2-y,1/2+z
1/2+x,1/2+y,z
1/2-x,-y,1/2+z
1/2+x,1/2-y,-z
1/2-x,y,1/2-z
1/2-x,1/2-y,-z
1/2+x,y,1/2-z
1/2-x,1/2+y,z
1/2+x,-y,1/2+z
loop_
_atom_site_type_symbol
_atom_site_label
_atom_site_fract_x
_atom_site_fract_y
_atom_site_fract_z
Si Si1 0.952371 0.499532 0.217296
Si Si2 0.644751 0.663920 0.145757
Si Si3 0.550973 0.277234 0.409672
Si Si4 0.097390 0.539345 0.609110
Si Si5 0.106366 0.393804 0.933414
Si Si6 0.720599 0.135512 0.512982
Si Si7 0.839405 0.772610 0.156723
O O1 0.950834 0.379569 0.164984
O O2 0.945768 0.481807 0.328359
O O3 0.914877 0.571921 0.166434
O O4 0.000000 0.553252 0.198222
O O5 0.594459 0.705270 0.119725
O O6 0.635606 0.533159 0.161764
O O7 0.679444 0.659654 0.059471
O O8 0.661661 0.735160 0.234665
O O9 0.500000 0.231077 0.415286
O O10 0.567697 0.328056 0.509204
O O11 0.094739 0.500000 0.500000
O O12 0.114777 0.663471 0.628673
O O13 0.153274 0.336378 0.909191
O O14 0.115090 0.500000 0.000000
O O15 0.750000 0.250000 0.500000
O O16 0.700850 0.153159 0.618466
O O17 0.733459 0.000000 0.500000
#
# Coordination Sequence:
#
# PCOD9479135 Si02
#       7
#    16  16  16  16  16  16  16
#     4  10  21  36  58  98 146 189 252 315 357 421
#     4  12  23  44  75 102 145 200 238 305 368 442
#     4  10  20  37  63 100 143 193 250 300 357 429
#     4  12  22  41  66  92 145 195 242 300 376 437
#     4  10  20  37  65  99 138 191 246 306 362 424
#     4  12  28  56  82 114 155 190 241 315 388 460
#     4  12  23  44  75 105 139 188 241 299 373 446
#
# _framework density 22.208765
#
# number of rings (size 3 to 8) (size 9 to 14) (size 15 to 20)
#    0.000    0.857    7.143    0.429    0.000    3.714 
#    2.571    4.286    0.000    0.429    0.000    0.000 
#    0.000    0.000    0.000    0.000    0.000    0.000 
#
# Total GULP energy -311789.961172 kJ/mol
# GULP energy per Si atom -5567.677878 kJ/mol
# Density = 2.215822 g / cm^3
# Si number density = 22.208765 Si / 1000 Ang^3
#
#
#
# Elastic Constant Matrix: (Units=GPa)
#
#
# Indices 1 2 3 4 5 6 
#
# 1 62.0501 34.5533 5.7553 0.0000 0.0000 0.0000
# 2 34.5533 85.2294 29.5340 0.0000 0.0000 0.0000
# 3 5.7553 29.5340 126.8460 0.0000 0.0000 0.0000
# 4 0.0000 0.0000 0.0000 23.8559 0.0000 0.0000
# 5 0.0000 0.0000 0.0000 0.0000 87.5003 0.0000
# 6 0.0000 0.0000 0.0000 0.0000 0.0000 33.1869
#
#
#
# Elastic Compliance Matrix: (Units=1/GPa)
#
#
# Indices 1 2 3 4 5 6 
#
# 1 0.020960 -0.008885 0.001118 0.000000 0.000000 0.000000
# 2 -0.008885 0.016529 -0.003445 0.000000 0.000000 0.000000
# 3 0.001118 -0.003445 0.008635 0.000000 0.000000 0.000000
# 4 0.000000 0.000000 0.000000 0.041918 0.000000 0.000000
# 5 0.000000 0.000000 0.000000 0.000000 0.011429 0.000000
# 6 0.000000 0.000000 0.000000 0.000000 0.000000 0.030132
#
#
# Mechanical properties :
#
#
# Convention : Reuss Voigt Hill
#
# Bulk Modulus (GPa) = 42.19588 45.97897 44.08742
# Shear Modulus (GPa) = 31.26413 42.52750 36.89582
#
# Velocity S-wave (km/s) = 3.75605 4.38070 4.08035
# Velocity P-wave (km/s) = 6.15236 6.80701 6.48795
#
# Compressibility (1/GPa) = 0.02369900
#
# Stress axis : x y z
#
# Youngs Moduli (GPa) = 47.71013 60.49982 115.80692
#
# Poissons Ratio (x) = 0.53753 -0.12943
# Poissons Ratio (y) = 0.42389 0.39900
# Poissons Ratio (z) = -0.05332 0.20844
#
# Static dielectric constant tensor:
#      x y z
#    x 1.823000 0.000000 0.000000 
#    y 0.000000 1.996420 0.000000 
#    z 0.000000 0.000000 1.817430 
# 
# From -- ./inp_files/28422.got.cif
#   From: 2010.05.17/outbox.cif.g08.bks.cpg/sg64_15_cif.got.tgz:28422.got - 2010.06.03 16:29:19.
