data_PCOD9479548
_publ_section_title
;
Structure prediction by ZEFSAII (Michael W. Deem and Ramdas Pophale) SiO2 
 PCOD9479548
Probable space group: C M C A
;
_chemical_formula_sum "Si O2"
_cell_formula_units_Z 80
_cell_length_a 16.076641
_cell_length_b 24.363303
_cell_length_c 7.701233
_cell_angle_alpha 90.000000
_cell_angle_beta 90.000000
_cell_angle_gamma 90.000000
_cell_volume 3016.419526
_symmetry_space_group_name_H-M "C M C A"
_symmetry_group_IT_number 64
_symmetry_cell_setting 'orthorhombic'
loop_
_space_group_symop_operation_xyz
x,y,z
-x,1/2-y,1/2+z
x,-y,-z
-x,1/2+y,1/2-z
-x,-y,-z
x,1/2+y,1/2-z
-x,y,z
x,1/2-y,1/2+z
1/2+x,1/2+y,z
1/2-x,-y,1/2+z
1/2+x,1/2-y,-z
1/2-x,y,1/2-z
1/2-x,1/2-y,-z
1/2+x,y,1/2-z
1/2-x,1/2+y,z
1/2+x,-y,1/2+z
loop_
_atom_site_type_symbol
_atom_site_label
_atom_site_fract_x
_atom_site_fract_y
_atom_site_fract_z
Si Si1 0.906500 0.627637 0.967567
Si Si2 0.162295 0.072755 0.845161
Si Si3 0.903162 0.029526 0.311406
Si Si4 0.160838 0.231575 0.428392
Si Si5 0.901605 0.834190 0.914078
O O1 0.872971 0.589182 0.123841
O O2 0.859969 0.683374 0.937513
O O3 0.000000 0.641262 0.014965
O O4 0.905939 0.594276 0.790572
O O5 0.250000 0.084742 0.750000
O O6 0.144985 0.110861 0.012441
O O7 0.149140 0.006845 0.822918
O O8 0.000000 0.032452 0.254963
O O9 0.901652 0.000000 0.500000
O O10 0.250000 0.250000 0.500000
O O11 0.105452 0.285754 0.442384
O O12 0.358613 0.197670 0.249494
O O13 0.000000 0.845491 0.888324
#
# Coordination Sequence:
#
# PCOD9479548 Si02
#       5
#    16  16  16  16  16
#     4  10  20  41  70  97 133 187 250 307 374 461
#     4  11  22  39  65 102 143 185 241 313 388 451
#     4   8  16  35  65  96 128 176 238 299 363 446
#     4  12  26  45  67  98 139 185 240 308 381 456
#     4  12  25  44  69  99 139 189 247 308 381 470
#
# _framework density 26.521509999999999
#
# number of rings (size 3 to 8) (size 9 to 14) (size 15 to 20)
#    0.000    1.400    0.000    7.800    0.000    0.000 
#    0.000    9.000    0.000    3.600    0.000    0.000 
#    0.000    0.000    0.000    0.000    0.000    4.000 
#
# Total GULP energy -223286.090155 kJ/mol
# GULP energy per Si atom -5582.152254 kJ/mol
# Density = 2.646115 g / cm^3
# Si number density = 26.521510 Si / 1000 Ang^3
#
#
#
# Elastic Constant Matrix: (Units=GPa)
#
#
# Indices 1 2 3 4 5 6 
#
# 1 135.2846 43.7386 34.9541 0.0000 0.0000 0.0000
# 2 43.7386 177.6065 24.4627 0.0000 0.0000 0.0000
# 3 34.9541 24.4627 148.0208 0.0000 0.0000 0.0000
# 4 0.0000 0.0000 0.0000 39.4270 0.0000 0.0000
# 5 0.0000 0.0000 0.0000 0.0000 9.7246 0.0000
# 6 0.0000 0.0000 0.0000 0.0000 0.0000 -61.3544
#
#
#
# Elastic Compliance Matrix: (Units=1/GPa)
#
#
# Indices 1 2 3 4 5 6 
#
# 1 0.008423 -0.001842 -0.001685 0.000000 0.000000 0.000000
# 2 -0.001842 0.006165 -0.000584 0.000000 0.000000 0.000000
# 3 -0.001685 -0.000584 0.007250 0.000000 0.000000 0.000000
# 4 0.000000 0.000000 0.000000 0.025363 0.000000 0.000000
# 5 0.000000 0.000000 0.000000 0.000000 0.102832 0.000000
# 6 0.000000 0.000000 0.000000 0.000000 0.000000 -0.016299
#
#
# Mechanical properties :
#
#
# Convention : Reuss Voigt Hill
#
# Bulk Modulus (GPa) = 73.44139 74.13587 73.78863
# Shear Modulus (GPa) = 34.13115 21.40988 27.77051
#
# Velocity S-wave (km/s) = 3.59126 2.84432 3.23939
# Velocity P-wave (km/s) = 6.70430 6.22902 6.47102
#
# Compressibility (1/GPa) = 0.01361630
#
# Stress axis : x y z
#
# Youngs Moduli (GPa) = 118.72732 162.21906 137.92982
#
# Poissons Ratio (x) = 0.29884 0.23234
# Poissons Ratio (y) = 0.21872 0.08052
# Poissons Ratio (z) = 0.20000 0.09470
#
# Static dielectric constant tensor:
#      x y z
#    x 2.054390 0.000000 0.000000 
#    y 0.000000 2.170820 0.000000 
#    z 0.000000 0.000000 2.259640 
# 
# From -- ./inp_files/14707.got.cif
#   From: 2010.05.17/outbox.cif.g08.bks.cpg/sg64_8_cif.got.tgz:14707.got - 2010.06.03 16:29:19.
