data_PCOD9479405
_publ_section_title
;
Structure prediction by ZEFSAII (Michael W. Deem and Ramdas Pophale) SiO2 
 PCOD9479405
Probable space group: C M C A
;
_chemical_formula_sum "Si O2"
_cell_formula_units_Z 80
_cell_length_a 17.978676
_cell_length_b 25.612684
_cell_length_c 9.018666
_cell_angle_alpha 90.000000
_cell_angle_beta 90.000000
_cell_angle_gamma 90.000000
_cell_volume 4152.934684
_symmetry_space_group_name_H-M "C M C A"
_symmetry_group_IT_number 64
_symmetry_cell_setting 'orthorhombic'
loop_
_space_group_symop_operation_xyz
x,y,z
-x,1/2-y,1/2+z
x,-y,-z
-x,1/2+y,1/2-z
-x,-y,-z
x,1/2+y,1/2-z
-x,y,z
x,1/2-y,1/2+z
1/2+x,1/2+y,z
1/2-x,-y,1/2+z
1/2+x,1/2-y,-z
1/2-x,y,1/2-z
1/2-x,1/2-y,-z
1/2+x,y,1/2-z
1/2-x,1/2+y,z
1/2+x,-y,1/2+z
loop_
_atom_site_type_symbol
_atom_site_label
_atom_site_fract_x
_atom_site_fract_y
_atom_site_fract_z
Si Si1 0.382408 0.405455 0.572250
Si Si2 0.500000 0.376810 0.057887
Si Si3 0.000000 0.559442 0.842180
Si Si4 0.872699 0.808257 0.908896
Si Si5 0.750000 0.378917 0.750000
Si Si6 0.000000 0.945859 0.795785
Si Si7 0.085616 0.286233 0.921048
O O1 0.426101 0.437070 0.445190
O O2 0.298816 0.411814 0.631836
O O3 0.430476 0.417487 0.718703
O O4 0.392427 0.344644 0.531051
O O5 0.500000 0.392224 0.229010
O O6 0.428546 0.344375 0.003635
O O7 0.500000 0.430976 0.966113
O O8 0.000000 0.505359 0.754344
O O9 0.803436 0.841708 0.848399
O O10 0.909939 0.787659 0.756875
O O11 0.860988 0.757249 0.009597
O O12 0.000000 0.275587 0.964773
#
# Coordination Sequence:
#
# PCOD9479405 Si02
#       7
#    16   8   8  16   8   8  16
#     4  10  20  39  65  91 121 166 201 256 314 374
#     4  12  21  40  62  95 120 165 206 276 309 363
#     4  11  25  36  72  99 116 150 234 276 302 349
#     4  11  23  35  63  89 125 168 206 247 314 377
#     4  10  22  42  62  86 138 174 196 242 334 392
#     4  11  19  44  68  88 116 165 219 266 315 361
#     4  11  18  34  59  88 117 156 207 252 300 362
#
# _framework density 19.263486
#
# number of rings (size 3 to 8) (size 9 to 14) (size 15 to 20)
#    0.000    1.200    8.000    1.500    2.800    3.200 
#    0.000    1.000    8.800    0.000    0.000    0.000 
#    0.000    0.000    0.000    0.000    0.000    0.000 
#
# Total GULP energy -222975.533421 kJ/mol
# GULP energy per Si atom -5574.388336 kJ/mol
# Density = 1.921964 g / cm^3
# Si number density = 19.263486 Si / 1000 Ang^3
#
#
#
# Elastic Constant Matrix: (Units=GPa)
#
#
# Indices 1 2 3 4 5 6 
#
# 1 90.8073 18.0997 12.6720 0.0000 0.0000 0.0000
# 2 18.0997 87.1609 26.9804 0.0000 0.0000 0.0000
# 3 12.6720 26.9804 58.6372 0.0000 0.0000 0.0000
# 4 0.0000 0.0000 0.0000 37.4658 0.0000 0.0000
# 5 0.0000 0.0000 0.0000 0.0000 19.4324 0.0000
# 6 0.0000 0.0000 0.0000 0.0000 0.0000 -52.4088
#
#
#
# Elastic Compliance Matrix: (Units=1/GPa)
#
#
# Indices 1 2 3 4 5 6 
#
# 1 0.011620 -0.001907 -0.001634 0.000000 0.000000 0.000000
# 2 -0.001907 0.013692 -0.005888 0.000000 0.000000 0.000000
# 3 -0.001634 -0.005888 0.020116 0.000000 0.000000 0.000000
# 4 0.000000 0.000000 0.000000 0.026691 0.000000 0.000000
# 5 0.000000 0.000000 0.000000 0.000000 0.051460 0.000000
# 6 0.000000 0.000000 0.000000 0.000000 0.000000 -0.019081
#
#
# Mechanical properties :
#
#
# Convention : Reuss Voigt Hill
#
# Bulk Modulus (GPa) = 37.63525 39.12330 38.37927
# Shear Modulus (GPa) = 37.81770 12.82142 25.31956
#
# Velocity S-wave (km/s) = 4.43559 2.58269 3.62937
# Velocity P-wave (km/s) = 6.76846 5.40808 6.12615
#
# Compressibility (1/GPa) = 0.02657084
#
# Stress axis : x y z
#
# Youngs Moduli (GPa) = 86.05490 73.03731 49.71139
#
# Poissons Ratio (x) = 0.13931 0.08121
# Poissons Ratio (y) = 0.16414 0.29268
# Poissons Ratio (z) = 0.14058 0.43002
#
# Static dielectric constant tensor:
#      x y z
#    x 1.702250 0.000000 0.000000 
#    y 0.000000 1.699470 0.000000 
#    z 0.000000 0.000000 1.673370 
# 
# From -- ./inp_files/8171.got.cif
#   From: 2010.05.17/outbox.cif.g08.bks.cpg/sg64_5_cif.got.tgz:8171.got - 2010.06.03 16:29:19.
