data_PCOD9479519
_publ_section_title
;
Structure prediction by ZEFSAII (Michael W. Deem and Ramdas Pophale) SiO2 
 PCOD9479519
Probable space group: C M C A
;
_chemical_formula_sum "Si O2"
_cell_formula_units_Z 96
_cell_length_a 16.671604
_cell_length_b 14.248112
_cell_length_c 19.202932
_cell_angle_alpha 90.000000
_cell_angle_beta 90.000000
_cell_angle_gamma 90.000000
_cell_volume 4561.442979
_symmetry_space_group_name_H-M "C M C A"
_symmetry_group_IT_number 64
_symmetry_cell_setting 'orthorhombic'
loop_
_space_group_symop_operation_xyz
x,y,z
-x,1/2-y,1/2+z
x,-y,-z
-x,1/2+y,1/2-z
-x,-y,-z
x,1/2+y,1/2-z
-x,y,z
x,1/2-y,1/2+z
1/2+x,1/2+y,z
1/2-x,-y,1/2+z
1/2+x,1/2-y,-z
1/2-x,y,1/2-z
1/2-x,1/2-y,-z
1/2+x,y,1/2-z
1/2-x,1/2+y,z
1/2+x,-y,1/2+z
loop_
_atom_site_type_symbol
_atom_site_label
_atom_site_fract_x
_atom_site_fract_y
_atom_site_fract_z
Si Si1 0.906097 0.354409 0.153493
Si Si2 0.595492 0.048433 0.223085
Si Si3 0.408663 0.151275 0.595012
Si Si4 0.835703 0.733921 0.464505
Si Si5 0.905464 0.440319 0.611121
Si Si6 0.161227 0.253566 0.779307
O O1 0.877751 0.453638 0.184914
O O2 0.858637 0.318364 0.086588
O O3 0.895392 0.279428 0.215919
O O4 0.000000 0.360952 0.136366
O O5 0.500000 0.057558 0.211916
O O6 0.607637 0.043927 0.306410
O O7 0.638834 0.141843 0.197660
O O8 0.500000 0.157243 0.621448
O O9 0.396358 0.216083 0.528251
O O10 0.351176 0.184924 0.656181
O O11 0.394064 0.042521 0.577047
O O12 0.750000 0.750000 0.500000
O O13 0.847525 0.639595 0.418378
O O14 0.000000 0.412661 0.601226
O O15 0.250000 0.249838 0.750000
#
# Coordination Sequence:
#
# PCOD9479519 Si02
#       6
#    16  16  16  16  16  16
#     4  11  22  43  72  98 131 181 233 285 340 409
#     4  10  21  40  69 100 128 173 235 287 339 406
#     4  11  23  42  68  99 133 178 233 286 336 409
#     4  12  25  42  63 101 147 180 219 277 355 418
#     4  10  20  40  72 101 128 175 235 289 335 401
#     4  12  24  40  63 100 141 177 224 286 353 409
#
# _framework density 21.045971000000002
#
# number of rings (size 3 to 8) (size 9 to 14) (size 15 to 20)
#    0.000    1.000    3.333    4.500    0.000    2.000 
#    3.000    2.500    0.000    3.000    0.000    0.000 
#    0.000    0.000    0.000    0.000    0.000    0.000 
#
# Total GULP energy -268539.722643 kJ/mol
# GULP energy per Si atom -5594.577555 kJ/mol
# Density = 2.099807 g / cm^3
# Si number density = 21.045971 Si / 1000 Ang^3
#
#
#
# Elastic Constant Matrix: (Units=GPa)
#
#
# Indices 1 2 3 4 5 6 
#
# 1 77.3315 71.3461 51.6152 0.0000 0.0000 0.0000
# 2 71.3461 142.8086 55.2020 0.0000 0.0000 0.0000
# 3 51.6152 55.2020 101.7808 0.0000 0.0000 0.0000
# 4 0.0000 0.0000 0.0000 46.4332 0.0000 0.0000
# 5 0.0000 0.0000 0.0000 0.0000 34.7117 0.0000
# 6 0.0000 0.0000 0.0000 0.0000 0.0000 -58.4009
#
#
#
# Elastic Compliance Matrix: (Units=1/GPa)
#
#
# Indices 1 2 3 4 5 6 
#
# 1 0.028981 -0.011131 -0.008660 0.000000 0.000000 0.000000
# 2 -0.011131 0.013135 -0.001479 0.000000 0.000000 0.000000
# 3 -0.008660 -0.001479 0.015019 0.000000 0.000000 0.000000
# 4 0.000000 0.000000 0.000000 0.021536 0.000000 0.000000
# 5 0.000000 0.000000 0.000000 0.000000 0.028809 0.000000
# 6 0.000000 0.000000 0.000000 0.000000 0.000000 -0.017123
#
#
# Mechanical properties :
#
#
# Convention : Reuss Voigt Hill
#
# Bulk Modulus (GPa) = 68.51773 75.36086 71.93930
# Shear Modulus (GPa) = 36.29433 14.13262 25.21348
#
# Velocity S-wave (km/s) = 4.15725 2.59417 3.46500
# Velocity P-wave (km/s) = 7.46127 6.69764 7.08974
#
# Compressibility (1/GPa) = 0.01459476
#
# Stress axis : x y z
#
# Youngs Moduli (GPa) = 34.50522 76.13083 66.58335
#
# Poissons Ratio (x) = 0.84744 0.57659
# Poissons Ratio (y) = 0.38409 0.09848
# Poissons Ratio (z) = 0.29881 0.11261
#
# Static dielectric constant tensor:
#      x y z
#    x 1.750130 0.000000 0.000000 
#    y 0.000000 1.773780 0.000000 
#    z 0.000000 0.000000 1.759880 
# 
# From -- ./inp_files/39250.got.cif
#   From: 2010.05.17/outbox.cif.g08.bks.cpg/sg64_20_cif.got.tgz:39250.got - 2010.06.03 16:29:19.
