data_PCOD9479710
_publ_section_title
;
Structure prediction by ZEFSAII (Michael W. Deem and Ramdas Pophale) SiO2 
 PCOD9479710
Probable space group: C M C A
;
_chemical_formula_sum "Si O2"
_cell_formula_units_Z 64
_cell_length_a 29.964159
_cell_length_b 18.632433
_cell_length_c 5.285997
_cell_angle_alpha 90.000000
_cell_angle_beta 90.000000
_cell_angle_gamma 90.000000
_cell_volume 2951.199533
_symmetry_space_group_name_H-M "C M C A"
_symmetry_group_IT_number 64
_symmetry_cell_setting 'orthorhombic'
loop_
_space_group_symop_operation_xyz
x,y,z
-x,1/2-y,1/2+z
x,-y,-z
-x,1/2+y,1/2-z
-x,-y,-z
x,1/2+y,1/2-z
-x,y,z
x,1/2-y,1/2+z
1/2+x,1/2+y,z
1/2-x,-y,1/2+z
1/2+x,1/2-y,-z
1/2-x,y,1/2-z
1/2-x,1/2-y,-z
1/2+x,y,1/2-z
1/2-x,1/2+y,z
1/2+x,-y,1/2+z
loop_
_atom_site_type_symbol
_atom_site_label
_atom_site_fract_x
_atom_site_fract_y
_atom_site_fract_z
Si Si1 0.945974 0.543052 0.249585
Si Si2 0.177417 0.719236 0.349507
Si Si3 0.780338 0.921398 0.000572
Si Si4 0.427876 0.287569 0.791353
O O1 0.931241 0.500000 0.500000
O O2 0.933023 0.627009 0.257221
O O3 0.000000 0.541878 0.246266
O O4 0.930257 0.500000 0.000000
O O5 0.196770 0.771757 0.566793
O O6 0.184992 0.641999 0.470958
O O7 0.124973 0.729658 0.307060
O O8 0.750000 0.918442 0.750000
O O9 0.750000 0.913883 0.250000
O O10 0.801854 0.000000 0.000000
O O11 0.446624 0.243528 0.553293
#
# Coordination Sequence:
#
# PCOD9479710 Si02
#       4
#    16  16  16  16
#     4  10  21  37  57  83 113 145 185 229 273 327
#     4  10  21  36  54  78 106 137 176 219 263 317
#     4  10  21  36  53  76 105 136 174 219 265 317
#     4  10  21  37  56  81 112 144 182 226 272 326
#
# _framework density 21.686098999999999
#
# number of rings (size 3 to 8) (size 9 to 14) (size 15 to 20)
#    0.000    2.000    0.000    3.000    0.000    5.000 
#    0.000    3.750    0.000    0.000    0.000    0.000 
#    0.000    0.000    0.000    0.000    0.000    0.000 
#
# Total GULP energy -178626.323474 kJ/mol
# GULP energy per Si atom -5582.072609 kJ/mol
# Density = 2.163674 g / cm^3
# Si number density = 21.686099 Si / 1000 Ang^3
#
#
#
# Elastic Constant Matrix: (Units=GPa)
#
#
# Indices 1 2 3 4 5 6 
#
# 1 11.8588 -9.9734 19.0825 0.0000 0.0000 0.0000
# 2 -9.9734 153.7191 91.7349 0.0000 0.0000 0.0000
# 3 19.0825 91.7349 227.9301 0.0000 0.0000 0.0000
# 4 0.0000 0.0000 0.0000 40.4175 0.0000 0.0000
# 5 0.0000 0.0000 0.0000 0.0000 -5.0245 0.0000
# 6 0.0000 0.0000 0.0000 0.0000 0.0000 29.5295
#
#
#
# Elastic Compliance Matrix: (Units=1/GPa)
#
#
# Indices 1 2 3 4 5 6 
#
# 1 0.131701 0.019906 -0.019038 0.000000 0.000000 0.000000
# 2 0.019906 0.011570 -0.006323 0.000000 0.000000 0.000000
# 3 -0.019038 -0.006323 0.008526 0.000000 0.000000 0.000000
# 4 0.000000 0.000000 0.000000 0.024742 0.000000 0.000000
# 5 0.000000 0.000000 0.000000 0.000000 -0.199024 0.000000
# 6 0.000000 0.000000 0.000000 0.000000 0.000000 0.033864
#
#
# Mechanical properties :
#
#
# Convention : Reuss Voigt Hill
#
# Bulk Modulus (GPa) = 7.09787 66.13291 36.61539
# Shear Modulus (GPa) = 72.19967 32.49543 52.34755
#
# Velocity S-wave (km/s) = 5.77627 3.87518 4.91845
# Velocity P-wave (km/s) = 6.91138 7.11227 7.01255
#
# Compressibility (1/GPa) = 0.14088729
#
# Stress axis : x y z
#
# Youngs Moduli (GPa) = 7.59297 86.42722 117.28698
#
# Poissons Ratio (x) = -1.72041 2.23287
# Poissons Ratio (y) = -0.15115 0.74164
# Poissons Ratio (z) = 0.14455 0.54650
#
# Static dielectric constant tensor:
#      x y z
#    x 1.746060 0.000000 0.000000 
#    y 0.000000 1.781350 0.000000 
#    z 0.000000 0.000000 1.851820 
# 
# From -- ./inp_files/3152.got.cif
#   From: 2010.05.17/outbox.cif.g08.bks.cpg/sg64_2_cif.got.tgz:3152.got - 2010.06.03 16:29:19.
