data_PCOD9479273
_publ_section_title
;
Structure prediction by ZEFSAII (Michael W. Deem and Ramdas Pophale) SiO2 
 PCOD9479273
Probable space group: C M C A
;
_chemical_formula_sum "Si O2"
_cell_formula_units_Z 88
_cell_length_a 20.115334
_cell_length_b 19.273093
_cell_length_c 9.313051
_cell_angle_alpha 90.000000
_cell_angle_beta 90.000000
_cell_angle_gamma 90.000000
_cell_volume 3610.527410
_symmetry_space_group_name_H-M "C M C A"
_symmetry_group_IT_number 64
_symmetry_cell_setting 'orthorhombic'
loop_
_space_group_symop_operation_xyz
x,y,z
-x,1/2-y,1/2+z
x,-y,-z
-x,1/2+y,1/2-z
-x,-y,-z
x,1/2+y,1/2-z
-x,y,z
x,1/2-y,1/2+z
1/2+x,1/2+y,z
1/2-x,-y,1/2+z
1/2+x,1/2-y,-z
1/2-x,y,1/2-z
1/2-x,1/2-y,-z
1/2+x,y,1/2-z
1/2-x,1/2+y,z
1/2+x,-y,1/2+z
loop_
_atom_site_type_symbol
_atom_site_label
_atom_site_fract_x
_atom_site_fract_y
_atom_site_fract_z
Si Si1 0.575308 0.322733 0.653978
Si Si2 0.748817 0.332134 0.467558
Si Si3 0.250000 0.915456 0.750000
Si Si4 0.882298 0.205156 0.667098
Si Si5 0.104786 0.605857 0.602557
Si Si6 0.893908 0.044672 0.200813
O O1 0.500000 0.307043 0.697034
O O2 0.622633 0.282459 0.767923
O O3 0.587400 0.297447 0.491606
O O4 0.584444 0.405632 0.670255
O O5 0.750000 0.250000 0.500000
O O6 0.728950 0.369551 0.614670
O O7 0.688090 0.334166 0.356040
O O8 0.818980 0.367115 0.426760
O O9 0.186334 0.958238 0.798404
O O10 0.921272 0.165848 0.793639
O O11 0.088970 0.535434 0.689673
O O12 0.082020 0.585393 0.442405
#
# Coordination Sequence:
#
# PCOD9479273 Si02
#       6
#    16  16   8  16  16  16
#     4  12  26  47  70  96 134 182 239 296 340 400
#     4  11  22  36  63  98 142 175 220 279 345 417
#     4  10  20  38  62  96 138 182 214 270 344 414
#     4  12  24  42  67 101 131 177 236 287 348 411
#     4  10  24  40  67 101 144 177 220 274 351 425
#     4  10  22  45  65  99 140 183 226 272 342 422
#
# _framework density 24.373170999999999
#
# number of rings (size 3 to 8) (size 9 to 14) (size 15 to 20)
#    0.000    1.091    1.818    5.455    5.091    0.727 
#    0.000    5.455    0.000    0.000    0.000    0.000 
#    0.000    0.000    0.000    0.000    0.000    0.000 
#
# Total GULP energy -245695.597744 kJ/mol
# GULP energy per Si atom -5583.990858 kJ/mol
# Density = 2.431770 g / cm^3
# Si number density = 24.373171 Si / 1000 Ang^3
#
#
#
# Elastic Constant Matrix: (Units=GPa)
#
#
# Indices 1 2 3 4 5 6 
#
# 1 92.8768 -1.4220 9.0541 0.0000 0.0000 0.0000
# 2 -1.4220 107.6448 25.9033 0.0000 0.0000 0.0000
# 3 9.0541 25.9033 90.5949 0.0000 0.0000 0.0000
# 4 0.0000 0.0000 0.0000 34.6371 0.0000 0.0000
# 5 0.0000 0.0000 0.0000 0.0000 8.1015 0.0000
# 6 0.0000 0.0000 0.0000 0.0000 0.0000 2.2646
#
#
#
# Elastic Compliance Matrix: (Units=1/GPa)
#
#
# Indices 1 2 3 4 5 6 
#
# 1 0.010892 0.000436 -0.001213 0.000000 0.000000 0.000000
# 2 0.000436 0.009994 -0.002901 0.000000 0.000000 0.000000
# 3 -0.001213 -0.002901 0.011989 0.000000 0.000000 0.000000
# 4 0.000000 0.000000 0.000000 0.028871 0.000000 0.000000
# 5 0.000000 0.000000 0.000000 0.000000 0.123434 0.000000
# 6 0.000000 0.000000 0.000000 0.000000 0.000000 0.441585
#
#
# Mechanical properties :
#
#
# Convention : Reuss Voigt Hill
#
# Bulk Modulus (GPa) = 39.18840 39.79858 39.49349
# Shear Modulus (GPa) = 7.78056 26.17272 16.97664
#
# Velocity S-wave (km/s) = 1.78863 3.28049 2.64205
# Velocity P-wave (km/s) = 4.51431 5.54194 5.05431
#
# Compressibility (1/GPa) = 0.02551775
#
# Stress axis : x y z
#
# Youngs Moduli (GPa) = 91.81147 100.06355 83.41083
#
# Poissons Ratio (x) = -0.04361 0.10119
# Poissons Ratio (y) = -0.04001 0.24197
# Poissons Ratio (z) = 0.11138 0.29028
#
# Static dielectric constant tensor:
#      x y z
#    x 1.872030 0.000000 0.000000 
#    y 0.000000 1.892060 0.000000 
#    z 0.000000 0.000000 1.933620 
# 
# From -- ./inp_files/9341.got.cif
#   From: 2010.05.17/outbox.cif.g08.bks.cpg/sg64_5_cif.got.tgz:9341.got - 2010.06.03 16:29:19.
