data_PCOD9479751
_publ_section_title
;
Structure prediction by ZEFSAII (Michael W. Deem and Ramdas Pophale) SiO2 
 PCOD9479751
Probable space group: C M C A
;
_chemical_formula_sum "Si O2"
_cell_formula_units_Z 104
_cell_length_a 27.265860
_cell_length_b 20.943172
_cell_length_c 8.389532
_cell_angle_alpha 90.000000
_cell_angle_beta 90.000000
_cell_angle_gamma 90.000000
_cell_volume 4790.704624
_symmetry_space_group_name_H-M "C M C A"
_symmetry_group_IT_number 64
_symmetry_cell_setting 'orthorhombic'
loop_
_space_group_symop_operation_xyz
x,y,z
-x,1/2-y,1/2+z
x,-y,-z
-x,1/2+y,1/2-z
-x,-y,-z
x,1/2+y,1/2-z
-x,y,z
x,1/2-y,1/2+z
1/2+x,1/2+y,z
1/2-x,-y,1/2+z
1/2+x,1/2-y,-z
1/2-x,y,1/2-z
1/2-x,1/2-y,-z
1/2+x,y,1/2-z
1/2-x,1/2+y,z
1/2+x,-y,1/2+z
loop_
_atom_site_type_symbol
_atom_site_label
_atom_site_fract_x
_atom_site_fract_y
_atom_site_fract_z
Si Si1 0.395970 0.641981 0.353116
Si Si2 0.500000 0.547549 0.719379
Si Si3 0.500000 0.403661 0.646851
Si Si4 0.611370 0.424667 0.297820
Si Si5 0.312352 0.782856 0.949379
Si Si6 0.155966 0.541952 0.343569
Si Si7 0.198179 0.658569 0.711702
Si Si8 0.750000 0.386318 0.750000
O O1 0.453243 0.639868 0.327775
O O2 0.388344 0.604190 0.522872
O O3 0.367129 0.707397 0.380418
O O4 0.373969 0.605173 0.201147
O O5 0.500000 0.470654 0.743268
O O6 0.500000 0.568782 0.533542
O O7 0.555196 0.570988 0.767702
O O8 0.636939 0.493913 0.294783
O O9 0.650130 0.383610 0.194595
O O10 0.294873 0.711047 0.923810
O O11 0.281710 0.838933 0.861252
O O12 0.311614 0.798223 0.133975
O O13 0.146036 0.500000 0.500000
O O14 0.211778 0.566858 0.338880
O O15 0.250000 0.623790 0.750000
#
# Coordination Sequence:
#
# PCOD9479751 Si02
#       8
#    16   8   8  16  16  16  16   8
#     4   9  19  37  58  82 112 146 191 225 269 329
#     4   9  16  32  57  82 112 144 194 220 263 326
#     4   9  14  30  61  82 104 152 184 226 259 328
#     4  10  21  36  58  85 111 151 188 227 271 333
#     4  10  22  39  56  80 107 145 184 232 275 329
#     4  11  23  34  54  83 117 147 178 230 282 332
#     4  11  23  36  61  80 110 143 187 231 280 331
#     4  10  24  38  54  74 116 148 184 226 272 336
#
# _framework density 21.708704999999998
#
# number of rings (size 3 to 8) (size 9 to 14) (size 15 to 20)
#    0.000    2.000    2.308    0.923    3.231    3.692 
#    0.000    2.308    0.000    0.000    0.000    0.000 
#    0.000    0.000    0.000    0.000    0.000    0.000 
#
# Total GULP energy -289841.225894 kJ/mol
# GULP energy per Si atom -5573.869729 kJ/mol
# Density = 2.165930 g / cm^3
# Si number density = 21.708705 Si / 1000 Ang^3
#
#
#
# Elastic Constant Matrix: (Units=GPa)
#
#
# Indices 1 2 3 4 5 6 
#
# 1 182.2574 37.3943 3.7584 0.0000 0.0000 0.0000
# 2 37.3943 46.7082 -0.5640 0.0000 0.0000 0.0000
# 3 3.7584 -0.5640 42.3845 0.0000 0.0000 0.0000
# 4 0.0000 0.0000 0.0000 20.5952 0.0000 0.0000
# 5 0.0000 0.0000 0.0000 0.0000 18.9311 0.0000
# 6 0.0000 0.0000 0.0000 0.0000 0.0000 24.8413
#
#
#
# Elastic Compliance Matrix: (Units=1/GPa)
#
#
# Indices 1 2 3 4 5 6 
#
# 1 0.006583 -0.005278 -0.000654 0.000000 0.000000 0.000000
# 2 -0.005278 0.025645 0.000809 0.000000 0.000000 0.000000
# 3 -0.000654 0.000809 0.023662 0.000000 0.000000 0.000000
# 4 0.000000 0.000000 0.000000 0.048555 0.000000 0.000000
# 5 0.000000 0.000000 0.000000 0.000000 0.052823 0.000000
# 6 0.000000 0.000000 0.000000 0.000000 0.000000 0.040255
#
#
# Mechanical properties :
#
#
# Convention : Reuss Voigt Hill
#
# Bulk Modulus (GPa) = 21.90846 39.16973 30.53910
# Shear Modulus (GPa) = 22.42300 28.25761 25.34031
#
# Velocity S-wave (km/s) = 3.21737 3.61178 3.42027
# Velocity P-wave (km/s) = 4.89039 5.95616 5.44939
#
# Compressibility (1/GPa) = 0.04564446
#
# Stress axis : x y z
#
# Youngs Moduli (GPa) = 151.90156 38.99380 42.26132
#
# Poissons Ratio (x) = 0.20582 0.02764
# Poissons Ratio (y) = 0.80179 -0.03420
# Poissons Ratio (z) = 0.09934 -0.03156
#
# Static dielectric constant tensor:
#      x y z
#    x 1.857930 0.000000 0.000000 
#    y 0.000000 1.780030 0.000000 
#    z 0.000000 0.000000 1.841120 
# 
# From -- ./inp_files/10629.got.cif
#   From: 2010.05.17/outbox.cif.g08.bks.cpg/sg64_6_cif.got.tgz:10629.got - 2010.06.03 16:29:19.
