data_PCOD9479452
_publ_section_title
;
Structure prediction by ZEFSAII (Michael W. Deem and Ramdas Pophale) SiO2 
 PCOD9479452
Probable space group: C M C A
;
_chemical_formula_sum "Si O2"
_cell_formula_units_Z 96
_cell_length_a 8.812859
_cell_length_b 23.995905
_cell_length_c 25.850846
_cell_angle_alpha 90.000000
_cell_angle_beta 90.000000
_cell_angle_gamma 90.000000
_cell_volume 5466.743738
_symmetry_space_group_name_H-M "C M C A"
_symmetry_group_IT_number 64
_symmetry_cell_setting 'orthorhombic'
loop_
_space_group_symop_operation_xyz
x,y,z
-x,1/2-y,1/2+z
x,-y,-z
-x,1/2+y,1/2-z
-x,-y,-z
x,1/2+y,1/2-z
-x,y,z
x,1/2-y,1/2+z
1/2+x,1/2+y,z
1/2-x,-y,1/2+z
1/2+x,1/2-y,-z
1/2-x,y,1/2-z
1/2-x,1/2-y,-z
1/2+x,y,1/2-z
1/2-x,1/2+y,z
1/2+x,-y,1/2+z
loop_
_atom_site_type_symbol
_atom_site_label
_atom_site_fract_x
_atom_site_fract_y
_atom_site_fract_z
Si Si1 0.682958 0.496780 0.938844
Si Si2 0.317751 0.811527 0.503152
Si Si3 0.318102 0.118776 0.600225
Si Si4 0.680959 0.812874 0.193696
Si Si5 0.817781 0.683678 0.306669
Si Si6 0.318815 0.381622 0.597812
O O1 0.500000 0.489744 0.935597
O O2 0.724649 0.555026 0.911845
O O3 0.762785 0.444224 0.912957
O O4 0.720452 0.500000 0.000000
O O5 0.500000 0.809610 0.508840
O O6 0.250000 0.750000 0.500000
O O7 0.281719 0.844888 0.450605
O O8 0.247065 0.844225 0.551268
O O9 0.500000 0.120469 0.606891
O O10 0.241885 0.146027 0.649971
O O11 0.500000 0.816341 0.196766
O O12 0.750000 0.825018 0.250000
O O13 0.720767 0.748404 0.180450
O O14 0.750000 0.672424 0.250000
O O15 0.747648 0.643307 0.349301
O O16 0.000000 0.678657 0.305779
O O17 0.500000 0.378862 0.598266
#
# Coordination Sequence:
#
# PCOD9479452 Si02
#       6
#    16  16  16  16  16  16
#     4  10  20  40  62  81 111 157 200 241 294 345
#     4  11  22  37  56  84 118 153 190 237 293 351
#     4  10  21  37  59  83 113 151 193 237 288 344
#     4  10  21  37  60  87 117 151 190 235 287 344
#     4  10  21  39  62  87 117 155 194 240 293 350
#     4  12  24  37  57  87 119 154 195 241 289 349
#
# _framework density 17.560728000000001
#
# number of rings (size 3 to 8) (size 9 to 14) (size 15 to 20)
#    0.000    1.500    1.667    4.000    0.000    7.000 
#    0.000    0.833    0.000    4.000    0.000    0.000 
#    0.000    0.000    0.000    0.000    0.000    0.000 
#
# Total GULP energy -268295.496944 kJ/mol
# GULP energy per Si atom -5589.489520 kJ/mol
# Density = 1.752076 g / cm^3
# Si number density = 17.560728 Si / 1000 Ang^3
#
#
#
# Elastic Constant Matrix: (Units=GPa)
#
#
# Indices 1 2 3 4 5 6 
#
# 1 75.6091 77.1345 73.0742 0.0000 0.0000 0.0000
# 2 77.1345 177.1924 113.5320 0.0000 0.0000 0.0000
# 3 73.0742 113.5320 153.5510 0.0000 0.0000 0.0000
# 4 0.0000 0.0000 0.0000 -3.3972 0.0000 0.0000
# 5 0.0000 0.0000 0.0000 0.0000 33.7634 0.0000
# 6 0.0000 0.0000 0.0000 0.0000 0.0000 31.7723
#
#
#
# Elastic Compliance Matrix: (Units=1/GPa)
#
#
# Indices 1 2 3 4 5 6 
#
# 1 0.028483 -0.007058 -0.008337 0.000000 0.000000 0.000000
# 2 -0.007058 0.012473 -0.005863 0.000000 0.000000 0.000000
# 3 -0.008337 -0.005863 0.014815 0.000000 0.000000 0.000000
# 4 0.000000 0.000000 0.000000 -0.294362 0.000000 0.000000
# 5 0.000000 0.000000 0.000000 0.000000 0.029618 0.000000
# 6 0.000000 0.000000 0.000000 0.000000 0.000000 0.031474
#
#
# Mechanical properties :
#
#
# Convention : Reuss Voigt Hill
#
# Bulk Modulus (GPa) = 75.43987 103.75932 89.59960
# Shear Modulus (GPa) = -38.29488 21.93516 -8.17986
#
# Velocity S-wave (km/s) = -4.67488 3.53810 -2.16059
# Velocity P-wave (km/s) = 3.73007 8.71236 6.70144
#
# Compressibility (1/GPa) = 0.01325559
#
# Stress axis : x y z
#
# Youngs Moduli (GPa) = 35.10843 80.17565 67.49839
#
# Poissons Ratio (x) = 0.56584 0.56272
# Poissons Ratio (y) = 0.24778 0.39576
# Poissons Ratio (z) = 0.29269 0.47010
#
# Static dielectric constant tensor:
#      x y z
#    x 1.583110 0.000000 0.000000 
#    y 0.000000 1.581220 0.000000 
#    z 0.000000 0.000000 1.565700 
# 
# From -- ./inp_files/43027.got.cif
#   From: 2010.05.17/outbox.cif.g08.bks.cpg/sg64_22_cif.got.tgz:43027.got - 2010.06.03 16:29:19.
