data_PCOD9479759
_publ_section_title
;
Structure prediction by ZEFSAII (Michael W. Deem and Ramdas Pophale) SiO2 
 PCOD9479759
Probable space group: C M C A
;
_chemical_formula_sum "Si O2"
_cell_formula_units_Z 112
_cell_length_a 28.081768
_cell_length_b 30.317197
_cell_length_c 5.718113
_cell_angle_alpha 90.000000
_cell_angle_beta 90.000000
_cell_angle_gamma 90.000000
_cell_volume 4868.175500
_symmetry_space_group_name_H-M "C M C A"
_symmetry_group_IT_number 64
_symmetry_cell_setting 'orthorhombic'
loop_
_space_group_symop_operation_xyz
x,y,z
-x,1/2-y,1/2+z
x,-y,-z
-x,1/2+y,1/2-z
-x,-y,-z
x,1/2+y,1/2-z
-x,y,z
x,1/2-y,1/2+z
1/2+x,1/2+y,z
1/2-x,-y,1/2+z
1/2+x,1/2-y,-z
1/2-x,y,1/2-z
1/2-x,1/2-y,-z
1/2+x,y,1/2-z
1/2-x,1/2+y,z
1/2+x,-y,1/2+z
loop_
_atom_site_type_symbol
_atom_site_label
_atom_site_fract_x
_atom_site_fract_y
_atom_site_fract_z
Si Si1 0.646514 0.954310 0.461749
Si Si2 0.804825 0.628405 0.298696
Si Si3 0.052360 0.064162 0.202974
Si Si4 0.551058 0.148823 0.602515
Si Si5 0.884349 0.392557 0.071328
Si Si6 0.072686 0.768458 0.845847
Si Si7 0.686131 0.769652 0.621317
O O1 0.674535 0.911116 0.546254
O O2 0.599835 0.961577 0.628157
O O3 0.631060 0.937142 0.207471
O O4 0.673972 0.000000 0.500000
O O5 0.750000 0.619044 0.250000
O O6 0.806913 0.677710 0.400709
O O7 0.840430 0.625558 0.077613
O O8 0.069502 0.092055 0.425088
O O9 0.000000 0.043144 0.233648
O O10 0.048620 0.099444 0.994259
O O11 0.500000 0.160312 0.710522
O O12 0.596365 0.147433 0.769163
O O13 0.560543 0.180522 0.385237
O O14 0.055061 0.752530 0.592867
O O15 0.129329 0.761858 0.857518
O O16 0.703574 0.746256 0.380447
#
# Coordination Sequence:
#
# PCOD9479759 Si02
#       7
#    16  16  16  16  16  16  16
#     4  10  23  44  66  97 137 179 226 286 349 420
#     4  11  26  45  67 101 132 176 235 294 362 433
#     4   9  19  36  62  95 127 168 221 272 334 411
#     4  10  21  36  58  89 125 173 224 274 335 409
#     4  10  21  40  67  88 131 172 223 282 349 414
#     4  10  22  36  57  87 130 177 227 280 343 411
#     4  10  23  42  71 102 137 180 228 289 362 427
#
# _framework density 23.006568000000001
#
# number of rings (size 3 to 8) (size 9 to 14) (size 15 to 20)
#    0.000    2.000    0.000    3.000   10.000    4.857 
#    2.571    0.714    0.000    0.000    0.000    0.000 
#    0.000    0.000    0.000    0.000    0.000    0.000 
#
# Total GULP energy -312367.048867 kJ/mol
# GULP energy per Si atom -5577.983015 kJ/mol
# Density = 2.295420 g / cm^3
# Si number density = 23.006568 Si / 1000 Ang^3
#
#
#
# Elastic Constant Matrix: (Units=GPa)
#
#
# Indices 1 2 3 4 5 6 
#
# 1 78.9646 -0.6078 31.8208 0.0000 0.0000 0.0000
# 2 -0.6078 113.1720 32.7268 0.0000 0.0000 0.0000
# 3 31.8208 32.7268 72.9591 0.0000 0.0000 0.0000
# 4 0.0000 0.0000 0.0000 28.7060 0.0000 0.0000
# 5 0.0000 0.0000 0.0000 0.0000 -4.1000 0.0000
# 6 0.0000 0.0000 0.0000 0.0000 0.0000 -57.6484
#
#
#
# Elastic Compliance Matrix: (Units=1/GPa)
#
#
# Indices 1 2 3 4 5 6 
#
# 1 0.015914 0.002404 -0.008019 0.000000 0.000000 0.000000
# 2 0.002404 0.010516 -0.005766 0.000000 0.000000 0.000000
# 3 -0.008019 -0.005766 0.019790 0.000000 0.000000 0.000000
# 4 0.000000 0.000000 0.000000 0.034836 0.000000 0.000000
# 5 0.000000 0.000000 0.000000 0.000000 -0.243901 0.000000
# 6 0.000000 0.000000 0.000000 0.000000 0.000000 -0.017347
#
#
# Mechanical properties :
#
#
# Convention : Reuss Voigt Hill
#
# Bulk Modulus (GPa) = 42.62757 43.66393 43.14575
# Shear Modulus (GPa) = -33.42045 6.80192 -13.30927
#
# Velocity S-wave (km/s) = -3.81550 1.72132 -2.40781
# Velocity P-wave (km/s) = 0.91762 4.79277 3.32631
#
# Compressibility (1/GPa) = 0.02345900
#
# Stress axis : x y z
#
# Youngs Moduli (GPa) = 62.83758 95.08940 50.52967
#
# Poissons Ratio (x) = -0.22864 0.40522
# Poissons Ratio (y) = -0.15109 0.29135
# Poissons Ratio (z) = 0.50392 0.54828
#
# Static dielectric constant tensor:
#      x y z
#    x 1.907280 0.000000 0.000000 
#    y 0.000000 1.879650 0.000000 
#    z 0.000000 0.000000 1.950040 
# 
# From -- ./inp_files/3471.got.cif
#   From: 2010.05.17/outbox.cif.g08.bks.cpg/sg64_2_cif.got.tgz:3471.got - 2010.06.03 16:29:19.
