data_PCOD9479157
_publ_section_title
;
Structure prediction by ZEFSAII (Michael W. Deem and Ramdas Pophale) SiO2 
 PCOD9479157
Probable space group: C M C A
;
_chemical_formula_sum "Si O2"
_cell_formula_units_Z 64
_cell_length_a 14.448678
_cell_length_b 17.952192
_cell_length_c 10.458519
_cell_angle_alpha 90.000000
_cell_angle_beta 90.000000
_cell_angle_gamma 90.000000
_cell_volume 2712.787569
_symmetry_space_group_name_H-M "C M C A"
_symmetry_group_IT_number 64
_symmetry_cell_setting 'orthorhombic'
loop_
_space_group_symop_operation_xyz
x,y,z
-x,1/2-y,1/2+z
x,-y,-z
-x,1/2+y,1/2-z
-x,-y,-z
x,1/2+y,1/2-z
-x,y,z
x,1/2-y,1/2+z
1/2+x,1/2+y,z
1/2-x,-y,1/2+z
1/2+x,1/2-y,-z
1/2-x,y,1/2-z
1/2-x,1/2-y,-z
1/2+x,y,1/2-z
1/2-x,1/2+y,z
1/2+x,-y,1/2+z
loop_
_atom_site_type_symbol
_atom_site_label
_atom_site_fract_x
_atom_site_fract_y
_atom_site_fract_z
Si Si1 0.399739 0.095499 0.333687
Si Si2 0.735119 0.363373 0.051621
Si Si3 0.162237 0.226373 0.341860
Si Si4 0.397243 0.039954 0.861967
O O1 0.500000 0.093554 0.398087
O O2 0.318556 0.095622 0.437237
O O3 0.398363 0.168654 0.240299
O O4 0.390118 0.023938 0.244053
O O5 0.655370 0.313287 0.119854
O O6 0.804938 0.411138 0.135751
O O7 0.809414 0.311663 0.975099
O O8 0.250000 0.229828 0.250000
O O9 0.500000 0.076715 0.848036
O O10 0.398096 0.000000 0.000000
#
# Coordination Sequence:
#
# PCOD9479157 Si02
#       4
#    16  16  16  16
#     4  10  21  39  65  97 133 172 219 272 329 392
#     4  10  20  38  62  93 127 169 216 270 329 382
#     4   9  19  37  58  92 124 163 217 256 320 390
#     4  10  20  37  64  95 122 167 227 271 322 392
#
# _framework density 23.591968999999999
#
# number of rings (size 3 to 8) (size 9 to 14) (size 15 to 20)
#    0.000    2.250    2.500    0.000    0.000    1.000 
#    4.500   10.000    0.000    3.750    0.000    0.000 
#    0.000    0.000    0.000    0.000    0.000    0.000 
#
# Total GULP energy -178362.696689 kJ/mol
# GULP energy per Si atom -5573.834272 kJ/mol
# Density = 2.353827 g / cm^3
# Si number density = 23.591969 Si / 1000 Ang^3
#
#
#
# Elastic Constant Matrix: (Units=GPa)
#
#
# Indices 1 2 3 4 5 6 
#
# 1 122.6767 60.5421 55.1689 0.0000 0.0000 0.0000
# 2 60.5421 74.8353 42.9739 0.0000 0.0000 0.0000
# 3 55.1689 42.9739 65.8544 0.0000 0.0000 0.0000
# 4 0.0000 0.0000 0.0000 34.7268 0.0000 0.0000
# 5 0.0000 0.0000 0.0000 0.0000 14.1604 0.0000
# 6 0.0000 0.0000 0.0000 0.0000 0.0000 -12.0888
#
#
#
# Elastic Compliance Matrix: (Units=1/GPa)
#
#
# Indices 1 2 3 4 5 6 
#
# 1 0.015726 -0.008248 -0.007792 0.000000 0.000000 0.000000
# 2 -0.008248 0.025697 -0.009859 0.000000 0.000000 0.000000
# 3 -0.007792 -0.009859 0.028147 0.000000 0.000000 0.000000
# 4 0.000000 0.000000 0.000000 0.028796 0.000000 0.000000
# 5 0.000000 0.000000 0.000000 0.000000 0.070619 0.000000
# 6 0.000000 0.000000 0.000000 0.000000 0.000000 -0.082721
#
#
# Mechanical properties :
#
#
# Convention : Reuss Voigt Hill
#
# Bulk Modulus (GPa) = 56.27119 64.52624 60.39872
# Shear Modulus (GPa) = 34.72556 14.33845 24.53200
#
# Velocity S-wave (km/s) = 3.84073 2.46797 3.22816
# Velocity P-wave (km/s) = 6.60090 5.96083 6.28901
#
# Compressibility (1/GPa) = 0.01777108
#
# Stress axis : x y z
#
# Youngs Moduli (GPa) = 63.58845 38.91534 35.52835
#
# Poissons Ratio (x) = 0.32097 0.27684
# Poissons Ratio (y) = 0.52447 0.35028
# Poissons Ratio (z) = 0.49549 0.38367
#
# Static dielectric constant tensor:
#      x y z
#    x 1.887980 0.000000 0.000000 
#    y 0.000000 2.055350 0.000000 
#    z 0.000000 0.000000 1.930760 
# 
# From -- ./inp_files/14003.got.cif
#   From: 2010.05.17/outbox.cif.g08.bks.cpg/sg64_8_cif.got.tgz:14003.got - 2010.06.03 16:29:19.
