data_PCOD9479061
_publ_section_title
;
Structure prediction by ZEFSAII (Michael W. Deem and Ramdas Pophale) SiO2 
 PCOD9479061
Probable space group: C M C A
;
_chemical_formula_sum "Si O2"
_cell_formula_units_Z 80
_cell_length_a 15.226174
_cell_length_b 10.480491
_cell_length_c 26.514533
_cell_angle_alpha 90.000000
_cell_angle_beta 90.000000
_cell_angle_gamma 90.000000
_cell_volume 4231.130303
_symmetry_space_group_name_H-M "C M C A"
_symmetry_group_IT_number 64
_symmetry_cell_setting 'orthorhombic'
loop_
_space_group_symop_operation_xyz
x,y,z
-x,1/2-y,1/2+z
x,-y,-z
-x,1/2+y,1/2-z
-x,-y,-z
x,1/2+y,1/2-z
-x,y,z
x,1/2-y,1/2+z
1/2+x,1/2+y,z
1/2-x,-y,1/2+z
1/2+x,1/2-y,-z
1/2-x,y,1/2-z
1/2-x,1/2-y,-z
1/2+x,y,1/2-z
1/2-x,1/2+y,z
1/2+x,-y,1/2+z
loop_
_atom_site_type_symbol
_atom_site_label
_atom_site_fract_x
_atom_site_fract_y
_atom_site_fract_z
Si Si1 0.604339 0.974924 0.396225
Si Si2 0.834738 0.032100 0.782924
Si Si3 0.748423 0.124184 0.965969
Si Si4 0.400102 0.759646 0.721725
Si Si5 0.396661 0.725822 0.606769
O O1 0.500000 0.942373 0.390616
O O2 0.658935 0.895737 0.437076
O O3 0.656552 0.961780 0.343279
O O4 0.607610 0.125460 0.409859
O O5 0.750000 0.994987 0.750000
O O6 0.896525 0.911036 0.770389
O O7 0.855250 0.172909 0.763068
O O8 0.669276 0.142788 0.926155
O O9 0.750000 0.250000 0.000000
O O10 0.733414 0.000000 0.000000
O O11 0.500000 0.717932 0.721826
O O12 0.366612 0.727813 0.665406
O O13 0.500000 0.688217 0.603995
#
# Coordination Sequence:
#
# PCOD9479061 Si02
#       5
#    16  16  16  16  16
#     4  10  22  42  64  87 123 172 210 241 304 391
#     4  11  21  36  60  90 123 158 198 244 295 353
#     4  12  24  41  65  92 119 153 209 269 317 367
#     4  10  20  37  59  86 121 161 197 237 294 363
#     4   9  20  40  63  87 124 165 202 248 311 374
#
# _framework density 18.907475999999999
#
# number of rings (size 3 to 8) (size 9 to 14) (size 15 to 20)
#    0.000    1.600    2.000    4.800    0.000    3.200 
#    3.600    0.000    0.000    0.000    0.000    0.000 
#    0.000    0.000    0.000    0.000    0.000    0.000 
#
# Total GULP energy -222858.915397 kJ/mol
# GULP energy per Si atom -5571.472885 kJ/mol
# Density = 1.886444 g / cm^3
# Si number density = 18.907476 Si / 1000 Ang^3
#
#
#
# Elastic Constant Matrix: (Units=GPa)
#
#
# Indices 1 2 3 4 5 6 
#
# 1 86.2150 12.0516 49.0539 0.0000 0.0000 0.0000
# 2 12.0516 79.5456 35.3494 0.0000 0.0000 0.0000
# 3 49.0539 35.3494 70.6854 0.0000 0.0000 0.0000
# 4 0.0000 0.0000 0.0000 38.6156 0.0000 0.0000
# 5 0.0000 0.0000 0.0000 0.0000 21.9685 0.0000
# 6 0.0000 0.0000 0.0000 0.0000 0.0000 -25.2463
#
#
#
# Elastic Compliance Matrix: (Units=1/GPa)
#
#
# Indices 1 2 3 4 5 6 
#
# 1 0.020139 0.004062 -0.016007 0.000000 0.000000 0.000000
# 2 0.004062 0.016983 -0.011312 0.000000 0.000000 0.000000
# 3 -0.016007 -0.011312 0.030913 0.000000 0.000000 0.000000
# 4 0.000000 0.000000 0.000000 0.025896 0.000000 0.000000
# 5 0.000000 0.000000 0.000000 0.000000 0.045520 0.000000
# 6 0.000000 0.000000 0.000000 0.000000 0.000000 -0.039610
#
#
# Mechanical properties :
#
#
# Convention : Reuss Voigt Hill
#
# Bulk Modulus (GPa) = 46.46768 47.70621 47.08694
# Shear Modulus (GPa) = 32.56701 16.40030 24.48365
#
# Velocity S-wave (km/s) = 4.15473 2.94836 3.60240
# Velocity P-wave (km/s) = 6.90257 6.07261 6.50085
#
# Compressibility (1/GPa) = 0.02152034
#
# Stress axis : x y z
#
# Youngs Moduli (GPa) = 49.65528 58.88224 32.34860
#
# Poissons Ratio (x) = -0.23921 0.51782
# Poissons Ratio (y) = -0.20172 0.36594
# Poissons Ratio (z) = 0.79486 0.66610
#
# Static dielectric constant tensor:
#      x y z
#    x 1.736900 0.000000 0.000000 
#    y 0.000000 1.625050 0.000000 
#    z 0.000000 0.000000 1.688240 
# 
# From -- ./inp_files/44925.got.cif
#   From: 2010.05.17/outbox.cif.g08.bks.cpg/sg64_23_cif.got.tgz:44925.got - 2010.06.03 16:29:19.
