data_PCOD9479339
_publ_section_title
;
Structure prediction by ZEFSAII (Michael W. Deem and Ramdas Pophale) SiO2 
 PCOD9479339
Probable space group: C M C A
;
_chemical_formula_sum "Si O2"
_cell_formula_units_Z 116
_cell_length_a 21.314640
_cell_length_b 8.868678
_cell_length_c 27.958647
_cell_angle_alpha 90.000000
_cell_angle_beta 90.000000
_cell_angle_gamma 90.000000
_cell_volume 5285.097939
_symmetry_space_group_name_H-M "C M C A"
_symmetry_group_IT_number 64
_symmetry_cell_setting 'orthorhombic'
loop_
_space_group_symop_operation_xyz
x,y,z
-x,1/2-y,1/2+z
x,-y,-z
-x,1/2+y,1/2-z
-x,-y,-z
x,1/2+y,1/2-z
-x,y,z
x,1/2-y,1/2+z
1/2+x,1/2+y,z
1/2-x,-y,1/2+z
1/2+x,1/2-y,-z
1/2-x,y,1/2-z
1/2-x,1/2-y,-z
1/2+x,y,1/2-z
1/2-x,1/2+y,z
1/2+x,-y,1/2+z
loop_
_atom_site_type_symbol
_atom_site_label
_atom_site_fract_x
_atom_site_fract_y
_atom_site_fract_z
Si Si1 0.000000 0.000000 0.000000
Si Si2 0.243972 0.042608 0.601756
Si Si3 0.926270 0.944674 0.577280
Si Si4 0.318354 0.220883 0.040660
Si Si5 0.608142 0.280606 0.956663
Si Si6 0.335246 0.317937 0.858513
Si Si7 0.073665 0.103983 0.314945
Si Si8 0.925140 0.771465 0.274619
O O1 0.944588 0.883959 0.979976
O O2 0.292526 0.144839 0.572196
O O3 0.197608 0.158057 0.628513
O O4 0.212180 0.931302 0.562438
O O5 0.280115 0.940617 0.640402
O O6 0.891686 0.816558 0.547906
O O7 0.901893 0.921142 0.631683
O O8 0.000000 0.922818 0.576089
O O9 0.913137 0.109708 0.555999
O O10 0.324256 0.266030 0.984965
O O11 0.622920 0.352288 0.904983
O O12 0.380053 0.308987 0.812856
O O13 0.096816 0.231995 0.278994
O O14 0.000000 0.135390 0.321805
O O15 0.079184 0.947506 0.286559
O O16 0.000000 0.730180 0.279829
#
# Coordination Sequence:
#
# PCOD9479339 Si02
#       8
#     4  16  16  16  16  16  16  16
#     4  12  28  40  58 100 152 172 218 260 334 440
#     4  10  24  43  65  92 135 170 246 271 323 393
#     4  11  22  41  66  93 134 177 216 263 341 406
#     4  11  24  42  64  98 127 183 226 277 323 385
#     4  12  24  40  63  97 133 184 215 267 339 385
#     4  11  23  42  67  94 128 181 214 286 335 387
#     4   9  19  36  63  95 127 168 209 266 334 413
#     4  10  20  38  66  99 125 159 213 269 345 404
#
# _framework density 21.948505999999998
#
# number of rings (size 3 to 8) (size 9 to 14) (size 15 to 20)
#    0.000    1.379    3.448    1.241    1.931    4.966 
#    0.000    1.379    0.000   14.069    0.000    0.000 
#    0.000    0.000    0.000    0.000    0.000    0.000 
#
# Total GULP energy -323383.641279 kJ/mol
# GULP energy per Si atom -5575.580022 kJ/mol
# Density = 2.189855 g / cm^3
# Si number density = 21.948506 Si / 1000 Ang^3
#
#
#
# Elastic Constant Matrix: (Units=GPa)
#
#
# Indices 1 2 3 4 5 6 
#
# 1 55.5546 29.6197 -3.6920 0.0000 0.0000 0.0000
# 2 29.6197 62.2747 22.0689 0.0000 0.0000 0.0000
# 3 -3.6920 22.0689 62.3737 0.0000 0.0000 0.0000
# 4 0.0000 0.0000 0.0000 29.7305 0.0000 0.0000
# 5 0.0000 0.0000 0.0000 0.0000 35.8889 0.0000
# 6 0.0000 0.0000 0.0000 0.0000 0.0000 27.7596
#
#
#
# Elastic Compliance Matrix: (Units=1/GPa)
#
#
# Indices 1 2 3 4 5 6 
#
# 1 0.026472 -0.015031 0.006885 0.000000 0.000000 0.000000
# 2 -0.015031 0.026894 -0.010405 0.000000 0.000000 0.000000
# 3 0.006885 -0.010405 0.020122 0.000000 0.000000 0.000000
# 4 0.000000 0.000000 0.000000 0.033636 0.000000 0.000000
# 5 0.000000 0.000000 0.000000 0.000000 0.027864 0.000000
# 6 0.000000 0.000000 0.000000 0.000000 0.000000 0.036024
#
#
# Mechanical properties :
#
#
# Convention : Reuss Voigt Hill
#
# Bulk Modulus (GPa) = 27.48345 30.68847 29.08596
# Shear Modulus (GPa) = 22.70243 27.48957 25.09600
#
# Velocity S-wave (km/s) = 3.21962 3.54285 3.38509
# Velocity P-wave (km/s) = 5.13520 5.54509 5.34408
#
# Compressibility (1/GPa) = 0.03638553
#
# Stress axis : x y z
#
# Youngs Moduli (GPa) = 37.77631 37.18258 49.69804
#
# Poissons Ratio (x) = 0.55888 -0.34217
# Poissons Ratio (y) = 0.56780 0.51713
# Poissons Ratio (z) = -0.26009 0.38690
#
# Static dielectric constant tensor:
#      x y z
#    x 1.861400 0.000000 0.000000 
#    y 0.000000 1.805230 0.000000 
#    z 0.000000 0.000000 1.882120 
# 
# From -- ./inp_files/53972.got.cif
#   From: 2010.05.17/outbox.cif.g08.bks.cpg/sg64_27_cif.got.tgz:53972.got - 2010.06.03 16:29:19.
