data_PCOD9479966
_publ_section_title
;
Structure prediction by ZEFSAII (Michael W. Deem and Ramdas Pophale) SiO2 
 PCOD9479966
Probable space group: C M C A
;
_chemical_formula_sum "Si O2"
_cell_formula_units_Z 80
_cell_length_a 25.294151
_cell_length_b 14.493255
_cell_length_c 11.424497
_cell_angle_alpha 90.000000
_cell_angle_beta 90.000000
_cell_angle_gamma 90.000000
_cell_volume 4188.158685
_symmetry_space_group_name_H-M "C M C A"
_symmetry_group_IT_number 64
_symmetry_cell_setting 'orthorhombic'
loop_
_space_group_symop_operation_xyz
x,y,z
-x,1/2-y,1/2+z
x,-y,-z
-x,1/2+y,1/2-z
-x,-y,-z
x,1/2+y,1/2-z
-x,y,z
x,1/2-y,1/2+z
1/2+x,1/2+y,z
1/2-x,-y,1/2+z
1/2+x,1/2-y,-z
1/2-x,y,1/2-z
1/2-x,1/2-y,-z
1/2+x,y,1/2-z
1/2-x,1/2+y,z
1/2+x,-y,1/2+z
loop_
_atom_site_type_symbol
_atom_site_label
_atom_site_fract_x
_atom_site_fract_y
_atom_site_fract_z
Si Si1 0.219406 0.153818 0.990175
Si Si2 0.364976 0.670660 0.196599
Si Si3 0.849131 0.619470 0.740197
Si Si4 0.060112 0.511926 0.360193
Si Si5 0.205759 0.456010 0.850677
O O1 0.171174 0.153401 0.082178
O O2 0.262229 0.082700 0.039757
O O3 0.250000 0.250000 0.000000
O O4 0.194721 0.133149 0.863022
O O5 0.366675 0.779796 0.217335
O O6 0.418284 0.613189 0.174950
O O7 0.335309 0.622375 0.306069
O O8 0.898425 0.562059 0.689855
O O9 0.824764 0.553211 0.840047
O O10 0.061171 0.500000 0.500000
O O11 0.000000 0.498002 0.319575
O O12 0.250000 0.460885 0.750000
#
# Coordination Sequence:
#
# PCOD9479966 Si02
#       5
#    16  16  16  16  16
#     4  11  21  37  56  82 125 171 192 238 294 359
#     4  10  21  38  55  90 116 153 207 248 288 376
#     4  11  22  38  60  87 125 156 206 253 300 373
#     4  10  21  41  65  85 112 156 207 264 316 357
#     4   9  21  33  52  83 119 160 202 231 284 361
#
# _framework density 19.101472000000001
#
# number of rings (size 3 to 8) (size 9 to 14) (size 15 to 20)
#    0.000    1.800    4.000    0.000    2.800    0.800 
#    0.000    0.000    0.000    0.000    0.000    1.400 
#    0.000    0.000    0.000    0.000    0.000    0.000 
#
# Total GULP energy -223321.036699 kJ/mol
# GULP energy per Si atom -5583.025917 kJ/mol
# Density = 1.905800 g / cm^3
# Si number density = 19.101472 Si / 1000 Ang^3
#
#
#
# Elastic Constant Matrix: (Units=GPa)
#
#
# Indices 1 2 3 4 5 6 
#
# 1 122.2630 58.8664 35.8329 0.0000 0.0000 0.0000
# 2 58.8664 191.4759 39.0530 0.0000 0.0000 0.0000
# 3 35.8329 39.0530 52.4350 0.0000 0.0000 0.0000
# 4 0.0000 0.0000 0.0000 24.6167 0.0000 0.0000
# 5 0.0000 0.0000 0.0000 0.0000 23.7549 0.0000
# 6 0.0000 0.0000 0.0000 0.0000 0.0000 16.0615
#
#
#
# Elastic Compliance Matrix: (Units=1/GPa)
#
#
# Indices 1 2 3 4 5 6 
#
# 1 0.010941 -0.002168 -0.005862 0.000000 0.000000 0.000000
# 2 -0.002168 0.006588 -0.003425 0.000000 0.000000 0.000000
# 3 -0.005862 -0.003425 0.025628 0.000000 0.000000 0.000000
# 4 0.000000 0.000000 0.000000 0.040623 0.000000 0.000000
# 5 0.000000 0.000000 0.000000 0.000000 0.042097 0.000000
# 6 0.000000 0.000000 0.000000 0.000000 0.000000 0.062261
#
#
# Mechanical properties :
#
#
# Convention : Reuss Voigt Hill
#
# Bulk Modulus (GPa) = 49.39063 70.40874 59.89968
# Shear Modulus (GPa) = 22.95732 28.38140 25.66936
#
# Velocity S-wave (km/s) = 3.47055 3.85882 3.66982
# Velocity P-wave (km/s) = 6.47864 7.53620 7.02734
#
# Compressibility (1/GPa) = 0.02024676
#
# Stress axis : x y z
#
# Youngs Moduli (GPa) = 91.39924 151.79948 39.01977
#
# Poissons Ratio (x) = 0.32911 0.22874
# Poissons Ratio (y) = 0.19816 0.13364
# Poissons Ratio (z) = 0.53579 0.51989
#
# Static dielectric constant tensor:
#      x y z
#    x 1.648700 0.000000 0.000000 
#    y 0.000000 1.745840 0.000000 
#    z 0.000000 0.000000 1.724820 
# 
# From -- ./inp_files/18082.got.cif
#   From: 2010.05.17/outbox.cif.g08.bks.cpg/sg64_10_cif.got.tgz:18082.got - 2010.06.03 16:29:19.
