data_PCOD9479668
_publ_section_title
;
Structure prediction by ZEFSAII (Michael W. Deem and Ramdas Pophale) SiO2 
 PCOD9479668
Probable space group: C M C A
;
_chemical_formula_sum "Si O2"
_cell_formula_units_Z 72
_cell_length_a 19.174405
_cell_length_b 14.339721
_cell_length_c 11.216370
_cell_angle_alpha 90.000000
_cell_angle_beta 90.000000
_cell_angle_gamma 90.000000
_cell_volume 3084.003946
_symmetry_space_group_name_H-M "C M C A"
_symmetry_group_IT_number 64
_symmetry_cell_setting 'orthorhombic'
loop_
_space_group_symop_operation_xyz
x,y,z
-x,1/2-y,1/2+z
x,-y,-z
-x,1/2+y,1/2-z
-x,-y,-z
x,1/2+y,1/2-z
-x,y,z
x,1/2-y,1/2+z
1/2+x,1/2+y,z
1/2-x,-y,1/2+z
1/2+x,1/2-y,-z
1/2-x,y,1/2-z
1/2-x,1/2-y,-z
1/2+x,y,1/2-z
1/2-x,1/2+y,z
1/2+x,-y,1/2+z
loop_
_atom_site_type_symbol
_atom_site_label
_atom_site_fract_x
_atom_site_fract_y
_atom_site_fract_z
Si Si1 0.381162 0.147531 0.605707
Si Si2 0.000000 0.591590 0.155054
Si Si3 0.500000 0.755807 0.538788
Si Si4 0.147331 0.152699 0.286342
Si Si5 0.500000 0.898770 0.225000
Si Si6 0.762070 0.644013 0.452065
O O1 0.431376 0.185987 0.498915
O O2 0.358652 0.238176 0.681137
O O3 0.432346 0.091645 0.691406
O O4 0.311372 0.100641 0.554214
O O5 0.070731 0.612338 0.225500
O O6 0.000000 0.481813 0.131196
O O7 0.000000 0.667650 0.051161
O O8 0.500000 0.703918 0.665505
O O9 0.191624 0.143830 0.167243
O O10 0.187849 0.108989 0.401903
O O11 0.750000 0.750000 0.500000
#
# Coordination Sequence:
#
# PCOD9479668 Si02
#       6
#    16   8   8  16   8  16
#     4   9  18  31  54  85 107 134 183 238 279 315
#     4  10  21  35  54  81 112 153 186 217 275 338
#     4   9  18  33  54  82 112 145 184 229 277 329
#     4   9  18  34  56  78 108 142 180 231 279 328
#     4  11  20  32  54  83 114 146 182 222 269 341
#     4   9  17  32  56  80 103 140 184 226 278 330
#
# _framework density 23.346273
#
# number of rings (size 3 to 8) (size 9 to 14) (size 15 to 20)
#    0.000    2.667    0.000    2.333    0.000    1.778 
#    0.000    3.333    0.000   48.000    0.000    0.000 
#    0.000    0.000    0.000    0.000    0.000    0.000 
#
# Total GULP energy -200810.544602 kJ/mol
# GULP energy per Si atom -5578.070683 kJ/mol
# Density = 2.329314 g / cm^3
# Si number density = 23.346273 Si / 1000 Ang^3
#
#
#
# Elastic Constant Matrix: (Units=GPa)
#
#
# Indices 1 2 3 4 5 6 
#
# 1 113.0402 13.3006 29.8299 0.0000 0.0000 0.0000
# 2 13.3006 52.0376 11.8368 0.0000 0.0000 0.0000
# 3 29.8299 11.8368 74.4957 0.0000 0.0000 0.0000
# 4 0.0000 0.0000 0.0000 20.6145 0.0000 0.0000
# 5 0.0000 0.0000 0.0000 0.0000 17.9701 0.0000
# 6 0.0000 0.0000 0.0000 0.0000 0.0000 -5.2662
#
#
#
# Elastic Compliance Matrix: (Units=1/GPa)
#
#
# Indices 1 2 3 4 5 6 
#
# 1 0.010037 -0.001713 -0.003747 0.000000 0.000000 0.000000
# 2 -0.001713 0.020230 -0.002528 0.000000 0.000000 0.000000
# 3 -0.003747 -0.002528 0.015326 0.000000 0.000000 0.000000
# 4 0.000000 0.000000 0.000000 0.048510 0.000000 0.000000
# 5 0.000000 0.000000 0.000000 0.000000 0.055648 0.000000
# 6 0.000000 0.000000 0.000000 0.000000 0.000000 -0.189890
#
#
# Mechanical properties :
#
#
# Convention : Reuss Voigt Hill
#
# Bulk Modulus (GPa) = 33.76588 38.83426 36.30007
# Shear Modulus (GPa) = -349.84162 18.97076 -165.43543
#
# Velocity S-wave (km/s) = -12.25456 2.85367 -8.42707
# Velocity P-wave (km/s) = 13.62857 5.24672 8.89410
#
# Compressibility (1/GPa) = 0.02961569
#
# Stress axis : x y z
#
# Youngs Moduli (GPa) = 99.63439 49.43193 65.25022
#
# Poissons Ratio (x) = 0.08468 0.24448
# Poissons Ratio (y) = 0.17068 0.16498
# Poissons Ratio (z) = 0.37330 0.12498
#
# Static dielectric constant tensor:
#      x y z
#    x 1.931690 0.000000 0.000000 
#    y 0.000000 1.910480 0.000000 
#    z 0.000000 0.000000 1.904950 
# 
# From -- ./inp_files/17050.got.cif
#   From: 2010.05.17/outbox.cif.g08.bks.cpg/sg64_9_cif.got.tgz:17050.got - 2010.06.03 16:29:19.
