data_PCOD9479952
_publ_section_title
;
Structure prediction by ZEFSAII (Michael W. Deem and Ramdas Pophale) SiO2 
 PCOD9479952
Probable space group: C M C A
;
_chemical_formula_sum "Si O2"
_cell_formula_units_Z 88
_cell_length_a 19.625232
_cell_length_b 16.834543
_cell_length_c 11.506548
_cell_angle_alpha 90.000000
_cell_angle_beta 90.000000
_cell_angle_gamma 90.000000
_cell_volume 3801.554178
_symmetry_space_group_name_H-M "C M C A"
_symmetry_group_IT_number 64
_symmetry_cell_setting 'orthorhombic'
loop_
_space_group_symop_operation_xyz
x,y,z
-x,1/2-y,1/2+z
x,-y,-z
-x,1/2+y,1/2-z
-x,-y,-z
x,1/2+y,1/2-z
-x,y,z
x,1/2-y,1/2+z
1/2+x,1/2+y,z
1/2-x,-y,1/2+z
1/2+x,1/2-y,-z
1/2-x,y,1/2-z
1/2-x,1/2-y,-z
1/2+x,y,1/2-z
1/2-x,1/2+y,z
1/2+x,-y,1/2+z
loop_
_atom_site_type_symbol
_atom_site_label
_atom_site_fract_x
_atom_site_fract_y
_atom_site_fract_z
Si Si1 0.111438 0.702314 0.193884
Si Si2 0.500000 0.207851 0.556008
Si Si3 0.630068 0.860348 0.169280
Si Si4 0.228757 0.837137 0.540688
Si Si5 0.750000 0.947086 0.250000
Si Si6 0.500000 0.067398 0.743888
Si Si7 0.500000 0.108135 0.318937
Si Si8 0.265860 0.500000 0.000000
O O1 0.066996 0.739678 0.086846
O O2 0.113105 0.771375 0.291160
O O3 0.187023 0.675312 0.159555
O O4 0.066489 0.631863 0.245344
O O5 0.500000 0.138735 0.651929
O O6 0.500000 0.162963 0.433597
O O7 0.684186 0.892139 0.263892
O O8 0.565798 0.917671 0.177135
O O9 0.668554 0.863181 0.047727
O O10 0.250000 0.750000 0.500000
O O11 0.286269 0.905524 0.520543
O O12 0.736833 0.993746 0.131478
O O13 0.500000 0.986332 0.671952
#
# Coordination Sequence:
#
# PCOD9479952 Si02
#       8
#    16   8  16  16   8   8   8   8
#     4  10  21  37  64  93 123 173 226 271 346 416
#     4   9  20  41  58  89 132 169 223 281 332 417
#     4  10  22  44  67  92 138 174 229 287 352 416
#     4  11  24  42  66  97 130 178 223 286 354 417
#     4  10  22  44  68  96 132 178 226 292 350 420
#     4  10  23  41  64  97 131 184 220 290 359 411
#     4  11  22  36  62  95 130 173 227 279 346 433
#     4  10  24  42  66  96 136 170 232 284 342 420
#
# _framework density 23.148427000000002
#
# number of rings (size 3 to 8) (size 9 to 14) (size 15 to 20)
#    0.000    1.818    0.000    4.091    5.091    2.909 
#    9.818    0.909    0.000    0.000    0.000    0.000 
#    0.000    0.000    0.000    0.000    0.000    0.000 
#
# Total GULP energy -244965.339509 kJ/mol
# GULP energy per Si atom -5567.394080 kJ/mol
# Density = 2.309574 g / cm^3
# Si number density = 23.148427 Si / 1000 Ang^3
#
#
#
# Elastic Constant Matrix: (Units=GPa)
#
#
# Indices 1 2 3 4 5 6 
#
# 1 75.9275 -1.0717 2.3066 0.0000 0.0000 0.0000
# 2 -1.0717 99.1617 -2.2482 0.0000 0.0000 0.0000
# 3 2.3066 -2.2482 74.5057 0.0000 0.0000 0.0000
# 4 0.0000 0.0000 0.0000 11.7169 0.0000 0.0000
# 5 0.0000 0.0000 0.0000 0.0000 19.1214 0.0000
# 6 0.0000 0.0000 0.0000 0.0000 0.0000 10.4931
#
#
#
# Elastic Compliance Matrix: (Units=1/GPa)
#
#
# Indices 1 2 3 4 5 6 
#
# 1 0.013185 0.000133 -0.000404 0.000000 0.000000 0.000000
# 2 0.000133 0.010093 0.000300 0.000000 0.000000 0.000000
# 3 -0.000404 0.000300 0.013443 0.000000 0.000000 0.000000
# 4 0.000000 0.000000 0.000000 0.085347 0.000000 0.000000
# 5 0.000000 0.000000 0.000000 0.000000 0.052297 0.000000
# 6 0.000000 0.000000 0.000000 0.000000 0.000000 0.095301
#
#
# Mechanical properties :
#
#
# Convention : Reuss Voigt Hill
#
# Bulk Modulus (GPa) = 27.18871 27.50759 27.34815
# Shear Modulus (GPa) = 17.73891 24.97350 21.35620
#
# Velocity S-wave (km/s) = 2.77124 3.28814 3.04069
# Velocity P-wave (km/s) = 4.69154 5.13076 4.91606
#
# Compressibility (1/GPa) = 0.03677997
#
# Stress axis : x y z
#
# Youngs Moduli (GPa) = 75.84594 99.08067 74.38608
#
# Poissons Ratio (x) = -0.01321 0.03006
# Poissons Ratio (y) = -0.01011 -0.02235
# Poissons Ratio (z) = 0.03065 -0.02977
#
# Static dielectric constant tensor:
#      x y z
#    x 1.915480 0.000000 0.000000 
#    y 0.000000 1.920770 0.000000 
#    z 0.000000 0.000000 1.868770 
# 
# From -- ./inp_files/18278.got.cif
#   From: 2010.05.17/outbox.cif.g08.bks.cpg/sg64_10_cif.got.tgz:18278.got - 2010.06.03 16:29:19.
