data_PCOD9479609
_publ_section_title
;
Structure prediction by ZEFSAII (Michael W. Deem and Ramdas Pophale) SiO2 
 PCOD9479609
Probable space group: C M C A
;
_chemical_formula_sum "Si O2"
_cell_formula_units_Z 96
_cell_length_a 22.481835
_cell_length_b 10.349510
_cell_length_c 19.972215
_cell_angle_alpha 90.000000
_cell_angle_beta 90.000000
_cell_angle_gamma 90.000000
_cell_volume 4647.054621
_symmetry_space_group_name_H-M "C M C A"
_symmetry_group_IT_number 64
_symmetry_cell_setting 'orthorhombic'
loop_
_space_group_symop_operation_xyz
x,y,z
-x,1/2-y,1/2+z
x,-y,-z
-x,1/2+y,1/2-z
-x,-y,-z
x,1/2+y,1/2-z
-x,y,z
x,1/2-y,1/2+z
1/2+x,1/2+y,z
1/2-x,-y,1/2+z
1/2+x,1/2-y,-z
1/2-x,y,1/2-z
1/2-x,1/2-y,-z
1/2+x,y,1/2-z
1/2-x,1/2+y,z
1/2+x,-y,1/2+z
loop_
_atom_site_type_symbol
_atom_site_label
_atom_site_fract_x
_atom_site_fract_y
_atom_site_fract_z
Si Si1 0.714248 0.251899 0.316585
Si Si2 0.500000 0.961961 0.863499
Si Si3 0.094487 0.562140 0.569198
Si Si4 0.500000 0.228282 0.023925
Si Si5 0.392950 0.916297 0.219681
Si Si6 0.805793 0.978303 0.165059
Si Si7 0.500000 0.852309 0.616380
Si Si8 0.000000 0.274115 0.264180
O O1 0.750000 0.208753 0.250000
O O2 0.646655 0.298395 0.307197
O O3 0.750146 0.382236 0.333172
O O4 0.712280 0.120997 0.358903
O O5 0.500000 0.909575 0.939250
O O6 0.500000 0.833673 0.818826
O O7 0.437380 0.027072 0.837815
O O8 0.115634 0.500000 0.500000
O O9 0.149016 0.591301 0.615874
O O10 0.055041 0.448576 0.603134
O O11 0.055426 0.686267 0.550428
O O12 0.500000 0.243347 0.942785
O O13 0.343919 0.993171 0.264745
O O14 0.442100 0.861453 0.270387
O O15 0.500000 0.791517 0.690145
#
# Coordination Sequence:
#
# PCOD9479609 Si02
#       8
#    16   8  16   8  16  16   8   8
#     4  10  21  36  54  77 107 146 182 217 277 341
#     4  11  20  31  52  85 112 135 176 232 276 316
#     4   9  18  33  54  78 103 141 187 225 268 328
#     4   9  19  33  52  79 113 149 181 218 272 340
#     4  10  21  33  50  79 110 139 177 222 275 331
#     4  11  21  36  56  77 108 146 184 231 275 325
#     4   9  17  33  54  77 109 147 182 218 274 338
#     4  11  20  31  54  81 108 141 181 228 272 320
#
# _framework density 20.658246999999999
#
# number of rings (size 3 to 8) (size 9 to 14) (size 15 to 20)
#    0.000    2.000    0.000    6.500    0.000    6.667 
#    0.000    2.500    0.000    2.000    0.000    0.000 
#    0.000    0.000    0.000    0.000    0.000    0.000 
#
# Total GULP energy -267450.925319 kJ/mol
# GULP energy per Si atom -5571.894277 kJ/mol
# Density = 2.061123 g / cm^3
# Si number density = 20.658247 Si / 1000 Ang^3
#
#
#
# Elastic Constant Matrix: (Units=GPa)
#
#
# Indices 1 2 3 4 5 6 
#
# 1 104.7504 30.1124 6.6049 0.0000 0.0000 0.0000
# 2 30.1124 76.9043 9.7610 0.0000 0.0000 0.0000
# 3 6.6049 9.7610 72.4109 0.0000 0.0000 0.0000
# 4 0.0000 0.0000 0.0000 32.5555 0.0000 0.0000
# 5 0.0000 0.0000 0.0000 0.0000 7.1883 0.0000
# 6 0.0000 0.0000 0.0000 0.0000 0.0000 -1.2270
#
#
#
# Elastic Compliance Matrix: (Units=1/GPa)
#
#
# Indices 1 2 3 4 5 6 
#
# 1 0.010770 -0.004164 -0.000421 0.000000 0.000000 0.000000
# 2 -0.004164 0.014839 -0.001621 0.000000 0.000000 0.000000
# 3 -0.000421 -0.001621 0.014067 0.000000 0.000000 0.000000
# 4 0.000000 0.000000 0.000000 0.030717 0.000000 0.000000
# 5 0.000000 0.000000 0.000000 0.000000 0.139115 0.000000
# 6 0.000000 0.000000 0.000000 0.000000 0.000000 -0.815023
#
#
# Mechanical properties :
#
#
# Convention : Reuss Voigt Hill
#
# Bulk Modulus (GPa) = 36.67636 38.55802 37.61719
# Shear Modulus (GPa) = -8.56141 21.54252 6.49056
#
# Velocity S-wave (km/s) = -2.03796 3.23275 1.77446
# Velocity P-wave (km/s) = 3.50067 5.71310 4.73783
#
# Compressibility (1/GPa) = 0.02726552
#
# Stress axis : x y z
#
# Youngs Moduli (GPa) = 92.85085 67.38937 71.08866
#
# Poissons Ratio (x) = 0.28058 0.02994
# Poissons Ratio (y) = 0.38659 0.11520
# Poissons Ratio (z) = 0.03910 0.10921
#
# Static dielectric constant tensor:
#      x y z
#    x 1.717060 0.000000 0.000000 
#    y 0.000000 1.758850 0.000000 
#    z 0.000000 0.000000 1.783700 
# 
# From -- ./inp_files/35011.got.cif
#   From: 2010.05.17/outbox.cif.g08.bks.cpg/sg64_18_cif.got.tgz:35011.got - 2010.06.03 16:29:19.
