data_PCOD9479654
_publ_section_title
;
Structure prediction by ZEFSAII (Michael W. Deem and Ramdas Pophale) SiO2 
 PCOD9479654
Probable space group: C M C A
;
_chemical_formula_sum "Si O2"
_cell_formula_units_Z 88
_cell_length_a 13.838380
_cell_length_b 24.289976
_cell_length_c 14.573259
_cell_angle_alpha 90.000000
_cell_angle_beta 90.000000
_cell_angle_gamma 90.000000
_cell_volume 4898.566647
_symmetry_space_group_name_H-M "C M C A"
_symmetry_group_IT_number 64
_symmetry_cell_setting 'orthorhombic'
loop_
_space_group_symop_operation_xyz
x,y,z
-x,1/2-y,1/2+z
x,-y,-z
-x,1/2+y,1/2-z
-x,-y,-z
x,1/2+y,1/2-z
-x,y,z
x,1/2-y,1/2+z
1/2+x,1/2+y,z
1/2-x,-y,1/2+z
1/2+x,1/2-y,-z
1/2-x,y,1/2-z
1/2-x,1/2-y,-z
1/2+x,y,1/2-z
1/2-x,1/2+y,z
1/2+x,-y,1/2+z
loop_
_atom_site_type_symbol
_atom_site_label
_atom_site_fract_x
_atom_site_fract_y
_atom_site_fract_z
Si Si1 0.798375 0.687316 0.919971
Si Si2 0.387802 0.950913 0.872127
Si Si3 0.250000 0.123612 0.250000
Si Si4 0.389604 0.252465 0.583375
Si Si5 0.611356 0.784088 0.702360
Si Si6 0.612279 0.425437 0.410937
O O1 0.686160 0.702943 0.929732
O O2 0.844414 0.732451 0.851543
O O3 0.821024 0.626113 0.887381
O O4 0.851640 0.699345 0.016637
O O5 0.500000 0.941416 0.846040
O O6 0.317028 0.913827 0.813443
O O7 0.366750 0.016149 0.863531
O O8 0.379922 0.936435 0.979875
O O9 0.319964 0.163360 0.309113
O O10 0.500000 0.238814 0.560055
O O11 0.386572 0.271062 0.688917
O O12 0.500000 0.793131 0.675605
O O13 0.500000 0.410970 0.392058
#
# Coordination Sequence:
#
# PCOD9479654 Si02
#       6
#    16  16   8  16  16  16
#     4  11  20  35  58  84 111 146 185 223 279 332
#     4   9  20  37  57  80 104 139 187 232 270 311
#     4  12  20  34  52  82 108 148 172 222 274 328
#     4  10  21  35  52  81 116 148 181 222 273 331
#     4  11  22  36  53  81 115 145 182 223 275 335
#     4   9  18  36  60  80 102 138 187 235 270 311
#
# _framework density 17.964438000000001
#
# number of rings (size 3 to 8) (size 9 to 14) (size 15 to 20)
#    0.000    1.818    1.818    4.364    2.545    2.909 
#    3.273    0.000    0.000    1.091    0.000    6.364 
#    0.000    0.000    0.000    0.000    0.000    0.000 
#
# Total GULP energy -245733.039068 kJ/mol
# GULP energy per Si atom -5584.841797 kJ/mol
# Density = 1.792355 g / cm^3
# Si number density = 17.964438 Si / 1000 Ang^3
#
#
#
# Elastic Constant Matrix: (Units=GPa)
#
#
# Indices 1 2 3 4 5 6 
#
# 1 149.3934 77.1062 17.7926 0.0000 0.0000 0.0000
# 2 77.1062 126.5662 15.2235 0.0000 0.0000 0.0000
# 3 17.7926 15.2235 56.2170 0.0000 0.0000 0.0000
# 4 0.0000 0.0000 0.0000 18.4206 0.0000 0.0000
# 5 0.0000 0.0000 0.0000 0.0000 21.8465 0.0000
# 6 0.0000 0.0000 0.0000 0.0000 0.0000 25.2661
#
#
#
# Elastic Compliance Matrix: (Units=1/GPa)
#
#
# Indices 1 2 3 4 5 6 
#
# 1 0.009893 -0.005840 -0.001549 0.000000 0.000000 0.000000
# 2 -0.005840 0.011615 -0.001297 0.000000 0.000000 0.000000
# 3 -0.001549 -0.001297 0.018630 0.000000 0.000000 0.000000
# 4 0.000000 0.000000 0.000000 0.054287 0.000000 0.000000
# 5 0.000000 0.000000 0.000000 0.000000 0.045774 0.000000
# 6 0.000000 0.000000 0.000000 0.000000 0.000000 0.039579
#
#
# Mechanical properties :
#
#
# Convention : Reuss Voigt Hill
#
# Bulk Modulus (GPa) = 43.92884 61.38016 52.65450
# Shear Modulus (GPa) = 24.42138 27.91026 26.16582
#
# Velocity S-wave (km/s) = 3.69104 3.94590 3.82060
# Velocity P-wave (km/s) = 6.53233 7.41633 6.98832
#
# Compressibility (1/GPa) = 0.02276409
#
# Stress axis : x y z
#
# Youngs Moduli (GPa) = 101.08479 86.09501 53.67747
#
# Poissons Ratio (x) = 0.50283 0.08317
# Poissons Ratio (y) = 0.59038 0.06961
# Poissons Ratio (z) = 0.15662 0.11165
#
# Static dielectric constant tensor:
#      x y z
#    x 1.626120 0.000000 0.000000 
#    y 0.000000 1.615230 0.000000 
#    z 0.000000 0.000000 1.629560 
# 
# From -- ./inp_files/23762.got.cif
#   From: 2010.05.17/outbox.cif.g08.bks.cpg/sg64_12_cif.got.tgz:23762.got - 2010.06.03 16:29:19.
