data_PCOD9479163
_publ_section_title
;
Structure prediction by ZEFSAII (Michael W. Deem and Ramdas Pophale) SiO2 
 PCOD9479163
Probable space group: C M C A
;
_chemical_formula_sum "Si O2"
_cell_formula_units_Z 96
_cell_length_a 20.181209
_cell_length_b 19.587133
_cell_length_c 12.020746
_cell_angle_alpha 90.000000
_cell_angle_beta 90.000000
_cell_angle_gamma 90.000000
_cell_volume 4751.705026
_symmetry_space_group_name_H-M "C M C A"
_symmetry_group_IT_number 64
_symmetry_cell_setting 'orthorhombic'
loop_
_space_group_symop_operation_xyz
x,y,z
-x,1/2-y,1/2+z
x,-y,-z
-x,1/2+y,1/2-z
-x,-y,-z
x,1/2+y,1/2-z
-x,y,z
x,1/2-y,1/2+z
1/2+x,1/2+y,z
1/2-x,-y,1/2+z
1/2+x,1/2-y,-z
1/2-x,y,1/2-z
1/2-x,1/2-y,-z
1/2+x,y,1/2-z
1/2-x,1/2+y,z
1/2+x,-y,1/2+z
loop_
_atom_site_type_symbol
_atom_site_label
_atom_site_fract_x
_atom_site_fract_y
_atom_site_fract_z
Si Si1 0.117959 0.167237 0.699054
Si Si2 0.704320 0.334713 0.511106
Si Si3 0.673312 0.577577 0.289269
Si Si4 0.654442 0.813787 0.443951
Si Si5 0.072826 0.524010 0.871352
Si Si6 0.424564 0.179786 0.341158
O O1 0.180015 0.171468 0.615161
O O2 0.139076 0.154516 0.825341
O O3 0.084170 0.241616 0.697473
O O4 0.076552 0.105358 0.646610
O O5 0.674512 0.393980 0.584816
O O6 0.679955 0.264533 0.568792
O O7 0.782535 0.345430 0.506439
O O8 0.750000 0.572642 0.250000
O O9 0.632168 0.507903 0.298884
O O10 0.629043 0.631160 0.218828
O O11 0.593167 0.818168 0.527757
O O12 0.000000 0.499982 0.833198
O O13 0.078257 0.500000 0.000000
O O14 0.500000 0.157907 0.320846
#
# Coordination Sequence:
#
# PCOD9479163 Si02
#       6
#    16  16  16  16  16  16
#     4  11  22  41  66  98 128 170 218 269 322 387
#     4  10  20  37  64  98 131 164 214 268 324 381
#     4  12  23  44  66  93 130 171 216 268 328 388
#     4  10  21  37  64  97 132 166 208 273 326 384
#     4  11  25  45  66  93 132 174 218 271 328 390
#     4  11  24  40  64  98 132 171 213 264 332 393
#
# _framework density 20.203274
#
# number of rings (size 3 to 8) (size 9 to 14) (size 15 to 20)
#    0.000    1.167    5.000    1.500    0.000    2.667 
#    0.000    0.833    0.000    2.000    0.000    0.000 
#    0.000    0.000    0.000    0.000    0.000    0.000 
#
# Total GULP energy -267757.533564 kJ/mol
# GULP energy per Si atom -5578.281949 kJ/mol
# Density = 2.015729 g / cm^3
# Si number density = 20.203274 Si / 1000 Ang^3
#
#
#
# Elastic Constant Matrix: (Units=GPa)
#
#
# Indices 1 2 3 4 5 6 
#
# 1 148.4050 40.9885 21.9069 0.0000 0.0000 0.0000
# 2 40.9885 70.5227 23.9799 0.0000 0.0000 0.0000
# 3 21.9069 23.9799 47.7422 0.0000 0.0000 0.0000
# 4 0.0000 0.0000 0.0000 17.4959 0.0000 0.0000
# 5 0.0000 0.0000 0.0000 0.0000 0.9672 0.0000
# 6 0.0000 0.0000 0.0000 0.0000 0.0000 15.1729
#
#
#
# Elastic Compliance Matrix: (Units=1/GPa)
#
#
# Indices 1 2 3 4 5 6 
#
# 1 0.008132 -0.004170 -0.001637 0.000000 0.000000 0.000000
# 2 -0.004170 0.019238 -0.007750 0.000000 0.000000 0.000000
# 3 -0.001637 -0.007750 0.025590 0.000000 0.000000 0.000000
# 4 0.000000 0.000000 0.000000 0.057156 0.000000 0.000000
# 5 0.000000 0.000000 0.000000 0.000000 1.033869 0.000000
# 6 0.000000 0.000000 0.000000 0.000000 0.000000 0.065907
#
#
# Mechanical properties :
#
#
# Convention : Reuss Voigt Hill
#
# Bulk Modulus (GPa) = 38.68940 48.93561 43.81251
# Shear Modulus (GPa) = 4.01406 18.71351 11.36379
#
# Velocity S-wave (km/s) = 1.41108 3.04676 2.37422
# Velocity P-wave (km/s) = 4.67402 6.05402 5.40822
#
# Compressibility (1/GPa) = 0.02584687
#
# Stress axis : x y z
#
# Youngs Moduli (GPa) = 122.97771 51.97942 39.07847
#
# Poissons Ratio (x) = 0.21673 0.06397
# Poissons Ratio (y) = 0.51276 0.30285
# Poissons Ratio (z) = 0.20131 0.40283
#
# Static dielectric constant tensor:
#      x y z
#    x 1.734890 0.000000 0.000000 
#    y 0.000000 1.740990 0.000000 
#    z 0.000000 0.000000 1.689330 
# 
# From -- ./inp_files/17372.got.cif
#   From: 2010.05.17/outbox.cif.g08.bks.cpg/sg64_9_cif.got.tgz:17372.got - 2010.06.03 16:29:19.
