data_PCOD9479900
_publ_section_title
;
Structure prediction by ZEFSAII (Michael W. Deem and Ramdas Pophale) SiO2 
 PCOD9479900
Probable space group: C M C A
;
_chemical_formula_sum "Si O2"
_cell_formula_units_Z 112
_cell_length_a 14.088158
_cell_length_b 15.050485
_cell_length_c 24.784458
_cell_angle_alpha 90.000000
_cell_angle_beta 90.000000
_cell_angle_gamma 90.000000
_cell_volume 5255.138118
_symmetry_space_group_name_H-M "C M C A"
_symmetry_group_IT_number 64
_symmetry_cell_setting 'orthorhombic'
loop_
_space_group_symop_operation_xyz
x,y,z
-x,1/2-y,1/2+z
x,-y,-z
-x,1/2+y,1/2-z
-x,-y,-z
x,1/2+y,1/2-z
-x,y,z
x,1/2-y,1/2+z
1/2+x,1/2+y,z
1/2-x,-y,1/2+z
1/2+x,1/2-y,-z
1/2-x,y,1/2-z
1/2-x,1/2-y,-z
1/2+x,y,1/2-z
1/2-x,1/2+y,z
1/2+x,-y,1/2+z
loop_
_atom_site_type_symbol
_atom_site_label
_atom_site_fract_x
_atom_site_fract_y
_atom_site_fract_z
Si Si1 0.854131 0.572658 0.276201
Si Si2 0.205038 0.328204 0.621000
Si Si3 0.605202 0.600978 0.831475
Si Si4 0.711968 0.153970 0.015441
Si Si5 0.500000 0.868223 0.974267
Si Si6 0.301804 0.616654 0.604406
Si Si7 0.599755 0.304279 0.680464
Si Si8 0.500000 0.447558 0.409536
O O1 0.750000 0.562798 0.250000
O O2 0.856029 0.620995 0.334580
O O3 0.892332 0.474836 0.286515
O O4 0.902094 0.637397 0.233767
O O5 0.218946 0.376101 0.563543
O O6 0.181759 0.223268 0.613414
O O7 0.309906 0.330138 0.646373
O O8 0.500000 0.595157 0.859011
O O9 0.702545 0.591818 0.866472
O O10 0.609872 0.699908 0.807128
O O11 0.604366 0.170035 0.035771
O O12 0.750000 0.250000 0.000000
O O13 0.709533 0.099193 0.959976
O O14 0.500000 0.960342 0.941638
O O15 0.500000 0.878549 0.040030
O O16 0.399741 0.567026 0.621039
O O17 0.500000 0.316889 0.650585
#
# Coordination Sequence:
#
# PCOD9479900 Si02
#       8
#    16  16  16  16   8  16  16   8
#     4  10  21  37  60  86 121 155 202 260 311 366
#     4   9  19  34  56  83 115 158 196 249 305 357
#     4  10  21  38  63  90 120 163 202 246 313 380
#     4   9  18  34  55  85 119 161 199 251 302 357
#     4   9  18  30  56  82 111 153 204 253 302 338
#     4   9  19  37  57  84 124 157 208 246 301 367
#     4   9  19  37  59  83 113 153 203 254 306 367
#     4   9  18  34  54  84 113 158 197 256 301 336
#
# _framework density 21.312474999999999
#
# number of rings (size 3 to 8) (size 9 to 14) (size 15 to 20)
#    0.000    2.714    0.000    0.429    3.000    2.857 
#    6.429    0.000    1.571    0.857    0.000    0.000 
#    0.000    0.000    0.000    0.000    0.000    0.000 
#
# Total GULP energy -311976.724209 kJ/mol
# GULP energy per Si atom -5571.012932 kJ/mol
# Density = 2.126397 g / cm^3
# Si number density = 21.312475 Si / 1000 Ang^3
#
#
#
# Elastic Constant Matrix: (Units=GPa)
#
#
# Indices 1 2 3 4 5 6 
#
# 1 142.5381 29.1100 16.2866 0.0000 0.0000 0.0000
# 2 29.1100 39.8348 28.8749 0.0000 0.0000 0.0000
# 3 16.2866 28.8749 67.1716 0.0000 0.0000 0.0000
# 4 0.0000 0.0000 0.0000 22.8964 0.0000 0.0000
# 5 0.0000 0.0000 0.0000 0.0000 -2.6573 0.0000
# 6 0.0000 0.0000 0.0000 0.0000 0.0000 13.9488
#
#
#
# Elastic Compliance Matrix: (Units=1/GPa)
#
#
# Indices 1 2 3 4 5 6 
#
# 1 0.008281 -0.006676 0.000862 0.000000 0.000000 0.000000
# 2 -0.006676 0.041849 -0.016371 0.000000 0.000000 0.000000
# 3 0.000862 -0.016371 0.021715 0.000000 0.000000 0.000000
# 4 0.000000 0.000000 0.000000 0.043675 0.000000 0.000000
# 5 0.000000 0.000000 0.000000 0.000000 -0.376320 0.000000
# 6 0.000000 0.000000 0.000000 0.000000 0.000000 0.071691
#
#
# Mechanical properties :
#
#
# Convention : Reuss Voigt Hill
#
# Bulk Modulus (GPa) = 36.39610 44.23193 40.31402
# Shear Modulus (GPa) = -36.87842 18.52244 -9.17799
#
# Velocity S-wave (km/s) = -4.16428 2.95123 -2.07744
# Velocity P-wave (km/s) = 2.45096 5.69316 3.63352
#
# Compressibility (1/GPa) = 0.02747547
#
# Stress axis : x y z
#
# Youngs Moduli (GPa) = 120.76413 23.89544 46.05013
#
# Poissons Ratio (x) = 0.15953 -0.03970
# Poissons Ratio (y) = 0.80624 0.75388
# Poissons Ratio (z) = -0.10411 0.39119
#
# Static dielectric constant tensor:
#      x y z
#    x 1.811060 0.000000 0.000000 
#    y 0.000000 1.774590 0.000000 
#    z 0.000000 0.000000 1.821270 
# 
# From -- ./inp_files/50100.got.cif
#   From: 2010.05.17/outbox.cif.g08.bks.cpg/sg64_26_cif.got.tgz:50100.got - 2010.06.03 16:29:19.
