data_PCOD9479660
_publ_section_title
;
Structure prediction by ZEFSAII (Michael W. Deem and Ramdas Pophale) SiO2 
 PCOD9479660
Probable space group: C M C A
;
_chemical_formula_sum "Si O2"
_cell_formula_units_Z 96
_cell_length_a 14.353328
_cell_length_b 16.524100
_cell_length_c 19.984569
_cell_angle_alpha 90.000000
_cell_angle_beta 90.000000
_cell_angle_gamma 90.000000
_cell_volume 4739.856684
_symmetry_space_group_name_H-M "C M C A"
_symmetry_group_IT_number 64
_symmetry_cell_setting 'orthorhombic'
loop_
_space_group_symop_operation_xyz
x,y,z
-x,1/2-y,1/2+z
x,-y,-z
-x,1/2+y,1/2-z
-x,-y,-z
x,1/2+y,1/2-z
-x,y,z
x,1/2-y,1/2+z
1/2+x,1/2+y,z
1/2-x,-y,1/2+z
1/2+x,1/2-y,-z
1/2-x,y,1/2-z
1/2-x,1/2-y,-z
1/2+x,y,1/2-z
1/2-x,1/2+y,z
1/2+x,-y,1/2+z
loop_
_atom_site_type_symbol
_atom_site_label
_atom_site_fract_x
_atom_site_fract_y
_atom_site_fract_z
Si Si1 0.109538 0.216348 0.979609
Si Si2 0.269018 0.436967 0.059749
Si Si3 0.109831 0.702539 0.284269
Si Si4 0.390531 0.343986 0.634415
Si Si5 0.271589 0.954182 0.675850
Si Si6 0.109259 0.824769 0.391793
O O1 0.168643 0.136918 0.966421
O O2 0.136254 0.286815 0.927067
O O3 0.000000 0.199532 0.969298
O O4 0.120992 0.253882 0.053018
O O5 0.313322 0.482824 0.123563
O O6 0.173145 0.398068 0.085733
O O7 0.255373 0.500000 0.000000
O O8 0.121449 0.703915 0.204477
O O9 0.165029 0.624886 0.311528
O O10 0.138697 0.784065 0.321924
O O11 0.000000 0.691534 0.298432
O O12 0.500000 0.365458 0.627905
O O13 0.323479 0.420494 0.642368
O O14 0.250000 0.987733 0.750000
O O15 0.000000 0.846629 0.389867
#
# Coordination Sequence:
#
# PCOD9479660 Si02
#       6
#    16  16  16  16  16  16
#     4  10  21  37  57  78 101 135 179 221 257 299
#     4  12  24  35  52  79 110 141 170 209 264 316
#     4   9  18  35  58  79 101 135 177 216 254 301
#     4   9  18  35  58  79 101 135 177 216 254 301
#     4  10  21  35  53  79 110 141 169 205 259 316
#     4  10  21  37  57  78 101 135 179 221 257 299
#
# _framework density 20.253775999999998
#
# number of rings (size 3 to 8) (size 9 to 14) (size 15 to 20)
#    0.000    2.000    0.000    3.500    0.000    3.333 
#    0.000    0.000    0.000    0.000    0.000    0.000 
#    0.000    0.000    0.000    0.000    0.000    0.000 
#
# Total GULP energy -268267.827004 kJ/mol
# GULP energy per Si atom -5588.913063 kJ/mol
# Density = 2.020768 g / cm^3
# Si number density = 20.253776 Si / 1000 Ang^3
#
#
#
# Elastic Constant Matrix: (Units=GPa)
#
#
# Indices 1 2 3 4 5 6 
#
# 1 39.0256 3.1144 -4.7118 0.0000 0.0000 0.0000
# 2 3.1144 28.3852 1.7956 0.0000 0.0000 0.0000
# 3 -4.7118 1.7956 48.0782 0.0000 0.0000 0.0000
# 4 0.0000 0.0000 0.0000 29.6488 0.0000 0.0000
# 5 0.0000 0.0000 0.0000 0.0000 21.8258 0.0000
# 6 0.0000 0.0000 0.0000 0.0000 0.0000 5.6774
#
#
#
# Elastic Compliance Matrix: (Units=1/GPa)
#
#
# Indices 1 2 3 4 5 6 
#
# 1 0.026191 -0.003043 0.002680 0.000000 0.000000 0.000000
# 2 -0.003043 0.035667 -0.001630 0.000000 0.000000 0.000000
# 3 0.002680 -0.001630 0.021123 0.000000 0.000000 0.000000
# 4 0.000000 0.000000 0.000000 0.033728 0.000000 0.000000
# 5 0.000000 0.000000 0.000000 0.000000 0.045817 0.000000
# 6 0.000000 0.000000 0.000000 0.000000 0.000000 0.176136
#
#
# Mechanical properties :
#
#
# Convention : Reuss Voigt Hill
#
# Bulk Modulus (GPa) = 12.65914 12.87615 12.76764
# Shear Modulus (GPa) = 13.55089 19.11645 16.33367
#
# Velocity S-wave (km/s) = 2.58942 3.07554 2.84289
# Velocity P-wave (km/s) = 3.89922 4.35696 4.13443
#
# Compressibility (1/GPa) = 0.07899430
#
# Stress axis : x y z
#
# Youngs Moduli (GPa) = 38.18151 28.03741 47.34168
#
# Poissons Ratio (x) = 0.08532 -0.12689
# Poissons Ratio (y) = 0.11619 0.07718
# Poissons Ratio (z) = -0.10234 0.04571
#
# Static dielectric constant tensor:
#      x y z
#    x 1.736910 0.000000 0.000000 
#    y 0.000000 1.674740 0.000000 
#    z 0.000000 0.000000 1.725640 
# 
# From -- ./inp_files/39153.got.cif
#   From: 2010.05.17/outbox.cif.g08.bks.cpg/sg64_20_cif.got.tgz:39153.got - 2010.06.03 16:29:19.
