data_PCOD9479494
_publ_section_title
;
Structure prediction by ZEFSAII (Michael W. Deem and Ramdas Pophale) SiO2 
 PCOD9479494
Probable space group: C M C A
;
_chemical_formula_sum "Si O2"
_cell_formula_units_Z 116
_cell_length_a 9.847636
_cell_length_b 19.107824
_cell_length_c 31.854215
_cell_angle_alpha 90.000000
_cell_angle_beta 90.000000
_cell_angle_gamma 90.000000
_cell_volume 5993.908745
_symmetry_space_group_name_H-M "C M C A"
_symmetry_group_IT_number 64
_symmetry_cell_setting 'orthorhombic'
loop_
_space_group_symop_operation_xyz
x,y,z
-x,1/2-y,1/2+z
x,-y,-z
-x,1/2+y,1/2-z
-x,-y,-z
x,1/2+y,1/2-z
-x,y,z
x,1/2-y,1/2+z
1/2+x,1/2+y,z
1/2-x,-y,1/2+z
1/2+x,1/2-y,-z
1/2-x,y,1/2-z
1/2-x,1/2-y,-z
1/2+x,y,1/2-z
1/2-x,1/2+y,z
1/2+x,-y,1/2+z
loop_
_atom_site_type_symbol
_atom_site_label
_atom_site_fract_x
_atom_site_fract_y
_atom_site_fract_z
Si Si1 0.847110 0.105814 0.851700
Si Si2 0.839883 0.124319 0.326048
Si Si3 0.158602 0.731960 0.711374
Si Si4 0.341496 0.318636 0.506112
Si Si5 0.000000 0.000000 0.000000
Si Si6 0.162929 0.418826 0.917346
Si Si7 0.230685 0.571315 0.556261
Si Si8 0.341322 0.973357 0.210243
O O1 0.837791 0.179878 0.828150
O O2 0.826513 0.106615 0.901417
O O3 0.000000 0.077618 0.842949
O O4 0.729230 0.060323 0.830330
O O5 0.784800 0.193241 0.303942
O O6 0.782414 0.104331 0.371753
O O7 0.832628 0.056528 0.296904
O O8 0.000000 0.139817 0.332737
O O9 0.250000 0.706855 0.750000
O O10 0.000000 0.737445 0.724490
O O11 0.500000 0.299339 0.510702
O O12 0.250000 0.250000 0.500000
O O13 0.297042 0.362731 0.547280
O O14 0.324814 0.373181 0.467682
O O15 0.883424 0.047276 0.976276
O O16 0.204073 0.497459 0.929431
O O17 0.000000 0.418589 0.915566
O O18 0.500000 0.953832 0.214717
O O19 0.250000 0.953889 0.250000
#
# Coordination Sequence:
#
# PCOD9479494 Si02
#       8
#    16  16  16  16   4  16  16  16
#     4  11  24  39  62  93 124 166 213 260 317 388
#     4   9  19  36  62  91 116 157 206 255 307 372
#     4  10  22  41  63  86 121 163 208 255 315 379
#     4  11  26  41  65  95 130 170 214 267 323 396
#     4  12  24  40  66  96 132 176 212 284 336 404
#     4  10  20  40  66  92 121 162 211 260 317 383
#     4  12  23  41  66  94 130 171 218 268 334 401
#     4  11  22  38  62  91 125 161 208 266 319 381
#
# _framework density 19.352981
#
# number of rings (size 3 to 8) (size 9 to 14) (size 15 to 20)
#    0.000    1.379    3.448    1.655    2.897    3.310 
#    0.000    0.690    1.517    0.000    0.000    0.000 
#    0.000    0.000    0.000    0.000    0.000    0.000 
#
# Total GULP energy -323150.368735 kJ/mol
# GULP energy per Si atom -5571.558082 kJ/mol
# Density = 1.930893 g / cm^3
# Si number density = 19.352981 Si / 1000 Ang^3
#
#
#
# Elastic Constant Matrix: (Units=GPa)
#
#
# Indices 1 2 3 4 5 6 
#
# 1 75.9095 29.6112 37.2502 0.0000 0.0000 0.0000
# 2 29.6112 89.8679 27.5011 0.0000 0.0000 0.0000
# 3 37.2502 27.5011 93.2355 0.0000 0.0000 0.0000
# 4 0.0000 0.0000 0.0000 24.3622 0.0000 0.0000
# 5 0.0000 0.0000 0.0000 0.0000 22.6490 0.0000
# 6 0.0000 0.0000 0.0000 0.0000 0.0000 4.4486
#
#
#
# Elastic Compliance Matrix: (Units=1/GPa)
#
#
# Indices 1 2 3 4 5 6 
#
# 1 0.017610 -0.004012 -0.005853 0.000000 0.000000 0.000000
# 2 -0.004012 0.013145 -0.002275 0.000000 0.000000 0.000000
# 3 -0.005853 -0.002275 0.013735 0.000000 0.000000 0.000000
# 4 0.000000 0.000000 0.000000 0.041047 0.000000 0.000000
# 5 0.000000 0.000000 0.000000 0.000000 0.044152 0.000000
# 6 0.000000 0.000000 0.000000 0.000000 0.000000 0.224788
#
#
# Mechanical properties :
#
#
# Convention : Reuss Voigt Hill
#
# Bulk Modulus (GPa) = 49.47349 49.74863 49.61106
# Shear Modulus (GPa) = 12.97041 21.26866 17.11954
#
# Velocity S-wave (km/s) = 2.59164 3.31869 2.97744
# Velocity P-wave (km/s) = 5.88002 6.35977 6.12460
#
# Compressibility (1/GPa) = 0.02021285
#
# Stress axis : x y z
#
# Youngs Moduli (GPa) = 56.78459 76.07262 72.80812
#
# Poissons Ratio (x) = 0.30517 0.42611
# Poissons Ratio (y) = 0.22780 0.16561
# Poissons Ratio (z) = 0.33234 0.17304
#
# Static dielectric constant tensor:
#      x y z
#    x 1.662020 0.000000 0.000000 
#    y 0.000000 1.680010 0.000000 
#    z 0.000000 0.000000 1.714670 
# 
# From -- ./inp_files/52967.got.cif
#   From: 2010.05.17/outbox.cif.g08.bks.cpg/sg64_27_cif.got.tgz:52967.got - 2010.06.03 16:29:19.
