data_PCOD9479988
_publ_section_title
;
Structure prediction by ZEFSAII (Michael W. Deem and Ramdas Pophale) SiO2 
 PCOD9479988
Probable space group: C M C A
;
_chemical_formula_sum "Si O2"
_cell_formula_units_Z 116
_cell_length_a 9.598861
_cell_length_b 25.163754
_cell_length_c 25.315271
_cell_angle_alpha 90.000000
_cell_angle_beta 90.000000
_cell_angle_gamma 90.000000
_cell_volume 6114.736044
_symmetry_space_group_name_H-M "C M C A"
_symmetry_group_IT_number 64
_symmetry_cell_setting 'orthorhombic'
loop_
_space_group_symop_operation_xyz
x,y,z
-x,1/2-y,1/2+z
x,-y,-z
-x,1/2+y,1/2-z
-x,-y,-z
x,1/2+y,1/2-z
-x,y,z
x,1/2-y,1/2+z
1/2+x,1/2+y,z
1/2-x,-y,1/2+z
1/2+x,1/2-y,-z
1/2-x,y,1/2-z
1/2-x,1/2-y,-z
1/2+x,y,1/2-z
1/2-x,1/2+y,z
1/2+x,-y,1/2+z
loop_
_atom_site_type_symbol
_atom_site_label
_atom_site_fract_x
_atom_site_fract_y
_atom_site_fract_z
Si Si1 0.841567 0.325808 0.130358
Si Si2 0.842626 0.076864 0.888347
Si Si3 0.664891 0.757285 0.804490
Si Si4 0.000000 0.000000 0.500000
Si Si5 0.656230 0.953152 0.620849
Si Si6 0.756884 0.416785 0.508633
Si Si7 0.163897 0.118911 0.304274
Si Si8 0.156981 0.302004 0.005619
O O1 0.769815 0.383251 0.136047
O O2 0.741318 0.281893 0.155393
O O3 0.849237 0.315304 0.067818
O O4 0.000000 0.323763 0.151353
O O5 0.000000 0.091398 0.872343
O O6 0.815955 0.015837 0.873469
O O7 0.832877 0.081019 0.952122
O O8 0.500000 0.745653 0.798500
O O9 0.750000 0.751727 0.750000
O O10 0.677397 0.819183 0.820568
O O11 0.879015 0.953401 0.502090
O O12 0.500000 0.941522 0.640635
O O13 0.662658 0.939528 0.558851
O O14 0.769065 0.918881 0.651925
O O15 0.718405 0.355388 0.520027
O O16 0.250000 0.112014 0.250000
O O17 0.000000 0.107985 0.296349
O O18 0.000000 0.292270 0.986033
O O19 0.250000 0.250000 0.000000
#
# Coordination Sequence:
#
# PCOD9479988 Si02
#       8
#    16  16  16   4  16  16  16  16
#     4  10  22  38  59  85 115 154 195 238 293 347
#     4  10  21  38  58  85 121 158 199 244 293 346
#     4  10  21  40  64  89 115 149 192 242 293 354
#     4  12  20  36  62  88 124 152 214 270 284 352
#     4  11  23  37  60  89 120 156 199 246 299 354
#     4  11  22  36  60  86 119 160 206 250 297 348
#     4  10  23  41  63  88 117 151 191 241 299 355
#     4  10  23  38  53  80 119 158 197 238 292 351
#
# _framework density 18.970565000000001
#
# number of rings (size 3 to 8) (size 9 to 14) (size 15 to 20)
#    0.000    1.655    2.069    1.655    3.862    6.621 
#    0.000    0.690    0.000    3.310    0.000    0.000 
#    0.000    0.000    0.000    0.000    0.000    0.000 
#
# Total GULP energy -323303.715786 kJ/mol
# GULP energy per Si atom -5574.201996 kJ/mol
# Density = 1.892739 g / cm^3
# Si number density = 18.970565 Si / 1000 Ang^3
#
#
#
# Elastic Constant Matrix: (Units=GPa)
#
#
# Indices 1 2 3 4 5 6 
#
# 1 152.6139 70.0726 22.7105 0.0000 0.0000 0.0000
# 2 70.0726 98.5978 8.2659 0.0000 0.0000 0.0000
# 3 22.7105 8.2659 25.1097 0.0000 0.0000 0.0000
# 4 0.0000 0.0000 0.0000 22.4535 0.0000 0.0000
# 5 0.0000 0.0000 0.0000 0.0000 7.1596 0.0000
# 6 0.0000 0.0000 0.0000 0.0000 0.0000 32.8342
#
#
#
# Elastic Compliance Matrix: (Units=1/GPa)
#
#
# Indices 1 2 3 4 5 6 
#
# 1 0.010964 -0.007158 -0.007560 0.000000 0.000000 0.000000
# 2 -0.007158 0.015104 0.001502 0.000000 0.000000 0.000000
# 3 -0.007560 0.001502 0.046169 0.000000 0.000000 0.000000
# 4 0.000000 0.000000 0.000000 0.044536 0.000000 0.000000
# 5 0.000000 0.000000 0.000000 0.000000 0.139673 0.000000
# 6 0.000000 0.000000 0.000000 0.000000 0.000000 0.030456
#
#
# Mechanical properties :
#
#
# Convention : Reuss Voigt Hill
#
# Bulk Modulus (GPa) = 21.83206 53.15771 37.49488
# Shear Modulus (GPa) = 15.21594 24.17427 19.69510
#
# Velocity S-wave (km/s) = 2.83518 3.57361 3.22560
# Velocity P-wave (km/s) = 4.71710 6.71637 5.80347
#
# Compressibility (1/GPa) = 0.04580420
#
# Stress axis : x y z
#
# Youngs Moduli (GPa) = 91.20499 66.20896 21.65974
#
# Poissons Ratio (x) = 0.47395 0.16375
# Poissons Ratio (y) = 0.65288 -0.03254
# Poissons Ratio (z) = 0.68953 -0.09948
#
# Static dielectric constant tensor:
#      x y z
#    x 1.667200 0.000000 0.000000 
#    y 0.000000 1.639810 0.000000 
#    z 0.000000 0.000000 1.655450 
# 
# From -- ./inp_files/48535.got.cif
#   From: 2010.05.17/outbox.cif.g08.bks.cpg/sg64_25_cif.got.tgz:48535.got - 2010.06.03 16:29:19.
