data_PCOD9479300
_publ_section_title
;
Structure prediction by ZEFSAII (Michael W. Deem and Ramdas Pophale) SiO2 
 PCOD9479300
Probable space group: C M C A
;
_chemical_formula_sum "Si O2"
_cell_formula_units_Z 88
_cell_length_a 27.839581
_cell_length_b 19.135339
_cell_length_c 8.743969
_cell_angle_alpha 90.000000
_cell_angle_beta 90.000000
_cell_angle_gamma 90.000000
_cell_volume 4658.085592
_symmetry_space_group_name_H-M "C M C A"
_symmetry_group_IT_number 64
_symmetry_cell_setting 'orthorhombic'
loop_
_space_group_symop_operation_xyz
x,y,z
-x,1/2-y,1/2+z
x,-y,-z
-x,1/2+y,1/2-z
-x,-y,-z
x,1/2+y,1/2-z
-x,y,z
x,1/2-y,1/2+z
1/2+x,1/2+y,z
1/2-x,-y,1/2+z
1/2+x,1/2-y,-z
1/2-x,y,1/2-z
1/2-x,1/2-y,-z
1/2+x,y,1/2-z
1/2-x,1/2+y,z
1/2+x,-y,1/2+z
loop_
_atom_site_type_symbol
_atom_site_label
_atom_site_fract_x
_atom_site_fract_y
_atom_site_fract_z
Si Si1 0.611924 0.571614 0.063268
Si Si2 0.053979 0.830287 0.137929
Si Si3 0.557440 0.064468 0.116853
Si Si4 0.750000 0.730052 0.750000
Si Si5 0.817771 0.800624 0.990855
Si Si6 0.407402 0.293685 0.458631
O O1 0.586355 0.558589 0.224890
O O2 0.633094 0.500000 0.000000
O O3 0.572271 0.599847 0.942708
O O4 0.650891 0.633541 0.062627
O O5 0.087414 0.807192 0.278370
O O6 0.000000 0.837967 0.195836
O O7 0.057851 0.769230 0.011840
O O8 0.500000 0.068949 0.144385
O O9 0.576310 0.135898 0.040726
O O10 0.565664 0.000000 0.000000
O O11 0.788557 0.688009 0.647818
O O12 0.720465 0.778683 0.635383
O O13 0.854988 0.735485 0.003201
#
# Coordination Sequence:
#
# PCOD9479300 Si02
#       6
#    16  16  16   8  16  16
#     4  11  23  39  57  81 117 154 193 238 286 340
#     4  11  21  33  55  83 115 157 197 237 278 326
#     4  11  23  37  55  82 119 163 203 237 276 329
#     4  10  20  38  64  86 108 134 180 238 290 358
#     4  10  21  38  61  87 110 142 183 232 294 347
#     4  11  21  36  56  83 116 148 191 238 283 339
#
# _framework density 18.891881000000001
#
# number of rings (size 3 to 8) (size 9 to 14) (size 15 to 20)
#    0.000    1.273    0.000    8.727    0.000    2.909 
#    0.000    0.909    0.000    4.364    0.000    0.000 
#    0.000    0.000    0.000    0.000    0.000    0.000 
#
# Total GULP energy -245760.792866 kJ/mol
# GULP energy per Si atom -5585.472565 kJ/mol
# Density = 1.884888 g / cm^3
# Si number density = 18.891881 Si / 1000 Ang^3
#
#
#
# Elastic Constant Matrix: (Units=GPa)
#
#
# Indices 1 2 3 4 5 6 
#
# 1 111.5659 30.8962 39.9366 0.0000 0.0000 0.0000
# 2 30.8962 98.7821 23.2218 0.0000 0.0000 0.0000
# 3 39.9366 23.2218 115.5932 0.0000 0.0000 0.0000
# 4 0.0000 0.0000 0.0000 28.3643 0.0000 0.0000
# 5 0.0000 0.0000 0.0000 0.0000 37.6955 0.0000
# 6 0.0000 0.0000 0.0000 0.0000 0.0000 0.7328
#
#
#
# Elastic Compliance Matrix: (Units=1/GPa)
#
#
# Indices 1 2 3 4 5 6 
#
# 1 0.010845 -0.002636 -0.003217 0.000000 0.000000 0.000000
# 2 -0.002636 0.011266 -0.001353 0.000000 0.000000 0.000000
# 3 -0.003217 -0.001353 0.010034 0.000000 0.000000 0.000000
# 4 0.000000 0.000000 0.000000 0.035256 0.000000 0.000000
# 5 0.000000 0.000000 0.000000 0.000000 0.026528 0.000000
# 6 0.000000 0.000000 0.000000 0.000000 0.000000 1.364579
#
#
# Mechanical properties :
#
#
# Convention : Reuss Voigt Hill
#
# Bulk Modulus (GPa) = 56.38985 57.11672 56.75329
# Shear Modulus (GPa) = 3.38105 28.81764 16.09935
#
# Velocity S-wave (km/s) = 1.33924 3.90987 2.92238
# Velocity P-wave (km/s) = 5.68374 7.11912 6.44154
#
# Compressibility (1/GPa) = 0.01773369
#
# Stress axis : x y z
#
# Youngs Moduli (GPa) = 92.20918 88.76573 99.65795
#
# Poissons Ratio (x) = 0.23395 0.32063
# Poissons Ratio (y) = 0.24303 0.13480
# Poissons Ratio (z) = 0.29667 0.12006
#
# Static dielectric constant tensor:
#      x y z
#    x 1.666480 0.000000 0.000000 
#    y 0.000000 1.631740 0.000000 
#    z 0.000000 0.000000 1.687300 
# 
# From -- ./inp_files/11081.got.cif
#   From: 2010.05.17/outbox.cif.g08.bks.cpg/sg64_6_cif.got.tgz:11081.got - 2010.06.03 16:29:19.
