data_PCOD9479172
_publ_section_title
;
Structure prediction by ZEFSAII (Michael W. Deem and Ramdas Pophale) SiO2 
 PCOD9479172
Probable space group: C M C A
;
_chemical_formula_sum "Si O2"
_cell_formula_units_Z 88
_cell_length_a 26.781279
_cell_length_b 18.939101
_cell_length_c 6.882215
_cell_angle_alpha 90.000000
_cell_angle_beta 90.000000
_cell_angle_gamma 90.000000
_cell_volume 3490.751311
_symmetry_space_group_name_H-M "C M C A"
_symmetry_group_IT_number 64
_symmetry_cell_setting 'orthorhombic'
loop_
_space_group_symop_operation_xyz
x,y,z
-x,1/2-y,1/2+z
x,-y,-z
-x,1/2+y,1/2-z
-x,-y,-z
x,1/2+y,1/2-z
-x,y,z
x,1/2-y,1/2+z
1/2+x,1/2+y,z
1/2-x,-y,1/2+z
1/2+x,1/2-y,-z
1/2-x,y,1/2-z
1/2-x,1/2-y,-z
1/2+x,y,1/2-z
1/2-x,1/2+y,z
1/2+x,-y,1/2+z
loop_
_atom_site_type_symbol
_atom_site_label
_atom_site_fract_x
_atom_site_fract_y
_atom_site_fract_z
Si Si1 0.825134 0.394198 0.658389
Si Si2 0.864511 0.754538 0.337392
Si Si3 0.156098 0.414075 0.107308
Si Si4 0.250000 0.996754 0.750000
Si Si5 0.579501 0.930798 0.402029
Si Si6 0.443532 0.233110 0.587618
O O1 0.825300 0.309996 0.651197
O O2 0.775746 0.437505 0.608062
O O3 0.870179 0.419420 0.525896
O O4 0.840797 0.413598 0.876924
O O5 0.842201 0.832814 0.327872
O O6 0.880202 0.753326 0.588196
O O7 0.930152 0.749365 0.337979
O O8 0.203112 0.456591 0.187288
O O9 0.102615 0.441411 0.187652
O O10 0.554449 0.853603 0.409952
O O11 0.555392 0.000000 0.500000
O O12 0.500000 0.263430 0.587358
#
# Coordination Sequence:
#
# PCOD9479172 Si02
#       6
#    16  16  16   8  16  16
#     4  11  24  42  62  91 130 167 210 263 313 372
#     4  10  21  43  64  90 128 168 204 257 331 372
#     4  11  24  42  62  91 130 167 210 263 313 372
#     4  12  26  38  66  94 114 172 220 250 302 374
#     4  10  22  39  62  91 129 170 211 252 325 377
#     4  10  20  37  66  96 121 160 213 263 312 380
#
# _framework density 25.209474
#
# number of rings (size 3 to 8) (size 9 to 14) (size 15 to 20)
#    0.000    1.455    3.636    1.091    5.091    1.091 
#    0.000    1.818    0.000    0.000    0.000    6.364 
#    0.000    0.000    0.000    0.000    0.000    0.000 
#
# Total GULP energy -245415.008968 kJ/mol
# GULP energy per Si atom -5577.613840 kJ/mol
# Density = 2.515210 g / cm^3
# Si number density = 25.209474 Si / 1000 Ang^3
#
#
#
# Elastic Constant Matrix: (Units=GPa)
#
#
# Indices 1 2 3 4 5 6 
#
# 1 115.7160 60.3669 26.3949 0.0000 0.0000 0.0000
# 2 60.3669 220.6475 27.3706 0.0000 0.0000 0.0000
# 3 26.3949 27.3706 161.4678 0.0000 0.0000 0.0000
# 4 0.0000 0.0000 0.0000 47.6803 0.0000 0.0000
# 5 0.0000 0.0000 0.0000 0.0000 35.1526 0.0000
# 6 0.0000 0.0000 0.0000 0.0000 0.0000 -9.5591
#
#
#
# Elastic Compliance Matrix: (Units=1/GPa)
#
#
# Indices 1 2 3 4 5 6 
#
# 1 0.010316 -0.002669 -0.001234 0.000000 0.000000 0.000000
# 2 -0.002669 0.005320 -0.000465 0.000000 0.000000 0.000000
# 3 -0.001234 -0.000465 0.006474 0.000000 0.000000 0.000000
# 4 0.000000 0.000000 0.000000 0.020973 0.000000 0.000000
# 5 0.000000 0.000000 0.000000 0.000000 0.028447 0.000000
# 6 0.000000 0.000000 0.000000 0.000000 0.000000 -0.104613
#
#
# Mechanical properties :
#
#
# Convention : Reuss Voigt Hill
#
# Bulk Modulus (GPa) = 74.77994 80.67736 77.72865
# Shear Modulus (GPa) = -251.41007 40.23470 -105.58768
#
# Velocity S-wave (km/s) = -9.99725 3.99935 -6.47882
# Velocity P-wave (km/s) = 10.17507 7.30744 5.00666
#
# Compressibility (1/GPa) = 0.01337257
#
# Stress axis : x y z
#
# Youngs Moduli (GPa) = 96.93889 187.96518 154.46915
#
# Poissons Ratio (x) = 0.50172 0.19059
# Poissons Ratio (y) = 0.25875 0.07190
# Poissons Ratio (z) = 0.11961 0.08750
#
# Static dielectric constant tensor:
#      x y z
#    x 1.901000 0.000000 0.000000 
#    y 0.000000 1.929740 0.000000 
#    z 0.000000 0.000000 2.468590 
# 
# From -- ./inp_files/11157.got.cif
#   From: 2010.05.17/outbox.cif.g08.bks.cpg/sg64_6_cif.got.tgz:11157.got - 2010.06.03 16:29:19.
