data_PCOD9479933
_publ_section_title
;
Structure prediction by ZEFSAII (Michael W. Deem and Ramdas Pophale) SiO2 
 PCOD9479933
Probable space group: C M C A
;
_chemical_formula_sum "Si O2"
_cell_formula_units_Z 80
_cell_length_a 14.442979
_cell_length_b 10.140297
_cell_length_c 28.458354
_cell_angle_alpha 90.000000
_cell_angle_beta 90.000000
_cell_angle_gamma 90.000000
_cell_volume 4167.899443
_symmetry_space_group_name_H-M "C M C A"
_symmetry_group_IT_number 64
_symmetry_cell_setting 'orthorhombic'
loop_
_space_group_symop_operation_xyz
x,y,z
-x,1/2-y,1/2+z
x,-y,-z
-x,1/2+y,1/2-z
-x,-y,-z
x,1/2+y,1/2-z
-x,y,z
x,1/2-y,1/2+z
1/2+x,1/2+y,z
1/2-x,-y,1/2+z
1/2+x,1/2-y,-z
1/2-x,y,1/2-z
1/2-x,1/2-y,-z
1/2+x,y,1/2-z
1/2-x,1/2+y,z
1/2+x,-y,1/2+z
loop_
_atom_site_type_symbol
_atom_site_label
_atom_site_fract_x
_atom_site_fract_y
_atom_site_fract_z
Si Si1 0.659117 0.789075 0.128914
Si Si2 0.138830 0.882484 0.032706
Si Si3 0.500000 0.015558 0.708170
Si Si4 0.000000 0.713835 0.794340
Si Si5 0.837394 0.475496 0.367055
Si Si6 0.363680 0.632252 0.525600
O O1 0.588170 0.801364 0.171668
O O2 0.746304 0.884882 0.138818
O O3 0.684514 0.632102 0.124579
O O4 0.612607 0.834540 0.079554
O O5 0.115910 0.916935 0.085917
O O6 0.251312 0.876345 0.029449
O O7 0.107986 0.747898 0.009443
O O8 0.106999 0.000000 0.000000
O O9 0.500000 0.863575 0.724208
O O10 0.500000 0.112528 0.751906
O O11 0.409195 0.034273 0.675649
O O12 0.394615 0.500000 0.500000
#
# Coordination Sequence:
#
# PCOD9479933 Si02
#       6
#    16  16   8   8  16  16
#     4  10  21  38  61  88 118 156 192 236 286 346
#     4   9  15  28  50  82 117 153 188 225 273 334
#     4  10  24  46  62  85 114 149 192 250 299 348
#     4  10  24  46  64  82 116 149 192 249 303 344
#     4  10  21  37  62  88 118 152 197 234 286 345
#     4   9  17  28  50  83 120 155 190 226 277 335
#
# _framework density 19.194320999999999
#
# number of rings (size 3 to 8) (size 9 to 14) (size 15 to 20)
#    0.000    2.400    2.000    0.000    8.400    2.400 
#    0.000    6.000    0.000    0.000    0.000    0.000 
#    0.000    0.000    0.000    0.000    0.000    0.000 
#
# Total GULP energy -223141.673897 kJ/mol
# GULP energy per Si atom -5578.541847 kJ/mol
# Density = 1.915063 g / cm^3
# Si number density = 19.194321 Si / 1000 Ang^3
#
#
#
# Elastic Constant Matrix: (Units=GPa)
#
#
# Indices 1 2 3 4 5 6 
#
# 1 91.2878 54.0321 38.1282 0.0000 0.0000 0.0000
# 2 54.0321 205.1538 115.6237 0.0000 0.0000 0.0000
# 3 38.1282 115.6237 149.7490 0.0000 0.0000 0.0000
# 4 0.0000 0.0000 0.0000 43.1269 0.0000 0.0000
# 5 0.0000 0.0000 0.0000 0.0000 18.3856 0.0000
# 6 0.0000 0.0000 0.0000 0.0000 0.0000 6.6872
#
#
#
# Elastic Compliance Matrix: (Units=1/GPa)
#
#
# Indices 1 2 3 4 5 6 
#
# 1 0.013096 -0.002779 -0.001188 0.000000 0.000000 0.000000
# 2 -0.002779 0.009220 -0.006411 0.000000 0.000000 0.000000
# 3 -0.001188 -0.006411 0.011930 0.000000 0.000000 0.000000
# 4 0.000000 0.000000 0.000000 0.023187 0.000000 0.000000
# 5 0.000000 0.000000 0.000000 0.000000 0.054390 0.000000
# 6 0.000000 0.000000 0.000000 0.000000 0.000000 0.149539
#
#
# Mechanical properties :
#
#
# Convention : Reuss Voigt Hill
#
# Bulk Modulus (GPa) = 74.13750 95.75093 84.94422
# Shear Modulus (GPa) = 17.44495 29.53371 23.48933
#
# Velocity S-wave (km/s) = 3.01800 3.92684 3.50203
# Velocity P-wave (km/s) = 7.13113 8.39961 7.79123
#
# Compressibility (1/GPa) = 0.01348845
#
# Stress axis : x y z
#
# Youngs Moduli (GPa) = 76.36055 108.46517 83.81936
#
# Poissons Ratio (x) = 0.30146 0.09961
# Poissons Ratio (y) = 0.21223 0.53736
# Poissons Ratio (z) = 0.09075 0.69536
#
# Static dielectric constant tensor:
#      x y z
#    x 1.707710 0.000000 0.000000 
#    y 0.000000 1.621850 0.000000 
#    z 0.000000 0.000000 1.633360 
# 
# From -- ./inp_files/53538.got.cif
#   From: 2010.05.17/outbox.cif.g08.bks.cpg/sg64_27_cif.got.tgz:53538.got - 2010.06.03 16:29:19.
