data_PCOD9479384
_publ_section_title
;
Structure prediction by ZEFSAII (Michael W. Deem and Ramdas Pophale) SiO2 
 PCOD9479384
Probable space group: C M C A
;
_chemical_formula_sum "Si O2"
_cell_formula_units_Z 80
_cell_length_a 7.536932
_cell_length_b 17.065160
_cell_length_c 25.067636
_cell_angle_alpha 90.000000
_cell_angle_beta 90.000000
_cell_angle_gamma 90.000000
_cell_volume 3224.173034
_symmetry_space_group_name_H-M "C M C A"
_symmetry_group_IT_number 64
_symmetry_cell_setting 'orthorhombic'
loop_
_space_group_symop_operation_xyz
x,y,z
-x,1/2-y,1/2+z
x,-y,-z
-x,1/2+y,1/2-z
-x,-y,-z
x,1/2+y,1/2-z
-x,y,z
x,1/2-y,1/2+z
1/2+x,1/2+y,z
1/2-x,-y,1/2+z
1/2+x,1/2-y,-z
1/2-x,y,1/2-z
1/2-x,1/2-y,-z
1/2+x,y,1/2-z
1/2-x,1/2+y,z
1/2+x,-y,1/2+z
loop_
_atom_site_type_symbol
_atom_site_label
_atom_site_fract_x
_atom_site_fract_y
_atom_site_fract_z
Si Si1 0.295135 0.410969 0.514545
Si Si2 0.709463 0.211802 0.942995
Si Si3 0.197709 0.254798 0.829833
Si Si4 0.286931 0.084955 0.134409
Si Si5 0.708607 0.579636 0.810317
O O1 0.300222 0.500000 0.500000
O O2 0.500000 0.382197 0.518116
O O3 0.224682 0.373588 0.459717
O O4 0.215391 0.402386 0.573703
O O5 0.500000 0.216111 0.930130
O O6 0.811537 0.245650 0.893690
O O7 0.750000 0.250000 0.000000
O O8 0.277447 0.343324 0.826920
O O9 0.283370 0.169668 0.815686
O O10 0.000000 0.257244 0.805093
O O11 0.500000 0.094064 0.132291
O O12 0.259919 0.995432 0.153701
O O13 0.500000 0.589767 0.818709
O O14 0.750000 0.555372 0.750000
#
# Coordination Sequence:
#
# PCOD9479384 Si02
#       5
#    16  16  16  16  16
#     4   9  17  30  52  82 116 157 200 238 284 345
#     4  11  20  33  56  86 123 163 201 242 291 352
#     4  10  22  41  63  90 125 164 204 252 306 364
#     4  10  20  39  63  87 122 162 202 248 300 360
#     4  11  25  44  65  90 120 153 200 258 316 370
#
# _framework density 24.812563000000001
#
# number of rings (size 3 to 8) (size 9 to 14) (size 15 to 20)
#    0.000    1.800    2.000    2.400    0.000    4.800 
#    0.000    2.000    0.000    4.200    0.000    0.000 
#    0.000    0.000    0.000    0.000    0.000    0.000 
#
# Total GULP energy -222690.734112 kJ/mol
# GULP energy per Si atom -5567.268353 kJ/mol
# Density = 2.475609 g / cm^3
# Si number density = 24.812563 Si / 1000 Ang^3
#
#
#
# Elastic Constant Matrix: (Units=GPa)
#
#
# Indices 1 2 3 4 5 6 
#
# 1 84.6002 12.8024 -4.0677 0.0000 0.0000 0.0000
# 2 12.8024 153.5219 15.4248 0.0000 0.0000 0.0000
# 3 -4.0677 15.4248 62.6150 0.0000 0.0000 0.0000
# 4 0.0000 0.0000 0.0000 66.0556 0.0000 0.0000
# 5 0.0000 0.0000 0.0000 0.0000 11.4171 0.0000
# 6 0.0000 0.0000 0.0000 0.0000 0.0000 15.8963
#
#
#
# Elastic Compliance Matrix: (Units=1/GPa)
#
#
# Indices 1 2 3 4 5 6 
#
# 1 0.012039 -0.001110 0.001056 0.000000 0.000000 0.000000
# 2 -0.001110 0.006781 -0.001743 0.000000 0.000000 0.000000
# 3 0.001056 -0.001743 0.016468 0.000000 0.000000 0.000000
# 4 0.000000 0.000000 0.000000 0.015139 0.000000 0.000000
# 5 0.000000 0.000000 0.000000 0.000000 0.087588 0.000000
# 6 0.000000 0.000000 0.000000 0.000000 0.000000 0.062908
#
#
# Mechanical properties :
#
#
# Convention : Reuss Voigt Hill
#
# Bulk Modulus (GPa) = 31.55109 38.78403 35.16756
# Shear Modulus (GPa) = 23.24689 37.11230 30.17960
#
# Velocity S-wave (km/s) = 3.06420 3.87163 3.49134
# Velocity P-wave (km/s) = 5.02618 5.97083 5.51875
#
# Compressibility (1/GPa) = 0.03169463
#
# Stress axis : x y z
#
# Youngs Moduli (GPa) = 83.06317 147.46250 60.72208
#
# Poissons Ratio (x) = 0.16368 -0.06409
# Poissons Ratio (y) = 0.09220 0.10582
# Poissons Ratio (z) = -0.08768 0.25698
#
# Static dielectric constant tensor:
#      x y z
#    x 1.931700 0.000000 0.000000 
#    y 0.000000 1.590970 0.000000 
#    z 0.000000 0.000000 1.921600 
# 
# From -- ./inp_files/47863.got.cif
#   From: 2010.05.17/outbox.cif.g08.bks.cpg/sg64_24_cif.got.tgz:47863.got - 2010.06.03 16:29:19.
