data_PCOD9479779
_publ_section_title
;
Structure prediction by ZEFSAII (Michael W. Deem and Ramdas Pophale) SiO2 
 PCOD9479779
Probable space group: C M C A
;
_chemical_formula_sum "Si O2"
_cell_formula_units_Z 116
_cell_length_a 25.165432
_cell_length_b 19.362160
_cell_length_c 11.755291
_cell_angle_alpha 90.000000
_cell_angle_beta 90.000000
_cell_angle_gamma 90.000000
_cell_volume 5727.849247
_symmetry_space_group_name_H-M "C M C A"
_symmetry_group_IT_number 64
_symmetry_cell_setting 'orthorhombic'
loop_
_space_group_symop_operation_xyz
x,y,z
-x,1/2-y,1/2+z
x,-y,-z
-x,1/2+y,1/2-z
-x,-y,-z
x,1/2+y,1/2-z
-x,y,z
x,1/2-y,1/2+z
1/2+x,1/2+y,z
1/2-x,-y,1/2+z
1/2+x,1/2-y,-z
1/2-x,y,1/2-z
1/2-x,1/2-y,-z
1/2+x,y,1/2-z
1/2-x,1/2+y,z
1/2+x,-y,1/2+z
loop_
_atom_site_type_symbol
_atom_site_label
_atom_site_fract_x
_atom_site_fract_y
_atom_site_fract_z
Si Si1 0.832429 0.383022 0.529695
Si Si2 0.223560 0.877318 0.627636
Si Si3 0.940693 0.186027 0.658398
Si Si4 0.376786 0.939857 0.765011
Si Si5 0.000000 0.000000 0.000000
Si Si6 0.059899 0.193944 0.315545
Si Si7 0.411954 0.074357 0.660861
Si Si8 0.145487 0.725514 0.008044
O O1 0.771102 0.403196 0.548054
O O2 0.862718 0.416277 0.636525
O O3 0.860162 0.406129 0.413451
O O4 0.836954 0.299745 0.538004
O O5 0.250000 0.857336 0.750000
O O6 0.176344 0.929841 0.660658
O O7 0.194487 0.814439 0.564251
O O8 0.939844 0.266580 0.695404
O O9 0.934443 0.139195 0.769954
O O10 0.888469 0.179479 0.580852
O O11 0.000000 0.171434 0.610943
O O12 0.420052 0.884335 0.806858
O O13 0.397858 0.016610 0.754747
O O14 0.953956 0.958781 0.074207
O O15 0.101681 0.233969 0.393351
O O16 0.000000 0.198380 0.358152
#
# Coordination Sequence:
#
# PCOD9479779 Si02
#       8
#    16  16  16  16   4  16  16  16
#     4  11  20  39  64  93 124 165 211 275 321 380
#     4   9  22  41  65  87 124 174 214 266 333 392
#     4  11  23  39  61  96 133 166 209 268 320 394
#     4  10  21  40  60  91 126 167 211 261 324 391
#     4  12  24  40  64  92 134 172 208 276 326 370
#     4  10  21  36  60  89 128 169 209 257 328 393
#     4  12  24  40  66  97 132 168 224 265 322 395
#     4  11  21  40  62  95 129 162 216 271 329 386
#
# _framework density 20.251929000000001
#
# number of rings (size 3 to 8) (size 9 to 14) (size 15 to 20)
#    0.000    1.379    4.828    0.828    0.966    0.000 
#    1.241   10.345    0.000    4.138    0.000    0.000 
#    0.000    0.000    0.000    0.000    0.000    0.000 
#
# Total GULP energy -323035.278625 kJ/mol
# GULP energy per Si atom -5569.573769 kJ/mol
# Density = 2.020583 g / cm^3
# Si number density = 20.251929 Si / 1000 Ang^3
#
#
#
# Elastic Constant Matrix: (Units=GPa)
#
#
# Indices 1 2 3 4 5 6 
#
# 1 102.4521 21.8891 18.0952 0.0000 0.0000 0.0000
# 2 21.8891 66.9533 11.2530 0.0000 0.0000 0.0000
# 3 18.0952 11.2530 37.0092 0.0000 0.0000 0.0000
# 4 0.0000 0.0000 0.0000 32.3853 0.0000 0.0000
# 5 0.0000 0.0000 0.0000 0.0000 -10.6461 0.0000
# 6 0.0000 0.0000 0.0000 0.0000 0.0000 386.5834
#
#
#
# Elastic Compliance Matrix: (Units=1/GPa)
#
#
# Indices 1 2 3 4 5 6 
#
# 1 0.011188 -0.002886 -0.004593 0.000000 0.000000 0.000000
# 2 -0.002886 0.016485 -0.003601 0.000000 0.000000 0.000000
# 3 -0.004593 -0.003601 0.030361 0.000000 0.000000 0.000000
# 4 0.000000 0.000000 0.000000 0.030878 0.000000 0.000000
# 5 0.000000 0.000000 0.000000 0.000000 -0.093931 0.000000
# 6 0.000000 0.000000 0.000000 0.000000 0.000000 0.002587
#
#
# Mechanical properties :
#
#
# Convention : Reuss Voigt Hill
#
# Bulk Modulus (GPa) = 27.87556 34.32103 31.09830
# Shear Modulus (GPa) = 157.79696 92.00966 124.90331
#
# Velocity S-wave (km/s) = 8.83664 6.74768 7.86185
# Velocity P-wave (km/s) = 10.85860 8.81431 9.88942
#
# Compressibility (1/GPa) = 0.03587372
#
# Stress axis : x y z
#
# Youngs Moduli (GPa) = 89.37788 60.66291 32.93699
#
# Poissons Ratio (x) = 0.17507 0.15128
# Poissons Ratio (y) = 0.25794 0.11861
# Poissons Ratio (z) = 0.41051 0.21846
#
# Static dielectric constant tensor:
#      x y z
#    x 1.761490 0.000000 0.000000 
#    y 0.000000 1.699340 0.000000 
#    z 0.000000 0.000000 1.756560 
# 
# From -- ./inp_files/19265.got.cif
#   From: 2010.05.17/outbox.cif.g08.bks.cpg/sg64_10_cif.got.tgz:19265.got - 2010.06.03 16:29:19.
