data_PCOD9479810
_publ_section_title
;
Structure prediction by ZEFSAII (Michael W. Deem and Ramdas Pophale) SiO2 
 PCOD9479810
Probable space group: C M C A
;
_chemical_formula_sum "Si O2"
_cell_formula_units_Z 80
_cell_length_a 8.898750
_cell_length_b 19.701530
_cell_length_c 25.912555
_cell_angle_alpha 90.000000
_cell_angle_beta 90.000000
_cell_angle_gamma 90.000000
_cell_volume 4542.962973
_symmetry_space_group_name_H-M "C M C A"
_symmetry_group_IT_number 64
_symmetry_cell_setting 'orthorhombic'
loop_
_space_group_symop_operation_xyz
x,y,z
-x,1/2-y,1/2+z
x,-y,-z
-x,1/2+y,1/2-z
-x,-y,-z
x,1/2+y,1/2-z
-x,y,z
x,1/2-y,1/2+z
1/2+x,1/2+y,z
1/2-x,-y,1/2+z
1/2+x,1/2-y,-z
1/2-x,y,1/2-z
1/2-x,1/2-y,-z
1/2+x,y,1/2-z
1/2-x,1/2+y,z
1/2+x,-y,1/2+z
loop_
_atom_site_type_symbol
_atom_site_label
_atom_site_fract_x
_atom_site_fract_y
_atom_site_fract_z
Si Si1 0.178095 0.883252 0.973333
Si Si2 0.820875 0.626975 0.193512
Si Si3 0.821067 0.880657 0.415002
Si Si4 0.821103 0.983836 0.879838
Si Si5 0.679810 0.726995 0.112418
O O1 0.208708 0.945587 0.934434
O O2 0.210851 0.815827 0.939757
O O3 0.000000 0.884352 0.985767
O O4 0.270933 0.885746 0.025463
O O5 0.750000 0.631014 0.250000
O O6 0.759700 0.560464 0.163801
O O7 0.765788 0.689981 0.158527
O O8 0.000000 0.625431 0.196340
O O9 0.781733 0.805441 0.395071
O O10 0.000000 0.889080 0.411055
O O11 0.738934 0.940272 0.384189
O O12 0.000000 0.981673 0.871663
O O13 0.500000 0.720602 0.121423
#
# Coordination Sequence:
#
# PCOD9479810 Si02
#       5
#    16  16  16  16  16
#     4   9  18  33  52  74 107 152 189 219 262 313
#     4  11  22  39  63  84 103 133 175 221 270 325
#     4  11  21  32  51  81 115 147 181 223 266 313
#     4  10  21  37  55  78 110 145 182 223 267 316
#     4   9  20  37  54  78 112 145 180 222 266 314
#
# _framework density 17.609653000000002
#
# number of rings (size 3 to 8) (size 9 to 14) (size 15 to 20)
#    0.000    2.000    0.000    5.400    0.000    8.000 
#    0.000    1.000    0.000    4.800    0.000    0.000 
#    0.000    0.000    0.000    0.000    0.000    0.000 
#
# Total GULP energy -223458.491046 kJ/mol
# GULP energy per Si atom -5586.462276 kJ/mol
# Density = 1.756957 g / cm^3
# Si number density = 17.609653 Si / 1000 Ang^3
#
#
#
# Elastic Constant Matrix: (Units=GPa)
#
#
# Indices 1 2 3 4 5 6 
#
# 1 74.2589 44.4535 44.4285 0.0000 0.0000 0.0000
# 2 44.4535 108.0100 18.3438 0.0000 0.0000 0.0000
# 3 44.4285 18.3438 77.4852 0.0000 0.0000 0.0000
# 4 0.0000 0.0000 0.0000 3.9894 0.0000 0.0000
# 5 0.0000 0.0000 0.0000 0.0000 33.4707 0.0000
# 6 0.0000 0.0000 0.0000 0.0000 0.0000 30.9735
#
#
#
# Elastic Compliance Matrix: (Units=1/GPa)
#
#
# Indices 1 2 3 4 5 6 
#
# 1 0.026542 -0.008689 -0.013162 0.000000 0.000000 0.000000
# 2 -0.008689 0.012490 0.002025 0.000000 0.000000 0.000000
# 3 -0.013162 0.002025 0.019973 0.000000 0.000000 0.000000
# 4 0.000000 0.000000 0.000000 0.250666 0.000000 0.000000
# 5 0.000000 0.000000 0.000000 0.000000 0.029877 0.000000
# 6 0.000000 0.000000 0.000000 0.000000 0.000000 0.032286
#
#
# Mechanical properties :
#
#
# Convention : Reuss Voigt Hill
#
# Bulk Modulus (GPa) = 51.66725 52.68952 52.17839
# Shear Modulus (GPa) = 11.96352 23.85525 17.90938
#
# Velocity S-wave (km/s) = 2.60931 3.68458 3.19254
# Velocity P-wave (km/s) = 6.20338 6.93450 6.57910
#
# Compressibility (1/GPa) = 0.01935462
#
# Stress axis : x y z
#
# Youngs Moduli (GPa) = 37.67566 80.06096 50.06735
#
# Poissons Ratio (x) = 0.69562 0.65898
# Poissons Ratio (y) = 0.32735 -0.10138
# Poissons Ratio (z) = 0.49588 -0.16212
#
# Static dielectric constant tensor:
#      x y z
#    x 1.584420 0.000000 0.000000 
#    y 0.000000 1.601470 0.000000 
#    z 0.000000 0.000000 1.565670 
# 
# From -- ./inp_files/47784.got.cif
#   From: 2010.05.17/outbox.cif.g08.bks.cpg/sg64_24_cif.got.tgz:47784.got - 2010.06.03 16:29:19.
