data_PCOD9479469
_publ_section_title
;
Structure prediction by ZEFSAII (Michael W. Deem and Ramdas Pophale) SiO2 
 PCOD9479469
Probable space group: C M C A
;
_chemical_formula_sum "Si O2"
_cell_formula_units_Z 56
_cell_length_a 13.423394
_cell_length_b 14.293571
_cell_length_c 10.077099
_cell_angle_alpha 90.000000
_cell_angle_beta 90.000000
_cell_angle_gamma 90.000000
_cell_volume 1933.475201
_symmetry_space_group_name_H-M "C M C A"
_symmetry_group_IT_number 64
_symmetry_cell_setting 'orthorhombic'
loop_
_space_group_symop_operation_xyz
x,y,z
-x,1/2-y,1/2+z
x,-y,-z
-x,1/2+y,1/2-z
-x,-y,-z
x,1/2+y,1/2-z
-x,y,z
x,1/2-y,1/2+z
1/2+x,1/2+y,z
1/2-x,-y,1/2+z
1/2+x,1/2-y,-z
1/2-x,y,1/2-z
1/2-x,1/2-y,-z
1/2+x,y,1/2-z
1/2-x,1/2+y,z
1/2+x,-y,1/2+z
loop_
_atom_site_type_symbol
_atom_site_label
_atom_site_fract_x
_atom_site_fract_y
_atom_site_fract_z
Si Si1 0.879324 0.369675 0.403192
Si Si2 0.388020 0.393319 0.548911
Si Si3 0.750000 0.023092 0.250000
Si Si4 0.879935 0.260953 0.661851
O O1 0.815807 0.455939 0.345616
O O2 0.854606 0.343212 0.555273
O O3 0.000000 0.387839 0.392152
O O4 0.855154 0.279654 0.309017
O O5 0.391633 0.500000 0.500000
O O6 0.500000 0.362971 0.578514
O O7 0.326941 0.406583 0.681237
O O8 0.351881 0.329484 0.429650
O O9 0.000000 0.265839 0.663948
#
# Coordination Sequence:
#
# PCOD9479469 Si02
#       4
#    16  16   8  16
#     4  10  21  39  61  89 122 160 204 256 310 365
#     4  10  20  40  64  85 118 166 209 248 307 376
#     4  12  22  34  62  92 120 156 204 260 302 366
#     4   9  19  39  64  86 119 164 206 250 306 369
#
# _framework density 28.963394000000001
#
# number of rings (size 3 to 8) (size 9 to 14) (size 15 to 20)
#    0.000    2.000    2.857    0.857    0.000    2.286 
#    5.143    0.000    0.000    1.714    0.000    0.000 
#    0.000    0.000    0.000    0.000    0.000    0.000 
#
# Total GULP energy -156984.576911 kJ/mol
# GULP energy per Si atom -5606.592033 kJ/mol
# Density = 2.889747 g / cm^3
# Si number density = 28.963394 Si / 1000 Ang^3
#
#
#
# Elastic Constant Matrix: (Units=GPa)
#
#
# Indices 1 2 3 4 5 6 
#
# 1 131.1596 -0.7489 48.9173 0.0000 0.0000 0.0000
# 2 -0.7489 120.3440 14.8609 0.0000 0.0000 0.0000
# 3 48.9173 14.8609 236.3349 0.0000 0.0000 0.0000
# 4 0.0000 0.0000 0.0000 42.2747 0.0000 0.0000
# 5 0.0000 0.0000 0.0000 0.0000 61.5914 0.0000
# 6 0.0000 0.0000 0.0000 0.0000 0.0000 -117.4913
#
#
#
# Elastic Compliance Matrix: (Units=1/GPa)
#
#
# Indices 1 2 3 4 5 6 
#
# 1 0.008270 0.000265 -0.001729 0.000000 0.000000 0.000000
# 2 0.000265 0.008383 -0.000582 0.000000 0.000000 0.000000
# 3 -0.001729 -0.000582 0.004626 0.000000 0.000000 0.000000
# 4 0.000000 0.000000 0.000000 0.023655 0.000000 0.000000
# 5 0.000000 0.000000 0.000000 0.000000 0.016236 0.000000
# 6 0.000000 0.000000 0.000000 0.000000 0.000000 -0.008511
#
#
# Mechanical properties :
#
#
# Convention : Reuss Voigt Hill
#
# Bulk Modulus (GPa) = 58.17994 68.21075 63.19535
# Shear Modulus (GPa) = 80.02663 25.59557 52.81110
#
# Velocity S-wave (km/s) = 5.26215 2.97597 4.27473
# Velocity P-wave (km/s) = 7.55323 5.95066 6.79933
#
# Compressibility (1/GPa) = 0.01718805
#
# Stress axis : x y z
#
# Youngs Moduli (GPa) = 120.91199 119.28862 216.18585
#
# Poissons Ratio (x) = -0.03160 0.37368
# Poissons Ratio (y) = -0.03203 0.12581
# Poissons Ratio (z) = 0.20900 0.06942
#
# Static dielectric constant tensor:
#      x y z
#    x 2.222830 0.000000 0.000000 
#    y 0.000000 2.370090 0.000000 
#    z 0.000000 0.000000 2.812530 
# 
# From -- ./inp_files/5357.got.cif
#   From: 2010.05.17/outbox.cif.g08.bks.cpg/sg64_3_cif.got.tgz:5357.got - 2010.06.03 16:29:19.
