data_PCOD9479021
_publ_section_title
;
Structure prediction by ZEFSAII (Michael W. Deem and Ramdas Pophale) SiO2 
 PCOD9479021
Probable space group: C M C A
;
_chemical_formula_sum "Si O2"
_cell_formula_units_Z 96
_cell_length_a 19.454504
_cell_length_b 20.074367
_cell_length_c 11.102525
_cell_angle_alpha 90.000000
_cell_angle_beta 90.000000
_cell_angle_gamma 90.000000
_cell_volume 4335.945175
_symmetry_space_group_name_H-M "C M C A"
_symmetry_group_IT_number 64
_symmetry_cell_setting 'orthorhombic'
loop_
_space_group_symop_operation_xyz
x,y,z
-x,1/2-y,1/2+z
x,-y,-z
-x,1/2+y,1/2-z
-x,-y,-z
x,1/2+y,1/2-z
-x,y,z
x,1/2-y,1/2+z
1/2+x,1/2+y,z
1/2-x,-y,1/2+z
1/2+x,1/2-y,-z
1/2-x,y,1/2-z
1/2-x,1/2-y,-z
1/2+x,y,1/2-z
1/2-x,1/2+y,z
1/2+x,-y,1/2+z
loop_
_atom_site_type_symbol
_atom_site_label
_atom_site_fract_x
_atom_site_fract_y
_atom_site_fract_z
Si Si1 0.801924 0.133048 0.544681
Si Si2 0.500000 0.896484 0.534896
Si Si3 0.667313 0.259704 0.272977
Si Si4 0.146080 0.464645 0.245573
Si Si5 0.829358 0.884541 0.721816
Si Si6 0.856741 0.855308 0.058264
Si Si7 0.000000 0.483651 0.288910
O O1 0.838134 0.197258 0.605428
O O2 0.838121 0.112474 0.421903
O O3 0.722348 0.152096 0.512002
O O4 0.809184 0.073862 0.644644
O O5 0.573586 0.859404 0.519327
O O6 0.500000 0.941060 0.656834
O O7 0.500000 0.941974 0.413573
O O8 0.750000 0.261921 0.250000
O O9 0.640118 0.184825 0.268958
O O10 0.634734 0.300272 0.162497
O O11 0.157643 0.542108 0.271157
O O12 0.150859 0.424774 0.369615
O O13 0.066101 0.463922 0.212402
O O14 0.750000 0.875376 0.750000
#
# Coordination Sequence:
#
# PCOD9479021 Si02
#       7
#    16   8  16  16  16  16   8
#     4  10  20  37  58  83 116 154 193 242 307 353
#     4   9  18  34  57  85 113 159 202 232 300 344
#     4   8  18  35  53  80 114 151 189 241 301 354
#     4  10  20  37  56  85 117 151 197 240 293 355
#     4  11  22  33  54  88 115 147 198 248 298 350
#     4   9  18  35  58  82 116 154 193 243 289 355
#     4   9  20  36  54  83 121 155 192 239 291 358
#
# _framework density 22.140502000000001
#
# number of rings (size 3 to 8) (size 9 to 14) (size 15 to 20)
#    0.000    2.500    0.000    3.000    2.333    6.000 
#    3.000    2.500    0.000    0.000    0.000    0.000 
#    0.000    0.000    0.000    0.000    0.000    0.000 
#
# Total GULP energy -267479.613580 kJ/mol
# GULP energy per Si atom -5572.491950 kJ/mol
# Density = 2.209011 g / cm^3
# Si number density = 22.140502 Si / 1000 Ang^3
#
#
#
# Elastic Constant Matrix: (Units=GPa)
#
#
# Indices 1 2 3 4 5 6 
#
# 1 90.6079 0.8153 22.8755 0.0000 0.0000 0.0000
# 2 0.8153 133.6015 34.1253 0.0000 0.0000 0.0000
# 3 22.8755 34.1253 75.0997 0.0000 0.0000 0.0000
# 4 0.0000 0.0000 0.0000 3.3974 0.0000 0.0000
# 5 0.0000 0.0000 0.0000 0.0000 15.8327 0.0000
# 6 0.0000 0.0000 0.0000 0.0000 0.0000 -141.2090
#
#
#
# Elastic Compliance Matrix: (Units=1/GPa)
#
#
# Indices 1 2 3 4 5 6 
#
# 1 0.012068 0.000979 -0.004121 0.000000 0.000000 0.000000
# 2 0.000979 0.008547 -0.004182 0.000000 0.000000 0.000000
# 3 -0.004121 -0.004182 0.016471 0.000000 0.000000 0.000000
# 4 0.000000 0.000000 0.000000 0.294343 0.000000 0.000000
# 5 0.000000 0.000000 0.000000 0.000000 0.063160 0.000000
# 6 0.000000 0.000000 0.000000 0.000000 0.000000 -0.007082
#
#
# Mechanical properties :
#
#
# Convention : Reuss Voigt Hill
#
# Bulk Modulus (GPa) = 44.56597 46.10460 45.33528
# Shear Modulus (GPa) = 12.20597 -8.29624 1.95487
#
# Velocity S-wave (km/s) = 2.35052 -1.93784 0.94067
# Velocity P-wave (km/s) = 5.24776 3.98270 4.65837
#
# Compressibility (1/GPa) = 0.02243865
#
# Stress axis : x y z
#
# Youngs Moduli (GPa) = 82.86302 116.99790 60.71232
#
# Poissons Ratio (x) = -0.11453 0.25018
# Poissons Ratio (y) = -0.08112 0.25390
# Poissons Ratio (z) = 0.34146 0.48929
#
# Static dielectric constant tensor:
#      x y z
#    x 1.872300 0.000000 0.000000 
#    y 0.000000 1.886640 0.000000 
#    z 0.000000 0.000000 1.905150 
# 
# From -- ./inp_files/17410.got.cif
#   From: 2010.05.17/outbox.cif.g08.bks.cpg/sg64_9_cif.got.tgz:17410.got - 2010.06.03 16:29:19.
