data_PCOD9479846
_publ_section_title
;
Structure prediction by ZEFSAII (Michael W. Deem and Ramdas Pophale) SiO2 
 PCOD9479846
Probable space group: C M C A
;
_chemical_formula_sum "Si O2"
_cell_formula_units_Z 112
_cell_length_a 32.216124
_cell_length_b 31.912366
_cell_length_c 5.210858
_cell_angle_alpha 90.000000
_cell_angle_beta 90.000000
_cell_angle_gamma 90.000000
_cell_volume 5357.245280
_symmetry_space_group_name_H-M "C M C A"
_symmetry_group_IT_number 64
_symmetry_cell_setting 'orthorhombic'
loop_
_space_group_symop_operation_xyz
x,y,z
-x,1/2-y,1/2+z
x,-y,-z
-x,1/2+y,1/2-z
-x,-y,-z
x,1/2+y,1/2-z
-x,y,z
x,1/2-y,1/2+z
1/2+x,1/2+y,z
1/2-x,-y,1/2+z
1/2+x,1/2-y,-z
1/2-x,y,1/2-z
1/2-x,1/2-y,-z
1/2+x,y,1/2-z
1/2-x,1/2+y,z
1/2+x,-y,1/2+z
loop_
_atom_site_type_symbol
_atom_site_label
_atom_site_fract_x
_atom_site_fract_y
_atom_site_fract_z
Si Si1 0.703497 0.545225 0.360718
Si Si2 0.813498 0.773177 0.423530
Si Si3 0.047949 0.097377 0.349532
Si Si4 0.412615 0.770245 0.117700
Si Si5 0.384676 0.472770 0.759621
Si Si6 0.952389 0.149940 0.851844
Si Si7 0.278757 0.364517 0.497437
O O1 0.703795 0.500000 0.500000
O O2 0.750000 0.547796 0.250000
O O3 0.662449 0.543025 0.184592
O O4 0.698470 0.590074 0.504095
O O5 0.797160 0.743189 0.650284
O O6 0.863116 0.767166 0.409270
O O7 0.805071 0.821830 0.483027
O O8 0.082456 0.063369 0.289986
O O9 0.051594 0.112948 0.641918
O O10 0.000000 0.083177 0.310478
O O11 0.055010 0.133976 0.139284
O O12 0.428926 0.736961 0.329751
O O13 0.423033 0.813954 0.249147
O O14 0.382987 0.500000 0.500000
O O15 0.398413 0.500000 0.000000
O O16 0.000000 0.165052 0.835963
O O17 0.250000 0.364424 0.250000
O O18 0.250000 0.362153 0.750000
#
# Coordination Sequence:
#
# PCOD9479846 Si02
#       7
#    16  16  16  16  16  16  16
#     4  10  22  42  65  91 130 163 205 264 313 364
#     4  10  22  40  59  87 125 161 201 258 311 362
#     4  10  22  40  61  91 126 160 202 254 309 366
#     4  10  21  37  57  86 120 159 203 247 309 364
#     4  11  24  41  64  94 120 162 211 246 315 377
#     4  10  21  38  60  88 121 161 202 248 310 364
#     4  11  24  40  62  93 117 161 215 247 315 379
#
# _framework density 20.906265000000001
#
# number of rings (size 3 to 8) (size 9 to 14) (size 15 to 20)
#    0.000    1.714    0.000    3.429    2.000    6.286 
#    5.143    0.000    0.000    0.000    0.000    0.000 
#    0.000    0.000    0.000    0.000    0.000    0.000 
#
# Total GULP energy -312425.867626 kJ/mol
# GULP energy per Si atom -5579.033350 kJ/mol
# Density = 2.085868 g / cm^3
# Si number density = 20.906265 Si / 1000 Ang^3
#
#
#
# Elastic Constant Matrix: (Units=GPa)
#
#
# Indices 1 2 3 4 5 6 
#
# 1 41.1265 17.0568 -2.4927 0.0000 0.0000 0.0000
# 2 17.0568 96.4632 16.6820 0.0000 0.0000 0.0000
# 3 -2.4927 16.6820 88.8972 0.0000 0.0000 0.0000
# 4 0.0000 0.0000 0.0000 28.7880 0.0000 0.0000
# 5 0.0000 0.0000 0.0000 0.0000 21.6943 0.0000
# 6 0.0000 0.0000 0.0000 0.0000 0.0000 41.2892
#
#
#
# Elastic Compliance Matrix: (Units=1/GPa)
#
#
# Indices 1 2 3 4 5 6 
#
# 1 0.026479 -0.004972 0.001675 0.000000 0.000000 0.000000
# 2 -0.004972 0.011648 -0.002325 0.000000 0.000000 0.000000
# 3 0.001675 -0.002325 0.011732 0.000000 0.000000 0.000000
# 4 0.000000 0.000000 0.000000 0.034737 0.000000 0.000000
# 5 0.000000 0.000000 0.000000 0.000000 0.046095 0.000000
# 6 0.000000 0.000000 0.000000 0.000000 0.000000 0.024219
#
#
# Mechanical properties :
#
#
# Convention : Reuss Voigt Hill
#
# Bulk Modulus (GPa) = 25.89610 32.10880 29.00245
# Shear Modulus (GPa) = 27.92907 31.37036 29.64971
#
# Velocity S-wave (km/s) = 3.65899 3.87786 3.77001
# Velocity P-wave (km/s) = 5.50132 5.95334 5.73179
#
# Compressibility (1/GPa) = 0.03861585
#
# Stress axis : x y z
#
# Youngs Moduli (GPa) = 37.76616 85.85259 85.23506
#
# Poissons Ratio (x) = 0.42684 -0.14281
# Poissons Ratio (y) = 0.18776 0.19819
# Poissons Ratio (z) = -0.06328 0.19962
#
# Static dielectric constant tensor:
#      x y z
#    x 1.741560 0.000000 0.000000 
#    y 0.000000 1.785650 0.000000 
#    z 0.000000 0.000000 1.756560 
# 
# From -- ./inp_files/3480.got.cif
#   From: 2010.05.17/outbox.cif.g08.bks.cpg/sg64_2_cif.got.tgz:3480.got - 2010.06.03 16:29:19.
