data_PCOD9479564
_publ_section_title
;
Structure prediction by ZEFSAII (Michael W. Deem and Ramdas Pophale) SiO2 
 PCOD9479564
Probable space group: C M C A
;
_chemical_formula_sum "Si O2"
_cell_formula_units_Z 56
_cell_length_a 31.709254
_cell_length_b 12.944010
_cell_length_c 5.511280
_cell_angle_alpha 90.000000
_cell_angle_beta 90.000000
_cell_angle_gamma 90.000000
_cell_volume 2262.076773
_symmetry_space_group_name_H-M "C M C A"
_symmetry_group_IT_number 64
_symmetry_cell_setting 'orthorhombic'
loop_
_space_group_symop_operation_xyz
x,y,z
-x,1/2-y,1/2+z
x,-y,-z
-x,1/2+y,1/2-z
-x,-y,-z
x,1/2+y,1/2-z
-x,y,z
x,1/2-y,1/2+z
1/2+x,1/2+y,z
1/2-x,-y,1/2+z
1/2+x,1/2-y,-z
1/2-x,y,1/2-z
1/2-x,1/2-y,-z
1/2+x,y,1/2-z
1/2-x,1/2+y,z
1/2+x,-y,1/2+z
loop_
_atom_site_type_symbol
_atom_site_label
_atom_site_fract_x
_atom_site_fract_y
_atom_site_fract_z
Si Si1 0.657979 0.500000 0.500000
Si Si2 0.699159 0.806811 0.759880
Si Si3 0.951602 0.652758 0.355621
Si Si4 0.580726 0.121200 0.852791
O O1 0.683558 0.421787 0.671060
O O2 0.626741 0.572453 0.656818
O O3 0.685922 0.763730 0.494196
O O4 0.750000 0.807153 0.750000
O O5 0.921753 0.753627 0.363362
O O6 0.945560 0.598772 0.612193
O O7 0.000000 0.686800 0.329922
O O8 0.938693 0.593179 0.114647
#
# Coordination Sequence:
#
# PCOD9479564 Si02
#       4
#     8  16  16  16
#     4  12  28  44  77 114 150 180 246 318 359 446
#     4  10  26  50  77 107 145 195 236 285 368 448
#     4  10  20  42  65  90 143 197 244 298 354 436
#     4  10  22  36  63 102 132 182 240 295 369 407
#
# _framework density 24.756012999999999
#
# number of rings (size 3 to 8) (size 9 to 14) (size 15 to 20)
#    0.000    1.714    0.000    4.286    8.000    8.000 
#    0.000    7.857    0.000    0.000    0.000    0.000 
#    0.000    0.000    0.000    0.000    0.000    0.000 
#
# Total GULP energy -156529.532936 kJ/mol
# GULP energy per Si atom -5590.340462 kJ/mol
# Density = 2.469967 g / cm^3
# Si number density = 24.756013 Si / 1000 Ang^3
#
#
#
# Elastic Constant Matrix: (Units=GPa)
#
#
# Indices 1 2 3 4 5 6 
#
# 1 74.9894 53.0127 48.3171 0.0000 0.0000 0.0000
# 2 53.0127 140.8851 75.5376 0.0000 0.0000 0.0000
# 3 48.3171 75.5376 247.9808 0.0000 0.0000 0.0000
# 4 0.0000 0.0000 0.0000 50.4004 0.0000 0.0000
# 5 0.0000 0.0000 0.0000 0.0000 22.8185 0.0000
# 6 0.0000 0.0000 0.0000 0.0000 0.0000 126.1361
#
#
#
# Elastic Compliance Matrix: (Units=1/GPa)
#
#
# Indices 1 2 3 4 5 6 
#
# 1 0.018820 -0.006114 -0.001805 0.000000 0.000000 0.000000
# 2 -0.006114 0.010470 -0.001998 0.000000 0.000000 0.000000
# 3 -0.001805 -0.001998 0.004993 0.000000 0.000000 0.000000
# 4 0.000000 0.000000 0.000000 0.019841 0.000000 0.000000
# 5 0.000000 0.000000 0.000000 0.000000 0.043824 0.000000
# 6 0.000000 0.000000 0.000000 0.000000 0.000000 0.007928
#
#
# Mechanical properties :
#
#
# Convention : Reuss Voigt Hill
#
# Bulk Modulus (GPa) = 69.20630 90.84334 80.02482
# Shear Modulus (GPa) = 38.30659 59.00354 48.65506
#
# Velocity S-wave (km/s) = 3.93792 4.88731 4.43807
# Velocity P-wave (km/s) = 6.97799 8.28389 7.65882
#
# Compressibility (1/GPa) = 0.01444955
#
# Stress axis : x y z
#
# Youngs Moduli (GPa) = 53.13419 95.51211 200.29012
#
# Poissons Ratio (x) = 0.58398 0.36143
# Poissons Ratio (y) = 0.32487 0.40016
# Poissons Ratio (z) = 0.09588 0.19083
#
# Static dielectric constant tensor:
#      x y z
#    x 1.892890 0.000000 0.000000 
#    y 0.000000 2.081610 0.000000 
#    z 0.000000 0.000000 1.977020 
# 
# From -- ./inp_files/3090.got.cif
#   From: 2010.05.17/outbox.cif.g08.bks.cpg/sg64_2_cif.got.tgz:3090.got - 2010.06.03 16:29:19.
