data_PCOD9479253
_publ_section_title
;
Structure prediction by ZEFSAII (Michael W. Deem and Ramdas Pophale) SiO2 
 PCOD9479253
Probable space group: C M C A
;
_chemical_formula_sum "Si O2"
_cell_formula_units_Z 72
_cell_length_a 13.848822
_cell_length_b 19.802839
_cell_length_c 13.280992
_cell_angle_alpha 90.000000
_cell_angle_beta 90.000000
_cell_angle_gamma 90.000000
_cell_volume 3642.258831
_symmetry_space_group_name_H-M "C M C A"
_symmetry_group_IT_number 64
_symmetry_cell_setting 'orthorhombic'
loop_
_space_group_symop_operation_xyz
x,y,z
-x,1/2-y,1/2+z
x,-y,-z
-x,1/2+y,1/2-z
-x,-y,-z
x,1/2+y,1/2-z
-x,y,z
x,1/2-y,1/2+z
1/2+x,1/2+y,z
1/2-x,-y,1/2+z
1/2+x,1/2-y,-z
1/2-x,y,1/2-z
1/2-x,1/2-y,-z
1/2+x,y,1/2-z
1/2-x,1/2+y,z
1/2+x,-y,1/2+z
loop_
_atom_site_type_symbol
_atom_site_label
_atom_site_fract_x
_atom_site_fract_y
_atom_site_fract_z
Si Si1 0.111435 0.350956 0.860135
Si Si2 0.389261 0.506051 0.694827
Si Si3 0.222538 0.179486 0.551807
Si Si4 0.750000 0.254399 0.250000
Si Si5 0.691825 0.951577 0.406914
O O1 0.125509 0.425130 0.812735
O O2 0.174213 0.295094 0.803236
O O3 0.000000 0.333343 0.853173
O O4 0.144492 0.352054 0.976512
O O5 0.500000 0.520584 0.664012
O O6 0.370376 0.531018 0.808669
O O7 0.303753 0.536847 0.627165
O O8 0.250000 0.250000 0.500000
O O9 0.198825 0.198926 0.666417
O O10 0.310247 0.126171 0.558854
O O11 0.668886 0.000000 0.500000
#
# Coordination Sequence:
#
# PCOD9479253 Si02
#       5
#    16  16  16   8  16
#     4  10  21  38  62  93 124 164 205 251 310 363
#     4  10  22  38  61  93 122 153 204 256 300 360
#     4  10  22  39  60  89 122 159 203 249 301 363
#     4  10  20  38  62  86 130 166 204 252 306 366
#     4  11  21  38  65  87 116 162 199 246 307 355
#
# _framework density 19.767952999999999
#
# number of rings (size 3 to 8) (size 9 to 14) (size 15 to 20)
#    0.000    1.778    2.222    2.667    3.111    2.667 
#    0.000    8.889    0.000    0.000    0.000    0.000 
#    0.000    0.000    0.000    0.000    0.000    0.000 
#
# Total GULP energy -200865.983747 kJ/mol
# GULP energy per Si atom -5579.610660 kJ/mol
# Density = 1.972296 g / cm^3
# Si number density = 19.767953 Si / 1000 Ang^3
#
#
#
# Elastic Constant Matrix: (Units=GPa)
#
#
# Indices 1 2 3 4 5 6 
#
# 1 58.0955 10.0827 6.7094 0.0000 0.0000 0.0000
# 2 10.0827 97.8015 32.5922 0.0000 0.0000 0.0000
# 3 6.7094 32.5922 98.6647 0.0000 0.0000 0.0000
# 4 0.0000 0.0000 0.0000 39.0618 0.0000 0.0000
# 5 0.0000 0.0000 0.0000 0.0000 16.6469 0.0000
# 6 0.0000 0.0000 0.0000 0.0000 0.0000 4.2333
#
#
#
# Elastic Compliance Matrix: (Units=1/GPa)
#
#
# Indices 1 2 3 4 5 6 
#
# 1 0.017566 -0.001588 -0.000670 0.000000 0.000000 0.000000
# 2 -0.001588 0.011633 -0.003735 0.000000 0.000000 0.000000
# 3 -0.000670 -0.003735 0.011415 0.000000 0.000000 0.000000
# 4 0.000000 0.000000 0.000000 0.025600 0.000000 0.000000
# 5 0.000000 0.000000 0.000000 0.000000 0.060071 0.000000
# 6 0.000000 0.000000 0.000000 0.000000 0.000000 0.236225
#
#
# Mechanical properties :
#
#
# Convention : Reuss Voigt Hill
#
# Bulk Modulus (GPa) = 34.93008 39.25892 37.09450
# Shear Modulus (GPa) = 13.01954 25.66688 19.34321
#
# Velocity S-wave (km/s) = 2.56914 3.60725 3.13151
# Velocity P-wave (km/s) = 5.14869 6.10350 5.64632
#
# Compressibility (1/GPa) = 0.02862862
#
# Stress axis : x y z
#
# Youngs Moduli (GPa) = 56.92830 85.96162 87.60680
#
# Poissons Ratio (x) = 0.13648 0.05870
# Poissons Ratio (y) = 0.09038 0.32720
# Poissons Ratio (z) = 0.03815 0.32105
#
# Static dielectric constant tensor:
#      x y z
#    x 1.657320 0.000000 0.000000 
#    y 0.000000 1.748070 0.000000 
#    z 0.000000 0.000000 1.638280 
# 
# From -- ./inp_files/23524.got.cif
#   From: 2010.05.17/outbox.cif.g08.bks.cpg/sg64_12_cif.got.tgz:23524.got - 2010.06.03 16:29:19.
