data_PCOD9479622
_publ_section_title
;
Structure prediction by ZEFSAII (Michael W. Deem and Ramdas Pophale) SiO2 
 PCOD9479622
Probable space group: C M C A
;
_chemical_formula_sum "Si O2"
_cell_formula_units_Z 96
_cell_length_a 23.933657
_cell_length_b 23.083189
_cell_length_c 8.576272
_cell_angle_alpha 90.000000
_cell_angle_beta 90.000000
_cell_angle_gamma 90.000000
_cell_volume 4738.091208
_symmetry_space_group_name_H-M "C M C A"
_symmetry_group_IT_number 64
_symmetry_cell_setting 'orthorhombic'
loop_
_space_group_symop_operation_xyz
x,y,z
-x,1/2-y,1/2+z
x,-y,-z
-x,1/2+y,1/2-z
-x,-y,-z
x,1/2+y,1/2-z
-x,y,z
x,1/2-y,1/2+z
1/2+x,1/2+y,z
1/2-x,-y,1/2+z
1/2+x,1/2-y,-z
1/2-x,y,1/2-z
1/2-x,1/2-y,-z
1/2+x,y,1/2-z
1/2-x,1/2+y,z
1/2+x,-y,1/2+z
loop_
_atom_site_type_symbol
_atom_site_label
_atom_site_fract_x
_atom_site_fract_y
_atom_site_fract_z
Si Si1 0.308786 0.530548 0.671297
Si Si2 0.500000 0.066132 0.937424
Si Si3 0.565202 0.161525 0.484428
Si Si4 0.934505 0.723745 0.817388
Si Si5 0.617926 0.374731 0.485435
Si Si6 0.882009 0.569059 0.302015
Si Si7 0.000000 0.990829 0.819175
O O1 0.302988 0.500000 0.500000
O O2 0.250000 0.543816 0.750000
O O3 0.344748 0.587545 0.632629
O O4 0.341191 0.485678 0.785583
O O5 0.444231 0.098778 0.977755
O O6 0.500000 0.054551 0.754017
O O7 0.500000 0.000000 0.000000
O O8 0.500000 0.142919 0.475787
O O9 0.572966 0.207989 0.344030
O O10 0.572516 0.196664 0.645459
O O11 0.607199 0.108225 0.454538
O O12 0.891618 0.690232 0.929507
O O13 0.000000 0.713216 0.861416
O O14 0.636467 0.388673 0.660902
O O15 0.943646 0.542296 0.272728
O O16 0.000000 0.000000 0.000000
#
# Coordination Sequence:
#
# PCOD9479622 Si02
#       7
#    16   8  16  16  16  16   8
#     4  10  23  40  58  82 110 147 189 232 284 335
#     4  12  18  34  51  78 113 148 179 217 277 345
#     4  10  21  34  51  79 116 149 188 225 272 329
#     4  10  21  34  52  81 113 152 187 225 273 331
#     4  11  20  34  58  79 110 150 185 224 281 338
#     4  11  21  36  54  80 113 150 184 228 279 335
#     4  12  24  30  49  82 119 144 181 227 275 333
#
# _framework density 20.261323999999998
#
# number of rings (size 3 to 8) (size 9 to 14) (size 15 to 20)
#    0.000    1.333    5.000    1.500    2.333    3.333 
#    0.000    0.000    0.000    1.000    0.000    7.000 
#    0.000    0.000    0.000    0.000    0.000    0.000 
#
# Total GULP energy -267847.291987 kJ/mol
# GULP energy per Si atom -5580.151916 kJ/mol
# Density = 2.021521 g / cm^3
# Si number density = 20.261324 Si / 1000 Ang^3
#
#
#
# Elastic Constant Matrix: (Units=GPa)
#
#
# Indices 1 2 3 4 5 6 
#
# 1 82.0970 21.1670 3.1359 0.0000 0.0000 0.0000
# 2 21.1670 61.7893 4.7620 0.0000 0.0000 0.0000
# 3 3.1359 4.7620 47.4126 0.0000 0.0000 0.0000
# 4 0.0000 0.0000 0.0000 36.5771 0.0000 0.0000
# 5 0.0000 0.0000 0.0000 0.0000 7.8712 0.0000
# 6 0.0000 0.0000 0.0000 0.0000 0.0000 20.1935
#
#
#
# Elastic Compliance Matrix: (Units=1/GPa)
#
#
# Indices 1 2 3 4 5 6 
#
# 1 0.013369 -0.004547 -0.000428 0.000000 0.000000 0.000000
# 2 -0.004547 0.017857 -0.001493 0.000000 0.000000 0.000000
# 3 -0.000428 -0.001493 0.021270 0.000000 0.000000 0.000000
# 4 0.000000 0.000000 0.000000 0.027339 0.000000 0.000000
# 5 0.000000 0.000000 0.000000 0.000000 0.127046 0.000000
# 6 0.000000 0.000000 0.000000 0.000000 0.000000 0.049521
#
#
# Mechanical properties :
#
#
# Convention : Reuss Voigt Hill
#
# Bulk Modulus (GPa) = 25.27731 27.71431 26.49581
# Shear Modulus (GPa) = 17.69763 23.74397 20.72080
#
# Velocity S-wave (km/s) = 2.95866 3.42700 3.20140
# Velocity P-wave (km/s) = 4.91673 5.41915 5.17404
#
# Compressibility (1/GPa) = 0.03956118
#
# Stress axis : x y z
#
# Youngs Moduli (GPa) = 74.79778 56.00131 47.01536
#
# Poissons Ratio (x) = 0.25464 0.02010
# Poissons Ratio (y) = 0.34010 0.07018
# Poissons Ratio (z) = 0.03198 0.08360
#
# Static dielectric constant tensor:
#      x y z
#    x 1.682780 0.000000 0.000000 
#    y 0.000000 1.756890 0.000000 
#    z 0.000000 0.000000 1.857140 
# 
# From -- ./inp_files/9545.got.cif
#   From: 2010.05.17/outbox.cif.g08.bks.cpg/sg64_5_cif.got.tgz:9545.got - 2010.06.03 16:29:19.
