data_PCOD9479869
_publ_section_title
;
Structure prediction by ZEFSAII (Michael W. Deem and Ramdas Pophale) SiO2 
 PCOD9479869
Probable space group: C M C A
;
_chemical_formula_sum "Si O2"
_cell_formula_units_Z 96
_cell_length_a 13.600558
_cell_length_b 13.589988
_cell_length_c 21.727412
_cell_angle_alpha 90.000000
_cell_angle_beta 90.000000
_cell_angle_gamma 90.000000
_cell_volume 4015.908413
_symmetry_space_group_name_H-M "C M C A"
_symmetry_group_IT_number 64
_symmetry_cell_setting 'orthorhombic'
loop_
_space_group_symop_operation_xyz
x,y,z
-x,1/2-y,1/2+z
x,-y,-z
-x,1/2+y,1/2-z
-x,-y,-z
x,1/2+y,1/2-z
-x,y,z
x,1/2-y,1/2+z
1/2+x,1/2+y,z
1/2-x,-y,1/2+z
1/2+x,1/2-y,-z
1/2-x,y,1/2-z
1/2-x,1/2-y,-z
1/2+x,y,1/2-z
1/2-x,1/2+y,z
1/2+x,-y,1/2+z
loop_
_atom_site_type_symbol
_atom_site_label
_atom_site_fract_x
_atom_site_fract_y
_atom_site_fract_z
Si Si1 0.711235 0.442797 0.187913
Si Si2 0.119047 0.163008 0.410400
Si Si3 0.381645 0.735718 0.277882
Si Si4 0.611803 0.941273 0.098012
Si Si5 0.386826 0.260171 0.973337
Si Si6 0.882190 0.136990 0.149166
O O1 0.750000 0.492409 0.250000
O O2 0.654224 0.345814 0.208887
O O3 0.806070 0.416741 0.147815
O O4 0.644701 0.522888 0.154495
O O5 0.148420 0.175481 0.339205
O O6 0.137553 0.049285 0.427424
O O7 0.156035 0.246918 0.458037
O O8 0.000000 0.173481 0.412310
O O9 0.500000 0.734145 0.276672
O O10 0.349778 0.694593 0.211272
O O11 0.500000 0.947385 0.124191
O O12 0.610032 0.852412 0.050308
O O13 0.500000 0.295545 0.980441
O O14 0.344195 0.321918 0.916317
O O15 0.000000 0.149686 0.147796
#
# Coordination Sequence:
#
# PCOD9479869 Si02
#       6
#    16  16  16  16  16  16
#     4  12  25  38  59  88 120 156 198 244 294 352
#     4   9  18  36  62  88 117 155 196 241 293 347
#     4  10  22  41  64  89 118 153 194 243 300 358
#     4  10  21  37  58  86 120 157 198 243 289 340
#     4   9  18  36  62  88 117 155 196 241 293 347
#     4  10  22  41  64  89 118 153 194 243 300 358
#
# _framework density 23.904928000000002
#
# number of rings (size 3 to 8) (size 9 to 14) (size 15 to 20)
#    0.000    2.000    0.000    3.000    0.000   10.667 
#    0.000    5.833    0.000    5.000    0.000    0.000 
#    0.000    0.000    0.000    0.000    0.000    0.000 
#
# Total GULP energy -268403.663301 kJ/mol
# GULP energy per Si atom -5591.742985 kJ/mol
# Density = 2.385052 g / cm^3
# Si number density = 23.904928 Si / 1000 Ang^3
#
#
#
# Elastic Constant Matrix: (Units=GPa)
#
#
# Indices 1 2 3 4 5 6 
#
# 1 52.6619 -2.2619 35.4929 0.0000 0.0000 0.0000
# 2 -2.2619 73.7007 -16.6045 0.0000 0.0000 0.0000
# 3 35.4929 -16.6045 59.8192 0.0000 0.0000 0.0000
# 4 0.0000 0.0000 0.0000 20.0857 0.0000 0.0000
# 5 0.0000 0.0000 0.0000 0.0000 33.3541 0.0000
# 6 0.0000 0.0000 0.0000 0.0000 0.0000 22.7460
#
#
#
# Elastic Compliance Matrix: (Units=1/GPa)
#
#
# Indices 1 2 3 4 5 6 
#
# 1 0.032500 -0.003570 -0.020275 0.000000 0.000000 0.000000
# 2 -0.003570 0.014866 0.006245 0.000000 0.000000 0.000000
# 3 -0.020275 0.006245 0.030480 0.000000 0.000000 0.000000
# 4 0.000000 0.000000 0.000000 0.049787 0.000000 0.000000
# 5 0.000000 0.000000 0.000000 0.000000 0.029981 0.000000
# 6 0.000000 0.000000 0.000000 0.000000 0.000000 0.043964
#
#
# Mechanical properties :
#
#
# Convention : Reuss Voigt Hill
#
# Bulk Modulus (GPa) = 23.44895 24.38165 23.91530
# Shear Modulus (GPa) = 19.92080 26.54085 23.23082
#
# Velocity S-wave (km/s) = 2.88989 3.33568 3.12075
# Velocity P-wave (km/s) = 4.57884 5.00572 4.79703
#
# Compressibility (1/GPa) = 0.04264584
#
# Stress axis : x y z
#
# Youngs Moduli (GPa) = 30.76885 67.26871 32.80815
#
# Poissons Ratio (x) = 0.24017 0.66518
# Poissons Ratio (y) = 0.10986 -0.20488
# Poissons Ratio (z) = 0.62383 -0.42008
#
# Static dielectric constant tensor:
#      x y z
#    x 1.949680 0.000000 0.000000 
#    y 0.000000 1.856710 0.000000 
#    z 0.000000 0.000000 1.967390 
# 
# From -- ./inp_files/39245.got.cif
#   From: 2010.05.17/outbox.cif.g08.bks.cpg/sg64_20_cif.got.tgz:39245.got - 2010.06.03 16:29:19.
