data_PCOD9479287
_publ_section_title
;
Structure prediction by ZEFSAII (Michael W. Deem and Ramdas Pophale) SiO2 
 PCOD9479287
Probable space group: C M C A
;
_chemical_formula_sum "Si O2"
_cell_formula_units_Z 88
_cell_length_a 14.426970
_cell_length_b 15.181290
_cell_length_c 21.904725
_cell_angle_alpha 90.000000
_cell_angle_beta 90.000000
_cell_angle_gamma 90.000000
_cell_volume 4797.573207
_symmetry_space_group_name_H-M "C M C A"
_symmetry_group_IT_number 64
_symmetry_cell_setting 'orthorhombic'
loop_
_space_group_symop_operation_xyz
x,y,z
-x,1/2-y,1/2+z
x,-y,-z
-x,1/2+y,1/2-z
-x,-y,-z
x,1/2+y,1/2-z
-x,y,z
x,1/2-y,1/2+z
1/2+x,1/2+y,z
1/2-x,-y,1/2+z
1/2+x,1/2-y,-z
1/2-x,y,1/2-z
1/2-x,1/2-y,-z
1/2+x,y,1/2-z
1/2-x,1/2+y,z
1/2+x,-y,1/2+z
loop_
_atom_site_type_symbol
_atom_site_label
_atom_site_fract_x
_atom_site_fract_y
_atom_site_fract_z
Si Si1 0.860201 0.830959 0.381200
Si Si2 0.500000 0.012057 0.572269
Si Si3 0.000000 0.176942 0.140833
Si Si4 0.359758 0.650153 0.873077
Si Si5 0.141331 0.565750 0.756335
Si Si6 0.500000 0.099590 0.979284
Si Si7 0.500000 0.303751 0.607809
Si Si8 0.500000 0.589883 0.267337
O O1 0.909635 0.735334 0.376740
O O2 0.749058 0.836668 0.385983
O O3 0.881506 0.882164 0.318119
O O4 0.911427 0.877999 0.437312
O O5 0.589638 0.070633 0.591042
O O6 0.500000 0.000000 0.500000
O O7 0.500000 0.918114 0.607352
O O8 0.000000 0.161268 0.213533
O O9 0.379055 0.625444 0.802487
O O10 0.411701 0.740227 0.887245
O O11 0.250000 0.547105 0.750000
O O12 0.086589 0.474820 0.756884
O O13 0.500000 0.153922 0.041505
O O14 0.500000 0.000000 0.000000
O O15 0.500000 0.370187 0.664988
#
# Coordination Sequence:
#
# PCOD9479287 Si02
#       8
#    16   8   8  16  16   8   8   8
#     4  10  23  40  66  88 125 162 202 257 309 360
#     4  11  24  42  64  91 128 159 208 255 306 372
#     4  11  22  39  64  96 121 157 211 257 303 369
#     4  10  22  44  62  90 122 166 201 253 311 366
#     4  10  20  38  63  91 122 156 203 253 308 365
#     4  11  24  43  57  90 124 161 208 249 301 372
#     4  11  24  37  62  85 127 162 208 248 297 374
#     4  12  20  37  61  95 122 163 198 257 311 349
#
# _framework density 18.342607000000001
#
# number of rings (size 3 to 8) (size 9 to 14) (size 15 to 20)
#    0.000    1.455    1.818    3.818    5.091    2.909 
#    3.273    0.000    0.000    0.000    0.000    0.000 
#    0.000    0.000    0.000    0.000    0.000    0.000 
#
# Total GULP energy -245683.336741 kJ/mol
# GULP energy per Si atom -5583.712199 kJ/mol
# Density = 1.830086 g / cm^3
# Si number density = 18.342607 Si / 1000 Ang^3
#
#
#
# Elastic Constant Matrix: (Units=GPa)
#
#
# Indices 1 2 3 4 5 6 
#
# 1 142.5810 74.2809 72.4819 0.0000 0.0000 0.0000
# 2 74.2809 124.8442 73.0426 0.0000 0.0000 0.0000
# 3 72.4819 73.0426 180.3197 0.0000 0.0000 0.0000
# 4 0.0000 0.0000 0.0000 30.5190 0.0000 0.0000
# 5 0.0000 0.0000 0.0000 0.0000 7.3853 0.0000
# 6 0.0000 0.0000 0.0000 0.0000 0.0000 8.6849
#
#
#
# Elastic Compliance Matrix: (Units=1/GPa)
#
#
# Indices 1 2 3 4 5 6 
#
# 1 0.010839 -0.005111 -0.002286 0.000000 0.000000 0.000000
# 2 -0.005111 0.012908 -0.003174 0.000000 0.000000 0.000000
# 3 -0.002286 -0.003174 0.007751 0.000000 0.000000 0.000000
# 4 0.000000 0.000000 0.000000 0.032766 0.000000 0.000000
# 5 0.000000 0.000000 0.000000 0.000000 0.135404 0.000000
# 6 0.000000 0.000000 0.000000 0.000000 0.000000 0.115143
#
#
# Mechanical properties :
#
#
# Convention : Reuss Voigt Hill
#
# Bulk Modulus (GPa) = 96.58258 98.59509 97.58884
# Shear Modulus (GPa) = 14.73162 24.51380 19.62271
#
# Velocity S-wave (km/s) = 2.83704 3.65970 3.27431
# Velocity P-wave (km/s) = 7.96874 8.46915 8.22275
#
# Compressibility (1/GPa) = 0.01035383
#
# Stress axis : x y z
#
# Youngs Moduli (GPa) = 92.26259 77.46977 129.02341
#
# Poissons Ratio (x) = 0.39596 0.29499
# Poissons Ratio (y) = 0.47157 0.40955
# Poissons Ratio (z) = 0.21094 0.24591
#
# Static dielectric constant tensor:
#      x y z
#    x 1.633900 0.000000 0.000000 
#    y 0.000000 1.647180 0.000000 
#    z 0.000000 0.000000 1.631420 
# 
# From -- ./inp_files/39138.got.cif
#   From: 2010.05.17/outbox.cif.g08.bks.cpg/sg64_20_cif.got.tgz:39138.got - 2010.06.03 16:29:19.
