data_PCOD9479080
_publ_section_title
;
Structure prediction by ZEFSAII (Michael W. Deem and Ramdas Pophale) SiO2 
 PCOD9479080
Probable space group: C M C A
;
_chemical_formula_sum "Si O2"
_cell_formula_units_Z 80
_cell_length_a 9.164914
_cell_length_b 14.235010
_cell_length_c 30.035363
_cell_angle_alpha 90.000000
_cell_angle_beta 90.000000
_cell_angle_gamma 90.000000
_cell_volume 3918.492824
_symmetry_space_group_name_H-M "C M C A"
_symmetry_group_IT_number 64
_symmetry_cell_setting 'orthorhombic'
loop_
_space_group_symop_operation_xyz
x,y,z
-x,1/2-y,1/2+z
x,-y,-z
-x,1/2+y,1/2-z
-x,-y,-z
x,1/2+y,1/2-z
-x,y,z
x,1/2-y,1/2+z
1/2+x,1/2+y,z
1/2-x,-y,1/2+z
1/2+x,1/2-y,-z
1/2-x,y,1/2-z
1/2-x,1/2-y,-z
1/2+x,y,1/2-z
1/2-x,1/2+y,z
1/2+x,-y,1/2+z
loop_
_atom_site_type_symbol
_atom_site_label
_atom_site_fract_x
_atom_site_fract_y
_atom_site_fract_z
Si Si1 0.167179 0.880158 0.034739
Si Si2 0.827870 0.687894 0.357035
Si Si3 0.674780 0.950286 0.796441
Si Si4 0.332203 0.845788 0.947013
Si Si5 0.828707 0.591858 0.876099
O O1 0.167242 0.766741 0.043045
O O2 0.240224 0.923293 0.078563
O O3 0.000000 0.909399 0.030107
O O4 0.256524 0.893391 0.989356
O O5 0.742058 0.646181 0.315245
O O6 0.758085 0.644052 0.401727
O O7 0.809407 0.799785 0.361561
O O8 0.000000 0.667012 0.354280
O O9 0.500000 0.945012 0.791890
O O10 0.750000 0.974697 0.750000
O O11 0.710779 0.025865 0.834887
O O12 0.500000 0.875412 0.941463
O O13 0.000000 0.578579 0.885889
#
# Coordination Sequence:
#
# PCOD9479080 Si02
#       5
#    16  16  16  16  16
#     4   9  16  27  49  81 114 149 188 228 271 323
#     4  10  20  37  60  86 115 148 187 231 278 330
#     4  11  24  42  61  83 111 144 184 232 285 337
#     4   9  16  28  49  79 115 153 188 224 271 327
#     4   9  20  38  59  83 114 150 186 227 278 334
#
# _framework density 20.416011999999998
#
# number of rings (size 3 to 8) (size 9 to 14) (size 15 to 20)
#    0.000    2.400    0.000    2.400    0.000    8.000 
#    0.000    3.000    0.000    6.000    0.000    0.000 
#    0.000    0.000    0.000    0.000    0.000    0.000 
#
# Total GULP energy -223666.875640 kJ/mol
# GULP energy per Si atom -5591.671891 kJ/mol
# Density = 2.036954 g / cm^3
# Si number density = 20.416012 Si / 1000 Ang^3
#
#
#
# Elastic Constant Matrix: (Units=GPa)
#
#
# Indices 1 2 3 4 5 6 
#
# 1 101.5925 31.6681 67.3350 0.0000 0.0000 0.0000
# 2 31.6681 68.1395 46.3535 0.0000 0.0000 0.0000
# 3 67.3350 46.3535 132.4505 0.0000 0.0000 0.0000
# 4 0.0000 0.0000 0.0000 31.3313 0.0000 0.0000
# 5 0.0000 0.0000 0.0000 0.0000 44.0186 0.0000
# 6 0.0000 0.0000 0.0000 0.0000 0.0000 8.3449
#
#
#
# Elastic Compliance Matrix: (Units=1/GPa)
#
#
# Indices 1 2 3 4 5 6 
#
# 1 0.015129 -0.002361 -0.006865 0.000000 0.000000 0.000000
# 2 -0.002361 0.019630 -0.005669 0.000000 0.000000 0.000000
# 3 -0.006865 -0.005669 0.013024 0.000000 0.000000 0.000000
# 4 0.000000 0.000000 0.000000 0.031917 0.000000 0.000000
# 5 0.000000 0.000000 0.000000 0.000000 0.022718 0.000000
# 6 0.000000 0.000000 0.000000 0.000000 0.000000 0.119833
#
#
# Mechanical properties :
#
#
# Convention : Reuss Voigt Hill
#
# Bulk Modulus (GPa) = 55.58053 65.87728 60.72890
# Shear Modulus (GPa) = 19.37681 27.19403 23.28542
#
# Velocity S-wave (km/s) = 3.08409 3.65361 3.38086
# Velocity P-wave (km/s) = 6.32180 7.08068 6.71197
#
# Compressibility (1/GPa) = 0.01799191
#
# Stress axis : x y z
#
# Youngs Moduli (GPa) = 66.09618 50.94254 76.78023
#
# Poissons Ratio (x) = 0.12029 0.52710
# Poissons Ratio (y) = 0.15607 0.43530
# Poissons Ratio (z) = 0.45376 0.28881
#
# Static dielectric constant tensor:
#      x y z
#    x 1.682830 0.000000 0.000000 
#    y 0.000000 1.786020 0.000000 
#    z 0.000000 0.000000 1.678920 
# 
# From -- ./inp_files/47799.got.cif
#   From: 2010.05.17/outbox.cif.g08.bks.cpg/sg64_24_cif.got.tgz:47799.got - 2010.06.03 16:29:19.
