data_PCOD9479685
_publ_section_title
;
Structure prediction by ZEFSAII (Michael W. Deem and Ramdas Pophale) SiO2 
 PCOD9479685
Probable space group: C M C A
;
_chemical_formula_sum "Si O2"
_cell_formula_units_Z 80
_cell_length_a 24.052317
_cell_length_b 5.033934
_cell_length_c 24.220271
_cell_angle_alpha 90.000000
_cell_angle_beta 90.000000
_cell_angle_gamma 90.000000
_cell_volume 2932.536555
_symmetry_space_group_name_H-M "C M C A"
_symmetry_group_IT_number 64
_symmetry_cell_setting 'orthorhombic'
loop_
_space_group_symop_operation_xyz
x,y,z
-x,1/2-y,1/2+z
x,-y,-z
-x,1/2+y,1/2-z
-x,-y,-z
x,1/2+y,1/2-z
-x,y,z
x,1/2-y,1/2+z
1/2+x,1/2+y,z
1/2-x,-y,1/2+z
1/2+x,1/2-y,-z
1/2-x,y,1/2-z
1/2-x,1/2-y,-z
1/2+x,y,1/2-z
1/2-x,1/2+y,z
1/2+x,-y,1/2+z
loop_
_atom_site_type_symbol
_atom_site_label
_atom_site_fract_x
_atom_site_fract_y
_atom_site_fract_z
Si Si1 0.718183 0.765005 0.330938
Si Si2 0.061354 0.989819 0.712392
Si Si3 0.873602 0.633470 0.360575
Si Si4 0.178370 0.484062 0.939566
Si Si5 0.438110 0.679683 0.944936
O O1 0.733910 0.469832 0.311392
O O2 0.711546 0.698907 0.396577
O O3 0.662337 0.935569 0.322515
O O4 0.064311 0.195960 0.763548
O O5 0.106522 0.103748 0.670876
O O6 0.000000 0.022631 0.687286
O O7 0.833814 0.737313 0.409623
O O8 0.925513 0.493443 0.390145
O O9 0.115696 0.366442 0.946688
O O10 0.203556 0.500000 0.000000
O O11 0.500000 0.801698 0.942196
O O12 0.436717 0.500000 0.000000
#
# Coordination Sequence:
#
# PCOD9479685 Si02
#       5
#    16  16  16  16  16
#     4  11  24  43  65  96 128 172 221 274 328 383
#     4  10  24  44  69 101 131 165 216 268 324 393
#     4  11  23  42  67  91 131 174 215 275 328 389
#     4  11  23  39  60  93 134 180 225 267 318 395
#     4  10  21  35  56  92 135 176 215 259 317 392
#
# _framework density 27.280138999999998
#
# number of rings (size 3 to 8) (size 9 to 14) (size 15 to 20)
#    0.000    1.400    4.000    0.600    5.600    2.800 
#    0.000    0.000    0.000    3.600    0.000    0.000 
#    0.000    0.000    0.000    0.000    0.000    0.000 
#
# Total GULP energy -223929.388842 kJ/mol
# GULP energy per Si atom -5598.234721 kJ/mol
# Density = 2.721805 g / cm^3
# Si number density = 27.280139 Si / 1000 Ang^3
#
#
#
# Elastic Constant Matrix: (Units=GPa)
#
#
# Indices 1 2 3 4 5 6 
#
# 1 128.4393 22.2671 17.6937 0.0000 0.0000 0.0000
# 2 22.2671 106.3156 -1.6180 0.0000 0.0000 0.0000
# 3 17.6937 -1.6180 83.3276 0.0000 0.0000 0.0000
# 4 0.0000 0.0000 0.0000 38.5671 0.0000 0.0000
# 5 0.0000 0.0000 0.0000 0.0000 28.6871 0.0000
# 6 0.0000 0.0000 0.0000 0.0000 0.0000 36.8842
#
#
#
# Elastic Compliance Matrix: (Units=1/GPa)
#
#
# Indices 1 2 3 4 5 6 
#
# 1 0.008342 -0.001775 -0.001806 0.000000 0.000000 0.000000
# 2 -0.001775 0.009786 0.000567 0.000000 0.000000 0.000000
# 3 -0.001806 0.000567 0.012395 0.000000 0.000000 0.000000
# 4 0.000000 0.000000 0.000000 0.025929 0.000000 0.000000
# 5 0.000000 0.000000 0.000000 0.000000 0.034859 0.000000
# 6 0.000000 0.000000 0.000000 0.000000 0.000000 0.027112
#
#
# Mechanical properties :
#
#
# Convention : Reuss Voigt Hill
#
# Bulk Modulus (GPa) = 40.82230 43.86314 42.34272
# Shear Modulus (GPa) = 37.70277 39.47698 38.58987
#
# Velocity S-wave (km/s) = 3.72164 3.80820 3.76517
# Velocity P-wave (km/s) = 5.78481 5.95401 5.87002
#
# Compressibility (1/GPa) = 0.02449642
#
# Stress axis : x y z
#
# Youngs Moduli (GPa) = 119.87209 102.18378 80.67588
#
# Poissons Ratio (x) = 0.18135 0.14569
# Poissons Ratio (y) = 0.21274 -0.04573
# Poissons Ratio (z) = 0.21647 -0.05792
#
# Static dielectric constant tensor:
#      x y z
#    x 2.159980 0.000000 0.000000 
#    y 0.000000 2.137110 0.000000 
#    z 0.000000 0.000000 2.163020 
# 
# From -- ./inp_files/53852.got.cif
#   From: 2010.05.17/outbox.cif.g08.bks.cpg/sg64_27_cif.got.tgz:53852.got - 2010.06.03 16:29:19.
