data_PCOD9479888
_publ_section_title
;
Structure prediction by ZEFSAII (Michael W. Deem and Ramdas Pophale) SiO2 
 PCOD9479888
Probable space group: C M C A
;
_chemical_formula_sum "Si O2"
_cell_formula_units_Z 88
_cell_length_a 17.158132
_cell_length_b 12.210995
_cell_length_c 20.015139
_cell_angle_alpha 90.000000
_cell_angle_beta 90.000000
_cell_angle_gamma 90.000000
_cell_volume 4193.529172
_symmetry_space_group_name_H-M "C M C A"
_symmetry_group_IT_number 64
_symmetry_cell_setting 'orthorhombic'
loop_
_space_group_symop_operation_xyz
x,y,z
-x,1/2-y,1/2+z
x,-y,-z
-x,1/2+y,1/2-z
-x,-y,-z
x,1/2+y,1/2-z
-x,y,z
x,1/2-y,1/2+z
1/2+x,1/2+y,z
1/2-x,-y,1/2+z
1/2+x,1/2-y,-z
1/2-x,y,1/2-z
1/2-x,1/2-y,-z
1/2+x,y,1/2-z
1/2-x,1/2+y,z
1/2+x,-y,1/2+z
loop_
_atom_site_type_symbol
_atom_site_label
_atom_site_fract_x
_atom_site_fract_y
_atom_site_fract_z
Si Si1 0.303325 0.000000 0.500000
Si Si2 0.339809 0.572628 0.583655
Si Si3 0.092822 0.662100 0.044937
Si Si4 0.905857 0.292630 0.197569
Si Si5 0.906192 0.334976 0.348117
Si Si6 0.408466 0.082123 0.392419
O O1 0.246276 0.053620 0.554918
O O2 0.357567 0.083568 0.459525
O O3 0.381617 0.455133 0.575209
O O4 0.377979 0.656974 0.530908
O O5 0.356263 0.619072 0.656244
O O6 0.124251 0.757653 0.092587
O O7 0.000000 0.667876 0.042765
O O8 0.881933 0.295300 0.274839
O O9 0.892800 0.176848 0.160977
O O10 0.000000 0.316205 0.193118
O O11 0.892254 0.462972 0.360294
O O12 0.000000 0.322580 0.349391
O O13 0.500000 0.087397 0.410382
#
# Coordination Sequence:
#
# PCOD9479888 Si02
#       6
#     8  16  16  16  16  16
#     4  10  23  42  61  86 126 160 204 246 305 364
#     4  10  21  37  59  87 121 160 201 250 299 355
#     4   9  17  33  58  88 117 155 202 248 295 349
#     4  10  21  37  63  93 120 158 201 252 306 362
#     4   9  20  36  60  90 122 156 199 256 307 356
#     4  10  22  40  63  90 118 155 204 255 307 362
#
# _framework density 20.984711000000001
#
# number of rings (size 3 to 8) (size 9 to 14) (size 15 to 20)
#    0.000    2.545    0.000    2.455    5.091    0.727 
#    3.273    0.909    0.000    0.000    0.000    0.000 
#    0.000    0.000    0.000    0.000    0.000    0.000 
#
# Total GULP energy -245731.294429 kJ/mol
# GULP energy per Si atom -5584.802146 kJ/mol
# Density = 2.093695 g / cm^3
# Si number density = 20.984711 Si / 1000 Ang^3
#
#
#
# Elastic Constant Matrix: (Units=GPa)
#
#
# Indices 1 2 3 4 5 6 
#
# 1 59.3285 3.8165 17.6330 0.0000 0.0000 0.0000
# 2 3.8165 48.6929 10.0687 0.0000 0.0000 0.0000
# 3 17.6330 10.0687 83.4231 0.0000 0.0000 0.0000
# 4 0.0000 0.0000 0.0000 19.2385 0.0000 0.0000
# 5 0.0000 0.0000 0.0000 0.0000 28.1366 0.0000
# 6 0.0000 0.0000 0.0000 0.0000 0.0000 14.0742
#
#
#
# Elastic Compliance Matrix: (Units=1/GPa)
#
#
# Indices 1 2 3 4 5 6 
#
# 1 0.018005 -0.000640 -0.003728 0.000000 0.000000 0.000000
# 2 -0.000640 0.021085 -0.002410 0.000000 0.000000 0.000000
# 3 -0.003728 -0.002410 0.013066 0.000000 0.000000 0.000000
# 4 0.000000 0.000000 0.000000 0.051979 0.000000 0.000000
# 5 0.000000 0.000000 0.000000 0.000000 0.035541 0.000000
# 6 0.000000 0.000000 0.000000 0.000000 0.000000 0.071052
#
#
# Mechanical properties :
#
#
# Convention : Reuss Voigt Hill
#
# Bulk Modulus (GPa) = 25.90701 28.27566 27.09134
# Shear Modulus (GPa) = 21.08367 22.95162 22.01764
#
# Velocity S-wave (km/s) = 3.17316 3.31075 3.24269
# Velocity P-wave (km/s) = 5.07915 5.30268 5.19212
#
# Compressibility (1/GPa) = 0.03859959
#
# Stress axis : x y z
#
# Youngs Moduli (GPa) = 55.54140 47.42639 76.53480
#
# Poissons Ratio (x) = 0.03037 0.28535
# Poissons Ratio (y) = 0.03556 0.18441
# Poissons Ratio (z) = 0.20708 0.11428
#
# Static dielectric constant tensor:
#      x y z
#    x 1.762410 0.000000 0.000000 
#    y 0.000000 1.760800 0.000000 
#    z 0.000000 0.000000 1.738330 
# 
# From -- ./inp_files/40037.got.cif
#   From: 2010.05.17/outbox.cif.g08.bks.cpg/sg64_21_cif.got.tgz:40037.got - 2010.06.03 16:29:19.
