data_PCOD9479850
_publ_section_title
;
Structure prediction by ZEFSAII (Michael W. Deem and Ramdas Pophale) SiO2 
 PCOD9479850
Probable space group: C M C A
;
_chemical_formula_sum "Si O2"
_cell_formula_units_Z 116
_cell_length_a 8.039688
_cell_length_b 25.105631
_cell_length_c 29.192801
_cell_angle_alpha 90.000000
_cell_angle_beta 90.000000
_cell_angle_gamma 90.000000
_cell_volume 5892.317000
_symmetry_space_group_name_H-M "C M C A"
_symmetry_group_IT_number 64
_symmetry_cell_setting 'orthorhombic'
loop_
_space_group_symop_operation_xyz
x,y,z
-x,1/2-y,1/2+z
x,-y,-z
-x,1/2+y,1/2-z
-x,-y,-z
x,1/2+y,1/2-z
-x,y,z
x,1/2-y,1/2+z
1/2+x,1/2+y,z
1/2-x,-y,1/2+z
1/2+x,1/2-y,-z
1/2-x,y,1/2-z
1/2-x,1/2-y,-z
1/2+x,y,1/2-z
1/2-x,1/2+y,z
1/2+x,-y,1/2+z
loop_
_atom_site_type_symbol
_atom_site_label
_atom_site_fract_x
_atom_site_fract_y
_atom_site_fract_z
Si Si1 0.500000 0.000000 0.500000
Si Si2 0.190133 0.939491 0.697345
Si Si3 0.685065 0.036285 0.947981
Si Si4 0.313264 0.055520 0.702397
Si Si5 0.190347 0.069953 0.096936
Si Si6 0.804311 0.168491 0.463731
Si Si7 0.702129 0.785240 0.060275
Si Si8 0.808435 0.127861 0.627550
O O1 0.652593 0.961729 0.479889
O O2 0.250000 0.928136 0.750000
O O3 0.283156 0.919256 0.651239
O O4 0.000000 0.922133 0.693938
O O5 0.203488 0.003653 0.691947
O O6 0.500000 0.040767 0.969311
O O7 0.692971 0.084417 0.912702
O O8 0.701009 0.980126 0.920400
O O9 0.500000 0.034301 0.706048
O O10 0.250000 0.077506 0.750000
O O11 0.301208 0.101700 0.666125
O O12 0.223019 0.121804 0.066091
O O13 0.000000 0.051719 0.088130
O O14 0.775071 0.226359 0.441235
O O15 0.744091 0.180288 0.515696
O O16 0.000000 0.156387 0.465848
O O17 0.500000 0.781827 0.057734
O O18 0.746895 0.816982 0.105784
O O19 0.000000 0.132478 0.643687
#
# Coordination Sequence:
#
# PCOD9479850 Si02
#       8
#     4  16  16  16  16  16  16  16
#     4  12  26  40  52  82 120 164 202 232 300 356
#     4  11  21  36  57  84 116 153 191 238 295 353
#     4  11  24  40  56  83 120 159 199 242 290 354
#     4  11  21  34  55  82 115 150 190 234 287 350
#     4  12  23  38  58  85 118 156 199 244 292 352
#     4  10  21  38  59  85 112 151 198 245 294 344
#     4   9  20  39  59  82 111 150 195 242 293 348
#     4  10  21  37  58  82 116 153 192 240 293 346
#
# _framework density 19.686654000000001
#
# number of rings (size 3 to 8) (size 9 to 14) (size 15 to 20)
#    0.000    1.379    2.069    5.172    2.897    1.103 
#    0.000    0.000    0.000    0.828    0.000    1.931 
#    0.000    0.000    0.000    0.000    0.000    0.000 
#
# Total GULP energy -323317.411159 kJ/mol
# GULP energy per Si atom -5574.438123 kJ/mol
# Density = 1.964185 g / cm^3
# Si number density = 19.686654 Si / 1000 Ang^3
#
#
#
# Elastic Constant Matrix: (Units=GPa)
#
#
# Indices 1 2 3 4 5 6 
#
# 1 95.1394 3.7585 8.3427 0.0000 0.0000 0.0000
# 2 3.7585 67.2631 25.5856 0.0000 0.0000 0.0000
# 3 8.3427 25.5856 49.3303 0.0000 0.0000 0.0000
# 4 0.0000 0.0000 0.0000 14.5218 0.0000 0.0000
# 5 0.0000 0.0000 0.0000 0.0000 25.8010 0.0000
# 6 0.0000 0.0000 0.0000 0.0000 0.0000 36.8840
#
#
#
# Elastic Compliance Matrix: (Units=1/GPa)
#
#
# Indices 1 2 3 4 5 6 
#
# 1 0.010670 0.000112 -0.001863 0.000000 0.000000 0.000000
# 2 0.000112 0.018522 -0.009626 0.000000 0.000000 0.000000
# 3 -0.001863 -0.009626 0.025579 0.000000 0.000000 0.000000
# 4 0.000000 0.000000 0.000000 0.068862 0.000000 0.000000
# 5 0.000000 0.000000 0.000000 0.000000 0.038758 0.000000
# 6 0.000000 0.000000 0.000000 0.000000 0.000000 0.027112
#
#
# Mechanical properties :
#
#
# Convention : Reuss Voigt Hill
#
# Bulk Modulus (GPa) = 31.23167 31.90072 31.56620
# Shear Modulus (GPa) = 22.42873 27.04441 24.73657
#
# Velocity S-wave (km/s) = 3.37899 3.71043 3.54858
# Velocity P-wave (km/s) = 5.57874 5.88182 5.73228
#
# Compressibility (1/GPa) = 0.03201878
#
# Stress axis : x y z
#
# Youngs Moduli (GPa) = 93.72254 53.98940 39.09458
#
# Poissons Ratio (x) = -0.00607 0.07282
# Poissons Ratio (y) = -0.01053 0.37631
# Poissons Ratio (z) = 0.17458 0.51969
#
# Static dielectric constant tensor:
#      x y z
#    x 1.901110 0.000000 0.000000 
#    y 0.000000 1.667660 0.000000 
#    z 0.000000 0.000000 1.800900 
# 
# From -- ./inp_files/52383.got.cif
#   From: 2010.05.17/outbox.cif.g08.bks.cpg/sg64_27_cif.got.tgz:52383.got - 2010.06.03 16:29:19.
