data_PCOD9479854
_publ_section_title
;
Structure prediction by ZEFSAII (Michael W. Deem and Ramdas Pophale) SiO2 
 PCOD9479854
Probable space group: C M C A
;
_chemical_formula_sum "Si O2"
_cell_formula_units_Z 116
_cell_length_a 9.307708
_cell_length_b 26.621537
_cell_length_c 26.039428
_cell_angle_alpha 90.000000
_cell_angle_beta 90.000000
_cell_angle_gamma 90.000000
_cell_volume 6452.192502
_symmetry_space_group_name_H-M "C M C A"
_symmetry_group_IT_number 64
_symmetry_cell_setting 'orthorhombic'
loop_
_space_group_symop_operation_xyz
x,y,z
-x,1/2-y,1/2+z
x,-y,-z
-x,1/2+y,1/2-z
-x,-y,-z
x,1/2+y,1/2-z
-x,y,z
x,1/2-y,1/2+z
1/2+x,1/2+y,z
1/2-x,-y,1/2+z
1/2+x,1/2-y,-z
1/2-x,y,1/2-z
1/2-x,1/2-y,-z
1/2+x,y,1/2-z
1/2-x,1/2+y,z
1/2+x,-y,1/2+z
loop_
_atom_site_type_symbol
_atom_site_label
_atom_site_fract_x
_atom_site_fract_y
_atom_site_fract_z
Si Si1 0.330283 0.631412 0.454797
Si Si2 0.671754 0.485745 0.198982
Si Si3 0.659020 0.456747 0.904358
Si Si4 0.000000 0.500000 0.500000
Si Si5 0.331862 0.371594 0.172344
Si Si6 0.828237 0.229154 0.698958
Si Si7 0.670936 0.237602 0.097922
Si Si8 0.834625 0.846429 0.054431
O O1 0.500000 0.626003 0.456694
O O2 0.261245 0.588084 0.420692
O O3 0.297268 0.686433 0.431602
O O4 0.264544 0.630000 0.511598
O O5 0.500000 0.490203 0.204971
O O6 0.750000 0.504920 0.250000
O O7 0.710262 0.512970 0.145524
O O8 0.703485 0.426533 0.192505
O O9 0.500000 0.435234 0.891186
O O10 0.623269 0.490657 0.954553
O O11 0.500000 0.359285 0.184685
O O12 0.227186 0.328313 0.192269
O O13 0.321771 0.371054 0.110437
O O14 0.750000 0.248887 0.750000
O O15 0.765966 0.256766 0.648771
O O16 0.000000 0.231623 0.702212
O O17 0.500000 0.239080 0.111196
O O18 0.696353 0.287348 0.063540
O O19 0.000000 0.852464 0.037376
#
# Coordination Sequence:
#
# PCOD9479854 Si02
#       8
#    16  16  16   4  16  16  16  16
#     4  11  22  35  55  84 115 142 181 235 288 336
#     4  10  21  37  58  83 112 148 190 234 287 347
#     4   9  21  38  63  82 106 150 196 236 281 339
#     4   8  20  40  70  80 108 144 210 242 268 344
#     4   9  19  34  56  82 111 146 188 227 279 337
#     4  11  21  34  54  79 110 143 185 229 277 332
#     4   9  20  38  54  76 111 148 184 223 273 332
#     4   9  18  32  56  81 111 152 185 220 269 338
#
# _framework density 17.978384999999999
#
# number of rings (size 3 to 8) (size 9 to 14) (size 15 to 20)
#    0.414    1.931    0.000    3.310    1.931    5.517 
#    0.000    1.034    0.000    1.655    0.000    0.000 
#    0.000    0.000    0.000    0.000    0.000    0.000 
#
# Total GULP energy -322951.667410 kJ/mol
# GULP energy per Si atom -5568.132197 kJ/mol
# Density = 1.793747 g / cm^3
# Si number density = 17.978385 Si / 1000 Ang^3
#
#
#
# Elastic Constant Matrix: (Units=GPa)
#
#
# Indices 1 2 3 4 5 6 
#
# 1 46.8974 20.4986 38.5519 0.0000 0.0000 0.0000
# 2 20.4986 37.3304 36.8382 0.0000 0.0000 0.0000
# 3 38.5519 36.8382 103.2243 0.0000 0.0000 0.0000
# 4 0.0000 0.0000 0.0000 7.6887 0.0000 0.0000
# 5 0.0000 0.0000 0.0000 0.0000 33.7796 0.0000
# 6 0.0000 0.0000 0.0000 0.0000 0.0000 19.7905
#
#
#
# Elastic Compliance Matrix: (Units=1/GPa)
#
#
# Indices 1 2 3 4 5 6 
#
# 1 0.032658 -0.009102 -0.008949 0.000000 0.000000 0.000000
# 2 -0.009102 0.043887 -0.012263 0.000000 0.000000 0.000000
# 3 -0.008949 -0.012263 0.017406 0.000000 0.000000 0.000000
# 4 0.000000 0.000000 0.000000 0.130062 0.000000 0.000000
# 5 0.000000 0.000000 0.000000 0.000000 0.029604 0.000000
# 6 0.000000 0.000000 0.000000 0.000000 0.000000 0.050529
#
#
# Mechanical properties :
#
#
# Convention : Reuss Voigt Hill
#
# Bulk Modulus (GPa) = 30.00865 42.13662 36.07263
# Shear Modulus (GPa) = 13.30210 18.35597 15.82904
#
# Velocity S-wave (km/s) = 2.72305 3.19878 2.97045
# Velocity P-wave (km/s) = 5.15892 6.09354 5.64560
#
# Compressibility (1/GPa) = 0.03332372
#
# Stress axis : x y z
#
# Youngs Moduli (GPa) = 30.62054 22.78581 57.45157
#
# Poissons Ratio (x) = 0.20740 0.51411
# Poissons Ratio (y) = 0.27872 0.70451
# Poissons Ratio (z) = 0.27401 0.27942
#
# Static dielectric constant tensor:
#      x y z
#    x 1.599210 0.000000 0.000000 
#    y 0.000000 1.619680 0.000000 
#    z 0.000000 0.000000 1.629430 
# 
# From -- ./inp_files/43549.got.cif
#   From: 2010.05.17/outbox.cif.g08.bks.cpg/sg64_22_cif.got.tgz:43549.got - 2010.06.03 16:29:19.
