data_PCOD9479893
_publ_section_title
;
Structure prediction by ZEFSAII (Michael W. Deem and Ramdas Pophale) SiO2 
 PCOD9479893
Probable space group: C M C A
;
_chemical_formula_sum "Si O2"
_cell_formula_units_Z 104
_cell_length_a 9.432552
_cell_length_b 22.936617
_cell_length_c 22.317941
_cell_angle_alpha 90.000000
_cell_angle_beta 90.000000
_cell_angle_gamma 90.000000
_cell_volume 4828.505116
_symmetry_space_group_name_H-M "C M C A"
_symmetry_group_IT_number 64
_symmetry_cell_setting 'orthorhombic'
loop_
_space_group_symop_operation_xyz
x,y,z
-x,1/2-y,1/2+z
x,-y,-z
-x,1/2+y,1/2-z
-x,-y,-z
x,1/2+y,1/2-z
-x,y,z
x,1/2-y,1/2+z
1/2+x,1/2+y,z
1/2-x,-y,1/2+z
1/2+x,1/2-y,-z
1/2-x,y,1/2-z
1/2-x,1/2-y,-z
1/2+x,y,1/2-z
1/2-x,1/2+y,z
1/2+x,-y,1/2+z
loop_
_atom_site_type_symbol
_atom_site_label
_atom_site_fract_x
_atom_site_fract_y
_atom_site_fract_z
Si Si1 0.835895 0.372071 0.491263
Si Si2 0.661048 0.221657 0.925343
Si Si3 0.664905 0.953452 0.372722
Si Si4 0.500000 0.208822 0.240821
Si Si5 0.169048 0.072175 0.398889
Si Si6 0.252950 0.686891 0.162440
Si Si7 0.164149 0.142290 0.694400
O O1 0.770866 0.310963 0.468283
O O2 0.834523 0.415173 0.433575
O O3 0.735427 0.401878 0.540252
O O4 0.000000 0.367199 0.510987
O O5 0.500000 0.219892 0.949103
O O6 0.702062 0.284942 0.900832
O O7 0.661535 0.184065 0.863270
O O8 0.500000 0.962556 0.355802
O O9 0.752287 0.915657 0.324739
O O10 0.747174 0.013334 0.383916
O O11 0.620888 0.192106 0.290958
O O12 0.621843 0.220682 0.190240
O O13 0.200782 0.121022 0.348691
O O14 0.000000 0.062973 0.403885
O O15 0.250000 0.168152 0.750000
O O16 0.000000 0.132667 0.711380
#
# Coordination Sequence:
#
# PCOD9479893 Si02
#       7
#    16  16  16   8  16  16  16
#     4  10  23  41  66  95 125 161 204 257 312 368
#     4  10  22  39  64  94 127 162 204 254 311 371
#     4  10  22  42  63  91 121 160 209 256 311 372
#     4  10  24  44  64  86 128 166 210 256 300 366
#     4  12  25  42  64  91 125 165 208 256 309 373
#     4  11  24  43  64  95 123 166 210 251 309 368
#     4  10  21  37  59  90 124 160 204 255 310 366
#
# _framework density 21.538757
#
# number of rings (size 3 to 8) (size 9 to 14) (size 15 to 20)
#    0.000    1.538    1.538    2.308    5.385    4.923 
#    2.769    0.000    0.000    0.000    0.000    0.000 
#    0.000    0.000    0.000    0.000    0.000    0.000 
#
# Total GULP energy -289813.272166 kJ/mol
# GULP energy per Si atom -5573.332157 kJ/mol
# Density = 2.148973 g / cm^3
# Si number density = 21.538757 Si / 1000 Ang^3
#
#
#
# Elastic Constant Matrix: (Units=GPa)
#
#
# Indices 1 2 3 4 5 6 
#
# 1 217.0101 33.4045 25.3463 0.0000 0.0000 0.0000
# 2 33.4045 98.7243 -7.2641 0.0000 0.0000 0.0000
# 3 25.3463 -7.2641 51.5026 0.0000 0.0000 0.0000
# 4 0.0000 0.0000 0.0000 14.4864 0.0000 0.0000
# 5 0.0000 0.0000 0.0000 0.0000 49.6870 0.0000
# 6 0.0000 0.0000 0.0000 0.0000 0.0000 -14.0864
#
#
#
# Elastic Compliance Matrix: (Units=1/GPa)
#
#
# Indices 1 2 3 4 5 6 
#
# 1 0.005248 -0.001986 -0.002863 0.000000 0.000000 0.000000
# 2 -0.001986 0.010987 0.002527 0.000000 0.000000 0.000000
# 3 -0.002863 0.002527 0.021182 0.000000 0.000000 0.000000
# 4 0.000000 0.000000 0.000000 0.069030 0.000000 0.000000
# 5 0.000000 0.000000 0.000000 0.000000 0.020126 0.000000
# 6 0.000000 0.000000 0.000000 0.000000 0.000000 -0.070991
#
#
# Mechanical properties :
#
#
# Convention : Reuss Voigt Hill
#
# Bulk Modulus (GPa) = 30.51279 52.24559 41.37919
# Shear Modulus (GPa) = 70.27193 31.06741 50.66967
#
# Velocity S-wave (km/s) = 5.71810 3.80201 4.85551
# Velocity P-wave (km/s) = 7.60215 6.60173 7.11954
#
# Compressibility (1/GPa) = 0.03277314
#
# Stress axis : x y z
#
# Youngs Moduli (GPa) = 190.53950 91.01399 47.20995
#
# Poissons Ratio (x) = 0.18080 0.13516
# Poissons Ratio (y) = 0.37850 -0.11931
# Poissons Ratio (z) = 0.54552 -0.23002
#
# Static dielectric constant tensor:
#      x y z
#    x 1.724390 0.000000 0.000000 
#    y 0.000000 1.815440 0.000000 
#    z 0.000000 0.000000 1.814480 
# 
# From -- ./inp_files/48277.got.cif
#   From: 2010.05.17/outbox.cif.g08.bks.cpg/sg64_25_cif.got.tgz:48277.got - 2010.06.03 16:29:19.
