data_PCOD9479639
_publ_section_title
;
Structure prediction by ZEFSAII (Michael W. Deem and Ramdas Pophale) SiO2 
 PCOD9479639
Probable space group: C M C A
;
_chemical_formula_sum "Si O2"
_cell_formula_units_Z 96
_cell_length_a 24.797374
_cell_length_b 8.761805
_cell_length_c 18.666603
_cell_angle_alpha 90.000000
_cell_angle_beta 90.000000
_cell_angle_gamma 90.000000
_cell_volume 4055.688270
_symmetry_space_group_name_H-M "C M C A"
_symmetry_group_IT_number 64
_symmetry_cell_setting 'orthorhombic'
loop_
_space_group_symop_operation_xyz
x,y,z
-x,1/2-y,1/2+z
x,-y,-z
-x,1/2+y,1/2-z
-x,-y,-z
x,1/2+y,1/2-z
-x,y,z
x,1/2-y,1/2+z
1/2+x,1/2+y,z
1/2-x,-y,1/2+z
1/2+x,1/2-y,-z
1/2-x,y,1/2-z
1/2-x,1/2-y,-z
1/2+x,y,1/2-z
1/2-x,1/2+y,z
1/2+x,-y,1/2+z
loop_
_atom_site_type_symbol
_atom_site_label
_atom_site_fract_x
_atom_site_fract_y
_atom_site_fract_z
Si Si1 0.500000 0.140943 0.114614
Si Si2 0.199541 0.701817 0.401866
Si Si3 0.411389 0.076899 0.430168
Si Si4 0.892714 0.780899 0.149996
Si Si5 0.315866 0.061581 0.103095
Si Si6 0.500000 0.697193 0.555449
Si Si7 0.311487 0.512937 0.765228
O O1 0.446980 0.184133 0.160479
O O2 0.500000 0.967556 0.089925
O O3 0.500000 0.209091 0.032084
O O4 0.150840 0.619755 0.441829
O O5 0.260146 0.645861 0.416464
O O6 0.190997 0.627889 0.321667
O O7 0.191700 0.882871 0.415963
O O8 0.446446 0.223004 0.414930
O O9 0.434472 0.000000 0.500000
O O10 0.415673 0.945449 0.372609
O O11 0.862741 0.683952 0.086079
O O12 0.846844 0.848945 0.203544
O O13 0.330033 0.042712 0.187821
O O14 0.250000 0.565492 0.750000
#
# Coordination Sequence:
#
# PCOD9479639 Si02
#       7
#     8  16  16  16  16   8  16
#     4  11  23  40  65  99 125 168 217 274 315 393
#     4  10  21  34  57  87 121 161 209 259 315 374
#     4  11  21  39  61  90 123 164 212 267 321 388
#     4  11  22  38  64  95 128 166 218 269 319 384
#     4  11  20  38  57  88 125 166 209 259 318 386
#     4  11  22  41  68  90 126 171 220 261 335 375
#     4   9  19  36  61  90 122 163 209 257 314 381
#
# _framework density 23.670458
#
# number of rings (size 3 to 8) (size 9 to 14) (size 15 to 20)
#    0.000    1.500    1.667    5.750    0.000    4.000 
#    0.000    4.167    0.000    4.000    0.000    0.000 
#    0.000    0.000    0.000    0.000    0.000    0.000 
#
# Total GULP energy -267412.086856 kJ/mol
# GULP energy per Si atom -5571.085143 kJ/mol
# Density = 2.361658 g / cm^3
# Si number density = 23.670458 Si / 1000 Ang^3
#
#
#
# Elastic Constant Matrix: (Units=GPa)
#
#
# Indices 1 2 3 4 5 6 
#
# 1 132.3864 41.3677 7.5322 0.0000 0.0000 0.0000
# 2 41.3677 134.8570 15.7579 0.0000 0.0000 0.0000
# 3 7.5322 15.7579 45.7275 0.0000 0.0000 0.0000
# 4 0.0000 0.0000 0.0000 23.2514 0.0000 0.0000
# 5 0.0000 0.0000 0.0000 0.0000 16.1862 0.0000
# 6 0.0000 0.0000 0.0000 0.0000 0.0000 50.3266
#
#
#
# Elastic Compliance Matrix: (Units=1/GPa)
#
#
# Indices 1 2 3 4 5 6 
#
# 1 0.008366 -0.002506 -0.000514 0.000000 0.000000 0.000000
# 2 -0.002506 0.008477 -0.002508 0.000000 0.000000 0.000000
# 3 -0.000514 -0.002508 0.022818 0.000000 0.000000 0.000000
# 4 0.000000 0.000000 0.000000 0.043008 0.000000 0.000000
# 5 0.000000 0.000000 0.000000 0.000000 0.061781 0.000000
# 6 0.000000 0.000000 0.000000 0.000000 0.000000 0.019870
#
#
# Mechanical properties :
#
#
# Convention : Reuss Voigt Hill
#
# Bulk Modulus (GPa) = 34.96144 49.14293 42.05219
# Shear Modulus (GPa) = 27.03977 34.50704 30.77340
#
# Velocity S-wave (km/s) = 3.38352 3.82227 3.60957
# Velocity P-wave (km/s) = 5.48329 6.34713 5.93096
#
# Compressibility (1/GPa) = 0.02860294
#
# Stress axis : x y z
#
# Youngs Moduli (GPa) = 119.53090 117.96413 43.82539
#
# Poissons Ratio (x) = 0.29564 0.02254
# Poissons Ratio (y) = 0.29957 0.10993
# Poissons Ratio (z) = 0.06149 0.29591
#
# Static dielectric constant tensor:
#      x y z
#    x 1.995720 0.000000 0.000000 
#    y 0.000000 1.984480 0.000000 
#    z 0.000000 0.000000 2.032690 
# 
# From -- ./inp_files/46637.got.cif
#   From: 2010.05.17/outbox.cif.g08.bks.cpg/sg64_24_cif.got.tgz:46637.got - 2010.06.03 16:29:19.
