data_PCOD9479446
_publ_section_title
;
Structure prediction by ZEFSAII (Michael W. Deem and Ramdas Pophale) SiO2 
 PCOD9479446
Probable space group: C M C A
;
_chemical_formula_sum "Si O2"
_cell_formula_units_Z 104
_cell_length_a 27.157041
_cell_length_b 21.263410
_cell_length_c 9.051159
_cell_angle_alpha 90.000000
_cell_angle_beta 90.000000
_cell_angle_gamma 90.000000
_cell_volume 5226.603505
_symmetry_space_group_name_H-M "C M C A"
_symmetry_group_IT_number 64
_symmetry_cell_setting 'orthorhombic'
loop_
_space_group_symop_operation_xyz
x,y,z
-x,1/2-y,1/2+z
x,-y,-z
-x,1/2+y,1/2-z
-x,-y,-z
x,1/2+y,1/2-z
-x,y,z
x,1/2-y,1/2+z
1/2+x,1/2+y,z
1/2-x,-y,1/2+z
1/2+x,1/2-y,-z
1/2-x,y,1/2-z
1/2-x,1/2-y,-z
1/2+x,y,1/2-z
1/2-x,1/2+y,z
1/2+x,-y,1/2+z
loop_
_atom_site_type_symbol
_atom_site_label
_atom_site_fract_x
_atom_site_fract_y
_atom_site_fract_z
Si Si1 0.092437 0.149171 0.717760
Si Si2 0.367279 0.715148 0.198568
Si Si3 0.327992 0.000000 0.000000
Si Si4 0.094286 0.902033 0.615204
Si Si5 0.194674 0.234003 0.464874
Si Si6 0.801497 0.115926 0.672082
Si Si7 0.000000 0.950824 0.782563
Si Si8 0.000000 0.405251 0.389080
O O1 0.097275 0.224747 0.714152
O O2 0.083022 0.124884 0.549337
O O3 0.146600 0.120821 0.759796
O O4 0.048906 0.127577 0.824582
O O5 0.389749 0.653601 0.272659
O O6 0.345350 0.718075 0.034488
O O7 0.318270 0.729753 0.294527
O O8 0.363118 0.953877 0.905883
O O9 0.297429 0.046626 0.896578
O O10 0.047336 0.935123 0.685318
O O11 0.250000 0.250000 0.500000
O O12 0.187838 0.166326 0.542136
O O13 0.750000 0.132106 0.750000
O O14 0.000000 0.023361 0.829617
O O15 0.000000 0.909874 0.933437
#
# Coordination Sequence:
#
# PCOD9479446 Si02
#       8
#    16  16   8  16  16  16   8   8
#     4  10  22  41  67  88 129 168 210 264 328 384
#     4  11  21  39  61  96 124 165 213 269 324 387
#     4  10  20  41  62  86 128 165 224 258 312 392
#     4  11  22  42  66  92 126 177 216 268 320 399
#     4  11  21  38  63  90 127 168 216 266 328 386
#     4  10  20  40  60  91 127 170 211 264 318 388
#     4  11  25  40  65  96 125 160 228 253 322 382
#     4  11  25  44  65 100 125 167 210 275 316 374
#
# _framework density 19.898199999999999
#
# number of rings (size 3 to 8) (size 9 to 14) (size 15 to 20)
#    0.000    1.385    4.615    4.615    2.154    1.538 
#    2.769    1.538    0.000    0.000    0.000    0.000 
#    0.000    0.000    0.000    0.000    0.000    0.000 
#
# Total GULP energy -290254.222447 kJ/mol
# GULP energy per Si atom -5581.811970 kJ/mol
# Density = 1.985291 g / cm^3
# Si number density = 19.898200 Si / 1000 Ang^3
#
#
#
# Elastic Constant Matrix: (Units=GPa)
#
#
# Indices 1 2 3 4 5 6 
#
# 1 93.5135 6.4235 17.2430 0.0000 0.0000 0.0000
# 2 6.4235 84.2172 15.9659 0.0000 0.0000 0.0000
# 3 17.2430 15.9659 61.0805 0.0000 0.0000 0.0000
# 4 0.0000 0.0000 0.0000 36.5061 0.0000 0.0000
# 5 0.0000 0.0000 0.0000 0.0000 33.9086 0.0000
# 6 0.0000 0.0000 0.0000 0.0000 0.0000 27.2790
#
#
#
# Elastic Compliance Matrix: (Units=1/GPa)
#
#
# Indices 1 2 3 4 5 6 
#
# 1 0.011287 -0.000270 -0.003116 0.000000 0.000000 0.000000
# 2 -0.000270 0.012500 -0.003191 0.000000 0.000000 0.000000
# 3 -0.003116 -0.003191 0.018085 0.000000 0.000000 0.000000
# 4 0.000000 0.000000 0.000000 0.027393 0.000000 0.000000
# 5 0.000000 0.000000 0.000000 0.000000 0.029491 0.000000
# 6 0.000000 0.000000 0.000000 0.000000 0.000000 0.036658
#
#
# Mechanical properties :
#
#
# Convention : Reuss Voigt Hill
#
# Bulk Modulus (GPa) = 34.82121 35.34179 35.08150
# Shear Modulus (GPa) = 31.61752 32.81732 32.21742
#
# Velocity S-wave (km/s) = 3.99051 4.06551 4.02818
# Velocity P-wave (km/s) = 6.22654 6.31171 6.26927
#
# Compressibility (1/GPa) = 0.02871813
#
# Stress axis : x y z
#
# Youngs Moduli (GPa) = 88.59992 80.00244 55.29299
#
# Poissons Ratio (x) = 0.02162 0.17227
# Poissons Ratio (y) = 0.02394 0.17644
# Poissons Ratio (z) = 0.27604 0.25529
#
# Static dielectric constant tensor:
#      x y z
#    x 1.709060 0.000000 0.000000 
#    y 0.000000 1.725110 0.000000 
#    z 0.000000 0.000000 1.710100 
# 
# From -- ./inp_files/11238.got.cif
#   From: 2010.05.17/outbox.cif.g08.bks.cpg/sg64_6_cif.got.tgz:11238.got - 2010.06.03 16:29:19.
