data_PCOD9479643
_publ_section_title
;
Structure prediction by ZEFSAII (Michael W. Deem and Ramdas Pophale) SiO2 
 PCOD9479643
Probable space group: C M C A
;
_chemical_formula_sum "Si O2"
_cell_formula_units_Z 88
_cell_length_a 16.119463
_cell_length_b 24.533891
_cell_length_c 10.496970
_cell_angle_alpha 90.000000
_cell_angle_beta 90.000000
_cell_angle_gamma 90.000000
_cell_volume 4151.269773
_symmetry_space_group_name_H-M "C M C A"
_symmetry_group_IT_number 64
_symmetry_cell_setting 'orthorhombic'
loop_
_space_group_symop_operation_xyz
x,y,z
-x,1/2-y,1/2+z
x,-y,-z
-x,1/2+y,1/2-z
-x,-y,-z
x,1/2+y,1/2-z
-x,y,z
x,1/2-y,1/2+z
1/2+x,1/2+y,z
1/2-x,-y,1/2+z
1/2+x,1/2-y,-z
1/2-x,y,1/2-z
1/2-x,1/2-y,-z
1/2+x,y,1/2-z
1/2-x,1/2+y,z
1/2+x,-y,1/2+z
loop_
_atom_site_type_symbol
_atom_site_label
_atom_site_fract_x
_atom_site_fract_y
_atom_site_fract_z
Si Si1 0.905376 0.976634 0.275907
Si Si2 0.594491 0.834419 0.972789
Si Si3 0.348027 0.000000 0.500000
Si Si4 0.695418 0.240584 0.625827
Si Si5 0.788256 0.068914 0.385968
Si Si6 0.903232 0.149093 0.759856
O O1 0.899616 0.994601 0.128437
O O2 0.880512 0.913277 0.271677
O O3 0.000000 0.980635 0.322745
O O4 0.843980 0.015494 0.353649
O O5 0.500000 0.851441 0.949621
O O6 0.619989 0.782806 0.889068
O O7 0.655476 0.883666 0.940419
O O8 0.601784 0.820954 0.122945
O O9 0.286440 0.949009 0.522491
O O10 0.750000 0.252676 0.750000
O O11 0.750000 0.250000 0.500000
O O12 0.657017 0.180403 0.644310
O O13 0.750000 0.086042 0.250000
O O14 0.000000 0.149127 0.801822
#
# Coordination Sequence:
#
# PCOD9479643 Si02
#       6
#    16  16   8  16  16  16
#     4  10  21  39  62  90 128 172 216 264 329 399
#     4  11  23  42  65  92 132 169 216 272 331 396
#     4  10  21  34  59  88 126 166 214 270 321 394
#     4  12  25  44  69  97 127 169 220 275 325 393
#     4  10  21  37  60  94 129 167 221 269 329 388
#     4  10  23  42  65  94 128 171 217 269 332 395
#
# _framework density 21.198333999999999
#
# number of rings (size 3 to 8) (size 9 to 14) (size 15 to 20)
#    0.000    1.455    1.818    3.000    2.545    2.182 
#    0.000    3.636    0.000    0.000    0.000    0.000 
#    0.000    0.000    0.000    0.000    0.000    0.000 
#
# Total GULP energy -246021.270089 kJ/mol
# GULP energy per Si atom -5591.392502 kJ/mol
# Density = 2.115009 g / cm^3
# Si number density = 21.198334 Si / 1000 Ang^3
#
#
#
# Elastic Constant Matrix: (Units=GPa)
#
#
# Indices 1 2 3 4 5 6 
#
# 1 80.4127 26.5354 22.7716 0.0000 0.0000 0.0000
# 2 26.5354 72.1673 1.0602 0.0000 0.0000 0.0000
# 3 22.7716 1.0602 74.4500 0.0000 0.0000 0.0000
# 4 0.0000 0.0000 0.0000 20.4266 0.0000 0.0000
# 5 0.0000 0.0000 0.0000 0.0000 26.6089 0.0000
# 6 0.0000 0.0000 0.0000 0.0000 0.0000 37.3551
#
#
#
# Elastic Compliance Matrix: (Units=1/GPa)
#
#
# Indices 1 2 3 4 5 6 
#
# 1 0.015643 -0.005683 -0.004704 0.000000 0.000000 0.000000
# 2 -0.005683 0.015924 0.001511 0.000000 0.000000 0.000000
# 3 -0.004704 0.001511 0.014849 0.000000 0.000000 0.000000
# 4 0.000000 0.000000 0.000000 0.048956 0.000000 0.000000
# 5 0.000000 0.000000 0.000000 0.000000 0.037581 0.000000
# 6 0.000000 0.000000 0.000000 0.000000 0.000000 0.026770
#
#
# Mechanical properties :
#
#
# Convention : Reuss Voigt Hill
#
# Bulk Modulus (GPa) = 34.88468 36.41828 35.65148
# Shear Modulus (GPa) = 26.73385 28.65566 27.69475
#
# Velocity S-wave (km/s) = 3.55509 3.68066 3.61842
# Velocity P-wave (km/s) = 5.77439 5.93970 5.85763
#
# Compressibility (1/GPa) = 0.02866588
#
# Stress axis : x y z
#
# Youngs Moduli (GPa) = 63.92584 62.79836 67.34455
#
# Poissons Ratio (x) = 0.35687 0.31677
# Poissons Ratio (y) = 0.36327 -0.10178
# Poissons Ratio (z) = 0.30069 -0.09491
#
# Static dielectric constant tensor:
#      x y z
#    x 1.768200 0.000000 0.000000 
#    y 0.000000 1.764550 0.000000 
#    z 0.000000 0.000000 1.762600 
# 
# From -- ./inp_files/14611.got.cif
#   From: 2010.05.17/outbox.cif.g08.bks.cpg/sg64_8_cif.got.tgz:14611.got - 2010.06.03 16:29:19.
