data_PCOD9479437
_publ_section_title
;
Structure prediction by ZEFSAII (Michael W. Deem and Ramdas Pophale) SiO2 
 PCOD9479437
Probable space group: C M C A
;
_chemical_formula_sum "Si O2"
_cell_formula_units_Z 80
_cell_length_a 10.671265
_cell_length_b 14.032937
_cell_length_c 29.122948
_cell_angle_alpha 90.000000
_cell_angle_beta 90.000000
_cell_angle_gamma 90.000000
_cell_volume 4361.137858
_symmetry_space_group_name_H-M "C M C A"
_symmetry_group_IT_number 64
_symmetry_cell_setting 'orthorhombic'
loop_
_space_group_symop_operation_xyz
x,y,z
-x,1/2-y,1/2+z
x,-y,-z
-x,1/2+y,1/2-z
-x,-y,-z
x,1/2+y,1/2-z
-x,y,z
x,1/2-y,1/2+z
1/2+x,1/2+y,z
1/2-x,-y,1/2+z
1/2+x,1/2-y,-z
1/2-x,y,1/2-z
1/2-x,1/2-y,-z
1/2+x,y,1/2-z
1/2-x,1/2+y,z
1/2+x,-y,1/2+z
loop_
_atom_site_type_symbol
_atom_site_label
_atom_site_fract_x
_atom_site_fract_y
_atom_site_fract_z
Si Si1 0.648203 0.273450 0.565791
Si Si2 0.736995 0.196272 0.165740
Si Si3 0.250000 0.657765 0.750000
Si Si4 0.000000 0.613502 0.778756
Si Si5 0.144343 0.888034 0.989729
Si Si6 0.000000 0.160208 0.197833
Si Si7 0.000000 0.080085 0.301680
O O1 0.500000 0.302071 0.567415
O O2 0.703008 0.259971 0.616706
O O3 0.743322 0.349252 0.542320
O O4 0.653539 0.177348 0.535440
O O5 0.738844 0.276040 0.205443
O O6 0.624517 0.126512 0.178437
O O7 0.872050 0.145301 0.169804
O O8 0.373857 0.596269 0.748669
O O9 0.000000 0.530835 0.815676
O O10 0.000000 0.724759 0.791547
O O11 0.000000 0.873582 0.971892
O O12 0.158677 0.000000 0.000000
O O13 0.000000 0.106326 0.246871
#
# Coordination Sequence:
#
# PCOD9479437 Si02
#       7
#    16  16   8   8  16   8   8
#     4  10  21  37  63  88 114 151 188 235 297 343
#     4  11  20  38  60  82 118 154 194 237 282 341
#     4  10  20  40  56  78 122 160 190 234 286 330
#     4  10  22  34  56  78 107 158 195 234 281 323
#     4   9  20  42  64  86 115 146 188 241 293 354
#     4  10  22  40  54  79 116 163 188 234 286 324
#     4  12  20  38  60  81 115 156 199 246 277 339
#
# _framework density 18.343836
#
# number of rings (size 3 to 8) (size 9 to 14) (size 15 to 20)
#    0.000    1.800    5.000    0.000    4.200    0.400 
#    7.200    0.000    0.000    0.000    0.000    0.000 
#    0.000    0.000    0.000    0.000    0.000    0.000 
#
# Total GULP energy -222700.625201 kJ/mol
# GULP energy per Si atom -5567.515630 kJ/mol
# Density = 1.830208 g / cm^3
# Si number density = 18.343836 Si / 1000 Ang^3
#
#
#
# Elastic Constant Matrix: (Units=GPa)
#
#
# Indices 1 2 3 4 5 6 
#
# 1 173.1640 32.5132 45.3864 0.0000 0.0000 0.0000
# 2 32.5132 76.5433 15.9023 0.0000 0.0000 0.0000
# 3 45.3864 15.9023 101.0898 0.0000 0.0000 0.0000
# 4 0.0000 0.0000 0.0000 23.8442 0.0000 0.0000
# 5 0.0000 0.0000 0.0000 0.0000 27.8871 0.0000
# 6 0.0000 0.0000 0.0000 0.0000 0.0000 -12.9530
#
#
#
# Elastic Compliance Matrix: (Units=1/GPa)
#
#
# Indices 1 2 3 4 5 6 
#
# 1 0.006940 -0.002378 -0.002742 0.000000 0.000000 0.000000
# 2 -0.002378 0.014321 -0.001185 0.000000 0.000000 0.000000
# 3 -0.002742 -0.001185 0.011310 0.000000 0.000000 0.000000
# 4 0.000000 0.000000 0.000000 0.041939 0.000000 0.000000
# 5 0.000000 0.000000 0.000000 0.000000 0.035859 0.000000
# 6 0.000000 0.000000 0.000000 0.000000 0.000000 -0.077202
#
#
# Mechanical properties :
#
#
# Convention : Reuss Voigt Hill
#
# Bulk Modulus (GPa) = 50.09921 59.82234 54.96077
# Shear Modulus (GPa) = 95.36576 24.88868 60.12722
#
# Velocity S-wave (km/s) = 7.21809 3.68746 5.73141
# Velocity P-wave (km/s) = 9.84064 7.12827 8.59216
#
# Compressibility (1/GPa) = 0.01996040
#
# Stress axis : x y z
#
# Youngs Moduli (GPa) = 144.09155 69.82793 88.42065
#
# Poissons Ratio (x) = 0.16607 0.24243
# Poissons Ratio (y) = 0.34269 0.10478
# Poissons Ratio (z) = 0.39506 0.08275
#
# Static dielectric constant tensor:
#      x y z
#    x 1.706130 0.000000 0.000000 
#    y 0.000000 1.620290 0.000000 
#    z 0.000000 0.000000 1.624400 
# 
# From -- ./inp_files/52625.got.cif
#   From: 2010.05.17/outbox.cif.g08.bks.cpg/sg64_27_cif.got.tgz:52625.got - 2010.06.03 16:29:19.
