data_PCOD9479355
_publ_section_title
;
Structure prediction by ZEFSAII (Michael W. Deem and Ramdas Pophale) SiO2 
 PCOD9479355
Probable space group: C M C A
;
_chemical_formula_sum "Si O2"
_cell_formula_units_Z 96
_cell_length_a 19.396298
_cell_length_b 15.482358
_cell_length_c 13.126418
_cell_angle_alpha 90.000000
_cell_angle_beta 90.000000
_cell_angle_gamma 90.000000
_cell_volume 3941.868963
_symmetry_space_group_name_H-M "C M C A"
_symmetry_group_IT_number 64
_symmetry_cell_setting 'orthorhombic'
loop_
_space_group_symop_operation_xyz
x,y,z
-x,1/2-y,1/2+z
x,-y,-z
-x,1/2+y,1/2-z
-x,-y,-z
x,1/2+y,1/2-z
-x,y,z
x,1/2-y,1/2+z
1/2+x,1/2+y,z
1/2-x,-y,1/2+z
1/2+x,1/2-y,-z
1/2-x,y,1/2-z
1/2-x,1/2-y,-z
1/2+x,y,1/2-z
1/2-x,1/2+y,z
1/2+x,-y,1/2+z
loop_
_atom_site_type_symbol
_atom_site_label
_atom_site_fract_x
_atom_site_fract_y
_atom_site_fract_z
Si Si1 0.000000 0.151781 0.695538
Si Si2 0.250000 0.495698 0.250000
Si Si3 0.358655 0.411944 0.885133
Si Si4 0.154195 0.355899 0.168953
Si Si5 0.000000 0.173979 0.318066
Si Si6 0.000000 0.513730 0.330485
Si Si7 0.145315 0.797100 0.685169
Si Si8 0.265657 0.603164 0.479358
O O1 0.926562 0.138238 0.642542
O O2 0.000000 0.250624 0.732402
O O3 0.000000 0.083812 0.789837
O O4 0.291968 0.537789 0.157981
O O5 0.185771 0.445485 0.203872
O O6 0.430063 0.462238 0.890352
O O7 0.368058 0.343135 0.795299
O O8 0.318220 0.382096 0.985587
O O9 0.163407 0.296105 0.269538
O O10 0.199686 0.339194 0.069762
O O11 0.927740 0.193150 0.372620
O O12 0.000000 0.078389 0.268568
O O13 0.200612 0.849519 0.620440
O O14 0.284815 0.500000 0.500000
#
# Coordination Sequence:
#
# PCOD9479355 Si02
#       8
#     8   8  16  16   8   8  16  16
#     4  10  20  41  66 104 142 189 249 292 371 458
#     4  12  20  38  66  96 142 188 228 300 352 432
#     4  11  21  41  65  96 142 187 244 293 364 442
#     4  11  25  41  68 103 142 188 240 298 367 436
#     4   8  20  37  64 100 142 189 235 296 352 439
#     4  10  20  38  71  93 132 214 240 286 385 454
#     4  10  22  43  67  97 145 188 233 296 370 429
#     4  12  24  42  69 109 143 181 241 310 358 434
#
# _framework density 24.353929000000001
#
# number of rings (size 3 to 8) (size 9 to 14) (size 15 to 20)
#    0.000    1.333    5.000    0.000    4.667    1.333 
#    0.000    1.250    0.000    0.000    0.000    1.167 
#    0.000    0.000    0.000    0.000    0.000    0.000 
#
# Total GULP energy -267249.319462 kJ/mol
# GULP energy per Si atom -5567.694155 kJ/mol
# Density = 2.429850 g / cm^3
# Si number density = 24.353929 Si / 1000 Ang^3
#
#
#
# Elastic Constant Matrix: (Units=GPa)
#
#
# Indices 1 2 3 4 5 6 
#
# 1 191.6366 28.7152 45.8770 0.0000 0.0000 0.0000
# 2 28.7152 50.2014 -3.7272 0.0000 0.0000 0.0000
# 3 45.8770 -3.7272 44.1616 0.0000 0.0000 0.0000
# 4 0.0000 0.0000 0.0000 4.8575 0.0000 0.0000
# 5 0.0000 0.0000 0.0000 0.0000 23.7567 0.0000
# 6 0.0000 0.0000 0.0000 0.0000 0.0000 25.2650
#
#
#
# Elastic Compliance Matrix: (Units=1/GPa)
#
#
# Indices 1 2 3 4 5 6 
#
# 1 0.008151 -0.005324 -0.008917 0.000000 0.000000 0.000000
# 2 -0.005324 0.023523 0.007516 0.000000 0.000000 0.000000
# 3 -0.008917 0.007516 0.032541 0.000000 0.000000 0.000000
# 4 0.000000 0.000000 0.000000 0.205868 0.000000 0.000000
# 5 0.000000 0.000000 0.000000 0.000000 0.042093 0.000000
# 6 0.000000 0.000000 0.000000 0.000000 0.000000 0.039580
#
#
# Mechanical properties :
#
#
# Convention : Reuss Voigt Hill
#
# Bulk Modulus (GPa) = 19.69805 47.52552 33.61179
# Shear Modulus (GPa) = 13.08462 25.11814 19.10138
#
# Velocity S-wave (km/s) = 2.32042 3.21499 2.80362
# Velocity P-wave (km/s) = 3.90960 5.77395 4.93069
#
# Compressibility (1/GPa) = 0.05076644
#
# Stress axis : x y z
#
# Youngs Moduli (GPa) = 122.69076 42.51119 30.73010
#
# Poissons Ratio (x) = 0.22634 0.27401
# Poissons Ratio (y) = 0.65322 -0.23098
# Poissons Ratio (z) = 1.09398 -0.31953
#
# Static dielectric constant tensor:
#      x y z
#    x 2.284260 0.000000 0.000000 
#    y 0.000000 2.022370 0.000000 
#    z 0.000000 0.000000 -8.656640 
# 
# From -- ./inp_files/26424.got.cif
#   From: 2010.05.17/outbox.cif.g08.bks.cpg/sg64_14_cif.got.tgz:26424.got - 2010.06.03 16:29:19.
