data_PCOD9479093
_publ_section_title
;
Structure prediction by ZEFSAII (Michael W. Deem and Ramdas Pophale) SiO2 
 PCOD9479093
Probable space group: C M C A
;
_chemical_formula_sum "Si O2"
_cell_formula_units_Z 80
_cell_length_a 8.848274
_cell_length_b 25.997718
_cell_length_c 18.429623
_cell_angle_alpha 90.000000
_cell_angle_beta 90.000000
_cell_angle_gamma 90.000000
_cell_volume 4239.457078
_symmetry_space_group_name_H-M "C M C A"
_symmetry_group_IT_number 64
_symmetry_cell_setting 'orthorhombic'
loop_
_space_group_symop_operation_xyz
x,y,z
-x,1/2-y,1/2+z
x,-y,-z
-x,1/2+y,1/2-z
-x,-y,-z
x,1/2+y,1/2-z
-x,y,z
x,1/2-y,1/2+z
1/2+x,1/2+y,z
1/2-x,-y,1/2+z
1/2+x,1/2-y,-z
1/2-x,y,1/2-z
1/2-x,1/2-y,-z
1/2+x,y,1/2-z
1/2-x,1/2+y,z
1/2+x,-y,1/2+z
loop_
_atom_site_type_symbol
_atom_site_label
_atom_site_fract_x
_atom_site_fract_y
_atom_site_fract_z
Si Si1 0.818584 0.309026 0.076431
Si Si2 0.317891 0.091923 0.829800
Si Si3 0.179960 0.199463 0.406293
Si Si4 0.818054 0.988976 0.583765
Si Si5 0.179742 0.103638 0.171666
O O1 0.772607 0.359421 0.120892
O O2 0.737307 0.257584 0.103925
O O3 0.000000 0.302454 0.083144
O O4 0.786049 0.314441 0.990595
O O5 0.500000 0.092542 0.825272
O O6 0.250000 0.095354 0.750000
O O7 0.274879 0.038651 0.868676
O O8 0.262156 0.159064 0.354880
O O9 0.000000 0.196305 0.395858
O O10 0.000000 0.981858 0.588691
O O11 0.781765 0.000000 0.500000
O O12 0.738408 0.938753 0.614958
O O13 0.250000 0.091544 0.250000
O O14 0.000000 0.102873 0.176098
#
# Coordination Sequence:
#
# PCOD9479093 Si02
#       5
#    16  16  16  16  16
#     4   9  19  37  59  84 115 152 193 234 281 340
#     4  10  21  36  56  82 114 150 185 226 277 335
#     4  10  20  37  61  86 113 149 193 241 291 341
#     4  10  21  40  64  87 114 150 190 234 288 347
#     4  12  25  40  59  85 118 154 194 241 293 348
#
# _framework density 18.870342000000001
#
# number of rings (size 3 to 8) (size 9 to 14) (size 15 to 20)
#    0.000    1.800    0.000    4.200    0.000    8.400 
#    0.000    4.000    0.000    0.000    0.000    0.000 
#    0.000    0.000    0.000    0.000    0.000    0.000 
#
# Total GULP energy -223597.437642 kJ/mol
# GULP energy per Si atom -5589.935941 kJ/mol
# Density = 1.882739 g / cm^3
# Si number density = 18.870342 Si / 1000 Ang^3
#
#
#
# Elastic Constant Matrix: (Units=GPa)
#
#
# Indices 1 2 3 4 5 6 
#
# 1 48.3770 23.7737 22.1681 0.0000 0.0000 0.0000
# 2 23.7737 59.3025 4.5414 0.0000 0.0000 0.0000
# 3 22.1681 4.5414 42.2309 0.0000 0.0000 0.0000
# 4 0.0000 0.0000 0.0000 2.2511 0.0000 0.0000
# 5 0.0000 0.0000 0.0000 0.0000 31.0367 0.0000
# 6 0.0000 0.0000 0.0000 0.0000 0.0000 31.8629
#
#
#
# Elastic Compliance Matrix: (Units=1/GPa)
#
#
# Indices 1 2 3 4 5 6 
#
# 1 0.034529 -0.012558 -0.016775 0.000000 0.000000 0.000000
# 2 -0.012558 0.021570 0.004272 0.000000 0.000000 0.000000
# 3 -0.016775 0.004272 0.032025 0.000000 0.000000 0.000000
# 4 0.000000 0.000000 0.000000 0.444232 0.000000 0.000000
# 5 0.000000 0.000000 0.000000 0.000000 0.032220 0.000000
# 6 0.000000 0.000000 0.000000 0.000000 0.000000 0.031385
#
#
# Mechanical properties :
#
#
# Convention : Reuss Voigt Hill
#
# Bulk Modulus (GPa) = 26.31309 27.87520 27.09415
# Shear Modulus (GPa) = 7.59015 19.65861 13.62438
#
# Velocity S-wave (km/s) = 2.00773 3.23115 2.68992
# Velocity P-wave (km/s) = 4.39876 5.35952 4.90273
#
# Compressibility (1/GPa) = 0.03800389
#
# Stress axis : x y z
#
# Youngs Moduli (GPa) = 28.96132 46.36129 31.22531
#
# Poissons Ratio (x) = 0.58219 0.52379
# Poissons Ratio (y) = 0.36368 -0.13340
# Poissons Ratio (z) = 0.48581 -0.19807
#
# Static dielectric constant tensor:
#      x y z
#    x 1.632210 0.000000 0.000000 
#    y 0.000000 1.624360 0.000000 
#    z 0.000000 0.000000 1.633680 
# 
# From -- ./inp_files/29988.got.cif
#   From: 2010.05.17/outbox.cif.g08.bks.cpg/sg64_15_cif.got.tgz:29988.got - 2010.06.03 16:29:19.
