data_PCOD9479102
_publ_section_title
;
Structure prediction by ZEFSAII (Michael W. Deem and Ramdas Pophale) SiO2 
 PCOD9479102
Probable space group: C M C A
;
_chemical_formula_sum "Si O2"
_cell_formula_units_Z 60
_cell_length_a 22.506971
_cell_length_b 19.098444
_cell_length_c 5.489079
_cell_angle_alpha 90.000000
_cell_angle_beta 90.000000
_cell_angle_gamma 90.000000
_cell_volume 2359.470318
_symmetry_space_group_name_H-M "C M C A"
_symmetry_group_IT_number 64
_symmetry_cell_setting 'orthorhombic'
loop_
_space_group_symop_operation_xyz
x,y,z
-x,1/2-y,1/2+z
x,-y,-z
-x,1/2+y,1/2-z
-x,-y,-z
x,1/2+y,1/2-z
-x,y,z
x,1/2-y,1/2+z
1/2+x,1/2+y,z
1/2-x,-y,1/2+z
1/2+x,1/2-y,-z
1/2-x,y,1/2-z
1/2-x,1/2-y,-z
1/2+x,y,1/2-z
1/2-x,1/2+y,z
1/2+x,-y,1/2+z
loop_
_atom_site_type_symbol
_atom_site_label
_atom_site_fract_x
_atom_site_fract_y
_atom_site_fract_z
Si Si1 0.071704 0.290056 0.454765
Si Si2 0.809645 0.500000 0.500000
Si Si3 0.500000 0.500000 0.500000
Si Si4 0.613238 0.917171 0.164591
Si Si5 0.769437 0.640965 0.006224
O O1 0.087971 0.257021 0.716247
O O2 0.098559 0.365940 0.392994
O O3 0.000000 0.296229 0.454671
O O4 0.852735 0.515705 0.725240
O O5 0.768360 0.432015 0.512608
O O6 0.447706 0.559384 0.544763
O O7 0.661244 0.876424 0.003988
O O8 0.750000 0.672675 0.750000
O O9 0.750000 0.678609 0.250000
#
# Coordination Sequence:
#
# PCOD9479102 Si02
#       5
#    16   8   4  16  16
#     4  10  23  46  69  91 130 186 236 275 330 397
#     4  10  21  39  62  93 133 182 204 268 344 414
#     4  12  22  34  56 104 134 162 204 288 344 394
#     4  11  23  40  65 101 140 172 229 278 343 414
#     4  10  20  37  61  88 128 177 210 250 329 409
#
# _framework density 25.429437
#
# number of rings (size 3 to 8) (size 9 to 14) (size 15 to 20)
#    0.000    1.600    1.333    4.800    0.000    6.933 
#    4.800    0.000    0.000   20.800    0.000    0.000 
#    0.000    0.000    0.000    0.000    0.000    0.000 
#
# Total GULP energy -167434.391799 kJ/mol
# GULP energy per Si atom -5581.146393 kJ/mol
# Density = 2.537156 g / cm^3
# Si number density = 25.429437 Si / 1000 Ang^3
#
#
#
# Elastic Constant Matrix: (Units=GPa)
#
#
# Indices 1 2 3 4 5 6 
#
# 1 213.5093 42.1964 60.1621 0.0000 0.0000 0.0000
# 2 42.1964 116.1237 26.7548 0.0000 0.0000 0.0000
# 3 60.1621 26.7548 173.9813 0.0000 0.0000 0.0000
# 4 0.0000 0.0000 0.0000 -24.5722 0.0000 0.0000
# 5 0.0000 0.0000 0.0000 0.0000 21.3162 0.0000
# 6 0.0000 0.0000 0.0000 0.0000 0.0000 -6.2798
#
#
#
# Elastic Compliance Matrix: (Units=1/GPa)
#
#
# Indices 1 2 3 4 5 6 
#
# 1 0.005464 -0.001607 -0.001642 0.000000 0.000000 0.000000
# 2 -0.001607 0.009401 -0.000890 0.000000 0.000000 0.000000
# 3 -0.001642 -0.000890 0.006452 0.000000 0.000000 0.000000
# 4 0.000000 0.000000 0.000000 -0.040696 0.000000 0.000000
# 5 0.000000 0.000000 0.000000 0.000000 0.046913 0.000000
# 6 0.000000 0.000000 0.000000 0.000000 0.000000 -0.159241
#
#
# Mechanical properties :
#
#
# Convention : Reuss Voigt Hill
#
# Bulk Modulus (GPa) = 76.69613 84.64898 80.67255
# Shear Modulus (GPa) = -41.98756 23.05958 -9.46399
#
# Velocity S-wave (km/s) = -4.06783 3.01459 -1.93126
# Velocity P-wave (km/s) = 2.85707 6.74367 5.17880
#
# Compressibility (1/GPa) = 0.01303847
#
# Stress axis : x y z
#
# Youngs Moduli (GPa) = 183.01563 106.37717 154.97890
#
# Poissons Ratio (x) = 0.17096 0.25452
# Poissons Ratio (y) = 0.29412 0.13791
# Poissons Ratio (z) = 0.30057 0.09466
#
# Static dielectric constant tensor:
#      x y z
#    x 1.929660 0.000000 0.000000 
#    y 0.000000 2.015040 0.000000 
#    z 0.000000 0.000000 2.263150 
# 
# From -- ./inp_files/1691.got.cif
#   From: 2010.05.17/outbox.cif.g08.bks.cpg/sg64_1_cif.got.tgz:1691.got - 2010.06.03 16:29:19.
