data_PCOD9479283
_publ_section_title
;
Structure prediction by ZEFSAII (Michael W. Deem and Ramdas Pophale) SiO2 
 PCOD9479283
Probable space group: C M C A
;
_chemical_formula_sum "Si O2"
_cell_formula_units_Z 72
_cell_length_a 9.131346
_cell_length_b 25.065660
_cell_length_c 14.385652
_cell_angle_alpha 90.000000
_cell_angle_beta 90.000000
_cell_angle_gamma 90.000000
_cell_volume 3292.634268
_symmetry_space_group_name_H-M "C M C A"
_symmetry_group_IT_number 64
_symmetry_cell_setting 'orthorhombic'
loop_
_space_group_symop_operation_xyz
x,y,z
-x,1/2-y,1/2+z
x,-y,-z
-x,1/2+y,1/2-z
-x,-y,-z
x,1/2+y,1/2-z
-x,y,z
x,1/2-y,1/2+z
1/2+x,1/2+y,z
1/2-x,-y,1/2+z
1/2+x,1/2-y,-z
1/2-x,y,1/2-z
1/2-x,1/2-y,-z
1/2+x,y,1/2-z
1/2-x,1/2+y,z
1/2+x,-y,1/2+z
loop_
_atom_site_type_symbol
_atom_site_label
_atom_site_fract_x
_atom_site_fract_y
_atom_site_fract_z
Si Si1 0.677095 0.738181 0.101283
Si Si2 0.176021 0.869235 0.596797
Si Si3 0.666750 0.352181 0.388543
Si Si4 0.333647 0.975117 0.598873
Si Si5 0.750000 0.441572 0.250000
O O1 0.500000 0.730169 0.097676
O O2 0.753142 0.684502 0.137732
O O3 0.717860 0.794794 0.148690
O O4 0.750000 0.750000 0.000000
O O5 0.231811 0.868453 0.488236
O O6 0.234825 0.925792 0.631391
O O7 0.000000 0.867479 0.604878
O O8 0.500000 0.340968 0.414071
O O9 0.668112 0.400210 0.317050
O O10 0.500000 0.956389 0.583859
O O11 0.281093 0.000000 0.500000
O O12 0.332272 0.020242 0.677978
#
# Coordination Sequence:
#
# PCOD9479283 Si02
#       5
#    16  16  16  16   8
#     4   9  17  33  58  89 122 156 201 255 316 382
#     4  10  20  38  63  89 122 166 213 258 319 385
#     4   9  19  35  57  88 121 160 204 255 313 380
#     4  11  24  41  62  94 130 169 217 271 325 379
#     4  12  22  40  62  90 128 172 212 264 320 388
#
# _framework density 21.866990000000001
#
# number of rings (size 3 to 8) (size 9 to 14) (size 15 to 20)
#    0.000    2.000    2.222    3.333    0.000    2.222 
#    0.000    4.444    0.000    2.667    0.000    0.000 
#    0.000    0.000    0.000    0.000    0.000    0.000 
#
# Total GULP energy -200477.993156 kJ/mol
# GULP energy per Si atom -5568.833143 kJ/mol
# Density = 2.181722 g / cm^3
# Si number density = 21.866990 Si / 1000 Ang^3
#
#
#
# Elastic Constant Matrix: (Units=GPa)
#
#
# Indices 1 2 3 4 5 6 
#
# 1 89.0224 67.4785 7.9330 0.0000 0.0000 0.0000
# 2 67.4785 202.9374 31.6305 0.0000 0.0000 0.0000
# 3 7.9330 31.6305 87.1945 0.0000 0.0000 0.0000
# 4 0.0000 0.0000 0.0000 13.2704 0.0000 0.0000
# 5 0.0000 0.0000 0.0000 0.0000 -21.2273 0.0000
# 6 0.0000 0.0000 0.0000 0.0000 0.0000 28.3592
#
#
#
# Elastic Compliance Matrix: (Units=1/GPa)
#
#
# Indices 1 2 3 4 5 6 
#
# 1 0.015037 -0.005073 0.000472 0.000000 0.000000 0.000000
# 2 -0.005073 0.006935 -0.002054 0.000000 0.000000 0.000000
# 3 0.000472 -0.002054 0.012171 0.000000 0.000000 0.000000
# 4 0.000000 0.000000 0.000000 0.075356 0.000000 0.000000
# 5 0.000000 0.000000 0.000000 0.000000 -0.047109 0.000000
# 6 0.000000 0.000000 0.000000 0.000000 0.000000 0.035262
#
#
# Mechanical properties :
#
#
# Convention : Reuss Voigt Hill
#
# Bulk Modulus (GPa) = 48.00314 65.91535 56.95925
# Shear Modulus (GPa) = 42.40699 22.22127 32.31413
#
# Velocity S-wave (km/s) = 4.40854 3.19125 3.84833
# Velocity P-wave (km/s) = 6.92197 6.61725 6.77132
#
# Compressibility (1/GPa) = 0.02083197
#
# Stress axis : x y z
#
# Youngs Moduli (GPa) = 66.50399 144.20134 82.16413
#
# Poissons Ratio (x) = 0.73160 -0.03881
# Poissons Ratio (y) = 0.33741 0.16877
# Poissons Ratio (z) = -0.03142 0.29620
#
# Static dielectric constant tensor:
#      x y z
#    x 2.070240 0.000000 0.000000 
#    y 0.000000 1.858070 0.000000 
#    z 0.000000 0.000000 1.875320 
# 
# From -- ./inp_files/21171.got.cif
#   From: 2010.05.17/outbox.cif.g08.bks.cpg/sg64_11_cif.got.tgz:21171.got - 2010.06.03 16:29:19.
