data_PCOD9479440
_publ_section_title
;
Structure prediction by ZEFSAII (Michael W. Deem and Ramdas Pophale) SiO2 
 PCOD9479440
Probable space group: C M C A
;
_chemical_formula_sum "Si O2"
_cell_formula_units_Z 112
_cell_length_a 21.733698
_cell_length_b 14.370464
_cell_length_c 15.337502
_cell_angle_alpha 90.000000
_cell_angle_beta 90.000000
_cell_angle_gamma 90.000000
_cell_volume 4790.259617
_symmetry_space_group_name_H-M "C M C A"
_symmetry_group_IT_number 64
_symmetry_cell_setting 'orthorhombic'
loop_
_space_group_symop_operation_xyz
x,y,z
-x,1/2-y,1/2+z
x,-y,-z
-x,1/2+y,1/2-z
-x,-y,-z
x,1/2+y,1/2-z
-x,y,z
x,1/2-y,1/2+z
1/2+x,1/2+y,z
1/2-x,-y,1/2+z
1/2+x,1/2-y,-z
1/2-x,y,1/2-z
1/2-x,1/2-y,-z
1/2+x,y,1/2-z
1/2-x,1/2+y,z
1/2+x,-y,1/2+z
loop_
_atom_site_type_symbol
_atom_site_label
_atom_site_fract_x
_atom_site_fract_y
_atom_site_fract_z
Si Si1 0.067854 0.986474 0.898004
Si Si2 0.299171 0.475261 0.862345
Si Si3 0.769523 0.728114 0.402502
Si Si4 0.164716 0.020791 0.331580
Si Si5 0.886804 0.323578 0.184982
Si Si6 0.067217 0.713193 0.461122
Si Si7 0.366319 0.773647 0.863604
O O1 0.136617 0.028162 0.881819
O O2 0.000000 0.010931 0.857580
O O3 0.076929 0.874807 0.895846
O O4 0.060639 0.000000 0.000000
O O5 0.291650 0.378193 0.910624
O O6 0.229820 0.515333 0.873966
O O7 0.311827 0.447438 0.762782
O O8 0.750000 0.750000 0.500000
O O9 0.823019 0.783817 0.355405
O O10 0.706449 0.742184 0.350170
O O11 0.132273 0.112521 0.370745
O O12 0.120512 0.934428 0.313518
O O13 0.897782 0.273794 0.278596
O O14 0.931965 0.297189 0.106830
O O15 0.110607 0.731758 0.544208
O O16 0.000000 0.699672 0.500864
#
# Coordination Sequence:
#
# PCOD9479440 Si02
#       7
#    16  16  16  16  16  16  16
#     4  10  21  38  63  93 130 171 217 278 334 400
#     4  10  20  40  56  98 137 166 221 276 327 401
#     4  11  20  38  66  96 134 174 212 282 350 399
#     4  10  24  38  64  98 135 175 223 279 341 410
#     4  12  24  43  68  98 138 179 222 285 348 413
#     4  11  25  46  68  98 135 178 237 288 339 416
#     4  11  23  43  67  94 137 177 223 277 349 416
#
# _framework density 23.380776999999998
#
# number of rings (size 3 to 8) (size 9 to 14) (size 15 to 20)
#    0.000    1.286    4.286    0.429    6.000    2.286 
#    0.000    2.857    0.000    0.000    0.000    0.000 
#    0.000    0.000    0.000    0.000    0.000    0.000 
#
# Total GULP energy -311757.378655 kJ/mol
# GULP energy per Si atom -5567.096047 kJ/mol
# Density = 2.332756 g / cm^3
# Si number density = 23.380777 Si / 1000 Ang^3
#
#
#
# Elastic Constant Matrix: (Units=GPa)
#
#
# Indices 1 2 3 4 5 6 
#
# 1 108.2887 6.6815 6.6184 0.0000 0.0000 0.0000
# 2 6.6815 79.3812 12.6979 0.0000 0.0000 0.0000
# 3 6.6184 12.6979 79.0519 0.0000 0.0000 0.0000
# 4 0.0000 0.0000 0.0000 28.9520 0.0000 0.0000
# 5 0.0000 0.0000 0.0000 0.0000 18.2304 0.0000
# 6 0.0000 0.0000 0.0000 0.0000 0.0000 54.4127
#
#
#
# Elastic Compliance Matrix: (Units=1/GPa)
#
#
# Indices 1 2 3 4 5 6 
#
# 1 0.009317 -0.000677 -0.000671 0.000000 0.000000 0.000000
# 2 -0.000677 0.012979 -0.002028 0.000000 0.000000 0.000000
# 3 -0.000671 -0.002028 0.013032 0.000000 0.000000 0.000000
# 4 0.000000 0.000000 0.000000 0.034540 0.000000 0.000000
# 5 0.000000 0.000000 0.000000 0.000000 0.054853 0.000000
# 6 0.000000 0.000000 0.000000 0.000000 0.000000 0.018378
#
#
# Mechanical properties :
#
#
# Convention : Reuss Voigt Hill
#
# Bulk Modulus (GPa) = 34.99502 35.41306 35.20404
# Shear Modulus (GPa) = 31.37210 36.36729 33.86970
#
# Velocity S-wave (km/s) = 3.66702 3.94818 3.81019
# Velocity P-wave (km/s) = 5.73841 5.99694 5.86910
#
# Compressibility (1/GPa) = 0.02857550
#
# Stress axis : x y z
#
# Youngs Moduli (GPa) = 107.32649 77.04862 76.73486
#
# Poissons Ratio (x) = 0.05215 0.05152
# Poissons Ratio (y) = 0.07264 0.15562
# Poissons Ratio (z) = 0.07205 0.15626
#
# Static dielectric constant tensor:
#      x y z
#    x 2.042990 0.000000 0.000000 
#    y 0.000000 2.073530 0.000000 
#    z 0.000000 0.000000 1.944180 
# 
# From -- ./inp_files/27453.got.cif
#   From: 2010.05.17/outbox.cif.g08.bks.cpg/sg64_14_cif.got.tgz:27453.got - 2010.06.03 16:29:19.
