data_PCOD9479499
_publ_section_title
;
Structure prediction by ZEFSAII (Michael W. Deem and Ramdas Pophale) SiO2 
 PCOD9479499
Probable space group: C M C A
;
_chemical_formula_sum "Si O2"
_cell_formula_units_Z 112
_cell_length_a 23.228839
_cell_length_b 21.634045
_cell_length_c 11.072615
_cell_angle_alpha 90.000000
_cell_angle_beta 90.000000
_cell_angle_gamma 90.000000
_cell_volume 5564.362719
_symmetry_space_group_name_H-M "C M C A"
_symmetry_group_IT_number 64
_symmetry_cell_setting 'orthorhombic'
loop_
_space_group_symop_operation_xyz
x,y,z
-x,1/2-y,1/2+z
x,-y,-z
-x,1/2+y,1/2-z
-x,-y,-z
x,1/2+y,1/2-z
-x,y,z
x,1/2-y,1/2+z
1/2+x,1/2+y,z
1/2-x,-y,1/2+z
1/2+x,1/2-y,-z
1/2-x,y,1/2-z
1/2-x,1/2-y,-z
1/2+x,y,1/2-z
1/2-x,1/2+y,z
1/2+x,-y,1/2+z
loop_
_atom_site_type_symbol
_atom_site_label
_atom_site_fract_x
_atom_site_fract_y
_atom_site_fract_z
Si Si1 0.062606 0.005685 0.855176
Si Si2 0.433987 0.193677 0.596256
Si Si3 0.348028 0.890736 0.281549
Si Si4 0.656607 0.573637 0.507353
Si Si5 0.395483 0.625253 0.142370
Si Si6 0.284677 0.074272 0.485737
Si Si7 0.068460 0.166812 0.386122
O O1 0.110580 0.051835 0.813069
O O2 0.000000 0.028557 0.818283
O O3 0.073450 0.936750 0.811270
O O4 0.064576 0.000000 0.000000
O O5 0.500000 0.187925 0.639641
O O6 0.387210 0.169260 0.692044
O O7 0.424869 0.150791 0.478751
O O8 0.424535 0.264660 0.559371
O O9 0.332770 0.902849 0.143826
O O10 0.298566 0.895588 0.383164
O O11 0.643924 0.500000 0.500000
O O12 0.718949 0.583092 0.444816
O O13 0.605656 0.614740 0.453022
O O14 0.331475 0.603842 0.104521
O O15 0.405183 0.671753 0.251228
O O16 0.293490 0.000000 0.500000
O O17 0.000000 0.153373 0.382834
#
# Coordination Sequence:
#
# PCOD9479499 Si02
#       7
#    16  16  16  16  16  16  16
#     4  11  18  29  57  96 125 149 201 263 307 349
#     4  10  22  39  64  91 120 166 213 257 303 363
#     4  11  20  38  61  94 128 162 208 254 314 369
#     4  11  26  41  64  93 129 169 201 254 322 384
#     4  11  20  39  65  90 121 160 209 262 302 359
#     4  10  20  40  67  96 120 157 213 259 306 359
#     4  11  26  43  61  91 129 168 207 249 310 381
#
# _framework density 20.128091000000001
#
# number of rings (size 3 to 8) (size 9 to 14) (size 15 to 20)
#    0.000    1.286    4.286    3.000    2.000    2.000 
#    0.000    2.857    6.286    0.000    0.000    0.000 
#    0.000    0.000    0.000    0.000    0.000    0.000 
#
# Total GULP energy -312612.164300 kJ/mol
# GULP energy per Si atom -5582.360077 kJ/mol
# Density = 2.008228 g / cm^3
# Si number density = 20.128091 Si / 1000 Ang^3
#
#
#
# Elastic Constant Matrix: (Units=GPa)
#
#
# Indices 1 2 3 4 5 6 
#
# 1 133.5224 57.1247 23.2586 0.0000 0.0000 0.0000
# 2 57.1247 92.0121 0.3512 0.0000 0.0000 0.0000
# 3 23.2586 0.3512 36.5734 0.0000 0.0000 0.0000
# 4 0.0000 0.0000 0.0000 22.7740 0.0000 0.0000
# 5 0.0000 0.0000 0.0000 0.0000 11.8604 0.0000
# 6 0.0000 0.0000 0.0000 0.0000 0.0000 -9.7244
#
#
#
# Elastic Compliance Matrix: (Units=1/GPa)
#
#
# Indices 1 2 3 4 5 6 
#
# 1 0.011970 -0.007403 -0.007541 0.000000 0.000000 0.000000
# 2 -0.007403 0.015447 0.004559 0.000000 0.000000 0.000000
# 3 -0.007541 0.004559 0.032094 0.000000 0.000000 0.000000
# 4 0.000000 0.000000 0.000000 0.043910 0.000000 0.000000
# 5 0.000000 0.000000 0.000000 0.000000 0.084315 0.000000
# 6 0.000000 0.000000 0.000000 0.000000 0.000000 -0.102834
#
#
# Mechanical properties :
#
#
# Convention : Reuss Voigt Hill
#
# Bulk Modulus (GPa) = 25.81182 47.06407 36.43795
# Shear Modulus (GPa) = 42.16427 17.07357 29.61892
#
# Velocity S-wave (km/s) = 4.58186 2.91563 3.84020
# Velocity P-wave (km/s) = 6.39084 5.89640 6.14859
#
# Compressibility (1/GPa) = 0.03874194
#
# Stress axis : x y z
#
# Youngs Moduli (GPa) = 83.54149 64.73903 31.15817
#
# Poissons Ratio (x) = 0.47924 0.23497
# Poissons Ratio (y) = 0.61843 -0.14206
# Poissons Ratio (z) = 0.63001 -0.29517
#
# Static dielectric constant tensor:
#      x y z
#    x 1.706710 0.000000 0.000000 
#    y 0.000000 1.732580 0.000000 
#    z 0.000000 0.000000 1.766810 
# 
# From -- ./inp_files/18557.got.cif
#   From: 2010.05.17/outbox.cif.g08.bks.cpg/sg64_10_cif.got.tgz:18557.got - 2010.06.03 16:29:19.
