data_PCOD9479505
_publ_section_title
;
Structure prediction by ZEFSAII (Michael W. Deem and Ramdas Pophale) SiO2 
 PCOD9479505
Probable space group: C M C A
;
_chemical_formula_sum "Si O2"
_cell_formula_units_Z 88
_cell_length_a 30.206856
_cell_length_b 9.221112
_cell_length_c 17.365323
_cell_angle_alpha 90.000000
_cell_angle_beta 90.000000
_cell_angle_gamma 90.000000
_cell_volume 4836.951001
_symmetry_space_group_name_H-M "C M C A"
_symmetry_group_IT_number 64
_symmetry_cell_setting 'orthorhombic'
loop_
_space_group_symop_operation_xyz
x,y,z
-x,1/2-y,1/2+z
x,-y,-z
-x,1/2+y,1/2-z
-x,-y,-z
x,1/2+y,1/2-z
-x,y,z
x,1/2-y,1/2+z
1/2+x,1/2+y,z
1/2-x,-y,1/2+z
1/2+x,1/2-y,-z
1/2-x,y,1/2-z
1/2-x,1/2-y,-z
1/2+x,y,1/2-z
1/2-x,1/2+y,z
1/2+x,-y,1/2+z
loop_
_atom_site_type_symbol
_atom_site_label
_atom_site_fract_x
_atom_site_fract_y
_atom_site_fract_z
Si Si1 0.382489 0.997687 0.907919
Si Si2 0.114685 0.295492 0.682105
Si Si3 0.450465 0.500877 0.091178
Si Si4 0.949794 0.802242 0.676207
Si Si5 0.811333 0.125235 0.303141
Si Si6 0.750000 0.371272 0.250000
O O1 0.375254 0.154987 0.869305
O O2 0.426981 0.932975 0.869927
O O3 0.343592 0.893640 0.875581
O O4 0.384373 0.000000 0.000000
O O5 0.088972 0.412062 0.630749
O O6 0.079980 0.261424 0.750479
O O7 0.157566 0.356072 0.727217
O O8 0.500000 0.561519 0.108777
O O9 0.449930 0.337588 0.121878
O O10 0.445165 0.500000 0.000000
O O11 0.000000 0.838064 0.698591
O O12 0.779137 0.263811 0.302900
O O13 0.782535 0.979846 0.294724
#
# Coordination Sequence:
#
# PCOD9479505 Si02
#       6
#    16  16  16  16  16   8
#     4  11  23  38  57  89 126 153 189 241 301 353
#     4  11  21  36  58  86 113 152 195 240 283 342
#     4  10  21  36  54  80 116 156 194 234 281 331
#     4  10  21  36  57  83 114 157 204 240 275 333
#     4  10  21  39  64  88 112 150 191 236 291 353
#     4  10  20  40  68  86 112 144 196 242 288 352
#
# _framework density 18.193279
#
# number of rings (size 3 to 8) (size 9 to 14) (size 15 to 20)
#    0.000    1.636    1.818    3.818    2.545    3.273 
#    0.000    0.909    0.000    0.000    0.000    0.000 
#    0.000    0.000    0.000    0.000    0.000    0.000 
#
# Total GULP energy -245578.681828 kJ/mol
# GULP energy per Si atom -5581.333678 kJ/mol
# Density = 1.815187 g / cm^3
# Si number density = 18.193279 Si / 1000 Ang^3
#
#
#
# Elastic Constant Matrix: (Units=GPa)
#
#
# Indices 1 2 3 4 5 6 
#
# 1 100.0025 35.1640 23.3960 0.0000 0.0000 0.0000
# 2 35.1640 77.3947 24.4152 0.0000 0.0000 0.0000
# 3 23.3960 24.4152 92.4141 0.0000 0.0000 0.0000
# 4 0.0000 0.0000 0.0000 17.3516 0.0000 0.0000
# 5 0.0000 0.0000 0.0000 0.0000 11.7195 0.0000
# 6 0.0000 0.0000 0.0000 0.0000 0.0000 36.5997
#
#
#
# Elastic Compliance Matrix: (Units=1/GPa)
#
#
# Indices 1 2 3 4 5 6 
#
# 1 0.012160 -0.004968 -0.001766 0.000000 0.000000 0.000000
# 2 -0.004968 0.016125 -0.003002 0.000000 0.000000 0.000000
# 3 -0.001766 -0.003002 0.012061 0.000000 0.000000 0.000000
# 4 0.000000 0.000000 0.000000 0.057631 0.000000 0.000000
# 5 0.000000 0.000000 0.000000 0.000000 0.085328 0.000000
# 6 0.000000 0.000000 0.000000 0.000000 0.000000 0.027323
#
#
# Mechanical properties :
#
#
# Convention : Reuss Voigt Hill
#
# Bulk Modulus (GPa) = 47.90726 48.41797 48.16261
# Shear Modulus (GPa) = 21.09193 25.58993 23.34093
#
# Velocity S-wave (km/s) = 3.40858 3.75448 3.58570
# Velocity P-wave (km/s) = 6.47154 6.74283 6.60857
#
# Compressibility (1/GPa) = 0.02087366
#
# Stress axis : x y z
#
# Youngs Moduli (GPa) = 82.23906 62.01560 82.91063
#
# Poissons Ratio (x) = 0.30807 0.14642
# Poissons Ratio (y) = 0.40853 0.24894
# Poissons Ratio (z) = 0.14523 0.18620
#
# Static dielectric constant tensor:
#      x y z
#    x 1.655900 0.000000 0.000000 
#    y 0.000000 1.623340 0.000000 
#    z 0.000000 0.000000 1.606100 
# 
# From -- ./inp_files/35698.got.cif
#   From: 2010.05.17/outbox.cif.g08.bks.cpg/sg64_18_cif.got.tgz:35698.got - 2010.06.03 16:29:19.
