data_PCOD9479951
_publ_section_title
;
Structure prediction by ZEFSAII (Michael W. Deem and Ramdas Pophale) SiO2 
 PCOD9479951
Probable space group: C M C A
;
_chemical_formula_sum "Si O2"
_cell_formula_units_Z 88
_cell_length_a 14.272511
_cell_length_b 18.897827
_cell_length_c 14.365995
_cell_angle_alpha 90.000000
_cell_angle_beta 90.000000
_cell_angle_gamma 90.000000
_cell_volume 3874.788180
_symmetry_space_group_name_H-M "C M C A"
_symmetry_group_IT_number 64
_symmetry_cell_setting 'orthorhombic'
loop_
_space_group_symop_operation_xyz
x,y,z
-x,1/2-y,1/2+z
x,-y,-z
-x,1/2+y,1/2-z
-x,-y,-z
x,1/2+y,1/2-z
-x,y,z
x,1/2-y,1/2+z
1/2+x,1/2+y,z
1/2-x,-y,1/2+z
1/2+x,1/2-y,-z
1/2-x,y,1/2-z
1/2-x,1/2-y,-z
1/2+x,y,1/2-z
1/2-x,1/2+y,z
1/2+x,-y,1/2+z
loop_
_atom_site_type_symbol
_atom_site_label
_atom_site_fract_x
_atom_site_fract_y
_atom_site_fract_z
Si Si1 0.000000 0.900233 0.724158
Si Si2 0.000000 0.311354 0.274105
Si Si3 0.000000 0.677485 0.946090
Si Si4 0.337393 0.872728 0.923781
Si Si5 0.500000 0.533592 0.861253
Si Si6 0.834303 0.590219 0.520961
Si Si7 0.304311 0.223499 0.653412
Si Si8 0.500000 0.836254 0.585901
O O1 0.906682 0.896561 0.659988
O O2 0.000000 0.838626 0.802726
O O3 0.000000 0.970850 0.787268
O O4 0.911199 0.272742 0.315358
O O5 0.000000 0.323315 0.164493
O O6 0.000000 0.390208 0.314250
O O7 0.000000 0.761083 0.964296
O O8 0.091190 0.643848 0.992205
O O9 0.285681 0.798816 0.895471
O O10 0.257632 0.926431 0.959288
O O11 0.598906 0.537241 0.918828
O O12 0.797898 0.653834 0.589227
O O13 0.909379 0.623912 0.450887
O O14 0.250000 0.215129 0.750000
#
# Coordination Sequence:
#
# PCOD9479951 Si02
#       8
#     8   8   8  16   8  16  16   8
#     4  11  26  42  70  91 133 182 226 285 323 394
#     4  10  21  37  64  90 125 178 219 258 336 410
#     4  11  20  37  64  99 136 169 202 279 351 422
#     4  11  23  38  63 105 134 165 221 279 350 395
#     4   9  23  49  67  85 126 182 238 267 323 402
#     4  10  22  39  67  95 131 174 224 272 333 412
#     4  11  21  35  62  99 138 168 206 269 341 410
#     4  11  22  38  67  95 132 172 213 261 353 408
#
# _framework density 22.710919000000001
#
# number of rings (size 3 to 8) (size 9 to 14) (size 15 to 20)
#    0.000    1.455    1.818    4.364    5.091    1.455 
#    0.000    1.818   36.000    0.000    0.000    0.000 
#    0.000    0.000    0.000    0.000    0.000    0.000 
#
# Total GULP energy -245943.056278 kJ/mol
# GULP energy per Si atom -5589.614915 kJ/mol
# Density = 2.265923 g / cm^3
# Si number density = 22.710919 Si / 1000 Ang^3
#
#
#
# Elastic Constant Matrix: (Units=GPa)
#
#
# Indices 1 2 3 4 5 6 
#
# 1 151.3302 28.7107 50.1731 0.0000 0.0000 0.0000
# 2 28.7107 88.5815 25.3510 0.0000 0.0000 0.0000
# 3 50.1731 25.3510 125.7086 0.0000 0.0000 0.0000
# 4 0.0000 0.0000 0.0000 44.5231 0.0000 0.0000
# 5 0.0000 0.0000 0.0000 0.0000 65.5058 0.0000
# 6 0.0000 0.0000 0.0000 0.0000 0.0000 16.7942
#
#
#
# Elastic Compliance Matrix: (Units=1/GPa)
#
#
# Indices 1 2 3 4 5 6 
#
# 1 0.007864 -0.001752 -0.002785 0.000000 0.000000 0.000000
# 2 -0.001752 0.012371 -0.001796 0.000000 0.000000 0.000000
# 3 -0.002785 -0.001796 0.009429 0.000000 0.000000 0.000000
# 4 0.000000 0.000000 0.000000 0.022460 0.000000 0.000000
# 5 0.000000 0.000000 0.000000 0.000000 0.015266 0.000000
# 6 0.000000 0.000000 0.000000 0.000000 0.000000 0.059544
#
#
# Mechanical properties :
#
#
# Convention : Reuss Voigt Hill
#
# Bulk Modulus (GPa) = 58.83064 63.78777 61.30921
# Shear Modulus (GPa) = 34.41985 42.79031 38.60508
#
# Velocity S-wave (km/s) = 3.89725 4.34537 4.12739
# Velocity P-wave (km/s) = 6.79792 7.30233 7.05464
#
# Compressibility (1/GPa) = 0.01699794
#
# Stress axis : x y z
#
# Youngs Moduli (GPa) = 127.16354 80.83639 106.05882
#
# Poissons Ratio (x) = 0.14160 0.29542
# Poissons Ratio (y) = 0.22275 0.19044
# Poissons Ratio (z) = 0.35420 0.14515
#
# Static dielectric constant tensor:
#      x y z
#    x 1.812230 0.000000 0.000000 
#    y 0.000000 1.924800 0.000000 
#    z 0.000000 0.000000 1.842470 
# 
# From -- ./inp_files/23832.got.cif
#   From: 2010.05.17/outbox.cif.g08.bks.cpg/sg64_12_cif.got.tgz:23832.got - 2010.06.03 16:29:19.
