data_PCOD9479529
_publ_section_title
;
Structure prediction by ZEFSAII (Michael W. Deem and Ramdas Pophale) SiO2 
 PCOD9479529
Probable space group: C M C A
;
_chemical_formula_sum "Si O2"
_cell_formula_units_Z 96
_cell_length_a 8.824663
_cell_length_b 30.255226
_cell_length_c 19.716921
_cell_angle_alpha 90.000000
_cell_angle_beta 90.000000
_cell_angle_gamma 90.000000
_cell_volume 5264.263591
_symmetry_space_group_name_H-M "C M C A"
_symmetry_group_IT_number 64
_symmetry_cell_setting 'orthorhombic'
loop_
_space_group_symop_operation_xyz
x,y,z
-x,1/2-y,1/2+z
x,-y,-z
-x,1/2+y,1/2-z
-x,-y,-z
x,1/2+y,1/2-z
-x,y,z
x,1/2-y,1/2+z
1/2+x,1/2+y,z
1/2-x,-y,1/2+z
1/2+x,1/2-y,-z
1/2-x,y,1/2-z
1/2-x,1/2-y,-z
1/2+x,y,1/2-z
1/2-x,1/2+y,z
1/2+x,-y,1/2+z
loop_
_atom_site_type_symbol
_atom_site_label
_atom_site_fract_x
_atom_site_fract_y
_atom_site_fract_z
Si Si1 0.680657 0.380968 0.561857
Si Si2 0.817829 0.860413 0.084908
Si Si3 0.319227 0.818538 0.676440
Si Si4 0.182099 0.522715 0.427351
Si Si5 0.180687 0.785560 0.323669
Si Si6 0.817710 0.445421 0.324784
O O1 0.500000 0.378795 0.559810
O O2 0.748814 0.367582 0.489093
O O3 0.744791 0.348335 0.618982
O O4 0.735183 0.430706 0.577331
O O5 0.756369 0.816376 0.120287
O O6 0.773843 0.901911 0.132613
O O7 0.000000 0.859451 0.080126
O O8 0.500000 0.825142 0.677570
O O9 0.250000 0.829173 0.750000
O O10 0.290106 0.766395 0.663676
O O11 0.213896 0.500000 0.500000
O O12 0.226104 0.488530 0.368328
O O13 0.000000 0.529851 0.424309
O O14 0.250000 0.796605 0.250000
O O15 0.000000 0.792490 0.322207
O O16 0.750000 0.445152 0.250000
O O17 0.000000 0.445297 0.320053
#
# Coordination Sequence:
#
# PCOD9479529 Si02
#       6
#    16  16  16  16  16  16
#     4  12  25  39  61  92 122 156 201 252 306 361
#     4  11  22  39  61  87 121 163 203 245 301 360
#     4  10  22  42  65  88 120 159 202 250 302 360
#     4  10  20  41  64  82 115 160 202 242 296 359
#     4  10  21  38  61  90 121 159 202 248 302 359
#     4  10  22  38  60  88 118 155 197 244 295 355
#
# _framework density 18.236169
#
# number of rings (size 3 to 8) (size 9 to 14) (size 15 to 20)
#    0.000    1.500    1.667    3.500    0.000    7.000 
#    0.000    1.667    0.000    0.000    0.000    0.000 
#    0.000    0.000    0.000    0.000    0.000    0.000 
#
# Total GULP energy -268352.705630 kJ/mol
# GULP energy per Si atom -5590.681367 kJ/mol
# Density = 1.819466 g / cm^3
# Si number density = 18.236169 Si / 1000 Ang^3
#
#
#
# Elastic Constant Matrix: (Units=GPa)
#
#
# Indices 1 2 3 4 5 6 
#
# 1 88.5934 77.3076 81.5068 0.0000 0.0000 0.0000
# 2 77.3076 121.6800 111.9241 0.0000 0.0000 0.0000
# 3 81.5068 111.9241 194.5015 0.0000 0.0000 0.0000
# 4 0.0000 0.0000 0.0000 33.8466 0.0000 0.0000
# 5 0.0000 0.0000 0.0000 0.0000 37.4053 0.0000
# 6 0.0000 0.0000 0.0000 0.0000 0.0000 38.6684
#
#
#
# Elastic Compliance Matrix: (Units=1/GPa)
#
#
# Indices 1 2 3 4 5 6 
#
# 1 0.026112 -0.013862 -0.002966 0.000000 0.000000 0.000000
# 2 -0.013862 0.024819 -0.008473 0.000000 0.000000 0.000000
# 3 -0.002966 -0.008473 0.011260 0.000000 0.000000 0.000000
# 4 0.000000 0.000000 0.000000 0.029545 0.000000 0.000000
# 5 0.000000 0.000000 0.000000 0.000000 0.026734 0.000000
# 6 0.000000 0.000000 0.000000 0.000000 0.000000 0.025861
#
#
# Mechanical properties :
#
#
# Convention : Reuss Voigt Hill
#
# Bulk Modulus (GPa) = 86.28383 105.13909 95.71146
# Shear Modulus (GPa) = 25.15153 30.91983 28.03568
#
# Velocity S-wave (km/s) = 3.71780 4.12214 3.92518
# Velocity P-wave (km/s) = 8.11460 8.96858 8.55226
#
# Compressibility (1/GPa) = 0.01158966
#
# Stress axis : x y z
#
# Youngs Moduli (GPa) = 38.29632 40.29196 88.81260
#
# Poissons Ratio (x) = 0.55853 0.26338
# Poissons Ratio (y) = 0.53087 0.75249
# Poissons Ratio (z) = 0.11357 0.34138
#
# Static dielectric constant tensor:
#      x y z
#    x 1.608140 0.000000 0.000000 
#    y 0.000000 1.609670 0.000000 
#    z 0.000000 0.000000 1.588480 
# 
# From -- ./inp_files/37022.got.cif
#   From: 2010.05.17/outbox.cif.g08.bks.cpg/sg64_19_cif.got.tgz:37022.got - 2010.06.03 16:29:19.
