data_PCOD9479371
_publ_section_title
;
Structure prediction by ZEFSAII (Michael W. Deem and Ramdas Pophale) SiO2 
 PCOD9479371
Probable space group: C M C A
;
_chemical_formula_sum "Si O2"
_cell_formula_units_Z 104
_cell_length_a 12.160202
_cell_length_b 17.758878
_cell_length_c 25.121266
_cell_angle_alpha 90.000000
_cell_angle_beta 90.000000
_cell_angle_gamma 90.000000
_cell_volume 5424.976174
_symmetry_space_group_name_H-M "C M C A"
_symmetry_group_IT_number 64
_symmetry_cell_setting 'orthorhombic'
loop_
_space_group_symop_operation_xyz
x,y,z
-x,1/2-y,1/2+z
x,-y,-z
-x,1/2+y,1/2-z
-x,-y,-z
x,1/2+y,1/2-z
-x,y,z
x,1/2-y,1/2+z
1/2+x,1/2+y,z
1/2-x,-y,1/2+z
1/2+x,1/2-y,-z
1/2-x,y,1/2-z
1/2-x,1/2-y,-z
1/2+x,y,1/2-z
1/2-x,1/2+y,z
1/2+x,-y,1/2+z
loop_
_atom_site_type_symbol
_atom_site_label
_atom_site_fract_x
_atom_site_fract_y
_atom_site_fract_z
Si Si1 0.774236 0.225046 0.418264
Si Si2 0.764124 0.401839 0.074578
Si Si3 0.875961 0.388687 0.527047
Si Si4 0.769422 0.364724 0.807019
Si Si5 0.500000 0.922867 0.827804
Si Si6 0.500000 0.650926 0.437418
Si Si7 0.625570 0.015186 0.364239
Si Si8 0.000000 0.523067 0.925138
O O1 0.755492 0.313529 0.416437
O O2 0.675800 0.188486 0.451854
O O3 0.772512 0.189758 0.358556
O O4 0.887004 0.195714 0.447059
O O5 0.706905 0.446618 0.123000
O O6 0.888715 0.430262 0.066773
O O7 0.699251 0.418487 0.020089
O O8 0.875871 0.440769 0.579182
O O9 0.000000 0.381036 0.507191
O O10 0.750000 0.326681 0.750000
O O11 0.884866 0.408924 0.800192
O O12 0.678348 0.427163 0.822375
O O13 0.500000 0.858904 0.873699
O O14 0.500000 0.998399 0.862695
O O15 0.500000 0.561079 0.453583
O O16 0.500000 0.993974 0.351341
#
# Coordination Sequence:
#
# PCOD9479371 Si02
#       8
#    16  16  16  16   8   8  16   8
#     4  10  22  38  59  87 122 155 200 251 302 362
#     4  12  22  36  60  88 122 159 200 250 307 350
#     4  10  22  39  57  82 124 163 200 241 298 370
#     4  10  20  39  65  85 111 156 205 244 300 370
#     4   8  16  38  59  83 114 143 199 248 287 341
#     4   8  18  39  60  77 116 162 193 242 295 362
#     4  10  21  38  59  88 118 153 198 250 301 361
#     4  10  20  39  61  85 121 159 200 250 301 351
#
# _framework density 19.170591999999999
#
# number of rings (size 3 to 8) (size 9 to 14) (size 15 to 20)
#    0.462    1.538    1.538    2.308    4.308    1.846 
#    0.000    3.846    0.000    0.000    0.000    0.000 
#    0.000    0.000    0.000    0.000    0.000    0.000 
#
# Total GULP energy -289835.106316 kJ/mol
# GULP energy per Si atom -5573.752045 kJ/mol
# Density = 1.912696 g / cm^3
# Si number density = 19.170592 Si / 1000 Ang^3
#
#
#
# Elastic Constant Matrix: (Units=GPa)
#
#
# Indices 1 2 3 4 5 6 
#
# 1 172.6061 60.7870 29.0532 0.0000 0.0000 0.0000
# 2 60.7870 131.0683 12.7768 0.0000 0.0000 0.0000
# 3 29.0532 12.7768 75.5372 0.0000 0.0000 0.0000
# 4 0.0000 0.0000 0.0000 14.9073 0.0000 0.0000
# 5 0.0000 0.0000 0.0000 0.0000 -8.3235 0.0000
# 6 0.0000 0.0000 0.0000 0.0000 0.0000 19.9484
#
#
#
# Elastic Compliance Matrix: (Units=1/GPa)
#
#
# Indices 1 2 3 4 5 6 
#
# 1 0.007288 -0.003159 -0.002269 0.000000 0.000000 0.000000
# 2 -0.003159 0.009127 -0.000329 0.000000 0.000000 0.000000
# 3 -0.002269 -0.000329 0.014167 0.000000 0.000000 0.000000
# 4 0.000000 0.000000 0.000000 0.067081 0.000000 0.000000
# 5 0.000000 0.000000 0.000000 0.000000 -0.120142 0.000000
# 6 0.000000 0.000000 0.000000 0.000000 0.000000 0.050129
#
#
# Mechanical properties :
#
#
# Convention : Reuss Voigt Hill
#
# Bulk Modulus (GPa) = 52.44242 64.93839 58.69040
# Shear Modulus (GPa) = 109.84437 23.74607 66.79522
#
# Velocity S-wave (km/s) = 7.57778 3.52330 5.90916
# Velocity P-wave (km/s) = 10.19700 7.10626 8.78856
#
# Compressibility (1/GPa) = 0.01906853
#
# Stress axis : x y z
#
# Youngs Moduli (GPa) = 137.21449 109.56911 70.58783
#
# Poissons Ratio (x) = 0.34611 0.16015
# Poissons Ratio (y) = 0.43343 0.02321
# Poissons Ratio (z) = 0.31131 0.03603
#
# Static dielectric constant tensor:
#      x y z
#    x 1.702300 0.000000 0.000000 
#    y 0.000000 1.712600 0.000000 
#    z 0.000000 0.000000 1.699060 
# 
# From -- ./inp_files/49408.got.cif
#   From: 2010.05.17/outbox.cif.g08.bks.cpg/sg64_25_cif.got.tgz:49408.got - 2010.06.03 16:29:19.
