data_PCOD9479206
_publ_section_title
;
Structure prediction by ZEFSAII (Michael W. Deem and Ramdas Pophale) SiO2 
 PCOD9479206
Probable space group: C M C A
;
_chemical_formula_sum "Si O2"
_cell_formula_units_Z 96
_cell_length_a 8.700336
_cell_length_b 30.703383
_cell_length_c 19.726857
_cell_angle_alpha 90.000000
_cell_angle_beta 90.000000
_cell_angle_gamma 90.000000
_cell_volume 5269.630348
_symmetry_space_group_name_H-M "C M C A"
_symmetry_group_IT_number 64
_symmetry_cell_setting 'orthorhombic'
loop_
_space_group_symop_operation_xyz
x,y,z
-x,1/2-y,1/2+z
x,-y,-z
-x,1/2+y,1/2-z
-x,-y,-z
x,1/2+y,1/2-z
-x,y,z
x,1/2-y,1/2+z
1/2+x,1/2+y,z
1/2-x,-y,1/2+z
1/2+x,1/2-y,-z
1/2-x,y,1/2-z
1/2-x,1/2-y,-z
1/2+x,y,1/2-z
1/2-x,1/2+y,z
1/2+x,-y,1/2+z
loop_
_atom_site_type_symbol
_atom_site_label
_atom_site_fract_x
_atom_site_fract_y
_atom_site_fract_z
Si Si1 0.814894 0.304003 0.825310
Si Si2 0.815213 0.563182 0.823923
Si Si3 0.684371 0.730426 0.930336
Si Si4 0.316571 0.967708 0.675675
Si Si5 0.685660 0.610253 0.410463
Si Si6 0.185240 0.134528 0.563801
O O1 0.750000 0.303961 0.750000
O O2 0.766269 0.262018 0.868992
O O3 0.769639 0.347498 0.866253
O O4 0.000000 0.303822 0.821977
O O5 0.750000 0.575116 0.750000
O O6 0.748171 0.515626 0.840916
O O7 0.772874 0.598822 0.880012
O O8 0.000000 0.560115 0.820387
O O9 0.500000 0.731349 0.933837
O O10 0.741915 0.681345 0.921907
O O11 0.750000 0.750000 0.000000
O O12 0.500000 0.969131 0.679567
O O13 0.250000 0.955971 0.750000
O O14 0.260981 0.932220 0.621907
O O15 0.500000 0.605925 0.407389
O O16 0.728999 0.618659 0.488453
O O17 0.000000 0.139365 0.564236
#
# Coordination Sequence:
#
# PCOD9479206 Si02
#       6
#    16  16  16  16  16  16
#     4  10  22  38  58  85 117 151 193 239 285 341
#     4  10  21  39  62  85 115 155 196 241 293 345
#     4  11  22  39  61  85 116 155 195 238 289 344
#     4  11  22  37  58  85 117 153 196 240 291 345
#     4  10  20  38  59  83 118 152 192 238 289 349
#     4  10  22  40  62  87 116 153 194 239 292 350
#
# _framework density 18.217597000000001
#
# number of rings (size 3 to 8) (size 9 to 14) (size 15 to 20)
#    0.000    1.667    1.667    4.000    0.000    6.667 
#    0.000    6.667    0.000    0.000    0.000    0.000 
#    0.000    0.000    0.000    0.000    0.000    0.000 
#
# Total GULP energy -268230.207471 kJ/mol
# GULP energy per Si atom -5588.129322 kJ/mol
# Density = 1.817613 g / cm^3
# Si number density = 18.217597 Si / 1000 Ang^3
#
#
#
# Elastic Constant Matrix: (Units=GPa)
#
#
# Indices 1 2 3 4 5 6 
#
# 1 53.9106 59.4408 56.2146 0.0000 0.0000 0.0000
# 2 59.4408 162.5027 131.2571 0.0000 0.0000 0.0000
# 3 56.2146 131.2571 180.3257 0.0000 0.0000 0.0000
# 4 0.0000 0.0000 0.0000 40.0408 0.0000 0.0000
# 5 0.0000 0.0000 0.0000 0.0000 32.0355 0.0000
# 6 0.0000 0.0000 0.0000 0.0000 0.0000 33.5423
#
#
#
# Elastic Compliance Matrix: (Units=1/GPa)
#
#
# Indices 1 2 3 4 5 6 
#
# 1 0.031987 -0.008848 -0.003531 0.000000 0.000000 0.000000
# 2 -0.008848 0.017381 -0.009893 0.000000 0.000000 0.000000
# 3 -0.003531 -0.009893 0.013848 0.000000 0.000000 0.000000
# 4 0.000000 0.000000 0.000000 0.024974 0.000000 0.000000
# 5 0.000000 0.000000 0.000000 0.000000 0.031215 0.000000
# 6 0.000000 0.000000 0.000000 0.000000 0.000000 0.029813
#
#
# Mechanical properties :
#
#
# Convention : Reuss Voigt Hill
#
# Bulk Modulus (GPa) = 53.55992 98.95154 76.25573
# Shear Modulus (GPa) = 25.00150 31.11216 28.05683
#
# Velocity S-wave (km/s) = 3.70859 4.13705 3.92866
# Velocity P-wave (km/s) = 6.91390 8.78946 7.90749
#
# Compressibility (1/GPa) = 0.01867068
#
# Stress axis : x y z
#
# Youngs Moduli (GPa) = 31.26261 57.53284 72.21453
#
# Poissons Ratio (x) = 0.50906 0.25500
# Poissons Ratio (y) = 0.27662 0.71445
# Poissons Ratio (z) = 0.11039 0.56920
#
# Static dielectric constant tensor:
#      x y z
#    x 1.617930 0.000000 0.000000 
#    y 0.000000 1.600800 0.000000 
#    z 0.000000 0.000000 1.602160 
# 
# From -- ./inp_files/37041.got.cif
#   From: 2010.05.17/outbox.cif.g08.bks.cpg/sg64_19_cif.got.tgz:37041.got - 2010.06.03 16:29:19.
