data_PCOD9479964
_publ_section_title
;
Structure prediction by ZEFSAII (Michael W. Deem and Ramdas Pophale) SiO2 
 PCOD9479964
Probable space group: C M C A
;
_chemical_formula_sum "Si O2"
_cell_formula_units_Z 72
_cell_length_a 24.627009
_cell_length_b 34.839240
_cell_length_c 5.054036
_cell_angle_alpha 90.000000
_cell_angle_beta 90.000000
_cell_angle_gamma 90.000000
_cell_volume 4336.293532
_symmetry_space_group_name_H-M "C M C A"
_symmetry_group_IT_number 64
_symmetry_cell_setting 'orthorhombic'
loop_
_space_group_symop_operation_xyz
x,y,z
-x,1/2-y,1/2+z
x,-y,-z
-x,1/2+y,1/2-z
-x,-y,-z
x,1/2+y,1/2-z
-x,y,z
x,1/2-y,1/2+z
1/2+x,1/2+y,z
1/2-x,-y,1/2+z
1/2+x,1/2-y,-z
1/2-x,y,1/2-z
1/2-x,1/2-y,-z
1/2+x,y,1/2-z
1/2-x,1/2+y,z
1/2+x,-y,1/2+z
loop_
_atom_site_type_symbol
_atom_site_label
_atom_site_fract_x
_atom_site_fract_y
_atom_site_fract_z
Si Si1 0.289719 0.958832 0.004350
Si Si2 0.064873 0.725006 0.413373
Si Si3 0.684389 0.879732 0.234183
Si Si4 0.650438 0.663792 0.233896
Si Si5 0.250000 0.722356 0.250000
O O1 0.250000 0.951108 0.750000
O O2 0.250000 0.965335 0.250000
O O3 0.322455 0.921534 0.099097
O O4 0.320086 0.000000 0.000000
O O5 0.079492 0.742283 0.698423
O O6 0.096173 0.686359 0.341206
O O7 0.000000 0.719397 0.401570
O O8 0.750000 0.873489 0.250000
O O9 0.662450 0.870560 0.526246
O O10 0.655184 0.851102 0.032161
O O11 0.698521 0.694842 0.213790
O O12 0.250000 0.750000 0.500000
#
# Coordination Sequence:
#
# PCOD9479964 Si02
#       5
#    16  16  16  16   8
#     4   9  17  29  46  67  95 134 169 192 222 281
#     4  10  21  38  55  69  89 123 167 214 253 283
#     4  11  19  32  46  71 103 131 156 191 243 288
#     4  12  21  33  49  71  97 127 161 200 245 290
#     4  12  22  32  44  64  94 126 158 188 232 292
#
# _framework density 16.604040999999999
#
# number of rings (size 3 to 8) (size 9 to 14) (size 15 to 20)
#    0.000    1.333    2.222    6.667    0.000    0.000 
#    0.000    0.000    0.000    0.000    0.000    0.000 
#    0.000    5.333    0.000    0.000    0.000    0.000 
#
# Total GULP energy -200656.396012 kJ/mol
# GULP energy per Si atom -5573.788778 kJ/mol
# Density = 1.656625 g / cm^3
# Si number density = 16.604041 Si / 1000 Ang^3
#
#
#
# Elastic Constant Matrix: (Units=GPa)
#
#
# Indices 1 2 3 4 5 6 
#
# 1 22.9631 11.7066 -1.5932 0.0000 0.0000 0.0000
# 2 11.7066 78.8220 3.9232 0.0000 0.0000 0.0000
# 3 -1.5932 3.9232 86.9630 0.0000 0.0000 0.0000
# 4 0.0000 0.0000 0.0000 31.3055 0.0000 0.0000
# 5 0.0000 0.0000 0.0000 0.0000 12.9597 0.0000
# 6 0.0000 0.0000 0.0000 0.0000 0.0000 13.2329
#
#
#
# Elastic Compliance Matrix: (Units=1/GPa)
#
#
# Indices 1 2 3 4 5 6 
#
# 1 0.047237 -0.007075 0.001185 0.000000 0.000000 0.000000
# 2 -0.007075 0.013775 -0.000751 0.000000 0.000000 0.000000
# 3 0.001185 -0.000751 0.011555 0.000000 0.000000 0.000000
# 4 0.000000 0.000000 0.000000 0.031943 0.000000 0.000000
# 5 0.000000 0.000000 0.000000 0.000000 0.077163 0.000000
# 6 0.000000 0.000000 0.000000 0.000000 0.000000 0.075569
#
#
# Mechanical properties :
#
#
# Convention : Reuss Voigt Hill
#
# Bulk Modulus (GPa) = 16.86782 24.09126 20.47954
# Shear Modulus (GPa) = 17.22443 23.14703 20.18573
#
# Velocity S-wave (km/s) = 3.22431 3.73776 3.49049
# Velocity P-wave (km/s) = 4.90331 5.75922 5.34841
#
# Compressibility (1/GPa) = 0.05928447
#
# Stress axis : x y z
#
# Youngs Moduli (GPa) = 21.16986 72.59578 86.54466
#
# Poissons Ratio (x) = 0.51358 -0.10252
# Poissons Ratio (y) = 0.14977 0.06500
# Poissons Ratio (z) = -0.02508 0.05452
#
# Static dielectric constant tensor:
#      x y z
#    x 1.539660 0.000000 0.000000 
#    y 0.000000 1.593600 0.000000 
#    z 0.000000 0.000000 1.565350 
# 
# From -- ./inp_files/2319.got.cif
#   From: 2010.05.17/outbox.cif.g08.bks.cpg/sg64_2_cif.got.tgz:2319.got - 2010.06.03 16:29:19.
