data_PCOD9479354
_publ_section_title
;
Structure prediction by ZEFSAII (Michael W. Deem and Ramdas Pophale) SiO2 
 PCOD9479354
Probable space group: C M C A
;
_chemical_formula_sum "Si O2"
_cell_formula_units_Z 104
_cell_length_a 28.721596
_cell_length_b 8.820391
_cell_length_c 20.740894
_cell_angle_alpha 90.000000
_cell_angle_beta 90.000000
_cell_angle_gamma 90.000000
_cell_volume 5254.409042
_symmetry_space_group_name_H-M "C M C A"
_symmetry_group_IT_number 64
_symmetry_cell_setting 'orthorhombic'
loop_
_space_group_symop_operation_xyz
x,y,z
-x,1/2-y,1/2+z
x,-y,-z
-x,1/2+y,1/2-z
-x,-y,-z
x,1/2+y,1/2-z
-x,y,z
x,1/2-y,1/2+z
1/2+x,1/2+y,z
1/2-x,-y,1/2+z
1/2+x,1/2-y,-z
1/2-x,y,1/2-z
1/2-x,1/2-y,-z
1/2+x,y,1/2-z
1/2-x,1/2+y,z
1/2+x,-y,1/2+z
loop_
_atom_site_type_symbol
_atom_site_label
_atom_site_fract_x
_atom_site_fract_y
_atom_site_fract_z
Si Si1 0.148121 0.000000 0.500000
Si Si2 0.352167 0.709413 0.184857
Si Si3 0.201180 0.982623 0.712380
Si Si4 0.500000 0.825305 0.516432
Si Si5 0.218343 0.698004 0.081893
Si Si6 0.188851 0.534673 0.432498
Si Si7 0.576755 0.348160 0.400879
Si Si8 0.000000 0.568031 0.073753
O O1 0.179939 0.120456 0.463071
O O2 0.117232 0.091594 0.551691
O O3 0.338387 0.602738 0.244990
O O4 0.341452 0.606560 0.122767
O O5 0.402024 0.780528 0.164877
O O6 0.317816 0.853622 0.191216
O O7 0.250000 0.999073 0.750000
O O8 0.212367 0.879688 0.651117
O O9 0.544448 0.769410 0.558967
O O10 0.500000 0.741277 0.446485
O O11 0.500000 0.000000 0.500000
O O12 0.211174 0.876159 0.089224
O O13 0.268810 0.650723 0.055683
O O14 0.164027 0.500000 0.500000
O O15 0.544510 0.496906 0.391608
O O16 0.000000 0.500000 0.000000
#
# Coordination Sequence:
#
# PCOD9479354 Si02
#       8
#     8  16  16   8  16  16  16   8
#     4  12  20  37  66  96 132 164 210 259 346 374
#     4  12  25  42  64  92 125 176 229 278 311 392
#     4  12  25  41  62  86 126 182 238 270 315 364
#     4  10  20  38  70 102 137 162 196 254 328 415
#     4  12  25  38  60  86 127 176 217 279 319 387
#     4  12  25  41  57  89 128 169 220 274 347 378
#     4  10  20  39  64  96 129 161 203 255 328 394
#     4   8  16  38  62  90 127 162 190 240 326 403
#
# _framework density 19.792902000000002
#
# number of rings (size 3 to 8) (size 9 to 14) (size 15 to 20)
#    0.000    0.923    6.154    3.692    0.000    1.846 
#    0.000    0.000    0.000    3.692    0.000    0.000 
#    0.000    0.000    0.000    0.000    0.000    0.000 
#
# Total GULP energy -290507.014318 kJ/mol
# GULP energy per Si atom -5586.673352 kJ/mol
# Density = 1.974785 g / cm^3
# Si number density = 19.792902 Si / 1000 Ang^3
#
#
#
# Elastic Constant Matrix: (Units=GPa)
#
#
# Indices 1 2 3 4 5 6 
#
# 1 76.3412 12.8546 19.4130 0.0000 0.0000 0.0000
# 2 12.8546 133.8751 23.5389 0.0000 0.0000 0.0000
# 3 19.4130 23.5389 82.9868 0.0000 0.0000 0.0000
# 4 0.0000 0.0000 0.0000 27.4180 0.0000 0.0000
# 5 0.0000 0.0000 0.0000 0.0000 22.1725 0.0000
# 6 0.0000 0.0000 0.0000 0.0000 0.0000 20.0254
#
#
#
# Elastic Compliance Matrix: (Units=1/GPa)
#
#
# Indices 1 2 3 4 5 6 
#
# 1 0.014010 -0.000809 -0.003048 0.000000 0.000000 0.000000
# 2 -0.000809 0.007908 -0.002054 0.000000 0.000000 0.000000
# 3 -0.003048 -0.002054 0.013346 0.000000 0.000000 0.000000
# 4 0.000000 0.000000 0.000000 0.036472 0.000000 0.000000
# 5 0.000000 0.000000 0.000000 0.000000 0.045101 0.000000
# 6 0.000000 0.000000 0.000000 0.000000 0.000000 0.049937
#
#
# Mechanical properties :
#
#
# Convention : Reuss Voigt Hill
#
# Bulk Modulus (GPa) = 42.65785 44.97957 43.81871
# Shear Modulus (GPa) = 26.82245 29.74960 28.28603
#
# Velocity S-wave (km/s) = 3.68524 3.88112 3.78444
# Velocity P-wave (km/s) = 6.30134 6.54664 6.42516
#
# Compressibility (1/GPa) = 0.02344235
#
# Stress axis : x y z
#
# Youngs Moduli (GPa) = 71.37549 126.44630 74.93064
#
# Poissons Ratio (x) = 0.10234 0.22838
# Poissons Ratio (y) = 0.05777 0.15390
# Poissons Ratio (z) = 0.21754 0.25971
#
# Static dielectric constant tensor:
#      x y z
#    x 1.729970 0.000000 0.000000 
#    y 0.000000 1.721960 0.000000 
#    z 0.000000 0.000000 1.730250 
# 
# From -- ./inp_files/41890.got.cif
#   From: 2010.05.17/outbox.cif.g08.bks.cpg/sg64_21_cif.got.tgz:41890.got - 2010.06.03 16:29:19.
