data_PCOD9479502
_publ_section_title
;
Structure prediction by ZEFSAII (Michael W. Deem and Ramdas Pophale) SiO2 
 PCOD9479502
Probable space group: C M C A
;
_chemical_formula_sum "Si O2"
_cell_formula_units_Z 116
_cell_length_a 16.064129
_cell_length_b 13.218597
_cell_length_c 26.215234
_cell_angle_alpha 90.000000
_cell_angle_beta 90.000000
_cell_angle_gamma 90.000000
_cell_volume 5566.680350
_symmetry_space_group_name_H-M "C M C A"
_symmetry_group_IT_number 64
_symmetry_cell_setting 'orthorhombic'
loop_
_space_group_symop_operation_xyz
x,y,z
-x,1/2-y,1/2+z
x,-y,-z
-x,1/2+y,1/2-z
-x,-y,-z
x,1/2+y,1/2-z
-x,y,z
x,1/2-y,1/2+z
1/2+x,1/2+y,z
1/2-x,-y,1/2+z
1/2+x,1/2-y,-z
1/2-x,y,1/2-z
1/2-x,1/2-y,-z
1/2+x,y,1/2-z
1/2-x,1/2+y,z
1/2+x,-y,1/2+z
loop_
_atom_site_type_symbol
_atom_site_label
_atom_site_fract_x
_atom_site_fract_y
_atom_site_fract_z
Si Si1 0.149173 0.549266 0.925383
Si Si2 0.314400 0.658863 0.207815
Si Si3 0.500000 0.000000 0.000000
Si Si4 0.402520 0.480769 0.158080
Si Si5 0.095029 0.788342 0.216000
Si Si6 0.094903 0.841676 0.616756
Si Si7 0.767282 0.737798 0.402942
Si Si8 0.174546 0.042605 0.051060
O O1 0.118111 0.460254 0.886871
O O2 0.185239 0.655454 0.904610
O O3 0.232202 0.499925 0.948006
O O4 0.074258 0.556292 0.965736
O O5 0.250000 0.617970 0.250000
O O6 0.382598 0.575821 0.193681
O O7 0.354473 0.754987 0.235182
O O8 0.275832 0.690539 0.153825
O O9 0.500000 0.463775 0.152690
O O10 0.366212 0.382235 0.185637
O O11 0.366912 0.501080 0.102398
O O12 0.092522 0.698153 0.174561
O O13 0.000000 0.812143 0.230523
O O14 0.167111 0.775521 0.588352
O O15 0.000000 0.830428 0.595246
O O16 0.814682 0.662878 0.442142
O O17 0.133238 0.000000 0.000000
#
# Coordination Sequence:
#
# PCOD9479502 Si02
#       8
#    16  16   4  16  16  16  16  16
#     4  11  23  44  68  98 138 175 224 297 349 421
#     4  11  22  40  64  96 131 178 229 286 344 434
#     4  12  24  48  68 108 136 180 236 304 356 420
#     4  10  23  43  64  94 140 177 227 299 349 417
#     4  10  21  39  62  93 127 175 224 275 349 418
#     4  10  20  40  67  96 136 174 227 281 343 418
#     4  10  23  42  65 101 138 180 232 286 359 420
#     4  10  22  42  67  98 135 183 235 287 354 428
#
# _framework density 20.838272
#
# number of rings (size 3 to 8) (size 9 to 14) (size 15 to 20)
#    0.000    1.655    2.759    1.241    0.000    2.483 
#    8.690    1.379    0.000    0.000    0.000    0.000 
#    0.000    0.000    0.000    0.000    0.000    0.000 
#
# Total GULP energy -322875.306601 kJ/mol
# GULP energy per Si atom -5566.815631 kJ/mol
# Density = 2.079084 g / cm^3
# Si number density = 20.838272 Si / 1000 Ang^3
#
#
#
# Elastic Constant Matrix: (Units=GPa)
#
#
# Indices 1 2 3 4 5 6 
#
# 1 92.9536 31.6656 26.8622 0.0000 0.0000 0.0000
# 2 31.6656 90.9545 18.4350 0.0000 0.0000 0.0000
# 3 26.8622 18.4350 46.1851 0.0000 0.0000 0.0000
# 4 0.0000 0.0000 0.0000 14.5315 0.0000 0.0000
# 5 0.0000 0.0000 0.0000 0.0000 20.8718 0.0000
# 6 0.0000 0.0000 0.0000 0.0000 0.0000 24.3082
#
#
#
# Elastic Compliance Matrix: (Units=1/GPa)
#
#
# Indices 1 2 3 4 5 6 
#
# 1 0.013873 -0.003476 -0.006681 0.000000 0.000000 0.000000
# 2 -0.003476 0.012833 -0.003101 0.000000 0.000000 0.000000
# 3 -0.006681 -0.003101 0.026776 0.000000 0.000000 0.000000
# 4 0.000000 0.000000 0.000000 0.068816 0.000000 0.000000
# 5 0.000000 0.000000 0.000000 0.000000 0.047912 0.000000
# 6 0.000000 0.000000 0.000000 0.000000 0.000000 0.041138
#
#
# Mechanical properties :
#
#
# Convention : Reuss Voigt Hill
#
# Bulk Modulus (GPa) = 37.08393 42.66876 39.87635
# Shear Modulus (GPa) = 20.25502 22.15098 21.20300
#
# Velocity S-wave (km/s) = 3.12109 3.26390 3.19329
# Velocity P-wave (km/s) = 5.55184 5.89276 5.72484
#
# Compressibility (1/GPa) = 0.02696586
#
# Stress axis : x y z
#
# Youngs Moduli (GPa) = 72.08306 77.92394 37.34711
#
# Poissons Ratio (x) = 0.27083 0.24953
# Poissons Ratio (y) = 0.25053 0.11581
# Poissons Ratio (z) = 0.48162 0.24164
#
# Static dielectric constant tensor:
#      x y z
#    x 1.785810 0.000000 0.000000 
#    y 0.000000 1.794660 0.000000 
#    z 0.000000 0.000000 1.767710 
# 
# From -- ./inp_files/50484.got.cif
#   From: 2010.05.17/outbox.cif.g08.bks.cpg/sg64_26_cif.got.tgz:50484.got - 2010.06.03 16:29:19.
