data_PCOD9479939
_publ_section_title
;
Structure prediction by ZEFSAII (Michael W. Deem and Ramdas Pophale) SiO2 
 PCOD9479939
Probable space group: C M C A
;
_chemical_formula_sum "Si O2"
_cell_formula_units_Z 112
_cell_length_a 16.651385
_cell_length_b 11.208093
_cell_length_c 29.384468
_cell_angle_alpha 90.000000
_cell_angle_beta 90.000000
_cell_angle_gamma 90.000000
_cell_volume 5484.031245
_symmetry_space_group_name_H-M "C M C A"
_symmetry_group_IT_number 64
_symmetry_cell_setting 'orthorhombic'
loop_
_space_group_symop_operation_xyz
x,y,z
-x,1/2-y,1/2+z
x,-y,-z
-x,1/2+y,1/2-z
-x,-y,-z
x,1/2+y,1/2-z
-x,y,z
x,1/2-y,1/2+z
1/2+x,1/2+y,z
1/2-x,-y,1/2+z
1/2+x,1/2-y,-z
1/2-x,y,1/2-z
1/2-x,1/2-y,-z
1/2+x,y,1/2-z
1/2-x,1/2+y,z
1/2+x,-y,1/2+z
loop_
_atom_site_type_symbol
_atom_site_label
_atom_site_fract_x
_atom_site_fract_y
_atom_site_fract_z
Si Si1 0.409069 0.737906 0.898680
Si Si2 0.184532 0.127297 0.663961
Si Si3 0.905153 0.893240 0.679895
Si Si4 0.667027 0.649384 0.230305
Si Si5 0.902464 0.136263 0.992462
Si Si6 0.096838 0.782949 0.908454
Si Si7 0.641066 0.511625 0.850156
O O1 0.500000 0.777998 0.909189
O O2 0.368934 0.836446 0.866376
O O3 0.370944 0.697108 0.946268
O O4 0.411890 0.621417 0.866732
O O5 0.189315 0.237266 0.699246
O O6 0.141828 0.179403 0.618919
O O7 0.269697 0.067016 0.653038
O O8 0.128784 0.025152 0.684959
O O9 0.883112 0.819921 0.724989
O O10 0.000000 0.895168 0.675143
O O11 0.750000 0.597804 0.250000
O O12 0.624666 0.552721 0.197936
O O13 0.000000 0.127892 0.987375
O O14 0.886773 0.211541 0.037826
O O15 0.874319 0.000000 0.000000
O O16 0.000000 0.776301 0.901646
O O17 0.128319 0.906907 0.886840
#
# Coordination Sequence:
#
# PCOD9479939 Si02
#       7
#    16  16  16  16  16  16  16
#     4  10  21  37  62  94 125 160 210 260 309 368
#     4  11  25  41  62  88 129 165 203 258 321 381
#     4  11  25  41  61  89 124 162 208 264 314 368
#     4  11  24  41  62  85 114 166 216 245 308 383
#     4   9  16  34  64  93 122 160 208 260 309 367
#     4  10  21  40  68  96 122 164 216 262 308 372
#     4  11  22  37  64  90 125 162 203 255 318 370
#
# _framework density 20.422931999999999
#
# number of rings (size 3 to 8) (size 9 to 14) (size 15 to 20)
#    0.000    1.571    2.857    1.714    6.000    3.429 
#    0.000    1.429    3.143    3.429    0.000    0.000 
#    0.000    0.000    0.000    0.000    0.000    0.000 
#
# Total GULP energy -312511.587723 kJ/mol
# GULP energy per Si atom -5580.564066 kJ/mol
# Density = 2.037645 g / cm^3
# Si number density = 20.422932 Si / 1000 Ang^3
#
#
#
# Elastic Constant Matrix: (Units=GPa)
#
#
# Indices 1 2 3 4 5 6 
#
# 1 53.5848 6.3408 26.6882 0.0000 0.0000 0.0000
# 2 6.3408 46.0191 30.3313 0.0000 0.0000 0.0000
# 3 26.6882 30.3313 143.5601 0.0000 0.0000 0.0000
# 4 0.0000 0.0000 0.0000 26.3535 0.0000 0.0000
# 5 0.0000 0.0000 0.0000 0.0000 440.3432 0.0000
# 6 0.0000 0.0000 0.0000 0.0000 0.0000 17.9456
#
#
#
# Elastic Compliance Matrix: (Units=1/GPa)
#
#
# Indices 1 2 3 4 5 6 
#
# 1 0.020571 -0.000365 -0.003747 0.000000 0.000000 0.000000
# 2 -0.000365 0.025252 -0.005267 0.000000 0.000000 0.000000
# 3 -0.003747 -0.005267 0.008775 0.000000 0.000000 0.000000
# 4 0.000000 0.000000 0.000000 0.037946 0.000000 0.000000
# 5 0.000000 0.000000 0.000000 0.000000 0.002271 0.000000
# 6 0.000000 0.000000 0.000000 0.000000 0.000000 0.055724
#
#
# Mechanical properties :
#
#
# Convention : Reuss Voigt Hill
#
# Bulk Modulus (GPa) = 27.90167 41.09829 34.49998
# Shear Modulus (GPa) = 27.58696 108.91536 68.25116
#
# Velocity S-wave (km/s) = 3.67929 7.31066 5.78718
# Velocity P-wave (km/s) = 5.63393 9.56181 7.84759
#
# Compressibility (1/GPa) = 0.03584015
#
# Stress axis : x y z
#
# Youngs Moduli (GPa) = 48.61096 39.60056 113.95672
#
# Poissons Ratio (x) = 0.01444 0.42702
# Poissons Ratio (y) = 0.01773 0.60026
# Poissons Ratio (z) = 0.18216 0.20860
#
# Static dielectric constant tensor:
#      x y z
#    x 1.760090 0.000000 0.000000 
#    y 0.000000 1.721500 0.000000 
#    z 0.000000 0.000000 1.753980 
# 
# From -- ./inp_files/53240.got.cif
#   From: 2010.05.17/outbox.cif.g08.bks.cpg/sg64_27_cif.got.tgz:53240.got - 2010.06.03 16:29:19.
