data_PCOD9479417
_publ_section_title
;
Structure prediction by ZEFSAII (Michael W. Deem and Ramdas Pophale) SiO2 
 PCOD9479417
Probable space group: C M C A
;
_chemical_formula_sum "Si O2"
_cell_formula_units_Z 96
_cell_length_a 14.116679
_cell_length_b 13.858459
_cell_length_c 23.309482
_cell_angle_alpha 90.000000
_cell_angle_beta 90.000000
_cell_angle_gamma 90.000000
_cell_volume 4560.160234
_symmetry_space_group_name_H-M "C M C A"
_symmetry_group_IT_number 64
_symmetry_cell_setting 'orthorhombic'
loop_
_space_group_symop_operation_xyz
x,y,z
-x,1/2-y,1/2+z
x,-y,-z
-x,1/2+y,1/2-z
-x,-y,-z
x,1/2+y,1/2-z
-x,y,z
x,1/2-y,1/2+z
1/2+x,1/2+y,z
1/2-x,-y,1/2+z
1/2+x,1/2-y,-z
1/2-x,y,1/2-z
1/2-x,1/2-y,-z
1/2+x,y,1/2-z
1/2-x,1/2+y,z
1/2+x,-y,1/2+z
loop_
_atom_site_type_symbol
_atom_site_label
_atom_site_fract_x
_atom_site_fract_y
_atom_site_fract_z
Si Si1 0.778059 0.597725 0.425057
Si Si2 0.614869 0.404461 0.270435
Si Si3 0.612622 0.224537 0.878321
Si Si4 0.389172 0.806100 0.340566
Si Si5 0.271085 0.875977 0.442351
Si Si6 0.110629 0.409452 0.839986
O O1 0.844152 0.669273 0.388523
O O2 0.804440 0.485118 0.429102
O O3 0.778650 0.637591 0.489848
O O4 0.675113 0.592509 0.396161
O O5 0.500000 0.407642 0.265581
O O6 0.634988 0.319472 0.315800
O O7 0.650384 0.379463 0.207037
O O8 0.643971 0.506316 0.297509
O O9 0.500000 0.225239 0.886271
O O10 0.665259 0.151006 0.921849
O O11 0.500000 0.825610 0.350943
O O12 0.335091 0.811528 0.400546
O O13 0.382204 0.698352 0.315125
O O14 0.000000 0.427428 0.853471
#
# Coordination Sequence:
#
# PCOD9479417 Si02
#       6
#    16  16  16  16  16  16
#     4  11  24  42  62  95 130 167 223 273 317 389
#     4   9  20  40  64  95 131 164 215 273 324 391
#     4  11  23  41  64  93 130 172 213 268 328 379
#     4  10  22  40  65  94 128 169 212 268 333 391
#     4  11  24  42  63  92 133 170 218 272 321 390
#     4  10  20  39  66  95 128 170 218 271 328 388
#
# _framework density 21.051891999999999
#
# number of rings (size 3 to 8) (size 9 to 14) (size 15 to 20)
#    0.000    1.667    3.333    0.500    0.000    4.000 
#    0.000    8.333    0.000    0.000    0.000    0.000 
#    0.000    0.000    0.000    0.000    0.000    0.000 
#
# Total GULP energy -268011.720080 kJ/mol
# GULP energy per Si atom -5583.577502 kJ/mol
# Density = 2.100398 g / cm^3
# Si number density = 21.051892 Si / 1000 Ang^3
#
#
#
# Elastic Constant Matrix: (Units=GPa)
#
#
# Indices 1 2 3 4 5 6 
#
# 1 99.7380 39.7415 43.2468 0.0000 0.0000 0.0000
# 2 39.7415 88.3335 17.2732 0.0000 0.0000 0.0000
# 3 43.2468 17.2732 91.2943 0.0000 0.0000 0.0000
# 4 0.0000 0.0000 0.0000 21.8433 0.0000 0.0000
# 5 0.0000 0.0000 0.0000 0.0000 -1.7944 0.0000
# 6 0.0000 0.0000 0.0000 0.0000 0.0000 27.4402
#
#
#
# Elastic Compliance Matrix: (Units=1/GPa)
#
#
# Indices 1 2 3 4 5 6 
#
# 1 0.014805 -0.005493 -0.005974 0.000000 0.000000 0.000000
# 2 -0.005493 0.013793 -0.000008 0.000000 0.000000 0.000000
# 3 -0.005974 -0.000008 0.013785 0.000000 0.000000 0.000000
# 4 0.000000 0.000000 0.000000 0.045781 0.000000 0.000000
# 5 0.000000 0.000000 0.000000 0.000000 -0.557292 0.000000
# 6 0.000000 0.000000 0.000000 0.000000 0.000000 0.036443
#
#
# Mechanical properties :
#
#
# Convention : Reuss Voigt Hill
#
# Bulk Modulus (GPa) = 51.45505 53.32097 52.38801
# Shear Modulus (GPa) = -12.39905 21.43809 4.51952
#
# Velocity S-wave (km/s) = -2.42951 3.19461 1.46680
# Velocity P-wave (km/s) = 4.07738 6.24426 5.27332
#
# Compressibility (1/GPa) = 0.01943444
#
# Stress axis : x y z
#
# Youngs Moduli (GPa) = 67.54331 72.49813 72.54227
#
# Poissons Ratio (x) = 0.39821 0.43338
# Poissons Ratio (y) = 0.37100 0.00057
# Poissons Ratio (z) = 0.40351 0.00057
#
# Static dielectric constant tensor:
#      x y z
#    x 1.776010 0.000000 0.000000 
#    y 0.000000 1.809170 0.000000 
#    z 0.000000 0.000000 1.729350 
# 
# From -- ./inp_files/39190.got.cif
#   From: 2010.05.17/outbox.cif.g08.bks.cpg/sg64_20_cif.got.tgz:39190.got - 2010.06.03 16:29:19.
