data_PCOD9479482
_publ_section_title
;
Structure prediction by ZEFSAII (Michael W. Deem and Ramdas Pophale) SiO2 
 PCOD9479482
Probable space group: C M C A
;
_chemical_formula_sum "Si O2"
_cell_formula_units_Z 72
_cell_length_a 14.686705
_cell_length_b 16.779859
_cell_length_c 13.816264
_cell_angle_alpha 90.000000
_cell_angle_beta 90.000000
_cell_angle_gamma 90.000000
_cell_volume 3404.891693
_symmetry_space_group_name_H-M "C M C A"
_symmetry_group_IT_number 64
_symmetry_cell_setting 'orthorhombic'
loop_
_space_group_symop_operation_xyz
x,y,z
-x,1/2-y,1/2+z
x,-y,-z
-x,1/2+y,1/2-z
-x,-y,-z
x,1/2+y,1/2-z
-x,y,z
x,1/2-y,1/2+z
1/2+x,1/2+y,z
1/2-x,-y,1/2+z
1/2+x,1/2-y,-z
1/2-x,y,1/2-z
1/2-x,1/2-y,-z
1/2+x,y,1/2-z
1/2-x,1/2+y,z
1/2+x,-y,1/2+z
loop_
_atom_site_type_symbol
_atom_site_label
_atom_site_fract_x
_atom_site_fract_y
_atom_site_fract_z
Si Si1 0.161269 0.500000 0.500000
Si Si2 0.109571 0.185590 0.508568
Si Si3 0.199629 0.431875 0.156219
Si Si4 0.889200 0.397758 0.810267
Si Si5 0.605084 0.156156 0.396355
O O1 0.224295 0.538814 0.581525
O O2 0.108077 0.572017 0.450667
O O3 0.136736 0.128603 0.597301
O O4 0.142946 0.147875 0.407241
O O5 0.144055 0.273661 0.536653
O O6 0.000000 0.187355 0.498724
O O7 0.250000 0.397016 0.250000
O O8 0.145219 0.511433 0.186687
O O9 0.856062 0.356771 0.711071
O O10 0.000000 0.399036 0.809796
O O11 0.500000 0.178923 0.380514
#
# Coordination Sequence:
#
# PCOD9479482 Si02
#       5
#     8  16  16  16  16
#     4  12  23  40  61  88 130 164 196 248 311 374
#     4  10  22  42  67  92 120 161 214 258 300 363
#     4  12  23  39  60  95 124 161 204 253 313 365
#     4  10  20  40  65  88 124 166 207 255 303 368
#     4  10  23  42  64  92 125 166 208 251 307 369
#
# _framework density 21.146046999999999
#
# number of rings (size 3 to 8) (size 9 to 14) (size 15 to 20)
#    0.000    1.333    4.444    1.000    0.000    4.444 
#    4.000    2.222    0.000    0.000    0.000    0.000 
#    0.000    0.000    0.000    0.000    0.000    0.000 
#
# Total GULP energy -201166.987376 kJ/mol
# GULP energy per Si atom -5587.971872 kJ/mol
# Density = 2.109792 g / cm^3
# Si number density = 21.146047 Si / 1000 Ang^3
#
#
#
# Elastic Constant Matrix: (Units=GPa)
#
#
# Indices 1 2 3 4 5 6 
#
# 1 33.0315 -2.3197 10.9772 0.0000 0.0000 0.0000
# 2 -2.3197 107.6904 40.0080 0.0000 0.0000 0.0000
# 3 10.9772 40.0080 134.8740 0.0000 0.0000 0.0000
# 4 0.0000 0.0000 0.0000 18.6478 0.0000 0.0000
# 5 0.0000 0.0000 0.0000 0.0000 17.9821 0.0000
# 6 0.0000 0.0000 0.0000 0.0000 0.0000 14.9511
#
#
#
# Elastic Compliance Matrix: (Units=1/GPa)
#
#
# Indices 1 2 3 4 5 6 
#
# 1 0.031433 0.001829 -0.003101 0.000000 0.000000 0.000000
# 2 0.001829 0.010542 -0.003276 0.000000 0.000000 0.000000
# 3 -0.003101 -0.003276 0.008638 0.000000 0.000000 0.000000
# 4 0.000000 0.000000 0.000000 0.053626 0.000000 0.000000
# 5 0.000000 0.000000 0.000000 0.000000 0.055611 0.000000
# 6 0.000000 0.000000 0.000000 0.000000 0.000000 0.066885
#
#
# Mechanical properties :
#
#
# Convention : Reuss Voigt Hill
#
# Bulk Modulus (GPa) = 24.08580 41.43630 32.76105
# Shear Modulus (GPa) = 20.02642 25.44490 22.73566
#
# Velocity S-wave (km/s) = 3.08076 3.47262 3.28254
# Velocity P-wave (km/s) = 4.90609 5.97634 5.46746
#
# Compressibility (1/GPa) = 0.04151823
#
# Stress axis : x y z
#
# Youngs Moduli (GPa) = 31.81365 94.85536 115.76101
#
# Poissons Ratio (x) = -0.17350 0.35896
# Poissons Ratio (y) = -0.05819 0.37924
# Poissons Ratio (z) = 0.09865 0.31075
#
# Static dielectric constant tensor:
#      x y z
#    x 1.790130 0.000000 0.000000 
#    y 0.000000 1.745090 0.000000 
#    z 0.000000 0.000000 1.734960 
# 
# From -- ./inp_files/15772.got.cif
#   From: 2010.05.17/outbox.cif.g08.bks.cpg/sg64_8_cif.got.tgz:15772.got - 2010.06.03 16:29:19.
