data_PCOD9479641
_publ_section_title
;
Structure prediction by ZEFSAII (Michael W. Deem and Ramdas Pophale) SiO2 
 PCOD9479641
Probable space group: C M C A
;
_chemical_formula_sum "Si O2"
_cell_formula_units_Z 104
_cell_length_a 28.847294
_cell_length_b 8.252870
_cell_length_c 22.875981
_cell_angle_alpha 90.000000
_cell_angle_beta 90.000000
_cell_angle_gamma 90.000000
_cell_volume 5446.152675
_symmetry_space_group_name_H-M "C M C A"
_symmetry_group_IT_number 64
_symmetry_cell_setting 'orthorhombic'
loop_
_space_group_symop_operation_xyz
x,y,z
-x,1/2-y,1/2+z
x,-y,-z
-x,1/2+y,1/2-z
-x,-y,-z
x,1/2+y,1/2-z
-x,y,z
x,1/2-y,1/2+z
1/2+x,1/2+y,z
1/2-x,-y,1/2+z
1/2+x,1/2-y,-z
1/2-x,y,1/2-z
1/2-x,1/2-y,-z
1/2+x,y,1/2-z
1/2-x,1/2+y,z
1/2+x,-y,1/2+z
loop_
_atom_site_type_symbol
_atom_site_label
_atom_site_fract_x
_atom_site_fract_y
_atom_site_fract_z
Si Si1 0.601799 0.225209 0.719133
Si Si2 0.750000 0.700823 0.250000
Si Si3 0.725265 0.906498 0.561062
Si Si4 0.807366 0.050125 0.820150
Si Si5 0.000000 0.747369 0.721938
Si Si6 0.319716 0.445236 0.437623
Si Si7 0.000000 0.403203 0.160275
Si Si8 0.102132 0.922728 0.340529
O O1 0.641792 0.116848 0.691623
O O2 0.549112 0.169068 0.704735
O O3 0.605019 0.406464 0.694148
O O4 0.607446 0.210175 0.789261
O O5 0.770931 0.809938 0.198418
O O6 0.791226 0.593400 0.276610
O O7 0.707741 0.723779 0.555620
O O8 0.718281 0.000000 0.500000
O O9 0.698838 0.991718 0.614165
O O10 0.779799 0.923436 0.576579
O O11 0.000000 0.929332 0.697684
O O12 0.000000 0.740137 0.792151
O O13 0.340114 0.500000 0.500000
O O14 0.357705 0.423327 0.388004
O O15 0.949314 0.403605 0.131346
#
# Coordination Sequence:
#
# PCOD9479641 Si02
#       8
#    16   8  16  16   8  16   8  16
#     4  10  21  34  59  85 120 149 187 233 290 342
#     4  10  24  36  52  84 126 150 182 228 296 344
#     4  11  25  42  61  81 114 155 205 240 280 335
#     4  11  23  37  56  84 117 154 187 234 284 346
#     4   8  16  34  52  82 112 152 185 225 278 347
#     4  11  25  42  61  83 114 154 200 241 285 340
#     4   8  16  36  57  84 116 149 187 236 278 346
#     4  10  22  37  61  89 119 152 193 233 294 342
#
# _framework density 19.096049000000001
#
# number of rings (size 3 to 8) (size 9 to 14) (size 15 to 20)
#    0.000    1.846    0.000    3.692   15.077    0.000 
#    0.000    0.385    0.000    0.000    0.000    1.077 
#    0.000    0.000    0.000    0.000    0.000    0.000 
#
# Total GULP energy -290388.583129 kJ/mol
# GULP energy per Si atom -5584.395829 kJ/mol
# Density = 1.905259 g / cm^3
# Si number density = 19.096049 Si / 1000 Ang^3
#
#
#
# Elastic Constant Matrix: (Units=GPa)
#
#
# Indices 1 2 3 4 5 6 
#
# 1 131.0127 34.6426 42.5922 0.0000 0.0000 0.0000
# 2 34.6426 70.0216 21.2307 0.0000 0.0000 0.0000
# 3 42.5922 21.2307 77.3072 0.0000 0.0000 0.0000
# 4 0.0000 0.0000 0.0000 25.1772 0.0000 0.0000
# 5 0.0000 0.0000 0.0000 0.0000 23.0989 0.0000
# 6 0.0000 0.0000 0.0000 0.0000 0.0000 15.5377
#
#
#
# Elastic Compliance Matrix: (Units=1/GPa)
#
#
# Indices 1 2 3 4 5 6 
#
# 1 0.010066 -0.003598 -0.004558 0.000000 0.000000 0.000000
# 2 -0.003598 0.016865 -0.002649 0.000000 0.000000 0.000000
# 3 -0.004558 -0.002649 0.016174 0.000000 0.000000 0.000000
# 4 0.000000 0.000000 0.000000 0.039719 0.000000 0.000000
# 5 0.000000 0.000000 0.000000 0.000000 0.043292 0.000000
# 6 0.000000 0.000000 0.000000 0.000000 0.000000 0.064360
#
#
# Mechanical properties :
#
#
# Convention : Reuss Voigt Hill
#
# Bulk Modulus (GPa) = 46.52303 52.80805 49.66554
# Shear Modulus (GPa) = 22.80504 24.75449 23.77976
#
# Velocity S-wave (km/s) = 3.45951 3.60434 3.53267
# Velocity P-wave (km/s) = 6.35399 6.71086 6.53486
#
# Compressibility (1/GPa) = 0.02149473
#
# Stress axis : x y z
#
# Youngs Moduli (GPa) = 99.34459 59.29553 61.82783
#
# Poissons Ratio (x) = 0.21335 0.28179
# Poissons Ratio (y) = 0.35746 0.16379
# Poissons Ratio (z) = 0.45278 0.15708
#
# Static dielectric constant tensor:
#      x y z
#    x 1.702040 0.000000 0.000000 
#    y 0.000000 1.720460 0.000000 
#    z 0.000000 0.000000 1.649580 
# 
# From -- ./inp_files/47150.got.cif
#   From: 2010.05.17/outbox.cif.g08.bks.cpg/sg64_24_cif.got.tgz:47150.got - 2010.06.03 16:29:19.
