data_PCOD9479610
_publ_section_title
;
Structure prediction by ZEFSAII (Michael W. Deem and Ramdas Pophale) SiO2 
 PCOD9479610
Probable space group: C M C A
;
_chemical_formula_sum "Si O2"
_cell_formula_units_Z 88
_cell_length_a 16.892382
_cell_length_b 32.884827
_cell_length_c 7.325059
_cell_angle_alpha 90.000000
_cell_angle_beta 90.000000
_cell_angle_gamma 90.000000
_cell_volume 4069.092687
_symmetry_space_group_name_H-M "C M C A"
_symmetry_group_IT_number 64
_symmetry_cell_setting 'orthorhombic'
loop_
_space_group_symop_operation_xyz
x,y,z
-x,1/2-y,1/2+z
x,-y,-z
-x,1/2+y,1/2-z
-x,-y,-z
x,1/2+y,1/2-z
-x,y,z
x,1/2-y,1/2+z
1/2+x,1/2+y,z
1/2-x,-y,1/2+z
1/2+x,1/2-y,-z
1/2-x,y,1/2-z
1/2-x,1/2-y,-z
1/2+x,y,1/2-z
1/2-x,1/2+y,z
1/2+x,-y,1/2+z
loop_
_atom_site_type_symbol
_atom_site_label
_atom_site_fract_x
_atom_site_fract_y
_atom_site_fract_z
Si Si1 0.587343 0.193145 0.484919
Si Si2 0.412985 0.211710 0.054261
Si Si3 0.740927 0.830614 0.954317
Si Si4 0.586431 0.026520 0.817422
Si Si5 0.796621 0.500000 0.500000
Si Si6 0.205901 0.417350 0.060494
O O1 0.500000 0.176404 0.538913
O O2 0.592432 0.239547 0.554378
O O3 0.585595 0.195955 0.263186
O O4 0.670578 0.171956 0.536443
O O5 0.500000 0.201563 0.972897
O O6 0.333848 0.193549 0.962375
O O7 0.750000 0.813216 0.750000
O O8 0.714258 0.877429 0.942560
O O9 0.500000 0.028362 0.732377
O O10 0.617699 0.070088 0.883926
O O11 0.648723 0.007958 0.675489
O O12 0.583046 0.000000 0.000000
O O13 0.745659 0.458682 0.517476
O O14 0.250000 0.408284 0.250000
#
# Coordination Sequence:
#
# PCOD9479610 Si02
#       6
#    16  16  16  16   8  16
#     4   9  18  34  52  76 105 140 184 227 278 339
#     4   9  18  33  53  76 105 141 181 228 280 335
#     4  10  21  33  52  78 110 145 182 228 286 338
#     4  10  21  37  60  88 112 145 194 240 287 346
#     4  10  21  40  61  80 116 154 190 240 289 346
#     4  10  22  37  57  81 110 149 189 231 283 346
#
# _framework density 21.626442000000001
#
# number of rings (size 3 to 8) (size 9 to 14) (size 15 to 20)
#    0.000    2.364    0.909    0.818    2.545    2.182 
#    0.000    4.545    0.000    0.000    0.000    0.000 
#    0.000    0.000    0.000    0.000    0.000    0.000 
#
# Total GULP energy -245303.088247 kJ/mol
# GULP energy per Si atom -5575.070187 kJ/mol
# Density = 2.157722 g / cm^3
# Si number density = 21.626442 Si / 1000 Ang^3
#
#
#
# Elastic Constant Matrix: (Units=GPa)
#
#
# Indices 1 2 3 4 5 6 
#
# 1 161.3591 43.9443 -0.0567 0.0000 0.0000 0.0000
# 2 43.9443 55.5447 -12.4311 0.0000 0.0000 0.0000
# 3 -0.0567 -12.4311 50.5454 0.0000 0.0000 0.0000
# 4 0.0000 0.0000 0.0000 19.3312 0.0000 0.0000
# 5 0.0000 0.0000 0.0000 0.0000 8.4049 0.0000
# 6 0.0000 0.0000 0.0000 0.0000 0.0000 -17.1423
#
#
#
# Elastic Compliance Matrix: (Units=1/GPa)
#
#
# Indices 1 2 3 4 5 6 
#
# 1 0.008026 -0.006718 -0.001643 0.000000 0.000000 0.000000
# 2 -0.006718 0.024675 0.006061 0.000000 0.000000 0.000000
# 3 -0.001643 0.006061 0.021273 0.000000 0.000000 0.000000
# 4 0.000000 0.000000 0.000000 0.051730 0.000000 0.000000
# 5 0.000000 0.000000 0.000000 0.000000 0.118979 0.000000
# 6 0.000000 0.000000 0.000000 0.000000 0.000000 -0.058335
#
#
# Mechanical properties :
#
#
# Convention : Reuss Voigt Hill
#
# Bulk Modulus (GPa) = 20.25353 36.70691 28.48022
# Shear Modulus (GPa) = 26.68014 17.85161 22.26587
#
# Velocity S-wave (km/s) = 3.51619 2.87619 3.21217
# Velocity P-wave (km/s) = 5.08629 5.29528 5.19183
#
# Compressibility (1/GPa) = 0.04937410
#
# Stress axis : x y z
#
# Youngs Moduli (GPa) = 124.59065 40.52728 47.00801
#
# Poissons Ratio (x) = 0.27225 0.07724
# Poissons Ratio (y) = 0.83697 -0.28491
# Poissons Ratio (z) = 0.20472 -0.24563
#
# Static dielectric constant tensor:
#      x y z
#    x 1.870830 0.000000 0.000000 
#    y 0.000000 1.746060 0.000000 
#    z 0.000000 0.000000 1.825610 
# 
# From -- ./inp_files/7339.got.cif
#   From: 2010.05.17/outbox.cif.g08.bks.cpg/sg64_4_cif.got.tgz:7339.got - 2010.06.03 16:29:19.
