data_PCOD9479705
_publ_section_title
;
Structure prediction by ZEFSAII (Michael W. Deem and Ramdas Pophale) SiO2 
 PCOD9479705
Probable space group: C M C A
;
_chemical_formula_sum "Si O2"
_cell_formula_units_Z 96
_cell_length_a 8.261527
_cell_length_b 24.439201
_cell_length_c 26.970066
_cell_angle_alpha 90.000000
_cell_angle_beta 90.000000
_cell_angle_gamma 90.000000
_cell_volume 5445.394383
_symmetry_space_group_name_H-M "C M C A"
_symmetry_group_IT_number 64
_symmetry_cell_setting 'orthorhombic'
loop_
_space_group_symop_operation_xyz
x,y,z
-x,1/2-y,1/2+z
x,-y,-z
-x,1/2+y,1/2-z
-x,-y,-z
x,1/2+y,1/2-z
-x,y,z
x,1/2-y,1/2+z
1/2+x,1/2+y,z
1/2-x,-y,1/2+z
1/2+x,1/2-y,-z
1/2-x,y,1/2-z
1/2-x,1/2-y,-z
1/2+x,y,1/2-z
1/2-x,1/2+y,z
1/2+x,-y,1/2+z
loop_
_atom_site_type_symbol
_atom_site_label
_atom_site_fract_x
_atom_site_fract_y
_atom_site_fract_z
Si Si1 0.304910 0.162161 0.693889
Si Si2 0.811580 0.758092 0.624432
Si Si3 0.697051 0.523752 0.053666
Si Si4 0.812352 0.179490 0.541738
Si Si5 0.308285 0.648242 0.063283
Si Si6 0.303780 0.417314 0.106746
O O1 0.500000 0.163772 0.692495
O O2 0.250000 0.156428 0.750000
O O3 0.246570 0.218827 0.668240
O O4 0.254964 0.111770 0.658141
O O5 0.791253 0.720081 0.575666
O O6 0.728033 0.815199 0.611364
O O7 0.000000 0.768543 0.633328
O O8 0.500000 0.525339 0.052246
O O9 0.751950 0.585555 0.064094
O O10 0.742475 0.479682 0.095702
O O11 0.748947 0.500000 0.000000
O O12 0.769359 0.177691 0.484301
O O13 0.772476 0.119726 0.563611
O O14 0.000000 0.193452 0.548860
O O15 0.500000 0.647170 0.054975
O O16 0.500000 0.413331 0.102762
#
# Coordination Sequence:
#
# PCOD9479705 Si02
#       6
#    16  16  16  16  16  16
#     4   9  19  34  56  77  97 123 158 209 261 306
#     4  10  21  36  50  70  99 131 165 208 256 300
#     4   9  16  29  51  73  99 138 175 202 234 292
#     4  11  20  30  46  71 102 136 169 207 246 292
#     4  11  20  31  49  72 100 138 175 205 239 291
#     4   9  17  33  52  74 101 133 170 207 247 292
#
# _framework density 17.629577000000001
#
# number of rings (size 3 to 8) (size 9 to 14) (size 15 to 20)
#    0.000    2.167    1.667    4.000    0.000    3.333 
#    0.000    2.500    0.000    1.000    0.000    4.667 
#    0.000    0.000    0.000    0.000    0.000    0.000 
#
# Total GULP energy -267670.219420 kJ/mol
# GULP energy per Si atom -5576.462905 kJ/mol
# Density = 1.758945 g / cm^3
# Si number density = 17.629577 Si / 1000 Ang^3
#
#
#
# Elastic Constant Matrix: (Units=GPa)
#
#
# Indices 1 2 3 4 5 6 
#
# 1 10.6573 -7.6616 1.2046 0.0000 0.0000 0.0000
# 2 -7.6616 89.2742 37.2553 0.0000 0.0000 0.0000
# 3 1.2046 37.2553 98.2100 0.0000 0.0000 0.0000
# 4 0.0000 0.0000 0.0000 14.3852 0.0000 0.0000
# 5 0.0000 0.0000 0.0000 0.0000 23.3313 0.0000
# 6 0.0000 0.0000 0.0000 0.0000 0.0000 9.0764
#
#
#
# Elastic Compliance Matrix: (Units=1/GPa)
#
#
# Indices 1 2 3 4 5 6 
#
# 1 0.102403 0.011064 -0.005453 0.000000 0.000000 0.000000
# 2 0.011064 0.014504 -0.005638 0.000000 0.000000 0.000000
# 3 -0.005453 -0.005638 0.012388 0.000000 0.000000 0.000000
# 4 0.000000 0.000000 0.000000 0.069516 0.000000 0.000000
# 5 0.000000 0.000000 0.000000 0.000000 0.042861 0.000000
# 6 0.000000 0.000000 0.000000 0.000000 0.000000 0.110176
#
#
# Mechanical properties :
#
#
# Convention : Reuss Voigt Hill
#
# Bulk Modulus (GPa) = 7.73750 28.85979 18.29865
# Shear Modulus (GPa) = 12.65886 20.51479 16.58683
#
# Velocity S-wave (km/s) = 2.68255 3.41494 3.07066
# Velocity P-wave (km/s) = 3.74075 5.65285 4.79312
#
# Compressibility (1/GPa) = 0.12924065
#
# Stress axis : x y z
#
# Youngs Moduli (GPa) = 9.76537 68.94841 80.72513
#
# Poissons Ratio (x) = -0.76285 0.44020
# Poissons Ratio (y) = -0.10804 0.45509
# Poissons Ratio (z) = 0.05325 0.38870
#
# Static dielectric constant tensor:
#      x y z
#    x 1.629090 0.000000 0.000000 
#    y 0.000000 1.641060 0.000000 
#    z 0.000000 0.000000 1.582270 
# 
# From -- ./inp_files/43004.got.cif
#   From: 2010.05.17/outbox.cif.g08.bks.cpg/sg64_22_cif.got.tgz:43004.got - 2010.06.03 16:29:19.
