data_PCOD9479100
_publ_section_title
;
Structure prediction by ZEFSAII (Michael W. Deem and Ramdas Pophale) SiO2 
 PCOD9479100
Probable space group: C M C A
;
_chemical_formula_sum "Si O2"
_cell_formula_units_Z 88
_cell_length_a 10.003875
_cell_length_b 22.026632
_cell_length_c 16.857630
_cell_angle_alpha 90.000000
_cell_angle_beta 90.000000
_cell_angle_gamma 90.000000
_cell_volume 3714.606977
_symmetry_space_group_name_H-M "C M C A"
_symmetry_group_IT_number 64
_symmetry_cell_setting 'orthorhombic'
loop_
_space_group_symop_operation_xyz
x,y,z
-x,1/2-y,1/2+z
x,-y,-z
-x,1/2+y,1/2-z
-x,-y,-z
x,1/2+y,1/2-z
-x,y,z
x,1/2-y,1/2+z
1/2+x,1/2+y,z
1/2-x,-y,1/2+z
1/2+x,1/2-y,-z
1/2-x,y,1/2-z
1/2-x,1/2-y,-z
1/2+x,y,1/2-z
1/2-x,1/2+y,z
1/2+x,-y,1/2+z
loop_
_atom_site_type_symbol
_atom_site_label
_atom_site_fract_x
_atom_site_fract_y
_atom_site_fract_z
Si Si1 0.830485 0.093973 0.819251
Si Si2 0.500000 0.282717 0.913976
Si Si3 0.704200 0.638899 0.989681
Si Si4 0.000000 0.420743 0.198380
Si Si5 0.500000 0.449345 0.646704
Si Si6 0.500000 0.148611 0.958152
Si Si7 0.000000 0.880602 0.791760
Si Si8 0.200643 0.040595 0.108585
O O1 0.663591 0.096874 0.786677
O O2 0.000000 0.101649 0.799451
O O3 0.830550 0.026324 0.859314
O O4 0.818196 0.139210 0.895304
O O5 0.624267 0.309449 0.963809
O O6 0.500000 0.211022 0.908705
O O7 0.500000 0.313977 0.828248
O O8 0.658183 0.573652 0.026641
O O9 0.861682 0.647395 0.004396
O O10 0.000000 0.406304 0.103802
O O11 0.000000 0.493832 0.207230
O O12 0.500000 0.388440 0.698344
O O13 0.639418 0.456665 0.603711
O O14 0.130111 0.915019 0.827344
#
# Coordination Sequence:
#
# PCOD9479100 Si02
#       8
#    16   8  16   8   8   8   8  16
#     4  12  20  37  60  96 131 170 203 259 330 398
#     4  10  25  44  66  88 127 177 223 275 319 374
#     4  11  24  41  67  94 129 171 223 267 329 383
#     4  12  23  36  65  95 130 172 211 261 332 386
#     4  12  19  35  63  96 133 163 204 266 329 390
#     4  12  23  44  67  90 128 167 229 274 314 374
#     4  10  20  37  61  88 124 177 208 254 324 386
#     4  11  21  36  61  96 132 167 205 257 326 400
#
# _framework density 23.690259000000001
#
# number of rings (size 3 to 8) (size 9 to 14) (size 15 to 20)
#    0.000    0.727    5.455    2.727    0.000    0.000 
#    0.000    6.364   24.000    0.000    0.000    0.000 
#    0.000    0.000    0.000    0.000    0.000    0.000 
#
# Total GULP energy -245492.742876 kJ/mol
# GULP energy per Si atom -5579.380520 kJ/mol
# Density = 2.363634 g / cm^3
# Si number density = 23.690259 Si / 1000 Ang^3
#
#
#
# Elastic Constant Matrix: (Units=GPa)
#
#
# Indices 1 2 3 4 5 6 
#
# 1 178.3432 -16.9719 12.8608 0.0000 0.0000 0.0000
# 2 -16.9719 53.4038 1.2677 0.0000 0.0000 0.0000
# 3 12.8608 1.2677 76.1939 0.0000 0.0000 0.0000
# 4 0.0000 0.0000 0.0000 27.5794 0.0000 0.0000
# 5 0.0000 0.0000 0.0000 0.0000 -1.2105 0.0000
# 6 0.0000 0.0000 0.0000 0.0000 0.0000 7.7137
#
#
#
# Elastic Compliance Matrix: (Units=1/GPa)
#
#
# Indices 1 2 3 4 5 6 
#
# 1 0.005860 0.001887 -0.001021 0.000000 0.000000 0.000000
# 2 0.001887 0.019340 -0.000640 0.000000 0.000000 0.000000
# 3 -0.001021 -0.000640 0.013307 0.000000 0.000000 0.000000
# 4 0.000000 0.000000 0.000000 0.036259 0.000000 0.000000
# 5 0.000000 0.000000 0.000000 0.000000 -0.826075 0.000000
# 6 0.000000 0.000000 0.000000 0.000000 0.000000 0.129639
#
#
# Mechanical properties :
#
#
# Convention : Reuss Voigt Hill
#
# Bulk Modulus (GPa) = 25.66774 33.58379 29.62576
# Shear Modulus (GPa) = -8.20837 27.53547 9.66355
#
# Velocity S-wave (km/s) = -1.86344 3.41297 2.02188
# Velocity P-wave (km/s) = 2.49567 5.45327 4.24067
#
# Compressibility (1/GPa) = 0.03895940
#
# Stress axis : x y z
#
# Youngs Moduli (GPa) = 170.63971 51.70620 75.14660
#
# Poissons Ratio (x) = -0.09755 0.07669
# Poissons Ratio (y) = -0.32194 0.04811
# Poissons Ratio (z) = 0.17415 0.03310
#
# Static dielectric constant tensor:
#      x y z
#    x 1.991040 0.000000 0.000000 
#    y 0.000000 1.804030 0.000000 
#    z 0.000000 0.000000 1.934300 
# 
# From -- ./inp_files/36883.got.cif
#   From: 2010.05.17/outbox.cif.g08.bks.cpg/sg64_19_cif.got.tgz:36883.got - 2010.06.03 16:29:19.
