data_PCOD9479949
_publ_section_title
;
Structure prediction by ZEFSAII (Michael W. Deem and Ramdas Pophale) SiO2 
 PCOD9479949
Probable space group: C M C A
;
_chemical_formula_sum "Si O2"
_cell_formula_units_Z 104
_cell_length_a 26.679864
_cell_length_b 9.071379
_cell_length_c 19.486479
_cell_angle_alpha 90.000000
_cell_angle_beta 90.000000
_cell_angle_gamma 90.000000
_cell_volume 4716.179186
_symmetry_space_group_name_H-M "C M C A"
_symmetry_group_IT_number 64
_symmetry_cell_setting 'orthorhombic'
loop_
_space_group_symop_operation_xyz
x,y,z
-x,1/2-y,1/2+z
x,-y,-z
-x,1/2+y,1/2-z
-x,-y,-z
x,1/2+y,1/2-z
-x,y,z
x,1/2-y,1/2+z
1/2+x,1/2+y,z
1/2-x,-y,1/2+z
1/2+x,1/2-y,-z
1/2-x,y,1/2-z
1/2-x,1/2-y,-z
1/2+x,y,1/2-z
1/2-x,1/2+y,z
1/2+x,-y,1/2+z
loop_
_atom_site_type_symbol
_atom_site_label
_atom_site_fract_x
_atom_site_fract_y
_atom_site_fract_z
Si Si1 0.815925 0.537995 0.704351
Si Si2 0.660159 0.251087 0.597328
Si Si3 0.864226 0.208953 0.118464
Si Si4 0.057795 0.601811 0.799363
Si Si5 0.149361 0.000000 0.000000
Si Si6 0.442349 0.763088 0.841752
Si Si7 0.294445 0.961320 0.139753
O O1 0.827597 0.698653 0.674562
O O2 0.850734 0.411140 0.675366
O O3 0.761585 0.512829 0.668301
O O4 0.820693 0.539478 0.785432
O O5 0.677999 0.119302 0.547714
O O6 0.599684 0.253336 0.599045
O O7 0.686334 0.407666 0.591237
O O8 0.907217 0.314368 0.146510
O O9 0.813880 0.308168 0.107039
O O10 0.877971 0.109790 0.052717
O O11 0.067926 0.650678 0.720967
O O12 0.061882 0.427270 0.810549
O O13 0.000000 0.644651 0.812003
O O14 0.500000 0.741298 0.864721
#
# Coordination Sequence:
#
# PCOD9479949 Si02
#       7
#    16  16  16  16   8  16  16
#     4  10  22  36  61 100 126 145 193 244 318 383
#     4  11  22  41  59  84 126 165 199 252 296 351
#     4  11  22  41  59  84 126 165 199 252 296 351
#     4  10  21  37  63  98 125 150 192 248 318 384
#     4  10  28  44  57  84 122 170 230 244 281 362
#     4  10  21  37  63  98 125 150 192 248 318 384
#     4  11  20  37  66  94 120 155 194 252 314 364
#
# _framework density 22.051749000000001
#
# number of rings (size 3 to 8) (size 9 to 14) (size 15 to 20)
#    0.000    1.538    1.538    3.692    4.308    3.077 
#    0.000   13.846    0.000    1.846    0.000    0.000 
#    0.000    0.000    0.000    0.000    0.000    0.000 
#
# Total GULP energy -290108.964222 kJ/mol
# GULP energy per Si atom -5579.018543 kJ/mol
# Density = 2.200156 g / cm^3
# Si number density = 22.051749 Si / 1000 Ang^3
#
#
#
# Elastic Constant Matrix: (Units=GPa)
#
#
# Indices 1 2 3 4 5 6 
#
# 1 55.8540 13.6065 27.3911 0.0000 0.0000 0.0000
# 2 13.6065 109.7027 22.5629 0.0000 0.0000 0.0000
# 3 27.3911 22.5629 55.3283 0.0000 0.0000 0.0000
# 4 0.0000 0.0000 0.0000 40.8508 0.0000 0.0000
# 5 0.0000 0.0000 0.0000 0.0000 8.6033 0.0000
# 6 0.0000 0.0000 0.0000 0.0000 0.0000 18.1268
#
#
#
# Elastic Compliance Matrix: (Units=1/GPa)
#
#
# Indices 1 2 3 4 5 6 
#
# 1 0.023677 -0.000574 -0.011488 0.000000 0.000000 0.000000
# 2 -0.000574 0.009964 -0.003779 0.000000 0.000000 0.000000
# 3 -0.011488 -0.003779 0.025302 0.000000 0.000000 0.000000
# 4 0.000000 0.000000 0.000000 0.024479 0.000000 0.000000
# 5 0.000000 0.000000 0.000000 0.000000 0.116235 0.000000
# 6 0.000000 0.000000 0.000000 0.000000 0.000000 0.055167
#
#
# Mechanical properties :
#
#
# Convention : Reuss Voigt Hill
#
# Bulk Modulus (GPa) = 36.68136 38.66732 37.67434
# Shear Modulus (GPa) = 16.91513 24.00448 20.45980
#
# Velocity S-wave (km/s) = 2.77260 3.30290 3.04930
# Velocity P-wave (km/s) = 5.18846 5.66731 5.43316
#
# Compressibility (1/GPa) = 0.02726180
#
# Stress axis : x y z
#
# Youngs Moduli (GPa) = 42.23462 100.36120 39.52227
#
# Poissons Ratio (x) = 0.05761 0.45402
# Poissons Ratio (y) = 0.02424 0.14936
# Poissons Ratio (z) = 0.48518 0.37928
#
# Static dielectric constant tensor:
#      x y z
#    x 1.927230 0.000000 0.000000 
#    y 0.000000 1.795230 0.000000 
#    z 0.000000 0.000000 1.833950 
# 
# From -- ./inp_files/41875.got.cif
#   From: 2010.05.17/outbox.cif.g08.bks.cpg/sg64_21_cif.got.tgz:41875.got - 2010.06.03 16:29:19.
