data_PCOD9479181
_publ_section_title
;
Structure prediction by ZEFSAII (Michael W. Deem and Ramdas Pophale) SiO2 
 PCOD9479181
Probable space group: C M C A
;
_chemical_formula_sum "Si O2"
_cell_formula_units_Z 88
_cell_length_a 21.856917
_cell_length_b 12.775262
_cell_length_c 18.014518
_cell_angle_alpha 90.000000
_cell_angle_beta 90.000000
_cell_angle_gamma 90.000000
_cell_volume 5030.154971
_symmetry_space_group_name_H-M "C M C A"
_symmetry_group_IT_number 64
_symmetry_cell_setting 'orthorhombic'
loop_
_space_group_symop_operation_xyz
x,y,z
-x,1/2-y,1/2+z
x,-y,-z
-x,1/2+y,1/2-z
-x,-y,-z
x,1/2+y,1/2-z
-x,y,z
x,1/2-y,1/2+z
1/2+x,1/2+y,z
1/2-x,-y,1/2+z
1/2+x,1/2-y,-z
1/2-x,y,1/2-z
1/2-x,1/2-y,-z
1/2+x,y,1/2-z
1/2-x,1/2+y,z
1/2+x,-y,1/2+z
loop_
_atom_site_type_symbol
_atom_site_label
_atom_site_fract_x
_atom_site_fract_y
_atom_site_fract_z
Si Si1 0.676677 0.278612 0.995852
Si Si2 0.427569 0.111924 0.041240
Si Si3 0.750000 0.243003 0.750000
Si Si4 0.071227 0.697661 0.200019
Si Si5 0.656244 0.619438 0.850687
Si Si6 0.650760 0.627044 0.164309
O O1 0.654496 0.329343 0.918971
O O2 0.750000 0.250000 0.000000
O O3 0.628014 0.184106 0.010649
O O4 0.666955 0.359259 0.062939
O O5 0.500000 0.146766 0.030508
O O6 0.417166 0.117084 0.130967
O O7 0.423147 0.000000 0.000000
O O8 0.711499 0.169534 0.695872
O O9 0.709447 0.320177 0.798431
O O10 0.099860 0.808147 0.174854
O O11 0.098211 0.663765 0.278959
O O12 0.000000 0.708775 0.207400
O O13 0.650465 0.497715 0.835778
#
# Coordination Sequence:
#
# PCOD9479181 Si02
#       6
#    16  16   8  16  16  16
#     4  11  22  39  56  89 125 158 203 250 302 373
#     4   9  20  40  64  87 118 161 206 254 308 364
#     4  10  20  38  54  82 116 148 194 242 286 348
#     4   9  21  40  59  86 120 152 200 255 299 361
#     4  10  21  38  58  83 117 154 195 242 299 357
#     4  11  22  36  59  84 116 158 195 242 303 360
#
# _framework density 17.494491
#
# number of rings (size 3 to 8) (size 9 to 14) (size 15 to 20)
#    0.000    2.000    1.818    1.091    0.000    5.818 
#    0.000    1.818    0.000    5.455    0.000    0.000 
#    0.000    0.000    0.000    0.000    0.000    0.000 
#
# Total GULP energy -244974.410213 kJ/mol
# GULP energy per Si atom -5567.600232 kJ/mol
# Density = 1.745467 g / cm^3
# Si number density = 17.494491 Si / 1000 Ang^3
#
#
#
# Elastic Constant Matrix: (Units=GPa)
#
#
# Indices 1 2 3 4 5 6 
#
# 1 123.8104 59.0411 73.8809 0.0000 0.0000 0.0000
# 2 59.0411 104.5573 77.1476 0.0000 0.0000 0.0000
# 3 73.8809 77.1476 176.6690 0.0000 0.0000 0.0000
# 4 0.0000 0.0000 0.0000 10.7854 0.0000 0.0000
# 5 0.0000 0.0000 0.0000 0.0000 -5.0388 0.0000
# 6 0.0000 0.0000 0.0000 0.0000 0.0000 21.3795
#
#
#
# Elastic Compliance Matrix: (Units=1/GPa)
#
#
# Indices 1 2 3 4 5 6 
#
# 1 0.012078 -0.004564 -0.003058 0.000000 0.000000 0.000000
# 2 -0.004564 0.015835 -0.005006 0.000000 0.000000 0.000000
# 3 -0.003058 -0.005006 0.009125 0.000000 0.000000 0.000000
# 4 0.000000 0.000000 0.000000 0.092718 0.000000 0.000000
# 5 0.000000 0.000000 0.000000 0.000000 -0.198458 0.000000
# 6 0.000000 0.000000 0.000000 0.000000 0.000000 0.046774
#
#
# Mechanical properties :
#
#
# Convention : Reuss Voigt Hill
#
# Bulk Modulus (GPa) = 84.87413 91.68621 88.28017
# Shear Modulus (GPa) = 689.16431 18.42302 353.79366
#
# Velocity S-wave (km/s) = 19.86926 3.24863 14.23624
# Velocity P-wave (km/s) = 23.97923 8.16051 17.91085
#
# Compressibility (1/GPa) = 0.01178215
#
# Stress axis : x y z
#
# Youngs Moduli (GPa) = 82.79544 63.15058 109.58610
#
# Poissons Ratio (x) = 0.28821 0.33511
# Poissons Ratio (y) = 0.37787 0.54862
# Poissons Ratio (z) = 0.25318 0.31615
#
# Static dielectric constant tensor:
#      x y z
#    x 1.613680 0.000000 0.000000 
#    y 0.000000 1.557700 0.000000 
#    z 0.000000 0.000000 1.623850 
# 
# From -- ./inp_files/34111.got.cif
#   From: 2010.05.17/outbox.cif.g08.bks.cpg/sg64_18_cif.got.tgz:34111.got - 2010.06.03 16:29:19.
