data_PCOD9479432
_publ_section_title
;
Structure prediction by ZEFSAII (Michael W. Deem and Ramdas Pophale) SiO2 
 PCOD9479432
Probable space group: C M C A
;
_chemical_formula_sum "Si O2"
_cell_formula_units_Z 88
_cell_length_a 19.485476
_cell_length_b 18.015863
_cell_length_c 11.395437
_cell_angle_alpha 90.000000
_cell_angle_beta 90.000000
_cell_angle_gamma 90.000000
_cell_volume 4000.341563
_symmetry_space_group_name_H-M "C M C A"
_symmetry_group_IT_number 64
_symmetry_cell_setting 'orthorhombic'
loop_
_space_group_symop_operation_xyz
x,y,z
-x,1/2-y,1/2+z
x,-y,-z
-x,1/2+y,1/2-z
-x,-y,-z
x,1/2+y,1/2-z
-x,y,z
x,1/2-y,1/2+z
1/2+x,1/2+y,z
1/2-x,-y,1/2+z
1/2+x,1/2-y,-z
1/2-x,y,1/2-z
1/2-x,1/2-y,-z
1/2+x,y,1/2-z
1/2-x,1/2+y,z
1/2+x,-y,1/2+z
loop_
_atom_site_type_symbol
_atom_site_label
_atom_site_fract_x
_atom_site_fract_y
_atom_site_fract_z
Si Si1 0.500000 0.388322 0.569233
Si Si2 0.753307 0.801867 0.884116
Si Si3 0.118093 0.618754 0.472952
Si Si4 0.000000 0.713259 0.595501
Si Si5 0.000000 0.893924 0.291118
Si Si6 0.346417 0.442402 0.606203
Si Si7 0.877159 0.982580 0.174507
O O1 0.500000 0.300974 0.594261
O O2 0.500000 0.395333 0.429044
O O3 0.428292 0.423710 0.611254
O O4 0.750000 0.770156 0.750000
O O5 0.827529 0.839435 0.894425
O O6 0.696146 0.866265 0.900672
O O7 0.750000 0.750000 0.000000
O O8 0.064494 0.675484 0.529334
O O9 0.154441 0.573527 0.579295
O O10 0.088523 0.551554 0.395041
O O11 0.000000 0.686269 0.730203
O O12 0.065853 0.935360 0.240852
O O13 0.334590 0.500000 0.500000
O O14 0.328891 0.483282 0.727543
#
# Coordination Sequence:
#
# PCOD9479432 Si02
#       7
#     8  16  16   8   8  16  16
#     4  12  24  42  63 103 144 181 228 280 351 426
#     4  12  28  50  70 102 144 188 232 290 358 432
#     4  10  22  44  71  99 131 177 237 282 349 415
#     4  10  23  41  67  99 136 190 227 283 348 423
#     4  10  20  40  63 100 144 177 228 288 352 411
#     4  12  25  42  72 103 137 183 233 294 353 408
#     4  10  20  39  69  98 130 170 231 292 335 406
#
# _framework density 21.998121000000001
#
# number of rings (size 3 to 8) (size 9 to 14) (size 15 to 20)
#    0.000    1.091    3.636    2.455    2.545    5.091 
#    9.818    0.000    0.000    0.000    0.000    0.000 
#    0.000    0.000    0.000    0.000    0.000    0.000 
#
# Total GULP energy -245814.075207 kJ/mol
# GULP energy per Si atom -5586.683527 kJ/mol
# Density = 2.194805 g / cm^3
# Si number density = 21.998121 Si / 1000 Ang^3
#
#
#
# Elastic Constant Matrix: (Units=GPa)
#
#
# Indices 1 2 3 4 5 6 
#
# 1 74.2037 4.7410 16.9069 0.0000 0.0000 0.0000
# 2 4.7410 94.1824 50.4643 0.0000 0.0000 0.0000
# 3 16.9069 50.4643 149.5580 0.0000 0.0000 0.0000
# 4 0.0000 0.0000 0.0000 43.6958 0.0000 0.0000
# 5 0.0000 0.0000 0.0000 0.0000 27.4100 0.0000
# 6 0.0000 0.0000 0.0000 0.0000 0.0000 28.9736
#
#
#
# Elastic Compliance Matrix: (Units=1/GPa)
#
#
# Indices 1 2 3 4 5 6 
#
# 1 0.013835 0.000173 -0.001622 0.000000 0.000000 0.000000
# 2 0.000173 0.012963 -0.004394 0.000000 0.000000 0.000000
# 3 -0.001622 -0.004394 0.008352 0.000000 0.000000 0.000000
# 4 0.000000 0.000000 0.000000 0.022886 0.000000 0.000000
# 5 0.000000 0.000000 0.000000 0.000000 0.036483 0.000000
# 6 0.000000 0.000000 0.000000 0.000000 0.000000 0.034514
#
#
# Mechanical properties :
#
#
# Convention : Reuss Voigt Hill
#
# Bulk Modulus (GPa) = 42.61803 51.35207 46.98505
# Shear Modulus (GPa) = 33.66079 36.40466 35.03273
#
# Velocity S-wave (km/s) = 3.91598 4.07246 3.99498
# Velocity P-wave (km/s) = 6.31364 6.74594 6.53337
#
# Compressibility (1/GPa) = 0.02346425
#
# Stress axis : x y z
#
# Youngs Moduli (GPa) = 72.28040 77.14170 119.72793
#
# Poissons Ratio (x) = -0.01333 0.19423
# Poissons Ratio (y) = -0.01249 0.52604
# Poissons Ratio (z) = 0.11726 0.33893
#
# Static dielectric constant tensor:
#      x y z
#    x 1.785900 0.000000 0.000000 
#    y 0.000000 1.836770 0.000000 
#    z 0.000000 0.000000 1.886110 
# 
# From -- ./inp_files/17181.got.cif
#   From: 2010.05.17/outbox.cif.g08.bks.cpg/sg64_9_cif.got.tgz:17181.got - 2010.06.03 16:29:19.
