data_PCOD9479836
_publ_section_title
;
Structure prediction by ZEFSAII (Michael W. Deem and Ramdas Pophale) SiO2 
 PCOD9479836
Probable space group: C M C A
;
_chemical_formula_sum "Si O2"
_cell_formula_units_Z 112
_cell_length_a 14.522974
_cell_length_b 11.136713
_cell_length_c 30.676773
_cell_angle_alpha 90.000000
_cell_angle_beta 90.000000
_cell_angle_gamma 90.000000
_cell_volume 4961.605843
_symmetry_space_group_name_H-M "C M C A"
_symmetry_group_IT_number 64
_symmetry_cell_setting 'orthorhombic'
loop_
_space_group_symop_operation_xyz
x,y,z
-x,1/2-y,1/2+z
x,-y,-z
-x,1/2+y,1/2-z
-x,-y,-z
x,1/2+y,1/2-z
-x,y,z
x,1/2-y,1/2+z
1/2+x,1/2+y,z
1/2-x,-y,1/2+z
1/2+x,1/2-y,-z
1/2-x,y,1/2-z
1/2-x,1/2-y,-z
1/2+x,y,1/2-z
1/2-x,1/2+y,z
1/2+x,-y,1/2+z
loop_
_atom_site_type_symbol
_atom_site_label
_atom_site_fract_x
_atom_site_fract_y
_atom_site_fract_z
Si Si1 0.898824 0.785344 0.715735
Si Si2 0.653605 0.442286 0.274164
Si Si3 0.394937 0.687543 0.087291
Si Si4 0.755792 0.806607 0.348897
Si Si5 0.203035 0.551479 0.571102
Si Si6 0.895279 0.208836 0.991444
Si Si7 0.600111 0.542327 0.449878
O O1 0.890553 0.678472 0.752261
O O2 0.811797 0.760927 0.684408
O O3 0.000000 0.768931 0.695076
O O4 0.893590 0.926536 0.729569
O O5 0.750000 0.459605 0.250000
O O6 0.682698 0.403871 0.322860
O O7 0.500000 0.706476 0.099811
O O8 0.326405 0.723244 0.125245
O O9 0.372186 0.551848 0.074895
O O10 0.376911 0.752989 0.040798
O O11 0.694986 0.867160 0.386315
O O12 0.181231 0.619227 0.526161
O O13 0.306738 0.500868 0.572137
O O14 0.895557 0.315124 0.956475
O O15 0.000000 0.159297 0.992773
O O16 0.599350 0.500000 0.500000
O O17 0.500000 0.508101 0.430274
#
# Coordination Sequence:
#
# PCOD9479836 Si02
#       7
#    16  16  16  16  16  16  16
#     4  11  24  45  74 105 137 175 219 266 326 401
#     4  10  22  45  73 102 137 175 216 265 323 395
#     4  11  24  41  61  88 124 170 225 280 334 393
#     4  11  25  42  63  96 137 173 211 265 329 397
#     4  12  23  38  62  90 125 170 218 274 332 388
#     4  10  22  40  61  86 119 166 225 284 337 387
#     4  10  21  37  57  82 115 158 210 267 328 393
#
# _framework density 22.573336000000001
#
# number of rings (size 3 to 8) (size 9 to 14) (size 15 to 20)
#    0.000    1.286    0.000    6.000    0.000    8.000 
#    0.000    3.571    0.000    0.857    0.000    0.000 
#    0.000    0.000    0.000    0.000    0.000    0.000 
#
# Total GULP energy -312817.480607 kJ/mol
# GULP energy per Si atom -5586.026439 kJ/mol
# Density = 2.252196 g / cm^3
# Si number density = 22.573336 Si / 1000 Ang^3
#
#
#
# Elastic Constant Matrix: (Units=GPa)
#
#
# Indices 1 2 3 4 5 6 
#
# 1 121.4672 53.2666 38.5494 0.0000 0.0000 0.0000
# 2 53.2666 98.0335 22.7407 0.0000 0.0000 0.0000
# 3 38.5494 22.7407 75.7083 0.0000 0.0000 0.0000
# 4 0.0000 0.0000 0.0000 20.9272 0.0000 0.0000
# 5 0.0000 0.0000 0.0000 0.0000 15.7858 0.0000
# 6 0.0000 0.0000 0.0000 0.0000 0.0000 -2.5849
#
#
#
# Elastic Compliance Matrix: (Units=1/GPa)
#
#
# Indices 1 2 3 4 5 6 
#
# 1 0.012080 -0.005521 -0.004492 0.000000 0.000000 0.000000
# 2 -0.005521 0.013488 -0.001240 0.000000 0.000000 0.000000
# 3 -0.004492 -0.001240 0.015868 0.000000 0.000000 0.000000
# 4 0.000000 0.000000 0.000000 0.047785 0.000000 0.000000
# 5 0.000000 0.000000 0.000000 0.000000 0.063348 0.000000
# 6 0.000000 0.000000 0.000000 0.000000 0.000000 -0.386855
#
#
# Mechanical properties :
#
#
# Convention : Reuss Voigt Hill
#
# Bulk Modulus (GPa) = 52.82943 58.25804 55.54374
# Shear Modulus (GPa) = -24.33459 18.86911 -2.73274
#
# Velocity S-wave (km/s) = -3.28689 2.89433 -1.10147
# Velocity P-wave (km/s) = 3.00823 6.08555 4.80017
#
# Compressibility (1/GPa) = 0.01892884
#
# Stress axis : x y z
#
# Youngs Moduli (GPa) = 82.78380 74.13811 63.01805
#
# Poissons Ratio (x) = 0.40935 0.28309
# Poissons Ratio (y) = 0.45708 0.07815
# Poissons Ratio (z) = 0.37189 0.09194
#
# Static dielectric constant tensor:
#      x y z
#    x 1.815690 0.000000 0.000000 
#    y 0.000000 1.952880 0.000000 
#    z 0.000000 0.000000 1.821430 
# 
# From -- ./inp_files/53237.got.cif
#   From: 2010.05.17/outbox.cif.g08.bks.cpg/sg64_27_cif.got.tgz:53237.got - 2010.06.03 16:29:19.
