data_PCOD9479992
_publ_section_title
;
Structure prediction by ZEFSAII (Michael W. Deem and Ramdas Pophale) SiO2 
 PCOD9479992
Probable space group: C M C A
;
_chemical_formula_sum "Si O2"
_cell_formula_units_Z 80
_cell_length_a 16.145337
_cell_length_b 28.670480
_cell_length_c 8.908620
_cell_angle_alpha 90.000000
_cell_angle_beta 90.000000
_cell_angle_gamma 90.000000
_cell_volume 4123.751749
_symmetry_space_group_name_H-M "C M C A"
_symmetry_group_IT_number 64
_symmetry_cell_setting 'orthorhombic'
loop_
_space_group_symop_operation_xyz
x,y,z
-x,1/2-y,1/2+z
x,-y,-z
-x,1/2+y,1/2-z
-x,-y,-z
x,1/2+y,1/2-z
-x,y,z
x,1/2-y,1/2+z
1/2+x,1/2+y,z
1/2-x,-y,1/2+z
1/2+x,1/2-y,-z
1/2-x,y,1/2-z
1/2-x,1/2-y,-z
1/2+x,y,1/2-z
1/2-x,1/2+y,z
1/2+x,-y,1/2+z
loop_
_atom_site_type_symbol
_atom_site_label
_atom_site_fract_x
_atom_site_fract_y
_atom_site_fract_z
Si Si1 0.831192 0.389327 0.447417
Si Si2 0.171980 0.551951 0.060574
Si Si3 0.907298 0.039273 0.125204
Si Si4 0.404505 0.629380 0.621389
Si Si5 0.764735 0.799769 0.427277
O O1 0.754809 0.423093 0.495289
O O2 0.905594 0.411581 0.539023
O O3 0.856358 0.387382 0.272611
O O4 0.801167 0.337674 0.488152
O O5 0.155399 0.545158 0.237198
O O6 0.167210 0.500000 0.000000
O O7 0.102755 0.586956 0.995455
O O8 0.000000 0.027830 0.180284
O O9 0.886085 0.000000 0.000000
O O10 0.500000 0.639978 0.654383
O O11 0.353485 0.674051 0.559121
O O12 0.750000 0.794890 0.250000
O O13 0.750000 0.750000 0.500000
#
# Coordination Sequence:
#
# PCOD9479992 Si02
#       5
#    16  16  16  16  16
#     4  10  21  38  59  81 111 154 199 244 297 357
#     4  11  22  36  56  84 118 159 204 245 294 362
#     4  11  23  36  53  82 119 156 196 246 300 350
#     4  10  21  39  61  86 118 154 198 251 303 355
#     4   9  20  38  60  84 112 148 188 234 294 358
#
# _framework density 19.399811
#
# number of rings (size 3 to 8) (size 9 to 14) (size 15 to 20)
#    0.000    1.800    0.000    5.400    0.000    8.000 
#    0.000    5.000    0.000    0.000    0.000    0.000 
#    0.000    0.000    0.000    0.000    0.000    0.000 
#
# Total GULP energy -222978.328823 kJ/mol
# GULP energy per Si atom -5574.458221 kJ/mol
# Density = 1.935566 g / cm^3
# Si number density = 19.399811 Si / 1000 Ang^3
#
#
#
# Elastic Constant Matrix: (Units=GPa)
#
#
# Indices 1 2 3 4 5 6 
#
# 1 116.4448 49.7924 39.9506 0.0000 0.0000 0.0000
# 2 49.7924 178.8266 64.3419 0.0000 0.0000 0.0000
# 3 39.9506 64.3419 89.8416 0.0000 0.0000 0.0000
# 4 0.0000 0.0000 0.0000 38.7278 0.0000 0.0000
# 5 0.0000 0.0000 0.0000 0.0000 25.7580 0.0000
# 6 0.0000 0.0000 0.0000 0.0000 0.0000 13.6998
#
#
#
# Elastic Compliance Matrix: (Units=1/GPa)
#
#
# Indices 1 2 3 4 5 6 
#
# 1 0.010493 -0.001674 -0.003467 0.000000 0.000000 0.000000
# 2 -0.001674 0.007800 -0.004842 0.000000 0.000000 0.000000
# 3 -0.003467 -0.004842 0.016140 0.000000 0.000000 0.000000
# 4 0.000000 0.000000 0.000000 0.025821 0.000000 0.000000
# 5 0.000000 0.000000 0.000000 0.000000 0.038823 0.000000
# 6 0.000000 0.000000 0.000000 0.000000 0.000000 0.072994
#
#
# Mechanical properties :
#
#
# Convention : Reuss Voigt Hill
#
# Bulk Modulus (GPa) = 69.12186 77.03142 73.07664
# Shear Modulus (GPa) = 25.39876 31.03900 28.21888
#
# Velocity S-wave (km/s) = 3.62225 4.00429 3.81805
# Velocity P-wave (km/s) = 7.29396 7.82130 7.56222
#
# Compressibility (1/GPa) = 0.01446720
#
# Stress axis : x y z
#
# Youngs Moduli (GPa) = 95.30006 128.20056 61.95802
#
# Poissons Ratio (x) = 0.21464 0.21481
# Poissons Ratio (y) = 0.15956 0.29999
# Poissons Ratio (z) = 0.33041 0.62072
#
# Static dielectric constant tensor:
#      x y z
#    x 1.777590 0.000000 0.000000 
#    y 0.000000 1.652040 0.000000 
#    z 0.000000 0.000000 1.727180 
# 
# From -- ./inp_files/7119.got.cif
#   From: 2010.05.17/outbox.cif.g08.bks.cpg/sg64_4_cif.got.tgz:7119.got - 2010.06.03 16:29:19.
