data_PCOD9479088
_publ_section_title
;
Structure prediction by ZEFSAII (Michael W. Deem and Ramdas Pophale) SiO2 
 PCOD9479088
Probable space group: C M C A
;
_chemical_formula_sum "Si O2"
_cell_formula_units_Z 112
_cell_length_a 15.243672
_cell_length_b 25.582224
_cell_length_c 14.774790
_cell_angle_alpha 90.000000
_cell_angle_beta 90.000000
_cell_angle_gamma 90.000000
_cell_volume 5761.681000
_symmetry_space_group_name_H-M "C M C A"
_symmetry_group_IT_number 64
_symmetry_cell_setting 'orthorhombic'
loop_
_space_group_symop_operation_xyz
x,y,z
-x,1/2-y,1/2+z
x,-y,-z
-x,1/2+y,1/2-z
-x,-y,-z
x,1/2+y,1/2-z
-x,y,z
x,1/2-y,1/2+z
1/2+x,1/2+y,z
1/2-x,-y,1/2+z
1/2+x,1/2-y,-z
1/2-x,y,1/2-z
1/2-x,1/2-y,-z
1/2+x,y,1/2-z
1/2-x,1/2+y,z
1/2+x,-y,1/2+z
loop_
_atom_site_type_symbol
_atom_site_label
_atom_site_fract_x
_atom_site_fract_y
_atom_site_fract_z
Si Si1 0.812386 0.093948 0.336646
Si Si2 0.896983 0.793628 0.626439
Si Si3 0.400744 0.824660 0.071269
Si Si4 0.899502 0.486436 0.158212
Si Si5 0.729364 0.579325 0.541107
Si Si6 0.649237 0.692934 0.763917
Si Si7 0.400934 0.582201 0.838864
O O1 0.750000 0.091519 0.250000
O O2 0.854179 0.151455 0.344901
O O3 0.765043 0.081908 0.432630
O O4 0.883342 0.047755 0.327291
O O5 0.888270 0.790108 0.517794
O O6 0.856003 0.743599 0.673961
O O7 0.000000 0.794765 0.648294
O O8 0.500000 0.847328 0.065257
O O9 0.326527 0.869074 0.068776
O O10 0.391511 0.795473 0.165861
O O11 0.831677 0.465617 0.083724
O O12 0.883157 0.454304 0.251179
O O13 0.000000 0.476712 0.130849
O O14 0.823887 0.576099 0.588215
O O15 0.750000 0.678048 0.750000
O O16 0.602675 0.642253 0.805306
O O17 0.500000 0.570574 0.871008
#
# Coordination Sequence:
#
# PCOD9479088 Si02
#       7
#    16  16  16  16  16  16  16
#     4  11  24  42  60  86 126 170 210 250 306 373
#     4  10  23  40  59  87 124 164 206 255 308 368
#     4  10  20  37  60  90 123 155 200 254 306 358
#     4  11  22  38  67  99 125 156 201 259 314 367
#     4  11  21  39  63  93 123 159 206 257 308 366
#     4  12  21  38  64  89 125 161 206 258 312 367
#     4  11  22  39  64  97 128 159 205 262 315 364
#
# _framework density 19.438770999999999
#
# number of rings (size 3 to 8) (size 9 to 14) (size 15 to 20)
#    0.000    1.143    2.857    4.286    0.000    2.857 
#    2.571    1.429    0.000    3.429    0.000    0.000 
#    0.000    0.000    0.000    0.000    0.000    0.000 
#
# Total GULP energy -312876.530905 kJ/mol
# GULP energy per Si atom -5587.080909 kJ/mol
# Density = 1.939453 g / cm^3
# Si number density = 19.438771 Si / 1000 Ang^3
#
#
#
# Elastic Constant Matrix: (Units=GPa)
#
#
# Indices 1 2 3 4 5 6 
#
# 1 112.5250 -0.5877 54.3731 0.0000 0.0000 0.0000
# 2 -0.5877 80.1415 28.5027 0.0000 0.0000 0.0000
# 3 54.3731 28.5027 101.7672 0.0000 0.0000 0.0000
# 4 0.0000 0.0000 0.0000 24.7589 0.0000 0.0000
# 5 0.0000 0.0000 0.0000 0.0000 -93.0271 0.0000
# 6 0.0000 0.0000 0.0000 0.0000 0.0000 -13.8172
#
#
#
# Elastic Compliance Matrix: (Units=1/GPa)
#
#
# Indices 1 2 3 4 5 6 
#
# 1 0.012499 0.002740 -0.007445 0.000000 0.000000 0.000000
# 2 0.002740 0.014459 -0.005513 0.000000 0.000000 0.000000
# 3 -0.007445 -0.005513 0.015348 0.000000 0.000000 0.000000
# 4 0.000000 0.000000 0.000000 0.040390 0.000000 0.000000
# 5 0.000000 0.000000 0.000000 0.000000 -0.010750 0.000000
# 6 0.000000 0.000000 0.000000 0.000000 0.000000 -0.072373
#
#
# Mechanical properties :
#
#
# Convention : Reuss Voigt Hill
#
# Bulk Modulus (GPa) = 45.72871 51.00110 48.36490
# Shear Modulus (GPa) = 183.14948 -2.27403 90.43772
#
# Velocity S-wave (km/s) = 9.71716 -1.08277 6.82828
# Velocity P-wave (km/s) = 12.22592 4.97298 9.33284
#
# Compressibility (1/GPa) = 0.02186810
#
# Stress axis : x y z
#
# Youngs Moduli (GPa) = 80.00736 69.16178 65.15321
#
# Poissons Ratio (x) = -0.18948 0.48508
# Poissons Ratio (y) = -0.21919 0.35921
# Poissons Ratio (z) = 0.59568 0.38131
#
# Static dielectric constant tensor:
#      x y z
#    x 1.675590 0.000000 0.000000 
#    y 0.000000 1.700350 0.000000 
#    z 0.000000 0.000000 1.679030 
# 
# From -- ./inp_files/24180.got.cif
#   From: 2010.05.17/outbox.cif.g08.bks.cpg/sg64_13_cif.got.tgz:24180.got - 2010.06.03 16:29:19.
