data_PCOD9479164
_publ_section_title
;
Structure prediction by ZEFSAII (Michael W. Deem and Ramdas Pophale) SiO2 
 PCOD9479164
Probable space group: C M C A
;
_chemical_formula_sum "Si O2"
_cell_formula_units_Z 64
_cell_length_a 13.475120
_cell_length_b 23.274226
_cell_length_c 8.729939
_cell_angle_alpha 90.000000
_cell_angle_beta 90.000000
_cell_angle_gamma 90.000000
_cell_volume 2737.909556
_symmetry_space_group_name_H-M "C M C A"
_symmetry_group_IT_number 64
_symmetry_cell_setting 'orthorhombic'
loop_
_space_group_symop_operation_xyz
x,y,z
-x,1/2-y,1/2+z
x,-y,-z
-x,1/2+y,1/2-z
-x,-y,-z
x,1/2+y,1/2-z
-x,y,z
x,1/2-y,1/2+z
1/2+x,1/2+y,z
1/2-x,-y,1/2+z
1/2+x,1/2-y,-z
1/2-x,y,1/2-z
1/2-x,1/2-y,-z
1/2+x,y,1/2-z
1/2-x,1/2+y,z
1/2+x,-y,1/2+z
loop_
_atom_site_type_symbol
_atom_site_label
_atom_site_fract_x
_atom_site_fract_y
_atom_site_fract_z
Si Si1 0.191170 0.566287 0.018463
Si Si2 0.880740 0.221581 0.988277
Si Si3 0.114519 0.891757 0.841854
Si Si4 0.879759 0.331374 0.162486
O O1 0.135156 0.592354 0.166560
O O2 0.307542 0.572860 0.056942
O O3 0.165017 0.500000 0.000000
O O4 0.161739 0.606397 0.877496
O O5 0.851004 0.193511 0.827814
O O6 0.000000 0.227836 0.976398
O O7 0.863661 0.175095 0.122230
O O8 0.845111 0.284515 0.036076
O O9 0.000000 0.902237 0.881653
O O10 0.000000 0.334774 0.158483
#
# Coordination Sequence:
#
# PCOD9479164 Si02
#       4
#    16  16  16  16
#     4  11  25  42  64  95 128 169 217 257 308 380
#     4   9  19  37  65  99 130 166 211 262 326 383
#     4  10  23  44  66  90 125 165 209 264 317 370
#     4  10  20  37  64  98 134 167 208 264 318 376
#
# _framework density 23.375499000000001
#
# number of rings (size 3 to 8) (size 9 to 14) (size 15 to 20)
#    0.000    2.000    0.000    2.250    0.000   12.500 
#    0.000    2.500    0.000    0.000    0.000    0.000 
#    0.000    0.000    0.000    0.000    0.000    0.000 
#
# Total GULP energy -179229.932445 kJ/mol
# GULP energy per Si atom -5600.935389 kJ/mol
# Density = 2.332229 g / cm^3
# Si number density = 23.375499 Si / 1000 Ang^3
#
#
#
# Elastic Constant Matrix: (Units=GPa)
#
#
# Indices 1 2 3 4 5 6 
#
# 1 102.7593 38.7127 47.8650 0.0000 0.0000 0.0000
# 2 38.7127 190.9566 76.8449 0.0000 0.0000 0.0000
# 3 47.8650 76.8449 102.4670 0.0000 0.0000 0.0000
# 4 0.0000 0.0000 0.0000 26.4543 0.0000 0.0000
# 5 0.0000 0.0000 0.0000 0.0000 28.0242 0.0000
# 6 0.0000 0.0000 0.0000 0.0000 0.0000 19.0807
#
#
#
# Elastic Compliance Matrix: (Units=1/GPa)
#
#
# Indices 1 2 3 4 5 6 
#
# 1 0.012447 -0.000263 -0.005617 0.000000 0.000000 0.000000
# 2 -0.000263 0.007506 -0.005506 0.000000 0.000000 0.000000
# 3 -0.005617 -0.005506 0.016513 0.000000 0.000000 0.000000
# 4 0.000000 0.000000 0.000000 0.037801 0.000000 0.000000
# 5 0.000000 0.000000 0.000000 0.000000 0.035684 0.000000
# 6 0.000000 0.000000 0.000000 0.000000 0.000000 0.052409
#
#
# Mechanical properties :
#
#
# Convention : Reuss Voigt Hill
#
# Bulk Modulus (GPa) = 73.03076 80.33647 76.68361
# Shear Modulus (GPa) = 26.35800 30.22918 28.29359
#
# Velocity S-wave (km/s) = 3.36161 3.60001 3.48285
# Velocity P-wave (km/s) = 6.81010 7.19184 7.00357
#
# Compressibility (1/GPa) = 0.01369286
#
# Stress axis : x y z
#
# Youngs Moduli (GPa) = 80.34076 133.22823 60.56004
#
# Poissons Ratio (x) = 0.03503 0.34017
# Poissons Ratio (y) = 0.02112 0.33346
# Poissons Ratio (z) = 0.45128 0.73358
#
# Static dielectric constant tensor:
#      x y z
#    x 1.938580 0.000000 0.000000 
#    y 0.000000 1.828450 0.000000 
#    z 0.000000 0.000000 1.873220 
# 
# From -- ./inp_files/5573.got.cif
#   From: 2010.05.17/outbox.cif.g08.bks.cpg/sg64_3_cif.got.tgz:5573.got - 2010.06.03 16:29:19.
