data_PCOD9479369
_publ_section_title
;
Structure prediction by ZEFSAII (Michael W. Deem and Ramdas Pophale) SiO2 
 PCOD9479369
Probable space group: C M C A
;
_chemical_formula_sum "Si O2"
_cell_formula_units_Z 96
_cell_length_a 8.778691
_cell_length_b 25.746103
_cell_length_c 24.076048
_cell_angle_alpha 90.000000
_cell_angle_beta 90.000000
_cell_angle_gamma 90.000000
_cell_volume 5441.598132
_symmetry_space_group_name_H-M "C M C A"
_symmetry_group_IT_number 64
_symmetry_cell_setting 'orthorhombic'
loop_
_space_group_symop_operation_xyz
x,y,z
-x,1/2-y,1/2+z
x,-y,-z
-x,1/2+y,1/2-z
-x,-y,-z
x,1/2+y,1/2-z
-x,y,z
x,1/2-y,1/2+z
1/2+x,1/2+y,z
1/2-x,-y,1/2+z
1/2+x,1/2-y,-z
1/2-x,y,1/2-z
1/2-x,1/2-y,-z
1/2+x,y,1/2-z
1/2-x,1/2+y,z
1/2+x,-y,1/2+z
loop_
_atom_site_type_symbol
_atom_site_label
_atom_site_fract_x
_atom_site_fract_y
_atom_site_fract_z
Si Si1 0.683150 0.897902 0.877417
Si Si2 0.182384 0.997389 0.311299
Si Si3 0.816345 0.939167 0.500908
Si Si4 0.681707 0.804627 0.689636
Si Si5 0.817063 0.191327 0.810085
Si Si6 0.317868 0.905754 0.386347
O O1 0.500000 0.890420 0.875257
O O2 0.720851 0.946875 0.838119
O O3 0.724488 0.913720 0.940199
O O4 0.764995 0.847041 0.854634
O O5 0.250000 0.992722 0.250000
O O6 0.000000 0.993035 0.309312
O O7 0.247020 0.952559 0.350735
O O8 0.744072 0.910425 0.448576
O O9 0.000000 0.937917 0.495714
O O10 0.770817 0.000000 0.500000
O O11 0.500000 0.802372 0.693506
O O12 0.750000 0.819261 0.750000
O O13 0.747692 0.747603 0.676526
O O14 0.750000 0.175642 0.750000
O O15 0.778607 0.148080 0.855653
O O16 0.000000 0.195499 0.805633
O O17 0.500000 0.910737 0.386287
#
# Coordination Sequence:
#
# PCOD9479369 Si02
#       6
#    16  16  16  16  16  16
#     4  10  21  38  59  83 114 150 190 234 283 339
#     4  11  22  36  55  82 116 150 187 232 286 344
#     4  10  20  39  61  83 112 154 196 233 285 340
#     4  11  22  37  60  87 115 149 190 234 287 341
#     4  10  21  38  59  84 115 150 190 233 286 341
#     4  11  23  37  57  86 116 150 191 237 285 338
#
# _framework density 17.641874999999999
#
# number of rings (size 3 to 8) (size 9 to 14) (size 15 to 20)
#    0.000    1.500    1.667    5.000    0.000    7.667 
#    0.000    0.833    0.000    0.000    0.000    0.000 
#    0.000    0.000    0.000    0.000    0.000    0.000 
#
# Total GULP energy -268273.244241 kJ/mol
# GULP energy per Si atom -5589.025922 kJ/mol
# Density = 1.760172 g / cm^3
# Si number density = 17.641875 Si / 1000 Ang^3
#
#
#
# Elastic Constant Matrix: (Units=GPa)
#
#
# Indices 1 2 3 4 5 6 
#
# 1 55.7212 43.9271 34.9643 0.0000 0.0000 0.0000
# 2 43.9271 94.8773 55.1931 0.0000 0.0000 0.0000
# 3 34.9643 55.1931 93.1891 0.0000 0.0000 0.0000
# 4 0.0000 0.0000 0.0000 17.6300 0.0000 0.0000
# 5 0.0000 0.0000 0.0000 0.0000 33.4051 0.0000
# 6 0.0000 0.0000 0.0000 0.0000 0.0000 24.1038
#
#
#
# Elastic Compliance Matrix: (Units=1/GPa)
#
#
# Indices 1 2 3 4 5 6 
#
# 1 0.029469 -0.011003 -0.004540 0.000000 0.000000 0.000000
# 2 -0.011003 0.020188 -0.007829 0.000000 0.000000 0.000000
# 3 -0.004540 -0.007829 0.017071 0.000000 0.000000 0.000000
# 4 0.000000 0.000000 0.000000 0.056722 0.000000 0.000000
# 5 0.000000 0.000000 0.000000 0.000000 0.029936 0.000000
# 6 0.000000 0.000000 0.000000 0.000000 0.000000 0.041487
#
#
# Mechanical properties :
#
#
# Convention : Reuss Voigt Hill
#
# Bulk Modulus (GPa) = 50.03682 56.88407 53.46044
# Shear Modulus (GPa) = 20.13872 22.34133 21.24002
#
# Velocity S-wave (km/s) = 3.38232 3.56248 3.47357
# Velocity P-wave (km/s) = 6.60890 7.01680 6.81590
#
# Compressibility (1/GPa) = 0.01998528
#
# Stress axis : x y z
#
# Youngs Moduli (GPa) = 33.93366 49.53366 58.57868
#
# Poissons Ratio (x) = 0.54501 0.26596
# Poissons Ratio (y) = 0.37336 0.45860
# Poissons Ratio (z) = 0.15407 0.38779
#
# Static dielectric constant tensor:
#      x y z
#    x 1.590540 0.000000 0.000000 
#    y 0.000000 1.581610 0.000000 
#    z 0.000000 0.000000 1.581230 
# 
# From -- ./inp_files/42976.got.cif
#   From: 2010.05.17/outbox.cif.g08.bks.cpg/sg64_22_cif.got.tgz:42976.got - 2010.06.03 16:29:19.
