data_PCOD9479101
_publ_section_title
;
Structure prediction by ZEFSAII (Michael W. Deem and Ramdas Pophale) SiO2 
 PCOD9479101
Probable space group: C M C A
;
_chemical_formula_sum "Si O2"
_cell_formula_units_Z 112
_cell_length_a 20.074272
_cell_length_b 18.074961
_cell_length_c 12.305440
_cell_angle_alpha 90.000000
_cell_angle_beta 90.000000
_cell_angle_gamma 90.000000
_cell_volume 4464.926566
_symmetry_space_group_name_H-M "C M C A"
_symmetry_group_IT_number 64
_symmetry_cell_setting 'orthorhombic'
loop_
_space_group_symop_operation_xyz
x,y,z
-x,1/2-y,1/2+z
x,-y,-z
-x,1/2+y,1/2-z
-x,-y,-z
x,1/2+y,1/2-z
-x,y,z
x,1/2-y,1/2+z
1/2+x,1/2+y,z
1/2-x,-y,1/2+z
1/2+x,1/2-y,-z
1/2-x,y,1/2-z
1/2-x,1/2-y,-z
1/2+x,y,1/2-z
1/2-x,1/2+y,z
1/2+x,-y,1/2+z
loop_
_atom_site_type_symbol
_atom_site_label
_atom_site_fract_x
_atom_site_fract_y
_atom_site_fract_z
Si Si1 0.925569 0.353511 0.146758
Si Si2 0.170271 0.578321 0.262927
Si Si3 0.424935 0.475012 0.121344
Si Si4 0.317240 0.185453 0.457892
Si Si5 0.573960 0.202578 0.633401
Si Si6 0.779582 0.655370 0.868807
Si Si7 0.073775 0.577670 0.067743
O O1 0.918050 0.287165 0.235394
O O2 0.850315 0.384541 0.144136
O O3 0.000000 0.385471 0.174882
O O4 0.931248 0.354968 0.017070
O O5 0.250000 0.572836 0.250000
O O6 0.131812 0.505546 0.301755
O O7 0.155111 0.636076 0.360031
O O8 0.132443 0.595798 0.150836
O O9 0.500000 0.503097 0.144744
O O10 0.425776 0.387086 0.128201
O O11 0.409565 0.500000 0.000000
O O12 0.368019 0.217963 0.548194
O O13 0.267120 0.133981 0.529602
O O14 0.287516 0.257396 0.398305
O O15 0.500000 0.227866 0.603508
O O16 0.750000 0.649059 0.750000
O O17 0.000000 0.570661 0.119843
O O18 0.082937 0.500000 0.000000
#
# Coordination Sequence:
#
# PCOD9479101 Si02
#       7
#    16  16  16  16  16  16  16
#     4  10  21  40  64  91 120 159 217 265 313 385
#     4  12  24  39  60  97 136 166 216 272 312 379
#     4  10  20  37  61  88 125 165 199 246 317 379
#     4  11  24  41  65  92 126 169 220 266 331 393
#     4  10  20  39  65  94 124 158 207 267 319 381
#     4  11  23  43  66  88 126 177 213 266 342 402
#     4  10  22  43  67  92 131 182 219 258 329 408
#
# _framework density 25.084399000000001
#
# number of rings (size 3 to 8) (size 9 to 14) (size 15 to 20)
#    0.000    1.429    2.857    2.571    0.000    5.143 
#    5.143    0.000    0.000    0.000    0.000    0.000 
#    0.000    0.000    0.000    0.000    0.000    0.000 
#
# Total GULP energy -312103.035188 kJ/mol
# GULP energy per Si atom -5573.268486 kJ/mol
# Density = 2.502731 g / cm^3
# Si number density = 25.084399 Si / 1000 Ang^3
#
#
#
# Elastic Constant Matrix: (Units=GPa)
#
#
# Indices 1 2 3 4 5 6 
#
# 1 187.2089 7.1815 94.8200 0.0000 0.0000 0.0000
# 2 7.1815 60.6669 30.4782 0.0000 0.0000 0.0000
# 3 94.8200 30.4782 154.5005 0.0000 0.0000 0.0000
# 4 0.0000 0.0000 0.0000 6.0734 0.0000 0.0000
# 5 0.0000 0.0000 0.0000 0.0000 21.3558 0.0000
# 6 0.0000 0.0000 0.0000 0.0000 0.0000 -31.8934
#
#
#
# Elastic Compliance Matrix: (Units=1/GPa)
#
#
# Indices 1 2 3 4 5 6 
#
# 1 0.007900 0.001666 -0.005177 0.000000 0.000000 0.000000
# 2 0.001666 0.018648 -0.004701 0.000000 0.000000 0.000000
# 3 -0.005177 -0.004701 0.010577 0.000000 0.000000 0.000000
# 4 0.000000 0.000000 0.000000 0.164651 0.000000 0.000000
# 5 0.000000 0.000000 0.000000 0.000000 0.046826 0.000000
# 6 0.000000 0.000000 0.000000 0.000000 0.000000 -0.031354
#
#
# Mechanical properties :
#
#
# Convention : Reuss Voigt Hill
#
# Bulk Modulus (GPa) = 48.30813 74.14840 61.22827
# Shear Modulus (GPa) = 20.78385 17.10027 18.94206
#
# Velocity S-wave (km/s) = 2.88159 2.61379 2.75095
# Velocity P-wave (km/s) = 5.51103 6.22358 5.87811
#
# Compressibility (1/GPa) = 0.02070045
#
# Stress axis : x y z
#
# Youngs Moduli (GPa) = 126.58634 53.62524 94.54549
#
# Poissons Ratio (x) = -0.08932 0.48944
# Poissons Ratio (y) = -0.21084 0.44445
# Poissons Ratio (z) = 0.65531 0.25209
#
# Static dielectric constant tensor:
#      x y z
#    x 2.047610 0.000000 0.000000 
#    y 0.000000 2.033620 0.000000 
#    z 0.000000 0.000000 2.113740 
# 
# From -- ./inp_files/17538.got.cif
#   From: 2010.05.17/outbox.cif.g08.bks.cpg/sg64_9_cif.got.tgz:17538.got - 2010.06.03 16:29:19.
