data_PCOD9479364
_publ_section_title
;
Structure prediction by ZEFSAII (Michael W. Deem and Ramdas Pophale) SiO2 
 PCOD9479364
Probable space group: C M C A
;
_chemical_formula_sum "Si O2"
_cell_formula_units_Z 104
_cell_length_a 22.608160
_cell_length_b 8.673448
_cell_length_c 24.279450
_cell_angle_alpha 90.000000
_cell_angle_beta 90.000000
_cell_angle_gamma 90.000000
_cell_volume 4760.974349
_symmetry_space_group_name_H-M "C M C A"
_symmetry_group_IT_number 64
_symmetry_cell_setting 'orthorhombic'
loop_
_space_group_symop_operation_xyz
x,y,z
-x,1/2-y,1/2+z
x,-y,-z
-x,1/2+y,1/2-z
-x,-y,-z
x,1/2+y,1/2-z
-x,y,z
x,1/2-y,1/2+z
1/2+x,1/2+y,z
1/2-x,-y,1/2+z
1/2+x,1/2-y,-z
1/2-x,y,1/2-z
1/2-x,1/2-y,-z
1/2+x,y,1/2-z
1/2-x,1/2+y,z
1/2+x,-y,1/2+z
loop_
_atom_site_type_symbol
_atom_site_label
_atom_site_fract_x
_atom_site_fract_y
_atom_site_fract_z
Si Si1 0.787118 0.002215 0.869721
Si Si2 0.587066 0.558987 0.174136
Si Si3 0.384188 0.000000 0.000000
Si Si4 0.934692 0.332089 0.101657
Si Si5 0.787796 0.283525 0.945506
Si Si6 0.164824 0.037483 0.682873
Si Si7 0.607417 0.260321 0.225334
O O1 0.807681 0.131109 0.913428
O O2 0.842080 0.944042 0.834933
O O3 0.757517 0.868491 0.905276
O O4 0.732406 0.060326 0.833247
O O5 0.565114 0.652250 0.120556
O O6 0.572010 0.380852 0.187041
O O7 0.572457 0.659041 0.228958
O O8 0.421024 0.114858 0.960549
O O9 0.341291 0.894761 0.962361
O O10 0.881184 0.401535 0.137314
O O11 0.000000 0.392993 0.116946
O O12 0.750000 0.250000 0.000000
O O13 0.147542 0.859012 0.691816
O O14 0.148455 0.130461 0.737417
#
# Coordination Sequence:
#
# PCOD9479364 Si02
#       7
#    16  16   8  16  16  16  16
#     4  12  22  34  61  92 136 168 206 259 323 376
#     4  10  22  38  61  94 129 168 211 260 317 383
#     4  12  23  42  68  90 126 164 229 262 338 388
#     4  11  24  45  67  90 123 168 222 274 319 384
#     4  12  21  36  57  91 127 169 213 266 311 388
#     4  10  20  39  59  98 130 170 215 256 319 388
#     4   9  20  37  61  92 135 168 209 255 318 384
#
# _framework density 21.844266999999999
#
# number of rings (size 3 to 8) (size 9 to 14) (size 15 to 20)
#    0.000    1.231    3.077    3.923    0.000    3.692 
#    0.000   13.077    0.000    0.923    0.000    0.000 
#    0.000    0.000    0.000    0.000    0.000    0.000 
#
# Total GULP energy -290417.674217 kJ/mol
# GULP energy per Si atom -5584.955273 kJ/mol
# Density = 2.179455 g / cm^3
# Si number density = 21.844267 Si / 1000 Ang^3
#
#
#
# Elastic Constant Matrix: (Units=GPa)
#
#
# Indices 1 2 3 4 5 6 
#
# 1 113.8211 12.8781 17.3175 0.0000 0.0000 0.0000
# 2 12.8781 126.3392 37.2655 0.0000 0.0000 0.0000
# 3 17.3175 37.2655 68.0595 0.0000 0.0000 0.0000
# 4 0.0000 0.0000 0.0000 51.3197 0.0000 0.0000
# 5 0.0000 0.0000 0.0000 0.0000 -86.1845 0.0000
# 6 0.0000 0.0000 0.0000 0.0000 0.0000 2.1048
#
#
#
# Elastic Compliance Matrix: (Units=1/GPa)
#
#
# Indices 1 2 3 4 5 6 
#
# 1 0.009149 -0.000293 -0.002167 0.000000 0.000000 0.000000
# 2 -0.000293 0.009449 -0.005099 0.000000 0.000000 0.000000
# 3 -0.002167 -0.005099 0.018037 0.000000 0.000000 0.000000
# 4 0.000000 0.000000 0.000000 0.019486 0.000000 0.000000
# 5 0.000000 0.000000 0.000000 0.000000 -0.011603 0.000000
# 6 0.000000 0.000000 0.000000 0.000000 0.000000 0.475114
#
#
# Mechanical properties :
#
#
# Convention : Reuss Voigt Hill
#
# Bulk Modulus (GPa) = 46.47955 49.23801 47.85878
# Shear Modulus (GPa) = 9.22641 9.49858 9.36249
#
# Velocity S-wave (km/s) = 2.05740 2.08752 2.07252
# Velocity P-wave (km/s) = 5.19305 5.32914 5.26153
#
# Compressibility (1/GPa) = 0.02151484
#
# Stress axis : x y z
#
# Youngs Moduli (GPa) = 109.30589 105.82934 55.44311
#
# Poissons Ratio (x) = 0.03104 0.12016
# Poissons Ratio (y) = 0.03206 0.28272
# Poissons Ratio (z) = 0.23689 0.53965
#
# Static dielectric constant tensor:
#      x y z
#    x 1.785500 0.000000 0.000000 
#    y 0.000000 1.861930 0.000000 
#    z 0.000000 0.000000 1.825390 
# 
# From -- ./inp_files/51017.got.cif
#   From: 2010.05.17/outbox.cif.g08.bks.cpg/sg64_26_cif.got.tgz:51017.got - 2010.06.03 16:29:19.
