data_PCOD9479959
_publ_section_title
;
Structure prediction by ZEFSAII (Michael W. Deem and Ramdas Pophale) SiO2 
 PCOD9479959
Probable space group: C M C A
;
_chemical_formula_sum "Si O2"
_cell_formula_units_Z 104
_cell_length_a 32.429836
_cell_length_b 19.507798
_cell_length_c 8.487523
_cell_angle_alpha 90.000000
_cell_angle_beta 90.000000
_cell_angle_gamma 90.000000
_cell_volume 5369.501481
_symmetry_space_group_name_H-M "C M C A"
_symmetry_group_IT_number 64
_symmetry_cell_setting 'orthorhombic'
loop_
_space_group_symop_operation_xyz
x,y,z
-x,1/2-y,1/2+z
x,-y,-z
-x,1/2+y,1/2-z
-x,-y,-z
x,1/2+y,1/2-z
-x,y,z
x,1/2-y,1/2+z
1/2+x,1/2+y,z
1/2-x,-y,1/2+z
1/2+x,1/2-y,-z
1/2-x,y,1/2-z
1/2-x,1/2-y,-z
1/2+x,y,1/2-z
1/2-x,1/2+y,z
1/2+x,-y,1/2+z
loop_
_atom_site_type_symbol
_atom_site_label
_atom_site_fract_x
_atom_site_fract_y
_atom_site_fract_z
Si Si1 0.250000 0.757446 0.750000
Si Si2 0.262445 0.427325 0.566417
Si Si3 0.353641 0.417181 0.529902
Si Si4 0.879954 0.339565 0.661621
Si Si5 0.299343 0.166549 0.528459
Si Si6 0.048636 0.698671 0.531322
Si Si7 0.594167 0.692280 0.653036
O O1 0.272665 0.801532 0.616929
O O2 0.286117 0.712197 0.825880
O O3 0.273821 0.500000 0.500000
O O4 0.250000 0.430112 0.750000
O O5 0.306044 0.389529 0.537285
O O6 0.224026 0.404939 0.459809
O O7 0.357952 0.500000 0.500000
O O8 0.370262 0.392514 0.700769
O O9 0.378776 0.371393 0.403850
O O10 0.845967 0.343022 0.522898
O O11 0.925701 0.347600 0.591546
O O12 0.878787 0.258538 0.708733
O O13 0.067205 0.774262 0.489207
O O14 0.063224 0.677836 0.704589
O O15 0.000000 0.697265 0.512228
#
# Coordination Sequence:
#
# PCOD9479959 Si02
#       7
#     8  16  16  16  16  16  16
#     4  10  24  32  54  88 114 164 190 260 318 342
#     4  11  24  42  58  83 126 172 211 251 301 372
#     4  11  23  43  64  91 134 176 215 262 322 387
#     4  10  21  38  64  94 121 163 216 268 317 379
#     4  11  22  37  57  84 125 153 211 258 306 363
#     4  10  21  37  66  98 128 160 211 271 329 396
#     4  10  21  38  65  96 126 164 212 265 324 385
#
# _framework density 19.368651
#
# number of rings (size 3 to 8) (size 9 to 14) (size 15 to 20)
#    0.923    0.615    3.846    0.462    9.692    0.000 
#    2.769    0.769    0.000    5.077    0.000    0.000 
#    0.000    0.000    0.000    0.000    0.000    0.000 
#
# Total GULP energy -289561.585707 kJ/mol
# GULP energy per Si atom -5568.492033 kJ/mol
# Density = 1.932457 g / cm^3
# Si number density = 19.368651 Si / 1000 Ang^3
#
#
#
# Elastic Constant Matrix: (Units=GPa)
#
#
# Indices 1 2 3 4 5 6 
#
# 1 132.6189 36.4788 18.2256 0.0000 0.0000 0.0000
# 2 36.4788 60.3869 24.4032 0.0000 0.0000 0.0000
# 3 18.2256 24.4032 50.4921 0.0000 0.0000 0.0000
# 4 0.0000 0.0000 0.0000 21.2075 0.0000 0.0000
# 5 0.0000 0.0000 0.0000 0.0000 23.8173 0.0000
# 6 0.0000 0.0000 0.0000 0.0000 0.0000 16.2137
#
#
#
# Elastic Compliance Matrix: (Units=1/GPa)
#
#
# Indices 1 2 3 4 5 6 
#
# 1 0.009068 -0.005163 -0.000778 0.000000 0.000000 0.000000
# 2 -0.005163 0.023519 -0.009503 0.000000 0.000000 0.000000
# 3 -0.000778 -0.009503 0.024679 0.000000 0.000000 0.000000
# 4 0.000000 0.000000 0.000000 0.047153 0.000000 0.000000
# 5 0.000000 0.000000 0.000000 0.000000 0.041986 0.000000
# 6 0.000000 0.000000 0.000000 0.000000 0.000000 0.061676
#
#
# Mechanical properties :
#
#
# Convention : Reuss Voigt Hill
#
# Bulk Modulus (GPa) = 37.91143 44.63480 41.27312
# Shear Modulus (GPa) = 20.18062 23.20704 21.69383
#
# Velocity S-wave (km/s) = 3.23138 3.46522 3.35034
# Velocity P-wave (km/s) = 5.79125 6.25342 6.02677
#
# Compressibility (1/GPa) = 0.02637727
#
# Stress axis : x y z
#
# Youngs Moduli (GPa) = 110.28385 42.51800 40.52065
#
# Poissons Ratio (x) = 0.21954 0.03151
# Poissons Ratio (y) = 0.56943 0.38508
# Poissons Ratio (z) = 0.08575 0.40406
#
# Static dielectric constant tensor:
#      x y z
#    x 1.663160 0.000000 0.000000 
#    y 0.000000 1.759670 0.000000 
#    z 0.000000 0.000000 0.026190 
# 
# From -- ./inp_files/11206.got.cif
#   From: 2010.05.17/outbox.cif.g08.bks.cpg/sg64_6_cif.got.tgz:11206.got - 2010.06.03 16:29:19.
