data_PCOD9479919
_publ_section_title
;
Structure prediction by ZEFSAII (Michael W. Deem and Ramdas Pophale) SiO2 
 PCOD9479919
Probable space group: C M C A
;
_chemical_formula_sum "Si O2"
_cell_formula_units_Z 40
_cell_length_a 22.213695
_cell_length_b 14.271921
_cell_length_c 5.166543
_cell_angle_alpha 90.000000
_cell_angle_beta 90.000000
_cell_angle_gamma 90.000000
_cell_volume 1637.959978
_symmetry_space_group_name_H-M "C M C A"
_symmetry_group_IT_number 64
_symmetry_cell_setting 'orthorhombic'
loop_
_space_group_symop_operation_xyz
x,y,z
-x,1/2-y,1/2+z
x,-y,-z
-x,1/2+y,1/2-z
-x,-y,-z
x,1/2+y,1/2-z
-x,y,z
x,1/2-y,1/2+z
1/2+x,1/2+y,z
1/2-x,-y,1/2+z
1/2+x,1/2-y,-z
1/2-x,y,1/2-z
1/2-x,1/2-y,-z
1/2+x,y,1/2-z
1/2-x,1/2+y,z
1/2+x,-y,1/2+z
loop_
_atom_site_type_symbol
_atom_site_label
_atom_site_fract_x
_atom_site_fract_y
_atom_site_fract_z
Si Si1 0.872403 0.390045 0.954703
Si Si2 0.250000 0.816208 0.750000
Si Si3 0.067571 0.113475 0.958646
O O1 0.808784 0.377499 0.811382
O O2 0.919607 0.350610 0.747061
O O3 0.882172 0.500000 0.000000
O O4 0.884039 0.352964 0.244801
O O5 0.250000 0.750000 0.500000
O O6 0.000000 0.133496 0.868751
O O7 0.071780 0.000000 0.000000
#
# Coordination Sequence:
#
# PCOD9479919 Si02
#       3
#    16   8  16
#     4  10  21  37  61  88 115 153 201 246 291 356
#     4  12  26  42  60  84 124 166 202 252 310 362
#     4   9  17  32  58  91 119 144 186 247 303 350
#
# _framework density 24.420621000000001
#
# number of rings (size 3 to 8) (size 9 to 14) (size 15 to 20)
#    0.000    2.000    0.000    3.600    0.000   11.200 
#    0.000    0.000    0.000   24.000    0.000    0.000 
#    0.000    0.000    0.000    0.000    0.000    0.000 
#
# Total GULP energy -111632.413862 kJ/mol
# GULP energy per Si atom -5581.620693 kJ/mol
# Density = 2.436504 g / cm^3
# Si number density = 24.420621 Si / 1000 Ang^3
#
#
#
# Elastic Constant Matrix: (Units=GPa)
#
#
# Indices 1 2 3 4 5 6 
#
# 1 108.7945 -19.0189 65.2463 0.0000 0.0000 0.0000
# 2 -19.0189 69.8958 9.4775 0.0000 0.0000 0.0000
# 3 65.2463 9.4775 221.6012 0.0000 0.0000 0.0000
# 4 0.0000 0.0000 0.0000 12.3551 0.0000 0.0000
# 5 0.0000 0.0000 0.0000 0.0000 47.2158 0.0000
# 6 0.0000 0.0000 0.0000 0.0000 0.0000 13.1162
#
#
#
# Elastic Compliance Matrix: (Units=1/GPa)
#
#
# Indices 1 2 3 4 5 6 
#
# 1 0.012086 0.003793 -0.003721 0.000000 0.000000 0.000000
# 2 0.003793 0.015581 -0.001783 0.000000 0.000000 0.000000
# 3 -0.003721 -0.001783 0.005684 0.000000 0.000000 0.000000
# 4 0.000000 0.000000 0.000000 0.080939 0.000000 0.000000
# 5 0.000000 0.000000 0.000000 0.000000 0.021179 0.000000
# 6 0.000000 0.000000 0.000000 0.000000 0.000000 0.076242
#
#
# Mechanical properties :
#
#
# Convention : Reuss Voigt Hill
#
# Bulk Modulus (GPa) = 33.41134 56.85570 45.13352
# Shear Modulus (GPa) = 22.21143 37.50984 29.86064
#
# Velocity S-wave (km/s) = 3.01912 3.92342 3.50060
# Velocity P-wave (km/s) = 5.08574 6.62244 5.90430
#
# Compressibility (1/GPa) = 0.02992996
#
# Stress axis : x y z
#
# Youngs Moduli (GPa) = 82.73911 64.18095 175.92034
#
# Poissons Ratio (x) = -0.24345 0.65456
# Poissons Ratio (y) = -0.31385 0.31370
# Poissons Ratio (z) = 0.30785 0.11445
#
# Static dielectric constant tensor:
#      x y z
#    x 2.017030 0.000000 0.000000 
#    y 0.000000 2.805370 0.000000 
#    z 0.000000 0.000000 1.914040 
# 
# From -- ./inp_files/1017.got.cif
#   From: 2010.05.17/outbox.cif.g08.bks.cpg/sg64_1_cif.got.tgz:1017.got - 2010.06.03 16:29:19.
