data_PCOD9479597
_publ_section_title
;
Structure prediction by ZEFSAII (Michael W. Deem and Ramdas Pophale) SiO2 
 PCOD9479597
Probable space group: C M C A
;
_chemical_formula_sum "Si O2"
_cell_formula_units_Z 112
_cell_length_a 30.659223
_cell_length_b 36.452238
_cell_length_c 5.208821
_cell_angle_alpha 90.000000
_cell_angle_beta 90.000000
_cell_angle_gamma 90.000000
_cell_volume 5821.364253
_symmetry_space_group_name_H-M "C M C A"
_symmetry_group_IT_number 64
_symmetry_cell_setting 'orthorhombic'
loop_
_space_group_symop_operation_xyz
x,y,z
-x,1/2-y,1/2+z
x,-y,-z
-x,1/2+y,1/2-z
-x,-y,-z
x,1/2+y,1/2-z
-x,y,z
x,1/2-y,1/2+z
1/2+x,1/2+y,z
1/2-x,-y,1/2+z
1/2+x,1/2-y,-z
1/2-x,y,1/2-z
1/2-x,1/2-y,-z
1/2+x,y,1/2-z
1/2-x,1/2+y,z
1/2+x,-y,1/2+z
loop_
_atom_site_type_symbol
_atom_site_label
_atom_site_fract_x
_atom_site_fract_y
_atom_site_fract_z
Si Si1 0.551029 0.524810 0.247503
Si Si2 0.052397 0.228511 0.751609
Si Si3 0.798904 0.763959 0.444624
Si Si4 0.898253 0.100425 0.257921
Si Si5 0.309452 0.658264 0.804532
Si Si6 0.296092 0.114622 0.202325
Si Si7 0.910573 0.852301 0.229519
O O1 0.555439 0.500000 0.500000
O O2 0.500000 0.536101 0.226046
O O3 0.581429 0.560186 0.268165
O O4 0.561484 0.500000 0.000000
O O5 0.069097 0.249689 0.500406
O O6 0.062877 0.185333 0.754079
O O7 0.000000 0.231678 0.751744
O O8 0.820292 0.738557 0.225038
O O9 0.750000 0.750000 0.500000
O O10 0.796260 0.803736 0.322657
O O11 0.844820 0.098725 0.242023
O O12 0.910670 0.124041 0.509675
O O13 0.918818 0.121352 0.012795
O O14 0.297483 0.627658 0.592560
O O15 0.361164 0.660216 0.816761
O O16 0.292920 0.647769 0.087189
O O17 0.250000 0.093731 0.250000
#
# Coordination Sequence:
#
# PCOD9479597 Si02
#       7
#    16  16  16  16  16  16  16
#     4  10  21  38  63  94 126 157 178 210 276 345
#     4  10  21  36  54  76 105 144 190 238 292 349
#     4  10  21  30  41  62  88 122 166 223 278 340
#     4  10  21  38  57  88 116 145 192 232 271 336
#     4  10  21  34  48  71  97 132 182 230 282 331
#     4  10  21  34  56  72 101 145 181 228 271 318
#     4  10  21  36  55  79 109 146 190 239 288 329
#
# _framework density 19.239477000000001
#
# number of rings (size 3 to 8) (size 9 to 14) (size 15 to 20)
#    0.000    2.000    0.000    3.000    6.000    2.286 
#    0.000    0.000    0.000    0.857    0.000    0.000 
#    0.000    0.000    0.000    0.000    0.000    0.000 
#
# Total GULP energy -312314.766896 kJ/mol
# GULP energy per Si atom -5577.049409 kJ/mol
# Density = 1.919569 g / cm^3
# Si number density = 19.239477 Si / 1000 Ang^3
#
#
#
# Elastic Constant Matrix: (Units=GPa)
#
#
# Indices 1 2 3 4 5 6 
#
# 1 49.4118 48.3686 31.5092 0.0000 0.0000 0.0000
# 2 48.3686 107.2558 38.2878 0.0000 0.0000 0.0000
# 3 31.5092 38.2878 148.9340 0.0000 0.0000 0.0000
# 4 0.0000 0.0000 0.0000 18.5725 0.0000 0.0000
# 5 0.0000 0.0000 0.0000 0.0000 -17.7393 0.0000
# 6 0.0000 0.0000 0.0000 0.0000 0.0000 6.4188
#
#
#
# Elastic Compliance Matrix: (Units=1/GPa)
#
#
# Indices 1 2 3 4 5 6 
#
# 1 0.038315 -0.015838 -0.004034 0.000000 0.000000 0.000000
# 2 -0.015838 0.016813 -0.000971 0.000000 0.000000 0.000000
# 3 -0.004034 -0.000971 0.007818 0.000000 0.000000 0.000000
# 4 0.000000 0.000000 0.000000 0.053843 0.000000 0.000000
# 5 0.000000 0.000000 0.000000 0.000000 -0.056372 0.000000
# 6 0.000000 0.000000 0.000000 0.000000 0.000000 0.155792
#
#
# Mechanical properties :
#
#
# Convention : Reuss Voigt Hill
#
# Bulk Modulus (GPa) = 47.04348 60.21478 53.62913
# Shear Modulus (GPa) = 18.86916 13.94613 16.40765
#
# Velocity S-wave (km/s) = 3.13509 2.69526 2.92346
# Velocity P-wave (km/s) = 6.13268 6.40714 6.27141
#
# Compressibility (1/GPa) = 0.02125693
#
# Stress axis : x y z
#
# Youngs Moduli (GPa) = 26.09961 59.47834 127.91613
#
# Poissons Ratio (x) = 0.94204 0.51606
# Poissons Ratio (y) = 0.41338 0.12425
# Poissons Ratio (z) = 0.10529 0.05778
#
# Static dielectric constant tensor:
#      x y z
#    x 1.726190 0.000000 0.000000 
#    y 0.000000 1.655740 0.000000 
#    z 0.000000 0.000000 1.821040 
# 
# From -- ./inp_files/3495.got.cif
#   From: 2010.05.17/outbox.cif.g08.bks.cpg/sg64_2_cif.got.tgz:3495.got - 2010.06.03 16:29:19.
