data_PCOD9479692
_publ_section_title
;
Structure prediction by ZEFSAII (Michael W. Deem and Ramdas Pophale) SiO2 
 PCOD9479692
Probable space group: C M C A
;
_chemical_formula_sum "Si O2"
_cell_formula_units_Z 96
_cell_length_a 16.089291
_cell_length_b 24.170430
_cell_length_c 12.206208
_cell_angle_alpha 90.000000
_cell_angle_beta 90.000000
_cell_angle_gamma 90.000000
_cell_volume 4746.812197
_symmetry_space_group_name_H-M "C M C A"
_symmetry_group_IT_number 64
_symmetry_cell_setting 'orthorhombic'
loop_
_space_group_symop_operation_xyz
x,y,z
-x,1/2-y,1/2+z
x,-y,-z
-x,1/2+y,1/2-z
-x,-y,-z
x,1/2+y,1/2-z
-x,y,z
x,1/2-y,1/2+z
1/2+x,1/2+y,z
1/2-x,-y,1/2+z
1/2+x,1/2-y,-z
1/2-x,y,1/2-z
1/2-x,1/2-y,-z
1/2+x,y,1/2-z
1/2-x,1/2+y,z
1/2+x,-y,1/2+z
loop_
_atom_site_type_symbol
_atom_site_label
_atom_site_fract_x
_atom_site_fract_y
_atom_site_fract_z
Si Si1 0.149498 0.876068 0.748767
Si Si2 0.864762 0.436208 0.524690
Si Si3 0.334883 0.840714 0.109293
Si Si4 0.593675 0.719100 0.412154
Si Si5 0.863824 0.157950 0.855095
Si Si6 0.162655 0.558493 0.038743
O O1 0.250000 0.870287 0.750000
O O2 0.115476 0.900761 0.863735
O O3 0.119156 0.817957 0.694549
O O4 0.132763 0.922612 0.657207
O O5 0.893243 0.500000 0.500000
O O6 0.889461 0.396166 0.423839
O O7 0.763940 0.441286 0.535755
O O8 0.236148 0.840600 0.129202
O O9 0.379011 0.840869 0.225633
O O10 0.352518 0.794278 0.019336
O O11 0.362331 0.895702 0.047602
O O12 0.500000 0.702621 0.437858
O O13 0.599918 0.784316 0.395398
O O14 0.131956 0.500000 0.000000
#
# Coordination Sequence:
#
# PCOD9479692 Si02
#       6
#    16  16  16  16  16  16
#     4   9  19  34  57  85 119 156 191 237 291 345
#     4   9  18  32  54  88 117 143 190 241 294 343
#     4   9  20  36  56  85 115 150 193 239 287 348
#     4  11  24  39  59  84 115 156 199 243 287 342
#     4  10  21  35  59  87 115 152 189 238 296 347
#     4   8  15  29  53  84 116 148 186 237 285 336
#
# _framework density 20.224098000000001
#
# number of rings (size 3 to 8) (size 9 to 14) (size 15 to 20)
#    0.000    2.667    0.000    1.500    7.000    0.667 
#    0.000    0.000    0.000   10.000    0.000    0.000 
#    0.000    0.000    0.000    0.000    0.000    0.000 
#
# Total GULP energy -267320.631454 kJ/mol
# GULP energy per Si atom -5569.179822 kJ/mol
# Density = 2.017807 g / cm^3
# Si number density = 20.224098 Si / 1000 Ang^3
#
#
#
# Elastic Constant Matrix: (Units=GPa)
#
#
# Indices 1 2 3 4 5 6 
#
# 1 14.3083 12.2044 12.5473 0.0000 0.0000 0.0000
# 2 12.2044 95.7296 49.5222 0.0000 0.0000 0.0000
# 3 12.5473 49.5222 126.4253 0.0000 0.0000 0.0000
# 4 0.0000 0.0000 0.0000 -7.0448 0.0000 0.0000
# 5 0.0000 0.0000 0.0000 0.0000 3.4267 0.0000
# 6 0.0000 0.0000 0.0000 0.0000 0.0000 -24.0175
#
#
#
# Elastic Compliance Matrix: (Units=1/GPa)
#
#
# Indices 1 2 3 4 5 6 
#
# 1 0.080861 -0.007722 -0.005000 0.000000 0.000000 0.000000
# 2 -0.007722 0.013838 -0.004654 0.000000 0.000000 0.000000
# 3 -0.005000 -0.004654 0.010229 0.000000 0.000000 0.000000
# 4 0.000000 0.000000 0.000000 -0.141949 0.000000 0.000000
# 5 0.000000 0.000000 0.000000 0.000000 0.291823 0.000000
# 6 0.000000 0.000000 0.000000 0.000000 0.000000 -0.041636
#
#
# Mechanical properties :
#
#
# Convention : Reuss Voigt Hill
#
# Bulk Modulus (GPa) = 14.25010 42.77902 28.51456
# Shear Modulus (GPa) = 18.42906 5.28552 11.85729
#
# Velocity S-wave (km/s) = 3.02195 1.61838 2.42398
# Velocity P-wave (km/s) = 4.38608 4.96897 4.68659
#
# Compressibility (1/GPa) = 0.07017496
#
# Stress axis : x y z
#
# Youngs Moduli (GPa) = 12.36693 72.26351 97.75947
#
# Poissons Ratio (x) = 0.55802 0.48883
# Poissons Ratio (y) = 0.09550 0.45499
# Poissons Ratio (z) = 0.06184 0.33633
#
# Static dielectric constant tensor:
#      x y z
#    x 1.773000 0.000000 0.000000 
#    y 0.000000 1.748070 0.000000 
#    z 0.000000 0.000000 1.566900 
# 
# From -- ./inp_files/17479.got.cif
#   From: 2010.05.17/outbox.cif.g08.bks.cpg/sg64_9_cif.got.tgz:17479.got - 2010.06.03 16:29:19.
