data_PCOD9479035
_publ_section_title
;
Structure prediction by ZEFSAII (Michael W. Deem and Ramdas Pophale) SiO2 
 PCOD9479035
Probable space group: C M C A
;
_chemical_formula_sum "Si O2"
_cell_formula_units_Z 88
_cell_length_a 32.387413
_cell_length_b 22.658188
_cell_length_c 5.463058
_cell_angle_alpha 90.000000
_cell_angle_beta 90.000000
_cell_angle_gamma 90.000000
_cell_volume 4009.010989
_symmetry_space_group_name_H-M "C M C A"
_symmetry_group_IT_number 64
_symmetry_cell_setting 'orthorhombic'
loop_
_space_group_symop_operation_xyz
x,y,z
-x,1/2-y,1/2+z
x,-y,-z
-x,1/2+y,1/2-z
-x,-y,-z
x,1/2+y,1/2-z
-x,y,z
x,1/2-y,1/2+z
1/2+x,1/2+y,z
1/2-x,-y,1/2+z
1/2+x,1/2-y,-z
1/2-x,y,1/2-z
1/2-x,1/2-y,-z
1/2+x,y,1/2-z
1/2-x,1/2+y,z
1/2+x,-y,1/2+z
loop_
_atom_site_type_symbol
_atom_site_label
_atom_site_fract_x
_atom_site_fract_y
_atom_site_fract_z
Si Si1 0.000000 0.711112 0.975419
Si Si2 0.426051 0.343915 0.216445
Si Si3 0.704557 0.461756 0.748406
Si Si4 0.454995 0.059867 0.344001
Si Si5 0.122624 0.896536 0.598787
Si Si6 0.866446 0.736341 0.192377
O O1 0.959515 0.671373 0.926896
O O2 0.000000 0.756869 0.739984
O O3 0.449646 0.382541 0.017079
O O4 0.387514 0.383294 0.314475
O O5 0.405437 0.280689 0.158031
O O6 0.705791 0.500000 0.500000
O O7 0.750000 0.432170 0.750000
O O8 0.665371 0.421040 0.696932
O O9 0.699538 0.500000 0.000000
O O10 0.500000 0.061963 0.221229
O O11 0.414896 0.062028 0.176835
O O12 0.453809 0.000000 0.500000
O O13 0.119856 0.830919 0.710316
O O14 0.843335 0.756273 0.435356
#
# Coordination Sequence:
#
# PCOD9479035 Si02
#       6
#     8  16  16  16  16  16
#     4  12  26  40  65  91 131 179 240 294 334 374
#     4  11  24  38  60  92 130 180 233 280 331 398
#     4  10  24  46  74 107 136 170 226 285 337 408
#     4  11  25  41  58  89 135 185 232 280 334 401
#     4  11  24  39  68  91 134 177 220 278 350 397
#     4  10  20  37  57  92 123 165 216 273 319 389
#
# _framework density 21.95055
#
# number of rings (size 3 to 8) (size 9 to 14) (size 15 to 20)
#    0.000    1.273    2.727    2.727    8.909    0.000 
#    0.000    1.818    0.000    4.364    0.000    0.000 
#    0.000    0.000    0.000    0.000    0.000    0.000 
#
# Total GULP energy -245483.008570 kJ/mol
# GULP energy per Si atom -5579.159286 kJ/mol
# Density = 2.190059 g / cm^3
# Si number density = 21.950550 Si / 1000 Ang^3
#
#
#
# Elastic Constant Matrix: (Units=GPa)
#
#
# Indices 1 2 3 4 5 6 
#
# 1 128.0302 43.8641 21.0736 0.0000 0.0000 0.0000
# 2 43.8641 73.7093 16.1036 0.0000 0.0000 0.0000
# 3 21.0736 16.1036 92.4627 0.0000 0.0000 0.0000
# 4 0.0000 0.0000 0.0000 31.7365 0.0000 0.0000
# 5 0.0000 0.0000 0.0000 0.0000 15.6070 0.0000
# 6 0.0000 0.0000 0.0000 0.0000 0.0000 11.4659
#
#
#
# Elastic Compliance Matrix: (Units=1/GPa)
#
#
# Indices 1 2 3 4 5 6 
#
# 1 0.009956 -0.005644 -0.001286 0.000000 0.000000 0.000000
# 2 -0.005644 0.017303 -0.001727 0.000000 0.000000 0.000000
# 3 -0.001286 -0.001727 0.011409 0.000000 0.000000 0.000000
# 4 0.000000 0.000000 0.000000 0.031510 0.000000 0.000000
# 5 0.000000 0.000000 0.000000 0.000000 0.064074 0.000000
# 6 0.000000 0.000000 0.000000 0.000000 0.000000 0.087215
#
#
# Mechanical properties :
#
#
# Convention : Reuss Voigt Hill
#
# Bulk Modulus (GPa) = 46.83063 50.69832 48.76447
# Shear Modulus (GPa) = 20.33362 25.97260 23.15311
#
# Velocity S-wave (km/s) = 3.04688 3.44355 3.25127
# Velocity P-wave (km/s) = 5.81024 6.24159 6.02977
#
# Compressibility (1/GPa) = 0.02135355
#
# Stress axis : x y z
#
# Youngs Moduli (GPa) = 100.44238 57.79432 87.64913
#
# Poissons Ratio (x) = 0.32618 0.11273
# Poissons Ratio (y) = 0.56687 0.15139
# Poissons Ratio (z) = 0.12919 0.09982
#
# Static dielectric constant tensor:
#      x y z
#    x 1.803400 0.000000 0.000000 
#    y 0.000000 1.820580 0.000000 
#    z 0.000000 0.000000 1.982040 
# 
# From -- ./inp_files/3310.got.cif
#   From: 2010.05.17/outbox.cif.g08.bks.cpg/sg64_2_cif.got.tgz:3310.got - 2010.06.03 16:29:19.
