data_PCOD9479732
_publ_section_title
;
Structure prediction by ZEFSAII (Michael W. Deem and Ramdas Pophale) SiO2 
 PCOD9479732
Probable space group: C M C A
;
_chemical_formula_sum "Si O2"
_cell_formula_units_Z 72
_cell_length_a 27.106523
_cell_length_b 22.329759
_cell_length_c 5.358114
_cell_angle_alpha 90.000000
_cell_angle_beta 90.000000
_cell_angle_gamma 90.000000
_cell_volume 3243.170633
_symmetry_space_group_name_H-M "C M C A"
_symmetry_group_IT_number 64
_symmetry_cell_setting 'orthorhombic'
loop_
_space_group_symop_operation_xyz
x,y,z
-x,1/2-y,1/2+z
x,-y,-z
-x,1/2+y,1/2-z
-x,-y,-z
x,1/2+y,1/2-z
-x,y,z
x,1/2-y,1/2+z
1/2+x,1/2+y,z
1/2-x,-y,1/2+z
1/2+x,1/2-y,-z
1/2-x,y,1/2-z
1/2-x,1/2-y,-z
1/2+x,y,1/2-z
1/2-x,1/2+y,z
1/2+x,-y,1/2+z
loop_
_atom_site_type_symbol
_atom_site_label
_atom_site_fract_x
_atom_site_fract_y
_atom_site_fract_z
Si Si1 0.124301 0.886015 0.721323
Si Si2 0.692417 0.713259 0.213268
Si Si3 0.704586 0.440952 0.371193
Si Si4 0.127406 0.000000 0.000000
Si Si5 0.441032 0.787095 0.009279
O O1 0.153336 0.836476 0.881324
O O2 0.171931 0.907468 0.568669
O O3 0.101730 0.945212 0.851956
O O4 0.086278 0.849224 0.551966
O O5 0.684217 0.737089 0.496669
O O6 0.750000 0.694517 0.250000
O O7 0.727754 0.500000 0.500000
O O8 0.750000 0.406360 0.250000
O O9 0.663837 0.464701 0.181972
O O10 0.500000 0.796605 0.003873
O O11 0.429307 0.742442 0.776943
#
# Coordination Sequence:
#
# PCOD9479732 Si02
#       5
#    16  16  16   8  16
#     4  11  24  37  64  91 128 169 220 275 326 392
#     4  10  23  38  56  85 120 162 208 260 324 380
#     4  10  21  36  56  84 126 174 221 262 307 376
#     4  10  24  38  57  90 130 174 225 258 326 384
#     4  10  23  45  74 102 127 165 217 277 346 405
#
# _framework density 22.200498
#
# number of rings (size 3 to 8) (size 9 to 14) (size 15 to 20)
#    0.000    1.778    1.111    1.333    9.333    0.889 
#    0.000    0.556    0.000    6.000    0.000    0.000 
#    0.000    0.000    0.000    0.000    0.000    0.000 
#
# Total GULP energy -200726.203377 kJ/mol
# GULP energy per Si atom -5575.727872 kJ/mol
# Density = 2.214997 g / cm^3
# Si number density = 22.200498 Si / 1000 Ang^3
#
#
#
# Elastic Constant Matrix: (Units=GPa)
#
#
# Indices 1 2 3 4 5 6 
#
# 1 58.1120 31.7970 8.6628 0.0000 0.0000 0.0000
# 2 31.7970 83.2994 17.2777 0.0000 0.0000 0.0000
# 3 8.6628 17.2777 75.9935 0.0000 0.0000 0.0000
# 4 0.0000 0.0000 0.0000 22.2170 0.0000 0.0000
# 5 0.0000 0.0000 0.0000 0.0000 27.4382 0.0000
# 6 0.0000 0.0000 0.0000 0.0000 0.0000 7.9527
#
#
#
# Elastic Compliance Matrix: (Units=1/GPa)
#
#
# Indices 1 2 3 4 5 6 
#
# 1 0.021779 -0.008185 -0.000622 0.000000 0.000000 0.000000
# 2 -0.008185 0.015675 -0.002631 0.000000 0.000000 0.000000
# 3 -0.000622 -0.002631 0.013828 0.000000 0.000000 0.000000
# 4 0.000000 0.000000 0.000000 0.045011 0.000000 0.000000
# 5 0.000000 0.000000 0.000000 0.000000 0.036445 0.000000
# 6 0.000000 0.000000 0.000000 0.000000 0.000000 0.125743
#
#
# Mechanical properties :
#
#
# Convention : Reuss Voigt Hill
#
# Bulk Modulus (GPa) = 35.20191 36.98667 36.09429
# Shear Modulus (GPa) = 17.19248 22.16607 19.67927
#
# Velocity S-wave (km/s) = 2.78586 3.16325 2.98053
# Velocity P-wave (km/s) = 5.12238 5.48069 5.30456
#
# Compressibility (1/GPa) = 0.02840755
#
# Stress axis : x y z
#
# Youngs Moduli (GPa) = 45.91536 63.79678 72.31680
#
# Poissons Ratio (x) = 0.52215 0.04497
# Poissons Ratio (y) = 0.37580 0.19025
# Poissons Ratio (z) = 0.02855 0.16784
#
# Static dielectric constant tensor:
#      x y z
#    x 1.801520 0.000000 0.000000 
#    y 0.000000 2.248350 0.000000 
#    z 0.000000 0.000000 1.576480 
# 
# From -- ./inp_files/3201.got.cif
#   From: 2010.05.17/outbox.cif.g08.bks.cpg/sg64_2_cif.got.tgz:3201.got - 2010.06.03 16:29:19.
