data_PCOD9479137
_publ_section_title
;
Structure prediction by ZEFSAII (Michael W. Deem and Ramdas Pophale) SiO2 
 PCOD9479137
Probable space group: C M C A
;
_chemical_formula_sum "Si O2"
_cell_formula_units_Z 64
_cell_length_a 13.362758
_cell_length_b 11.767327
_cell_length_c 15.262771
_cell_angle_alpha 90.000000
_cell_angle_beta 90.000000
_cell_angle_gamma 90.000000
_cell_volume 2399.978293
_symmetry_space_group_name_H-M "C M C A"
_symmetry_group_IT_number 64
_symmetry_cell_setting 'orthorhombic'
loop_
_space_group_symop_operation_xyz
x,y,z
-x,1/2-y,1/2+z
x,-y,-z
-x,1/2+y,1/2-z
-x,-y,-z
x,1/2+y,1/2-z
-x,y,z
x,1/2-y,1/2+z
1/2+x,1/2+y,z
1/2-x,-y,1/2+z
1/2+x,1/2-y,-z
1/2-x,y,1/2-z
1/2-x,1/2-y,-z
1/2+x,y,1/2-z
1/2-x,1/2+y,z
1/2+x,-y,1/2+z
loop_
_atom_site_type_symbol
_atom_site_label
_atom_site_fract_x
_atom_site_fract_y
_atom_site_fract_z
Si Si1 0.640589 0.589261 0.705634
Si Si2 0.161153 0.612330 0.456113
Si Si3 0.884272 0.853147 0.501608
Si Si4 0.631579 0.660093 0.239101
O O1 0.750000 0.579464 0.750000
O O2 0.633270 0.618722 0.601831
O O3 0.601217 0.458989 0.714887
O O4 0.600226 0.706963 0.751381
O O5 0.124159 0.500000 0.500000
O O6 0.130033 0.719150 0.513629
O O7 0.283038 0.604270 0.450434
O O8 0.114904 0.632031 0.362204
O O9 0.000000 0.882491 0.523980
O O10 0.750000 0.668973 0.250000
#
# Coordination Sequence:
#
# PCOD9479137 Si02
#       4
#    16  16  16  16
#     4   9  17  33  57  83 119 164 207 255 313 378
#     4  10  20  37  63  89 121 167 211 263 324 383
#     4  10  22  39  61  93 128 164 212 269 326 384
#     4   9  17  31  57  84 113 158 207 249 307 376
#
# _framework density 26.666909
#
# number of rings (size 3 to 8) (size 9 to 14) (size 15 to 20)
#    0.000    2.500    0.000    3.000    0.000    3.000 
#    0.000    5.000    0.000   52.500    0.000    0.000 
#    0.000    0.000    0.000    0.000    0.000    0.000 
#
# Total GULP energy -178354.827851 kJ/mol
# GULP energy per Si atom -5573.588370 kJ/mol
# Density = 2.660621 g / cm^3
# Si number density = 26.666909 Si / 1000 Ang^3
#
#
#
# Elastic Constant Matrix: (Units=GPa)
#
#
# Indices 1 2 3 4 5 6 
#
# 1 227.5641 10.8757 15.2508 0.0000 0.0000 0.0000
# 2 10.8757 265.2995 0.0441 0.0000 0.0000 0.0000
# 3 15.2508 0.0441 62.2152 0.0000 0.0000 0.0000
# 4 0.0000 0.0000 0.0000 34.0499 0.0000 0.0000
# 5 0.0000 0.0000 0.0000 0.0000 -19.6881 0.0000
# 6 0.0000 0.0000 0.0000 0.0000 0.0000 28.7276
#
#
#
# Elastic Compliance Matrix: (Units=1/GPa)
#
#
# Indices 1 2 3 4 5 6 
#
# 1 0.004477 -0.000183 -0.001097 0.000000 0.000000 0.000000
# 2 -0.000183 0.003777 0.000042 0.000000 0.000000 0.000000
# 3 -0.001097 0.000042 0.016342 0.000000 0.000000 0.000000
# 4 0.000000 0.000000 0.000000 0.029369 0.000000 0.000000
# 5 0.000000 0.000000 0.000000 0.000000 -0.050792 0.000000
# 6 0.000000 0.000000 0.000000 0.000000 0.000000 0.034810
#
#
# Mechanical properties :
#
#
# Convention : Reuss Voigt Hill
#
# Bulk Modulus (GPa) = 45.20986 67.49112 56.35049
# Shear Modulus (GPa) = 104.53344 43.87842 74.20593
#
# Velocity S-wave (km/s) = 6.26776 4.06079 5.28085
# Velocity P-wave (km/s) = 8.32887 6.88117 7.63939
#
# Compressibility (1/GPa) = 0.02211907
#
# Stress axis : x y z
#
# Youngs Moduli (GPa) = 223.38076 264.77209 61.19132
#
# Poissons Ratio (x) = 0.04854 0.06714
# Poissons Ratio (y) = 0.04095 -0.00259
# Poissons Ratio (z) = 0.24510 -0.01119
#
# Static dielectric constant tensor:
#      x y z
#    x 2.092300 0.000000 0.000000 
#    y 0.000000 2.122040 0.000000 
#    z 0.000000 0.000000 2.059970 
# 
# From -- ./inp_files/31658.got.cif
#   From: 2010.05.17/outbox.cif.g08.bks.cpg/sg64_16_cif.got.tgz:31658.got - 2010.06.03 16:29:19.
