data_PCOD9479531
_publ_section_title
;
Structure prediction by ZEFSAII (Michael W. Deem and Ramdas Pophale) SiO2 
 PCOD9479531
Probable space group: C M C A
;
_chemical_formula_sum "Si O2"
_cell_formula_units_Z 96
_cell_length_a 23.028661
_cell_length_b 11.519778
_cell_length_c 16.191550
_cell_angle_alpha 90.000000
_cell_angle_beta 90.000000
_cell_angle_gamma 90.000000
_cell_volume 4295.376351
_symmetry_space_group_name_H-M "C M C A"
_symmetry_group_IT_number 64
_symmetry_cell_setting 'orthorhombic'
loop_
_space_group_symop_operation_xyz
x,y,z
-x,1/2-y,1/2+z
x,-y,-z
-x,1/2+y,1/2-z
-x,-y,-z
x,1/2+y,1/2-z
-x,y,z
x,1/2-y,1/2+z
1/2+x,1/2+y,z
1/2-x,-y,1/2+z
1/2+x,1/2-y,-z
1/2-x,y,1/2-z
1/2-x,1/2-y,-z
1/2+x,y,1/2-z
1/2-x,1/2+y,z
1/2+x,-y,1/2+z
loop_
_atom_site_type_symbol
_atom_site_label
_atom_site_fract_x
_atom_site_fract_y
_atom_site_fract_z
Si Si1 0.433324 0.152078 0.299169
Si Si2 0.934189 0.050797 0.385001
Si Si3 0.136155 0.017635 0.902386
Si Si4 0.348452 0.776401 0.937976
Si Si5 0.150728 0.334326 0.120674
Si Si6 0.763269 0.023741 0.400039
O O1 0.500000 0.192549 0.313098
O O2 0.429463 0.100824 0.207603
O O3 0.384975 0.249975 0.319028
O O4 0.416622 0.044074 0.357530
O O5 0.909219 0.155948 0.438167
O O6 0.000000 0.021704 0.402759
O O7 0.893703 0.940162 0.396777
O O8 0.143877 0.155100 0.893251
O O9 0.197247 0.963184 0.872775
O O10 0.129668 0.000000 0.000000
O O11 0.302396 0.861268 0.893391
O O12 0.333412 0.767168 0.035346
O O13 0.207531 0.410894 0.142589
O O14 0.762943 0.000000 0.500000
#
# Coordination Sequence:
#
# PCOD9479531 Si02
#       6
#    16  16  16  16  16  16
#     4  11  25  40  59  87 126 169 200 244 308 368
#     4  10  23  41  62  84 118 168 208 245 299 360
#     4  11  22  38  62  92 125 161 195 251 309 365
#     4  10  21  39  63  95 117 152 207 256 303 350
#     4  10  20  41  64  91 118 152 208 257 294 357
#     4   8  19  35  65  91 118 153 200 249 302 359
#
# _framework density 22.349613000000002
#
# number of rings (size 3 to 8) (size 9 to 14) (size 15 to 20)
#    0.000    2.000    1.667    2.000    4.667    5.000 
#    0.000    3.333    0.000    0.000    0.000    0.000 
#    0.000    0.000    0.000    0.000    0.000    0.000 
#
# Total GULP energy -268085.520341 kJ/mol
# GULP energy per Si atom -5585.115007 kJ/mol
# Density = 2.229874 g / cm^3
# Si number density = 22.349613 Si / 1000 Ang^3
#
#
#
# Elastic Constant Matrix: (Units=GPa)
#
#
# Indices 1 2 3 4 5 6 
#
# 1 63.9526 3.8649 19.8157 0.0000 0.0000 0.0000
# 2 3.8649 100.3835 12.1722 0.0000 0.0000 0.0000
# 3 19.8157 12.1722 54.4891 0.0000 0.0000 0.0000
# 4 0.0000 0.0000 0.0000 11.6491 0.0000 0.0000
# 5 0.0000 0.0000 0.0000 0.0000 21.5536 0.0000
# 6 0.0000 0.0000 0.0000 0.0000 0.0000 23.6698
#
#
#
# Elastic Compliance Matrix: (Units=1/GPa)
#
#
# Indices 1 2 3 4 5 6 
#
# 1 0.017623 0.000101 -0.006432 0.000000 0.000000 0.000000
# 2 0.000101 0.010240 -0.002324 0.000000 0.000000 0.000000
# 3 -0.006432 -0.002324 0.021210 0.000000 0.000000 0.000000
# 4 0.000000 0.000000 0.000000 0.085843 0.000000 0.000000
# 5 0.000000 0.000000 0.000000 0.000000 0.046396 0.000000
# 6 0.000000 0.000000 0.000000 0.000000 0.000000 0.042248
#
#
# Mechanical properties :
#
#
# Convention : Reuss Voigt Hill
#
# Bulk Modulus (GPa) = 31.48176 32.28119 31.88148
# Shear Modulus (GPa) = 19.88405 23.57266 21.72836
#
# Velocity S-wave (km/s) = 2.98599 3.25117 3.12140
# Velocity P-wave (km/s) = 5.09949 5.34496 5.22367
#
# Compressibility (1/GPa) = 0.03176442
#
# Stress axis : x y z
#
# Youngs Moduli (GPa) = 56.74311 97.65880 47.14661
#
# Poissons Ratio (x) = -0.00990 0.30323
# Poissons Ratio (y) = -0.00575 0.10958
# Poissons Ratio (z) = 0.36495 0.22699
#
# Static dielectric constant tensor:
#      x y z
#    x 1.831410 0.000000 0.000000 
#    y 0.000000 1.847780 0.000000 
#    z 0.000000 0.000000 1.867570 
# 
# From -- ./inp_files/34952.got.cif
#   From: 2010.05.17/outbox.cif.g08.bks.cpg/sg64_18_cif.got.tgz:34952.got - 2010.06.03 16:29:19.
