data_PCOD9479187
_publ_section_title
;
Structure prediction by ZEFSAII (Michael W. Deem and Ramdas Pophale) SiO2 
 PCOD9479187
Probable space group: C M C A
;
_chemical_formula_sum "Si O2"
_cell_formula_units_Z 96
_cell_length_a 22.612641
_cell_length_b 8.923897
_cell_length_c 22.286650
_cell_angle_alpha 90.000000
_cell_angle_beta 90.000000
_cell_angle_gamma 90.000000
_cell_volume 4497.287271
_symmetry_space_group_name_H-M "C M C A"
_symmetry_group_IT_number 64
_symmetry_cell_setting 'orthorhombic'
loop_
_space_group_symop_operation_xyz
x,y,z
-x,1/2-y,1/2+z
x,-y,-z
-x,1/2+y,1/2-z
-x,-y,-z
x,1/2+y,1/2-z
-x,y,z
x,1/2-y,1/2+z
1/2+x,1/2+y,z
1/2-x,-y,1/2+z
1/2+x,1/2-y,-z
1/2-x,y,1/2-z
1/2-x,1/2-y,-z
1/2+x,y,1/2-z
1/2-x,1/2+y,z
1/2+x,-y,1/2+z
loop_
_atom_site_type_symbol
_atom_site_label
_atom_site_fract_x
_atom_site_fract_y
_atom_site_fract_z
Si Si1 0.000000 0.197168 0.337247
Si Si2 0.794970 0.355295 0.536889
Si Si3 0.372731 0.811386 0.861311
Si Si4 0.377648 0.622507 0.220726
Si Si5 0.845373 0.144379 0.629367
Si Si6 0.000000 0.964762 0.244918
Si Si7 0.217271 0.558660 0.645931
O O1 0.940324 0.235003 0.371409
O O2 0.000000 0.025520 0.313380
O O3 0.000000 0.292525 0.275080
O O4 0.817271 0.500000 0.500000
O O5 0.750000 0.250000 0.500000
O O6 0.840525 0.244409 0.569606
O O7 0.766754 0.439497 0.594310
O O8 0.365810 0.831135 0.789073
O O9 0.325875 0.687101 0.879836
O O10 0.365051 0.977895 0.885920
O O11 0.383520 0.767659 0.178424
O O12 0.438264 0.528741 0.218728
O O13 0.322234 0.526259 0.195357
O O14 0.780329 0.129760 0.660964
#
# Coordination Sequence:
#
# PCOD9479187 Si02
#       7
#     8  16  16  16  16   8  16
#     4  10  22  36  62  82 123 174 222 250 282 342
#     4  11  23  41  64  84 117 152 202 263 309 367
#     4  11  22  38  59  91 132 168 207 246 293 357
#     4  10  22  36  58  86 133 172 203 242 287 348
#     4  11  24  36  58  95 123 159 207 243 311 381
#     4  10  20  38  56  84 117 174 228 245 275 341
#     4  11  22  38  58  93 127 157 206 243 309 380
#
# _framework density 21.3462
#
# number of rings (size 3 to 8) (size 9 to 14) (size 15 to 20)
#    0.000    1.333    3.333    3.000    7.000    4.000 
#    0.000    0.000    0.000    0.000    0.000   22.167 
#    0.000    0.000    0.000    0.000    0.000    0.000 
#
# Total GULP energy -268019.186028 kJ/mol
# GULP energy per Si atom -5583.733042 kJ/mol
# Density = 2.129762 g / cm^3
# Si number density = 21.346200 Si / 1000 Ang^3
#
#
#
# Elastic Constant Matrix: (Units=GPa)
#
#
# Indices 1 2 3 4 5 6 
#
# 1 91.2019 18.4962 11.4162 0.0000 0.0000 0.0000
# 2 18.4962 128.5571 29.3858 0.0000 0.0000 0.0000
# 3 11.4162 29.3858 67.2374 0.0000 0.0000 0.0000
# 4 0.0000 0.0000 0.0000 45.1478 0.0000 0.0000
# 5 0.0000 0.0000 0.0000 0.0000 -1.4862 0.0000
# 6 0.0000 0.0000 0.0000 0.0000 0.0000 34.7286
#
#
#
# Elastic Compliance Matrix: (Units=1/GPa)
#
#
# Indices 1 2 3 4 5 6 
#
# 1 0.011404 -0.001331 -0.001355 0.000000 0.000000 0.000000
# 2 -0.001331 0.008797 -0.003619 0.000000 0.000000 0.000000
# 3 -0.001355 -0.003619 0.016684 0.000000 0.000000 0.000000
# 4 0.000000 0.000000 0.000000 0.022149 0.000000 0.000000
# 5 0.000000 0.000000 0.000000 0.000000 -0.672847 0.000000
# 6 0.000000 0.000000 0.000000 0.000000 0.000000 0.028795
#
#
# Mechanical properties :
#
#
# Convention : Reuss Voigt Hill
#
# Bulk Modulus (GPa) = 41.19165 45.06587 43.12876
# Shear Modulus (GPa) = -8.86028 30.85791 10.99881
#
# Velocity S-wave (km/s) = -2.03955 3.80622 2.27239
# Velocity P-wave (km/s) = 3.71382 6.36193 5.20896
#
# Compressibility (1/GPa) = 0.02427676
#
# Stress axis : x y z
#
# Youngs Moduli (GPa) = 87.68698 113.67041 59.93675
#
# Poissons Ratio (x) = 0.15131 0.08119
# Poissons Ratio (y) = 0.11673 0.21690
# Poissons Ratio (z) = 0.11878 0.41135
#
# Static dielectric constant tensor:
#      x y z
#    x 1.788430 0.000000 0.000000 
#    y 0.000000 1.842430 0.000000 
#    z 0.000000 0.000000 1.795250 
# 
# From -- ./inp_files/46636.got.cif
#   From: 2010.05.17/outbox.cif.g08.bks.cpg/sg64_24_cif.got.tgz:46636.got - 2010.06.03 16:29:19.
