data_PCOD9479400
_publ_section_title
;
Structure prediction by ZEFSAII (Michael W. Deem and Ramdas Pophale) SiO2 
 PCOD9479400
Probable space group: C M C A
;
_chemical_formula_sum "Si O2"
_cell_formula_units_Z 72
_cell_length_a 15.383562
_cell_length_b 17.467334
_cell_length_c 13.200298
_cell_angle_alpha 90.000000
_cell_angle_beta 90.000000
_cell_angle_gamma 90.000000
_cell_volume 3547.049641
_symmetry_space_group_name_H-M "C M C A"
_symmetry_group_IT_number 64
_symmetry_cell_setting 'orthorhombic'
loop_
_space_group_symop_operation_xyz
x,y,z
-x,1/2-y,1/2+z
x,-y,-z
-x,1/2+y,1/2-z
-x,-y,-z
x,1/2+y,1/2-z
-x,y,z
x,1/2-y,1/2+z
1/2+x,1/2+y,z
1/2-x,-y,1/2+z
1/2+x,1/2-y,-z
1/2-x,y,1/2-z
1/2-x,1/2-y,-z
1/2+x,y,1/2-z
1/2-x,1/2+y,z
1/2+x,-y,1/2+z
loop_
_atom_site_type_symbol
_atom_site_label
_atom_site_fract_x
_atom_site_fract_y
_atom_site_fract_z
Si Si1 0.829572 0.047895 0.408648
Si Si2 0.144736 0.167251 0.245197
Si Si3 0.597901 0.834572 0.315253
Si Si4 0.694291 0.172593 0.477071
Si Si5 0.750000 0.938364 0.250000
O O1 0.879131 0.096046 0.319360
O O2 0.769118 0.109718 0.463977
O O3 0.874444 0.000000 0.500000
O O4 0.764675 0.992833 0.346000
O O5 0.250000 0.173045 0.250000
O O6 0.105127 0.245425 0.286489
O O7 0.134937 0.167293 0.124059
O O8 0.500000 0.861478 0.301783
O O9 0.632067 0.841617 0.429028
O O10 0.666136 0.884360 0.252350
O O11 0.750000 0.250000 0.500000
#
# Coordination Sequence:
#
# PCOD9479400 Si02
#       5
#    16  16  16  16   8
#     4  11  21  36  69  96 125 177 223 277 337 401
#     4  10  20  39  64  96 127 178 229 264 332 404
#     4  12  25  40  66 102 138 179 226 278 334 408
#     4  11  19  38  65  94 125 173 232 273 330 404
#     4  12  22  42  64  96 140 176 222 272 346 402
#
# _framework density 20.298559999999998
#
# number of rings (size 3 to 8) (size 9 to 14) (size 15 to 20)
#    0.000    0.889   11.111    0.000    0.000    0.889 
#    0.000    3.333    0.000    1.333    0.000    0.000 
#    0.000    0.000    0.000    0.000    0.000    0.000 
#
# Total GULP energy -200642.851823 kJ/mol
# GULP energy per Si atom -5573.412551 kJ/mol
# Density = 2.025236 g / cm^3
# Si number density = 20.298560 Si / 1000 Ang^3
#
#
#
# Elastic Constant Matrix: (Units=GPa)
#
#
# Indices 1 2 3 4 5 6 
#
# 1 84.1462 26.7815 1.8119 0.0000 0.0000 0.0000
# 2 26.7815 119.3006 45.8837 0.0000 0.0000 0.0000
# 3 1.8119 45.8837 106.1695 0.0000 0.0000 0.0000
# 4 0.0000 0.0000 0.0000 40.3868 0.0000 0.0000
# 5 0.0000 0.0000 0.0000 0.0000 11.1357 0.0000
# 6 0.0000 0.0000 0.0000 0.0000 0.0000 -5.2663
#
#
#
# Elastic Compliance Matrix: (Units=1/GPa)
#
#
# Indices 1 2 3 4 5 6 
#
# 1 0.012933 -0.003380 0.001240 0.000000 0.000000 0.000000
# 2 -0.003380 0.010937 -0.004669 0.000000 0.000000 0.000000
# 3 0.001240 -0.004669 0.011416 0.000000 0.000000 0.000000
# 4 0.000000 0.000000 0.000000 0.024761 0.000000 0.000000
# 5 0.000000 0.000000 0.000000 0.000000 0.089801 0.000000
# 6 0.000000 0.000000 0.000000 0.000000 0.000000 -0.189885
#
#
# Mechanical properties :
#
#
# Convention : Reuss Voigt Hill
#
# Bulk Modulus (GPa) = 46.15230 50.95226 48.55228
# Shear Modulus (GPa) = -260.45001 24.92718 -117.76141
#
# Velocity S-wave (km/s) = -11.33967 3.50812 -7.62500
# Velocity P-wave (km/s) = 12.19282 6.44710 7.31777
#
# Compressibility (1/GPa) = 0.02166739
#
# Stress axis : x y z
#
# Youngs Moduli (GPa) = 77.32017 91.43523 87.60019
#
# Poissons Ratio (x) = 0.30908 -0.10864
# Poissons Ratio (y) = 0.26137 0.40899
# Poissons Ratio (z) = -0.09589 0.42690
#
# Static dielectric constant tensor:
#      x y z
#    x 1.706130 0.000000 0.000000 
#    y 0.000000 1.747520 0.000000 
#    z 0.000000 0.000000 1.872620 
# 
# From -- ./inp_files/23495.got.cif
#   From: 2010.05.17/outbox.cif.g08.bks.cpg/sg64_12_cif.got.tgz:23495.got - 2010.06.03 16:29:19.
