data_PCOD9479072
_publ_section_title
;
Structure prediction by ZEFSAII (Michael W. Deem and Ramdas Pophale) SiO2 
 PCOD9479072
Probable space group: C M C A
;
_chemical_formula_sum "Si O2"
_cell_formula_units_Z 96
_cell_length_a 7.876882
_cell_length_b 19.832124
_cell_length_c 28.475482
_cell_angle_alpha 90.000000
_cell_angle_beta 90.000000
_cell_angle_gamma 90.000000
_cell_volume 4448.305979
_symmetry_space_group_name_H-M "C M C A"
_symmetry_group_IT_number 64
_symmetry_cell_setting 'orthorhombic'
loop_
_space_group_symop_operation_xyz
x,y,z
-x,1/2-y,1/2+z
x,-y,-z
-x,1/2+y,1/2-z
-x,-y,-z
x,1/2+y,1/2-z
-x,y,z
x,1/2-y,1/2+z
1/2+x,1/2+y,z
1/2-x,-y,1/2+z
1/2+x,1/2-y,-z
1/2-x,y,1/2-z
1/2-x,1/2-y,-z
1/2+x,y,1/2-z
1/2-x,1/2+y,z
1/2+x,-y,1/2+z
loop_
_atom_site_type_symbol
_atom_site_label
_atom_site_fract_x
_atom_site_fract_y
_atom_site_fract_z
Si Si1 0.206313 0.442281 0.937287
Si Si2 0.298704 0.075309 0.167631
Si Si3 0.694235 0.930004 0.302619
Si Si4 0.792269 0.595632 0.962372
Si Si5 0.702766 0.720894 0.198767
Si Si6 0.803927 0.674934 0.875916
O O1 0.262055 0.417736 0.886371
O O2 0.255326 0.520640 0.944423
O O3 0.000000 0.440721 0.937790
O O4 0.262791 0.401290 0.983364
O O5 0.500000 0.061939 0.167464
O O6 0.264948 0.144612 0.193972
O O7 0.213422 0.009939 0.190014
O O8 0.500000 0.910109 0.309443
O O9 0.750000 0.913420 0.250000
O O10 0.799369 0.890263 0.341837
O O11 0.728650 0.651187 0.925588
O O12 0.000000 0.597470 0.961524
O O13 0.500000 0.721528 0.195934
O O14 0.750000 0.748356 0.250000
O O15 0.772911 0.765606 0.155709
O O16 0.000000 0.693123 0.884992
#
# Coordination Sequence:
#
# PCOD9479072 Si02
#       6
#    16  16  16  16  16  16
#     4   8  14  26  53  86 113 142 181 225 268 325
#     4  11  21  37  59  83 112 147 189 232 276 330
#     4  12  24  37  56  82 112 142 183 236 285 335
#     4   8  13  27  53  86 114 141 181 224 269 326
#     4  11  24  40  57  79 110 151 190 233 284 336
#     4  10  20  37  60  84 113 147 188 231 277 331
#
# _framework density 21.581250000000001
#
# number of rings (size 3 to 8) (size 9 to 14) (size 15 to 20)
#    0.000    2.000    1.667    4.500    0.000    2.667 
#    0.000    0.833    0.000    3.000    0.000    0.000 
#    0.000    0.000    0.000    0.000    0.000    0.000 
#
# Total GULP energy -268078.811785 kJ/mol
# GULP energy per Si atom -5584.975246 kJ/mol
# Density = 2.153213 g / cm^3
# Si number density = 21.581250 Si / 1000 Ang^3
#
#
#
# Elastic Constant Matrix: (Units=GPa)
#
#
# Indices 1 2 3 4 5 6 
#
# 1 43.1133 -10.6765 -0.7579 0.0000 0.0000 0.0000
# 2 -10.6765 52.3744 -4.6986 0.0000 0.0000 0.0000
# 3 -0.7579 -4.6986 102.0758 0.0000 0.0000 0.0000
# 4 0.0000 0.0000 0.0000 30.3893 0.0000 0.0000
# 5 0.0000 0.0000 0.0000 0.0000 7.7653 0.0000
# 6 0.0000 0.0000 0.0000 0.0000 0.0000 6.8242
#
#
#
# Elastic Compliance Matrix: (Units=1/GPa)
#
#
# Indices 1 2 3 4 5 6 
#
# 1 0.024445 0.005020 0.000413 0.000000 0.000000 0.000000
# 2 0.005020 0.020203 0.000967 0.000000 0.000000 0.000000
# 3 0.000413 0.000967 0.009844 0.000000 0.000000 0.000000
# 4 0.000000 0.000000 0.000000 0.032906 0.000000 0.000000
# 5 0.000000 0.000000 0.000000 0.000000 0.128777 0.000000
# 6 0.000000 0.000000 0.000000 0.000000 0.000000 0.146537
#
#
# Mechanical properties :
#
#
# Convention : Reuss Voigt Hill
#
# Bulk Modulus (GPa) = 14.86043 18.36638 16.61340
# Shear Modulus (GPa) = 13.42843 23.24220 18.33532
#
# Velocity S-wave (km/s) = 2.49715 3.28527 2.91794
# Velocity P-wave (km/s) = 3.90066 4.78743 4.36661
#
# Compressibility (1/GPa) = 0.06729281
#
# Stress axis : x y z
#
# Youngs Moduli (GPa) = 40.90789 49.49658 101.58238
#
# Poissons Ratio (x) = -0.24848 -0.04191
# Poissons Ratio (y) = -0.20536 -0.09826
# Poissons Ratio (z) = -0.01688 -0.04788
#
# Static dielectric constant tensor:
#      x y z
#    x 1.785190 0.000000 0.000000 
#    y 0.000000 1.762980 0.000000 
#    z 0.000000 0.000000 1.801070 
# 
# From -- ./inp_files/48030.got.cif
#   From: 2010.05.17/outbox.cif.g08.bks.cpg/sg64_25_cif.got.tgz:48030.got - 2010.06.03 16:29:19.
