data_PCOD9479145
_publ_section_title
;
Structure prediction by ZEFSAII (Michael W. Deem and Ramdas Pophale) SiO2 
 PCOD9479145
Probable space group: C M C A
;
_chemical_formula_sum "Si O2"
_cell_formula_units_Z 104
_cell_length_a 16.956646
_cell_length_b 28.412505
_cell_length_c 9.027871
_cell_angle_alpha 90.000000
_cell_angle_beta 90.000000
_cell_angle_gamma 90.000000
_cell_volume 4349.454816
_symmetry_space_group_name_H-M "C M C A"
_symmetry_group_IT_number 64
_symmetry_cell_setting 'orthorhombic'
loop_
_space_group_symop_operation_xyz
x,y,z
-x,1/2-y,1/2+z
x,-y,-z
-x,1/2+y,1/2-z
-x,-y,-z
x,1/2+y,1/2-z
-x,y,z
x,1/2-y,1/2+z
1/2+x,1/2+y,z
1/2-x,-y,1/2+z
1/2+x,1/2-y,-z
1/2-x,y,1/2-z
1/2-x,1/2-y,-z
1/2+x,y,1/2-z
1/2-x,1/2+y,z
1/2+x,-y,1/2+z
loop_
_atom_site_type_symbol
_atom_site_label
_atom_site_fract_x
_atom_site_fract_y
_atom_site_fract_z
Si Si1 0.094591 0.078574 0.078038
Si Si2 0.189065 0.500000 0.000000
Si Si3 0.595307 0.814256 0.579416
Si Si4 0.404422 0.735603 0.781496
Si Si5 0.666470 0.856773 0.162316
Si Si6 0.908619 0.050745 0.762507
Si Si7 0.810916 0.907568 0.641534
O O1 0.121191 0.132736 0.050263
O O2 0.120999 0.072871 0.249294
O O3 0.000000 0.076133 0.076505
O O4 0.117505 0.047466 0.934238
O O5 0.139835 0.476007 0.134932
O O6 0.229253 0.545279 0.073735
O O7 0.500000 0.816828 0.581300
O O8 0.618473 0.780104 0.445695
O O9 0.619098 0.787630 0.729229
O O10 0.500000 0.732323 0.769850
O O11 0.365101 0.695691 0.680169
O O12 0.750000 0.862346 0.250000
O O13 0.604193 0.893871 0.230399
O O14 0.670200 0.873788 0.992985
O O15 0.000000 0.037462 0.750813
O O16 0.750000 0.883488 0.750000
#
# Coordination Sequence:
#
# PCOD9479145 Si02
#       7
#    16   8  16  16  16  16  16
#     4  10  21  39  64  93 127 167 207 257 318 377
#     4  10  25  42  64  96 123 154 210 264 321 382
#     4   9  19  35  59  93 126 164 209 253 306 365
#     4  10  20  37  63  93 126 167 214 261 308 365
#     4  11  23  40  62  90 125 171 214 261 316 375
#     4  10  20  40  68  93 124 161 204 259 320 382
#     4  11  26  43  63  91 122 164 209 260 316 390
#
# _framework density 23.911044
#
# number of rings (size 3 to 8) (size 9 to 14) (size 15 to 20)
#    0.000    1.846    1.538    1.615    2.154    8.000 
#    0.000    3.077    0.000    0.000    0.000    0.000 
#    0.000    0.000    0.000    0.000    0.000    0.000 
#
# Total GULP energy -290246.206887 kJ/mol
# GULP energy per Si atom -5581.657825 kJ/mol
# Density = 2.385662 g / cm^3
# Si number density = 23.911044 Si / 1000 Ang^3
#
#
#
# Elastic Constant Matrix: (Units=GPa)
#
#
# Indices 1 2 3 4 5 6 
#
# 1 39.7160 -18.5584 36.3238 0.0000 0.0000 0.0000
# 2 -18.5584 71.9114 30.1093 0.0000 0.0000 0.0000
# 3 36.3238 30.1093 155.5694 0.0000 0.0000 0.0000
# 4 0.0000 0.0000 0.0000 39.7166 0.0000 0.0000
# 5 0.0000 0.0000 0.0000 0.0000 32.7174 0.0000
# 6 0.0000 0.0000 0.0000 0.0000 0.0000 9.1609
#
#
#
# Elastic Compliance Matrix: (Units=1/GPa)
#
#
# Indices 1 2 3 4 5 6 
#
# 1 0.046890 0.018156 -0.014462 0.000000 0.000000 0.000000
# 2 0.018156 0.022163 -0.008529 0.000000 0.000000 0.000000
# 3 -0.014462 -0.008529 0.011455 0.000000 0.000000 0.000000
# 4 0.000000 0.000000 0.000000 0.025178 0.000000 0.000000
# 5 0.000000 0.000000 0.000000 0.000000 0.030565 0.000000
# 6 0.000000 0.000000 0.000000 0.000000 0.000000 0.109160
#
#
# Mechanical properties :
#
#
# Convention : Reuss Voigt Hill
#
# Bulk Modulus (GPa) = 14.11659 40.32735 27.22197
# Shear Modulus (GPa) = 17.94087 30.94045 24.44066
#
# Velocity S-wave (km/s) = 2.74216 3.60110 3.20058
# Velocity P-wave (km/s) = 3.99281 5.84745 5.00676
#
# Compressibility (1/GPa) = 0.07083862
#
# Stress axis : x y z
#
# Youngs Moduli (GPa) = 21.32659 45.12099 87.29470
#
# Poissons Ratio (x) = -0.81923 1.26248
# Poissons Ratio (y) = -0.38721 0.74451
# Poissons Ratio (z) = 0.30843 0.38482
#
# Static dielectric constant tensor:
#      x y z
#    x 1.897010 0.000000 0.000000 
#    y 0.000000 1.916370 0.000000 
#    z 0.000000 0.000000 1.963440 
# 
# From -- ./inp_files/8648.got.cif
#   From: 2010.05.17/outbox.cif.g08.bks.cpg/sg64_5_cif.got.tgz:8648.got - 2010.06.03 16:29:19.
