data_PCOD9479738
_publ_section_title
;
Structure prediction by ZEFSAII (Michael W. Deem and Ramdas Pophale) SiO2 
 PCOD9479738
Probable space group: C M C A
;
_chemical_formula_sum "Si O2"
_cell_formula_units_Z 116
_cell_length_a 24.476091
_cell_length_b 8.834289
_cell_length_c 26.266588
_cell_angle_alpha 90.000000
_cell_angle_beta 90.000000
_cell_angle_gamma 90.000000
_cell_volume 5679.594418
_symmetry_space_group_name_H-M "C M C A"
_symmetry_group_IT_number 64
_symmetry_cell_setting 'orthorhombic'
loop_
_space_group_symop_operation_xyz
x,y,z
-x,1/2-y,1/2+z
x,-y,-z
-x,1/2+y,1/2-z
-x,-y,-z
x,1/2+y,1/2-z
-x,y,z
x,1/2-y,1/2+z
1/2+x,1/2+y,z
1/2-x,-y,1/2+z
1/2+x,1/2-y,-z
1/2-x,y,1/2-z
1/2-x,1/2-y,-z
1/2+x,y,1/2-z
1/2-x,1/2+y,z
1/2+x,-y,1/2+z
loop_
_atom_site_type_symbol
_atom_site_label
_atom_site_fract_x
_atom_site_fract_y
_atom_site_fract_z
Si Si1 0.794957 0.997094 0.209241
Si Si2 0.286331 0.254059 0.050612
Si Si3 0.000000 0.000000 0.000000
Si Si4 0.395511 0.052924 0.823266
Si Si5 0.219424 0.523620 0.879948
Si Si6 0.129718 0.263510 0.766862
Si Si7 0.937735 0.438675 0.068583
Si Si8 0.905101 0.244629 0.979773
O O1 0.750000 0.942621 0.250000
O O2 0.762640 0.047077 0.159671
O O3 0.836297 0.858232 0.200358
O O4 0.828044 0.131130 0.235765
O O5 0.251959 0.343373 0.092654
O O6 0.346366 0.317120 0.037716
O O7 0.296426 0.089992 0.075123
O O8 0.250000 0.250000 0.000000
O O9 0.048200 0.880364 0.018782
O O10 0.333895 0.063649 0.846658
O O11 0.401652 0.166876 0.775979
O O12 0.432468 0.086247 0.871557
O O13 0.402217 0.882440 0.801831
O O14 0.922168 0.610870 0.054894
O O15 0.000000 0.410167 0.052222
O O16 0.901239 0.322690 0.035869
#
# Coordination Sequence:
#
# PCOD9479738 Si02
#       8
#    16  16   4  16  16  16  16  16
#     4  11  20  32  57  83 127 163 214 260 300 373
#     4  12  27  41  57  95 141 181 210 266 327 404
#     4  12  24  46  72 104 116 162 224 310 332 346
#     4  11  22  39  65  91 130 169 225 264 322 400
#     4  12  23  37  59  90 130 182 218 246 330 394
#     4  10  21  36  56  91 125 170 208 268 314 373
#     4  11  22  47  72  93 117 181 220 272 334 416
#     4  11  24  45  71  96 136 165 231 278 333 393
#
# _framework density 20.423992999999999
#
# number of rings (size 3 to 8) (size 9 to 14) (size 15 to 20)
#    0.000    0.828    5.517    3.724    3.862    0.000 
#    0.000    0.690    0.000    0.000    0.000    0.000 
#    0.000    0.000    0.000    0.000    0.000    0.000 
#
# Total GULP energy -323500.869116 kJ/mol
# GULP energy per Si atom -5577.601192 kJ/mol
# Density = 2.037751 g / cm^3
# Si number density = 20.423993 Si / 1000 Ang^3
#
#
#
# Elastic Constant Matrix: (Units=GPa)
#
#
# Indices 1 2 3 4 5 6 
#
# 1 54.2451 17.7779 10.9134 0.0000 0.0000 0.0000
# 2 17.7779 59.7482 3.6401 0.0000 0.0000 0.0000
# 3 10.9134 3.6401 90.6335 0.0000 0.0000 0.0000
# 4 0.0000 0.0000 0.0000 28.9349 0.0000 0.0000
# 5 0.0000 0.0000 0.0000 0.0000 22.5608 0.0000
# 6 0.0000 0.0000 0.0000 0.0000 0.0000 16.5764
#
#
#
# Elastic Compliance Matrix: (Units=1/GPa)
#
#
# Indices 1 2 3 4 5 6 
#
# 1 0.020883 -0.006075 -0.002271 0.000000 0.000000 0.000000
# 2 -0.006075 0.018545 -0.000013 0.000000 0.000000 0.000000
# 3 -0.002271 -0.000013 0.011307 0.000000 0.000000 0.000000
# 4 0.000000 0.000000 0.000000 0.034560 0.000000 0.000000
# 5 0.000000 0.000000 0.000000 0.000000 0.044325 0.000000
# 6 0.000000 0.000000 0.000000 0.000000 0.000000 0.060327
#
#
# Mechanical properties :
#
#
# Convention : Reuss Voigt Hill
#
# Bulk Modulus (GPa) = 29.39680 29.92106 29.65893
# Shear Modulus (GPa) = 22.93528 25.10076 24.01802
#
# Velocity S-wave (km/s) = 3.35469 3.50949 3.43296
# Velocity P-wave (km/s) = 5.42492 5.57708 5.50153
#
# Compressibility (1/GPa) = 0.03401730
#
# Stress axis : x y z
#
# Youngs Moduli (GPa) = 47.88648 53.92174 88.43785
#
# Poissons Ratio (x) = 0.32759 0.20080
# Poissons Ratio (y) = 0.29092 0.00118
# Poissons Ratio (z) = 0.10873 0.00072
#
# Static dielectric constant tensor:
#      x y z
#    x 1.744160 0.000000 0.000000 
#    y 0.000000 1.742530 0.000000 
#    z 0.000000 0.000000 1.743050 
# 
# From -- ./inp_files/51073.got.cif
#   From: 2010.05.17/outbox.cif.g08.bks.cpg/sg64_26_cif.got.tgz:51073.got - 2010.06.03 16:29:19.
