data_PCOD9479188
_publ_section_title
;
Structure prediction by ZEFSAII (Michael W. Deem and Ramdas Pophale) SiO2 
 PCOD9479188
Probable space group: C M C A
;
_chemical_formula_sum "Si O2"
_cell_formula_units_Z 112
_cell_length_a 28.009954
_cell_length_b 13.264543
_cell_length_c 14.648765
_cell_angle_alpha 90.000000
_cell_angle_beta 90.000000
_cell_angle_gamma 90.000000
_cell_volume 5442.591004
_symmetry_space_group_name_H-M "C M C A"
_symmetry_group_IT_number 64
_symmetry_cell_setting 'orthorhombic'
loop_
_space_group_symop_operation_xyz
x,y,z
-x,1/2-y,1/2+z
x,-y,-z
-x,1/2+y,1/2-z
-x,-y,-z
x,1/2+y,1/2-z
-x,y,z
x,1/2-y,1/2+z
1/2+x,1/2+y,z
1/2-x,-y,1/2+z
1/2+x,1/2-y,-z
1/2-x,y,1/2-z
1/2-x,1/2-y,-z
1/2+x,y,1/2-z
1/2-x,1/2+y,z
1/2+x,-y,1/2+z
loop_
_atom_site_type_symbol
_atom_site_label
_atom_site_fract_x
_atom_site_fract_y
_atom_site_fract_z
Si Si1 0.784480 0.463260 0.631029
Si Si2 0.445934 0.290096 0.876200
Si Si3 0.555201 0.417846 0.267673
Si Si4 0.788398 0.186946 0.324398
Si Si5 0.372767 0.583052 0.240496
Si Si6 0.309796 0.845365 0.467979
Si Si7 0.921195 0.392678 0.447561
O O1 0.733599 0.424128 0.662277
O O2 0.829820 0.480801 0.695571
O O3 0.802410 0.364550 0.574387
O O4 0.779199 0.564881 0.576170
O O5 0.500000 0.318687 0.849281
O O6 0.437057 0.180489 0.831372
O O7 0.407325 0.365186 0.832954
O O8 0.442387 0.306502 0.985503
O O9 0.500000 0.448816 0.279685
O O10 0.592635 0.505965 0.292633
O O11 0.562185 0.395201 0.158141
O O12 0.750000 0.231830 0.250000
O O13 0.842288 0.170962 0.289295
O O14 0.792957 0.245674 0.418603
O O15 0.364662 0.871453 0.448211
O O16 0.930660 0.500000 0.500000
#
# Coordination Sequence:
#
# PCOD9479188 Si02
#       7
#    16  16  16  16  16  16  16
#     4  10  20  38  56  85 117 153 204 260 303 364
#     4  11  23  38  62  98 129 160 212 267 320 378
#     4  11  23  38  62  96 131 167 206 263 324 375
#     4  10  24  36  56  88 122 164 206 251 319 383
#     4  11  20  39  57  88 124 156 208 251 315 373
#     4  11  18  38  61  82 118 156 204 261 308 360
#     4  12  20  39  67  95 124 167 214 266 315 375
#
# _framework density 20.578434999999999
#
# number of rings (size 3 to 8) (size 9 to 14) (size 15 to 20)
#    0.000    1.143    5.714    2.143    0.000    2.286 
#    2.571    1.429    0.000    2.571    0.000   10.000 
#    0.000    0.000    0.000    0.000    0.000    0.000 
#
# Total GULP energy -311804.218656 kJ/mol
# GULP energy per Si atom -5567.932476 kJ/mol
# Density = 2.053160 g / cm^3
# Si number density = 20.578435 Si / 1000 Ang^3
#
#
#
# Elastic Constant Matrix: (Units=GPa)
#
#
# Indices 1 2 3 4 5 6 
#
# 1 102.5692 24.8017 25.7490 0.0000 0.0000 0.0000
# 2 24.8017 53.7138 24.0620 0.0000 0.0000 0.0000
# 3 25.7490 24.0620 48.1604 0.0000 0.0000 0.0000
# 4 0.0000 0.0000 0.0000 35.4523 0.0000 0.0000
# 5 0.0000 0.0000 0.0000 0.0000 24.6455 0.0000
# 6 0.0000 0.0000 0.0000 0.0000 0.0000 18.1401
#
#
#
# Elastic Compliance Matrix: (Units=1/GPa)
#
#
# Indices 1 2 3 4 5 6 
#
# 1 0.011712 -0.003353 -0.004586 0.000000 0.000000 0.000000
# 2 -0.003353 0.024946 -0.010671 0.000000 0.000000 0.000000
# 3 -0.004586 -0.010671 0.028547 0.000000 0.000000 0.000000
# 4 0.000000 0.000000 0.000000 0.028207 0.000000 0.000000
# 5 0.000000 0.000000 0.000000 0.000000 0.040575 0.000000
# 6 0.000000 0.000000 0.000000 0.000000 0.000000 0.055126
#
#
# Mechanical properties :
#
#
# Convention : Reuss Voigt Hill
#
# Bulk Modulus (GPa) = 35.73429 39.29654 37.51542
# Shear Modulus (GPa) = 21.21686 24.30295 22.75990
#
# Velocity S-wave (km/s) = 3.21444 3.44028 3.32928
# Velocity P-wave (km/s) = 5.58386 5.90916 5.74881
#
# Compressibility (1/GPa) = 0.02798433
#
# Stress axis : x y z
#
# Youngs Moduli (GPa) = 85.38479 40.08732 35.02956
#
# Poissons Ratio (x) = 0.13442 0.16066
# Poissons Ratio (y) = 0.28631 0.37379
# Poissons Ratio (z) = 0.39160 0.42775
#
# Static dielectric constant tensor:
#      x y z
#    x 1.751350 0.000000 0.000000 
#    y 0.000000 1.753560 0.000000 
#    z 0.000000 0.000000 1.899870 
# 
# From -- ./inp_files/28056.got.cif
#   From: 2010.05.17/outbox.cif.g08.bks.cpg/sg64_15_cif.got.tgz:28056.got - 2010.06.03 16:29:19.
