data_PCOD9479280
_publ_section_title
;
Structure prediction by ZEFSAII (Michael W. Deem and Ramdas Pophale) SiO2 
 PCOD9479280
Probable space group: C M C A
;
_chemical_formula_sum "Si O2"
_cell_formula_units_Z 88
_cell_length_a 20.025498
_cell_length_b 18.143981
_cell_length_c 13.088202
_cell_angle_alpha 90.000000
_cell_angle_beta 90.000000
_cell_angle_gamma 90.000000
_cell_volume 4755.496832
_symmetry_space_group_name_H-M "C M C A"
_symmetry_group_IT_number 64
_symmetry_cell_setting 'orthorhombic'
loop_
_space_group_symop_operation_xyz
x,y,z
-x,1/2-y,1/2+z
x,-y,-z
-x,1/2+y,1/2-z
-x,-y,-z
x,1/2+y,1/2-z
-x,y,z
x,1/2-y,1/2+z
1/2+x,1/2+y,z
1/2-x,-y,1/2+z
1/2+x,1/2-y,-z
1/2-x,y,1/2-z
1/2-x,1/2-y,-z
1/2+x,y,1/2-z
1/2-x,1/2+y,z
1/2+x,-y,1/2+z
loop_
_atom_site_type_symbol
_atom_site_label
_atom_site_fract_x
_atom_site_fract_y
_atom_site_fract_z
Si Si1 0.750000 0.607325 0.750000
Si Si2 0.169404 0.645732 0.232588
Si Si3 0.837163 0.490907 0.120121
Si Si4 0.870439 0.699320 0.650109
Si Si5 0.572879 0.852333 0.152224
Si Si6 0.082372 0.303785 0.576697
O O1 0.773153 0.552427 0.838560
O O2 0.806393 0.657879 0.698780
O O3 0.250000 0.651834 0.250000
O O4 0.155865 0.568187 0.177533
O O5 0.145391 0.714103 0.162418
O O6 0.124703 0.653233 0.336208
O O7 0.893494 0.431075 0.145837
O O8 0.834336 0.500000 0.000000
O O9 0.926648 0.675746 0.731238
O O10 0.892554 0.677238 0.536879
O O11 0.500000 0.860328 0.108326
O O12 0.603483 0.782198 0.093743
O O13 0.000000 0.309986 0.586744
#
# Coordination Sequence:
#
# PCOD9479280 Si02
#       6
#     8  16  16  16  16  16
#     4  10  22  36  56  88 120 156 202 250 306 376
#     4  11  23  39  60  97 128 160 209 265 307 374
#     4  11  23  38  57  85 121 163 198 248 313 372
#     4  10  20  38  63  88 119 159 200 258 312 362
#     4   9  20  39  58  85 119 155 205 252 302 374
#     4  10  22  40  66  93 121 164 212 260 315 374
#
# _framework density 18.504902000000001
#
# number of rings (size 3 to 8) (size 9 to 14) (size 15 to 20)
#    0.000    1.818    1.818    1.636    2.545    2.545 
#    0.000    2.727    0.000    5.455    0.000    0.000 
#    0.000    0.000    0.000    0.000    0.000    0.000 
#
# Total GULP energy -244994.304764 kJ/mol
# GULP energy per Si atom -5568.052381 kJ/mol
# Density = 1.846278 g / cm^3
# Si number density = 18.504902 Si / 1000 Ang^3
#
#
#
# Elastic Constant Matrix: (Units=GPa)
#
#
# Indices 1 2 3 4 5 6 
#
# 1 81.6922 41.1231 41.9996 0.0000 0.0000 0.0000
# 2 41.1231 130.2853 46.6457 0.0000 0.0000 0.0000
# 3 41.9996 46.6457 133.1294 0.0000 0.0000 0.0000
# 4 0.0000 0.0000 0.0000 14.6740 0.0000 0.0000
# 5 0.0000 0.0000 0.0000 0.0000 11.1693 0.0000
# 6 0.0000 0.0000 0.0000 0.0000 0.0000 -55.0800
#
#
#
# Elastic Compliance Matrix: (Units=1/GPa)
#
#
# Indices 1 2 3 4 5 6 
#
# 1 0.016046 -0.003719 -0.003759 0.000000 0.000000 0.000000
# 2 -0.003719 0.009638 -0.002204 0.000000 0.000000 0.000000
# 3 -0.003759 -0.002204 0.009470 0.000000 0.000000 0.000000
# 4 0.000000 0.000000 0.000000 0.068148 0.000000 0.000000
# 5 0.000000 0.000000 0.000000 0.000000 0.089531 0.000000
# 6 0.000000 0.000000 0.000000 0.000000 0.000000 -0.018155
#
#
# Mechanical properties :
#
#
# Convention : Reuss Voigt Hill
#
# Bulk Modulus (GPa) = 63.33082 67.18263 65.25673
# Shear Modulus (GPa) = 25.08736 8.50858 16.79797
#
# Velocity S-wave (km/s) = 3.68600 2.14662 3.01617
# Velocity P-wave (km/s) = 7.23972 6.52136 6.88991
#
# Compressibility (1/GPa) = 0.01579010
#
# Stress axis : x y z
#
# Youngs Moduli (GPa) = 62.32201 103.75278 105.60119
#
# Poissons Ratio (x) = 0.38583 0.39697
# Poissons Ratio (y) = 0.23176 0.23273
# Poissons Ratio (z) = 0.23428 0.22866
#
# Static dielectric constant tensor:
#      x y z
#    x 1.702030 0.000000 0.000000 
#    y 0.000000 1.618030 0.000000 
#    z 0.000000 0.000000 1.645830 
# 
# From -- ./inp_files/17176.got.cif
#   From: 2010.05.17/outbox.cif.g08.bks.cpg/sg64_9_cif.got.tgz:17176.got - 2010.06.03 16:29:19.
