data_PCOD9479798
_publ_section_title
;
Structure prediction by ZEFSAII (Michael W. Deem and Ramdas Pophale) SiO2 
 PCOD9479798
Probable space group: C M C A
;
_chemical_formula_sum "Si O2"
_cell_formula_units_Z 72
_cell_length_a 21.672304
_cell_length_b 15.423769
_cell_length_c 9.159915
_cell_angle_alpha 90.000000
_cell_angle_beta 90.000000
_cell_angle_gamma 90.000000
_cell_volume 3061.872060
_symmetry_space_group_name_H-M "C M C A"
_symmetry_group_IT_number 64
_symmetry_cell_setting 'orthorhombic'
loop_
_space_group_symop_operation_xyz
x,y,z
-x,1/2-y,1/2+z
x,-y,-z
-x,1/2+y,1/2-z
-x,-y,-z
x,1/2+y,1/2-z
-x,y,z
x,1/2-y,1/2+z
1/2+x,1/2+y,z
1/2-x,-y,1/2+z
1/2+x,1/2-y,-z
1/2-x,y,1/2-z
1/2-x,1/2-y,-z
1/2+x,y,1/2-z
1/2-x,1/2+y,z
1/2+x,-y,1/2+z
loop_
_atom_site_type_symbol
_atom_site_label
_atom_site_fract_x
_atom_site_fract_y
_atom_site_fract_z
Si Si1 0.071286 0.234237 0.795543
Si Si2 0.669304 0.323693 0.993493
Si Si3 0.932465 0.917304 0.869224
Si Si4 0.929464 0.062163 0.625642
Si Si5 0.750000 0.729657 0.750000
O O1 0.116689 0.237357 0.933144
O O2 0.070885 0.327836 0.721857
O O3 0.092400 0.154460 0.690385
O O4 0.000000 0.216694 0.835535
O O5 0.718315 0.327410 0.124298
O O6 0.628813 0.408299 0.963966
O O7 0.703101 0.288751 0.847391
O O8 0.000000 0.916259 0.942315
O O9 0.931171 0.998238 0.763039
O O10 0.000000 0.080800 0.573095
O O11 0.900050 0.000000 0.500000
#
# Coordination Sequence:
#
# PCOD9479798 Si02
#       5
#    16  16  16  16   8
#     4  10  21  36  63  99 131 163 205 260 322 384
#     4  11  21  41  61  95 122 171 215 266 311 387
#     4  10  21  36  63  99 131 163 205 260 322 384
#     4   9  20  37  59  95 138 172 204 253 321 390
#     4  10  24  38  62  92 124 170 226 260 316 364
#
# _framework density 23.515027
#
# number of rings (size 3 to 8) (size 9 to 14) (size 15 to 20)
#    0.000    2.000    2.222    0.667    3.111    0.889 
#    0.000    3.333    0.000    5.333    0.000    0.000 
#    0.000    0.000    0.000    0.000    0.000    0.000 
#
# Total GULP energy -200824.496398 kJ/mol
# GULP energy per Si atom -5578.458233 kJ/mol
# Density = 2.346151 g / cm^3
# Si number density = 23.515027 Si / 1000 Ang^3
#
#
#
# Elastic Constant Matrix: (Units=GPa)
#
#
# Indices 1 2 3 4 5 6 
#
# 1 113.4190 21.0228 53.8275 0.0000 0.0000 0.0000
# 2 21.0228 157.3411 63.3751 0.0000 0.0000 0.0000
# 3 53.8275 63.3751 137.3851 0.0000 0.0000 0.0000
# 4 0.0000 0.0000 0.0000 53.7213 0.0000 0.0000
# 5 0.0000 0.0000 0.0000 0.0000 41.1121 0.0000
# 6 0.0000 0.0000 0.0000 0.0000 0.0000 -20.8945
#
#
#
# Elastic Compliance Matrix: (Units=1/GPa)
#
#
# Indices 1 2 3 4 5 6 
#
# 1 0.010844 0.000322 -0.004397 0.000000 0.000000 0.000000
# 2 0.000322 0.007816 -0.003732 0.000000 0.000000 0.000000
# 3 -0.004397 -0.003732 0.010723 0.000000 0.000000 0.000000
# 4 0.000000 0.000000 0.000000 0.018615 0.000000 0.000000
# 5 0.000000 0.000000 0.000000 0.000000 0.024324 0.000000
# 6 0.000000 0.000000 0.000000 0.000000 0.000000 -0.047859
#
#
# Mechanical properties :
#
#
# Convention : Reuss Voigt Hill
#
# Bulk Modulus (GPa) = 72.62471 76.06623 74.34547
# Shear Modulus (GPa) = 111.94505 32.78242 72.36373
#
# Velocity S-wave (km/s) = 6.90718 3.73782 5.55340
# Velocity P-wave (km/s) = 9.72438 7.14469 8.53259
#
# Compressibility (1/GPa) = 0.01376942
#
# Stress axis : x y z
#
# Youngs Moduli (GPa) = 92.21616 127.94943 93.25682
#
# Poissons Ratio (x) = -0.04124 0.41009
# Poissons Ratio (y) = -0.02972 0.34800
# Poissons Ratio (z) = 0.40551 0.47745
#
# Static dielectric constant tensor:
#      x y z
#    x 1.970270 0.000000 0.000000 
#    y 0.000000 1.870570 0.000000 
#    z 0.000000 0.000000 2.005410 
# 
# From -- ./inp_files/9159.got.cif
#   From: 2010.05.17/outbox.cif.g08.bks.cpg/sg64_5_cif.got.tgz:9159.got - 2010.06.03 16:29:19.
