data_PCOD9479967
_publ_section_title
;
Structure prediction by ZEFSAII (Michael W. Deem and Ramdas Pophale) SiO2 
 PCOD9479967
Probable space group: C M C A
;
_chemical_formula_sum "Si O2"
_cell_formula_units_Z 72
_cell_length_a 26.284808
_cell_length_b 31.970935
_cell_length_c 5.149957
_cell_angle_alpha 90.000000
_cell_angle_beta 90.000000
_cell_angle_gamma 90.000000
_cell_volume 4327.765788
_symmetry_space_group_name_H-M "C M C A"
_symmetry_group_IT_number 64
_symmetry_cell_setting 'orthorhombic'
loop_
_space_group_symop_operation_xyz
x,y,z
-x,1/2-y,1/2+z
x,-y,-z
-x,1/2+y,1/2-z
-x,-y,-z
x,1/2+y,1/2-z
-x,y,z
x,1/2-y,1/2+z
1/2+x,1/2+y,z
1/2-x,-y,1/2+z
1/2+x,1/2-y,-z
1/2-x,y,1/2-z
1/2-x,1/2-y,-z
1/2+x,y,1/2-z
1/2-x,1/2+y,z
1/2+x,-y,1/2+z
loop_
_atom_site_type_symbol
_atom_site_label
_atom_site_fract_x
_atom_site_fract_y
_atom_site_fract_z
Si Si1 0.717234 0.000000 0.000000
Si Si2 0.654202 0.418587 0.665648
Si Si3 0.940803 0.028779 0.244440
Si Si4 0.809684 0.370405 0.326096
Si Si5 0.811656 0.273858 0.266812
O O1 0.684054 0.038447 0.104119
O O2 0.750000 0.985848 0.250000
O O3 0.597121 0.432503 0.732925
O O4 0.658998 0.391319 0.406798
O O5 0.679580 0.394287 0.905865
O O6 0.000000 0.040765 0.214188
O O7 0.936330 0.000000 0.500000
O O8 0.925972 0.000000 0.000000
O O9 0.750000 0.373459 0.250000
O O10 0.823456 0.321426 0.341000
O O11 0.829644 0.241725 0.486869
O O12 0.750000 0.271885 0.250000
#
# Coordination Sequence:
#
# PCOD9479967 Si02
#       5
#     8  16  16  16  16
#     4  12  24  34  47  68 103 146 178 198 234 298
#     4  12  22  35  51  72 103 135 175 212 250 296
#     4  10  21  38  56  72  92 127 176 224 264 292
#     4  11  22  34  49  76 108 138 167 207 249 294
#     4   9  17  31  50  69  96 133 169 201 243 295
#
# _framework density 16.636759999999999
#
# number of rings (size 3 to 8) (size 9 to 14) (size 15 to 20)
#    0.000    1.333    1.111    6.667    1.556    3.556 
#    0.000    0.000    0.000    0.000    0.000    0.000 
#    0.000   17.778    0.000    0.000    0.000    0.000 
#
# Total GULP energy -201101.416801 kJ/mol
# GULP energy per Si atom -5586.150467 kJ/mol
# Density = 1.659889 g / cm^3
# Si number density = 16.636760 Si / 1000 Ang^3
#
#
#
# Elastic Constant Matrix: (Units=GPa)
#
#
# Indices 1 2 3 4 5 6 
#
# 1 39.9538 21.8038 5.0267 0.0000 0.0000 0.0000
# 2 21.8038 106.9690 41.8791 0.0000 0.0000 0.0000
# 3 5.0267 41.8791 116.0495 0.0000 0.0000 0.0000
# 4 0.0000 0.0000 0.0000 30.2551 0.0000 0.0000
# 5 0.0000 0.0000 0.0000 0.0000 -92.4081 0.0000
# 6 0.0000 0.0000 0.0000 0.0000 0.0000 6.1188
#
#
#
# Elastic Compliance Matrix: (Units=1/GPa)
#
#
# Indices 1 2 3 4 5 6 
#
# 1 0.028260 -0.006150 0.000995 0.000000 0.000000 0.000000
# 2 -0.006150 0.012225 -0.004145 0.000000 0.000000 0.000000
# 3 0.000995 -0.004145 0.010070 0.000000 0.000000 0.000000
# 4 0.000000 0.000000 0.000000 0.033052 0.000000 0.000000
# 5 0.000000 0.000000 0.000000 0.000000 -0.010822 0.000000
# 6 0.000000 0.000000 0.000000 0.000000 0.000000 0.163430
#
#
# Mechanical properties :
#
#
# Convention : Reuss Voigt Hill
#
# Bulk Modulus (GPa) = 31.29422 44.48793 37.89108
# Shear Modulus (GPa) = 18.83471 1.74402 10.28937
#
# Velocity S-wave (km/s) = 3.36834 1.02497 2.48961
# Velocity P-wave (km/s) = 5.82913 5.31033 5.57576
#
# Compressibility (1/GPa) = 0.03195478
#
# Stress axis : x y z
#
# Youngs Moduli (GPa) = 35.38583 81.79986 99.30666
#
# Poissons Ratio (x) = 0.50307 -0.09884
# Poissons Ratio (y) = 0.21762 0.41165
# Poissons Ratio (z) = -0.03522 0.33908
#
# Static dielectric constant tensor:
#      x y z
#    x 1.562180 0.000000 0.000000 
#    y 0.000000 1.557120 0.000000 
#    z 0.000000 0.000000 1.559810 
# 
# From -- ./inp_files/2275.got.cif
#   From: 2010.05.17/outbox.cif.g08.bks.cpg/sg64_2_cif.got.tgz:2275.got - 2010.06.03 16:29:19.
