data_PCOD9479081
_publ_section_title
;
Structure prediction by ZEFSAII (Michael W. Deem and Ramdas Pophale) SiO2 
 PCOD9479081
Probable space group: C M C A
;
_chemical_formula_sum "Si O2"
_cell_formula_units_Z 96
_cell_length_a 8.672727
_cell_length_b 25.846875
_cell_length_c 24.049444
_cell_angle_alpha 90.000000
_cell_angle_beta 90.000000
_cell_angle_gamma 90.000000
_cell_volume 5390.992886
_symmetry_space_group_name_H-M "C M C A"
_symmetry_group_IT_number 64
_symmetry_cell_setting 'orthorhombic'
loop_
_space_group_symop_operation_xyz
x,y,z
-x,1/2-y,1/2+z
x,-y,-z
-x,1/2+y,1/2-z
-x,-y,-z
x,1/2+y,1/2-z
-x,y,z
x,1/2-y,1/2+z
1/2+x,1/2+y,z
1/2-x,-y,1/2+z
1/2+x,1/2-y,-z
1/2-x,y,1/2-z
1/2-x,1/2-y,-z
1/2+x,y,1/2-z
1/2-x,1/2+y,z
1/2+x,-y,1/2+z
loop_
_atom_site_type_symbol
_atom_site_label
_atom_site_fract_x
_atom_site_fract_y
_atom_site_fract_z
Si Si1 0.815022 0.192045 0.993413
Si Si2 0.183979 0.250004 0.811542
Si Si3 0.685915 0.656467 0.115429
Si Si4 0.314527 0.058330 0.688734
Si Si5 0.684057 0.347379 0.377641
Si Si6 0.814556 0.060629 0.189401
O O1 0.743231 0.165846 0.939231
O O2 0.000000 0.194553 0.987237
O O3 0.750000 0.250000 0.000000
O O4 0.778079 0.161809 0.050357
O O5 0.250000 0.258272 0.750000
O O6 0.236590 0.296811 0.851106
O O7 0.250960 0.197320 0.837283
O O8 0.000000 0.247048 0.809604
O O9 0.500000 0.661835 0.121063
O O10 0.733024 0.602431 0.143556
O O11 0.500000 0.061825 0.689379
O O12 0.250000 0.071409 0.750000
O O13 0.246576 0.098164 0.644654
O O14 0.268836 0.998641 0.677260
O O15 0.500000 0.346329 0.376215
O O16 0.750000 0.075012 0.250000
O O17 0.000000 0.061425 0.192638
#
# Coordination Sequence:
#
# PCOD9479081 Si02
#       6
#    16  16  16  16  16  16
#     4  11  22  38  60  84 115 154 196 237 287 342
#     4  12  24  37  56  83 116 149 186 233 290 346
#     4  10  21  38  59  85 116 150 191 235 283 342
#     4  10  20  37  60  86 116 150 190 234 287 345
#     4  12  24  39  58  82 114 150 194 240 287 342
#     4   9  19  36  59  86 116 151 188 231 284 342
#
# _framework density 17.807480000000002
#
# number of rings (size 3 to 8) (size 9 to 14) (size 15 to 20)
#    0.000    1.333    1.667    5.000    0.000    3.333 
#    0.000    0.833    0.000    5.000    0.000    0.000 
#    0.000    0.000    0.000    0.000    0.000    0.000 
#
# Total GULP energy -268310.435752 kJ/mol
# GULP energy per Si atom -5589.800745 kJ/mol
# Density = 1.776695 g / cm^3
# Si number density = 17.807480 Si / 1000 Ang^3
#
#
#
# Elastic Constant Matrix: (Units=GPa)
#
#
# Indices 1 2 3 4 5 6 
#
# 1 78.6349 28.7478 37.0773 0.0000 0.0000 0.0000
# 2 28.7478 84.1656 32.7995 0.0000 0.0000 0.0000
# 3 37.0773 32.7995 67.5545 0.0000 0.0000 0.0000
# 4 0.0000 0.0000 0.0000 19.8068 0.0000 0.0000
# 5 0.0000 0.0000 0.0000 0.0000 28.0464 0.0000
# 6 0.0000 0.0000 0.0000 0.0000 0.0000 24.8551
#
#
#
# Elastic Compliance Matrix: (Units=1/GPa)
#
#
# Indices 1 2 3 4 5 6 
#
# 1 0.017670 -0.002782 -0.008347 0.000000 0.000000 0.000000
# 2 -0.002782 0.015092 -0.005800 0.000000 0.000000 0.000000
# 3 -0.008347 -0.005800 0.022201 0.000000 0.000000 0.000000
# 4 0.000000 0.000000 0.000000 0.050488 0.000000 0.000000
# 5 0.000000 0.000000 0.000000 0.000000 0.035655 0.000000
# 6 0.000000 0.000000 0.000000 0.000000 0.000000 0.040233
#
#
# Mechanical properties :
#
#
# Convention : Reuss Voigt Hill
#
# Bulk Modulus (GPa) = 47.38808 47.51156 47.44982
# Shear Modulus (GPa) = 22.49886 23.32369 22.91128
#
# Velocity S-wave (km/s) = 3.55836 3.62300 3.59083
# Velocity P-wave (km/s) = 6.59937 6.65132 6.62540
#
# Compressibility (1/GPa) = 0.02110235
#
# Stress axis : x y z
#
# Youngs Moduli (GPa) = 56.59288 66.25944 45.04397
#
# Poissons Ratio (x) = 0.18437 0.37599
# Poissons Ratio (y) = 0.15747 0.26128
# Poissons Ratio (z) = 0.47239 0.38434
#
# Static dielectric constant tensor:
#      x y z
#    x 1.599300 0.000000 0.000000 
#    y 0.000000 1.597340 0.000000 
#    z 0.000000 0.000000 1.584100 
# 
# From -- ./inp_files/37038.got.cif
#   From: 2010.05.17/outbox.cif.g08.bks.cpg/sg64_19_cif.got.tgz:37038.got - 2010.06.03 16:29:19.
