data_PCOD9479353
_publ_section_title
;
Structure prediction by ZEFSAII (Michael W. Deem and Ramdas Pophale) SiO2 
 PCOD9479353
Probable space group: C M C A
;
_chemical_formula_sum "Si O2"
_cell_formula_units_Z 88
_cell_length_a 19.580318
_cell_length_b 18.349737
_cell_length_c 10.204499
_cell_angle_alpha 90.000000
_cell_angle_beta 90.000000
_cell_angle_gamma 90.000000
_cell_volume 3666.412056
_symmetry_space_group_name_H-M "C M C A"
_symmetry_group_IT_number 64
_symmetry_cell_setting 'orthorhombic'
loop_
_space_group_symop_operation_xyz
x,y,z
-x,1/2-y,1/2+z
x,-y,-z
-x,1/2+y,1/2-z
-x,-y,-z
x,1/2+y,1/2-z
-x,y,z
x,1/2-y,1/2+z
1/2+x,1/2+y,z
1/2-x,-y,1/2+z
1/2+x,1/2-y,-z
1/2-x,y,1/2-z
1/2-x,1/2-y,-z
1/2+x,y,1/2-z
1/2-x,1/2+y,z
1/2+x,-y,1/2+z
loop_
_atom_site_type_symbol
_atom_site_label
_atom_site_fract_x
_atom_site_fract_y
_atom_site_fract_z
Si Si1 0.250000 0.418485 0.750000
Si Si2 0.105240 0.475058 0.811656
Si Si3 0.601521 0.619606 0.532312
Si Si4 0.757349 0.836884 0.011193
Si Si5 0.000000 0.281664 0.192105
Si Si6 0.628983 0.435129 0.074498
Si Si7 0.000000 0.341299 0.491168
O O1 0.187363 0.465794 0.802469
O O2 0.222921 0.367459 0.632847
O O3 0.086340 0.543501 0.899553
O O4 0.088313 0.510787 0.673050
O O5 0.082532 0.399475 0.880264
O O6 0.681617 0.634846 0.539054
O O7 0.563392 0.679115 0.618338
O O8 0.750000 0.750000 0.000000
O O9 0.813468 0.874062 0.107062
O O10 0.000000 0.295590 0.349737
O O11 0.000000 0.202706 0.126963
O O12 0.568943 0.387984 0.011955
O O13 0.669207 0.500000 0.000000
#
# Coordination Sequence:
#
# PCOD9479353 Si02
#       7
#     8  16  16  16   8  16   8
#     4  10  20  40  64  98 144 178 226 290 356 416
#     4  10  20  38  69 101 129 174 234 287 345 407
#     4  10  23  41  70  99 134 182 233 283 357 413
#     4  11  24  41  65 103 138 184 229 286 354 427
#     4  12  26  52  69 100 149 193 232 299 353 445
#     4  12  24  45  73 102 140 180 239 302 352 416
#     4  12  29  49  72 103 141 193 240 287 370 427
#
# _framework density 24.001667000000001
#
# number of rings (size 3 to 8) (size 9 to 14) (size 15 to 20)
#    0.000    1.091    3.636    2.455    2.545    5.091 
#    9.818    0.000    0.000    0.000    0.000    0.000 
#    0.000    0.000    0.000    0.000    0.000    0.000 
#
# Total GULP energy -245018.977231 kJ/mol
# GULP energy per Si atom -5568.613119 kJ/mol
# Density = 2.394704 g / cm^3
# Si number density = 24.001667 Si / 1000 Ang^3
#
#
#
# Elastic Constant Matrix: (Units=GPa)
#
#
# Indices 1 2 3 4 5 6 
#
# 1 119.9877 26.6673 -3.9470 0.0000 0.0000 0.0000
# 2 26.6673 107.0810 30.4943 0.0000 0.0000 0.0000
# 3 -3.9470 30.4943 73.7578 0.0000 0.0000 0.0000
# 4 0.0000 0.0000 0.0000 27.0222 0.0000 0.0000
# 5 0.0000 0.0000 0.0000 0.0000 17.0770 0.0000
# 6 0.0000 0.0000 0.0000 0.0000 0.0000 34.0574
#
#
#
# Elastic Compliance Matrix: (Units=1/GPa)
#
#
# Indices 1 2 3 4 5 6 
#
# 1 0.008985 -0.002691 0.001594 0.000000 0.000000 0.000000
# 2 -0.002691 0.011391 -0.004854 0.000000 0.000000 0.000000
# 3 0.001594 -0.004854 0.015650 0.000000 0.000000 0.000000
# 4 0.000000 0.000000 0.000000 0.037007 0.000000 0.000000
# 5 0.000000 0.000000 0.000000 0.000000 0.058558 0.000000
# 6 0.000000 0.000000 0.000000 0.000000 0.000000 0.029362
#
#
# Mechanical properties :
#
#
# Convention : Reuss Voigt Hill
#
# Bulk Modulus (GPa) = 41.45432 45.25062 43.35247
# Shear Modulus (GPa) = 27.64011 32.13880 29.88946
#
# Velocity S-wave (km/s) = 3.39719 3.66324 3.53272
# Velocity P-wave (km/s) = 5.71811 6.06518 5.89420
#
# Compressibility (1/GPa) = 0.02412294
#
# Stress axis : x y z
#
# Youngs Moduli (GPa) = 111.29956 87.78740 63.89854
#
# Poissons Ratio (x) = 0.23627 -0.10182
# Poissons Ratio (y) = 0.29955 0.31014
# Poissons Ratio (z) = -0.17736 0.42608
#
# Static dielectric constant tensor:
#      x y z
#    x 1.899200 0.000000 0.000000 
#    y 0.000000 1.903270 0.000000 
#    z 0.000000 0.000000 -0.745000 
# 
# From -- ./inp_files/17197.got.cif
#   From: 2010.05.17/outbox.cif.g08.bks.cpg/sg64_9_cif.got.tgz:17197.got - 2010.06.03 16:29:19.
