data_PCOD9479259
_publ_section_title
;
Structure prediction by ZEFSAII (Michael W. Deem and Ramdas Pophale) SiO2 
 PCOD9479259
Probable space group: C M C A
;
_chemical_formula_sum "Si O2"
_cell_formula_units_Z 72
_cell_length_a 13.041657
_cell_length_b 29.848402
_cell_length_c 8.739229
_cell_angle_alpha 90.000000
_cell_angle_beta 90.000000
_cell_angle_gamma 90.000000
_cell_volume 3401.942577
_symmetry_space_group_name_H-M "C M C A"
_symmetry_group_IT_number 64
_symmetry_cell_setting 'orthorhombic'
loop_
_space_group_symop_operation_xyz
x,y,z
-x,1/2-y,1/2+z
x,-y,-z
-x,1/2+y,1/2-z
-x,-y,-z
x,1/2+y,1/2-z
-x,y,z
x,1/2-y,1/2+z
1/2+x,1/2+y,z
1/2-x,-y,1/2+z
1/2+x,1/2-y,-z
1/2-x,y,1/2-z
1/2-x,1/2-y,-z
1/2+x,y,1/2-z
1/2-x,1/2+y,z
1/2+x,-y,1/2+z
loop_
_atom_site_type_symbol
_atom_site_label
_atom_site_fract_x
_atom_site_fract_y
_atom_site_fract_z
Si Si1 0.115021 0.722482 0.357082
Si Si2 0.750000 0.532189 0.250000
Si Si3 0.116439 0.049510 0.835333
Si Si4 0.187311 0.411128 0.025235
Si Si5 0.676325 0.808250 0.981203
O O1 0.201723 0.697922 0.456543
O O2 0.130094 0.708911 0.180341
O O3 0.137253 0.775018 0.387296
O O4 0.000000 0.712024 0.405316
O O5 0.828809 0.498969 0.335192
O O6 0.686060 0.562633 0.366033
O O7 0.123302 0.064674 0.657622
O O8 0.193536 0.083191 0.922008
O O9 0.000000 0.049427 0.888807
O O10 0.154908 0.359955 0.009316
#
# Coordination Sequence:
#
# PCOD9479259 Si02
#       5
#    16   8  16  16  16
#     4  10  21  38  59  83 115 152 192 241 297 350
#     4  10  20  38  62  88 122 154 188 242 296 346
#     4  10  22  39  60  86 119 160 197 236 293 354
#     4  10  22  40  60  87 121 154 196 246 292 346
#     4  10  22  39  59  86 117 153 197 243 291 348
#
# _framework density 21.164377999999999
#
# number of rings (size 3 to 8) (size 9 to 14) (size 15 to 20)
#    0.000    2.222    0.000    4.667    0.000   13.333 
#    0.000    2.222    0.000    0.000    0.000    0.000 
#    0.000    0.000    0.000    0.000    0.000    0.000 
#
# Total GULP energy -201122.949235 kJ/mol
# GULP energy per Si atom -5586.748590 kJ/mol
# Density = 2.111621 g / cm^3
# Si number density = 21.164378 Si / 1000 Ang^3
#
#
#
# Elastic Constant Matrix: (Units=GPa)
#
#
# Indices 1 2 3 4 5 6 
#
# 1 102.2089 -33.5889 -17.7184 0.0000 0.0000 0.0000
# 2 -33.5889 107.0152 25.9749 0.0000 0.0000 0.0000
# 3 -17.7184 25.9749 65.9789 0.0000 0.0000 0.0000
# 4 0.0000 0.0000 0.0000 26.9298 0.0000 0.0000
# 5 0.0000 0.0000 0.0000 0.0000 9.0582 0.0000
# 6 0.0000 0.0000 0.0000 0.0000 0.0000 -1.4363
#
#
#
# Elastic Compliance Matrix: (Units=1/GPa)
#
#
# Indices 1 2 3 4 5 6 
#
# 1 0.011095 0.003051 0.001778 0.000000 0.000000 0.000000
# 2 0.003051 0.011171 -0.003578 0.000000 0.000000 0.000000
# 3 0.001778 -0.003578 0.017043 0.000000 0.000000 0.000000
# 4 0.000000 0.000000 0.000000 0.037134 0.000000 0.000000
# 5 0.000000 0.000000 0.000000 0.000000 0.110397 0.000000
# 6 0.000000 0.000000 0.000000 0.000000 0.000000 -0.696240
#
#
# Mechanical properties :
#
#
# Convention : Reuss Voigt Hill
#
# Bulk Modulus (GPa) = 23.91812 24.94868 24.43340
# Shear Modulus (GPa) = -10.04083 26.94604 8.45260
#
# Velocity S-wave (km/s) = -2.18048 3.57203 2.00061
# Velocity P-wave (km/s) = 2.23300 5.36901 4.11172
#
# Compressibility (1/GPa) = 0.04180931
#
# Stress axis : x y z
#
# Youngs Moduli (GPa) = 90.13296 89.52118 58.67604
#
# Poissons Ratio (x) = -0.27310 -0.10435
# Poissons Ratio (y) = -0.27496 0.20997
# Poissons Ratio (z) = -0.16030 0.32035
#
# Static dielectric constant tensor:
#      x y z
#    x 1.767160 0.000000 0.000000 
#    y 0.000000 1.737130 0.000000 
#    z 0.000000 0.000000 1.797830 
# 
# From -- ./inp_files/5960.got.cif
#   From: 2010.05.17/outbox.cif.g08.bks.cpg/sg64_3_cif.got.tgz:5960.got - 2010.06.03 16:29:19.
