data_PCOD9479180
_publ_section_title
;
Structure prediction by ZEFSAII (Michael W. Deem and Ramdas Pophale) SiO2 
 PCOD9479180
Probable space group: C M C A
;
_chemical_formula_sum "Si O2"
_cell_formula_units_Z 64
_cell_length_a 10.486170
_cell_length_b 27.396706
_cell_length_c 10.728418
_cell_angle_alpha 90.000000
_cell_angle_beta 90.000000
_cell_angle_gamma 90.000000
_cell_volume 3082.129835
_symmetry_space_group_name_H-M "C M C A"
_symmetry_group_IT_number 64
_symmetry_cell_setting 'orthorhombic'
loop_
_space_group_symop_operation_xyz
x,y,z
-x,1/2-y,1/2+z
x,-y,-z
-x,1/2+y,1/2-z
-x,-y,-z
x,1/2+y,1/2-z
-x,y,z
x,1/2-y,1/2+z
1/2+x,1/2+y,z
1/2-x,-y,1/2+z
1/2+x,1/2-y,-z
1/2-x,y,1/2-z
1/2-x,1/2-y,-z
1/2+x,y,1/2-z
1/2-x,1/2+y,z
1/2+x,-y,1/2+z
loop_
_atom_site_type_symbol
_atom_site_label
_atom_site_fract_x
_atom_site_fract_y
_atom_site_fract_z
Si Si1 0.500000 0.201602 0.960218
Si Si2 0.138662 0.866783 0.837471
Si Si3 0.850130 0.483402 0.641771
Si Si4 0.224664 0.303865 0.441023
Si Si5 0.000000 0.234897 0.795805
O O1 0.632542 0.174393 0.934893
O O2 0.500000 0.243871 0.851731
O O3 0.500000 0.223367 0.099015
O O4 0.250000 0.847155 0.750000
O O5 0.156219 0.924405 0.857896
O O6 0.000000 0.860145 0.779233
O O7 0.148861 0.838188 0.965407
O O8 0.819356 0.500000 0.500000
O O9 0.750000 0.500005 0.750000
O O10 0.000000 0.496871 0.666990
O O11 0.250000 0.250000 0.500000
O O12 0.129838 0.294367 0.326686
#
# Coordination Sequence:
#
# PCOD9479180 Si02
#       5
#     8  16  16  16   8
#     4  10  22  34  56  78 107 146 197 242 291 350
#     4  10  21  38  62  89 119 157 202 248 295 355
#     4   9  19  38  65  95 126 158 197 246 304 365
#     4  10  21  36  53  79 114 151 197 244 293 337
#     4  10  20  38  54  76 107 148 193 244 297 346
#
# _framework density 20.764861
#
# number of rings (size 3 to 8) (size 9 to 14) (size 15 to 20)
#    0.000    2.250    1.250    0.750    1.750    8.500 
#    0.000    2.500    0.000    0.000    0.000    0.000 
#    0.000    0.000    0.000    0.000    0.000    0.000 
#
# Total GULP energy -178321.359560 kJ/mol
# GULP energy per Si atom -5572.542486 kJ/mol
# Density = 2.071760 g / cm^3
# Si number density = 20.764861 Si / 1000 Ang^3
#
#
#
# Elastic Constant Matrix: (Units=GPa)
#
#
# Indices 1 2 3 4 5 6 
#
# 1 184.7779 22.4300 48.8527 0.0000 0.0000 0.0000
# 2 22.4300 18.3896 28.3252 0.0000 0.0000 0.0000
# 3 48.8527 28.3252 127.0470 0.0000 0.0000 0.0000
# 4 0.0000 0.0000 0.0000 22.2379 0.0000 0.0000
# 5 0.0000 0.0000 0.0000 0.0000 43.0007 0.0000
# 6 0.0000 0.0000 0.0000 0.0000 0.0000 14.7439
#
#
#
# Elastic Compliance Matrix: (Units=1/GPa)
#
#
# Indices 1 2 3 4 5 6 
#
# 1 0.006453 -0.006166 -0.001107 0.000000 0.000000 0.000000
# 2 -0.006166 0.088712 -0.017407 0.000000 0.000000 0.000000
# 3 -0.001107 -0.017407 0.012178 0.000000 0.000000 0.000000
# 4 0.000000 0.000000 0.000000 0.044968 0.000000 0.000000
# 5 0.000000 0.000000 0.000000 0.000000 0.023255 0.000000
# 6 0.000000 0.000000 0.000000 0.000000 0.000000 0.067825
#
#
# Mechanical properties :
#
#
# Convention : Reuss Voigt Hill
#
# Bulk Modulus (GPa) = 17.24667 58.82558 38.03613
# Shear Modulus (GPa) = 16.02158 31.37027 23.69593
#
# Velocity S-wave (km/s) = 2.78073 3.89104 3.38176
# Velocity P-wave (km/s) = 4.31668 6.96978 5.79705
#
# Compressibility (1/GPa) = 0.05798220
#
# Stress axis : x y z
#
# Youngs Moduli (GPa) = 154.96695 11.27241 82.11818
#
# Poissons Ratio (x) = 0.06951 0.09087
# Poissons Ratio (y) = 0.95559 1.42946
# Poissons Ratio (z) = 0.17147 0.19622
#
# Static dielectric constant tensor:
#      x y z
#    x 1.868340 0.000000 0.000000 
#    y 0.000000 1.713890 0.000000 
#    z 0.000000 0.000000 1.754950 
# 
# From -- ./inp_files/4642.got.cif
#   From: 2010.05.17/outbox.cif.g08.bks.cpg/sg64_3_cif.got.tgz:4642.got - 2010.06.03 16:29:19.
