data_PCOD9479764
_publ_section_title
;
Structure prediction by ZEFSAII (Michael W. Deem and Ramdas Pophale) SiO2 
 PCOD9479764
Probable space group: C M C A
;
_chemical_formula_sum "Si O2"
_cell_formula_units_Z 112
_cell_length_a 16.201516
_cell_length_b 13.202522
_cell_length_c 25.211701
_cell_angle_alpha 90.000000
_cell_angle_beta 90.000000
_cell_angle_gamma 90.000000
_cell_volume 5392.804814
_symmetry_space_group_name_H-M "C M C A"
_symmetry_group_IT_number 64
_symmetry_cell_setting 'orthorhombic'
loop_
_space_group_symop_operation_xyz
x,y,z
-x,1/2-y,1/2+z
x,-y,-z
-x,1/2+y,1/2-z
-x,-y,-z
x,1/2+y,1/2-z
-x,y,z
x,1/2-y,1/2+z
1/2+x,1/2+y,z
1/2-x,-y,1/2+z
1/2+x,1/2-y,-z
1/2-x,y,1/2-z
1/2-x,1/2-y,-z
1/2+x,y,1/2-z
1/2-x,1/2+y,z
1/2+x,-y,1/2+z
loop_
_atom_site_type_symbol
_atom_site_label
_atom_site_fract_x
_atom_site_fract_y
_atom_site_fract_z
Si Si1 0.410547 0.663869 0.360325
Si Si2 0.405711 0.349203 0.844493
Si Si3 0.312601 0.465949 0.119030
Si Si4 0.092355 0.828079 0.047091
Si Si5 0.346967 0.496765 0.435562
Si Si6 0.743472 0.727545 0.811149
Si Si7 0.594112 0.779939 0.052827
O O1 0.500000 0.660570 0.331954
O O2 0.412526 0.755711 0.402137
O O3 0.405300 0.566671 0.399537
O O4 0.331044 0.691404 0.323950
O O5 0.500000 0.340487 0.823257
O O6 0.372041 0.463599 0.846199
O O7 0.332069 0.280257 0.821589
O O8 0.409580 0.308787 0.904799
O O9 0.360779 0.423766 0.068233
O O10 0.239732 0.527763 0.090689
O O11 0.277111 0.372301 0.153732
O O12 0.000000 0.854500 0.029177
O O13 0.133608 0.764128 0.000369
O O14 0.353168 0.500000 0.500000
O O15 0.361071 0.378067 0.424949
O O16 0.750000 0.697321 0.750000
O O17 0.500000 0.814065 0.040233
#
# Coordination Sequence:
#
# PCOD9479764 Si02
#       7
#    16  16  16  16  16  16  16
#     4  10  21  39  64  97 132 168 216 273 334 400
#     4  11  24  44  67  97 136 173 219 279 342 401
#     4  11  24  40  62  93 132 178 219 273 332 402
#     4   9  19  35  56  86 126 173 221 261 314 391
#     4  12  22  34  62  99 141 181 219 269 329 400
#     4  11  25  47  73  93 124 167 227 286 344 394
#     4  10  21  36  58  90 132 179 223 268 321 390
#
# _framework density 20.768414
#
# number of rings (size 3 to 8) (size 9 to 14) (size 15 to 20)
#    0.000    1.429    4.286    0.857    2.000    2.857 
#    0.000    2.143    0.000    0.000    0.000    0.000 
#    0.000    0.000    0.000    0.000    0.000    0.000 
#
# Total GULP energy -311960.397648 kJ/mol
# GULP energy per Si atom -5570.721387 kJ/mol
# Density = 2.072114 g / cm^3
# Si number density = 20.768414 Si / 1000 Ang^3
#
#
#
# Elastic Constant Matrix: (Units=GPa)
#
#
# Indices 1 2 3 4 5 6 
#
# 1 125.1665 31.5823 26.9260 0.0000 0.0000 0.0000
# 2 31.5823 65.7968 1.5080 0.0000 0.0000 0.0000
# 3 26.9260 1.5080 54.6137 0.0000 0.0000 0.0000
# 4 0.0000 0.0000 0.0000 8.6493 0.0000 0.0000
# 5 0.0000 0.0000 0.0000 0.0000 14.2566 0.0000
# 6 0.0000 0.0000 0.0000 0.0000 0.0000 48.4321
#
#
#
# Elastic Compliance Matrix: (Units=1/GPa)
#
#
# Indices 1 2 3 4 5 6 
#
# 1 0.010264 -0.004814 -0.004927 0.000000 0.000000 0.000000
# 2 -0.004814 0.017466 0.001891 0.000000 0.000000 0.000000
# 3 -0.004927 0.001891 0.020688 0.000000 0.000000 0.000000
# 4 0.000000 0.000000 0.000000 0.115617 0.000000 0.000000
# 5 0.000000 0.000000 0.000000 0.000000 0.070143 0.000000
# 6 0.000000 0.000000 0.000000 0.000000 0.000000 0.020647
#
#
# Mechanical properties :
#
#
# Convention : Reuss Voigt Hill
#
# Bulk Modulus (GPa) = 30.56541 40.62329 35.59435
# Shear Modulus (GPa) = 17.76639 26.63831 22.20235
#
# Velocity S-wave (km/s) = 2.92799 3.58528 3.27317
# Velocity P-wave (km/s) = 5.11664 6.06148 5.60899
#
# Compressibility (1/GPa) = 0.03271672
#
# Stress axis : x y z
#
# Youngs Moduli (GPa) = 97.42812 57.25562 48.33811
#
# Poissons Ratio (x) = 0.27561 0.23819
# Poissons Ratio (y) = 0.46899 -0.09141
# Poissons Ratio (z) = 0.48008 -0.10827
#
# Static dielectric constant tensor:
#      x y z
#    x 1.844750 0.000000 0.000000 
#    y 0.000000 1.783900 0.000000 
#    z 0.000000 0.000000 1.730740 
# 
# From -- ./inp_files/45239.got.cif
#   From: 2010.05.17/outbox.cif.g08.bks.cpg/sg64_23_cif.got.tgz:45239.got - 2010.06.03 16:29:19.
