data_PCOD9479860
_publ_section_title
;
Structure prediction by ZEFSAII (Michael W. Deem and Ramdas Pophale) SiO2 
 PCOD9479860
Probable space group: C M C A
;
_chemical_formula_sum "Si O2"
_cell_formula_units_Z 80
_cell_length_a 16.400878
_cell_length_b 27.865022
_cell_length_c 8.334481
_cell_angle_alpha 90.000000
_cell_angle_beta 90.000000
_cell_angle_gamma 90.000000
_cell_volume 3808.948049
_symmetry_space_group_name_H-M "C M C A"
_symmetry_group_IT_number 64
_symmetry_cell_setting 'orthorhombic'
loop_
_space_group_symop_operation_xyz
x,y,z
-x,1/2-y,1/2+z
x,-y,-z
-x,1/2+y,1/2-z
-x,-y,-z
x,1/2+y,1/2-z
-x,y,z
x,1/2-y,1/2+z
1/2+x,1/2+y,z
1/2-x,-y,1/2+z
1/2+x,1/2-y,-z
1/2-x,y,1/2-z
1/2-x,1/2-y,-z
1/2+x,y,1/2-z
1/2-x,1/2+y,z
1/2+x,-y,1/2+z
loop_
_atom_site_type_symbol
_atom_site_label
_atom_site_fract_x
_atom_site_fract_y
_atom_site_fract_z
Si Si1 0.242660 0.949048 0.440936
Si Si2 0.338584 0.771075 0.043178
Si Si3 0.907604 0.907786 0.953610
Si Si4 0.407819 0.809961 0.360748
Si Si5 0.166872 0.366280 0.851760
O O1 0.250000 0.947173 0.250000
O O2 0.333447 0.943690 0.515603
O O3 0.190056 0.905252 0.512753
O O4 0.208455 0.000000 0.500000
O O5 0.348914 0.791249 0.221570
O O6 0.250000 0.750000 0.000000
O O7 0.398380 0.726992 0.007476
O O8 0.357184 0.815991 0.928453
O O9 0.897171 0.887563 0.773796
O O10 0.000000 0.924963 0.979645
O O11 0.891028 0.862894 0.073060
O O12 0.500000 0.809070 0.298168
O O13 0.250000 0.358481 0.750000
#
# Coordination Sequence:
#
# PCOD9479860 Si02
#       5
#    16  16  16  16  16
#     4  11  22  41  66  90 118 153 194 240 297 359
#     4  12  22  35  56  82 113 155 205 248 286 343
#     4  10  22  40  61  87 120 156 197 248 301 354
#     4  11  23  37  54  81 119 159 196 240 297 349
#     4  10  21  37  58  85 115 151 195 243 295 350
#
# _framework density 21.003174000000001
#
# number of rings (size 3 to 8) (size 9 to 14) (size 15 to 20)
#    0.000    1.200    0.000    9.000    0.000    3.600 
#    0.000    1.000    0.000    2.400    0.000    0.000 
#    0.000    0.000    0.000    0.000    0.000    0.000 
#
# Total GULP energy -223681.166177 kJ/mol
# GULP energy per Si atom -5592.029154 kJ/mol
# Density = 2.095537 g / cm^3
# Si number density = 21.003174 Si / 1000 Ang^3
#
#
#
# Elastic Constant Matrix: (Units=GPa)
#
#
# Indices 1 2 3 4 5 6 
#
# 1 57.4587 -2.1529 -2.1327 0.0000 0.0000 0.0000
# 2 -2.1529 59.6998 -9.5643 0.0000 0.0000 0.0000
# 3 -2.1327 -9.5643 91.0054 0.0000 0.0000 0.0000
# 4 0.0000 0.0000 0.0000 27.3793 0.0000 0.0000
# 5 0.0000 0.0000 0.0000 0.0000 21.9646 0.0000
# 6 0.0000 0.0000 0.0000 0.0000 0.0000 13.8467
#
#
#
# Elastic Compliance Matrix: (Units=1/GPa)
#
#
# Indices 1 2 3 4 5 6 
#
# 1 0.017448 0.000707 0.000483 0.000000 0.000000 0.000000
# 2 0.000707 0.017066 0.001810 0.000000 0.000000 0.000000
# 3 0.000483 0.001810 0.011190 0.000000 0.000000 0.000000
# 4 0.000000 0.000000 0.000000 0.036524 0.000000 0.000000
# 5 0.000000 0.000000 0.000000 0.000000 0.045528 0.000000
# 6 0.000000 0.000000 0.000000 0.000000 0.000000 0.072220
#
#
# Mechanical properties :
#
#
# Convention : Reuss Voigt Hill
#
# Bulk Modulus (GPa) = 19.34090 20.05156 19.69623
# Shear Modulus (GPa) = 23.67310 27.43903 25.55606
#
# Velocity S-wave (km/s) = 3.36090 3.61837 3.49201
# Velocity P-wave (km/s) = 4.92843 5.19850 5.06527
#
# Compressibility (1/GPa) = 0.05170391
#
# Stress axis : x y z
#
# Youngs Moduli (GPa) = 57.31240 58.59624 89.36619
#
# Poissons Ratio (x) = -0.04141 -0.04318
# Poissons Ratio (y) = -0.04050 -0.16176
# Poissons Ratio (z) = -0.02769 -0.10607
#
# Static dielectric constant tensor:
#      x y z
#    x 1.804950 0.000000 0.000000 
#    y 0.000000 1.721560 0.000000 
#    z 0.000000 0.000000 1.777900 
# 
# From -- ./inp_files/7135.got.cif
#   From: 2010.05.17/outbox.cif.g08.bks.cpg/sg64_4_cif.got.tgz:7135.got - 2010.06.03 16:29:19.
