data_PCOD9479670
_publ_section_title
;
Structure prediction by ZEFSAII (Michael W. Deem and Ramdas Pophale) SiO2 
 PCOD9479670
Probable space group: C M C A
;
_chemical_formula_sum "Si O2"
_cell_formula_units_Z 80
_cell_length_a 13.890072
_cell_length_b 26.013768
_cell_length_c 11.862723
_cell_angle_alpha 90.000000
_cell_angle_beta 90.000000
_cell_angle_gamma 90.000000
_cell_volume 4286.394601
_symmetry_space_group_name_H-M "C M C A"
_symmetry_group_IT_number 64
_symmetry_cell_setting 'orthorhombic'
loop_
_space_group_symop_operation_xyz
x,y,z
-x,1/2-y,1/2+z
x,-y,-z
-x,1/2+y,1/2-z
-x,-y,-z
x,1/2+y,1/2-z
-x,y,z
x,1/2-y,1/2+z
1/2+x,1/2+y,z
1/2-x,-y,1/2+z
1/2+x,1/2-y,-z
1/2-x,y,1/2-z
1/2-x,1/2-y,-z
1/2+x,y,1/2-z
1/2-x,1/2+y,z
1/2+x,-y,1/2+z
loop_
_atom_site_type_symbol
_atom_site_label
_atom_site_fract_x
_atom_site_fract_y
_atom_site_fract_z
Si Si1 0.383273 0.643239 0.303061
Si Si2 0.386418 0.218010 0.993566
Si Si3 0.114118 0.838936 0.954648
Si Si4 0.884504 0.942640 0.525428
Si Si5 0.274315 0.365838 0.378339
O O1 0.500000 0.643056 0.299031
O O2 0.358871 0.690197 0.388353
O O3 0.352679 0.651229 0.174251
O O4 0.353377 0.589716 0.363205
O O5 0.500000 0.207408 0.975729
O O6 0.374056 0.278779 0.985943
O O7 0.323661 0.189341 0.900092
O O8 0.000000 0.850914 0.963281
O O9 0.180197 0.869096 0.042563
O O10 0.850547 0.906827 0.423697
O O11 0.000000 0.944830 0.530435
O O12 0.848132 0.000000 0.500000
O O13 0.250000 0.373401 0.250000
#
# Coordination Sequence:
#
# PCOD9479670 Si02
#       5
#    16  16  16  16  16
#     4   8  16  33  56  82 105 139 190 229 270 327
#     4   9  19  35  55  78 112 152 190 227 268 327
#     4  10  21  35  54  82 116 154 185 225 281 331
#     4   9  19  40  65  83 104 142 190 239 287 335
#     4  11  23  36  52  86 117 146 187 230 283 339
#
# _framework density 18.663703999999999
#
# number of rings (size 3 to 8) (size 9 to 14) (size 15 to 20)
#    0.000    2.600    0.000    2.400    2.800    4.800 
#    3.600    0.000    0.000    0.600    0.000    0.000 
#    0.000    0.000    0.000    0.000    0.000    0.000 
#
# Total GULP energy -223100.501776 kJ/mol
# GULP energy per Si atom -5577.512544 kJ/mol
# Density = 1.862122 g / cm^3
# Si number density = 18.663704 Si / 1000 Ang^3
#
#
#
# Elastic Constant Matrix: (Units=GPa)
#
#
# Indices 1 2 3 4 5 6 
#
# 1 33.9195 19.9628 11.9110 0.0000 0.0000 0.0000
# 2 19.9628 60.3447 41.0241 0.0000 0.0000 0.0000
# 3 11.9110 41.0241 135.8456 0.0000 0.0000 0.0000
# 4 0.0000 0.0000 0.0000 5.5589 0.0000 0.0000
# 5 0.0000 0.0000 0.0000 0.0000 30.2260 0.0000
# 6 0.0000 0.0000 0.0000 0.0000 0.0000 18.5960
#
#
#
# Elastic Compliance Matrix: (Units=1/GPa)
#
#
# Indices 1 2 3 4 5 6 
#
# 1 0.036643 -0.012505 0.000564 0.000000 0.000000 0.000000
# 2 -0.012505 0.025120 -0.006490 0.000000 0.000000 0.000000
# 3 0.000564 -0.006490 0.009272 0.000000 0.000000 0.000000
# 4 0.000000 0.000000 0.000000 0.179892 0.000000 0.000000
# 5 0.000000 0.000000 0.000000 0.000000 0.033084 0.000000
# 6 0.000000 0.000000 0.000000 0.000000 0.000000 0.053775
#
#
# Mechanical properties :
#
#
# Convention : Reuss Voigt Hill
#
# Bulk Modulus (GPa) = 29.26310 41.76728 35.51519
# Shear Modulus (GPa) = 12.95204 21.35698 17.15451
#
# Velocity S-wave (km/s) = 2.63719 3.38643 3.03502
# Velocity P-wave (km/s) = 4.99862 6.14150 5.59929
#
# Compressibility (1/GPa) = 0.03417273
#
# Stress axis : x y z
#
# Youngs Moduli (GPa) = 27.29006 39.80871 107.85541
#
# Poissons Ratio (x) = 0.49782 -0.06078
# Poissons Ratio (y) = 0.34127 0.69994
# Poissons Ratio (z) = -0.01538 0.25834
#
# Static dielectric constant tensor:
#      x y z
#    x 1.695970 0.000000 0.000000 
#    y 0.000000 1.655490 0.000000 
#    z 0.000000 0.000000 1.636420 
# 
# From -- ./inp_files/14441.got.cif
#   From: 2010.05.17/outbox.cif.g08.bks.cpg/sg64_8_cif.got.tgz:14441.got - 2010.06.03 16:29:19.
