data_PCOD9479686
_publ_section_title
;
Structure prediction by ZEFSAII (Michael W. Deem and Ramdas Pophale) SiO2 
 PCOD9479686
Probable space group: C M C A
;
_chemical_formula_sum "Si O2"
_cell_formula_units_Z 100
_cell_length_a 7.758174
_cell_length_b 30.132207
_cell_length_c 18.975470
_cell_angle_alpha 90.000000
_cell_angle_beta 90.000000
_cell_angle_gamma 90.000000
_cell_volume 4435.912793
_symmetry_space_group_name_H-M "C M C A"
_symmetry_group_IT_number 64
_symmetry_cell_setting 'orthorhombic'
loop_
_space_group_symop_operation_xyz
x,y,z
-x,1/2-y,1/2+z
x,-y,-z
-x,1/2+y,1/2-z
-x,-y,-z
x,1/2+y,1/2-z
-x,y,z
x,1/2-y,1/2+z
1/2+x,1/2+y,z
1/2-x,-y,1/2+z
1/2+x,1/2-y,-z
1/2-x,y,1/2-z
1/2-x,1/2-y,-z
1/2+x,y,1/2-z
1/2-x,1/2+y,z
1/2+x,-y,1/2+z
loop_
_atom_site_type_symbol
_atom_site_label
_atom_site_fract_x
_atom_site_fract_y
_atom_site_fract_z
Si Si1 0.292359 0.489819 0.669120
Si Si2 0.205721 0.887660 0.669530
Si Si3 0.697649 0.556856 0.950920
Si Si4 0.702624 0.190961 0.432504
Si Si5 0.000000 0.000000 0.500000
Si Si6 0.201796 0.764638 0.329767
Si Si7 0.206736 0.342466 0.420738
O O1 0.500000 0.492770 0.654977
O O2 0.250000 0.501331 0.750000
O O3 0.235998 0.438674 0.660202
O O4 0.205600 0.523817 0.615939
O O5 0.250000 0.874505 0.750000
O O6 0.282628 0.853727 0.613649
O O7 0.000000 0.886928 0.662347
O O8 0.500000 0.557621 0.978578
O O9 0.750362 0.605877 0.925704
O O10 0.845832 0.538133 0.001487
O O11 0.500000 0.200059 0.443623
O O12 0.782287 0.230640 0.386475
O O13 0.778357 0.182105 0.509573
O O14 0.250000 0.755104 0.250000
O O15 0.239253 0.814738 0.352999
O O16 0.000000 0.757545 0.333505
O O17 0.000000 0.341198 0.422832
#
# Coordination Sequence:
#
# PCOD9479686 Si02
#       7
#    16  16  16  16   4  16  16
#     4  10  21  39  61  90 128 171 221 278 332 397
#     4  10  21  35  57  88 125 170 217 267 327 389
#     4  11  25  43  67  98 132 178 223 274 335 395
#     4  10  22  40  63  93 128 165 209 265 327 392
#     4  12  26  44  68  94 144 168 230 270 324 402
#     4  11  24  42  68  94 127 169 215 266 325 389
#     4  10  24  44  66  96 130 166 214 268 328 392
#
# _framework density 22.543274
#
# number of rings (size 3 to 8) (size 9 to 14) (size 15 to 20)
#    0.000    1.600    0.800    2.640    3.360    5.760 
#    0.000    0.000    0.000    0.000    0.000    0.000 
#    0.000    0.000    0.000    0.000    0.000    0.000 
#
# Total GULP energy -279166.847997 kJ/mol
# GULP energy per Si atom -5583.336960 kJ/mol
# Density = 2.249196 g / cm^3
# Si number density = 22.543274 Si / 1000 Ang^3
#
#
#
# Elastic Constant Matrix: (Units=GPa)
#
#
# Indices 1 2 3 4 5 6 
#
# 1 77.4915 15.7263 -5.9424 0.0000 0.0000 0.0000
# 2 15.7263 85.8558 22.7098 0.0000 0.0000 0.0000
# 3 -5.9424 22.7098 51.2570 0.0000 0.0000 0.0000
# 4 0.0000 0.0000 0.0000 77.0286 0.0000 0.0000
# 5 0.0000 0.0000 0.0000 0.0000 25.4316 0.0000
# 6 0.0000 0.0000 0.0000 0.0000 0.0000 17.1224
#
#
#
# Elastic Compliance Matrix: (Units=1/GPa)
#
#
# Indices 1 2 3 4 5 6 
#
# 1 0.013821 -0.003348 0.003085 0.000000 0.000000 0.000000
# 2 -0.003348 0.014005 -0.006593 0.000000 0.000000 0.000000
# 3 0.003085 -0.006593 0.022788 0.000000 0.000000 0.000000
# 4 0.000000 0.000000 0.000000 0.012982 0.000000 0.000000
# 5 0.000000 0.000000 0.000000 0.000000 0.039321 0.000000
# 6 0.000000 0.000000 0.000000 0.000000 0.000000 0.058403
#
#
# Mechanical properties :
#
#
# Convention : Reuss Voigt Hill
#
# Bulk Modulus (GPa) = 27.09789 31.06572 29.08180
# Shear Modulus (GPa) = 26.69069 36.05723 31.37396
#
# Velocity S-wave (km/s) = 3.44463 4.00367 3.73463
# Velocity P-wave (km/s) = 5.27893 5.93152 5.61471
#
# Compressibility (1/GPa) = 0.03690325
#
# Stress axis : x y z
#
# Youngs Moduli (GPa) = 72.35554 71.40547 43.88219
#
# Poissons Ratio (x) = 0.23904 -0.13540
# Poissons Ratio (y) = 0.24222 0.28931
# Poissons Ratio (z) = -0.22325 0.47077
#
# Static dielectric constant tensor:
#      x y z
#    x 1.759890 0.000000 0.000000 
#    y 0.000000 1.850850 0.000000 
#    z 0.000000 0.000000 1.767690 
# 
# From -- ./inp_files/37236.got.cif
#   From: 2010.05.17/outbox.cif.g08.bks.cpg/sg64_19_cif.got.tgz:37236.got - 2010.06.03 16:29:19.
