data_PCOD9479811
_publ_section_title
;
Structure prediction by ZEFSAII (Michael W. Deem and Ramdas Pophale) SiO2 
 PCOD9479811
Probable space group: C M C A
;
_chemical_formula_sum "Si O2"
_cell_formula_units_Z 80
_cell_length_a 16.918821
_cell_length_b 9.654668
_cell_length_c 26.004948
_cell_angle_alpha 90.000000
_cell_angle_beta 90.000000
_cell_angle_gamma 90.000000
_cell_volume 4247.793826
_symmetry_space_group_name_H-M "C M C A"
_symmetry_group_IT_number 64
_symmetry_cell_setting 'orthorhombic'
loop_
_space_group_symop_operation_xyz
x,y,z
-x,1/2-y,1/2+z
x,-y,-z
-x,1/2+y,1/2-z
-x,-y,-z
x,1/2+y,1/2-z
-x,y,z
x,1/2-y,1/2+z
1/2+x,1/2+y,z
1/2-x,-y,1/2+z
1/2+x,1/2-y,-z
1/2-x,y,1/2-z
1/2-x,1/2-y,-z
1/2+x,y,1/2-z
1/2-x,1/2+y,z
1/2+x,-y,1/2+z
loop_
_atom_site_type_symbol
_atom_site_label
_atom_site_fract_x
_atom_site_fract_y
_atom_site_fract_z
Si Si1 0.406722 0.496715 0.939113
Si Si2 0.905460 0.505381 0.285060
Si Si3 0.636658 0.264646 0.136837
Si Si4 0.177973 0.208100 0.136988
Si Si5 0.089081 0.472016 0.166284
O O1 0.500000 0.471141 0.928628
O O2 0.383614 0.641738 0.912425
O O3 0.354771 0.379831 0.911018
O O4 0.394694 0.500000 0.000000
O O5 0.885750 0.363563 0.315147
O O6 0.857032 0.625721 0.313722
O O7 0.884351 0.492642 0.225332
O O8 0.000000 0.531684 0.288912
O O9 0.728243 0.221974 0.138297
O O10 0.590460 0.121441 0.140177
O O11 0.143446 0.362053 0.138106
O O12 0.000000 0.415994 0.167837
#
# Coordination Sequence:
#
# PCOD9479811 Si02
#       5
#    16  16  16  16  16
#     4  10  22  43  65  79 103 148 189 223 279 350
#     4  10  21  37  55  78 116 162 192 212 260 334
#     4  11  22  36  56  84 115 144 182 232 279 325
#     4  11  22  36  56  84 115 144 182 232 279 325
#     4  11  21  34  56  84 114 149 190 233 266 308
#
# _framework density 18.833306
#
# number of rings (size 3 to 8) (size 9 to 14) (size 15 to 20)
#    0.000    1.400    0.000    8.400    0.000    8.800 
#    0.000    1.000    0.000    3.600    0.000    0.000 
#    0.000    0.000    0.000    0.000    0.000    0.000 
#
# Total GULP energy -223600.665382 kJ/mol
# GULP energy per Si atom -5590.016635 kJ/mol
# Density = 1.879044 g / cm^3
# Si number density = 18.833306 Si / 1000 Ang^3
#
#
#
# Elastic Constant Matrix: (Units=GPa)
#
#
# Indices 1 2 3 4 5 6 
#
# 1 90.8955 15.2016 29.3751 0.0000 0.0000 0.0000
# 2 15.2016 92.9024 26.1459 0.0000 0.0000 0.0000
# 3 29.3751 26.1459 91.8657 0.0000 0.0000 0.0000
# 4 0.0000 0.0000 0.0000 6.9526 0.0000 0.0000
# 5 0.0000 0.0000 0.0000 0.0000 7.8558 0.0000
# 6 0.0000 0.0000 0.0000 0.0000 0.0000 43.4909
#
#
#
# Elastic Compliance Matrix: (Units=1/GPa)
#
#
# Indices 1 2 3 4 5 6 
#
# 1 0.012353 -0.000989 -0.003668 0.000000 0.000000 0.000000
# 2 -0.000989 0.011780 -0.003037 0.000000 0.000000 0.000000
# 3 -0.003668 -0.003037 0.012923 0.000000 0.000000 0.000000
# 4 0.000000 0.000000 0.000000 0.143831 0.000000 0.000000
# 5 0.000000 0.000000 0.000000 0.000000 0.127295 0.000000
# 6 0.000000 0.000000 0.000000 0.000000 0.000000 0.022993
#
#
# Mechanical properties :
#
#
# Convention : Reuss Voigt Hill
#
# Bulk Modulus (GPa) = 46.15121 46.34542 46.24832
# Shear Modulus (GPa) = 14.13286 25.32258 19.72772
#
# Velocity S-wave (km/s) = 2.74235 3.67081 3.24001
# Velocity P-wave (km/s) = 5.88095 6.52902 6.21344
#
# Compressibility (1/GPa) = 0.02166790
#
# Stress axis : x y z
#
# Youngs Moduli (GPa) = 80.95487 84.88678 77.38299
#
# Poissons Ratio (x) = 0.08394 0.28387
# Poissons Ratio (y) = 0.08005 0.23498
# Poissons Ratio (z) = 0.29698 0.25777
#
# Static dielectric constant tensor:
#      x y z
#    x 1.692470 0.000000 0.000000 
#    y 0.000000 1.641360 0.000000 
#    z 0.000000 0.000000 1.624420 
# 
# From -- ./inp_files/7076.got.cif
#   From: 2010.05.17/outbox.cif.g08.bks.cpg/sg64_4_cif.got.tgz:7076.got - 2010.06.03 16:29:19.
