data_PCOD9479679
_publ_section_title
;
Structure prediction by ZEFSAII (Michael W. Deem and Ramdas Pophale) SiO2 
 PCOD9479679
Probable space group: C M C A
;
_chemical_formula_sum "Si O2"
_cell_formula_units_Z 104
_cell_length_a 18.367218
_cell_length_b 31.430022
_cell_length_c 8.138586
_cell_angle_alpha 90.000000
_cell_angle_beta 90.000000
_cell_angle_gamma 90.000000
_cell_volume 4698.259739
_symmetry_space_group_name_H-M "C M C A"
_symmetry_group_IT_number 64
_symmetry_cell_setting 'orthorhombic'
loop_
_space_group_symop_operation_xyz
x,y,z
-x,1/2-y,1/2+z
x,-y,-z
-x,1/2+y,1/2-z
-x,-y,-z
x,1/2+y,1/2-z
-x,y,z
x,1/2-y,1/2+z
1/2+x,1/2+y,z
1/2-x,-y,1/2+z
1/2+x,1/2-y,-z
1/2-x,y,1/2-z
1/2-x,1/2-y,-z
1/2+x,y,1/2-z
1/2-x,1/2+y,z
1/2+x,-y,1/2+z
loop_
_atom_site_type_symbol
_atom_site_label
_atom_site_fract_x
_atom_site_fract_y
_atom_site_fract_z
Si Si1 0.154490 0.164457 0.261357
Si Si2 0.853491 0.686961 0.598787
Si Si3 0.660293 0.452427 0.944570
Si Si4 0.000000 0.768134 0.994375
Si Si5 0.500000 0.185268 0.146877
Si Si6 0.750000 0.747883 0.250000
Si Si7 0.661277 0.397128 0.253439
Si Si8 0.676228 0.578453 0.403184
O O1 0.184934 0.212796 0.263951
O O2 0.195400 0.127839 0.360540
O O3 0.074430 0.160735 0.336551
O O4 0.152468 0.158855 0.065923
O O5 0.783203 0.717676 0.619296
O O6 0.858625 0.652689 0.743561
O O7 0.926544 0.714374 0.578398
O O8 0.636655 0.439345 0.759683
O O9 0.748337 0.446636 0.930490
O O10 0.643418 0.500000 0.000000
O O11 0.634786 0.422351 0.093277
O O12 0.000000 0.717510 0.996822
O O13 0.000000 0.785035 0.809755
O O14 0.750000 0.398230 0.250000
O O15 0.637106 0.419445 0.421743
#
# Coordination Sequence:
#
# PCOD9479679 Si02
#       8
#    16  16  16   8   8   8  16  16
#     4  11  23  39  56  86 124 167 209 260 310 368
#     4  11  22  38  55  84 123 166 208 264 310 365
#     4  10  21  36  58  89 129 157 191 248 310 383
#     4  10  22  40  56  82 118 164 224 262 305 365
#     4  10  22  40  60  80 119 167 219 263 307 361
#     4  12  22  30  62  84 118 158 210 258 314 360
#     4  10  21  35  55  86 122 158 199 244 306 368
#     4  10  22  35  57  85 121 161 198 241 303 367
#
# _framework density 22.135857000000001
#
# number of rings (size 3 to 8) (size 9 to 14) (size 15 to 20)
#    0.000    1.538    3.846    1.385    8.615    2.462 
#    0.000    0.000    0.000    0.000    0.000    2.692 
#    0.000    0.154    0.000    0.000    0.000    0.000 
#
# Total GULP energy -289798.325918 kJ/mol
# GULP energy per Si atom -5573.044729 kJ/mol
# Density = 2.208548 g / cm^3
# Si number density = 22.135857 Si / 1000 Ang^3
#
#
#
# Elastic Constant Matrix: (Units=GPa)
#
#
# Indices 1 2 3 4 5 6 
#
# 1 66.5825 0.7811 -2.3663 0.0000 0.0000 0.0000
# 2 0.7811 99.1194 40.5218 0.0000 0.0000 0.0000
# 3 -2.3663 40.5218 121.5198 0.0000 0.0000 0.0000
# 4 0.0000 0.0000 0.0000 29.6907 0.0000 0.0000
# 5 0.0000 0.0000 0.0000 0.0000 14.5177 0.0000
# 6 0.0000 0.0000 0.0000 0.0000 0.0000 2.4555
#
#
#
# Elastic Compliance Matrix: (Units=1/GPa)
#
#
# Indices 1 2 3 4 5 6 
#
# 1 0.015036 -0.000276 0.000385 0.000000 0.000000 0.000000
# 2 -0.000276 0.011686 -0.003902 0.000000 0.000000 0.000000
# 3 0.000385 -0.003902 0.009538 0.000000 0.000000 0.000000
# 4 0.000000 0.000000 0.000000 0.033681 0.000000 0.000000
# 5 0.000000 0.000000 0.000000 0.000000 0.068881 0.000000
# 6 0.000000 0.000000 0.000000 0.000000 0.000000 0.407254
#
#
# Mechanical properties :
#
#
# Convention : Reuss Voigt Hill
#
# Bulk Modulus (GPa) = 34.87550 40.56612 37.72081
# Shear Modulus (GPa) = 8.87752 25.88512 17.38132
#
# Velocity S-wave (km/s) = 2.00479 3.42332 2.80520
# Velocity P-wave (km/s) = 4.59873 5.83020 5.25069
#
# Compressibility (1/GPa) = 0.02867343
#
# Stress axis : x y z
#
# Youngs Moduli (GPa) = 66.50761 85.57001 104.84538
#
# Poissons Ratio (x) = 0.02360 -0.04034
# Poissons Ratio (y) = 0.01834 0.40914
# Poissons Ratio (z) = -0.02559 0.33392
#
# Static dielectric constant tensor:
#      x y z
#    x 1.842410 0.000000 0.000000 
#    y 0.000000 1.802100 0.000000 
#    z 0.000000 0.000000 1.912930 
# 
# From -- ./inp_files/8711.got.cif
#   From: 2010.05.17/outbox.cif.g08.bks.cpg/sg64_5_cif.got.tgz:8711.got - 2010.06.03 16:29:19.
