data_PCOD9479344
_publ_section_title
;
Structure prediction by ZEFSAII (Michael W. Deem and Ramdas Pophale) SiO2 
 PCOD9479344
Probable space group: C M C A
;
_chemical_formula_sum "Si O2"
_cell_formula_units_Z 96
_cell_length_a 15.133675
_cell_length_b 21.058161
_cell_length_c 13.978225
_cell_angle_alpha 90.000000
_cell_angle_beta 90.000000
_cell_angle_gamma 90.000000
_cell_volume 4454.683688
_symmetry_space_group_name_H-M "C M C A"
_symmetry_group_IT_number 64
_symmetry_cell_setting 'orthorhombic'
loop_
_space_group_symop_operation_xyz
x,y,z
-x,1/2-y,1/2+z
x,-y,-z
-x,1/2+y,1/2-z
-x,-y,-z
x,1/2+y,1/2-z
-x,y,z
x,1/2-y,1/2+z
1/2+x,1/2+y,z
1/2-x,-y,1/2+z
1/2+x,1/2-y,-z
1/2-x,y,1/2-z
1/2-x,1/2-y,-z
1/2+x,y,1/2-z
1/2-x,1/2+y,z
1/2+x,-y,1/2+z
loop_
_atom_site_type_symbol
_atom_site_label
_atom_site_fract_x
_atom_site_fract_y
_atom_site_fract_z
Si Si1 0.827590 0.819837 0.328299
Si Si2 0.847533 0.186087 0.203012
Si Si3 0.401210 0.907978 0.866889
Si Si4 0.594407 0.059280 0.570764
Si Si5 0.759914 0.147000 0.010584
Si Si6 0.852932 0.540375 0.780081
O O1 0.750000 0.824985 0.250000
O O2 0.883975 0.758117 0.298732
O O3 0.782458 0.806579 0.431377
O O4 0.868714 0.890252 0.326702
O O5 0.750000 0.190803 0.250000
O O6 0.894824 0.133827 0.268574
O O7 0.827765 0.166374 0.094268
O O8 0.500000 0.900099 0.906064
O O9 0.323733 0.883624 0.935777
O O10 0.381835 0.981327 0.843858
O O11 0.500000 0.092982 0.553282
O O12 0.681530 0.099836 0.553109
O O13 0.596858 0.037335 0.679728
O O14 0.598551 0.000000 0.500000
O O15 0.750000 0.532464 0.750000
#
# Coordination Sequence:
#
# PCOD9479344 Si02
#       6
#    16  16  16  16  16  16
#     4  10  20  38  67  92 127 167 212 266 328 389
#     4   9  20  39  66  91 120 168 216 270 322 383
#     4  11  24  42  63  93 133 177 222 264 322 398
#     4  11  22  36  61  96 129 166 221 276 322 381
#     4  11  21  39  67  95 128 173 219 265 335 388
#     4  11  20  39  65  93 128 171 209 265 331 391
#
# _framework density 21.550353000000001
#
# number of rings (size 3 to 8) (size 9 to 14) (size 15 to 20)
#    0.000    1.500    3.333    4.500    0.000    2.000 
#    0.000    5.000    0.000    0.000    0.000    0.000 
#    0.000    0.000    0.000    0.000    0.000    0.000 
#
# Total GULP energy -267787.172066 kJ/mol
# GULP energy per Si atom -5578.899418 kJ/mol
# Density = 2.150130 g / cm^3
# Si number density = 21.550353 Si / 1000 Ang^3
#
#
#
# Elastic Constant Matrix: (Units=GPa)
#
#
# Indices 1 2 3 4 5 6 
#
# 1 99.1491 10.3603 -4.5842 0.0000 0.0000 0.0000
# 2 10.3603 77.5744 -6.0405 0.0000 0.0000 0.0000
# 3 -4.5842 -6.0405 84.3155 0.0000 0.0000 0.0000
# 4 0.0000 0.0000 0.0000 15.3455 0.0000 0.0000
# 5 0.0000 0.0000 0.0000 0.0000 -67.6011 0.0000
# 6 0.0000 0.0000 0.0000 0.0000 0.0000 -110.9256
#
#
#
# Elastic Compliance Matrix: (Units=1/GPa)
#
#
# Indices 1 2 3 4 5 6 
#
# 1 0.010246 -0.001332 0.000462 0.000000 0.000000 0.000000
# 2 -0.001332 0.013136 0.000869 0.000000 0.000000 0.000000
# 3 0.000462 0.000869 0.011948 0.000000 0.000000 0.000000
# 4 0.000000 0.000000 0.000000 0.065166 0.000000 0.000000
# 5 0.000000 0.000000 0.000000 0.000000 -0.014793 0.000000
# 6 0.000000 0.000000 0.000000 0.000000 0.000000 -0.009015
#
#
# Mechanical properties :
#
#
# Convention : Reuss Voigt Hill
#
# Bulk Modulus (GPa) = 28.30777 28.94559 28.62668
# Shear Modulus (GPa) = 56.51755 -15.21602 20.65076
#
# Velocity S-wave (km/s) = 5.12667 -2.66008 3.09893
# Velocity P-wave (km/s) = 6.94319 2.00651 5.11047
#
# Compressibility (1/GPa) = 0.03532599
#
# Stress axis : x y z
#
# Youngs Moduli (GPa) = 97.59520 76.12412 83.69921
#
# Poissons Ratio (x) = 0.10144 -0.03864
# Poissons Ratio (y) = 0.13005 -0.07271
# Poissons Ratio (z) = -0.04505 -0.06613
#
# Static dielectric constant tensor:
#      x y z
#    x 1.796070 0.000000 0.000000 
#    y 0.000000 1.825590 0.000000 
#    z 0.000000 0.000000 1.857720 
# 
# From -- ./inp_files/23865.got.cif
#   From: 2010.05.17/outbox.cif.g08.bks.cpg/sg64_12_cif.got.tgz:23865.got - 2010.06.03 16:29:19.
