data_PCOD9479337
_publ_section_title
;
Structure prediction by ZEFSAII (Michael W. Deem and Ramdas Pophale) SiO2 
 PCOD9479337
Probable space group: C M C A
;
_chemical_formula_sum "Si O2"
_cell_formula_units_Z 64
_cell_length_a 17.390976
_cell_length_b 14.363891
_cell_length_c 9.577215
_cell_angle_alpha 90.000000
_cell_angle_beta 90.000000
_cell_angle_gamma 90.000000
_cell_volume 2392.408263
_symmetry_space_group_name_H-M "C M C A"
_symmetry_group_IT_number 64
_symmetry_cell_setting 'orthorhombic'
loop_
_space_group_symop_operation_xyz
x,y,z
-x,1/2-y,1/2+z
x,-y,-z
-x,1/2+y,1/2-z
-x,-y,-z
x,1/2+y,1/2-z
-x,y,z
x,1/2-y,1/2+z
1/2+x,1/2+y,z
1/2-x,-y,1/2+z
1/2+x,1/2-y,-z
1/2-x,y,1/2-z
1/2-x,1/2-y,-z
1/2+x,y,1/2-z
1/2-x,1/2+y,z
1/2+x,-y,1/2+z
loop_
_atom_site_type_symbol
_atom_site_label
_atom_site_fract_x
_atom_site_fract_y
_atom_site_fract_z
Si Si1 0.290293 0.346630 0.551339
Si Si2 0.916405 0.775280 0.107365
Si Si3 0.871915 0.079600 0.113997
Si Si4 0.912616 0.065790 0.661857
O O1 0.250000 0.250000 0.500000
O O2 0.352183 0.298318 0.651276
O O3 0.220425 0.408147 0.604854
O O4 0.344310 0.401930 0.441557
O O5 0.911482 0.856828 0.218204
O O6 0.000000 0.731537 0.109721
O O7 0.905395 0.825317 0.955540
O O8 0.896987 0.030977 0.258159
O O9 0.893648 0.000000 0.000000
O O10 0.000000 0.066958 0.605367
#
# Coordination Sequence:
#
# PCOD9479337 Si02
#       4
#    16  16  16  16
#     4  10  21  37  60  95 134 169 217 275 331 393
#     4   9  18  35  61  96 133 167 213 269 324 388
#     4   9  19  35  58  91 130 169 214 266 324 390
#     4  10  20  38  66  96 130 173 217 268 332 396
#
# _framework density 26.751287999999999
#
# number of rings (size 3 to 8) (size 9 to 14) (size 15 to 20)
#    0.000    2.500    0.000    1.500    0.000   12.000 
#    0.000   12.500    0.000    9.000    0.000   19.250 
#    0.000    0.000    0.000    0.000    0.000    0.000 
#
# Total GULP energy -178980.012706 kJ/mol
# GULP energy per Si atom -5593.125397 kJ/mol
# Density = 2.669040 g / cm^3
# Si number density = 26.751288 Si / 1000 Ang^3
#
#
#
# Elastic Constant Matrix: (Units=GPa)
#
#
# Indices 1 2 3 4 5 6 
#
# 1 168.2973 23.7959 22.8791 0.0000 0.0000 0.0000
# 2 23.7959 123.1554 29.0540 0.0000 0.0000 0.0000
# 3 22.8791 29.0540 108.4867 0.0000 0.0000 0.0000
# 4 0.0000 0.0000 0.0000 54.4974 0.0000 0.0000
# 5 0.0000 0.0000 0.0000 0.0000 18.6713 0.0000
# 6 0.0000 0.0000 0.0000 0.0000 0.0000 43.9641
#
#
#
# Elastic Compliance Matrix: (Units=1/GPa)
#
#
# Indices 1 2 3 4 5 6 
#
# 1 0.006220 -0.000953 -0.001057 0.000000 0.000000 0.000000
# 2 -0.000953 0.008813 -0.002159 0.000000 0.000000 0.000000
# 3 -0.001057 -0.002159 0.010019 0.000000 0.000000 0.000000
# 4 0.000000 0.000000 0.000000 0.018349 0.000000 0.000000
# 5 0.000000 0.000000 0.000000 0.000000 0.053558 0.000000
# 6 0.000000 0.000000 0.000000 0.000000 0.000000 0.022746
#
#
# Mechanical properties :
#
#
# Convention : Reuss Voigt Hill
#
# Bulk Modulus (GPa) = 59.82634 61.26638 60.54636
# Shear Modulus (GPa) = 37.42097 45.04060 41.23078
#
# Velocity S-wave (km/s) = 3.74417 4.10772 3.93015
# Velocity P-wave (km/s) = 6.41126 6.74164 6.57852
#
# Compressibility (1/GPa) = 0.01671505
#
# Stress axis : x y z
#
# Youngs Moduli (GPa) = 160.76643 113.46477 99.81152
#
# Poissons Ratio (x) = 0.10808 0.10547
# Poissons Ratio (y) = 0.15314 0.21553
# Poissons Ratio (z) = 0.16988 0.24502
#
# Static dielectric constant tensor:
#      x y z
#    x 2.096910 0.000000 0.000000 
#    y 0.000000 2.047140 0.000000 
#    z 0.000000 0.000000 2.237810 
# 
# From -- ./inp_files/15657.got.cif
#   From: 2010.05.17/outbox.cif.g08.bks.cpg/sg64_8_cif.got.tgz:15657.got - 2010.06.03 16:29:19.
