data_PCOD9479047
_publ_section_title
;
Structure prediction by ZEFSAII (Michael W. Deem and Ramdas Pophale) SiO2 
 PCOD9479047
Probable space group: C M C A
;
_chemical_formula_sum "Si O2"
_cell_formula_units_Z 112
_cell_length_a 18.026955
_cell_length_b 16.810745
_cell_length_c 20.138802
_cell_angle_alpha 90.000000
_cell_angle_beta 90.000000
_cell_angle_gamma 90.000000
_cell_volume 6102.994339
_symmetry_space_group_name_H-M "C M C A"
_symmetry_group_IT_number 64
_symmetry_cell_setting 'orthorhombic'
loop_
_space_group_symop_operation_xyz
x,y,z
-x,1/2-y,1/2+z
x,-y,-z
-x,1/2+y,1/2-z
-x,-y,-z
x,1/2+y,1/2-z
-x,y,z
x,1/2-y,1/2+z
1/2+x,1/2+y,z
1/2-x,-y,1/2+z
1/2+x,1/2-y,-z
1/2-x,y,1/2-z
1/2-x,1/2-y,-z
1/2+x,y,1/2-z
1/2-x,1/2+y,z
1/2+x,-y,1/2+z
loop_
_atom_site_type_symbol
_atom_site_label
_atom_site_fract_x
_atom_site_fract_y
_atom_site_fract_z
Si Si1 0.411571 0.529267 0.724367
Si Si2 0.157813 0.692744 0.816926
Si Si3 0.791102 0.585669 0.178431
Si Si4 0.678616 0.735211 0.832045
Si Si5 0.411083 0.360264 0.061209
Si Si6 0.350125 0.007296 0.368661
Si Si7 0.087893 0.176361 0.089609
O O1 0.500000 0.523033 0.725244
O O2 0.384345 0.609536 0.688605
O O3 0.369996 0.455414 0.690067
O O4 0.379508 0.530047 0.799491
O O5 0.245559 0.683737 0.830979
O O6 0.150735 0.733118 0.744023
O O7 0.125988 0.751959 0.871597
O O8 0.750000 0.593300 0.250000
O O9 0.799694 0.674291 0.150875
O O10 0.736580 0.528681 0.136990
O O11 0.620618 0.698605 0.882898
O O12 0.500000 0.368825 0.066456
O O13 0.373426 0.445456 0.075055
O O14 0.392356 0.328636 0.988080
O O15 0.389283 0.092196 0.378556
O O16 0.000000 0.185743 0.094992
#
# Coordination Sequence:
#
# PCOD9479047 Si02
#       7
#    16  16  16  16  16  16  16
#     4  11  22  34  59  91 118 154 198 249 303 349
#     4  11  21  38  60  88 117 157 201 247 294 354
#     4  10  20  37  58  86 119 155 199 247 296 348
#     4  11  21  39  62  88 119 156 201 244 298 347
#     4  11  24  38  60  91 124 158 194 247 302 354
#     4  11  20  38  58  87 121 156 200 240 297 361
#     4  11  23  39  60  88 126 161 193 244 303 361
#
# _framework density 18.351648000000001
#
# number of rings (size 3 to 8) (size 9 to 14) (size 15 to 20)
#    0.000    1.143    4.286    3.857    4.000    2.857 
#    0.000    0.000    0.000    0.000    0.000    3.000 
#    0.000    0.000    0.000    0.000    0.000    0.000 
#
# Total GULP energy -312907.577140 kJ/mol
# GULP energy per Si atom -5587.635306 kJ/mol
# Density = 1.830988 g / cm^3
# Si number density = 18.351648 Si / 1000 Ang^3
#
#
#
# Elastic Constant Matrix: (Units=GPa)
#
#
# Indices 1 2 3 4 5 6 
#
# 1 64.9332 23.8392 2.7641 0.0000 0.0000 0.0000
# 2 23.8392 81.6962 11.2275 0.0000 0.0000 0.0000
# 3 2.7641 11.2275 48.0577 0.0000 0.0000 0.0000
# 4 0.0000 0.0000 0.0000 25.1750 0.0000 0.0000
# 5 0.0000 0.0000 0.0000 0.0000 22.2000 0.0000
# 6 0.0000 0.0000 0.0000 0.0000 0.0000 16.9904
#
#
#
# Elastic Compliance Matrix: (Units=1/GPa)
#
#
# Indices 1 2 3 4 5 6 
#
# 1 0.017250 -0.005060 0.000190 0.000000 0.000000 0.000000
# 2 -0.005060 0.014131 -0.003010 0.000000 0.000000 0.000000
# 3 0.000190 -0.003010 0.021501 0.000000 0.000000 0.000000
# 4 0.000000 0.000000 0.000000 0.039722 0.000000 0.000000
# 5 0.000000 0.000000 0.000000 0.000000 0.045045 0.000000
# 6 0.000000 0.000000 0.000000 0.000000 0.000000 0.058857
#
#
# Mechanical properties :
#
#
# Convention : Reuss Voigt Hill
#
# Bulk Modulus (GPa) = 26.93883 30.03876 28.48880
# Shear Modulus (GPa) = 22.25795 23.33016 22.79406
#
# Velocity S-wave (km/s) = 3.48639 3.56938 3.52813
# Velocity P-wave (km/s) = 5.56037 5.77851 5.67049
#
# Compressibility (1/GPa) = 0.03712114
#
# Stress axis : x y z
#
# Youngs Moduli (GPa) = 57.97122 70.76843 46.51022
#
# Poissons Ratio (x) = 0.35807 -0.00883
# Poissons Ratio (y) = 0.29332 0.14001
# Poissons Ratio (z) = -0.01101 0.21303
#
# Static dielectric constant tensor:
#      x y z
#    x 1.630360 0.000000 0.000000 
#    y 0.000000 1.640330 0.000000 
#    z 0.000000 0.000000 1.631180 
# 
# From -- ./inp_files/40401.got.cif
#   From: 2010.05.17/outbox.cif.g08.bks.cpg/sg64_21_cif.got.tgz:40401.got - 2010.06.03 16:29:19.
