data_PCOD9479775
_publ_section_title
;
Structure prediction by ZEFSAII (Michael W. Deem and Ramdas Pophale) SiO2 
 PCOD9479775
Probable space group: C M C A
;
_chemical_formula_sum "Si O2"
_cell_formula_units_Z 80
_cell_length_a 21.467246
_cell_length_b 13.318652
_cell_length_c 14.348817
_cell_angle_alpha 90.000000
_cell_angle_beta 90.000000
_cell_angle_gamma 90.000000
_cell_volume 4102.538840
_symmetry_space_group_name_H-M "C M C A"
_symmetry_group_IT_number 64
_symmetry_cell_setting 'orthorhombic'
loop_
_space_group_symop_operation_xyz
x,y,z
-x,1/2-y,1/2+z
x,-y,-z
-x,1/2+y,1/2-z
-x,-y,-z
x,1/2+y,1/2-z
-x,y,z
x,1/2-y,1/2+z
1/2+x,1/2+y,z
1/2-x,-y,1/2+z
1/2+x,1/2-y,-z
1/2-x,y,1/2-z
1/2-x,1/2-y,-z
1/2+x,y,1/2-z
1/2-x,1/2+y,z
1/2+x,-y,1/2+z
loop_
_atom_site_type_symbol
_atom_site_label
_atom_site_fract_x
_atom_site_fract_y
_atom_site_fract_z
Si Si1 0.250222 0.409317 0.554896
Si Si2 0.321730 0.223635 0.591861
Si Si3 0.181546 0.033214 0.796685
Si Si4 0.428392 0.492637 0.343582
Si Si5 0.570235 0.666689 0.500161
O O1 0.285258 0.500000 0.500000
O O2 0.290506 0.331165 0.615170
O O3 0.224576 0.341486 0.471605
O O4 0.195750 0.460939 0.614991
O O5 0.335935 0.147269 0.674658
O O6 0.380610 0.250282 0.528458
O O7 0.250000 0.037269 0.750000
O O8 0.125893 0.995197 0.731652
O O9 0.500000 0.486621 0.307124
O O10 0.415788 0.392353 0.404469
O O11 0.428028 0.583563 0.417762
O O12 0.500000 0.705773 0.505881
#
# Coordination Sequence:
#
# PCOD9479775 Si02
#       5
#    16  16  16  16  16
#     4   9  21  38  55  81 114 152 184 229 289 338
#     4  10  21  36  60  81 112 150 191 232 282 344
#     4  11  23  36  56  89 118 147 188 241 289 334
#     4   9  20  38  59  81 115 153 187 232 286 337
#     4   9  19  37  60  81 106 153 195 225 278 344
#
# _framework density 19.500119000000002
#
# number of rings (size 3 to 8) (size 9 to 14) (size 15 to 20)
#    0.000    2.400    0.000    2.400   11.200    3.200 
#    0.000    1.000    0.000    3.600    0.000    0.000 
#    0.000    0.000    0.000    0.000    0.000    0.000 
#
# Total GULP energy -222941.023856 kJ/mol
# GULP energy per Si atom -5573.525596 kJ/mol
# Density = 1.945574 g / cm^3
# Si number density = 19.500119 Si / 1000 Ang^3
#
#
#
# Elastic Constant Matrix: (Units=GPa)
#
#
# Indices 1 2 3 4 5 6 
#
# 1 72.2399 18.9814 9.2079 0.0000 0.0000 0.0000
# 2 18.9814 86.8507 11.1065 0.0000 0.0000 0.0000
# 3 9.2079 11.1065 39.7467 0.0000 0.0000 0.0000
# 4 0.0000 0.0000 0.0000 27.5196 0.0000 0.0000
# 5 0.0000 0.0000 0.0000 0.0000 25.2737 0.0000
# 6 0.0000 0.0000 0.0000 0.0000 0.0000 -16.4770
#
#
#
# Elastic Compliance Matrix: (Units=1/GPa)
#
#
# Indices 1 2 3 4 5 6 
#
# 1 0.014949 -0.002929 -0.002645 0.000000 0.000000 0.000000
# 2 -0.002929 0.012515 -0.002818 0.000000 0.000000 0.000000
# 3 -0.002645 -0.002818 0.026560 0.000000 0.000000 0.000000
# 4 0.000000 0.000000 0.000000 0.036338 0.000000 0.000000
# 5 0.000000 0.000000 0.000000 0.000000 0.039567 0.000000
# 6 0.000000 0.000000 0.000000 0.000000 0.000000 -0.060691
#
#
# Mechanical properties :
#
#
# Convention : Reuss Voigt Hill
#
# Bulk Modulus (GPa) = 26.85346 30.82544 28.83945
# Shear Modulus (GPa) = 50.79497 17.89937 34.34717
#
# Velocity S-wave (km/s) = 5.10931 3.03299 4.20144
# Velocity P-wave (km/s) = 6.97192 5.30165 6.19335
#
# Compressibility (1/GPa) = 0.03723915
#
# Stress axis : x y z
#
# Youngs Moduli (GPa) = 66.89192 79.90684 37.65122
#
# Poissons Ratio (x) = 0.23405 0.09958
# Poissons Ratio (y) = 0.19593 0.10612
# Poissons Ratio (z) = 0.17692 0.22521
#
# Static dielectric constant tensor:
#      x y z
#    x 1.697310 0.000000 0.000000 
#    y 0.000000 1.715770 0.000000 
#    z 0.000000 0.000000 1.725610 
# 
# From -- ./inp_files/27072.got.cif
#   From: 2010.05.17/outbox.cif.g08.bks.cpg/sg64_14_cif.got.tgz:27072.got - 2010.06.03 16:29:19.
