data_PCOD9479569
_publ_section_title
;
Structure prediction by ZEFSAII (Michael W. Deem and Ramdas Pophale) SiO2 
 PCOD9479569
Probable space group: C M C A
;
_chemical_formula_sum "Si O2"
_cell_formula_units_Z 88
_cell_length_a 24.994000
_cell_length_b 14.478418
_cell_length_c 11.433467
_cell_angle_alpha 90.000000
_cell_angle_beta 90.000000
_cell_angle_gamma 90.000000
_cell_volume 4137.469629
_symmetry_space_group_name_H-M "C M C A"
_symmetry_group_IT_number 64
_symmetry_cell_setting 'orthorhombic'
loop_
_space_group_symop_operation_xyz
x,y,z
-x,1/2-y,1/2+z
x,-y,-z
-x,1/2+y,1/2-z
-x,-y,-z
x,1/2+y,1/2-z
-x,y,z
x,1/2-y,1/2+z
1/2+x,1/2+y,z
1/2-x,-y,1/2+z
1/2+x,1/2-y,-z
1/2-x,y,1/2-z
1/2-x,1/2-y,-z
1/2+x,y,1/2-z
1/2-x,1/2+y,z
1/2+x,-y,1/2+z
loop_
_atom_site_type_symbol
_atom_site_label
_atom_site_fract_x
_atom_site_fract_y
_atom_site_fract_z
Si Si1 0.687192 0.818603 0.270572
Si Si2 0.500000 0.043037 0.869960
Si Si3 0.382943 0.851180 0.739441
Si Si4 0.616577 0.607875 0.971695
Si Si5 0.618220 0.044731 0.871384
Si Si6 0.000000 0.609218 0.527880
Si Si7 0.500000 0.851672 0.739215
O O1 0.750000 0.819109 0.250000
O O2 0.663459 0.715823 0.280628
O O3 0.664952 0.866238 0.388088
O O4 0.659440 0.876922 0.166145
O O5 0.558257 0.087863 0.861519
O O6 0.500000 0.960124 0.775644
O O7 0.500000 0.000000 0.000000
O O8 0.381541 0.846431 0.599058
O O9 0.442121 0.818821 0.782143
O O10 0.377242 0.956474 0.784246
O O11 0.557744 0.628505 0.916416
O O12 0.618086 0.500000 0.000000
O O13 0.625008 0.000000 0.000000
O O14 0.000000 0.500000 0.500000
O O15 0.000000 0.656865 0.400534
#
# Coordination Sequence:
#
# PCOD9479569 Si02
#       7
#    16   8  16  16  16   8   8
#     4  12  28  42  62  91 121 175 224 252 304 359
#     4   8  16  33  63  92 124 160 190 245 325 391
#     4  10  22  42  65  94 130 160 202 268 317 373
#     4  10  20  42  66  93 125 159 208 260 317 376
#     4  10  22  43  66  95 128 162 205 258 322 382
#     4   8  16  29  63  96 116 152 195 256 322 371
#     4   8  16  34  60  92 124 155 197 246 323 391
#
# _framework density 21.269038999999999
#
# number of rings (size 3 to 8) (size 9 to 14) (size 15 to 20)
#    0.000    2.182    1.818    0.000    5.091    3.636 
#    0.000    0.000    0.000    0.000    0.000    0.000 
#    0.000    0.000    0.000    0.000    0.000    0.000 
#
# Total GULP energy -245432.318271 kJ/mol
# GULP energy per Si atom -5578.007233 kJ/mol
# Density = 2.122063 g / cm^3
# Si number density = 21.269039 Si / 1000 Ang^3
#
#
#
# Elastic Constant Matrix: (Units=GPa)
#
#
# Indices 1 2 3 4 5 6 
#
# 1 196.2993 34.0194 7.3043 0.0000 0.0000 0.0000
# 2 34.0194 52.6583 -13.1113 0.0000 0.0000 0.0000
# 3 7.3043 -13.1113 59.1914 0.0000 0.0000 0.0000
# 4 0.0000 0.0000 0.0000 23.3071 0.0000 0.0000
# 5 0.0000 0.0000 0.0000 0.0000 25.2742 0.0000
# 6 0.0000 0.0000 0.0000 0.0000 0.0000 24.2137
#
#
#
# Elastic Compliance Matrix: (Units=1/GPa)
#
#
# Indices 1 2 3 4 5 6 
#
# 1 0.005887 -0.004217 -0.001660 0.000000 0.000000 0.000000
# 2 -0.004217 0.023119 0.005641 0.000000 0.000000 0.000000
# 3 -0.001660 0.005641 0.018349 0.000000 0.000000 0.000000
# 4 0.000000 0.000000 0.000000 0.042905 0.000000 0.000000
# 5 0.000000 0.000000 0.000000 0.000000 0.039566 0.000000
# 6 0.000000 0.000000 0.000000 0.000000 0.000000 0.041299
#
#
# Mechanical properties :
#
#
# Convention : Reuss Voigt Hill
#
# Bulk Modulus (GPa) = 21.32948 40.50820 30.91884
# Shear Modulus (GPa) = 26.70598 33.22145 29.96372
#
# Velocity S-wave (km/s) = 3.54733 3.95646 3.75746
# Velocity P-wave (km/s) = 5.17960 6.32126 5.77869
#
# Compressibility (1/GPa) = 0.04688346
#
# Stress axis : x y z
#
# Youngs Moduli (GPa) = 169.87203 43.25442 54.49932
#
# Poissons Ratio (x) = 0.18238 0.09049
# Poissons Ratio (y) = 0.71627 -0.30745
# Poissons Ratio (z) = 0.28206 -0.24401
#
# Static dielectric constant tensor:
#      x y z
#    x 1.764430 0.000000 0.000000 
#    y 0.000000 1.791570 0.000000 
#    z 0.000000 0.000000 1.817260 
# 
# From -- ./inp_files/18252.got.cif
#   From: 2010.05.17/outbox.cif.g08.bks.cpg/sg64_10_cif.got.tgz:18252.got - 2010.06.03 16:29:19.
