data_PCOD9479763
_publ_section_title
;
Structure prediction by ZEFSAII (Michael W. Deem and Ramdas Pophale) SiO2 
 PCOD9479763
Probable space group: C M C A
;
_chemical_formula_sum "Si O2"
_cell_formula_units_Z 88
_cell_length_a 15.909719
_cell_length_b 22.694042
_cell_length_c 13.877891
_cell_angle_alpha 90.000000
_cell_angle_beta 90.000000
_cell_angle_gamma 90.000000
_cell_volume 5010.693470
_symmetry_space_group_name_H-M "C M C A"
_symmetry_group_IT_number 64
_symmetry_cell_setting 'orthorhombic'
loop_
_space_group_symop_operation_xyz
x,y,z
-x,1/2-y,1/2+z
x,-y,-z
-x,1/2+y,1/2-z
-x,-y,-z
x,1/2+y,1/2-z
-x,y,z
x,1/2-y,1/2+z
1/2+x,1/2+y,z
1/2-x,-y,1/2+z
1/2+x,1/2-y,-z
1/2-x,y,1/2-z
1/2-x,1/2-y,-z
1/2+x,y,1/2-z
1/2-x,1/2+y,z
1/2+x,-y,1/2+z
loop_
_atom_site_type_symbol
_atom_site_label
_atom_site_fract_x
_atom_site_fract_y
_atom_site_fract_z
Si Si1 0.000000 0.314658 0.241951
Si Si2 0.833030 0.121809 0.314529
Si Si3 0.000000 0.747401 0.953245
Si Si4 0.325313 0.796088 0.000548
Si Si5 0.337189 0.626498 0.693988
Si Si6 0.099822 0.501550 0.884627
Si Si7 0.500000 0.181181 0.269399
O O1 0.913004 0.347835 0.260332
O O2 0.000000 0.247211 0.275942
O O3 0.000000 0.306442 0.124893
O O4 0.750000 0.127868 0.250000
O O5 0.820251 0.158080 0.413122
O O6 0.852989 0.054171 0.339379
O O7 0.915728 0.148306 0.262467
O O8 0.086516 0.738970 0.008270
O O9 0.000000 0.804344 0.883860
O O10 0.324761 0.830646 0.102109
O O11 0.250000 0.750000 0.000000
O O12 0.250000 0.623065 0.750000
O O13 0.366153 0.562893 0.656214
O O14 0.000000 0.496812 0.864754
O O15 0.110400 0.500000 0.000000
#
# Coordination Sequence:
#
# PCOD9479763 Si02
#       7
#     8  16   8  16  16  16   8
#     4   8  20  35  57  86 118 151 198 242 297 366
#     4  12  24  38  62  91 125 164 207 260 314 371
#     4   8  19  37  55  79 127 153 194 243 297 362
#     4  11  23  37  58  92 123 163 202 250 308 375
#     4  11  22  40  63  85 121 165 204 254 306 370
#     4  11  22  40  65  90 119 156 210 264 316 368
#     4  10  21  36  58  90 122 159 194 247 312 370
#
# _framework density 17.562439000000001
#
# number of rings (size 3 to 8) (size 9 to 14) (size 15 to 20)
#    0.545    0.909    3.636    2.182    2.545    0.000 
#    0.000    0.000    0.000    0.000    0.000    2.545 
#    0.000    0.000    0.000    0.000    0.000    0.000 
#
# Total GULP energy -245479.140304 kJ/mol
# GULP energy per Si atom -5579.071371 kJ/mol
# Density = 1.752247 g / cm^3
# Si number density = 17.562439 Si / 1000 Ang^3
#
#
#
# Elastic Constant Matrix: (Units=GPa)
#
#
# Indices 1 2 3 4 5 6 
#
# 1 161.3265 55.0538 40.8681 0.0000 0.0000 0.0000
# 2 55.0538 113.5766 21.3804 0.0000 0.0000 0.0000
# 3 40.8681 21.3804 56.3923 0.0000 0.0000 0.0000
# 4 0.0000 0.0000 0.0000 19.7515 0.0000 0.0000
# 5 0.0000 0.0000 0.0000 0.0000 31.6481 0.0000
# 6 0.0000 0.0000 0.0000 0.0000 0.0000 37.7098
#
#
#
# Elastic Compliance Matrix: (Units=1/GPa)
#
#
# Indices 1 2 3 4 5 6 
#
# 1 0.008556 -0.003209 -0.004984 0.000000 0.000000 0.000000
# 2 -0.003209 0.010685 -0.001725 0.000000 0.000000 0.000000
# 3 -0.004984 -0.001725 0.021999 0.000000 0.000000 0.000000
# 4 0.000000 0.000000 0.000000 0.050629 0.000000 0.000000
# 5 0.000000 0.000000 0.000000 0.000000 0.031597 0.000000
# 6 0.000000 0.000000 0.000000 0.000000 0.000000 0.026518
#
#
# Mechanical properties :
#
#
# Convention : Reuss Voigt Hill
#
# Bulk Modulus (GPa) = 46.72225 62.87777 54.80001
# Shear Modulus (GPa) = 28.25544 32.08811 30.17178
#
# Velocity S-wave (km/s) = 4.01541 4.27908 4.14934
# Velocity P-wave (km/s) = 6.93969 7.76493 7.36388
#
# Compressibility (1/GPa) = 0.02140308
#
# Stress axis : x y z
#
# Youngs Moduli (GPa) = 116.87140 93.58876 45.45642
#
# Poissons Ratio (x) = 0.30035 0.22656
# Poissons Ratio (y) = 0.37507 0.07843
# Poissons Ratio (z) = 0.58251 0.16147
#
# Static dielectric constant tensor:
#      x y z
#    x 1.602010 0.000000 0.000000 
#    y 0.000000 1.573710 0.000000 
#    z 0.000000 0.000000 1.605460 
# 
# From -- ./inp_files/22470.got.cif
#   From: 2010.05.17/outbox.cif.g08.bks.cpg/sg64_12_cif.got.tgz:22470.got - 2010.06.03 16:29:19.
