data_PCOD9479809
_publ_section_title
;
Structure prediction by ZEFSAII (Michael W. Deem and Ramdas Pophale) SiO2 
 PCOD9479809
Probable space group: C M C A
;
_chemical_formula_sum "Si O2"
_cell_formula_units_Z 72
_cell_length_a 14.305883
_cell_length_b 18.648288
_cell_length_c 10.997444
_cell_angle_alpha 90.000000
_cell_angle_beta 90.000000
_cell_angle_gamma 90.000000
_cell_volume 2933.900599
_symmetry_space_group_name_H-M "C M C A"
_symmetry_group_IT_number 64
_symmetry_cell_setting 'orthorhombic'
loop_
_space_group_symop_operation_xyz
x,y,z
-x,1/2-y,1/2+z
x,-y,-z
-x,1/2+y,1/2-z
-x,-y,-z
x,1/2+y,1/2-z
-x,y,z
x,1/2-y,1/2+z
1/2+x,1/2+y,z
1/2-x,-y,1/2+z
1/2+x,1/2-y,-z
1/2-x,y,1/2-z
1/2-x,1/2-y,-z
1/2+x,y,1/2-z
1/2-x,1/2+y,z
1/2+x,-y,1/2+z
loop_
_atom_site_type_symbol
_atom_site_label
_atom_site_fract_x
_atom_site_fract_y
_atom_site_fract_z
Si Si1 0.807875 0.096083 0.127016
Si Si2 0.862639 0.540575 0.740911
Si Si3 0.660692 0.000000 0.000000
Si Si4 0.388316 0.742689 0.034299
Si Si5 0.607404 0.798702 0.281955
O O1 0.750000 0.113577 0.250000
O O2 0.863816 0.163201 0.079235
O O3 0.875943 0.029326 0.158709
O O4 0.729320 0.065576 0.035932
O O5 0.750000 0.545775 0.750000
O O6 0.893429 0.522885 0.878676
O O7 0.894589 0.616552 0.691551
O O8 0.500000 0.753583 0.023730
O O9 0.352193 0.791124 0.145941
O O10 0.351367 0.745816 0.895553
O O11 0.500000 0.773874 0.271262
#
# Coordination Sequence:
#
# PCOD9479809 Si02
#       5
#    16  16   8  16  16
#     4   9  18  33  54  80 106 136 175 218 263 315
#     4   9  18  33  54  79 106 138 174 218 266 317
#     4   8  16  32  52  76 108 136 172 220 266 312
#     4  10  21  37  55  77 107 143 179 219 264 313
#     4  10  22  38  55  77 108 143 180 220 264 313
#
# _framework density 24.540709
#
# number of rings (size 3 to 8) (size 9 to 14) (size 15 to 20)
#    0.000    3.111    0.000    2.667    0.000    5.333 
#    0.000    6.667    0.000    0.000    0.000    0.000 
#    0.000    0.000    0.000    0.000    0.000    0.000 
#
# Total GULP energy -200976.687067 kJ/mol
# GULP energy per Si atom -5582.685752 kJ/mol
# Density = 2.448485 g / cm^3
# Si number density = 24.540709 Si / 1000 Ang^3
#
#
#
# Elastic Constant Matrix: (Units=GPa)
#
#
# Indices 1 2 3 4 5 6 
#
# 1 54.8625 -16.1825 13.2927 0.0000 0.0000 0.0000
# 2 -16.1825 67.3799 17.1919 0.0000 0.0000 0.0000
# 3 13.2927 17.1919 127.0443 0.0000 0.0000 0.0000
# 4 0.0000 0.0000 0.0000 33.8798 0.0000 0.0000
# 5 0.0000 0.0000 0.0000 0.0000 1.1849 0.0000
# 6 0.0000 0.0000 0.0000 0.0000 0.0000 27.3708
#
#
#
# Elastic Compliance Matrix: (Units=1/GPa)
#
#
# Indices 1 2 3 4 5 6 
#
# 1 0.020618 0.005699 -0.002928 0.000000 0.000000 0.000000
# 2 0.005699 0.016947 -0.002890 0.000000 0.000000 0.000000
# 3 -0.002928 -0.002890 0.008569 0.000000 0.000000 0.000000
# 4 0.000000 0.000000 0.000000 0.029516 0.000000 0.000000
# 5 0.000000 0.000000 0.000000 0.000000 0.843983 0.000000
# 6 0.000000 0.000000 0.000000 0.000000 0.000000 0.036535
#
#
# Mechanical properties :
#
#
# Convention : Reuss Voigt Hill
#
# Bulk Modulus (GPa) = 21.78858 30.87675 26.33266
# Shear Modulus (GPa) = 5.14559 28.15274 16.64917
#
# Velocity S-wave (km/s) = 1.44959 3.39069 2.60750
# Velocity P-wave (km/s) = 3.42046 5.28566 4.45184
#
# Compressibility (1/GPa) = 0.04589561
#
# Stress axis : x y z
#
# Youngs Moduli (GPa) = 48.50153 59.00677 116.70374
#
# Poissons Ratio (x) = -0.33628 0.34176
# Poissons Ratio (y) = -0.27641 0.33723
# Poissons Ratio (z) = 0.14203 0.17051
#
# Static dielectric constant tensor:
#      x y z
#    x 1.942560 0.000000 0.000000 
#    y 0.000000 1.921140 0.000000 
#    z 0.000000 0.000000 2.075020 
# 
# From -- ./inp_files/15758.got.cif
#   From: 2010.05.17/outbox.cif.g08.bks.cpg/sg64_8_cif.got.tgz:15758.got - 2010.06.03 16:29:19.
