data_PCOD9479878
_publ_section_title
;
Structure prediction by ZEFSAII (Michael W. Deem and Ramdas Pophale) SiO2 
 PCOD9479878
Probable space group: C M C A
;
_chemical_formula_sum "Si O2"
_cell_formula_units_Z 56
_cell_length_a 15.132416
_cell_length_b 34.360815
_cell_length_c 4.964869
_cell_angle_alpha 90.000000
_cell_angle_beta 90.000000
_cell_angle_gamma 90.000000
_cell_volume 2581.543943
_symmetry_space_group_name_H-M "C M C A"
_symmetry_group_IT_number 64
_symmetry_cell_setting 'orthorhombic'
loop_
_space_group_symop_operation_xyz
x,y,z
-x,1/2-y,1/2+z
x,-y,-z
-x,1/2+y,1/2-z
-x,-y,-z
x,1/2+y,1/2-z
-x,y,z
x,1/2-y,1/2+z
1/2+x,1/2+y,z
1/2-x,-y,1/2+z
1/2+x,1/2-y,-z
1/2-x,y,1/2-z
1/2-x,1/2-y,-z
1/2+x,y,1/2-z
1/2-x,1/2+y,z
1/2+x,-y,1/2+z
loop_
_atom_site_type_symbol
_atom_site_label
_atom_site_fract_x
_atom_site_fract_y
_atom_site_fract_z
Si Si1 0.653152 0.668617 0.667653
Si Si2 0.000000 0.275339 0.967240
Si Si3 0.100827 0.621093 0.314985
Si Si4 0.815645 0.457723 0.501770
O O1 0.750000 0.683365 0.750000
O O2 0.587005 0.700166 0.543160
O O3 0.659763 0.634928 0.438451
O O4 0.612452 0.650775 0.938589
O O5 0.000000 0.237450 0.158144
O O6 0.123963 0.579133 0.436721
O O7 0.000000 0.621703 0.216656
O O8 0.862579 0.500000 0.500000
O O9 0.750000 0.460924 0.750000
O O10 0.750000 0.451597 0.250000
#
# Coordination Sequence:
#
# PCOD9479878 Si02
#       4
#    16   8  16  16
#     4  12  25  44  69  98 130 172 217 261 322 388
#     4  12  26  46  70  98 135 162 207 268 326 388
#     4  12  22  40  65  95 132 170 222 273 316 375
#     4  10  21  37  58  89 129 173 221 270 321 376
#
# _framework density 21.692443000000001
#
# number of rings (size 3 to 8) (size 9 to 14) (size 15 to 20)
#    0.000    0.571    2.857    6.857    0.000    1.714 
#    0.000    0.000    0.000    8.571    0.000    0.000 
#    0.000    0.000    0.000    0.000    0.000    0.000 
#
# Total GULP energy -156630.208666 kJ/mol
# GULP energy per Si atom -5593.936024 kJ/mol
# Density = 2.164307 g / cm^3
# Si number density = 21.692443 Si / 1000 Ang^3
#
#
#
# Elastic Constant Matrix: (Units=GPa)
#
#
# Indices 1 2 3 4 5 6 
#
# 1 90.9439 26.9067 -5.3244 0.0000 0.0000 0.0000
# 2 26.9067 84.5790 0.5496 0.0000 0.0000 0.0000
# 3 -5.3244 0.5496 110.2916 0.0000 0.0000 0.0000
# 4 0.0000 0.0000 0.0000 40.6511 0.0000 0.0000
# 5 0.0000 0.0000 0.0000 0.0000 23.3728 0.0000
# 6 0.0000 0.0000 0.0000 0.0000 0.0000 31.1376
#
#
#
# Elastic Compliance Matrix: (Units=1/GPa)
#
#
# Indices 1 2 3 4 5 6 
#
# 1 0.012179 -0.003878 0.000607 0.000000 0.000000 0.000000
# 2 -0.003878 0.013059 -0.000252 0.000000 0.000000 0.000000
# 3 0.000607 -0.000252 0.009097 0.000000 0.000000 0.000000
# 4 0.000000 0.000000 0.000000 0.024600 0.000000 0.000000
# 5 0.000000 0.000000 0.000000 0.000000 0.042785 0.000000
# 6 0.000000 0.000000 0.000000 0.000000 0.000000 0.032115
#
#
# Mechanical properties :
#
#
# Convention : Reuss Voigt Hill
#
# Bulk Modulus (GPa) = 36.64586 36.67537 36.66062
# Shear Modulus (GPa) = 33.33833 36.61115 34.97474
#
# Velocity S-wave (km/s) = 3.92454 4.11267 4.01970
# Velocity P-wave (km/s) = 6.12095 6.28456 6.20330
#
# Compressibility (1/GPa) = 0.02728821
#
# Stress axis : x y z
#
# Youngs Moduli (GPa) = 82.10999 76.57734 109.92098
#
# Poissons Ratio (x) = 0.29699 -0.06675
# Poissons Ratio (y) = 0.31845 0.02773
# Poissons Ratio (z) = -0.04986 0.01932
#
# Static dielectric constant tensor:
#      x y z
#    x 1.762700 0.000000 0.000000 
#    y 0.000000 1.888690 0.000000 
#    z 0.000000 0.000000 1.737140 
# 
# From -- ./inp_files/876.got.cif
#   From: 2010.05.17/outbox.cif.g08.bks.cpg/sg64_1_cif.got.tgz:876.got - 2010.06.03 16:29:19.
