data_PCOD9479274
_publ_section_title
;
Structure prediction by ZEFSAII (Michael W. Deem and Ramdas Pophale) SiO2 
 PCOD9479274
Probable space group: C M C A
;
_chemical_formula_sum "Si O2"
_cell_formula_units_Z 104
_cell_length_a 30.736869
_cell_length_b 18.752363
_cell_length_c 9.082533
_cell_angle_alpha 90.000000
_cell_angle_beta 90.000000
_cell_angle_gamma 90.000000
_cell_volume 5235.071432
_symmetry_space_group_name_H-M "C M C A"
_symmetry_group_IT_number 64
_symmetry_cell_setting 'orthorhombic'
loop_
_space_group_symop_operation_xyz
x,y,z
-x,1/2-y,1/2+z
x,-y,-z
-x,1/2+y,1/2-z
-x,-y,-z
x,1/2+y,1/2-z
-x,y,z
x,1/2-y,1/2+z
1/2+x,1/2+y,z
1/2-x,-y,1/2+z
1/2+x,1/2-y,-z
1/2-x,y,1/2-z
1/2-x,1/2-y,-z
1/2+x,y,1/2-z
1/2-x,1/2+y,z
1/2+x,-y,1/2+z
loop_
_atom_site_type_symbol
_atom_site_label
_atom_site_fract_x
_atom_site_fract_y
_atom_site_fract_z
Si Si1 0.589706 0.763131 0.987668
Si Si2 0.833510 0.920402 0.030066
Si Si3 0.500000 0.168857 0.012041
Si Si4 0.070563 0.385674 0.557292
Si Si5 0.854526 0.814645 0.267875
Si Si6 0.719884 0.291490 0.883243
Si Si7 0.500000 0.952009 0.768678
Si Si8 0.000000 0.613814 0.698726
O O1 0.543769 0.792882 0.935327
O O2 0.620088 0.728242 0.862354
O O3 0.578959 0.696545 0.094704
O O4 0.614696 0.820158 0.089057
O O5 0.839551 0.889424 0.196190
O O6 0.882439 0.919552 0.964898
O O7 0.805082 0.858518 0.953380
O O8 0.816125 0.000000 0.000000
O O9 0.500000 0.090309 0.080191
O O10 0.500000 0.167906 0.834354
O O11 0.042028 0.382029 0.407164
O O12 0.041653 0.426430 0.674608
O O13 0.814673 0.765368 0.319388
O O14 0.750000 0.316548 0.750000
O O15 0.750000 0.250000 0.000000
O O16 0.500000 0.036070 0.770208
#
# Coordination Sequence:
#
# PCOD9479274 Si02
#       8
#    16  16   8  16  16  16   8   8
#     4  11  22  36  61  93 121 165 212 271 308 370
#     4  11  23  41  68 101 130 165 211 267 317 384
#     4  12  23  32  52  88 129 156 216 265 313 346
#     4  10  20  38  63  83 118 167 221 253 305 373
#     4  11  21  42  67  92 127 166 215 257 322 391
#     4  12  23  44  72  95 123 165 209 258 329 403
#     4  11  22  35  54  81 122 175 214 255 313 370
#     4  11  22  37  52  83 126 175 209 258 313 372
#
# _framework density 19.866012999999999
#
# number of rings (size 3 to 8) (size 9 to 14) (size 15 to 20)
#    0.000    0.923    4.615    5.769    0.000    1.846 
#    2.769    0.000    0.000    0.000    0.000    0.000 
#    0.000    0.000    0.000    0.000    0.000    0.000 
#
# Total GULP energy -290466.310437 kJ/mol
# GULP energy per Si atom -5585.890585 kJ/mol
# Density = 1.982080 g / cm^3
# Si number density = 19.866013 Si / 1000 Ang^3
#
#
#
# Elastic Constant Matrix: (Units=GPa)
#
#
# Indices 1 2 3 4 5 6 
#
# 1 118.9305 34.7223 38.0656 0.0000 0.0000 0.0000
# 2 34.7223 115.9462 24.5195 0.0000 0.0000 0.0000
# 3 38.0656 24.5195 85.8372 0.0000 0.0000 0.0000
# 4 0.0000 0.0000 0.0000 29.2194 0.0000 0.0000
# 5 0.0000 0.0000 0.0000 0.0000 7.9092 0.0000
# 6 0.0000 0.0000 0.0000 0.0000 0.0000 10.1130
#
#
#
# Elastic Compliance Matrix: (Units=1/GPa)
#
#
# Indices 1 2 3 4 5 6 
#
# 1 0.010327 -0.002261 -0.003934 0.000000 0.000000 0.000000
# 2 -0.002261 0.009674 -0.001761 0.000000 0.000000 0.000000
# 3 -0.003934 -0.001761 0.013898 0.000000 0.000000 0.000000
# 4 0.000000 0.000000 0.000000 0.034224 0.000000 0.000000
# 5 0.000000 0.000000 0.000000 0.000000 0.126436 0.000000
# 6 0.000000 0.000000 0.000000 0.000000 0.000000 0.098882
#
#
# Mechanical properties :
#
#
# Convention : Reuss Voigt Hill
#
# Bulk Modulus (GPa) = 55.59340 57.25872 56.42606
# Shear Modulus (GPa) = 15.85550 24.34209 20.09879
#
# Velocity S-wave (km/s) = 2.82817 3.50425 3.18420
# Velocity P-wave (km/s) = 6.22171 6.72741 6.47949
#
# Compressibility (1/GPa) = 0.01798775
#
# Stress axis : x y z
#
# Youngs Moduli (GPa) = 96.82901 103.36872 71.95518
#
# Poissons Ratio (x) = 0.23370 0.28307
# Poissons Ratio (y) = 0.21891 0.12670
# Poissons Ratio (z) = 0.38093 0.18201
#
# Static dielectric constant tensor:
#      x y z
#    x 1.720880 0.000000 0.000000 
#    y 0.000000 1.708610 0.000000 
#    z 0.000000 0.000000 1.727650 
# 
# From -- ./inp_files/11236.got.cif
#   From: 2010.05.17/outbox.cif.g08.bks.cpg/sg64_6_cif.got.tgz:11236.got - 2010.06.03 16:29:19.
