data_PCOD9479342
_publ_section_title
;
Structure prediction by ZEFSAII (Michael W. Deem and Ramdas Pophale) SiO2 
 PCOD9479342
Probable space group: C M C A
;
_chemical_formula_sum "Si O2"
_cell_formula_units_Z 64
_cell_length_a 13.429403
_cell_length_b 8.401191
_cell_length_c 23.219451
_cell_angle_alpha 90.000000
_cell_angle_beta 90.000000
_cell_angle_gamma 90.000000
_cell_volume 2619.687647
_symmetry_space_group_name_H-M "C M C A"
_symmetry_group_IT_number 64
_symmetry_cell_setting 'orthorhombic'
loop_
_space_group_symop_operation_xyz
x,y,z
-x,1/2-y,1/2+z
x,-y,-z
-x,1/2+y,1/2-z
-x,-y,-z
x,1/2+y,1/2-z
-x,y,z
x,1/2-y,1/2+z
1/2+x,1/2+y,z
1/2-x,-y,1/2+z
1/2+x,1/2-y,-z
1/2-x,y,1/2-z
1/2-x,1/2-y,-z
1/2+x,y,1/2-z
1/2-x,1/2+y,z
1/2+x,-y,1/2+z
loop_
_atom_site_type_symbol
_atom_site_label
_atom_site_fract_x
_atom_site_fract_y
_atom_site_fract_z
Si Si1 0.117335 0.930978 0.089686
Si Si2 0.380149 0.067220 0.290366
Si Si3 0.803844 0.086811 0.441656
Si Si4 0.620294 0.085698 0.828030
O O1 0.134748 0.938554 0.158980
O O2 0.156685 0.764771 0.064888
O O3 0.183985 0.071269 0.062786
O O4 0.000000 0.950876 0.079663
O O5 0.500000 0.082943 0.285389
O O6 0.347708 0.019581 0.226705
O O7 0.344083 0.236154 0.314128
O O8 0.842403 0.986776 0.387201
O O9 0.836140 0.000000 0.500000
O O10 0.500000 0.087291 0.830389
#
# Coordination Sequence:
#
# PCOD9479342 Si02
#       4
#    16  16  16  16
#     4  11  25  46  71 101 140 182 231 294 351 407
#     4   9  19  38  67 104 140 179 231 290 357 420
#     4  12  26  45  69 102 141 188 242 283 340 425
#     4  10  20  38  67 103 143 182 229 292 351 415
#
# _framework density 24.430395000000001
#
# number of rings (size 3 to 8) (size 9 to 14) (size 15 to 20)
#    0.000    1.500    0.000    4.500    0.000    7.500 
#    0.000    8.750    0.000    0.000    0.000    0.000 
#    0.000    0.000    0.000    0.000    0.000    0.000 
#
# Total GULP energy -179383.625480 kJ/mol
# GULP energy per Si atom -5605.738296 kJ/mol
# Density = 2.437479 g / cm^3
# Si number density = 24.430395 Si / 1000 Ang^3
#
#
#
# Elastic Constant Matrix: (Units=GPa)
#
#
# Indices 1 2 3 4 5 6 
#
# 1 127.9633 43.9325 42.9433 0.0000 0.0000 0.0000
# 2 43.9325 110.9656 64.9494 0.0000 0.0000 0.0000
# 3 42.9433 64.9494 181.2835 0.0000 0.0000 0.0000
# 4 0.0000 0.0000 0.0000 43.8921 0.0000 0.0000
# 5 0.0000 0.0000 0.0000 0.0000 18.7163 0.0000
# 6 0.0000 0.0000 0.0000 0.0000 0.0000 40.6474
#
#
#
# Elastic Compliance Matrix: (Units=1/GPa)
#
#
# Indices 1 2 3 4 5 6 
#
# 1 0.009217 -0.003000 -0.001108 0.000000 0.000000 0.000000
# 2 -0.003000 0.012380 -0.003725 0.000000 0.000000 0.000000
# 3 -0.001108 -0.003725 0.007113 0.000000 0.000000 0.000000
# 4 0.000000 0.000000 0.000000 0.022783 0.000000 0.000000
# 5 0.000000 0.000000 0.000000 0.000000 0.053429 0.000000
# 6 0.000000 0.000000 0.000000 0.000000 0.000000 0.024602
#
#
# Mechanical properties :
#
#
# Convention : Reuss Voigt Hill
#
# Bulk Modulus (GPa) = 76.66873 80.42922 78.54897
# Shear Modulus (GPa) = 33.43628 38.54365 35.98997
#
# Velocity S-wave (km/s) = 3.70352 3.97633 3.84235
# Velocity P-wave (km/s) = 7.05257 7.35356 7.20464
#
# Compressibility (1/GPa) = 0.01304313
#
# Stress axis : x y z
#
# Youngs Moduli (GPa) = 108.49800 80.77735 140.58325
#
# Poissons Ratio (x) = 0.24235 0.15582
# Poissons Ratio (y) = 0.32552 0.52362
# Poissons Ratio (z) = 0.12026 0.30087
#
# Static dielectric constant tensor:
#      x y z
#    x 1.998850 0.000000 0.000000 
#    y 0.000000 1.904540 0.000000 
#    z 0.000000 0.000000 1.926610 
# 
# From -- ./inp_files/44787.got.cif
#   From: 2010.05.17/outbox.cif.g08.bks.cpg/sg64_23_cif.got.tgz:44787.got - 2010.06.03 16:29:19.
