data_PCOD9479508
_publ_section_title
;
Structure prediction by ZEFSAII (Michael W. Deem and Ramdas Pophale) SiO2 
 PCOD9479508
Probable space group: C M C A
;
_chemical_formula_sum "Si O2"
_cell_formula_units_Z 64
_cell_length_a 19.427763
_cell_length_b 7.740702
_cell_length_c 17.164492
_cell_angle_alpha 90.000000
_cell_angle_beta 90.000000
_cell_angle_gamma 90.000000
_cell_volume 2581.273958
_symmetry_space_group_name_H-M "C M C A"
_symmetry_group_IT_number 64
_symmetry_cell_setting 'orthorhombic'
loop_
_space_group_symop_operation_xyz
x,y,z
-x,1/2-y,1/2+z
x,-y,-z
-x,1/2+y,1/2-z
-x,-y,-z
x,1/2+y,1/2-z
-x,y,z
x,1/2-y,1/2+z
1/2+x,1/2+y,z
1/2-x,-y,1/2+z
1/2+x,1/2-y,-z
1/2-x,y,1/2-z
1/2-x,1/2-y,-z
1/2+x,y,1/2-z
1/2-x,1/2+y,z
1/2+x,-y,1/2+z
loop_
_atom_site_type_symbol
_atom_site_label
_atom_site_fract_x
_atom_site_fract_y
_atom_site_fract_z
Si Si1 0.353332 0.859222 0.396111
Si Si2 0.366948 0.331340 0.446913
Si Si3 0.235795 0.541608 0.159966
Si Si4 0.000000 0.849771 0.350046
Si Si5 0.000000 0.735037 0.668020
O O1 0.348550 0.803612 0.485636
O O2 0.311935 0.032950 0.376994
O O3 0.310779 0.711651 0.348677
O O4 0.431456 0.849441 0.367807
O O5 0.386479 0.500000 0.500000
O O6 0.307478 0.402721 0.390220
O O7 0.432969 0.286829 0.395724
O O8 0.250000 0.505132 0.250000
O O9 0.000000 0.789649 0.260894
O O10 0.000000 0.059880 0.349800
#
# Coordination Sequence:
#
# PCOD9479508 Si02
#       5
#    16  16  16   8   8
#     4  11  24  42  69  97 134 178 225 271 333 400
#     4  10  20  40  68  95 130 182 222 262 330 411
#     4  11  22  39  64 100 136 173 222 278 330 392
#     4  12  22  43  74  97 133 171 231 275 337 398
#     4  12  25  44  69 100 131 173 225 279 330 396
#
# _framework density 24.793959999999998
#
# number of rings (size 3 to 8) (size 9 to 14) (size 15 to 20)
#    0.000    1.000    5.000    4.125    0.000    0.000 
#    0.000    0.000    0.000    1.500    0.000    0.000 
#    0.000    0.000    0.000    0.000    0.000    0.000 
#
# Total GULP energy -179357.093554 kJ/mol
# GULP energy per Si atom -5604.909174 kJ/mol
# Density = 2.473753 g / cm^3
# Si number density = 24.793960 Si / 1000 Ang^3
#
#
#
# Elastic Constant Matrix: (Units=GPa)
#
#
# Indices 1 2 3 4 5 6 
#
# 1 210.8970 25.0622 82.1445 0.0000 0.0000 0.0000
# 2 25.0622 85.5876 12.5029 0.0000 0.0000 0.0000
# 3 82.1445 12.5029 235.1706 0.0000 0.0000 0.0000
# 4 0.0000 0.0000 0.0000 30.8593 0.0000 0.0000
# 5 0.0000 0.0000 0.0000 0.0000 64.2148 0.0000
# 6 0.0000 0.0000 0.0000 0.0000 0.0000 -35.6442
#
#
#
# Elastic Compliance Matrix: (Units=1/GPa)
#
#
# Indices 1 2 3 4 5 6 
#
# 1 0.005645 -0.001376 -0.001899 0.000000 0.000000 0.000000
# 2 -0.001376 0.012111 -0.000163 0.000000 0.000000 0.000000
# 3 -0.001899 -0.000163 0.004924 0.000000 0.000000 0.000000
# 4 0.000000 0.000000 0.000000 0.032405 0.000000 0.000000
# 5 0.000000 0.000000 0.000000 0.000000 0.015573 0.000000
# 6 0.000000 0.000000 0.000000 0.000000 0.000000 -0.028055
#
#
# Mechanical properties :
#
#
# Convention : Reuss Voigt Hill
#
# Bulk Modulus (GPa) = 63.27365 85.67494 74.47430
# Shear Modulus (GPa) = 91.33247 39.34903 65.34075
#
# Velocity S-wave (km/s) = 6.07590 3.98809 5.13913
# Velocity P-wave (km/s) = 8.64854 7.47237 8.08188
#
# Compressibility (1/GPa) = 0.01580437
#
# Stress axis : x y z
#
# Youngs Moduli (GPa) = 177.16089 82.57237 203.08428
#
# Poissons Ratio (x) = 0.11358 0.38556
# Poissons Ratio (y) = 0.24369 0.03318
# Poissons Ratio (z) = 0.33634 0.01349
#
# Static dielectric constant tensor:
#      x y z
#    x 1.915930 0.000000 0.000000 
#    y 0.000000 2.099740 0.000000 
#    z 0.000000 0.000000 1.873280 
# 
# From -- ./inp_files/24900.got.cif
#   From: 2010.05.17/outbox.cif.g08.bks.cpg/sg64_13_cif.got.tgz:24900.got - 2010.06.03 16:29:19.
