data_PCOD9479382
_publ_section_title
;
Structure prediction by ZEFSAII (Michael W. Deem and Ramdas Pophale) SiO2 
 PCOD9479382
Probable space group: C M C A
;
_chemical_formula_sum "Si O2"
_cell_formula_units_Z 96
_cell_length_a 17.321808
_cell_length_b 11.592823
_cell_length_c 22.515012
_cell_angle_alpha 90.000000
_cell_angle_beta 90.000000
_cell_angle_gamma 90.000000
_cell_volume 4521.209259
_symmetry_space_group_name_H-M "C M C A"
_symmetry_group_IT_number 64
_symmetry_cell_setting 'orthorhombic'
loop_
_space_group_symop_operation_xyz
x,y,z
-x,1/2-y,1/2+z
x,-y,-z
-x,1/2+y,1/2-z
-x,-y,-z
x,1/2+y,1/2-z
-x,y,z
x,1/2-y,1/2+z
1/2+x,1/2+y,z
1/2-x,-y,1/2+z
1/2+x,1/2-y,-z
1/2-x,y,1/2-z
1/2-x,1/2-y,-z
1/2+x,y,1/2-z
1/2-x,1/2+y,z
1/2+x,-y,1/2+z
loop_
_atom_site_type_symbol
_atom_site_label
_atom_site_fract_x
_atom_site_fract_y
_atom_site_fract_z
Si Si1 0.125143 0.719063 0.591330
Si Si2 0.911728 0.236882 0.774409
Si Si3 0.410864 0.540296 0.089509
Si Si4 0.583471 0.128896 0.977690
Si Si5 0.409915 0.980743 0.732161
Si Si6 0.789328 0.739731 0.435201
O O1 0.084041 0.733601 0.654101
O O2 0.113876 0.587661 0.570239
O O3 0.094161 0.796024 0.537448
O O4 0.214448 0.750827 0.605047
O O5 0.875382 0.360690 0.757054
O O6 0.000000 0.239265 0.750679
O O7 0.877889 0.110773 0.755666
O O8 0.500000 0.564616 0.070791
O O9 0.410044 0.535404 0.161107
O O10 0.345456 0.630690 0.070376
O O11 0.500000 0.153606 0.950807
O O12 0.651529 0.154564 0.932022
O O13 0.587010 0.000000 0.000000
O O14 0.500000 0.984878 0.752012
O O15 0.750000 0.750000 0.500000
#
# Coordination Sequence:
#
# PCOD9479382 Si02
#       6
#    16  16  16  16  16  16
#     4  10  21  36  61  84 116 154 194 238 297 355
#     4   9  16  33  57  87 115 150 194 243 296 358
#     4  10  20  39  63  86 111 152 205 244 282 353
#     4  10  21  37  55  80 115 150 193 243 291 350
#     4   8  16  31  56  85 116 145 192 247 293 348
#     4  10  23  36  56  81 116 148 190 240 297 336
#
# _framework density 21.233256999999998
#
# number of rings (size 3 to 8) (size 9 to 14) (size 15 to 20)
#    0.000    2.500    0.000    3.000    4.667    2.000 
#    3.000    5.000    0.000    4.000    0.000    0.000 
#    0.000    0.000    0.000    0.000    0.000    0.000 
#
# Total GULP energy -267366.003344 kJ/mol
# GULP energy per Si atom -5570.125070 kJ/mol
# Density = 2.118493 g / cm^3
# Si number density = 21.233257 Si / 1000 Ang^3
#
#
#
# Elastic Constant Matrix: (Units=GPa)
#
#
# Indices 1 2 3 4 5 6 
#
# 1 121.3455 45.1905 2.1947 0.0000 0.0000 0.0000
# 2 45.1905 165.7230 14.9738 0.0000 0.0000 0.0000
# 3 2.1947 14.9738 15.6521 0.0000 0.0000 0.0000
# 4 0.0000 0.0000 0.0000 34.6620 0.0000 0.0000
# 5 0.0000 0.0000 0.0000 0.0000 12.7531 0.0000
# 6 0.0000 0.0000 0.0000 0.0000 0.0000 15.5003
#
#
#
# Elastic Compliance Matrix: (Units=1/GPa)
#
#
# Indices 1 2 3 4 5 6 
#
# 1 0.009193 -0.002617 0.001214 0.000000 0.000000 0.000000
# 2 -0.002617 0.007350 -0.006664 0.000000 0.000000 0.000000
# 3 0.001214 -0.006664 0.070095 0.000000 0.000000 0.000000
# 4 0.000000 0.000000 0.000000 0.028850 0.000000 0.000000
# 5 0.000000 0.000000 0.000000 0.000000 0.078412 0.000000
# 6 0.000000 0.000000 0.000000 0.000000 0.000000 0.064515
#
#
# Mechanical properties :
#
#
# Convention : Reuss Voigt Hill
#
# Bulk Modulus (GPa) = 14.18355 47.49319 30.83837
# Shear Modulus (GPa) = 16.77566 28.60718 22.69142
#
# Velocity S-wave (km/s) = 2.81386 3.67452 3.27260
# Velocity P-wave (km/s) = 4.15349 6.35757 5.36983
#
# Compressibility (1/GPa) = 0.07050422
#
# Stress axis : x y z
#
# Youngs Moduli (GPa) = 108.77322 136.05714 14.26639
#
# Poissons Ratio (x) = 0.35601 -0.01732
# Poissons Ratio (y) = 0.28462 0.09508
# Poissons Ratio (z) = -0.13207 0.90675
#
# Static dielectric constant tensor:
#      x y z
#    x 1.751790 0.000000 0.000000 
#    y 0.000000 1.820380 0.000000 
#    z 0.000000 0.000000 1.762140 
# 
# From -- ./inp_files/45737.got.cif
#   From: 2010.05.17/outbox.cif.g08.bks.cpg/sg64_23_cif.got.tgz:45737.got - 2010.06.03 16:29:19.
