data_PCOD9479416
_publ_section_title
;
Structure prediction by ZEFSAII (Michael W. Deem and Ramdas Pophale) SiO2 
 PCOD9479416
Probable space group: C M C A
;
_chemical_formula_sum "Si O2"
_cell_formula_units_Z 96
_cell_length_a 15.031409
_cell_length_b 21.314116
_cell_length_c 13.883422
_cell_angle_alpha 90.000000
_cell_angle_beta 90.000000
_cell_angle_gamma 90.000000
_cell_volume 4447.987332
_symmetry_space_group_name_H-M "C M C A"
_symmetry_group_IT_number 64
_symmetry_cell_setting 'orthorhombic'
loop_
_space_group_symop_operation_xyz
x,y,z
-x,1/2-y,1/2+z
x,-y,-z
-x,1/2+y,1/2-z
-x,-y,-z
x,1/2+y,1/2-z
-x,y,z
x,1/2-y,1/2+z
1/2+x,1/2+y,z
1/2-x,-y,1/2+z
1/2+x,1/2-y,-z
1/2-x,y,1/2-z
1/2-x,1/2-y,-z
1/2+x,y,1/2-z
1/2-x,1/2+y,z
1/2+x,-y,1/2+z
loop_
_atom_site_type_symbol
_atom_site_label
_atom_site_fract_x
_atom_site_fract_y
_atom_site_fract_z
Si Si1 0.750000 0.116502 0.250000
Si Si2 0.000000 0.941973 0.231143
Si Si3 0.659742 0.154399 0.971538
Si Si4 0.352310 0.844868 0.250050
Si Si5 0.694262 0.430434 0.952362
Si Si6 0.000000 0.551584 0.416277
Si Si7 0.500000 0.932506 0.039116
Si Si8 0.893346 0.289198 0.838323
O O1 0.736161 0.074620 0.345307
O O2 0.834354 0.161712 0.275305
O O3 0.913286 0.900272 0.207926
O O4 0.000000 0.941084 0.346301
O O5 0.000000 0.009598 0.181145
O O6 0.632704 0.170805 0.863257
O O7 0.587011 0.102090 0.997867
O O8 0.754606 0.120803 0.983186
O O9 0.644517 0.205901 0.052766
O O10 0.250000 0.864002 0.250000
O O11 0.372814 0.780680 0.303550
O O12 0.591582 0.412892 0.933363
O O13 0.701071 0.500000 0.000000
O O14 0.000000 0.500000 0.500000
O O15 0.500000 0.000000 0.000000
O O16 0.000000 0.300959 0.834183
#
# Coordination Sequence:
#
# PCOD9479416 Si02
#       8
#     8   8  16  16  16   8   8  16
#     4  10  24  42  66 100 126 170 224 264 336 396
#     4  10  24  43  64  99 129 170 221 268 320 395
#     4  10  23  42  67  98 130 167 225 270 327 400
#     4  11  24  42  70  98 132 173 217 276 335 389
#     4  10  23  43  64  93 132 172 217 274 325 393
#     4  10  24  42  60  90 134 171 218 257 326 390
#     4  10  20  39  66  95 123 165 215 273 323 375
#     4  11  22  43  69  94 132 173 218 275 329 394
#
# _framework density 21.582795999999998
#
# number of rings (size 3 to 8) (size 9 to 14) (size 15 to 20)
#    0.000    1.667    2.500    0.500    5.833    6.000 
#    0.000    0.000    0.000    0.000    0.000    0.000 
#    0.000    0.000    0.000    0.000    0.000    0.000 
#
# Total GULP energy -268052.867941 kJ/mol
# GULP energy per Si atom -5584.434749 kJ/mol
# Density = 2.153367 g / cm^3
# Si number density = 21.582796 Si / 1000 Ang^3
#
#
#
# Elastic Constant Matrix: (Units=GPa)
#
#
# Indices 1 2 3 4 5 6 
#
# 1 161.8270 33.0857 -7.2306 0.0000 0.0000 0.0000
# 2 33.0857 46.9569 -6.9408 0.0000 0.0000 0.0000
# 3 -7.2306 -6.9408 23.9767 0.0000 0.0000 0.0000
# 4 0.0000 0.0000 0.0000 33.8398 0.0000 0.0000
# 5 0.0000 0.0000 0.0000 0.0000 26.9650 0.0000
# 6 0.0000 0.0000 0.0000 0.0000 0.0000 17.8828
#
#
#
# Elastic Compliance Matrix: (Units=1/GPa)
#
#
# Indices 1 2 3 4 5 6 
#
# 1 0.007232 -0.004987 0.000737 0.000000 0.000000 0.000000
# 2 -0.004987 0.025686 0.005932 0.000000 0.000000 0.000000
# 3 0.000737 0.005932 0.043647 0.000000 0.000000 0.000000
# 4 0.000000 0.000000 0.000000 0.029551 0.000000 0.000000
# 5 0.000000 0.000000 0.000000 0.000000 0.037085 0.000000
# 6 0.000000 0.000000 0.000000 0.000000 0.000000 0.055920
#
#
# Mechanical properties :
#
#
# Convention : Reuss Voigt Hill
#
# Bulk Modulus (GPa) = 12.51088 30.06548 21.28818
# Shear Modulus (GPa) = 22.48214 29.99394 26.23804
#
# Velocity S-wave (km/s) = 3.23099 3.73193 3.49046
# Velocity P-wave (km/s) = 4.44166 5.70353 5.11169
#
# Compressibility (1/GPa) = 0.07993041
#
# Stress axis : x y z
#
# Youngs Moduli (GPa) = 138.27625 38.93101 22.91128
#
# Poissons Ratio (x) = 0.19413 -0.01689
# Poissons Ratio (y) = 0.68953 -0.13591
# Poissons Ratio (z) = -0.10197 -0.23093
#
# Static dielectric constant tensor:
#      x y z
#    x 1.833580 0.000000 0.000000 
#    y 0.000000 1.812620 0.000000 
#    z 0.000000 0.000000 1.818620 
# 
# From -- ./inp_files/24018.got.cif
#   From: 2010.05.17/outbox.cif.g08.bks.cpg/sg64_13_cif.got.tgz:24018.got - 2010.06.03 16:29:19.
