data_PCOD9479315
_publ_section_title
;
Structure prediction by ZEFSAII (Michael W. Deem and Ramdas Pophale) SiO2 
 PCOD9479315
Probable space group: C M C A
;
_chemical_formula_sum "Si O2"
_cell_formula_units_Z 112
_cell_length_a 11.239005
_cell_length_b 14.685875
_cell_length_c 30.969556
_cell_angle_alpha 90.000000
_cell_angle_beta 90.000000
_cell_angle_gamma 90.000000
_cell_volume 5111.668376
_symmetry_space_group_name_H-M "C M C A"
_symmetry_group_IT_number 64
_symmetry_cell_setting 'orthorhombic'
loop_
_space_group_symop_operation_xyz
x,y,z
-x,1/2-y,1/2+z
x,-y,-z
-x,1/2+y,1/2-z
-x,-y,-z
x,1/2+y,1/2-z
-x,y,z
x,1/2-y,1/2+z
1/2+x,1/2+y,z
1/2-x,-y,1/2+z
1/2+x,1/2-y,-z
1/2-x,y,1/2-z
1/2-x,1/2-y,-z
1/2+x,y,1/2-z
1/2-x,1/2+y,z
1/2+x,-y,1/2+z
loop_
_atom_site_type_symbol
_atom_site_label
_atom_site_fract_x
_atom_site_fract_y
_atom_site_fract_z
Si Si1 0.636599 0.318817 0.653206
Si Si2 0.873813 0.815129 0.751390
Si Si3 0.137022 0.375502 0.987561
Si Si4 0.860465 0.519109 0.096568
Si Si5 0.300277 0.123595 0.635084
Si Si6 0.128602 0.830990 0.041421
Si Si7 0.365939 0.483716 0.220797
O O1 0.500000 0.296162 0.639228
O O2 0.622994 0.351274 0.702195
O O3 0.691358 0.397062 0.624064
O O4 0.711161 0.226596 0.651315
O O5 0.750000 0.761063 0.750000
O O6 0.000000 0.767527 0.759578
O O7 0.865600 0.905337 0.780686
O O8 0.159432 0.456310 0.953408
O O9 0.134889 0.279239 0.961228
O O10 0.000000 0.384247 0.005290
O O11 0.250627 0.364903 0.018569
O O12 0.815545 0.427018 0.117471
O O13 0.000000 0.523882 0.102970
O O14 0.371804 0.133449 0.590278
O O15 0.352505 0.064539 0.674358
O O16 0.000000 0.856493 0.021020
O O17 0.500000 0.460310 0.237552
O O18 0.250000 0.460070 0.250000
#
# Coordination Sequence:
#
# PCOD9479315 Si02
#       7
#    16  16  16  16  16  16  16
#     4  10  20  39  63  86 120 171 218 258 322 400
#     4   9  18  34  57  82 114 157 202 251 312 382
#     4   9  19  39  67  94 129 180 231 273 325 397
#     4  10  21  39  64  94 130 176 225 272 324 396
#     4  12  23  37  65  98 129 166 222 279 332 394
#     4  10  20  38  64  96 133 176 225 275 332 397
#     4  10  21  38  59  88 124 163 208 263 325 389
#
# _framework density 21.910654000000001
#
# number of rings (size 3 to 8) (size 9 to 14) (size 15 to 20)
#    0.000    2.000    1.429    3.000    0.000    3.429 
#    0.000    5.000    0.000    3.429    0.000    0.000 
#    0.000    0.000    0.000    0.000    0.000    0.000 
#
# Total GULP energy -312021.922861 kJ/mol
# GULP energy per Si atom -5571.820051 kJ/mol
# Density = 2.186078 g / cm^3
# Si number density = 21.910654 Si / 1000 Ang^3
#
#
#
# Elastic Constant Matrix: (Units=GPa)
#
#
# Indices 1 2 3 4 5 6 
#
# 1 151.6132 22.4456 43.9819 0.0000 0.0000 0.0000
# 2 22.4456 94.4143 10.3921 0.0000 0.0000 0.0000
# 3 43.9819 10.3921 64.4308 0.0000 0.0000 0.0000
# 4 0.0000 0.0000 0.0000 39.0062 0.0000 0.0000
# 5 0.0000 0.0000 0.0000 0.0000 28.5526 0.0000
# 6 0.0000 0.0000 0.0000 0.0000 0.0000 18.1041
#
#
#
# Elastic Compliance Matrix: (Units=1/GPa)
#
#
# Indices 1 2 3 4 5 6 
#
# 1 0.008400 -0.001391 -0.005510 0.000000 0.000000 0.000000
# 2 -0.001391 0.011013 -0.000827 0.000000 0.000000 0.000000
# 3 -0.005510 -0.000827 0.019415 0.000000 0.000000 0.000000
# 4 0.000000 0.000000 0.000000 0.025637 0.000000 0.000000
# 5 0.000000 0.000000 0.000000 0.000000 0.035023 0.000000
# 6 0.000000 0.000000 0.000000 0.000000 0.000000 0.055236
#
#
# Mechanical properties :
#
#
# Convention : Reuss Voigt Hill
#
# Bulk Modulus (GPa) = 42.78360 51.56640 47.17500
# Shear Modulus (GPa) = 28.09459 32.70849 30.40154
#
# Velocity S-wave (km/s) = 3.58471 3.86788 3.72899
# Velocity P-wave (km/s) = 6.05825 6.59798 6.33386
#
# Compressibility (1/GPa) = 0.02337344
#
# Stress axis : x y z
#
# Youngs Moduli (GPa) = 119.04887 90.79987 51.50658
#
# Poissons Ratio (x) = 0.12626 0.28379
# Poissons Ratio (y) = 0.16554 0.04260
# Poissons Ratio (z) = 0.65592 0.07510
#
# Static dielectric constant tensor:
#      x y z
#    x 1.867110 0.000000 0.000000 
#    y 0.000000 1.811550 0.000000 
#    z 0.000000 0.000000 1.841630 
# 
# From -- ./inp_files/52821.got.cif
#   From: 2010.05.17/outbox.cif.g08.bks.cpg/sg64_27_cif.got.tgz:52821.got - 2010.06.03 16:29:19.
