data_PCOD9479557
_publ_section_title
;
Structure prediction by ZEFSAII (Michael W. Deem and Ramdas Pophale) SiO2 
 PCOD9479557
Probable space group: C M C A
;
_chemical_formula_sum "Si O2"
_cell_formula_units_Z 112
_cell_length_a 21.220525
_cell_length_b 16.802456
_cell_length_c 14.686308
_cell_angle_alpha 90.000000
_cell_angle_beta 90.000000
_cell_angle_gamma 90.000000
_cell_volume 5236.505005
_symmetry_space_group_name_H-M "C M C A"
_symmetry_group_IT_number 64
_symmetry_cell_setting 'orthorhombic'
loop_
_space_group_symop_operation_xyz
x,y,z
-x,1/2-y,1/2+z
x,-y,-z
-x,1/2+y,1/2-z
-x,-y,-z
x,1/2+y,1/2-z
-x,y,z
x,1/2-y,1/2+z
1/2+x,1/2+y,z
1/2-x,-y,1/2+z
1/2+x,1/2-y,-z
1/2-x,y,1/2-z
1/2-x,1/2-y,-z
1/2+x,y,1/2-z
1/2-x,1/2+y,z
1/2+x,-y,1/2+z
loop_
_atom_site_type_symbol
_atom_site_label
_atom_site_fract_x
_atom_site_fract_y
_atom_site_fract_z
Si Si1 0.576239 0.937818 0.923204
Si Si2 0.888910 0.886932 0.153167
Si Si3 0.072044 0.551997 0.286305
Si Si4 0.763502 0.409913 0.470852
Si Si5 0.836977 0.821867 0.881125
Si Si6 0.691492 0.840373 0.188347
Si Si7 0.073205 0.257303 0.969702
O O1 0.500000 0.939763 0.927623
O O2 0.592011 0.959764 0.819103
O O3 0.594100 0.845710 0.940241
O O4 0.598993 0.000000 0.000000
O O5 0.827096 0.903967 0.090982
O O6 0.869103 0.868432 0.256808
O O7 0.920359 0.808995 0.109674
O O8 0.926659 0.968866 0.159230
O O9 0.121818 0.610891 0.332513
O O10 0.000000 0.583547 0.287398
O O11 0.752644 0.500000 0.500000
O O12 0.780620 0.358992 0.559774
O O13 0.707228 0.374479 0.410647
O O14 0.810916 0.754636 0.815188
O O15 0.883841 0.775186 0.949210
O O16 0.750000 0.866957 0.250000
O O17 0.000000 0.261650 0.997246
#
# Coordination Sequence:
#
# PCOD9479557 Si02
#       7
#    16  16  16  16  16  16  16
#     4   9  20  38  55  81 124 169 209 252 305 367
#     4  10  21  39  62  91 126 164 212 260 318 381
#     4  11  22  38  63  95 131 166 211 260 311 388
#     4  10  20  42  62  89 127 160 203 271 321 376
#     4  11  22  39  64  95 124 164 214 259 321 391
#     4  10  23  42  62  88 123 165 216 268 318 378
#     4  10  21  38  62  90 129 168 205 257 320 384
#
# _framework density 21.388310000000001
#
# number of rings (size 3 to 8) (size 9 to 14) (size 15 to 20)
#    0.000    1.857    1.429    2.143    2.000    0.000 
#    5.143    3.571    0.000    0.000    0.000    0.000 
#    0.000    0.000    0.000    0.000    0.000    0.000 
#
# Total GULP energy -312805.040781 kJ/mol
# GULP energy per Si atom -5585.804300 kJ/mol
# Density = 2.133963 g / cm^3
# Si number density = 21.388310 Si / 1000 Ang^3
#
#
#
# Elastic Constant Matrix: (Units=GPa)
#
#
# Indices 1 2 3 4 5 6 
#
# 1 26.1409 -1.3320 11.6238 0.0000 0.0000 0.0000
# 2 -1.3320 127.0207 32.1220 0.0000 0.0000 0.0000
# 3 11.6238 32.1220 71.3936 0.0000 0.0000 0.0000
# 4 0.0000 0.0000 0.0000 39.4845 0.0000 0.0000
# 5 0.0000 0.0000 0.0000 0.0000 10.2893 0.0000
# 6 0.0000 0.0000 0.0000 0.0000 0.0000 11.9199
#
#
#
# Elastic Compliance Matrix: (Units=1/GPa)
#
#
# Indices 1 2 3 4 5 6 
#
# 1 0.041901 0.002443 -0.007921 0.000000 0.000000 0.000000
# 2 0.002443 0.009026 -0.004459 0.000000 0.000000 0.000000
# 3 -0.007921 -0.004459 0.017303 0.000000 0.000000 0.000000
# 4 0.000000 0.000000 0.000000 0.025326 0.000000 0.000000
# 5 0.000000 0.000000 0.000000 0.000000 0.097188 0.000000
# 6 0.000000 0.000000 0.000000 0.000000 0.000000 0.083893
#
#
# Mechanical properties :
#
#
# Convention : Reuss Voigt Hill
#
# Bulk Modulus (GPa) = 20.68037 34.37588 27.52812
# Shear Modulus (GPa) = 16.09632 24.48150 20.28891
#
# Velocity S-wave (km/s) = 2.74629 3.38689 3.08327
# Velocity P-wave (km/s) = 4.44366 5.60374 5.05708
#
# Compressibility (1/GPa) = 0.04835503
#
# Stress axis : x y z
#
# Youngs Moduli (GPa) = 23.86587 110.79230 57.79476
#
# Poissons Ratio (x) = -0.27061 0.45779
# Poissons Ratio (y) = -0.05829 0.25769
# Poissons Ratio (z) = 0.18904 0.49399
#
# Static dielectric constant tensor:
#      x y z
#    x 1.757220 0.000000 0.000000 
#    y 0.000000 1.761410 0.000000 
#    z 0.000000 0.000000 1.787810 
# 
# From -- ./inp_files/27382.got.cif
#   From: 2010.05.17/outbox.cif.g08.bks.cpg/sg64_14_cif.got.tgz:27382.got - 2010.06.03 16:29:19.
