data_PCOD9479781
_publ_section_title
;
Structure prediction by ZEFSAII (Michael W. Deem and Ramdas Pophale) SiO2 
 PCOD9479781
Probable space group: C M C A
;
_chemical_formula_sum "Si O2"
_cell_formula_units_Z 80
_cell_length_a 19.553646
_cell_length_b 15.492641
_cell_length_c 11.975300
_cell_angle_alpha 90.000000
_cell_angle_beta 90.000000
_cell_angle_gamma 90.000000
_cell_volume 3627.768853
_symmetry_space_group_name_H-M "C M C A"
_symmetry_group_IT_number 64
_symmetry_cell_setting 'orthorhombic'
loop_
_space_group_symop_operation_xyz
x,y,z
-x,1/2-y,1/2+z
x,-y,-z
-x,1/2+y,1/2-z
-x,-y,-z
x,1/2+y,1/2-z
-x,y,z
x,1/2-y,1/2+z
1/2+x,1/2+y,z
1/2-x,-y,1/2+z
1/2+x,1/2-y,-z
1/2-x,y,1/2-z
1/2-x,1/2-y,-z
1/2+x,y,1/2-z
1/2-x,1/2+y,z
1/2+x,-y,1/2+z
loop_
_atom_site_type_symbol
_atom_site_label
_atom_site_fract_x
_atom_site_fract_y
_atom_site_fract_z
Si Si1 0.000000 0.438271 0.216624
Si Si2 0.347384 0.618740 0.690332
Si Si3 0.801175 0.596814 0.038199
Si Si4 0.000000 0.869504 0.796053
Si Si5 0.890176 0.231358 0.336207
Si Si6 0.000000 0.841952 0.049143
Si Si7 0.750000 0.031716 0.250000
O O1 0.928453 0.401073 0.166333
O O2 0.000000 0.541972 0.224919
O O3 0.000000 0.406317 0.345538
O O4 0.300719 0.641156 0.582666
O O5 0.344538 0.696138 0.777900
O O6 0.315157 0.531285 0.740205
O O7 0.854647 0.651330 0.107018
O O8 0.743477 0.583044 0.133025
O O9 0.821356 0.500000 0.000000
O O10 0.936809 0.809892 0.760033
O O11 0.000000 0.884016 0.928294
O O12 0.935213 0.280546 0.428605
#
# Coordination Sequence:
#
# PCOD9479781 Si02
#       7
#     8  16  16   8  16   8   8
#     4  10  21  39  66  94 127 165 214 265 312 379
#     4  10  22  43  64  92 129 168 210 268 323 378
#     4  10  21  41  63  88 122 162 210 263 314 373
#     4  11  18  32  56  89 127 167 206 256 316 378
#     4  10  21  36  60  90 124 164 215 262 313 383
#     4   9  20  35  53  89 134 168 199 253 325 379
#     4  10  22  42  62  88 126 162 210 260 320 390
#
# _framework density 22.052122000000001
#
# number of rings (size 3 to 8) (size 9 to 14) (size 15 to 20)
#    0.000    2.000    0.000    4.500    0.000    2.400 
#    0.000   42.500    0.000    0.000    0.000    0.000 
#    0.000    0.000    0.000    0.000    0.000    0.000 
#
# Total GULP energy -222950.854411 kJ/mol
# GULP energy per Si atom -5573.771360 kJ/mol
# Density = 2.200193 g / cm^3
# Si number density = 22.052122 Si / 1000 Ang^3
#
#
#
# Elastic Constant Matrix: (Units=GPa)
#
#
# Indices 1 2 3 4 5 6 
#
# 1 57.7095 6.0869 28.9907 0.0000 0.0000 0.0000
# 2 6.0869 43.2128 13.0791 0.0000 0.0000 0.0000
# 3 28.9907 13.0791 128.4952 0.0000 0.0000 0.0000
# 4 0.0000 0.0000 0.0000 37.2179 0.0000 0.0000
# 5 0.0000 0.0000 0.0000 0.0000 -90.0945 0.0000
# 6 0.0000 0.0000 0.0000 0.0000 0.0000 128.2001
#
#
#
# Elastic Compliance Matrix: (Units=1/GPa)
#
#
# Indices 1 2 3 4 5 6 
#
# 1 0.019633 -0.001470 -0.004280 0.000000 0.000000 0.000000
# 2 -0.001470 0.023987 -0.002110 0.000000 0.000000 0.000000
# 3 -0.004280 -0.002110 0.008963 0.000000 0.000000 0.000000
# 4 0.000000 0.000000 0.000000 0.026869 0.000000 0.000000
# 5 0.000000 0.000000 0.000000 0.000000 -0.011099 0.000000
# 6 0.000000 0.000000 0.000000 0.000000 0.000000 0.007800
#
#
# Mechanical properties :
#
#
# Convention : Reuss Voigt Hill
#
# Bulk Modulus (GPa) = 27.12739 36.19232 31.65986
# Shear Modulus (GPa) = 48.00292 27.14875 37.57583
#
# Velocity S-wave (km/s) = 4.67067 3.51253 4.13238
# Velocity P-wave (km/s) = 6.43546 5.73571 6.09563
#
# Compressibility (1/GPa) = 0.03686311
#
# Stress axis : x y z
#
# Youngs Moduli (GPa) = 50.93386 41.68933 111.57253
#
# Poissons Ratio (x) = 0.06129 0.47753
# Poissons Ratio (y) = 0.07488 0.23540
# Poissons Ratio (z) = 0.21800 0.08796
#
# Static dielectric constant tensor:
#      x y z
#    x 1.850150 0.000000 0.000000 
#    y 0.000000 1.819590 0.000000 
#    z 0.000000 0.000000 1.856030 
# 
# From -- ./inp_files/19032.got.cif
#   From: 2010.05.17/outbox.cif.g08.bks.cpg/sg64_10_cif.got.tgz:19032.got - 2010.06.03 16:29:19.
