data_PCOD9479525
_publ_section_title
;
Structure prediction by ZEFSAII (Michael W. Deem and Ramdas Pophale) SiO2 
 PCOD9479525
Probable space group: C M C A
;
_chemical_formula_sum "Si O2"
_cell_formula_units_Z 80
_cell_length_a 18.957405
_cell_length_b 14.746009
_cell_length_c 12.546007
_cell_angle_alpha 90.000000
_cell_angle_beta 90.000000
_cell_angle_gamma 90.000000
_cell_volume 3507.186885
_symmetry_space_group_name_H-M "C M C A"
_symmetry_group_IT_number 64
_symmetry_cell_setting 'orthorhombic'
loop_
_space_group_symop_operation_xyz
x,y,z
-x,1/2-y,1/2+z
x,-y,-z
-x,1/2+y,1/2-z
-x,-y,-z
x,1/2+y,1/2-z
-x,y,z
x,1/2-y,1/2+z
1/2+x,1/2+y,z
1/2-x,-y,1/2+z
1/2+x,1/2-y,-z
1/2-x,y,1/2-z
1/2-x,1/2-y,-z
1/2+x,y,1/2-z
1/2-x,1/2+y,z
1/2+x,-y,1/2+z
loop_
_atom_site_type_symbol
_atom_site_label
_atom_site_fract_x
_atom_site_fract_y
_atom_site_fract_z
Si Si1 0.307430 0.685028 0.590810
Si Si2 0.078317 0.885842 0.249326
Si Si3 0.579671 0.737222 0.409569
Si Si4 0.130080 0.418550 0.759578
Si Si5 0.261046 0.616928 0.095084
O O1 0.353876 0.647679 0.685465
O O2 0.364982 0.713758 0.501097
O O3 0.263316 0.774209 0.620387
O O4 0.256642 0.614128 0.529906
O O5 0.085745 0.839267 0.134061
O O6 0.000000 0.856308 0.288057
O O7 0.082067 0.993662 0.258750
O O8 0.500000 0.721404 0.447273
O O9 0.593139 0.670744 0.307671
O O10 0.197489 0.427848 0.839151
O O11 0.164533 0.412047 0.642681
#
# Coordination Sequence:
#
# PCOD9479525 Si02
#       5
#    16  16  16  16  16
#     4  10  20  41  65  90 125 166 213 255 314 380
#     4  11  23  40  65  94 123 170 216 256 318 376
#     4  10  21  38  62  89 124 161 206 264 311 368
#     4  10  20  41  60  91 125 161 208 255 315 368
#     4   9  20  39  59  88 122 160 201 256 313 359
#
# _framework density 22.810305
#
# number of rings (size 3 to 8) (size 9 to 14) (size 15 to 20)
#    0.000    2.000    2.000    1.200    0.000    3.200 
#   25.200    5.000    0.000    2.400    0.000    0.000 
#    0.000    0.000    0.000    0.000    0.000    0.000 
#
# Total GULP energy -223288.808395 kJ/mol
# GULP energy per Si atom -5582.220210 kJ/mol
# Density = 2.275839 g / cm^3
# Si number density = 22.810305 Si / 1000 Ang^3
#
#
#
# Elastic Constant Matrix: (Units=GPa)
#
#
# Indices 1 2 3 4 5 6 
#
# 1 78.5314 1.0980 9.9537 0.0000 0.0000 0.0000
# 2 1.0980 63.5688 -3.5297 0.0000 0.0000 0.0000
# 3 9.9537 -3.5297 40.5498 0.0000 0.0000 0.0000
# 4 0.0000 0.0000 0.0000 18.5528 0.0000 0.0000
# 5 0.0000 0.0000 0.0000 0.0000 35.2484 0.0000
# 6 0.0000 0.0000 0.0000 0.0000 0.0000 38.8296
#
#
#
# Elastic Compliance Matrix: (Units=1/GPa)
#
#
# Indices 1 2 3 4 5 6 
#
# 1 0.013153 -0.000408 -0.003264 0.000000 0.000000 0.000000
# 2 -0.000408 0.015820 0.001477 0.000000 0.000000 0.000000
# 3 -0.003264 0.001477 0.025591 0.000000 0.000000 0.000000
# 4 0.000000 0.000000 0.000000 0.053900 0.000000 0.000000
# 5 0.000000 0.000000 0.000000 0.000000 0.028370 0.000000
# 6 0.000000 0.000000 0.000000 0.000000 0.000000 0.025754
#
#
# Mechanical properties :
#
#
# Convention : Reuss Voigt Hill
#
# Bulk Modulus (GPa) = 19.93084 21.96599 20.94841
# Shear Modulus (GPa) = 27.21782 30.20136 28.70959
#
# Velocity S-wave (km/s) = 3.45806 3.64266 3.55156
# Velocity P-wave (km/s) = 4.96999 5.22903 5.10115
#
# Compressibility (1/GPa) = 0.05017351
#
# Stress axis : x y z
#
# Youngs Moduli (GPa) = 76.02704 63.21080 39.07637
#
# Poissons Ratio (x) = 0.02582 0.12756
# Poissons Ratio (y) = 0.03105 -0.05773
# Poissons Ratio (z) = 0.24817 -0.09338
#
# Static dielectric constant tensor:
#      x y z
#    x 1.821040 0.000000 0.000000 
#    y 0.000000 1.869910 0.000000 
#    z 0.000000 0.000000 1.876220 
# 
# From -- ./inp_files/26145.got.cif
#   From: 2010.05.17/outbox.cif.g08.bks.cpg/sg64_14_cif.got.tgz:26145.got - 2010.06.03 16:29:19.
