data_PCOD9479398
_publ_section_title
;
Structure prediction by ZEFSAII (Michael W. Deem and Ramdas Pophale) SiO2 
 PCOD9479398
Probable space group: C M C A
;
_chemical_formula_sum "Si O2"
_cell_formula_units_Z 64
_cell_length_a 19.671689
_cell_length_b 14.394225
_cell_length_c 11.104470
_cell_angle_alpha 90.000000
_cell_angle_beta 90.000000
_cell_angle_gamma 90.000000
_cell_volume 3144.327485
_symmetry_space_group_name_H-M "C M C A"
_symmetry_group_IT_number 64
_symmetry_cell_setting 'orthorhombic'
loop_
_space_group_symop_operation_xyz
x,y,z
-x,1/2-y,1/2+z
x,-y,-z
-x,1/2+y,1/2-z
-x,-y,-z
x,1/2+y,1/2-z
-x,y,z
x,1/2-y,1/2+z
1/2+x,1/2+y,z
1/2-x,-y,1/2+z
1/2+x,1/2-y,-z
1/2-x,y,1/2-z
1/2-x,1/2-y,-z
1/2+x,y,1/2-z
1/2-x,1/2+y,z
1/2+x,-y,1/2+z
loop_
_atom_site_type_symbol
_atom_site_label
_atom_site_fract_x
_atom_site_fract_y
_atom_site_fract_z
Si Si1 0.271340 0.148265 0.051076
Si Si2 0.576195 0.990810 0.357122
Si Si3 0.324305 0.132134 0.806023
Si Si4 0.855069 0.660910 0.291336
O O1 0.202791 0.117293 0.119358
O O2 0.325954 0.157149 0.156768
O O3 0.250000 0.250000 0.000000
O O4 0.303695 0.095030 0.937953
O O5 0.500000 0.952509 0.340796
O O6 0.631420 0.931621 0.282037
O O7 0.588868 0.000000 0.500000
O O8 0.581270 0.095329 0.306771
O O9 0.250000 0.152003 0.750000
O O10 0.362090 0.230803 0.821835
#
# Coordination Sequence:
#
# PCOD9479398 Si02
#       4
#    16  16  16  16
#     4   9  17  35  60 101 125 151 207 271 324 377
#     4  11  27  45  62  91 134 180 219 257 321 397
#     4  11  21  37  68  97 125 164 215 271 325 379
#     4  10  20  39  64  92 133 162 209 266 329 376
#
# _framework density 20.354113999999999
#
# number of rings (size 3 to 8) (size 9 to 14) (size 15 to 20)
#    0.000    1.750    5.000    1.500    7.000    2.000 
#    0.000    2.500    0.000    0.000    0.000    0.000 
#    0.000    0.000    0.000    0.000    0.000    0.000 
#
# Total GULP energy -178433.483466 kJ/mol
# GULP energy per Si atom -5576.046358 kJ/mol
# Density = 2.030779 g / cm^3
# Si number density = 20.354114 Si / 1000 Ang^3
#
#
#
# Elastic Constant Matrix: (Units=GPa)
#
#
# Indices 1 2 3 4 5 6 
#
# 1 67.0854 34.1919 45.3662 0.0000 0.0000 0.0000
# 2 34.1919 85.7781 20.9369 0.0000 0.0000 0.0000
# 3 45.3662 20.9369 134.8173 0.0000 0.0000 0.0000
# 4 0.0000 0.0000 0.0000 37.9630 0.0000 0.0000
# 5 0.0000 0.0000 0.0000 0.0000 17.0832 0.0000
# 6 0.0000 0.0000 0.0000 0.0000 0.0000 20.8025
#
#
#
# Elastic Compliance Matrix: (Units=1/GPa)
#
#
# Indices 1 2 3 4 5 6 
#
# 1 0.023316 -0.007670 -0.006655 0.000000 0.000000 0.000000
# 2 -0.007670 0.014640 0.000307 0.000000 0.000000 0.000000
# 3 -0.006655 0.000307 0.009609 0.000000 0.000000 0.000000
# 4 0.000000 0.000000 0.000000 0.026341 0.000000 0.000000
# 5 0.000000 0.000000 0.000000 0.000000 0.058537 0.000000
# 6 0.000000 0.000000 0.000000 0.000000 0.000000 0.048071
#
#
# Mechanical properties :
#
#
# Convention : Reuss Voigt Hill
#
# Bulk Modulus (GPa) = 51.20112 54.29676 52.74894
# Shear Modulus (GPa) = 23.24949 27.64880 25.44915
#
# Velocity S-wave (km/s) = 3.38339 3.68963 3.53982
# Velocity P-wave (km/s) = 6.36183 6.69964 6.53292
#
# Compressibility (1/GPa) = 0.01953082
#
# Stress axis : x y z
#
# Youngs Moduli (GPa) = 42.88986 68.30541 104.06873
#
# Poissons Ratio (x) = 0.52387 0.69254
# Poissons Ratio (y) = 0.32894 -0.03197
# Poissons Ratio (z) = 0.28542 -0.02098
#
# Static dielectric constant tensor:
#      x y z
#    x 1.702990 0.000000 0.000000 
#    y 0.000000 1.785770 0.000000 
#    z 0.000000 0.000000 1.759610 
# 
# From -- ./inp_files/15491.got.cif
#   From: 2010.05.17/outbox.cif.g08.bks.cpg/sg64_8_cif.got.tgz:15491.got - 2010.06.03 16:29:19.
