data_PCOD9479671
_publ_section_title
;
Structure prediction by ZEFSAII (Michael W. Deem and Ramdas Pophale) SiO2 
 PCOD9479671
Probable space group: C M C A
;
_chemical_formula_sum "Si O2"
_cell_formula_units_Z 80
_cell_length_a 8.414085
_cell_length_b 15.278324
_cell_length_c 30.933980
_cell_angle_alpha 90.000000
_cell_angle_beta 90.000000
_cell_angle_gamma 90.000000
_cell_volume 3976.659544
_symmetry_space_group_name_H-M "C M C A"
_symmetry_group_IT_number 64
_symmetry_cell_setting 'orthorhombic'
loop_
_space_group_symop_operation_xyz
x,y,z
-x,1/2-y,1/2+z
x,-y,-z
-x,1/2+y,1/2-z
-x,-y,-z
x,1/2+y,1/2-z
-x,y,z
x,1/2-y,1/2+z
1/2+x,1/2+y,z
1/2-x,-y,1/2+z
1/2+x,1/2-y,-z
1/2-x,y,1/2-z
1/2-x,1/2-y,-z
1/2+x,y,1/2-z
1/2-x,1/2+y,z
1/2+x,-y,1/2+z
loop_
_atom_site_type_symbol
_atom_site_label
_atom_site_fract_x
_atom_site_fract_y
_atom_site_fract_z
Si Si1 0.692227 0.712589 0.860451
Si Si2 0.820346 0.727414 0.546380
Si Si3 0.816964 0.957239 0.453195
Si Si4 0.689941 0.860857 0.701319
Si Si5 0.807908 0.508582 0.633813
O O1 0.500000 0.714559 0.862037
O O2 0.752430 0.751228 0.906805
O O3 0.750802 0.772594 0.821793
O O4 0.737794 0.610060 0.856715
O O5 0.750000 0.750000 0.500000
O O6 0.805985 0.622472 0.548385
O O7 0.000000 0.759977 0.545825
O O8 0.771989 0.015817 0.412037
O O9 0.000000 0.926233 0.448299
O O10 0.804897 0.000000 0.500000
O O11 0.500000 0.860310 0.701730
O O12 0.750000 0.868192 0.750000
O O13 0.742151 0.942639 0.671472
O O14 0.000000 0.504961 0.629758
#
# Coordination Sequence:
#
# PCOD9479671 Si02
#       5
#    16  16  16  16  16
#     4   9  20  40  61  84 119 156 194 244 297 351
#     4  10  21  36  56  83 118 157 197 241 295 353
#     4  10  21  35  54  84 118 155 199 240 290 350
#     4  11  24  41  63  91 118 152 200 247 302 361
#     4   9  21  41  61  85 118 157 198 244 299 356
#
# _framework density 20.117386
#
# number of rings (size 3 to 8) (size 9 to 14) (size 15 to 20)
#    0.000    2.200    0.000    3.000    2.800    8.000 
#    0.000    2.000    0.000    0.000    0.000    0.000 
#    0.000    0.000    0.000    0.000    0.000    0.000 
#
# Total GULP energy -223104.454037 kJ/mol
# GULP energy per Si atom -5577.611351 kJ/mol
# Density = 2.007160 g / cm^3
# Si number density = 20.117386 Si / 1000 Ang^3
#
#
#
# Elastic Constant Matrix: (Units=GPa)
#
#
# Indices 1 2 3 4 5 6 
#
# 1 19.5946 12.0982 32.4189 0.0000 0.0000 0.0000
# 2 12.0982 69.0258 60.4578 0.0000 0.0000 0.0000
# 3 32.4189 60.4578 193.0688 0.0000 0.0000 0.0000
# 4 0.0000 0.0000 0.0000 36.5059 0.0000 0.0000
# 5 0.0000 0.0000 0.0000 0.0000 29.1779 0.0000
# 6 0.0000 0.0000 0.0000 0.0000 0.0000 19.4997
#
#
#
# Elastic Compliance Matrix: (Units=1/GPa)
#
#
# Indices 1 2 3 4 5 6 
#
# 1 0.071046 -0.002761 -0.011065 0.000000 0.000000 0.000000
# 2 -0.002761 0.020070 -0.005821 0.000000 0.000000 0.000000
# 3 -0.011065 -0.005821 0.008860 0.000000 0.000000 0.000000
# 4 0.000000 0.000000 0.000000 0.027393 0.000000 0.000000
# 5 0.000000 0.000000 0.000000 0.000000 0.034273 0.000000
# 6 0.000000 0.000000 0.000000 0.000000 0.000000 0.051283
#
#
# Mechanical properties :
#
#
# Convention : Reuss Voigt Hill
#
# Bulk Modulus (GPa) = 16.47927 54.62653 35.55290
# Shear Modulus (GPa) = 18.35230 28.81765 23.58497
#
# Velocity S-wave (km/s) = 3.02364 3.78891 3.42770
# Velocity P-wave (km/s) = 4.51655 6.80837 5.77725
#
# Compressibility (1/GPa) = 0.06068231
#
# Stress axis : x y z
#
# Youngs Moduli (GPa) = 14.07540 49.82620 112.86284
#
# Poissons Ratio (x) = 0.13755 1.24884
# Poissons Ratio (y) = 0.03886 0.65699
# Poissons Ratio (z) = 0.15575 0.29004
#
# Static dielectric constant tensor:
#      x y z
#    x 1.843140 0.000000 0.000000 
#    y 0.000000 1.710610 0.000000 
#    z 0.000000 0.000000 1.744810 
# 
# From -- ./inp_files/47887.got.cif
#   From: 2010.05.17/outbox.cif.g08.bks.cpg/sg64_24_cif.got.tgz:47887.got - 2010.06.03 16:29:19.
