data_PCOD9479176
_publ_section_title
;
Structure prediction by ZEFSAII (Michael W. Deem and Ramdas Pophale) SiO2 
 PCOD9479176
Probable space group: C M C A
;
_chemical_formula_sum "Si O2"
_cell_formula_units_Z 72
_cell_length_a 13.943791
_cell_length_b 17.597856
_cell_length_c 15.269264
_cell_angle_alpha 90.000000
_cell_angle_beta 90.000000
_cell_angle_gamma 90.000000
_cell_volume 3746.784614
_symmetry_space_group_name_H-M "C M C A"
_symmetry_group_IT_number 64
_symmetry_cell_setting 'orthorhombic'
loop_
_space_group_symop_operation_xyz
x,y,z
-x,1/2-y,1/2+z
x,-y,-z
-x,1/2+y,1/2-z
-x,-y,-z
x,1/2+y,1/2-z
-x,y,z
x,1/2-y,1/2+z
1/2+x,1/2+y,z
1/2-x,-y,1/2+z
1/2+x,1/2-y,-z
1/2-x,y,1/2-z
1/2-x,1/2-y,-z
1/2+x,y,1/2-z
1/2-x,1/2+y,z
1/2+x,-y,1/2+z
loop_
_atom_site_type_symbol
_atom_site_label
_atom_site_fract_x
_atom_site_fract_y
_atom_site_fract_z
Si Si1 0.172418 0.000000 0.000000
Si Si2 0.859179 0.081969 0.538231
Si Si3 0.136621 0.567531 0.760131
Si Si4 0.000000 0.848921 0.126281
Si Si5 0.000000 0.926509 0.746856
Si Si6 0.000000 0.917964 0.930419
Si Si7 0.500000 0.826205 0.924390
O O1 0.244541 0.932559 0.028105
O O2 0.097262 0.032071 0.070060
O O3 0.883257 0.093335 0.639806
O O4 0.907648 0.147924 0.481590
O O5 0.895278 0.000000 0.500000
O O6 0.250000 0.564031 0.750000
O O7 0.088167 0.620219 0.685831
O O8 0.089563 0.484220 0.755585
O O9 0.000000 0.759657 0.108450
O O10 0.000000 0.880668 0.026287
O O11 0.000000 0.876504 0.662019
O O12 0.000000 0.877969 0.836742
#
# Coordination Sequence:
#
# PCOD9479176 Si02
#       7
#     8  16  16   8   8   8   8
#     4   9  18  35  64  92 108 151 210 253 302 358
#     4  10  20  37  68  92 111 153 210 265 299 341
#     4  11  21  40  65  94 119 157 205 256 306 365
#     4  11  27  38  56  88 131 171 190 241 326 384
#     4  11  21  34  65  88 113 154 214 267 292 345
#     4  11  20  38  55  87 132 157 195 252 324 372
#     4  12  23  41  56  92 123 155 217 252 301 373
#
# _framework density 19.216477000000001
#
# number of rings (size 3 to 8) (size 9 to 14) (size 15 to 20)
#    0.667    0.667    2.222    7.000    0.000    1.778 
#    0.000    7.778    0.000    0.000    0.000    0.000 
#    0.000    0.000    0.000    0.000    0.000    0.000 
#
# Total GULP energy -200488.715794 kJ/mol
# GULP energy per Si atom -5569.130994 kJ/mol
# Density = 1.917274 g / cm^3
# Si number density = 19.216477 Si / 1000 Ang^3
#
#
#
# Elastic Constant Matrix: (Units=GPa)
#
#
# Indices 1 2 3 4 5 6 
#
# 1 162.8924 44.8402 52.8054 0.0000 0.0000 0.0000
# 2 44.8402 118.2996 69.0044 0.0000 0.0000 0.0000
# 3 52.8054 69.0044 213.5912 0.0000 0.0000 0.0000
# 4 0.0000 0.0000 0.0000 26.1691 0.0000 0.0000
# 5 0.0000 0.0000 0.0000 0.0000 6.0464 0.0000
# 6 0.0000 0.0000 0.0000 0.0000 0.0000 -241.9891
#
#
#
# Elastic Compliance Matrix: (Units=1/GPa)
#
#
# Indices 1 2 3 4 5 6 
#
# 1 0.007052 -0.002041 -0.001084 0.000000 0.000000 0.000000
# 2 -0.002041 0.011006 -0.003051 0.000000 0.000000 0.000000
# 3 -0.001084 -0.003051 0.005936 0.000000 0.000000 0.000000
# 4 0.000000 0.000000 0.000000 0.038213 0.000000 0.000000
# 5 0.000000 0.000000 0.000000 0.000000 0.165389 0.000000
# 6 0.000000 0.000000 0.000000 0.000000 0.000000 -0.004132
#
#
# Mechanical properties :
#
#
# Convention : Reuss Voigt Hill
#
# Bulk Modulus (GPa) = 85.89622 92.00925 88.95273
# Shear Modulus (GPa) = 20.85969 -20.07918 0.39025
#
# Velocity S-wave (km/s) = 3.29828 -3.23599 0.45114
# Velocity P-wave (km/s) = 7.70073 5.83285 6.83094
#
# Compressibility (1/GPa) = 0.01164196
#
# Stress axis : x y z
#
# Youngs Moduli (GPa) = 141.79891 90.85585 168.47276
#
# Poissons Ratio (x) = 0.18540 0.18266
# Poissons Ratio (y) = 0.28936 0.51407
# Poissons Ratio (z) = 0.15374 0.27723
#
# Static dielectric constant tensor:
#      x y z
#    x 1.713190 0.000000 0.000000 
#    y 0.000000 1.650830 0.000000 
#    z 0.000000 0.000000 1.714980 
# 
# From -- ./inp_files/23605.got.cif
#   From: 2010.05.17/outbox.cif.g08.bks.cpg/sg64_12_cif.got.tgz:23605.got - 2010.06.03 16:29:19.
