data_PCOD9479128
_publ_section_title
;
Structure prediction by ZEFSAII (Michael W. Deem and Ramdas Pophale) SiO2 
 PCOD9479128
Probable space group: C M C A
;
_chemical_formula_sum "Si O2"
_cell_formula_units_Z 88
_cell_length_a 19.076673
_cell_length_b 13.888450
_cell_length_c 17.446100
_cell_angle_alpha 90.000000
_cell_angle_beta 90.000000
_cell_angle_gamma 90.000000
_cell_volume 4622.264277
_symmetry_space_group_name_H-M "C M C A"
_symmetry_group_IT_number 64
_symmetry_cell_setting 'orthorhombic'
loop_
_space_group_symop_operation_xyz
x,y,z
-x,1/2-y,1/2+z
x,-y,-z
-x,1/2+y,1/2-z
-x,-y,-z
x,1/2+y,1/2-z
-x,y,z
x,1/2-y,1/2+z
1/2+x,1/2+y,z
1/2-x,-y,1/2+z
1/2+x,1/2-y,-z
1/2-x,y,1/2-z
1/2-x,1/2-y,-z
1/2+x,y,1/2-z
1/2-x,1/2+y,z
1/2+x,-y,1/2+z
loop_
_atom_site_type_symbol
_atom_site_label
_atom_site_fract_x
_atom_site_fract_y
_atom_site_fract_z
Si Si1 0.654912 0.859401 0.297334
Si Si2 0.500000 0.923056 0.285218
Si Si3 0.212562 0.052406 0.643928
Si Si4 0.000000 0.636492 0.258285
Si Si5 0.360503 0.651122 0.345146
Si Si6 0.887012 0.607577 0.983752
Si Si7 0.500000 0.178256 0.868923
O O1 0.572532 0.875502 0.312114
O O2 0.673494 0.749862 0.316747
O O3 0.705460 0.929553 0.345051
O O4 0.673364 0.884838 0.209507
O O5 0.500000 0.908850 0.192676
O O6 0.500000 0.035564 0.302649
O O7 0.188118 0.943295 0.659768
O O8 0.184812 0.085766 0.561576
O O9 0.930717 0.637888 0.205293
O O10 0.000000 0.726884 0.316114
O O11 0.379330 0.658193 0.434939
O O12 0.934490 0.666318 0.925034
O O13 0.917178 0.500000 0.000000
#
# Coordination Sequence:
#
# PCOD9479128 Si02
#       7
#    16   8  16   8  16  16   8
#     4  11  22  38  63  90 123 162 210 255 316 367
#     4  12  20  39  62  89 127 155 205 264 303 368
#     4  10  22  38  58  94 122 160 208 261 308 368
#     4  12  21  36  65  96 124 163 202 257 314 368
#     4  11  21  39  64  94 122 163 207 253 318 371
#     4  10  20  37  62  91 128 160 208 263 309 365
#     4  12  20  37  62  98 124 159 207 254 316 367
#
# _framework density 19.038288999999999
#
# number of rings (size 3 to 8) (size 9 to 14) (size 15 to 20)
#    0.000    1.091    5.455    1.909    0.000    3.636 
#    3.273    0.000    0.000    1.091    0.000    0.000 
#    0.000    0.000    0.000    0.000    0.000    0.000 
#
# Total GULP energy -245643.198471 kJ/mol
# GULP energy per Si atom -5582.799965 kJ/mol
# Density = 1.899496 g / cm^3
# Si number density = 19.038289 Si / 1000 Ang^3
#
#
#
# Elastic Constant Matrix: (Units=GPa)
#
#
# Indices 1 2 3 4 5 6 
#
# 1 109.6948 29.6883 24.7421 0.0000 0.0000 0.0000
# 2 29.6883 108.7595 45.0134 0.0000 0.0000 0.0000
# 3 24.7421 45.0134 89.5900 0.0000 0.0000 0.0000
# 4 0.0000 0.0000 0.0000 33.1019 0.0000 0.0000
# 5 0.0000 0.0000 0.0000 0.0000 10.6744 0.0000
# 6 0.0000 0.0000 0.0000 0.0000 0.0000 58.9961
#
#
#
# Elastic Compliance Matrix: (Units=1/GPa)
#
#
# Indices 1 2 3 4 5 6 
#
# 1 0.010060 -0.002015 -0.001766 0.000000 0.000000 0.000000
# 2 -0.002015 0.012012 -0.005479 0.000000 0.000000 0.000000
# 3 -0.001766 -0.005479 0.014402 0.000000 0.000000 0.000000
# 4 0.000000 0.000000 0.000000 0.030210 0.000000 0.000000
# 5 0.000000 0.000000 0.000000 0.000000 0.093682 0.000000
# 6 0.000000 0.000000 0.000000 0.000000 0.000000 0.016950
#
#
# Mechanical properties :
#
#
# Convention : Reuss Voigt Hill
#
# Bulk Modulus (GPa) = 55.69514 56.32576 56.01045
# Shear Modulus (GPa) = 24.77440 34.46118 29.61779
#
# Velocity S-wave (km/s) = 3.61126 4.25914 3.94851
# Velocity P-wave (km/s) = 6.83418 7.33736 7.09023
#
# Compressibility (1/GPa) = 0.01795489
#
# Stress axis : x y z
#
# Youngs Moduli (GPa) = 99.40473 83.24797 69.43298
#
# Poissons Ratio (x) = 0.16777 0.12260
# Poissons Ratio (y) = 0.20033 0.38041
# Poissons Ratio (z) = 0.17552 0.45610
#
# Static dielectric constant tensor:
#      x y z
#    x 1.711660 0.000000 0.000000 
#    y 0.000000 1.674410 0.000000 
#    z 0.000000 0.000000 1.648760 
# 
# From -- ./inp_files/34285.got.cif
#   From: 2010.05.17/outbox.cif.g08.bks.cpg/sg64_18_cif.got.tgz:34285.got - 2010.06.03 16:29:19.
