data_PCOD9479693
_publ_section_title
;
Structure prediction by ZEFSAII (Michael W. Deem and Ramdas Pophale) SiO2 
 PCOD9479693
Probable space group: C M C A
;
_chemical_formula_sum "Si O2"
_cell_formula_units_Z 104
_cell_length_a 9.637714
_cell_length_b 27.194310
_cell_length_c 20.804746
_cell_angle_alpha 90.000000
_cell_angle_beta 90.000000
_cell_angle_gamma 90.000000
_cell_volume 5452.736314
_symmetry_space_group_name_H-M "C M C A"
_symmetry_group_IT_number 64
_symmetry_cell_setting 'orthorhombic'
loop_
_space_group_symop_operation_xyz
x,y,z
-x,1/2-y,1/2+z
x,-y,-z
-x,1/2+y,1/2-z
-x,-y,-z
x,1/2+y,1/2-z
-x,y,z
x,1/2-y,1/2+z
1/2+x,1/2+y,z
1/2-x,-y,1/2+z
1/2+x,1/2-y,-z
1/2-x,y,1/2-z
1/2-x,1/2-y,-z
1/2+x,y,1/2-z
1/2-x,1/2+y,z
1/2+x,-y,1/2+z
loop_
_atom_site_type_symbol
_atom_site_label
_atom_site_fract_x
_atom_site_fract_y
_atom_site_fract_z
Si Si1 0.664294 0.861252 0.940509
Si Si2 0.500000 0.230758 0.239207
Si Si3 0.336724 0.368104 0.186779
Si Si4 0.263176 0.220330 0.348507
Si Si5 0.660421 0.314675 0.420560
Si Si6 0.165276 0.039373 0.056104
Si Si7 0.339198 0.986302 0.310726
O O1 0.500000 0.868715 0.928596
O O2 0.731472 0.831960 0.881232
O O3 0.743329 0.912265 0.951457
O O4 0.677735 0.829303 0.005546
O O5 0.380226 0.220341 0.294395
O O6 0.378020 0.238312 0.184696
O O7 0.500000 0.355493 0.193757
O O8 0.250000 0.352194 0.250000
O O9 0.264205 0.345176 0.124809
O O10 0.325450 0.427324 0.181707
O O11 0.309695 0.258326 0.403711
O O12 0.500000 0.325912 0.402253
O O13 0.000000 0.051037 0.054931
O O14 0.198816 0.013523 0.123829
O O15 0.191118 0.000000 0.000000
O O16 0.500000 0.996470 0.297502
O O17 0.250000 0.002187 0.250000
#
# Coordination Sequence:
#
# PCOD9479693 Si02
#       7
#    16   8  16  16  16  16  16
#     4  11  25  44  62  94 126 165 207 256 313 372
#     4  10  24  42  70  88 124 164 216 250 312 360
#     4  10  21  35  59  89 124 162 206 257 315 372
#     4  11  23  45  63  94 125 168 205 260 302 371
#     4  11  24  39  62  90 127 164 208 255 308 366
#     4  10  22  42  67  90 122 161 212 260 313 373
#     4   9  19  38  58  87 119 155 201 256 311 370
#
# _framework density 19.072991999999999
#
# number of rings (size 3 to 8) (size 9 to 14) (size 15 to 20)
#    0.000    1.692    1.538    1.846    4.308    3.385 
#    2.769    0.000    0.000    0.000    0.000    0.000 
#    0.000    0.000    0.000    0.000    0.000    0.000 
#
# Total GULP energy -289471.037684 kJ/mol
# GULP energy per Si atom -5566.750725 kJ/mol
# Density = 1.902958 g / cm^3
# Si number density = 19.072992 Si / 1000 Ang^3
#
#
#
# Elastic Constant Matrix: (Units=GPa)
#
#
# Indices 1 2 3 4 5 6 
#
# 1 121.6671 30.6558 39.2120 0.0000 0.0000 0.0000
# 2 30.6558 60.8443 26.4164 0.0000 0.0000 0.0000
# 3 39.2120 26.4164 73.8551 0.0000 0.0000 0.0000
# 4 0.0000 0.0000 0.0000 16.8080 0.0000 0.0000
# 5 0.0000 0.0000 0.0000 0.0000 42.6840 0.0000
# 6 0.0000 0.0000 0.0000 0.0000 0.0000 -4.3719
#
#
#
# Elastic Compliance Matrix: (Units=1/GPa)
#
#
# Indices 1 2 3 4 5 6 
#
# 1 0.010475 -0.003389 -0.004349 0.000000 0.000000 0.000000
# 2 -0.003389 0.020554 -0.005552 0.000000 0.000000 0.000000
# 3 -0.004349 -0.005552 0.017835 0.000000 0.000000 0.000000
# 4 0.000000 0.000000 0.000000 0.059496 0.000000 0.000000
# 5 0.000000 0.000000 0.000000 0.000000 0.023428 0.000000
# 6 0.000000 0.000000 0.000000 0.000000 0.000000 -0.228732
#
#
# Mechanical properties :
#
#
# Convention : Reuss Voigt Hill
#
# Bulk Modulus (GPa) = 44.87873 49.88166 47.38019
# Shear Modulus (GPa) = -79.44491 21.69616 -28.87437
#
# Velocity S-wave (km/s) = -6.46092 3.37639 -3.89509
# Velocity P-wave (km/s) = 5.66365 6.43505 2.16020
#
# Compressibility (1/GPa) = 0.02228227
#
# Stress axis : x y z
#
# Youngs Moduli (GPa) = 95.46697 48.65323 56.06967
#
# Poissons Ratio (x) = 0.16491 0.24385
# Poissons Ratio (y) = 0.32358 0.31130
# Poissons Ratio (z) = 0.41519 0.27013
#
# Static dielectric constant tensor:
#      x y z
#    x 1.640900 0.000000 0.000000 
#    y 0.000000 1.679780 0.000000 
#    z 0.000000 0.000000 1.634010 
# 
# From -- ./inp_files/37218.got.cif
#   From: 2010.05.17/outbox.cif.g08.bks.cpg/sg64_19_cif.got.tgz:37218.got - 2010.06.03 16:29:19.
