data_PCOD9479875
_publ_section_title
;
Structure prediction by ZEFSAII (Michael W. Deem and Ramdas Pophale) SiO2 
 PCOD9479875
Probable space group: C M C A
;
_chemical_formula_sum "Si O2"
_cell_formula_units_Z 80
_cell_length_a 8.934146
_cell_length_b 15.900202
_cell_length_c 29.329265
_cell_angle_alpha 90.000000
_cell_angle_beta 90.000000
_cell_angle_gamma 90.000000
_cell_volume 4166.360706
_symmetry_space_group_name_H-M "C M C A"
_symmetry_group_IT_number 64
_symmetry_cell_setting 'orthorhombic'
loop_
_space_group_symop_operation_xyz
x,y,z
-x,1/2-y,1/2+z
x,-y,-z
-x,1/2+y,1/2-z
-x,-y,-z
x,1/2+y,1/2-z
-x,y,z
x,1/2-y,1/2+z
1/2+x,1/2+y,z
1/2-x,-y,1/2+z
1/2+x,1/2-y,-z
1/2-x,y,1/2-z
1/2-x,1/2-y,-z
1/2+x,y,1/2-z
1/2-x,1/2+y,z
1/2+x,-y,1/2+z
loop_
_atom_site_type_symbol
_atom_site_label
_atom_site_fract_x
_atom_site_fract_y
_atom_site_fract_z
Si Si1 0.321268 0.963387 0.857897
Si Si2 0.175921 0.726983 0.548001
Si Si3 0.823902 0.526321 0.550854
Si Si4 0.320675 0.210659 0.359853
Si Si5 0.319631 0.627488 0.700110
O O1 0.500000 0.955378 0.856344
O O2 0.245326 0.877035 0.842350
O O3 0.268586 0.982529 0.909372
O O4 0.275535 0.043443 0.827370
O O5 0.250000 0.750000 0.500000
O O6 0.190303 0.626723 0.555130
O O7 0.256892 0.772897 0.589671
O O8 0.000000 0.748189 0.547463
O O9 0.776815 0.500000 0.500000
O O10 0.000000 0.503719 0.555841
O O11 0.500000 0.206757 0.361612
O O12 0.275785 0.289796 0.328543
O O13 0.500000 0.627557 0.703415
O O14 0.250000 0.628555 0.750000
#
# Coordination Sequence:
#
# PCOD9479875 Si02
#       5
#    16  16  16  16  16
#     4  11  23  41  64  94 126 163 211 261 316 376
#     4  11  22  36  59  91 128 170 212 258 312 373
#     4  10  21  37  58  88 125 166 209 255 309 371
#     4  11  23  42  64  91 128 168 210 261 316 375
#     4  10  24  44  67  93 126 165 210 264 321 379
#
# _framework density 19.201409999999999
#
# number of rings (size 3 to 8) (size 9 to 14) (size 15 to 20)
#    0.000    1.400    2.000    3.000    0.000    6.800 
#    0.000    4.000    0.000    0.000    0.000    0.000 
#    0.000    0.000    0.000    0.000    0.000    0.000 
#
# Total GULP energy -223699.901372 kJ/mol
# GULP energy per Si atom -5592.497534 kJ/mol
# Density = 1.915771 g / cm^3
# Si number density = 19.201410 Si / 1000 Ang^3
#
#
#
# Elastic Constant Matrix: (Units=GPa)
#
#
# Indices 1 2 3 4 5 6 
#
# 1 64.6166 63.1800 43.4084 0.0000 0.0000 0.0000
# 2 63.1800 160.4386 78.9317 0.0000 0.0000 0.0000
# 3 43.4084 78.9317 132.6418 0.0000 0.0000 0.0000
# 4 0.0000 0.0000 0.0000 25.5116 0.0000 0.0000
# 5 0.0000 0.0000 0.0000 0.0000 38.7173 0.0000
# 6 0.0000 0.0000 0.0000 0.0000 0.0000 31.5513
#
#
#
# Elastic Compliance Matrix: (Units=1/GPa)
#
#
# Indices 1 2 3 4 5 6 
#
# 1 0.026235 -0.008635 -0.003447 0.000000 0.000000 0.000000
# 2 -0.008635 0.011655 -0.004110 0.000000 0.000000 0.000000
# 3 -0.003447 -0.004110 0.011113 0.000000 0.000000 0.000000
# 4 0.000000 0.000000 0.000000 0.039198 0.000000 0.000000
# 5 0.000000 0.000000 0.000000 0.000000 0.025828 0.000000
# 6 0.000000 0.000000 0.000000 0.000000 0.000000 0.031694
#
#
# Mechanical properties :
#
#
# Convention : Reuss Voigt Hill
#
# Bulk Modulus (GPa) = 60.17273 80.97081 70.57177
# Shear Modulus (GPa) = 27.22606 30.63450 28.93028
#
# Velocity S-wave (km/s) = 3.76961 3.99862 3.88580
# Velocity P-wave (km/s) = 7.09594 7.97366 7.54757
#
# Compressibility (1/GPa) = 0.01661882
#
# Stress axis : x y z
#
# Youngs Moduli (GPa) = 38.11713 85.79700 89.98637
#
# Poissons Ratio (x) = 0.74089 0.31018
# Poissons Ratio (y) = 0.32916 0.36983
# Poissons Ratio (z) = 0.13139 0.35261
#
# Static dielectric constant tensor:
#      x y z
#    x 1.643850 0.000000 0.000000 
#    y 0.000000 1.681380 0.000000 
#    z 0.000000 0.000000 1.624160 
# 
# From -- ./inp_files/47838.got.cif
#   From: 2010.05.17/outbox.cif.g08.bks.cpg/sg64_24_cif.got.tgz:47838.got - 2010.06.03 16:29:19.
