data_PCOD9479143
_publ_section_title
;
Structure prediction by ZEFSAII (Michael W. Deem and Ramdas Pophale) SiO2 
 PCOD9479143
Probable space group: C M C A
;
_chemical_formula_sum "Si O2"
_cell_formula_units_Z 80
_cell_length_a 14.812718
_cell_length_b 16.531368
_cell_length_c 14.689626
_cell_angle_alpha 90.000000
_cell_angle_beta 90.000000
_cell_angle_gamma 90.000000
_cell_volume 3597.114709
_symmetry_space_group_name_H-M "C M C A"
_symmetry_group_IT_number 64
_symmetry_cell_setting 'orthorhombic'
loop_
_space_group_symop_operation_xyz
x,y,z
-x,1/2-y,1/2+z
x,-y,-z
-x,1/2+y,1/2-z
-x,-y,-z
x,1/2+y,1/2-z
-x,y,z
x,1/2-y,1/2+z
1/2+x,1/2+y,z
1/2-x,-y,1/2+z
1/2+x,1/2-y,-z
1/2-x,y,1/2-z
1/2-x,1/2-y,-z
1/2+x,y,1/2-z
1/2-x,1/2+y,z
1/2+x,-y,1/2+z
loop_
_atom_site_type_symbol
_atom_site_label
_atom_site_fract_x
_atom_site_fract_y
_atom_site_fract_z
Si Si1 0.331254 0.563310 0.813033
Si Si2 0.102236 0.898896 0.816009
Si Si3 0.896909 0.268580 0.238252
Si Si4 0.788238 0.626826 0.496365
Si Si5 0.893847 0.790629 0.480906
O O1 0.250000 0.535920 0.750000
O O2 0.401716 0.492749 0.789507
O O3 0.349615 0.655674 0.783985
O O4 0.310052 0.568547 0.919821
O O5 0.131116 0.825500 0.748794
O O6 0.171188 0.896897 0.899581
O O7 0.000000 0.875504 0.845707
O O8 0.891000 0.283419 0.129319
O O9 0.000000 0.274041 0.268678
O O10 0.845852 0.709124 0.517328
O O11 0.680692 0.642250 0.493158
O O12 0.000000 0.799862 0.506873
#
# Coordination Sequence:
#
# PCOD9479143 Si02
#       5
#    16  16  16  16  16
#     4  12  23  37  61  96 129 171 209 262 324 383
#     4  10  23  42  65  95 130 168 219 272 314 376
#     4   9  19  38  62  88 125 166 208 262 322 378
#     4  10  20  37  63  92 126 166 217 265 318 377
#     4   9  18  36  61  91 124 166 212 258 316 386
#
# _framework density 22.240046
#
# number of rings (size 3 to 8) (size 9 to 14) (size 15 to 20)
#    0.000    2.000    2.000    3.000    0.000    4.800 
#    0.000    0.000    0.000    3.600    0.000    0.000 
#    0.000    0.000    0.000    0.000    0.000    0.000 
#
# Total GULP energy -222879.998572 kJ/mol
# GULP energy per Si atom -5571.999964 kJ/mol
# Density = 2.218943 g / cm^3
# Si number density = 22.240046 Si / 1000 Ang^3
#
#
#
# Elastic Constant Matrix: (Units=GPa)
#
#
# Indices 1 2 3 4 5 6 
#
# 1 143.2894 41.5989 15.7036 0.0000 0.0000 0.0000
# 2 41.5989 128.3798 16.0363 0.0000 0.0000 0.0000
# 3 15.7036 16.0363 33.5054 0.0000 0.0000 0.0000
# 4 0.0000 0.0000 0.0000 2.3448 0.0000 0.0000
# 5 0.0000 0.0000 0.0000 0.0000 14.3690 0.0000
# 6 0.0000 0.0000 0.0000 0.0000 0.0000 46.4740
#
#
#
# Elastic Compliance Matrix: (Units=1/GPa)
#
#
# Indices 1 2 3 4 5 6 
#
# 1 0.007917 -0.002236 -0.002641 0.000000 0.000000 0.000000
# 2 -0.002236 0.008916 -0.003220 0.000000 0.000000 0.000000
# 3 -0.002641 -0.003220 0.032625 0.000000 0.000000 0.000000
# 4 0.000000 0.000000 0.000000 0.426478 0.000000 0.000000
# 5 0.000000 0.000000 0.000000 0.000000 0.069594 0.000000
# 6 0.000000 0.000000 0.000000 0.000000 0.000000 0.021517
#
#
# Mechanical properties :
#
#
# Convention : Reuss Voigt Hill
#
# Bulk Modulus (GPa) = 30.06066 50.20579 40.13322
# Shear Modulus (GPa) = 8.41286 28.09327 18.25307
#
# Velocity S-wave (km/s) = 1.94704 3.55799 2.86795
# Velocity P-wave (km/s) = 4.31282 6.28510 5.38994
#
# Compressibility (1/GPa) = 0.03326607
#
# Stress axis : x y z
#
# Youngs Moduli (GPa) = 126.30545 112.15856 30.65169
#
# Poissons Ratio (x) = 0.25074 0.08094
# Poissons Ratio (y) = 0.28237 0.09869
# Poissons Ratio (z) = 0.33354 0.36110
#
# Static dielectric constant tensor:
#      x y z
#    x 1.760320 0.000000 0.000000 
#    y 0.000000 1.919470 0.000000 
#    z 0.000000 0.000000 1.826980 
# 
# From -- ./inp_files/32070.got.cif
#   From: 2010.05.17/outbox.cif.g08.bks.cpg/sg64_17_cif.got.tgz:32070.got - 2010.06.03 16:29:19.
