data_PCOD9479673
_publ_section_title
;
Structure prediction by ZEFSAII (Michael W. Deem and Ramdas Pophale) SiO2 
 PCOD9479673
Probable space group: C M C A
;
_chemical_formula_sum "Si O2"
_cell_formula_units_Z 88
_cell_length_a 18.014724
_cell_length_b 17.517757
_cell_length_c 10.056167
_cell_angle_alpha 90.000000
_cell_angle_beta 90.000000
_cell_angle_gamma 90.000000
_cell_volume 3173.500619
_symmetry_space_group_name_H-M "C M C A"
_symmetry_group_IT_number 64
_symmetry_cell_setting 'orthorhombic'
loop_
_space_group_symop_operation_xyz
x,y,z
-x,1/2-y,1/2+z
x,-y,-z
-x,1/2+y,1/2-z
-x,-y,-z
x,1/2+y,1/2-z
-x,y,z
x,1/2-y,1/2+z
1/2+x,1/2+y,z
1/2-x,-y,1/2+z
1/2+x,1/2-y,-z
1/2-x,y,1/2-z
1/2-x,1/2-y,-z
1/2+x,y,1/2-z
1/2-x,1/2+y,z
1/2+x,-y,1/2+z
loop_
_atom_site_type_symbol
_atom_site_label
_atom_site_fract_x
_atom_site_fract_y
_atom_site_fract_z
Si Si1 0.343411 0.595681 0.593740
Si Si2 0.700986 0.869386 0.516101
Si Si3 0.335433 0.262742 0.207376
Si Si4 0.500000 0.562274 0.196285
Si Si5 0.000000 0.722438 0.325899
Si Si6 0.000000 0.626020 0.006748
Si Si7 0.842572 0.993653 0.814352
O O1 0.289638 0.628809 0.482790
O O2 0.337703 0.659788 0.706147
O O3 0.425925 0.588041 0.546793
O O4 0.318676 0.518242 0.666853
O O5 0.669843 0.793501 0.446304
O O6 0.674433 0.905826 0.652191
O O7 0.680926 0.939841 0.416154
O O8 0.250000 0.233716 0.250000
O O9 0.419059 0.230630 0.245488
O O10 0.500000 0.638461 0.105283
O O11 0.500000 0.605626 0.338005
O O12 0.430691 0.508233 0.180730
O O13 0.000000 0.789053 0.439565
#
# Coordination Sequence:
#
# PCOD9479673 Si02
#       7
#    16  16  16   8   8   8  16
#     4   9  18  37  61  86 117 153 193 235 295 362
#     4   9  19  35  61  90 121 156 191 244 300 350
#     4   8  16  35  62  89 114 154 209 249 290 352
#     4  12  27  39  55  89 120 150 201 245 291 356
#     4  10  22  42  62  81 115 164 209 249 296 350
#     4  10  23  42  63  82 111 156 198 247 293 340
#     4  10  21  35  54  86 122 151 187 236 291 354
#
# _framework density 27.729631000000001
#
# number of rings (size 3 to 8) (size 9 to 14) (size 15 to 20)
#    0.000    2.545    0.000    2.182    0.000   11.636 
#    0.000    3.636    0.000    6.545    0.000    0.000 
#    0.000    0.000    0.000    0.000    0.000    0.000 
#
# Total GULP energy -245687.194944 kJ/mol
# GULP energy per Si atom -5583.799885 kJ/mol
# Density = 2.766652 g / cm^3
# Si number density = 27.729631 Si / 1000 Ang^3
#
#
#
# Elastic Constant Matrix: (Units=GPa)
#
#
# Indices 1 2 3 4 5 6 
#
# 1 192.4279 48.7748 32.0954 0.0000 0.0000 0.0000
# 2 48.7748 112.3318 27.3618 0.0000 0.0000 0.0000
# 3 32.0954 27.3618 51.7823 0.0000 0.0000 0.0000
# 4 0.0000 0.0000 0.0000 29.7047 0.0000 0.0000
# 5 0.0000 0.0000 0.0000 0.0000 15.0080 0.0000
# 6 0.0000 0.0000 0.0000 0.0000 0.0000 19.1564
#
#
#
# Elastic Compliance Matrix: (Units=1/GPa)
#
#
# Indices 1 2 3 4 5 6 
#
# 1 0.006166 -0.002004 -0.002762 0.000000 0.000000 0.000000
# 2 -0.002004 0.010869 -0.004501 0.000000 0.000000 0.000000
# 3 -0.002762 -0.004501 0.023402 0.000000 0.000000 0.000000
# 4 0.000000 0.000000 0.000000 0.033665 0.000000 0.000000
# 5 0.000000 0.000000 0.000000 0.000000 0.066631 0.000000
# 6 0.000000 0.000000 0.000000 0.000000 0.000000 0.052202
#
#
# Mechanical properties :
#
#
# Convention : Reuss Voigt Hill
#
# Bulk Modulus (GPa) = 45.65924 63.66731 54.66328
# Shear Modulus (GPa) = 22.85509 29.32780 26.09145
#
# Velocity S-wave (km/s) = 2.87402 3.25566 3.07077
# Velocity P-wave (km/s) = 5.24547 6.09445 5.68583
#
# Compressibility (1/GPa) = 0.02190137
#
# Stress axis : x y z
#
# Youngs Moduli (GPa) = 162.19256 92.00695 42.73129
#
# Poissons Ratio (x) = 0.18440 0.11804
# Poissons Ratio (y) = 0.32507 0.19233
# Poissons Ratio (z) = 0.44805 0.41411
#
# Static dielectric constant tensor:
#      x y z
#    x 2.165310 0.000000 0.000000 
#    y 0.000000 2.159660 0.000000 
#    z 0.000000 0.000000 2.293560 
# 
# From -- ./inp_files/16091.got.cif
#   From: 2010.05.17/outbox.cif.g08.bks.cpg/sg64_9_cif.got.tgz:16091.got - 2010.06.03 16:29:19.
