data_PCOD9479067
_publ_section_title
;
Structure prediction by ZEFSAII (Michael W. Deem and Ramdas Pophale) SiO2 
 PCOD9479067
Probable space group: C M C A
;
_chemical_formula_sum "Si O2"
_cell_formula_units_Z 68
_cell_length_a 20.652208
_cell_length_b 19.822529
_cell_length_c 8.909438
_cell_angle_alpha 90.000000
_cell_angle_beta 90.000000
_cell_angle_gamma 90.000000
_cell_volume 3647.336748
_symmetry_space_group_name_H-M "C M C A"
_symmetry_group_IT_number 64
_symmetry_cell_setting 'orthorhombic'
loop_
_space_group_symop_operation_xyz
x,y,z
-x,1/2-y,1/2+z
x,-y,-z
-x,1/2+y,1/2-z
-x,-y,-z
x,1/2+y,1/2-z
-x,y,z
x,1/2-y,1/2+z
1/2+x,1/2+y,z
1/2-x,-y,1/2+z
1/2+x,1/2-y,-z
1/2-x,y,1/2-z
1/2-x,1/2-y,-z
1/2+x,y,1/2-z
1/2-x,1/2+y,z
1/2+x,-y,1/2+z
loop_
_atom_site_type_symbol
_atom_site_label
_atom_site_fract_x
_atom_site_fract_y
_atom_site_fract_z
Si Si1 0.924143 0.302116 0.689292
Si Si2 0.000000 0.000000 0.500000
Si Si3 0.075310 0.661736 0.659736
Si Si4 0.677169 0.436295 0.295738
Si Si5 0.127186 0.076706 0.375974
O O1 0.908796 0.225574 0.735085
O O2 0.918777 0.314820 0.512104
O O3 0.882439 0.356099 0.780784
O O4 0.000000 0.311504 0.730435
O O5 0.942757 0.046762 0.422465
O O6 0.123753 0.601702 0.696645
O O7 0.000000 0.641597 0.688099
O O8 0.750000 0.420993 0.250000
O O9 0.663280 0.516341 0.289116
O O10 0.664404 0.413649 0.467237
#
# Coordination Sequence:
#
# PCOD9479067 Si02
#       5
#    16   4  16  16  16
#     4  10  20  37  59  93 118 149 198 250 300 350
#     4   8  16  32  56  86 104 140 190 230 284 332
#     4  10  22  37  61  87 120 155 195 250 297 351
#     4  10  23  40  57  87 120 158 198 238 297 356
#     4  10  21  36  64  83 118 157 194 244 295 347
#
# _framework density 18.643740000000001
#
# number of rings (size 3 to 8) (size 9 to 14) (size 15 to 20)
#    0.000    2.353    1.176    1.412    6.588    6.588 
#    0.000    8.235    0.000    0.000    0.000    0.000 
#    0.000    0.000    0.000    0.000    0.000    0.000 
#
# Total GULP energy -189292.629206 kJ/mol
# GULP energy per Si atom -5567.430271 kJ/mol
# Density = 1.860131 g / cm^3
# Si number density = 18.643740 Si / 1000 Ang^3
#
#
#
# Elastic Constant Matrix: (Units=GPa)
#
#
# Indices 1 2 3 4 5 6 
#
# 1 118.0196 40.8855 40.8588 0.0000 0.0000 0.0000
# 2 40.8855 30.1609 9.6491 0.0000 0.0000 0.0000
# 3 40.8588 9.6491 26.9170 0.0000 0.0000 0.0000
# 4 0.0000 0.0000 0.0000 35.1796 0.0000 0.0000
# 5 0.0000 0.0000 0.0000 0.0000 10.0462 0.0000
# 6 0.0000 0.0000 0.0000 0.0000 0.0000 11.8439
#
#
#
# Elastic Compliance Matrix: (Units=1/GPa)
#
#
# Indices 1 2 3 4 5 6 
#
# 1 0.033097 -0.032523 -0.038581 0.000000 0.000000 0.000000
# 2 -0.032523 0.069409 0.024487 0.000000 0.000000 0.000000
# 3 -0.038581 0.024487 0.086938 0.000000 0.000000 0.000000
# 4 0.000000 0.000000 0.000000 0.028426 0.000000 0.000000
# 5 0.000000 0.000000 0.000000 0.000000 0.099540 0.000000
# 6 0.000000 0.000000 0.000000 0.000000 0.000000 0.084432
#
#
# Mechanical properties :
#
#
# Convention : Reuss Voigt Hill
#
# Bulk Modulus (GPa) = 10.39401 39.76491 25.07946
# Shear Modulus (GPa) = 9.48507 16.99422 13.23965
#
# Velocity S-wave (km/s) = 2.25800 3.02242 2.66773
# Velocity P-wave (km/s) = 3.51927 5.79268 4.79273
#
# Compressibility (1/GPa) = 0.09620924
#
# Stress axis : x y z
#
# Youngs Moduli (GPa) = 30.21435 14.40742 11.50248
#
# Poissons Ratio (x) = 0.46857 0.44378
# Poissons Ratio (y) = 0.98265 -0.28166
# Poissons Ratio (z) = 1.16570 -0.35279
#
# Static dielectric constant tensor:
#      x y z
#    x 1.615420 0.000000 0.000000 
#    y 0.000000 1.641460 0.000000 
#    z 0.000000 0.000000 1.686010 
# 
# From -- ./inp_files/7869.got.cif
#   From: 2010.05.17/outbox.cif.g08.bks.cpg/sg64_4_cif.got.tgz:7869.got - 2010.06.03 16:29:19.
