data_PCOD9479224
_publ_section_title
;
Structure prediction by ZEFSAII (Michael W. Deem and Ramdas Pophale) SiO2 
 PCOD9479224
Probable space group: C M C A
;
_chemical_formula_sum "Si O2"
_cell_formula_units_Z 88
_cell_length_a 27.828176
_cell_length_b 7.938246
_cell_length_c 16.870392
_cell_angle_alpha 90.000000
_cell_angle_beta 90.000000
_cell_angle_gamma 90.000000
_cell_volume 3726.786114
_symmetry_space_group_name_H-M "C M C A"
_symmetry_group_IT_number 64
_symmetry_cell_setting 'orthorhombic'
loop_
_space_group_symop_operation_xyz
x,y,z
-x,1/2-y,1/2+z
x,-y,-z
-x,1/2+y,1/2-z
-x,-y,-z
x,1/2+y,1/2-z
-x,y,z
x,1/2-y,1/2+z
1/2+x,1/2+y,z
1/2-x,-y,1/2+z
1/2+x,1/2-y,-z
1/2-x,y,1/2-z
1/2-x,1/2-y,-z
1/2+x,y,1/2-z
1/2-x,1/2+y,z
1/2+x,-y,1/2+z
loop_
_atom_site_type_symbol
_atom_site_label
_atom_site_fract_x
_atom_site_fract_y
_atom_site_fract_z
Si Si1 0.171129 0.215061 0.278439
Si Si2 0.890792 0.076666 0.674002
Si Si3 0.211752 0.000000 0.500000
Si Si4 0.446663 0.853961 0.931912
Si Si5 0.135366 0.704404 0.472484
Si Si6 0.793642 0.019550 0.128645
O O1 0.122396 0.316153 0.251983
O O2 0.202121 0.341087 0.329250
O O3 0.198398 0.154140 0.199079
O O4 0.154602 0.050892 0.325873
O O5 0.889977 0.210167 0.603907
O O6 0.933912 0.952125 0.649859
O O7 0.178514 0.165023 0.507556
O O8 0.246918 0.024777 0.425209
O O9 0.500000 0.780034 0.928890
O O10 0.405240 0.723654 0.959586
O O11 0.446225 0.000000 0.000000
O O12 0.160901 0.545735 0.429734
#
# Coordination Sequence:
#
# PCOD9479224 Si02
#       6
#    16  16   8  16  16  16
#     4   9  20  40  57  85 122 169 197 248 304 368
#     4   9  17  35  59  80 117 156 200 242 303 361
#     4  12  22  36  61  94 117 162 210 258 294 362
#     4   9  17  33  62  89 114 152 196 250 313 364
#     4  10  20  38  60  86 123 153 203 256 303 361
#     4  10  23  38  63  87 123 166 206 247 306 361
#
# _framework density 23.612838
#
# number of rings (size 3 to 8) (size 9 to 14) (size 15 to 20)
#    0.000    2.364    2.727    0.545    2.545    1.455 
#    0.000   16.364    0.000    8.727    0.000    0.000 
#    0.000    0.000    0.000    0.000    0.000    0.000 
#
# Total GULP energy -245612.508094 kJ/mol
# GULP energy per Si atom -5582.102457 kJ/mol
# Density = 2.355909 g / cm^3
# Si number density = 23.612838 Si / 1000 Ang^3
#
#
#
# Elastic Constant Matrix: (Units=GPa)
#
#
# Indices 1 2 3 4 5 6 
#
# 1 132.1405 21.6994 20.4553 0.0000 0.0000 0.0000
# 2 21.6994 58.1325 16.7980 0.0000 0.0000 0.0000
# 3 20.4553 16.7980 62.9111 0.0000 0.0000 0.0000
# 4 0.0000 0.0000 0.0000 42.7893 0.0000 0.0000
# 5 0.0000 0.0000 0.0000 0.0000 20.7502 0.0000
# 6 0.0000 0.0000 0.0000 0.0000 0.0000 15.4240
#
#
#
# Elastic Compliance Matrix: (Units=1/GPa)
#
#
# Indices 1 2 3 4 5 6 
#
# 1 0.008294 -0.002510 -0.002026 0.000000 0.000000 0.000000
# 2 -0.002510 0.019400 -0.004364 0.000000 0.000000 0.000000
# 3 -0.002026 -0.004364 0.017720 0.000000 0.000000 0.000000
# 4 0.000000 0.000000 0.000000 0.023370 0.000000 0.000000
# 5 0.000000 0.000000 0.000000 0.000000 0.048192 0.000000
# 6 0.000000 0.000000 0.000000 0.000000 0.000000 0.064834
#
#
# Mechanical properties :
#
#
# Convention : Reuss Voigt Hill
#
# Bulk Modulus (GPa) = 36.21580 41.23216 38.72398
# Shear Modulus (GPa) = 23.94462 28.74144 26.34303
#
# Velocity S-wave (km/s) = 3.18787 3.49262 3.34372
# Velocity P-wave (km/s) = 5.37779 5.81069 5.59843
#
# Compressibility (1/GPa) = 0.02761226
#
# Stress axis : x y z
#
# Youngs Moduli (GPa) = 120.57486 51.54612 56.43495
#
# Poissons Ratio (x) = 0.12939 0.11436
# Poissons Ratio (y) = 0.30267 0.24627
# Poissons Ratio (z) = 0.24433 0.22494
#
# Static dielectric constant tensor:
#      x y z
#    x 1.892180 0.000000 0.000000 
#    y 0.000000 2.013770 0.000000 
#    z 0.000000 0.000000 2.015050 
# 
# From -- ./inp_files/35701.got.cif
#   From: 2010.05.17/outbox.cif.g08.bks.cpg/sg64_18_cif.got.tgz:35701.got - 2010.06.03 16:29:19.
