data_PCOD9479267
_publ_section_title
;
Structure prediction by ZEFSAII (Michael W. Deem and Ramdas Pophale) SiO2 
 PCOD9479267
Probable space group: C M C A
;
_chemical_formula_sum "Si O2"
_cell_formula_units_Z 48
_cell_length_a 11.547446
_cell_length_b 7.851749
_cell_length_c 16.869201
_cell_angle_alpha 90.000000
_cell_angle_beta 90.000000
_cell_angle_gamma 90.000000
_cell_volume 1529.490771
_symmetry_space_group_name_H-M "C M C A"
_symmetry_group_IT_number 64
_symmetry_cell_setting 'orthorhombic'
loop_
_space_group_symop_operation_xyz
x,y,z
-x,1/2-y,1/2+z
x,-y,-z
-x,1/2+y,1/2-z
-x,-y,-z
x,1/2+y,1/2-z
-x,y,z
x,1/2-y,1/2+z
1/2+x,1/2+y,z
1/2-x,-y,1/2+z
1/2+x,1/2-y,-z
1/2-x,y,1/2-z
1/2-x,1/2-y,-z
1/2+x,y,1/2-z
1/2-x,1/2+y,z
1/2+x,-y,1/2+z
loop_
_atom_site_type_symbol
_atom_site_label
_atom_site_fract_x
_atom_site_fract_y
_atom_site_fract_z
Si Si1 0.246102 0.107563 0.418136
Si Si2 0.000000 0.291987 0.214546
Si Si3 0.250000 0.591754 0.750000
Si Si4 0.000000 0.371370 0.573885
Si Si5 0.000000 0.094582 0.415660
O O1 0.368526 0.203867 0.427056
O O2 0.120019 0.195786 0.412907
O O3 0.243193 0.000000 0.500000
O O4 0.250568 0.005954 0.334824
O O5 0.872062 0.305571 0.251068
O O6 0.000000 0.106845 0.169714
O O7 0.000000 0.452075 0.152414
O O8 0.000000 0.500000 0.500000
O O9 0.000000 0.000000 0.500000
#
# Coordination Sequence:
#
# PCOD9479267 Si02
#       5
#    16   8   8   8   8
#     4   9  18  35  60  86 120 164 204 251 306 361
#     4  10  21  37  60  90 122 161 209 257 311 368
#     4  10  20  38  62  90 124 166 214 260 302 368
#     4  10  21  38  57  84 121 162 204 254 311 371
#     4   8  16  35  58  84 119 159 204 251 300 363
#
# _framework density 31.382995999999999
#
# number of rings (size 3 to 8) (size 9 to 14) (size 15 to 20)
#    0.000    2.667    0.000    1.000    0.000    1.333 
#    0.000   43.333    0.000   16.000    0.000    0.000 
#    0.000    0.000    0.000    0.000    0.000    0.000 
#
# Total GULP energy -133889.319377 kJ/mol
# GULP energy per Si atom -5578.721641 kJ/mol
# Density = 3.131157 g / cm^3
# Si number density = 31.382996 Si / 1000 Ang^3
#
#
#
# Elastic Constant Matrix: (Units=GPa)
#
#
# Indices 1 2 3 4 5 6 
#
# 1 470.5176 67.3932 40.6661 0.0000 0.0000 0.0000
# 2 67.3932 63.9782 84.6391 0.0000 0.0000 0.0000
# 3 40.6661 84.6391 307.6785 0.0000 0.0000 0.0000
# 4 0.0000 0.0000 0.0000 103.7752 0.0000 0.0000
# 5 0.0000 0.0000 0.0000 0.0000 49.8025 0.0000
# 6 0.0000 0.0000 0.0000 0.0000 0.0000 28.7803
#
#
#
# Elastic Compliance Matrix: (Units=1/GPa)
#
#
# Indices 1 2 3 4 5 6 
#
# 1 0.002581 -0.003564 0.000639 0.000000 0.000000 0.000000
# 2 -0.003564 0.029496 -0.007643 0.000000 0.000000 0.000000
# 3 0.000639 -0.007643 0.005268 0.000000 0.000000 0.000000
# 4 0.000000 0.000000 0.000000 0.009636 0.000000 0.000000
# 5 0.000000 0.000000 0.000000 0.000000 0.020079 0.000000
# 6 0.000000 0.000000 0.000000 0.000000 0.000000 0.034746
#
#
# Mechanical properties :
#
#
# Convention : Reuss Voigt Hill
#
# Bulk Modulus (GPa) = 61.69363 136.39679 99.04521
# Shear Modulus (GPa) = 38.95764 79.77000 59.36382
#
# Velocity S-wave (km/s) = 3.52712 5.04712 4.35396
# Velocity P-wave (km/s) = 6.02398 8.80460 7.54352
#
# Compressibility (1/GPa) = 0.01620913
#
# Stress axis : x y z
#
# Youngs Moduli (GPa) = 387.51237 33.90306 189.82101
#
# Poissons Ratio (x) = 0.12084 -0.12137
# Poissons Ratio (y) = 1.38117 1.45079
# Poissons Ratio (z) = -0.24777 0.25912
#
# Static dielectric constant tensor:
#      x y z
#    x 2.293290 0.000000 0.000000 
#    y 0.000000 2.508850 0.000000 
#    z 0.000000 0.000000 2.492180 
# 
# From -- ./inp_files/21689.got.cif
#   From: 2010.05.17/outbox.cif.g08.bks.cpg/sg64_11_cif.got.tgz:21689.got - 2010.06.03 16:29:19.
