data_PCOD9479406
_publ_section_title
;
Structure prediction by ZEFSAII (Michael W. Deem and Ramdas Pophale) SiO2 
 PCOD9479406
Probable space group: C M C A
;
_chemical_formula_sum "Si O2"
_cell_formula_units_Z 80
_cell_length_a 23.322993
_cell_length_b 11.492574
_cell_length_c 12.508693
_cell_angle_alpha 90.000000
_cell_angle_beta 90.000000
_cell_angle_gamma 90.000000
_cell_volume 3352.845369
_symmetry_space_group_name_H-M "C M C A"
_symmetry_group_IT_number 64
_symmetry_cell_setting 'orthorhombic'
loop_
_space_group_symop_operation_xyz
x,y,z
-x,1/2-y,1/2+z
x,-y,-z
-x,1/2+y,1/2-z
-x,-y,-z
x,1/2+y,1/2-z
-x,y,z
x,1/2-y,1/2+z
1/2+x,1/2+y,z
1/2-x,-y,1/2+z
1/2+x,1/2-y,-z
1/2-x,y,1/2-z
1/2-x,1/2-y,-z
1/2+x,y,1/2-z
1/2-x,1/2+y,z
1/2+x,-y,1/2+z
loop_
_atom_site_type_symbol
_atom_site_label
_atom_site_fract_x
_atom_site_fract_y
_atom_site_fract_z
Si Si1 0.844732 0.406678 0.596851
Si Si2 0.000000 0.189878 0.344263
Si Si3 0.000000 0.428822 0.203772
Si Si4 0.217830 0.545545 0.117787
Si Si5 0.121792 0.764745 0.578437
Si Si6 0.377029 0.427704 0.264746
O O1 0.847974 0.500000 0.500000
O O2 0.780713 0.406040 0.647203
O O3 0.863847 0.290992 0.536815
O O4 0.883653 0.455112 0.691947
O O5 0.000000 0.069956 0.275642
O O6 0.942545 0.188220 0.414906
O O7 0.000000 0.317753 0.286532
O O8 0.066103 0.415127 0.162909
O O9 0.170047 0.642909 0.105455
O O10 0.184395 0.442564 0.179123
O O11 0.229253 0.500000 0.000000
O O12 0.126189 0.671804 0.675393
#
# Coordination Sequence:
#
# PCOD9479406 Si02
#       6
#    16   8   8  16  16  16
#     4   9  20  38  60  89 120 159 210 262 313 389
#     4  10  20  39  65  93 134 171 218 273 326 388
#     4  10  20  39  65  91 127 164 213 271 318 388
#     4  11  22  38  60  90 128 163 212 269 328 389
#     4  10  21  39  62  90 129 166 216 267 328 388
#     4  10  21  39  63  87 122 168 214 264 323 390
#
# _framework density 23.860330000000001
#
# number of rings (size 3 to 8) (size 9 to 14) (size 15 to 20)
#    0.000    2.000    2.000    1.200    0.000    2.400 
#    0.000   12.000    0.000    0.000    0.000    0.000 
#    0.000    0.000    0.000    0.000    0.000    0.000 
#
# Total GULP energy -222868.548023 kJ/mol
# GULP energy per Si atom -5571.713701 kJ/mol
# Density = 2.380602 g / cm^3
# Si number density = 23.860330 Si / 1000 Ang^3
#
#
#
# Elastic Constant Matrix: (Units=GPa)
#
#
# Indices 1 2 3 4 5 6 
#
# 1 180.4490 37.5936 15.8050 0.0000 0.0000 0.0000
# 2 37.5936 91.1068 15.7949 0.0000 0.0000 0.0000
# 3 15.8050 15.7949 46.4330 0.0000 0.0000 0.0000
# 4 0.0000 0.0000 0.0000 25.3704 0.0000 0.0000
# 5 0.0000 0.0000 0.0000 0.0000 46.2417 0.0000
# 6 0.0000 0.0000 0.0000 0.0000 0.0000 37.3116
#
#
#
# Elastic Compliance Matrix: (Units=1/GPa)
#
#
# Indices 1 2 3 4 5 6 
#
# 1 0.006136 -0.002306 -0.001304 0.000000 0.000000 0.000000
# 2 -0.002306 0.012531 -0.003478 0.000000 0.000000 0.000000
# 3 -0.001304 -0.003478 0.023163 0.000000 0.000000 0.000000
# 4 0.000000 0.000000 0.000000 0.039416 0.000000 0.000000
# 5 0.000000 0.000000 0.000000 0.000000 0.021626 0.000000
# 6 0.000000 0.000000 0.000000 0.000000 0.000000 0.026801
#
#
# Mechanical properties :
#
#
# Convention : Reuss Voigt Hill
#
# Bulk Modulus (GPa) = 36.16034 50.70842 43.43438
# Shear Modulus (GPa) = 32.66548 38.37111 35.51830
#
# Velocity S-wave (km/s) = 3.70405 4.01453 3.86241
# Velocity P-wave (km/s) = 5.78630 6.54117 6.17528
#
# Compressibility (1/GPa) = 0.02765460
#
# Stress axis : x y z
#
# Youngs Moduli (GPa) = 162.96262 79.80516 43.17172
#
# Poissons Ratio (x) = 0.18403 0.05631
# Poissons Ratio (y) = 0.37578 0.15013
# Poissons Ratio (z) = 0.21255 0.27753
#
# Static dielectric constant tensor:
#      x y z
#    x 1.891260 0.000000 0.000000 
#    y 0.000000 1.971130 0.000000 
#    z 0.000000 0.000000 1.983010 
# 
# From -- ./inp_files/27110.got.cif
#   From: 2010.05.17/outbox.cif.g08.bks.cpg/sg64_14_cif.got.tgz:27110.got - 2010.06.03 16:29:19.
