data_PCOD9479788
_publ_section_title
;
Structure prediction by ZEFSAII (Michael W. Deem and Ramdas Pophale) SiO2 
 PCOD9479788
Probable space group: C M C A
;
_chemical_formula_sum "Si O2"
_cell_formula_units_Z 116
_cell_length_a 14.874659
_cell_length_b 23.362097
_cell_length_c 17.819809
_cell_angle_alpha 90.000000
_cell_angle_beta 90.000000
_cell_angle_gamma 90.000000
_cell_volume 6192.441121
_symmetry_space_group_name_H-M "C M C A"
_symmetry_group_IT_number 64
_symmetry_cell_setting 'orthorhombic'
loop_
_space_group_symop_operation_xyz
x,y,z
-x,1/2-y,1/2+z
x,-y,-z
-x,1/2+y,1/2-z
-x,-y,-z
x,1/2+y,1/2-z
-x,y,z
x,1/2-y,1/2+z
1/2+x,1/2+y,z
1/2-x,-y,1/2+z
1/2+x,1/2-y,-z
1/2-x,y,1/2-z
1/2-x,1/2-y,-z
1/2+x,y,1/2-z
1/2-x,1/2+y,z
1/2+x,-y,1/2+z
loop_
_atom_site_type_symbol
_atom_site_label
_atom_site_fract_x
_atom_site_fract_y
_atom_site_fract_z
Si Si1 0.851551 0.462963 0.881107
Si Si2 0.394027 0.843000 0.214421
Si Si3 0.676456 0.016077 0.576506
Si Si4 0.895801 0.716980 0.631919
Si Si5 0.000000 0.500000 0.000000
Si Si6 0.603352 0.527529 0.762168
Si Si7 0.763234 0.642849 0.926332
Si Si8 0.897155 0.842684 0.566001
O O1 0.754890 0.469105 0.918339
O O2 0.843946 0.491637 0.799849
O O3 0.882706 0.397537 0.881200
O O4 0.921776 0.496179 0.934263
O O5 0.500000 0.839234 0.192780
O O6 0.376691 0.797404 0.280668
O O7 0.378490 0.905247 0.251358
O O8 0.328157 0.841777 0.143800
O O9 0.620524 0.012624 0.652208
O O10 0.726511 0.077809 0.576871
O O11 0.626092 0.000000 0.500000
O O12 0.824662 0.682519 0.581745
O O13 0.889567 0.783452 0.610374
O O14 0.000000 0.698553 0.619040
O O15 0.500000 0.517272 0.743074
O O16 0.824363 0.652990 0.999658
O O17 0.000000 0.847843 0.535241
#
# Coordination Sequence:
#
# PCOD9479788 Si02
#       8
#    16  16  16  16   4  16  16  16
#     4  12  22  37  62  98 131 156 200 262 330 382
#     4  10  21  36  61  93 120 152 208 271 317 367
#     4  12  24  38  59  93 131 161 209 264 315 380
#     4  10  23  41  60  86 122 168 211 254 309 378
#     4  12  20  36  64 100 124 156 200 268 314 372
#     4  11  23  39  61  89 125 171 210 258 318 380
#     4  12  21  38  64  93 122 160 213 267 317 371
#     4  11  23  40  63  90 128 167 202 257 326 383
#
# _framework density 18.732514999999999
#
# number of rings (size 3 to 8) (size 9 to 14) (size 15 to 20)
#    0.000    0.828    6.207    1.655    0.000    0.276 
#    0.000    2.759    0.000    0.000    0.000    0.000 
#    0.000    0.000    0.000    0.000    0.000    0.000 
#
# Total GULP energy -323328.617011 kJ/mol
# GULP energy per Si atom -5574.631328 kJ/mol
# Density = 1.868988 g / cm^3
# Si number density = 18.732515 Si / 1000 Ang^3
#
#
#
# Elastic Constant Matrix: (Units=GPa)
#
#
# Indices 1 2 3 4 5 6 
#
# 1 42.0642 24.7704 18.8802 0.0000 0.0000 0.0000
# 2 24.7704 66.6658 28.7123 0.0000 0.0000 0.0000
# 3 18.8802 28.7123 114.0845 0.0000 0.0000 0.0000
# 4 0.0000 0.0000 0.0000 23.6156 0.0000 0.0000
# 5 0.0000 0.0000 0.0000 0.0000 30.0290 0.0000
# 6 0.0000 0.0000 0.0000 0.0000 0.0000 19.2143
#
#
#
# Elastic Compliance Matrix: (Units=1/GPa)
#
#
# Indices 1 2 3 4 5 6 
#
# 1 0.031058 -0.010460 -0.002507 0.000000 0.000000 0.000000
# 2 -0.010460 0.020347 -0.003390 0.000000 0.000000 0.000000
# 3 -0.002507 -0.003390 0.010033 0.000000 0.000000 0.000000
# 4 0.000000 0.000000 0.000000 0.042345 0.000000 0.000000
# 5 0.000000 0.000000 0.000000 0.000000 0.033301 0.000000
# 6 0.000000 0.000000 0.000000 0.000000 0.000000 0.052044
#
#
# Mechanical properties :
#
#
# Convention : Reuss Voigt Hill
#
# Bulk Modulus (GPa) = 34.81402 40.83780 37.82591
# Shear Modulus (GPa) = 21.60593 24.60190 23.10392
#
# Velocity S-wave (km/s) = 3.39985 3.62792 3.51573
# Velocity P-wave (km/s) = 5.83413 6.27669 6.05945
#
# Compressibility (1/GPa) = 0.02872406
#
# Stress axis : x y z
#
# Youngs Moduli (GPa) = 32.19757 49.14805 99.66628
#
# Poissons Ratio (x) = 0.51410 0.24990
# Poissons Ratio (y) = 0.33679 0.33784
# Poissons Ratio (z) = 0.08073 0.16660
#
# Static dielectric constant tensor:
#      x y z
#    x 1.664890 0.000000 0.000000 
#    y 0.000000 1.639300 0.000000 
#    z 0.000000 0.000000 1.671550 
# 
# From -- ./inp_files/32504.got.cif
#   From: 2010.05.17/outbox.cif.g08.bks.cpg/sg64_17_cif.got.tgz:32504.got - 2010.06.03 16:29:19.
