data_PCOD9479325
_publ_section_title
;
Structure prediction by ZEFSAII (Michael W. Deem and Ramdas Pophale) SiO2 
 PCOD9479325
Probable space group: C M C A
;
_chemical_formula_sum "Si O2"
_cell_formula_units_Z 96
_cell_length_a 13.667461
_cell_length_b 23.338927
_cell_length_c 14.199610
_cell_angle_alpha 90.000000
_cell_angle_beta 90.000000
_cell_angle_gamma 90.000000
_cell_volume 4529.446615
_symmetry_space_group_name_H-M "C M C A"
_symmetry_group_IT_number 64
_symmetry_cell_setting 'orthorhombic'
loop_
_space_group_symop_operation_xyz
x,y,z
-x,1/2-y,1/2+z
x,-y,-z
-x,1/2+y,1/2-z
-x,-y,-z
x,1/2+y,1/2-z
-x,y,z
x,1/2-y,1/2+z
1/2+x,1/2+y,z
1/2-x,-y,1/2+z
1/2+x,1/2-y,-z
1/2-x,y,1/2-z
1/2-x,1/2-y,-z
1/2+x,y,1/2-z
1/2-x,1/2+y,z
1/2+x,-y,1/2+z
loop_
_atom_site_type_symbol
_atom_site_label
_atom_site_fract_x
_atom_site_fract_y
_atom_site_fract_z
Si Si1 0.617502 0.144177 0.668756
Si Si2 0.886289 0.415682 0.012387
Si Si3 0.795603 0.975603 0.100339
Si Si4 0.884678 0.698143 0.866730
Si Si5 0.237906 0.596261 0.351097
Si Si6 0.618267 0.813006 0.532727
O O1 0.500000 0.139293 0.672448
O O2 0.657211 0.080494 0.646191
O O3 0.649247 0.172968 0.766685
O O4 0.643844 0.182817 0.577949
O O5 0.815389 0.456346 0.073947
O O6 0.877070 0.353159 0.058869
O O7 0.000000 0.432020 0.012706
O O8 0.838222 0.411067 0.909398
O O9 0.802399 0.032028 0.162948
O O10 0.836701 0.000000 0.000000
O O11 0.845817 0.756401 0.912930
O O12 0.000000 0.709717 0.852223
O O13 0.250000 0.624563 0.250000
O O14 0.166431 0.632635 0.416856
O O15 0.500000 0.816029 0.537904
#
# Coordination Sequence:
#
# PCOD9479325 Si02
#       6
#    16  16  16  16  16  16
#     4  10  20  38  65  97 131 170 214 267 328 383
#     4  10  22  43  64  90 130 173 217 270 323 383
#     4  10  21  40  62  93 129 167 216 270 321 386
#     4   9  21  39  65  98 128 170 222 258 314 399
#     4  11  25  41  59  95 131 165 220 262 323 395
#     4  10  21  42  64  91 133 166 204 269 328 381
#
# _framework density 21.194642000000002
#
# number of rings (size 3 to 8) (size 9 to 14) (size 15 to 20)
#    0.000    2.000    3.333    0.000    2.333    6.667 
#    3.000    3.333    0.000    0.000    0.000    0.000 
#    0.000    0.000    0.000    0.000    0.000    0.000 
#
# Total GULP energy -267927.336174 kJ/mol
# GULP energy per Si atom -5581.819504 kJ/mol
# Density = 2.114640 g / cm^3
# Si number density = 21.194642 Si / 1000 Ang^3
#
#
#
# Elastic Constant Matrix: (Units=GPa)
#
#
# Indices 1 2 3 4 5 6 
#
# 1 71.3927 25.0026 5.2271 0.0000 0.0000 0.0000
# 2 25.0026 150.6575 55.8088 0.0000 0.0000 0.0000
# 3 5.2271 55.8088 126.7662 0.0000 0.0000 0.0000
# 4 0.0000 0.0000 0.0000 30.0311 0.0000 0.0000
# 5 0.0000 0.0000 0.0000 0.0000 11.9015 0.0000
# 6 0.0000 0.0000 0.0000 0.0000 0.0000 27.1188
#
#
#
# Elastic Compliance Matrix: (Units=1/GPa)
#
#
# Indices 1 2 3 4 5 6 
#
# 1 0.014905 -0.002684 0.000567 0.000000 0.000000 0.000000
# 2 -0.002684 0.008414 -0.003594 0.000000 0.000000 0.000000
# 3 0.000567 -0.003594 0.009447 0.000000 0.000000 0.000000
# 4 0.000000 0.000000 0.000000 0.033299 0.000000 0.000000
# 5 0.000000 0.000000 0.000000 0.000000 0.084023 0.000000
# 6 0.000000 0.000000 0.000000 0.000000 0.000000 0.036875
#
#
# Mechanical properties :
#
#
# Convention : Reuss Voigt Hill
#
# Bulk Modulus (GPa) = 46.84739 57.87705 52.36222
# Shear Modulus (GPa) = 24.33091 31.32880 27.82985
#
# Velocity S-wave (km/s) = 3.39185 3.84884 3.62755
# Velocity P-wave (km/s) = 6.12299 6.86426 6.50419
#
# Compressibility (1/GPa) = 0.02134591
#
# Stress axis : x y z
#
# Youngs Moduli (GPa) = 67.08995 118.84732 105.85063
#
# Poissons Ratio (x) = 0.31894 -0.06000
# Poissons Ratio (y) = 0.18004 0.38039
# Poissons Ratio (z) = -0.03803 0.42710
#
# Static dielectric constant tensor:
#      x y z
#    x 1.783850 0.000000 0.000000 
#    y 0.000000 1.762520 0.000000 
#    z 0.000000 0.000000 1.791390 
# 
# From -- ./inp_files/23899.got.cif
#   From: 2010.05.17/outbox.cif.g08.bks.cpg/sg64_12_cif.got.tgz:23899.got - 2010.06.03 16:29:19.
