data_PCOD9479812
_publ_section_title
;
Structure prediction by ZEFSAII (Michael W. Deem and Ramdas Pophale) SiO2 
 PCOD9479812
Probable space group: C M C A
;
_chemical_formula_sum "Si O2"
_cell_formula_units_Z 88
_cell_length_a 23.612724
_cell_length_b 20.114813
_cell_length_c 9.614488
_cell_angle_alpha 90.000000
_cell_angle_beta 90.000000
_cell_angle_gamma 90.000000
_cell_volume 4566.550366
_symmetry_space_group_name_H-M "C M C A"
_symmetry_group_IT_number 64
_symmetry_cell_setting 'orthorhombic'
loop_
_space_group_symop_operation_xyz
x,y,z
-x,1/2-y,1/2+z
x,-y,-z
-x,1/2+y,1/2-z
-x,-y,-z
x,1/2+y,1/2-z
-x,y,z
x,1/2-y,1/2+z
1/2+x,1/2+y,z
1/2-x,-y,1/2+z
1/2+x,1/2-y,-z
1/2-x,y,1/2-z
1/2-x,1/2-y,-z
1/2+x,y,1/2-z
1/2-x,1/2+y,z
1/2+x,-y,1/2+z
loop_
_atom_site_type_symbol
_atom_site_label
_atom_site_fract_x
_atom_site_fract_y
_atom_site_fract_z
Si Si1 0.658996 0.892284 0.719077
Si Si2 0.134045 0.257094 0.274174
Si Si3 0.750000 0.835028 0.250000
Si Si4 0.065014 0.946950 0.615076
Si Si5 0.740288 0.077585 0.023777
Si Si6 0.065390 0.300830 0.022528
O O1 0.640523 0.816046 0.706090
O O2 0.606175 0.939718 0.753662
O O3 0.697534 0.914069 0.591006
O O4 0.697403 0.895839 0.858975
O O5 0.195697 0.289843 0.286211
O O6 0.094972 0.299717 0.171646
O O7 0.102196 0.244615 0.418898
O O8 0.735721 0.880886 0.117427
O O9 0.065988 0.874586 0.542473
O O10 0.000000 0.962808 0.652283
O O11 0.084417 0.000000 0.500000
O O12 0.729236 0.000000 0.000000
O O13 0.000000 0.278864 0.031141
#
# Coordination Sequence:
#
# PCOD9479812 Si02
#       6
#    16  16   8  16  16  16
#     4  10  21  37  55  79 111 143 180 224 272 322
#     4  11  22  36  57  82 111 146 180 225 274 323
#     4  12  22  36  56  82 112 142 184 226 274 332
#     4   9  18  34  58  84 110 144 185 226 268 321
#     4  11  23  37  56  80 109 144 180 224 273 325
#     4  10  21  37  57  82 111 145 184 224 269 321
#
# _framework density 19.270562999999999
#
# number of rings (size 3 to 8) (size 9 to 14) (size 15 to 20)
#    0.000    1.636    0.000    6.545    0.000    4.364 
#    0.000    0.000    0.000    0.545    0.000    0.000 
#    0.000    0.000    0.000    0.000    0.000    0.000 
#
# Total GULP energy -245837.410129 kJ/mol
# GULP energy per Si atom -5587.213867 kJ/mol
# Density = 1.922670 g / cm^3
# Si number density = 19.270563 Si / 1000 Ang^3
#
#
#
# Elastic Constant Matrix: (Units=GPa)
#
#
# Indices 1 2 3 4 5 6 
#
# 1 99.2381 27.6405 6.6159 0.0000 0.0000 0.0000
# 2 27.6405 38.7672 9.9590 0.0000 0.0000 0.0000
# 3 6.6159 9.9590 53.6579 0.0000 0.0000 0.0000
# 4 0.0000 0.0000 0.0000 21.2723 0.0000 0.0000
# 5 0.0000 0.0000 0.0000 0.0000 34.5450 0.0000
# 6 0.0000 0.0000 0.0000 0.0000 0.0000 9.1694
#
#
#
# Elastic Compliance Matrix: (Units=1/GPa)
#
#
# Indices 1 2 3 4 5 6 
#
# 1 0.012574 -0.008996 0.000119 0.000000 0.000000 0.000000
# 2 -0.008996 0.033522 -0.005113 0.000000 0.000000 0.000000
# 3 0.000119 -0.005113 0.019571 0.000000 0.000000 0.000000
# 4 0.000000 0.000000 0.000000 0.047009 0.000000 0.000000
# 5 0.000000 0.000000 0.000000 0.000000 0.028948 0.000000
# 6 0.000000 0.000000 0.000000 0.000000 0.000000 0.109058
#
#
# Mechanical properties :
#
#
# Convention : Reuss Voigt Hill
#
# Bulk Modulus (GPa) = 26.53301 31.12156 28.82728
# Shear Modulus (GPa) = 17.16887 22.82721 19.99804
#
# Velocity S-wave (km/s) = 2.98810 3.44548 3.22491
# Velocity P-wave (km/s) = 5.06986 5.65803 5.37200
#
# Compressibility (1/GPa) = 0.03768890
#
# Stress axis : x y z
#
# Youngs Moduli (GPa) = 79.52623 29.83072 51.09658
#
# Poissons Ratio (x) = 0.26836 -0.00609
# Poissons Ratio (y) = 0.71542 0.26124
# Poissons Ratio (z) = -0.00949 0.15251
#
# Static dielectric constant tensor:
#      x y z
#    x 1.705870 0.000000 0.000000 
#    y 0.000000 1.658210 0.000000 
#    z 0.000000 0.000000 1.644020 
# 
# From -- ./inp_files/9317.got.cif
#   From: 2010.05.17/outbox.cif.g08.bks.cpg/sg64_5_cif.got.tgz:9317.got - 2010.06.03 16:29:19.
