data_PCOD9479057
_publ_section_title
;
Structure prediction by ZEFSAII (Michael W. Deem and Ramdas Pophale) SiO2 
 PCOD9479057
Probable space group: C M C A
;
_chemical_formula_sum "Si O2"
_cell_formula_units_Z 112
_cell_length_a 14.308927
_cell_length_b 12.722530
_cell_length_c 32.616644
_cell_angle_alpha 90.000000
_cell_angle_beta 90.000000
_cell_angle_gamma 90.000000
_cell_volume 5937.721518
_symmetry_space_group_name_H-M "C M C A"
_symmetry_group_IT_number 64
_symmetry_cell_setting 'orthorhombic'
loop_
_space_group_symop_operation_xyz
x,y,z
-x,1/2-y,1/2+z
x,-y,-z
-x,1/2+y,1/2-z
-x,-y,-z
x,1/2+y,1/2-z
-x,y,z
x,1/2-y,1/2+z
1/2+x,1/2+y,z
1/2-x,-y,1/2+z
1/2+x,1/2-y,-z
1/2-x,y,1/2-z
1/2-x,1/2-y,-z
1/2+x,y,1/2-z
1/2-x,1/2+y,z
1/2+x,-y,1/2+z
loop_
_atom_site_type_symbol
_atom_site_label
_atom_site_fract_x
_atom_site_fract_y
_atom_site_fract_z
Si Si1 0.895064 0.846806 0.813003
Si Si2 0.893227 0.767561 0.906378
Si Si3 0.612442 0.260427 0.174453
Si Si4 0.390562 0.865286 0.239829
Si Si5 0.710575 0.463514 0.686177
Si Si6 0.766277 0.608138 0.611111
Si Si7 0.890297 0.520383 0.452329
O O1 0.886364 0.821770 0.861349
O O2 0.882442 0.738071 0.788887
O O3 0.813703 0.925421 0.801089
O O4 0.000000 0.886853 0.805019
O O5 0.817149 0.676912 0.907527
O O6 0.876784 0.858240 0.939607
O O7 0.000000 0.728658 0.910096
O O8 0.500000 0.261553 0.170237
O O9 0.638378 0.327150 0.215107
O O10 0.649691 0.142081 0.180465
O O11 0.665265 0.315260 0.136857
O O12 0.500000 0.893177 0.241391
O O13 0.335768 0.958364 0.218333
O O14 0.723002 0.525614 0.643473
O O15 0.825454 0.548725 0.576822
O O16 0.871616 0.500000 0.500000
O O17 0.000000 0.496446 0.444295
#
# Coordination Sequence:
#
# PCOD9479057 Si02
#       7
#    16  16  16  16  16  16  16
#     4  10  20  37  59  84 117 155 201 249 296 363
#     4  10  20  39  61  89 122 155 198 242 300 374
#     4  11  25  40  56  87 122 155 205 261 303 353
#     4  10  23  41  58  82 120 164 202 247 307 360
#     4  12  22  39  61  85 115 157 205 250 300 361
#     4  12  22  38  63  93 119 159 200 253 314 363
#     4  10  22  41  65  91 122 161 203 250 308 376
#
# _framework density 18.862454
#
# number of rings (size 3 to 8) (size 9 to 14) (size 15 to 20)
#    0.000    1.286    4.286    0.857    0.000    6.286 
#    0.000    2.857    0.000    2.143    0.000    0.000 
#    0.000    0.000    0.000    0.000    0.000    0.000 
#
# Total GULP energy -313446.696753 kJ/mol
# GULP energy per Si atom -5597.262442 kJ/mol
# Density = 1.881952 g / cm^3
# Si number density = 18.862454 Si / 1000 Ang^3
#
#
#
# Elastic Constant Matrix: (Units=GPa)
#
#
# Indices 1 2 3 4 5 6 
#
# 1 127.9980 91.6019 52.6191 0.0000 0.0000 0.0000
# 2 91.6019 125.4693 56.8625 0.0000 0.0000 0.0000
# 3 52.6191 56.8625 83.9310 0.0000 0.0000 0.0000
# 4 0.0000 0.0000 0.0000 19.5547 0.0000 0.0000
# 5 0.0000 0.0000 0.0000 0.0000 17.3540 0.0000
# 6 0.0000 0.0000 0.0000 0.0000 0.0000 39.8928
#
#
#
# Elastic Compliance Matrix: (Units=1/GPa)
#
#
# Indices 1 2 3 4 5 6 
#
# 1 0.016949 -0.010907 -0.003236 0.000000 0.000000 0.000000
# 2 -0.010907 0.018521 -0.005710 0.000000 0.000000 0.000000
# 3 -0.003236 -0.005710 0.017812 0.000000 0.000000 0.000000
# 4 0.000000 0.000000 0.000000 0.051139 0.000000 0.000000
# 5 0.000000 0.000000 0.000000 0.000000 0.057624 0.000000
# 6 0.000000 0.000000 0.000000 0.000000 0.000000 0.025067
#
#
# Mechanical properties :
#
#
# Convention : Reuss Voigt Hill
#
# Bulk Modulus (GPa) = 73.66387 82.17393 77.91890
# Shear Modulus (GPa) = 21.61309 24.44796 23.03053
#
# Velocity S-wave (km/s) = 3.38868 3.60407 3.49803
# Velocity P-wave (km/s) = 7.37894 7.80887 7.59695
#
# Compressibility (1/GPa) = 0.01357518
#
# Stress axis : x y z
#
# Youngs Moduli (GPa) = 59.00144 53.99370 56.14331
#
# Poissons Ratio (x) = 0.58892 0.18169
# Poissons Ratio (y) = 0.64354 0.32055
# Poissons Ratio (z) = 0.19094 0.30828
#
# Static dielectric constant tensor:
#      x y z
#    x 1.668820 0.000000 0.000000 
#    y 0.000000 1.645200 0.000000 
#    z 0.000000 0.000000 1.630250 
# 
# From -- ./inp_files/53255.got.cif
#   From: 2010.05.17/outbox.cif.g08.bks.cpg/sg64_27_cif.got.tgz:53255.got - 2010.06.03 16:29:19.
