data_PCOD9479033
_publ_section_title
;
Structure prediction by ZEFSAII (Michael W. Deem and Ramdas Pophale) SiO2 
 PCOD9479033
Probable space group: C M C A
;
_chemical_formula_sum "Si O2"
_cell_formula_units_Z 96
_cell_length_a 17.126829
_cell_length_b 11.472022
_cell_length_c 25.943485
_cell_angle_alpha 90.000000
_cell_angle_beta 90.000000
_cell_angle_gamma 90.000000
_cell_volume 5097.359305
_symmetry_space_group_name_H-M "C M C A"
_symmetry_group_IT_number 64
_symmetry_cell_setting 'orthorhombic'
loop_
_space_group_symop_operation_xyz
x,y,z
-x,1/2-y,1/2+z
x,-y,-z
-x,1/2+y,1/2-z
-x,-y,-z
x,1/2+y,1/2-z
-x,y,z
x,1/2-y,1/2+z
1/2+x,1/2+y,z
1/2-x,-y,1/2+z
1/2+x,1/2-y,-z
1/2-x,y,1/2-z
1/2-x,1/2-y,-z
1/2+x,y,1/2-z
1/2-x,1/2+y,z
1/2+x,-y,1/2+z
loop_
_atom_site_type_symbol
_atom_site_label
_atom_site_fract_x
_atom_site_fract_y
_atom_site_fract_z
Si Si1 0.342141 0.355978 0.377959
Si Si2 0.910138 0.782304 0.070978
Si Si3 0.412463 0.909215 0.853335
Si Si4 0.809561 0.520674 0.608337
Si Si5 0.248260 0.836353 0.811302
Si Si6 0.407166 0.165815 0.454021
O O1 0.397808 0.452952 0.353339
O O2 0.275390 0.431206 0.406910
O O3 0.295116 0.275243 0.336865
O O4 0.388905 0.273647 0.416524
O O5 0.906282 0.649247 0.089858
O O6 0.000000 0.818554 0.073623
O O7 0.862780 0.864912 0.109498
O O8 0.884592 0.802176 0.012399
O O9 0.500000 0.882124 0.834334
O O10 0.339341 0.851246 0.825207
O O11 0.794785 0.446559 0.660569
O O12 0.853091 0.437245 0.567820
O O13 0.250000 0.835295 0.750000
O O14 0.500000 0.137131 0.452451
#
# Coordination Sequence:
#
# PCOD9479033 Si02
#       6
#    16  16  16  16  16  16
#     4  10  21  38  58  86 117 152 194 243 292 344
#     4  10  20  37  59  85 123 161 193 235 288 349
#     4  10  21  40  60  85 120 154 194 240 290 350
#     4  10  20  37  57  88 113 149 194 242 291 339
#     4  10  22  42  65  82 113 151 196 248 303 353
#     4  10  21  37  58  85 119 162 198 232 285 347
#
# _framework density 18.833282000000001
#
# number of rings (size 3 to 8) (size 9 to 14) (size 15 to 20)
#    0.000    2.000    1.667    1.500    0.000    5.333 
#    6.000    7.500    0.000    0.000    0.000    0.000 
#    0.000    0.000    0.000    0.000    0.000    0.000 
#
# Total GULP energy -267375.694978 kJ/mol
# GULP energy per Si atom -5570.326979 kJ/mol
# Density = 1.879042 g / cm^3
# Si number density = 18.833282 Si / 1000 Ang^3
#
#
#
# Elastic Constant Matrix: (Units=GPa)
#
#
# Indices 1 2 3 4 5 6 
#
# 1 85.3428 24.6796 52.6335 0.0000 0.0000 0.0000
# 2 24.6796 78.7752 35.3605 0.0000 0.0000 0.0000
# 3 52.6335 35.3605 100.4966 0.0000 0.0000 0.0000
# 4 0.0000 0.0000 0.0000 2.7101 0.0000 0.0000
# 5 0.0000 0.0000 0.0000 0.0000 5.9827 0.0000
# 6 0.0000 0.0000 0.0000 0.0000 0.0000 27.9846
#
#
#
# Elastic Compliance Matrix: (Units=1/GPa)
#
#
# Indices 1 2 3 4 5 6 
#
# 1 0.017481 -0.001623 -0.008584 0.000000 0.000000 0.000000
# 2 -0.001623 0.015226 -0.004507 0.000000 0.000000 0.000000
# 3 -0.008584 -0.004507 0.016032 0.000000 0.000000 0.000000
# 4 0.000000 0.000000 0.000000 0.368984 0.000000 0.000000
# 5 0.000000 0.000000 0.000000 0.000000 0.167149 0.000000
# 6 0.000000 0.000000 0.000000 0.000000 0.000000 0.035734
#
#
# Mechanical properties :
#
#
# Convention : Reuss Voigt Hill
#
# Bulk Modulus (GPa) = 51.78696 54.44020 53.11358
# Shear Modulus (GPa) = 7.61646 17.46488 12.54067
#
# Velocity S-wave (km/s) = 2.01319 3.04853 2.58326
# Velocity P-wave (km/s) = 5.74118 6.43122 6.09597
#
# Compressibility (1/GPa) = 0.01930988
#
# Stress axis : x y z
#
# Youngs Moduli (GPa) = 57.20480 65.67656 62.37394
#
# Poissons Ratio (x) = 0.10662 0.53543
# Poissons Ratio (y) = 0.09287 0.28113
# Poissons Ratio (z) = 0.49106 0.29602
#
# Static dielectric constant tensor:
#      x y z
#    x 1.688210 0.000000 0.000000 
#    y 0.000000 1.701930 0.000000 
#    z 0.000000 0.000000 1.631260 
# 
# From -- ./inp_files/45714.got.cif
#   From: 2010.05.17/outbox.cif.g08.bks.cpg/sg64_23_cif.got.tgz:45714.got - 2010.06.03 16:29:19.
