data_PCOD9479449
_publ_section_title
;
Structure prediction by ZEFSAII (Michael W. Deem and Ramdas Pophale) SiO2 
 PCOD9479449
Probable space group: C M C A
;
_chemical_formula_sum "Si O2"
_cell_formula_units_Z 80
_cell_length_a 11.795554
_cell_length_b 13.872949
_cell_length_c 22.333716
_cell_angle_alpha 90.000000
_cell_angle_beta 90.000000
_cell_angle_gamma 90.000000
_cell_volume 3654.669612
_symmetry_space_group_name_H-M "C M C A"
_symmetry_group_IT_number 64
_symmetry_cell_setting 'orthorhombic'
loop_
_space_group_symop_operation_xyz
x,y,z
-x,1/2-y,1/2+z
x,-y,-z
-x,1/2+y,1/2-z
-x,-y,-z
x,1/2+y,1/2-z
-x,y,z
x,1/2-y,1/2+z
1/2+x,1/2+y,z
1/2-x,-y,1/2+z
1/2+x,1/2-y,-z
1/2-x,y,1/2-z
1/2-x,1/2-y,-z
1/2+x,y,1/2-z
1/2-x,1/2+y,z
1/2+x,-y,1/2+z
loop_
_atom_site_type_symbol
_atom_site_label
_atom_site_fract_x
_atom_site_fract_y
_atom_site_fract_z
Si Si1 0.875553 0.563318 0.222065
Si Si2 0.178802 0.119731 0.940772
Si Si3 0.700783 0.766971 0.847629
Si Si4 0.373288 0.119048 0.860075
Si Si5 0.127721 0.101193 0.079057
O O1 0.750000 0.548466 0.250000
O O2 0.871493 0.672707 0.198430
O O3 0.876385 0.486604 0.167949
O O4 0.000000 0.548445 0.253542
O O5 0.135802 0.206302 0.898793
O O6 0.313298 0.119779 0.925085
O O7 0.137885 0.014843 0.919206
O O8 0.150886 0.129664 0.009938
O O9 0.788104 0.686903 0.822568
O O10 0.782057 0.844979 0.880057
O O11 0.500000 0.156533 0.861578
O O12 0.000000 0.127611 0.095196
#
# Coordination Sequence:
#
# PCOD9479449 Si02
#       5
#    16  16  16  16  16
#     4  11  25  46  66  92 120 157 204 263 320 377
#     4   9  20  35  57  89 127 159 208 237 302 351
#     4  10  20  40  61  89 119 159 207 251 302 366
#     4   9  20  40  61  84 123 160 203 253 306 366
#     4  11  20  35  58  88 128 167 208 248 295 361
#
# _framework density 21.889803000000001
#
# number of rings (size 3 to 8) (size 9 to 14) (size 15 to 20)
#    1.200    0.800    2.000    2.400    0.000    4.000 
#    0.000    6.000    0.000    0.000    0.000    0.000 
#    0.000    0.000    0.000    0.000    0.000    0.000 
#
# Total GULP energy -222784.652940 kJ/mol
# GULP energy per Si atom -5569.616324 kJ/mol
# Density = 2.183998 g / cm^3
# Si number density = 21.889803 Si / 1000 Ang^3
#
#
#
# Elastic Constant Matrix: (Units=GPa)
#
#
# Indices 1 2 3 4 5 6 
#
# 1 144.8812 12.6272 21.2512 0.0000 0.0000 0.0000
# 2 12.6272 66.8611 -3.2136 0.0000 0.0000 0.0000
# 3 21.2512 -3.2136 15.8047 0.0000 0.0000 0.0000
# 4 0.0000 0.0000 0.0000 15.3782 0.0000 0.0000
# 5 0.0000 0.0000 0.0000 0.0000 22.4091 0.0000
# 6 0.0000 0.0000 0.0000 0.0000 0.0000 -9.9722
#
#
#
# Elastic Compliance Matrix: (Units=1/GPa)
#
#
# Indices 1 2 3 4 5 6 
#
# 1 0.008931 -0.002286 -0.012474 0.000000 0.000000 0.000000
# 2 -0.002286 0.015689 0.006264 0.000000 0.000000 0.000000
# 3 -0.012474 0.006264 0.081318 0.000000 0.000000 0.000000
# 4 0.000000 0.000000 0.000000 0.065027 0.000000 0.000000
# 5 0.000000 0.000000 0.000000 0.000000 0.044625 0.000000
# 6 0.000000 0.000000 0.000000 0.000000 0.000000 -0.100279
#
#
# Mechanical properties :
#
#
# Convention : Reuss Voigt Hill
#
# Bulk Modulus (GPa) = 11.24265 32.09740 21.67002
# Shear Modulus (GPa) = 30.87345 18.68852 24.78099
#
# Velocity S-wave (km/s) = 3.75961 2.92508 3.36829
# Velocity P-wave (km/s) = 4.89830 5.10912 5.00482
#
# Compressibility (1/GPa) = 0.08894703
#
# Stress axis : x y z
#
# Youngs Moduli (GPa) = 111.96812 63.73801 12.29737
#
# Poissons Ratio (x) = 0.14572 0.15339
# Poissons Ratio (y) = 0.25599 -0.07703
# Poissons Ratio (z) = 1.39666 -0.39927
#
# Static dielectric constant tensor:
#      x y z
#    x 1.842180 0.000000 0.000000 
#    y 0.000000 1.816600 0.000000 
#    z 0.000000 0.000000 1.803550 
# 
# From -- ./inp_files/49136.got.cif
#   From: 2010.05.17/outbox.cif.g08.bks.cpg/sg64_25_cif.got.tgz:49136.got - 2010.06.03 16:29:19.
