data_PCOD9479193
_publ_section_title
;
Structure prediction by ZEFSAII (Michael W. Deem and Ramdas Pophale) SiO2 
 PCOD9479193
Probable space group: C M C A
;
_chemical_formula_sum "Si O2"
_cell_formula_units_Z 56
_cell_length_a 22.590339
_cell_length_b 26.213201
_cell_length_c 5.059527
_cell_angle_alpha 90.000000
_cell_angle_beta 90.000000
_cell_angle_gamma 90.000000
_cell_volume 2996.075296
_symmetry_space_group_name_H-M "C M C A"
_symmetry_group_IT_number 64
_symmetry_cell_setting 'orthorhombic'
loop_
_space_group_symop_operation_xyz
x,y,z
-x,1/2-y,1/2+z
x,-y,-z
-x,1/2+y,1/2-z
-x,-y,-z
x,1/2+y,1/2-z
-x,y,z
x,1/2-y,1/2+z
1/2+x,1/2+y,z
1/2-x,-y,1/2+z
1/2+x,1/2-y,-z
1/2-x,y,1/2-z
1/2-x,1/2-y,-z
1/2+x,y,1/2-z
1/2-x,1/2+y,z
1/2+x,-y,1/2+z
loop_
_atom_site_type_symbol
_atom_site_label
_atom_site_fract_x
_atom_site_fract_y
_atom_site_fract_z
Si Si1 0.250000 0.464153 0.750000
Si Si2 0.928053 0.779962 0.635861
Si Si3 0.376935 0.441327 0.908326
Si Si4 0.570202 0.110005 0.917164
O O1 0.266069 0.500000 0.500000
O O2 0.308266 0.433544 0.831546
O O3 0.909386 0.763387 0.927251
O O4 0.909842 0.835143 0.530471
O O5 0.000000 0.781006 0.639747
O O6 0.415581 0.429753 0.650222
O O7 0.382479 0.500000 0.000000
O O8 0.397440 0.406283 0.150022
O O9 0.500000 0.112187 0.864531
#
# Coordination Sequence:
#
# PCOD9479193 Si02
#       4
#     8  16  16  16
#     4  10  20  38  58  74  96 136 192 232 248 282
#     4   9  17  31  50  72 101 136 174 215 253 298
#     4  11  22  36  54  77 107 143 178 217 258 305
#     4  11  22  34  52  82 113 140 172 209 266 331
#
# _framework density 18.691120000000002
#
# number of rings (size 3 to 8) (size 9 to 14) (size 15 to 20)
#    0.000    1.714    0.000    6.857    0.000    8.000 
#    0.000    0.000    0.000    0.000    0.000   20.000 
#    0.000    0.000    0.000    0.000    0.000    0.000 
#
# Total GULP energy -156367.008593 kJ/mol
# GULP energy per Si atom -5584.536021 kJ/mol
# Density = 1.864858 g / cm^3
# Si number density = 18.691120 Si / 1000 Ang^3
#
#
#
# Elastic Constant Matrix: (Units=GPa)
#
#
# Indices 1 2 3 4 5 6 
#
# 1 43.6945 20.1575 8.0222 0.0000 0.0000 0.0000
# 2 20.1575 40.3497 -5.1541 0.0000 0.0000 0.0000
# 3 8.0222 -5.1541 89.4585 0.0000 0.0000 0.0000
# 4 0.0000 0.0000 0.0000 26.3868 0.0000 0.0000
# 5 0.0000 0.0000 0.0000 0.0000 30.9360 0.0000
# 6 0.0000 0.0000 0.0000 0.0000 0.0000 -10.7445
#
#
#
# Elastic Compliance Matrix: (Units=1/GPa)
#
#
# Indices 1 2 3 4 5 6 
#
# 1 0.030902 -0.015909 -0.003688 0.000000 0.000000 0.000000
# 2 -0.015909 0.033157 0.003337 0.000000 0.000000 0.000000
# 3 -0.003688 0.003337 0.011701 0.000000 0.000000 0.000000
# 4 0.000000 0.000000 0.000000 0.037898 0.000000 0.000000
# 5 0.000000 0.000000 0.000000 0.000000 0.032325 0.000000
# 6 0.000000 0.000000 0.000000 0.000000 0.000000 -0.093071
#
#
# Mechanical properties :
#
#
# Convention : Reuss Voigt Hill
#
# Bulk Modulus (GPa) = 23.12599 24.39490 23.76045
# Shear Modulus (GPa) = 50.07698 19.34748 34.71223
#
# Velocity S-wave (km/s) = 5.18170 3.22081 4.31414
# Velocity P-wave (km/s) = 6.94259 5.18762 6.12826
#
# Compressibility (1/GPa) = 0.04324139
#
# Stress axis : x y z
#
# Youngs Moduli (GPa) = 32.35985 30.15935 85.46046
#
# Poissons Ratio (x) = 0.47981 0.31516
# Poissons Ratio (y) = 0.51481 -0.28518
# Poissons Ratio (z) = 0.11934 -0.10064
#
# Static dielectric constant tensor:
#      x y z
#    x 1.633340 0.000000 0.000000 
#    y 0.000000 1.662780 0.000000 
#    z 0.000000 0.000000 1.646710 
# 
# From -- ./inp_files/1633.got.cif
#   From: 2010.05.17/outbox.cif.g08.bks.cpg/sg64_1_cif.got.tgz:1633.got - 2010.06.03 16:29:19.
