data_PCOD9479249
_publ_section_title
;
Structure prediction by ZEFSAII (Michael W. Deem and Ramdas Pophale) SiO2 
 PCOD9479249
Probable space group: C M C A
;
_chemical_formula_sum "Si O2"
_cell_formula_units_Z 80
_cell_length_a 7.574608
_cell_length_b 25.566779
_cell_length_c 17.655056
_cell_angle_alpha 90.000000
_cell_angle_beta 90.000000
_cell_angle_gamma 90.000000
_cell_volume 3419.048639
_symmetry_space_group_name_H-M "C M C A"
_symmetry_group_IT_number 64
_symmetry_cell_setting 'orthorhombic'
loop_
_space_group_symop_operation_xyz
x,y,z
-x,1/2-y,1/2+z
x,-y,-z
-x,1/2+y,1/2-z
-x,-y,-z
x,1/2+y,1/2-z
-x,y,z
x,1/2-y,1/2+z
1/2+x,1/2+y,z
1/2-x,-y,1/2+z
1/2+x,1/2-y,-z
1/2-x,y,1/2-z
1/2-x,1/2-y,-z
1/2+x,y,1/2-z
1/2-x,1/2+y,z
1/2+x,-y,1/2+z
loop_
_atom_site_type_symbol
_atom_site_label
_atom_site_fract_x
_atom_site_fract_y
_atom_site_fract_z
Si Si1 0.709740 0.085121 0.336631
Si Si2 0.798753 0.865499 0.111416
Si Si3 0.284409 0.480947 0.083628
Si Si4 0.797730 0.325066 0.950722
Si Si5 0.287665 0.240700 0.666669
O O1 0.500000 0.088593 0.349456
O O2 0.750000 0.096938 0.250000
O O3 0.795429 0.126265 0.393207
O O4 0.765887 0.026342 0.358152
O O5 0.718492 0.923294 0.105607
O O6 0.716949 0.818443 0.159760
O O7 0.000000 0.872488 0.138458
O O8 0.800422 0.842174 0.026325
O O9 0.500000 0.477815 0.080952
O O10 0.228646 0.500000 0.000000
O O11 0.722498 0.276900 0.901992
O O12 0.000000 0.313585 0.972210
O O13 0.500000 0.239225 0.658459
O O14 0.250000 0.262525 0.750000
#
# Coordination Sequence:
#
# PCOD9479249 Si02
#       5
#    16  16  16  16  16
#     4  11  22  37  58  85 116 150 189 235 285 339
#     4  10  20  38  62  85 111 149 192 235 284 339
#     4   9  17  34  59  83 108 146 188 224 275 338
#     4  11  22  37  57  86 116 148 191 236 283 337
#     4  10  23  39  57  82 115 151 189 233 285 340
#
# _framework density 23.398322
#
# number of rings (size 3 to 8) (size 9 to 14) (size 15 to 20)
#    0.000    1.800    2.000    2.400    0.000    4.800 
#    0.000    3.000    0.000    0.000    0.000    0.000 
#    0.000    0.000    0.000    0.000    0.000    0.000 
#
# Total GULP energy -223650.293965 kJ/mol
# GULP energy per Si atom -5591.257349 kJ/mol
# Density = 2.334507 g / cm^3
# Si number density = 23.398322 Si / 1000 Ang^3
#
#
#
# Elastic Constant Matrix: (Units=GPa)
#
#
# Indices 1 2 3 4 5 6 
#
# 1 66.7430 3.5422 -11.0711 0.0000 0.0000 0.0000
# 2 3.5422 134.2328 -2.3872 0.0000 0.0000 0.0000
# 3 -11.0711 -2.3872 59.0916 0.0000 0.0000 0.0000
# 4 0.0000 0.0000 0.0000 16.0053 0.0000 0.0000
# 5 0.0000 0.0000 0.0000 0.0000 8.5760 0.0000
# 6 0.0000 0.0000 0.0000 0.0000 0.0000 -0.8400
#
#
#
# Elastic Compliance Matrix: (Units=1/GPa)
#
#
# Indices 1 2 3 4 5 6 
#
# 1 0.015481 -0.000357 0.002886 0.000000 0.000000 0.000000
# 2 -0.000357 0.007463 0.000235 0.000000 0.000000 0.000000
# 3 0.002886 0.000235 0.017473 0.000000 0.000000 0.000000
# 4 0.000000 0.000000 0.000000 0.062479 0.000000 0.000000
# 5 0.000000 0.000000 0.000000 0.000000 0.116605 0.000000
# 6 0.000000 0.000000 0.000000 0.000000 0.000000 -1.190475
#
#
# Mechanical properties :
#
#
# Convention : Reuss Voigt Hill
#
# Bulk Modulus (GPa) = 21.76583 26.69278 24.22930
# Shear Modulus (GPa) = -5.20191 22.74714 8.77262
#
# Velocity S-wave (km/s) = -1.49266 3.12135 1.93840
# Velocity P-wave (km/s) = 2.52028 4.94198 3.92269
#
# Compressibility (1/GPa) = 0.04594358
#
# Stress axis : x y z
#
# Youngs Moduli (GPa) = 64.59734 133.98826 57.23096
#
# Poissons Ratio (x) = 0.04786 -0.16516
# Poissons Ratio (y) = 0.02307 -0.01343
# Poissons Ratio (z) = -0.18642 -0.03143
#
# Static dielectric constant tensor:
#      x y z
#    x 2.012980 0.000000 0.000000 
#    y 0.000000 1.906680 0.000000 
#    z 0.000000 0.000000 1.825780 
# 
# From -- ./inp_files/29770.got.cif
#   From: 2010.05.17/outbox.cif.g08.bks.cpg/sg64_15_cif.got.tgz:29770.got - 2010.06.03 16:29:19.
