data_PCOD9479835
_publ_section_title
;
Structure prediction by ZEFSAII (Michael W. Deem and Ramdas Pophale) SiO2 
 PCOD9479835
Probable space group: C M C A
;
_chemical_formula_sum "Si O2"
_cell_formula_units_Z 112
_cell_length_a 18.509301
_cell_length_b 10.282533
_cell_length_c 27.856854
_cell_angle_alpha 90.000000
_cell_angle_beta 90.000000
_cell_angle_gamma 90.000000
_cell_volume 5301.786049
_symmetry_space_group_name_H-M "C M C A"
_symmetry_group_IT_number 64
_symmetry_cell_setting 'orthorhombic'
loop_
_space_group_symop_operation_xyz
x,y,z
-x,1/2-y,1/2+z
x,-y,-z
-x,1/2+y,1/2-z
-x,-y,-z
x,1/2+y,1/2-z
-x,y,z
x,1/2-y,1/2+z
1/2+x,1/2+y,z
1/2-x,-y,1/2+z
1/2+x,1/2-y,-z
1/2-x,y,1/2-z
1/2-x,1/2-y,-z
1/2+x,y,1/2-z
1/2-x,1/2+y,z
1/2+x,-y,1/2+z
loop_
_atom_site_type_symbol
_atom_site_label
_atom_site_fract_x
_atom_site_fract_y
_atom_site_fract_z
Si Si1 0.830787 0.853071 0.640174
Si Si2 0.746622 0.236315 0.942917
Si Si3 0.579716 0.392556 0.139898
Si Si4 0.330525 0.014504 0.443025
Si Si5 0.704831 0.778321 0.707436
Si Si6 0.076753 0.942791 0.765642
Si Si7 0.417030 0.599386 0.670550
O O1 0.809067 0.811820 0.586232
O O2 0.870875 0.723872 0.658216
O O3 0.758361 0.860011 0.672726
O O4 0.884138 0.974429 0.643245
O O5 0.680377 0.333179 0.931067
O O6 0.761055 0.083108 0.932582
O O7 0.750000 0.250000 0.000000
O O8 0.500000 0.339360 0.131961
O O9 0.609366 0.455740 0.091421
O O10 0.577611 0.499008 0.181388
O O11 0.344957 0.000000 0.500000
O O12 0.750000 0.705973 0.750000
O O13 0.649921 0.864750 0.738324
O O14 0.649826 0.699581 0.673137
O O15 0.077083 0.053566 0.725832
O O16 0.000000 0.868950 0.759192
O O17 0.500000 0.634602 0.655419
#
# Coordination Sequence:
#
# PCOD9479835 Si02
#       7
#    16  16  16  16  16  16  16
#     4  11  23  36  62  85 116 148 199 246 292 355
#     4   9  19  35  57  87 117 146 189 246 305 357
#     4  10  21  37  57  82 115 154 193 239 299 354
#     4   9  18  34  57  86 115 148 190 241 304 358
#     4  12  24  36  59  86 116 150 207 250 287 339
#     4  10  22  39  56  77 116 161 194 234 295 354
#     4  11  25  41  57  82 121 161 195 241 302 358
#
# _framework density 21.124956999999998
#
# number of rings (size 3 to 8) (size 9 to 14) (size 15 to 20)
#    0.000    1.714    1.429    2.571    8.000    0.286 
#    0.000    0.000    0.000    0.000    0.000    1.000 
#    0.000    0.000    0.000    0.000    0.000    0.000 
#
# Total GULP energy -311864.941640 kJ/mol
# GULP energy per Si atom -5569.016815 kJ/mol
# Density = 2.107688 g / cm^3
# Si number density = 21.124957 Si / 1000 Ang^3
#
#
#
# Elastic Constant Matrix: (Units=GPa)
#
#
# Indices 1 2 3 4 5 6 
#
# 1 107.6489 13.9098 22.2586 0.0000 0.0000 0.0000
# 2 13.9098 32.7261 4.1400 0.0000 0.0000 0.0000
# 3 22.2586 4.1400 79.2172 0.0000 0.0000 0.0000
# 4 0.0000 0.0000 0.0000 25.4027 0.0000 0.0000
# 5 0.0000 0.0000 0.0000 0.0000 6.7044 0.0000
# 6 0.0000 0.0000 0.0000 0.0000 0.0000 26.9040
#
#
#
# Elastic Compliance Matrix: (Units=1/GPa)
#
#
# Indices 1 2 3 4 5 6 
#
# 1 0.010374 -0.004067 -0.002702 0.000000 0.000000 0.000000
# 2 -0.004067 0.032355 -0.000548 0.000000 0.000000 0.000000
# 3 -0.002702 -0.000548 0.013411 0.000000 0.000000 0.000000
# 4 0.000000 0.000000 0.000000 0.039366 0.000000 0.000000
# 5 0.000000 0.000000 0.000000 0.000000 0.149156 0.000000
# 6 0.000000 0.000000 0.000000 0.000000 0.000000 0.037169
#
#
# Mechanical properties :
#
#
# Convention : Reuss Voigt Hill
#
# Bulk Modulus (GPa) = 24.09372 33.35656 28.72514
# Shear Modulus (GPa) = 16.11334 23.75446 19.93390
#
# Velocity S-wave (km/s) = 2.76481 3.35696 3.07517
# Velocity P-wave (km/s) = 4.64998 5.55427 5.12212
#
# Compressibility (1/GPa) = 0.04150459
#
# Stress axis : x y z
#
# Youngs Moduli (GPa) = 96.39686 30.90732 74.56309
#
# Poissons Ratio (x) = 0.12571 0.20149
# Poissons Ratio (y) = 0.39209 0.04086
# Poissons Ratio (z) = 0.26049 0.01694
#
# Static dielectric constant tensor:
#      x y z
#    x 1.846540 0.000000 0.000000 
#    y 0.000000 1.833120 0.000000 
#    z 0.000000 0.000000 1.746010 
# 
# From -- ./inp_files/53264.got.cif
#   From: 2010.05.17/outbox.cif.g08.bks.cpg/sg64_27_cif.got.tgz:53264.got - 2010.06.03 16:29:19.
