data_PCOD9479652
_publ_section_title
;
Structure prediction by ZEFSAII (Michael W. Deem and Ramdas Pophale) SiO2 
 PCOD9479652
Probable space group: C M C A
;
_chemical_formula_sum "Si O2"
_cell_formula_units_Z 128
_cell_length_a 7.436352
_cell_length_b 25.914643
_cell_length_c 27.495949
_cell_angle_alpha 90.000000
_cell_angle_beta 90.000000
_cell_angle_gamma 90.000000
_cell_volume 5298.755531
_symmetry_space_group_name_H-M "C M C A"
_symmetry_group_IT_number 64
_symmetry_cell_setting 'orthorhombic'
loop_
_space_group_symop_operation_xyz
x,y,z
-x,1/2-y,1/2+z
x,-y,-z
-x,1/2+y,1/2-z
-x,-y,-z
x,1/2+y,1/2-z
-x,y,z
x,1/2-y,1/2+z
1/2+x,1/2+y,z
1/2-x,-y,1/2+z
1/2+x,1/2-y,-z
1/2-x,y,1/2-z
1/2-x,1/2-y,-z
1/2+x,y,1/2-z
1/2-x,1/2+y,z
1/2+x,-y,1/2+z
loop_
_atom_site_type_symbol
_atom_site_label
_atom_site_fract_x
_atom_site_fract_y
_atom_site_fract_z
Si Si1 0.784828 0.102134 0.195958
Si Si2 0.213705 0.485440 0.305397
Si Si3 0.286399 0.742928 0.412226
Si Si4 0.780029 0.057392 0.014093
Si Si5 0.291345 0.845752 0.451381
Si Si6 0.784509 0.773191 0.195548
Si Si7 0.715247 0.130915 0.405266
Si Si8 0.709903 0.119980 0.660617
O O1 0.750000 0.121694 0.250000
O O2 0.713932 0.132638 0.149725
O O3 0.000000 0.100669 0.192381
O O4 0.714354 0.043464 0.190658
O O5 0.250000 0.469840 0.250000
O O6 0.287032 0.437394 0.335529
O O7 0.000000 0.490345 0.315095
O O8 0.500000 0.752160 0.410018
O O9 0.212288 0.788019 0.447196
O O10 0.218718 0.747862 0.355692
O O11 0.259968 0.684891 0.430438
O O12 0.727980 0.078983 0.067153
O O13 0.000000 0.055465 0.011544
O O14 0.717623 0.104880 0.980119
O O15 0.718358 0.000000 0.000000
O O16 0.500000 0.841684 0.467855
O O17 0.287821 0.862212 0.394857
O O18 0.750000 0.752149 0.250000
O O19 0.715175 0.832529 0.191912
O O20 0.000000 0.773957 0.191390
O O21 0.500000 0.128930 0.404151
O O22 0.500000 0.115094 0.675427
#
# Coordination Sequence:
#
# PCOD9479652 Si02
#       8
#    16  16  16  16  16  16  16  16
#     4   9  19  33  48  70 102 135 169 208 251 300
#     4   9  16  26  42  64  91 125 163 201 245 295
#     4   9  19  35  52  72 100 139 179 208 248 307
#     4   9  18  31  52  82 110 133 162 208 265 312
#     4   8  15  29  49  74 102 132 168 205 245 304
#     4   9  17  29  45  69  99 130 169 212 252 298
#     4  10  21  35  52  79 108 131 167 219 260 295
#     4   8  14  24  42  66  94 129 164 200 245 299
#
# _framework density 24.156614999999999
#
# number of rings (size 3 to 8) (size 9 to 14) (size 15 to 20)
#    0.000    3.125    0.000    1.875    1.750    2.000 
#    0.000    2.500    0.000    1.125    0.000    0.000 
#    0.000    0.000    0.000    0.000    0.000    0.000 
#
# Total GULP energy -356781.521891 kJ/mol
# GULP energy per Si atom -5574.711280 kJ/mol
# Density = 2.410163 g / cm^3
# Si number density = 24.156615 Si / 1000 Ang^3
#
#
#
# Elastic Constant Matrix: (Units=GPa)
#
#
# Indices 1 2 3 4 5 6 
#
# 1 78.1963 2.1928 0.7272 0.0000 0.0000 0.0000
# 2 2.1928 160.8674 64.8917 0.0000 0.0000 0.0000
# 3 0.7272 64.8917 74.6110 0.0000 0.0000 0.0000
# 4 0.0000 0.0000 0.0000 19.9260 0.0000 0.0000
# 5 0.0000 0.0000 0.0000 0.0000 0.7347 0.0000
# 6 0.0000 0.0000 0.0000 0.0000 0.0000 -6.4424
#
#
#
# Elastic Compliance Matrix: (Units=1/GPa)
#
#
# Indices 1 2 3 4 5 6 
#
# 1 0.012793 -0.000191 0.000042 0.000000 0.000000 0.000000
# 2 -0.000191 0.009579 -0.008329 0.000000 0.000000 0.000000
# 3 0.000042 -0.008329 0.020647 0.000000 0.000000 0.000000
# 4 0.000000 0.000000 0.000000 0.050186 0.000000 0.000000
# 5 0.000000 0.000000 0.000000 0.000000 1.361115 0.000000
# 6 0.000000 0.000000 0.000000 0.000000 0.000000 -0.155222
#
#
# Mechanical properties :
#
#
# Convention : Reuss Voigt Hill
#
# Bulk Modulus (GPa) = 38.37123 49.92204 44.14664
# Shear Modulus (GPa) = 3.77432 19.23452 11.50442
#
# Velocity S-wave (km/s) = 1.25133 2.82484 2.18467
# Velocity P-wave (km/s) = 4.24342 5.59915 4.96775
#
# Compressibility (1/GPa) = 0.02606119
#
# Stress axis : x y z
#
# Youngs Moduli (GPa) = 78.16590 104.39773 48.43428
#
# Poissons Ratio (x) = 0.01996 -0.00201
# Poissons Ratio (y) = 0.01494 0.40341
# Poissons Ratio (z) = -0.00325 0.86954
#
# Static dielectric constant tensor:
#      x y z
#    x 1.992340 0.000000 0.000000 
#    y 0.000000 1.948920 0.000000 
#    z 0.000000 0.000000 1.960410 
# 
# From -- ./inp_files/49628.got.cif
#   From: 2010.05.17/outbox.cif.g08.bks.cpg/sg64_25_cif.got.tgz:49628.got - 2010.06.03 16:29:19.
