data_PCOD9479395
_publ_section_title
;
Structure prediction by ZEFSAII (Michael W. Deem and Ramdas Pophale) SiO2 
 PCOD9479395
Probable space group: C M C A
;
_chemical_formula_sum "Si O2"
_cell_formula_units_Z 96
_cell_length_a 20.812111
_cell_length_b 15.038271
_cell_length_c 13.942076
_cell_angle_alpha 90.000000
_cell_angle_beta 90.000000
_cell_angle_gamma 90.000000
_cell_volume 4363.565367
_symmetry_space_group_name_H-M "C M C A"
_symmetry_group_IT_number 64
_symmetry_cell_setting 'orthorhombic'
loop_
_space_group_symop_operation_xyz
x,y,z
-x,1/2-y,1/2+z
x,-y,-z
-x,1/2+y,1/2-z
-x,-y,-z
x,1/2+y,1/2-z
-x,y,z
x,1/2-y,1/2+z
1/2+x,1/2+y,z
1/2-x,-y,1/2+z
1/2+x,1/2-y,-z
1/2-x,y,1/2-z
1/2-x,1/2-y,-z
1/2+x,y,1/2-z
1/2-x,1/2+y,z
1/2+x,-y,1/2+z
loop_
_atom_site_type_symbol
_atom_site_label
_atom_site_fract_x
_atom_site_fract_y
_atom_site_fract_z
Si Si1 0.925001 0.424666 0.416126
Si Si2 0.823880 0.828456 0.753607
Si Si3 0.410816 0.389635 0.405397
Si Si4 0.568310 0.084386 0.129513
Si Si5 0.429111 0.312928 0.907937
Si Si6 0.178274 0.617002 0.747346
O O1 0.914983 0.500000 0.500000
O O2 0.919905 0.334173 0.479582
O O3 0.872671 0.423574 0.330059
O O4 0.000000 0.431604 0.383172
O O5 0.750000 0.858687 0.750000
O O6 0.869603 0.878119 0.679771
O O7 0.865306 0.842744 0.851293
O O8 0.822151 0.723334 0.728320
O O9 0.421743 0.400998 0.516978
O O10 0.436944 0.478729 0.357066
O O11 0.434439 0.291031 0.383172
O O12 0.341027 0.390085 0.359209
O O13 0.500000 0.126360 0.158951
O O14 0.500000 0.353341 0.883651
O O15 0.250000 0.580531 0.750000
#
# Coordination Sequence:
#
# PCOD9479395 Si02
#       6
#    16  16  16  16  16  16
#     4  10  23  41  64  95 129 168 214 270 322 374
#     4  10  23  40  62  90 127 168 208 255 312 374
#     4  10  22  38  61  92 124 158 202 260 314 374
#     4  11  22  38  60  91 123 158 205 257 313 371
#     4  10  20  39  64  91 121 161 209 256 315 378
#     4  10  23  43  63  90 124 167 211 254 314 385
#
# _framework density 22.000357999999999
#
# number of rings (size 3 to 8) (size 9 to 14) (size 15 to 20)
#    0.000    1.833    0.000    3.500    2.333    8.000 
#    3.000    5.000    0.000    0.000    0.000    0.000 
#    0.000    0.000    0.000    0.000    0.000    0.000 
#
# Total GULP energy -267252.450125 kJ/mol
# GULP energy per Si atom -5567.759378 kJ/mol
# Density = 2.195028 g / cm^3
# Si number density = 22.000358 Si / 1000 Ang^3
#
#
#
# Elastic Constant Matrix: (Units=GPa)
#
#
# Indices 1 2 3 4 5 6 
#
# 1 215.1020 32.2594 75.8916 0.0000 0.0000 0.0000
# 2 32.2594 67.0036 1.4587 0.0000 0.0000 0.0000
# 3 75.8916 1.4587 84.2971 0.0000 0.0000 0.0000
# 4 0.0000 0.0000 0.0000 31.9115 0.0000 0.0000
# 5 0.0000 0.0000 0.0000 0.0000 -2.5316 0.0000
# 6 0.0000 0.0000 0.0000 0.0000 0.0000 18.5914
#
#
#
# Elastic Compliance Matrix: (Units=1/GPa)
#
#
# Indices 1 2 3 4 5 6 
#
# 1 0.007548 -0.003488 -0.006735 0.000000 0.000000 0.000000
# 2 -0.003488 0.016542 0.002854 0.000000 0.000000 0.000000
# 3 -0.006735 0.002854 0.017877 0.000000 0.000000 0.000000
# 4 0.000000 0.000000 0.000000 0.031337 0.000000 0.000000
# 5 0.000000 0.000000 0.000000 0.000000 -0.395009 0.000000
# 6 0.000000 0.000000 0.000000 0.000000 0.000000 0.053788
#
#
# Mechanical properties :
#
#
# Convention : Reuss Voigt Hill
#
# Bulk Modulus (GPa) = 36.72636 65.06913 50.89775
# Shear Modulus (GPa) = -20.48320 26.71379 3.11530
#
# Velocity S-wave (km/s) = -3.05460 3.48838 1.19126
# Velocity P-wave (km/s) = 2.07098 6.77242 5.00773
#
# Compressibility (1/GPa) = 0.02722840
#
# Stress axis : x y z
#
# Youngs Moduli (GPa) = 132.47974 60.45379 55.93739
#
# Poissons Ratio (x) = 0.21084 0.37676
# Poissons Ratio (y) = 0.46203 -0.15962
# Poissons Ratio (z) = 0.89229 -0.17251
#
# Static dielectric constant tensor:
#      x y z
#    x 1.785520 0.000000 0.000000 
#    y 0.000000 1.897590 0.000000 
#    z 0.000000 0.000000 1.812920 
# 
# From -- ./inp_files/26311.got.cif
#   From: 2010.05.17/outbox.cif.g08.bks.cpg/sg64_14_cif.got.tgz:26311.got - 2010.06.03 16:29:19.
