data_PCOD9479995
_publ_section_title
;
Structure prediction by ZEFSAII (Michael W. Deem and Ramdas Pophale) SiO2 
 PCOD9479995
Probable space group: C M C A
;
_chemical_formula_sum "Si O2"
_cell_formula_units_Z 80
_cell_length_a 13.098843
_cell_length_b 11.231025
_cell_length_c 25.883194
_cell_angle_alpha 90.000000
_cell_angle_beta 90.000000
_cell_angle_gamma 90.000000
_cell_volume 3807.765532
_symmetry_space_group_name_H-M "C M C A"
_symmetry_group_IT_number 64
_symmetry_cell_setting 'orthorhombic'
loop_
_space_group_symop_operation_xyz
x,y,z
-x,1/2-y,1/2+z
x,-y,-z
-x,1/2+y,1/2-z
-x,-y,-z
x,1/2+y,1/2-z
-x,y,z
x,1/2-y,1/2+z
1/2+x,1/2+y,z
1/2-x,-y,1/2+z
1/2+x,1/2-y,-z
1/2-x,y,1/2-z
1/2-x,1/2-y,-z
1/2+x,y,1/2-z
1/2-x,1/2+y,z
1/2+x,-y,1/2+z
loop_
_atom_site_type_symbol
_atom_site_label
_atom_site_fract_x
_atom_site_fract_y
_atom_site_fract_z
Si Si1 0.379441 0.668167 0.795414
Si Si2 0.382528 0.646034 0.528706
Si Si3 0.186471 0.095163 0.039754
Si Si4 0.619811 0.561353 0.279025
Si Si5 0.240151 0.049236 0.627047
O O1 0.500000 0.668063 0.808988
O O2 0.359645 0.797266 0.768049
O O3 0.361631 0.546239 0.762155
O O4 0.305872 0.651321 0.844667
O O5 0.500000 0.611857 0.521407
O O6 0.303316 0.618466 0.481624
O O7 0.375473 0.786257 0.535100
O O8 0.333597 0.596908 0.581853
O O9 0.187306 0.041463 0.096511
O O10 0.143617 0.000000 0.000000
O O11 0.500000 0.555413 0.289267
O O12 0.678801 0.522579 0.330061
#
# Coordination Sequence:
#
# PCOD9479995 Si02
#       5
#    16  16  16  16  16
#     4  10  23  41  60  86 122 160 200 248 301 357
#     4  10  21  38  59  84 116 153 195 244 295 352
#     4   9  21  38  55  84 118 151 194 241 295 353
#     4  10  22  40  61  87 119 158 201 245 297 354
#     4  11  21  36  60  87 116 152 197 246 296 351
#
# _framework density 21.009696999999999
#
# number of rings (size 3 to 8) (size 9 to 14) (size 15 to 20)
#    0.000    2.000    0.000    2.400    0.000   10.400 
#    0.000   14.000    0.000    0.000    0.000    0.000 
#    0.000    0.000    0.000    0.000    0.000    0.000 
#
# Total GULP energy -223003.377575 kJ/mol
# GULP energy per Si atom -5575.084439 kJ/mol
# Density = 2.096188 g / cm^3
# Si number density = 21.009697 Si / 1000 Ang^3
#
#
#
# Elastic Constant Matrix: (Units=GPa)
#
#
# Indices 1 2 3 4 5 6 
#
# 1 109.0591 36.0050 28.6291 0.0000 0.0000 0.0000
# 2 36.0050 169.4839 36.0641 0.0000 0.0000 0.0000
# 3 28.6291 36.0641 68.1181 0.0000 0.0000 0.0000
# 4 0.0000 0.0000 0.0000 29.4133 0.0000 0.0000
# 5 0.0000 0.0000 0.0000 0.0000 19.0071 0.0000
# 6 0.0000 0.0000 0.0000 0.0000 0.0000 -4.4663
#
#
#
# Elastic Compliance Matrix: (Units=1/GPa)
#
#
# Indices 1 2 3 4 5 6 
#
# 1 0.010623 -0.001473 -0.003685 0.000000 0.000000 0.000000
# 2 -0.001473 0.006854 -0.003010 0.000000 0.000000 0.000000
# 3 -0.003685 -0.003010 0.017823 0.000000 0.000000 0.000000
# 4 0.000000 0.000000 0.000000 0.033998 0.000000 0.000000
# 5 0.000000 0.000000 0.000000 0.000000 0.052612 0.000000
# 6 0.000000 0.000000 0.000000 0.000000 0.000000 -0.223898
#
#
# Mechanical properties :
#
#
# Convention : Reuss Voigt Hill
#
# Bulk Modulus (GPa) = 52.72997 60.89528 56.81262
# Shear Modulus (GPa) = -63.02531 25.18836 -18.91847
#
# Velocity S-wave (km/s) = -5.48300 3.46626 -3.00403
# Velocity P-wave (km/s) = 3.86420 6.71321 3.88170
#
# Compressibility (1/GPa) = 0.01896455
#
# Stress axis : x y z
#
# Youngs Moduli (GPa) = 94.13673 145.91084 56.10882
#
# Poissons Ratio (x) = 0.21487 0.20676
# Poissons Ratio (y) = 0.13862 0.16886
# Poissons Ratio (z) = 0.34689 0.43913
#
# Static dielectric constant tensor:
#      x y z
#    x 1.773300 0.000000 0.000000 
#    y 0.000000 1.805900 0.000000 
#    z 0.000000 0.000000 1.735090 
# 
# From -- ./inp_files/44934.got.cif
#   From: 2010.05.17/outbox.cif.g08.bks.cpg/sg64_23_cif.got.tgz:44934.got - 2010.06.03 16:29:19.
