data_PCOD9479599
_publ_section_title
;
Structure prediction by ZEFSAII (Michael W. Deem and Ramdas Pophale) SiO2 
 PCOD9479599
Probable space group: C M C A
;
_chemical_formula_sum "Si O2"
_cell_formula_units_Z 112
_cell_length_a 14.849724
_cell_length_b 26.603427
_cell_length_c 14.613402
_cell_angle_alpha 90.000000
_cell_angle_beta 90.000000
_cell_angle_gamma 90.000000
_cell_volume 5773.076314
_symmetry_space_group_name_H-M "C M C A"
_symmetry_group_IT_number 64
_symmetry_cell_setting 'orthorhombic'
loop_
_space_group_symop_operation_xyz
x,y,z
-x,1/2-y,1/2+z
x,-y,-z
-x,1/2+y,1/2-z
-x,-y,-z
x,1/2+y,1/2-z
-x,y,z
x,1/2-y,1/2+z
1/2+x,1/2+y,z
1/2-x,-y,1/2+z
1/2+x,1/2-y,-z
1/2-x,y,1/2-z
1/2-x,1/2-y,-z
1/2+x,y,1/2-z
1/2-x,1/2+y,z
1/2+x,-y,1/2+z
loop_
_atom_site_type_symbol
_atom_site_label
_atom_site_fract_x
_atom_site_fract_y
_atom_site_fract_z
Si Si1 0.689196 0.865631 0.005333
Si Si2 0.398643 0.853439 0.185804
Si Si3 0.750000 0.068697 0.750000
Si Si4 0.108669 0.307192 0.848945
Si Si5 0.151429 0.793369 0.040157
Si Si6 0.674857 0.048952 0.561131
Si Si7 0.891635 0.761164 0.834735
Si Si8 0.000000 0.378811 0.420379
O O1 0.607131 0.865300 0.077497
O O2 0.751609 0.914387 0.012660
O O3 0.654287 0.851701 0.905460
O O4 0.753345 0.821168 0.043541
O O5 0.500000 0.859504 0.224332
O O6 0.332159 0.893279 0.229582
O O7 0.369477 0.795571 0.197109
O O8 0.719982 0.038531 0.660509
O O9 0.135276 0.300441 0.743405
O O10 0.000000 0.310526 0.854807
O O11 0.139101 0.255913 0.899052
O O12 0.139844 0.776966 0.934522
O O13 0.077923 0.834090 0.069986
O O14 0.581147 0.078332 0.575182
O O15 0.661939 0.000000 0.500000
O O16 0.000000 0.760692 0.839847
#
# Coordination Sequence:
#
# PCOD9479599 Si02
#       8
#    16  16   8  16  16  16  16   8
#     4  10  22  36  57  84 113 163 205 251 312 367
#     4  10  21  36  57  88 126 164 202 260 302 356
#     4  10  24  38  66  98 122 150 214 266 318 380
#     4  11  21  33  53  79 121 170 203 241 298 370
#     4  11  20  36  52  85 129 156 203 251 296 369
#     4  10  23  44  66  93 119 154 210 268 326 368
#     4  10  21  31  51  81 123 170 207 242 292 358
#     4  10  21  36  68  88 119 164 198 254 313 368
#
# _framework density 19.400400999999999
#
# number of rings (size 3 to 8) (size 9 to 14) (size 15 to 20)
#    0.000    1.714    2.857    1.071    7.000    0.571 
#    0.000    2.857    0.000   10.714    0.000    0.000 
#    0.000    0.000    0.000    0.000    0.000    0.000 
#
# Total GULP energy -311847.644993 kJ/mol
# GULP energy per Si atom -5568.707946 kJ/mol
# Density = 1.935625 g / cm^3
# Si number density = 19.400401 Si / 1000 Ang^3
#
#
#
# Elastic Constant Matrix: (Units=GPa)
#
#
# Indices 1 2 3 4 5 6 
#
# 1 73.4293 3.7829 -2.0018 0.0000 0.0000 0.0000
# 2 3.7829 46.9589 14.6445 0.0000 0.0000 0.0000
# 3 -2.0018 14.6445 74.7415 0.0000 0.0000 0.0000
# 4 0.0000 0.0000 0.0000 12.9627 0.0000 0.0000
# 5 0.0000 0.0000 0.0000 0.0000 23.7775 0.0000
# 6 0.0000 0.0000 0.0000 0.0000 0.0000 18.0274
#
#
#
# Elastic Compliance Matrix: (Units=1/GPa)
#
#
# Indices 1 2 3 4 5 6 
#
# 1 0.013702 -0.001298 0.000621 0.000000 0.000000 0.000000
# 2 -0.001298 0.022804 -0.004503 0.000000 0.000000 0.000000
# 3 0.000621 -0.004503 0.014278 0.000000 0.000000 0.000000
# 4 0.000000 0.000000 0.000000 0.077145 0.000000 0.000000
# 5 0.000000 0.000000 0.000000 0.000000 0.042057 0.000000
# 6 0.000000 0.000000 0.000000 0.000000 0.000000 0.055471
#
#
# Mechanical properties :
#
#
# Convention : Reuss Voigt Hill
#
# Bulk Modulus (GPa) = 24.73638 25.33121 25.03380
# Shear Modulus (GPa) = 20.05690 22.86713 21.46202
#
# Velocity S-wave (km/s) = 3.21883 3.43694 3.32967
# Velocity P-wave (km/s) = 5.15680 5.36986 5.26441
#
# Compressibility (1/GPa) = 0.04042628
#
# Stress axis : x y z
#
# Youngs Moduli (GPa) = 72.98035 43.85199 70.03604
#
# Poissons Ratio (x) = 0.05690 -0.04351
# Poissons Ratio (y) = 0.09470 0.31536
# Poissons Ratio (z) = -0.04534 0.19746
#
# Static dielectric constant tensor:
#      x y z
#    x 1.706890 0.000000 0.000000 
#    y 0.000000 1.634230 0.000000 
#    z 0.000000 0.000000 1.761610 
# 
# From -- ./inp_files/24454.got.cif
#   From: 2010.05.17/outbox.cif.g08.bks.cpg/sg64_13_cif.got.tgz:24454.got - 2010.06.03 16:29:19.
