data_PCOD9479064
_publ_section_title
;
Structure prediction by ZEFSAII (Michael W. Deem and Ramdas Pophale) SiO2 
 PCOD9479064
Probable space group: C M C A
;
_chemical_formula_sum "Si O2"
_cell_formula_units_Z 64
_cell_length_a 21.856694
_cell_length_b 10.884201
_cell_length_c 12.888727
_cell_angle_alpha 90.000000
_cell_angle_beta 90.000000
_cell_angle_gamma 90.000000
_cell_volume 3066.133430
_symmetry_space_group_name_H-M "C M C A"
_symmetry_group_IT_number 64
_symmetry_cell_setting 'orthorhombic'
loop_
_space_group_symop_operation_xyz
x,y,z
-x,1/2-y,1/2+z
x,-y,-z
-x,1/2+y,1/2-z
-x,-y,-z
x,1/2+y,1/2-z
-x,y,z
x,1/2-y,1/2+z
1/2+x,1/2+y,z
1/2-x,-y,1/2+z
1/2+x,1/2-y,-z
1/2-x,y,1/2-z
1/2-x,1/2-y,-z
1/2+x,y,1/2-z
1/2-x,1/2+y,z
1/2+x,-y,1/2+z
loop_
_atom_site_type_symbol
_atom_site_label
_atom_site_fract_x
_atom_site_fract_y
_atom_site_fract_z
Si Si1 0.703292 0.602508 0.077483
Si Si2 0.161645 0.147543 0.470578
Si Si3 0.568209 0.113695 0.848280
Si Si4 0.391819 0.868844 0.753110
O O1 0.776616 0.586636 0.077210
O O2 0.669985 0.603658 0.187812
O O3 0.677552 0.500000 0.000000
O O4 0.686860 0.729606 0.023183
O O5 0.120871 0.094185 0.565235
O O6 0.120677 0.173408 0.370625
O O7 0.500000 0.106078 0.893414
O O8 0.577037 0.251191 0.802064
O O9 0.575450 0.001433 0.766398
#
# Coordination Sequence:
#
# PCOD9479064 Si02
#       4
#    16  16  16  16
#     4  10  20  37  59  87 122 152 195 251 307 360
#     4  10  22  37  59  89 117 156 201 248 300 357
#     4  11  24  40  60  88 122 161 204 246 295 360
#     4  11  22  39  62  87 118 158 200 247 301 352
#
# _framework density 20.873194000000002
#
# number of rings (size 3 to 8) (size 9 to 14) (size 15 to 20)
#    0.000    1.500    0.000    5.250    0.000    3.000 
#    0.000    7.500    0.000    8.250    0.000    0.000 
#    0.000    0.000    0.000    0.000    0.000    0.000 
#
# Total GULP energy -178273.638525 kJ/mol
# GULP energy per Si atom -5571.051204 kJ/mol
# Density = 2.082569 g / cm^3
# Si number density = 20.873194 Si / 1000 Ang^3
#
#
#
# Elastic Constant Matrix: (Units=GPa)
#
#
# Indices 1 2 3 4 5 6 
#
# 1 118.1740 51.0562 28.3864 0.0000 0.0000 0.0000
# 2 51.0562 100.4908 32.9830 0.0000 0.0000 0.0000
# 3 28.3864 32.9830 92.8175 0.0000 0.0000 0.0000
# 4 0.0000 0.0000 0.0000 37.6428 0.0000 0.0000
# 5 0.0000 0.0000 0.0000 0.0000 -48.1018 0.0000
# 6 0.0000 0.0000 0.0000 0.0000 0.0000 21.3685
#
#
#
# Elastic Compliance Matrix: (Units=1/GPa)
#
#
# Indices 1 2 3 4 5 6 
#
# 1 0.011039 -0.005095 -0.001566 0.000000 0.000000 0.000000
# 2 -0.005095 0.013616 -0.003280 0.000000 0.000000 0.000000
# 3 -0.001566 -0.003280 0.012418 0.000000 0.000000 0.000000
# 4 0.000000 0.000000 0.000000 0.026566 0.000000 0.000000
# 5 0.000000 0.000000 0.000000 0.000000 -0.020789 0.000000
# 6 0.000000 0.000000 0.000000 0.000000 0.000000 0.046798
#
#
# Mechanical properties :
#
#
# Convention : Reuss Voigt Hill
#
# Bulk Modulus (GPa) = 58.16620 59.59261 58.87940
# Shear Modulus (GPa) = 43.37974 15.45234 29.41604
#
# Velocity S-wave (km/s) = 4.56373 2.72379 3.75810
# Velocity P-wave (km/s) = 7.46305 6.20515 6.86298
#
# Compressibility (1/GPa) = 0.01719211
#
# Stress axis : x y z
#
# Youngs Moduli (GPa) = 90.58469 73.44072 80.52571
#
# Poissons Ratio (x) = 0.37417 0.12608
# Poissons Ratio (y) = 0.46152 0.26416
# Poissons Ratio (z) = 0.14183 0.24092
#
# Static dielectric constant tensor:
#      x y z
#    x 1.754480 0.000000 0.000000 
#    y 0.000000 1.862780 0.000000 
#    z 0.000000 0.000000 1.708920 
# 
# From -- ./inp_files/16780.got.cif
#   From: 2010.05.17/outbox.cif.g08.bks.cpg/sg64_9_cif.got.tgz:16780.got - 2010.06.03 16:29:19.
