data_PCOD9479658
_publ_section_title
;
Structure prediction by ZEFSAII (Michael W. Deem and Ramdas Pophale) SiO2 
 PCOD9479658
Probable space group: C M C A
;
_chemical_formula_sum "Si O2"
_cell_formula_units_Z 80
_cell_length_a 7.867744
_cell_length_b 26.558946
_cell_length_c 18.852168
_cell_angle_alpha 90.000000
_cell_angle_beta 90.000000
_cell_angle_gamma 90.000000
_cell_volume 3939.329948
_symmetry_space_group_name_H-M "C M C A"
_symmetry_group_IT_number 64
_symmetry_cell_setting 'orthorhombic'
loop_
_space_group_symop_operation_xyz
x,y,z
-x,1/2-y,1/2+z
x,-y,-z
-x,1/2+y,1/2-z
-x,-y,-z
x,1/2+y,1/2-z
-x,y,z
x,1/2-y,1/2+z
1/2+x,1/2+y,z
1/2-x,-y,1/2+z
1/2+x,1/2-y,-z
1/2-x,y,1/2-z
1/2-x,1/2-y,-z
1/2+x,y,1/2-z
1/2-x,1/2+y,z
1/2+x,-y,1/2+z
loop_
_atom_site_type_symbol
_atom_site_label
_atom_site_fract_x
_atom_site_fract_y
_atom_site_fract_z
Si Si1 0.204907 0.191917 0.080775
Si Si2 0.296491 0.496929 0.419785
Si Si3 0.205124 0.599046 0.831941
Si Si4 0.796981 0.595981 0.332385
Si Si5 0.295106 0.695002 0.582526
O O1 0.269125 0.147344 0.131050
O O2 0.268111 0.248372 0.098198
O O3 0.000000 0.192876 0.085999
O O4 0.250201 0.182258 0.998742
O O5 0.228653 0.500000 0.500000
O O6 0.500000 0.490696 0.424952
O O7 0.230209 0.448499 0.377105
O O8 0.264005 0.547603 0.376059
O O9 0.250000 0.594075 0.750000
O O10 0.268204 0.651393 0.865638
O O11 0.000000 0.599347 0.837135
O O12 0.750000 0.592792 0.250000
O O13 0.000000 0.596646 0.337270
O O14 0.500000 0.696316 0.587287
#
# Coordination Sequence:
#
# PCOD9479658 Si02
#       5
#    16  16  16  16  16
#     4   9  19  35  55  80 107 136 175 220 262 308
#     4  10  21  38  59  81 105 137 178 220 266 321
#     4  10  21  35  53  78 107 138 172 213 260 311
#     4  11  23  37  54  79 111 144 179 220 266 316
#     4   9  18  35  57  79 105 138 176 217 261 311
#
# _framework density 20.308022000000001
#
# number of rings (size 3 to 8) (size 9 to 14) (size 15 to 20)
#    0.000    2.200    0.000    2.400    0.000    7.600 
#    0.000    0.000    0.000    0.000    0.000    0.000 
#    0.000    0.000    0.000    0.000    0.000    0.000 
#
# Total GULP energy -223406.863803 kJ/mol
# GULP energy per Si atom -5585.171595 kJ/mol
# Density = 2.026180 g / cm^3
# Si number density = 20.308022 Si / 1000 Ang^3
#
#
#
# Elastic Constant Matrix: (Units=GPa)
#
#
# Indices 1 2 3 4 5 6 
#
# 1 17.2232 0.7574 -5.0655 0.0000 0.0000 0.0000
# 2 0.7574 167.5515 126.0630 0.0000 0.0000 0.0000
# 3 -5.0655 126.0630 176.2299 0.0000 0.0000 0.0000
# 4 0.0000 0.0000 0.0000 10.4639 0.0000 0.0000
# 5 0.0000 0.0000 0.0000 0.0000 26.4465 0.0000
# 6 0.0000 0.0000 0.0000 0.0000 0.0000 18.0826
#
#
#
# Elastic Compliance Matrix: (Units=1/GPa)
#
#
# Indices 1 2 3 4 5 6 
#
# 1 0.059419 -0.003364 0.004115 0.000000 0.000000 0.000000
# 2 -0.003364 0.013115 -0.009478 0.000000 0.000000 0.000000
# 3 0.004115 -0.009478 0.012573 0.000000 0.000000 0.000000
# 4 0.000000 0.000000 0.000000 0.095566 0.000000 0.000000
# 5 0.000000 0.000000 0.000000 0.000000 0.037812 0.000000
# 6 0.000000 0.000000 0.000000 0.000000 0.000000 0.055302
#
#
# Mechanical properties :
#
#
# Convention : Reuss Voigt Hill
#
# Bulk Modulus (GPa) = 14.78180 67.16825 40.97502
# Shear Modulus (GPa) = 15.93409 26.94858 21.44134
#
# Velocity S-wave (km/s) = 2.80415 3.64674 3.25284
# Velocity P-wave (km/s) = 4.21651 7.13289 5.85906
#
# Compressibility (1/GPa) = 0.06765076
#
# Stress axis : x y z
#
# Youngs Moduli (GPa) = 16.82960 76.25068 79.53792
#
# Poissons Ratio (x) = 0.25653 -0.32726
# Poissons Ratio (y) = 0.05662 0.75386
# Poissons Ratio (z) = -0.06925 0.72271
#
# Static dielectric constant tensor:
#      x y z
#    x 1.747110 0.000000 0.000000 
#    y 0.000000 1.731640 0.000000 
#    z 0.000000 0.000000 1.648450 
# 
# From -- ./inp_files/29761.got.cif
#   From: 2010.05.17/outbox.cif.g08.bks.cpg/sg64_15_cif.got.tgz:29761.got - 2010.06.03 16:29:19.
