data_PCOD9479722
_publ_section_title
;
Structure prediction by ZEFSAII (Michael W. Deem and Ramdas Pophale) SiO2 
 PCOD9479722
Probable space group: C M C A
;
_chemical_formula_sum "Si O2"
_cell_formula_units_Z 64
_cell_length_a 7.530185
_cell_length_b 9.936198
_cell_length_c 34.226956
_cell_angle_alpha 90.000000
_cell_angle_beta 90.000000
_cell_angle_gamma 90.000000
_cell_volume 2560.909078
_symmetry_space_group_name_H-M "C M C A"
_symmetry_group_IT_number 64
_symmetry_cell_setting 'orthorhombic'
loop_
_space_group_symop_operation_xyz
x,y,z
-x,1/2-y,1/2+z
x,-y,-z
-x,1/2+y,1/2-z
-x,-y,-z
x,1/2+y,1/2-z
-x,y,z
x,1/2-y,1/2+z
1/2+x,1/2+y,z
1/2-x,-y,1/2+z
1/2+x,1/2-y,-z
1/2-x,y,1/2-z
1/2-x,1/2-y,-z
1/2+x,y,1/2-z
1/2-x,1/2+y,z
1/2+x,-y,1/2+z
loop_
_atom_site_type_symbol
_atom_site_label
_atom_site_fract_x
_atom_site_fract_y
_atom_site_fract_z
Si Si1 0.205028 0.854188 0.659645
Si Si2 0.706388 0.311703 0.087735
Si Si3 0.715516 0.938856 0.541411
Si Si4 0.788176 0.895446 0.294339
O O1 0.288466 0.771626 0.623641
O O2 0.210520 0.749508 0.695413
O O3 0.000000 0.881154 0.649263
O O4 0.282647 0.993966 0.674904
O O5 0.500000 0.335012 0.097281
O O6 0.778970 0.455677 0.074660
O O7 0.717644 0.209358 0.051284
O O8 0.500000 0.935404 0.541795
O O9 0.771135 0.000000 0.500000
O O10 0.750000 0.935565 0.250000
O O11 0.000000 0.887515 0.298677
#
# Coordination Sequence:
#
# PCOD9479722 Si02
#       4
#    16  16  16  16
#     4  10  22  39  58  83 113 145 185 230 276 329
#     4  10  21  37  57  82 112 146 186 231 277 329
#     4  10  21  36  55  82 114 148 188 232 279 332
#     4  11  23  38  58  83 110 143 182 223 272 328
#
# _framework density 24.991126000000001
#
# number of rings (size 3 to 8) (size 9 to 14) (size 15 to 20)
#    0.000    1.750    0.000    3.750    0.000    6.500 
#    0.000    0.000    0.000    0.000    0.000    0.000 
#    0.000    0.000    0.000    0.000    0.000    0.000 
#
# Total GULP energy -179073.408567 kJ/mol
# GULP energy per Si atom -5596.044018 kJ/mol
# Density = 2.493424 g / cm^3
# Si number density = 24.991126 Si / 1000 Ang^3
#
#
#
# Elastic Constant Matrix: (Units=GPa)
#
#
# Indices 1 2 3 4 5 6 
#
# 1 82.8086 -2.3480 5.0789 0.0000 0.0000 0.0000
# 2 -2.3480 107.7245 -11.0382 0.0000 0.0000 0.0000
# 3 5.0789 -11.0382 72.0934 0.0000 0.0000 0.0000
# 4 0.0000 0.0000 0.0000 49.9524 0.0000 0.0000
# 5 0.0000 0.0000 0.0000 0.0000 14.2688 0.0000
# 6 0.0000 0.0000 0.0000 0.0000 0.0000 -3.9583
#
#
#
# Elastic Compliance Matrix: (Units=1/GPa)
#
#
# Indices 1 2 3 4 5 6 
#
# 1 0.012132 0.000180 -0.000827 0.000000 0.000000 0.000000
# 2 0.000180 0.009434 0.001432 0.000000 0.000000 0.000000
# 3 -0.000827 0.001432 0.014148 0.000000 0.000000 0.000000
# 4 0.000000 0.000000 0.000000 0.020019 0.000000 0.000000
# 5 0.000000 0.000000 0.000000 0.000000 0.070083 0.000000
# 6 0.000000 0.000000 0.000000 0.000000 0.000000 -0.252632
#
#
# Mechanical properties :
#
#
# Convention : Reuss Voigt Hill
#
# Bulk Modulus (GPa) = 26.82241 27.33464 27.07852
# Shear Modulus (GPa) = -43.11931 30.11483 -6.50224
#
# Velocity S-wave (km/s) = -4.15828 3.47511 -1.61477
# Velocity P-wave (km/s) = 3.50699 5.20224 2.71701
#
# Compressibility (1/GPa) = 0.03728226
#
# Stress axis : x y z
#
# Youngs Moduli (GPa) = 82.42756 106.00453 70.67946
#
# Poissons Ratio (x) = -0.01905 0.05846
# Poissons Ratio (y) = -0.01481 -0.10119
# Poissons Ratio (z) = 0.06818 -0.15177
#
# Static dielectric constant tensor:
#      x y z
#    x 1.929720 0.000000 0.000000 
#    y 0.000000 1.919320 0.000000 
#    z 0.000000 0.000000 2.030720 
# 
# From -- ./inp_files/52457.got.cif
#   From: 2010.05.17/outbox.cif.g08.bks.cpg/sg64_27_cif.got.tgz:52457.got - 2010.06.03 16:29:19.
