data_PCOD9479507
_publ_section_title
;
Structure prediction by ZEFSAII (Michael W. Deem and Ramdas Pophale) SiO2 
 PCOD9479507
Probable space group: C M C A
;
_chemical_formula_sum "Si O2"
_cell_formula_units_Z 88
_cell_length_a 16.722857
_cell_length_b 9.264742
_cell_length_c 30.177829
_cell_angle_alpha 90.000000
_cell_angle_beta 90.000000
_cell_angle_gamma 90.000000
_cell_volume 4675.540241
_symmetry_space_group_name_H-M "C M C A"
_symmetry_group_IT_number 64
_symmetry_cell_setting 'orthorhombic'
loop_
_space_group_symop_operation_xyz
x,y,z
-x,1/2-y,1/2+z
x,-y,-z
-x,1/2+y,1/2-z
-x,-y,-z
x,1/2+y,1/2-z
-x,y,z
x,1/2-y,1/2+z
1/2+x,1/2+y,z
1/2-x,-y,1/2+z
1/2+x,1/2-y,-z
1/2-x,y,1/2-z
1/2-x,1/2-y,-z
1/2+x,y,1/2-z
1/2-x,1/2+y,z
1/2+x,-y,1/2+z
loop_
_atom_site_type_symbol
_atom_site_label
_atom_site_fract_x
_atom_site_fract_y
_atom_site_fract_z
Si Si1 0.750000 0.506873 0.750000
Si Si2 0.143597 0.835607 0.451072
Si Si3 0.799572 0.341478 0.390712
Si Si4 0.410537 0.115794 0.380324
Si Si5 0.688820 0.251002 0.810261
Si Si6 0.092308 0.658730 0.048217
O O1 0.706330 0.397397 0.783407
O O2 0.691931 0.615269 0.722981
O O3 0.229540 0.855701 0.427567
O O4 0.100265 0.708442 0.424775
O O5 0.141505 0.805423 0.503396
O O6 0.097891 0.986911 0.445839
O O7 0.843585 0.491849 0.381373
O O8 0.758249 0.280439 0.346490
O O9 0.865356 0.234985 0.410823
O O10 0.500000 0.057636 0.376894
O O11 0.389587 0.222041 0.339574
O O12 0.000000 0.701982 0.042758
#
# Coordination Sequence:
#
# PCOD9479507 Si02
#       6
#     8  16  16  16  16  16
#     4  10  20  40  68  88 112 146 200 234 284 358
#     4  10  21  38  57  81 116 162 207 238 279 346
#     4  11  22  37  59  88 117 155 200 239 289 350
#     4  11  22  38  58  89 124 153 190 246 298 345
#     4  10  21  39  64  90 112 154 190 239 286 356
#     4  11  22  37  56  84 120 160 198 248 295 337
#
# _framework density 18.821353999999999
#
# number of rings (size 3 to 8) (size 9 to 14) (size 15 to 20)
#    0.000    1.455    1.818    5.455    2.545    2.182 
#    0.000    2.727    0.000    0.000    0.000    0.000 
#    0.000    0.000    0.000    0.000    0.000    0.000 
#
# Total GULP energy -245617.237304 kJ/mol
# GULP energy per Si atom -5582.209939 kJ/mol
# Density = 1.877852 g / cm^3
# Si number density = 18.821354 Si / 1000 Ang^3
#
#
#
# Elastic Constant Matrix: (Units=GPa)
#
#
# Indices 1 2 3 4 5 6 
#
# 1 99.5333 19.3021 31.6766 0.0000 0.0000 0.0000
# 2 19.3021 76.7334 43.9160 0.0000 0.0000 0.0000
# 3 31.6766 43.9160 94.4113 0.0000 0.0000 0.0000
# 4 0.0000 0.0000 0.0000 40.7888 0.0000 0.0000
# 5 0.0000 0.0000 0.0000 0.0000 6.5497 0.0000
# 6 0.0000 0.0000 0.0000 0.0000 0.0000 12.4144
#
#
#
# Elastic Compliance Matrix: (Units=1/GPa)
#
#
# Indices 1 2 3 4 5 6 
#
# 1 0.011295 -0.000916 -0.003363 0.000000 0.000000 0.000000
# 2 -0.000916 0.017835 -0.007988 0.000000 0.000000 0.000000
# 3 -0.003363 -0.007988 0.015436 0.000000 0.000000 0.000000
# 4 0.000000 0.000000 0.000000 0.024517 0.000000 0.000000
# 5 0.000000 0.000000 0.000000 0.000000 0.152678 0.000000
# 6 0.000000 0.000000 0.000000 0.000000 0.000000 0.080552
#
#
# Mechanical properties :
#
#
# Convention : Reuss Voigt Hill
#
# Bulk Modulus (GPa) = 49.92618 51.16304 50.54461
# Shear Modulus (GPa) = 14.99138 23.66946 19.33042
#
# Velocity S-wave (km/s) = 2.82531 3.55009 3.20823
# Velocity P-wave (km/s) = 6.10140 6.63677 6.37471
#
# Compressibility (1/GPa) = 0.02002957
#
# Stress axis : x y z
#
# Youngs Moduli (GPa) = 88.53475 56.07091 64.78231
#
# Poissons Ratio (x) = 0.05138 0.21789
# Poissons Ratio (y) = 0.08112 0.51751
# Poissons Ratio (z) = 0.29778 0.44792
#
# Static dielectric constant tensor:
#      x y z
#    x 1.647300 0.000000 0.000000 
#    y 0.000000 1.658500 0.000000 
#    z 0.000000 0.000000 1.659740 
# 
# From -- ./inp_files/53561.got.cif
#   From: 2010.05.17/outbox.cif.g08.bks.cpg/sg64_27_cif.got.tgz:53561.got - 2010.06.03 16:29:19.
