data_PCOD9479154
_publ_section_title
;
Structure prediction by ZEFSAII (Michael W. Deem and Ramdas Pophale) SiO2 
 PCOD9479154
Probable space group: C M C A
;
_chemical_formula_sum "Si O2"
_cell_formula_units_Z 120
_cell_length_a 14.798155
_cell_length_b 19.339709
_cell_length_c 19.764796
_cell_angle_alpha 90.000000
_cell_angle_beta 90.000000
_cell_angle_gamma 90.000000
_cell_volume 5656.526723
_symmetry_space_group_name_H-M "C M C A"
_symmetry_group_IT_number 64
_symmetry_cell_setting 'orthorhombic'
loop_
_space_group_symop_operation_xyz
x,y,z
-x,1/2-y,1/2+z
x,-y,-z
-x,1/2+y,1/2-z
-x,-y,-z
x,1/2+y,1/2-z
-x,y,z
x,1/2-y,1/2+z
1/2+x,1/2+y,z
1/2-x,-y,1/2+z
1/2+x,1/2-y,-z
1/2-x,y,1/2-z
1/2-x,1/2-y,-z
1/2+x,y,1/2-z
1/2-x,1/2+y,z
1/2+x,-y,1/2+z
loop_
_atom_site_type_symbol
_atom_site_label
_atom_site_fract_x
_atom_site_fract_y
_atom_site_fract_z
Si Si1 0.782635 0.417493 0.498410
Si Si2 0.605415 0.859682 0.373153
Si Si3 0.105509 0.589417 0.774632
Si Si4 0.250000 0.513673 0.250000
Si Si5 0.784036 0.370727 0.651492
Si Si6 0.398070 0.294055 0.634784
Si Si7 0.396055 0.236871 0.837868
Si Si8 0.659834 0.797137 0.013419
O O1 0.776310 0.500000 0.500000
O O2 0.848394 0.391285 0.438923
O O3 0.807532 0.389340 0.573541
O O4 0.690992 0.376552 0.480556
O O5 0.500000 0.849752 0.388415
O O6 0.612487 0.906309 0.306816
O O7 0.638183 0.783372 0.350280
O O8 0.179263 0.532347 0.792445
O O9 0.131462 0.664167 0.804533
O O10 0.000000 0.576209 0.792606
O O11 0.199002 0.563804 0.301858
O O12 0.677839 0.349598 0.653920
O O13 0.837614 0.304059 0.678020
O O14 0.500000 0.304714 0.660851
O O15 0.399248 0.292273 0.553241
O O16 0.500000 0.248252 0.818757
O O17 0.386069 0.227121 0.918403
O O18 0.750000 0.750000 0.000000
#
# Coordination Sequence:
#
# PCOD9479154 Si02
#       8
#    16  16  16   8  16  16  16  16
#     4  11  22  37  61  91 134 165 209 273 327 395
#     4  10  20  38  64  92 122 165 215 273 331 382
#     4  10  26  45  65  97 128 174 229 267 323 402
#     4  12  28  42  70  88 136 186 206 268 344 398
#     4  11  25  42  61 104 125 173 224 269 332 393
#     4  10  20  37  64  92 124 163 212 271 325 375
#     4  11  23  42  70  96 129 169 220 281 326 380
#     4  11  19  38  62  92 127 163 217 267 316 387
#
# _framework density 21.214431000000001
#
# number of rings (size 3 to 8) (size 9 to 14) (size 15 to 20)
#    0.000    1.333    4.000    1.200    7.467    2.933 
#    0.000    0.000    0.000    2.000    0.000    0.000 
#    0.000    0.000    0.000    0.000    0.000    0.000 
#
# Total GULP energy -335231.195708 kJ/mol
# GULP energy per Si atom -5587.186595 kJ/mol
# Density = 2.116615 g / cm^3
# Si number density = 21.214431 Si / 1000 Ang^3
#
#
#
# Elastic Constant Matrix: (Units=GPa)
#
#
# Indices 1 2 3 4 5 6 
#
# 1 61.1355 43.8974 1.1729 0.0000 0.0000 0.0000
# 2 43.8974 132.8289 6.5668 0.0000 0.0000 0.0000
# 3 1.1729 6.5668 57.0691 0.0000 0.0000 0.0000
# 4 0.0000 0.0000 0.0000 26.5574 0.0000 0.0000
# 5 0.0000 0.0000 0.0000 0.0000 19.7942 0.0000
# 6 0.0000 0.0000 0.0000 0.0000 0.0000 13.2877
#
#
#
# Elastic Compliance Matrix: (Units=1/GPa)
#
#
# Indices 1 2 3 4 5 6 
#
# 1 0.021454 -0.007109 0.000377 0.000000 0.000000 0.000000
# 2 -0.007109 0.009927 -0.000996 0.000000 0.000000 0.000000
# 3 0.000377 -0.000996 0.017629 0.000000 0.000000 0.000000
# 4 0.000000 0.000000 0.000000 0.037654 0.000000 0.000000
# 5 0.000000 0.000000 0.000000 0.000000 0.050520 0.000000
# 6 0.000000 0.000000 0.000000 0.000000 0.000000 0.075258
#
#
# Mechanical properties :
#
#
# Convention : Reuss Voigt Hill
#
# Bulk Modulus (GPa) = 29.80191 39.36751 34.58471
# Shear Modulus (GPa) = 20.91319 25.22095 23.06707
#
# Velocity S-wave (km/s) = 3.14315 3.45172 3.30104
# Velocity P-wave (km/s) = 5.22025 5.87223 5.55581
#
# Compressibility (1/GPa) = 0.03355490
#
# Stress axis : x y z
#
# Youngs Moduli (GPa) = 46.61071 100.73456 56.72311
#
# Poissons Ratio (x) = 0.71611 -0.02139
# Poissons Ratio (y) = 0.33135 0.05651
# Poissons Ratio (z) = -0.01758 0.10035
#
# Static dielectric constant tensor:
#      x y z
#    x 1.788410 0.000000 0.000000 
#    y 0.000000 1.786670 0.000000 
#    z 0.000000 0.000000 1.790310 
# 
# From -- ./inp_files/39644.got.cif
#   From: 2010.05.17/outbox.cif.g08.bks.cpg/sg64_20_cif.got.tgz:39644.got - 2010.06.03 16:29:19.
