data_PCOD9479361
_publ_section_title
;
Structure prediction by ZEFSAII (Michael W. Deem and Ramdas Pophale) SiO2 
 PCOD9479361
Probable space group: C M C A
;
_chemical_formula_sum "Si O2"
_cell_formula_units_Z 80
_cell_length_a 13.042717
_cell_length_b 23.415687
_cell_length_c 12.775982
_cell_angle_alpha 90.000000
_cell_angle_beta 90.000000
_cell_angle_gamma 90.000000
_cell_volume 3901.838292
_symmetry_space_group_name_H-M "C M C A"
_symmetry_group_IT_number 64
_symmetry_cell_setting 'orthorhombic'
loop_
_space_group_symop_operation_xyz
x,y,z
-x,1/2-y,1/2+z
x,-y,-z
-x,1/2+y,1/2-z
-x,-y,-z
x,1/2+y,1/2-z
-x,y,z
x,1/2-y,1/2+z
1/2+x,1/2+y,z
1/2-x,-y,1/2+z
1/2+x,1/2-y,-z
1/2-x,y,1/2-z
1/2-x,1/2-y,-z
1/2+x,y,1/2-z
1/2-x,1/2+y,z
1/2+x,-y,1/2+z
loop_
_atom_site_type_symbol
_atom_site_label
_atom_site_fract_x
_atom_site_fract_y
_atom_site_fract_z
Si Si1 0.382175 0.552816 0.918416
Si Si2 0.500000 0.349461 0.516319
Si Si3 0.500000 0.214633 0.580067
Si Si4 0.325592 0.288657 0.930254
Si Si5 0.750000 0.505582 0.250000
Si Si6 0.500000 0.217387 0.820101
Si Si7 0.783265 0.399668 0.924198
O O1 0.500000 0.575431 0.909200
O O2 0.338726 0.531659 0.805988
O O3 0.391905 0.500000 0.000000
O O4 0.287802 0.586076 0.975029
O O5 0.500000 0.284339 0.563359
O O6 0.500000 0.337618 0.393012
O O7 0.602032 0.382131 0.547288
O O8 0.595955 0.190586 0.518583
O O9 0.500000 0.203255 0.700449
O O10 0.250000 0.250000 0.000000
O O11 0.397905 0.253332 0.851262
O O12 0.268968 0.341924 0.879077
O O13 0.784997 0.548145 0.156781
#
# Coordination Sequence:
#
# PCOD9479361 Si02
#       7
#    16   8   8  16   8   8  16
#     4   9  21  44  64  90 126 158 209 274 322 375
#     4  10  22  42  57  98 131 168 209 263 311 382
#     4  10  22  38  58  85 139 173 207 256 312 365
#     4  10  20  39  58  91 131 166 209 256 307 376
#     4  10  24  42  68  96 114 168 220 272 332 366
#     4  10  22  38  58  87 141 172 209 255 307 367
#     4  11  22  41  66  94 128 171 213 263 321 386
#
# _framework density 20.503157000000002
#
# number of rings (size 3 to 8) (size 9 to 14) (size 15 to 20)
#    0.000    2.200    4.000    0.000    7.000    0.800 
#    5.400    1.500    0.000    0.000    0.000    0.000 
#    0.000    0.000    0.000    0.000    0.000    0.000 
#
# Total GULP energy -222930.318892 kJ/mol
# GULP energy per Si atom -5573.257972 kJ/mol
# Density = 2.045649 g / cm^3
# Si number density = 20.503157 Si / 1000 Ang^3
#
#
#
# Elastic Constant Matrix: (Units=GPa)
#
#
# Indices 1 2 3 4 5 6 
#
# 1 179.5257 47.1223 42.0814 0.0000 0.0000 0.0000
# 2 47.1223 51.7241 11.5276 0.0000 0.0000 0.0000
# 3 42.0814 11.5276 112.2844 0.0000 0.0000 0.0000
# 4 0.0000 0.0000 0.0000 22.3300 0.0000 0.0000
# 5 0.0000 0.0000 0.0000 0.0000 -0.8153 0.0000
# 6 0.0000 0.0000 0.0000 0.0000 0.0000 33.0261
#
#
#
# Elastic Compliance Matrix: (Units=1/GPa)
#
#
# Indices 1 2 3 4 5 6 
#
# 1 0.007843 -0.006642 -0.002257 0.000000 0.000000 0.000000
# 2 -0.006642 0.025411 -0.000120 0.000000 0.000000 0.000000
# 3 -0.002257 -0.000120 0.009764 0.000000 0.000000 0.000000
# 4 0.000000 0.000000 0.000000 0.044783 0.000000 0.000000
# 5 0.000000 0.000000 0.000000 0.000000 -1.226604 0.000000
# 6 0.000000 0.000000 0.000000 0.000000 0.000000 0.030279
#
#
# Mechanical properties :
#
#
# Convention : Reuss Voigt Hill
#
# Bulk Modulus (GPa) = 40.03164 60.55521 50.29343
# Shear Modulus (GPa) = -4.62039 27.09504 11.23732
#
# Velocity S-wave (km/s) = -1.50280 3.63920 2.34365
# Velocity P-wave (km/s) = 4.06888 6.87437 5.64858
#
# Compressibility (1/GPa) = 0.02498024
#
# Stress axis : x y z
#
# Youngs Moduli (GPa) = 127.50627 39.35308 102.41442
#
# Poissons Ratio (x) = 0.26138 0.23119
# Poissons Ratio (y) = 0.84688 0.01225
# Poissons Ratio (z) = 0.28783 0.00471
#
# Static dielectric constant tensor:
#      x y z
#    x 1.698350 0.000000 0.000000 
#    y 0.000000 1.789770 0.000000 
#    z 0.000000 0.000000 1.709030 
# 
# From -- ./inp_files/22565.got.cif
#   From: 2010.05.17/outbox.cif.g08.bks.cpg/sg64_12_cif.got.tgz:22565.got - 2010.06.03 16:29:19.
