data_PCOD9479633
_publ_section_title
;
Structure prediction by ZEFSAII (Michael W. Deem and Ramdas Pophale) SiO2 
 PCOD9479633
Probable space group: C M C A
;
_chemical_formula_sum "Si O2"
_cell_formula_units_Z 80
_cell_length_a 14.836870
_cell_length_b 28.491678
_cell_length_c 7.972017
_cell_angle_alpha 90.000000
_cell_angle_beta 90.000000
_cell_angle_gamma 90.000000
_cell_volume 3369.989402
_symmetry_space_group_name_H-M "C M C A"
_symmetry_group_IT_number 64
_symmetry_cell_setting 'orthorhombic'
loop_
_space_group_symop_operation_xyz
x,y,z
-x,1/2-y,1/2+z
x,-y,-z
-x,1/2+y,1/2-z
-x,-y,-z
x,1/2+y,1/2-z
-x,y,z
x,1/2-y,1/2+z
1/2+x,1/2+y,z
1/2-x,-y,1/2+z
1/2+x,1/2-y,-z
1/2-x,y,1/2-z
1/2-x,1/2-y,-z
1/2+x,y,1/2-z
1/2-x,1/2+y,z
1/2+x,-y,1/2+z
loop_
_atom_site_type_symbol
_atom_site_label
_atom_site_fract_x
_atom_site_fract_y
_atom_site_fract_z
Si Si1 0.859604 0.947970 0.935993
Si Si2 0.346603 0.586041 0.402061
Si Si3 0.356302 0.384117 0.236281
Si Si4 0.602803 0.780988 0.182323
Si Si5 0.104023 0.814403 0.699842
O O1 0.751433 0.937185 0.928175
O O2 0.893450 0.943276 0.745287
O O3 0.893513 0.910622 0.074049
O O4 0.875019 0.000000 0.000000
O O5 0.390964 0.596267 0.583682
O O6 0.342977 0.637296 0.314063
O O7 0.250000 0.393520 0.250000
O O8 0.364313 0.327716 0.223965
O O9 0.500000 0.774353 0.241382
O O10 0.644342 0.729263 0.197843
O O11 0.602576 0.794969 0.989252
O O12 0.000000 0.824935 0.751973
#
# Coordination Sequence:
#
# PCOD9479633 Si02
#       5
#    16  16  16  16  16
#     4  10  21  34  56  79  99 139 179 220 278 321
#     4   9  20  34  52  80 106 132 175 223 260 318
#     4   9  19  35  51  79 110 139 175 224 268 309
#     4   9  18  33  54  78 107 147 180 209 260 323
#     4   9  18  34  54  77 107 144 178 212 261 316
#
# _framework density 23.738947
#
# number of rings (size 3 to 8) (size 9 to 14) (size 15 to 20)
#    0.000    2.800    0.000    0.000   11.200    0.000 
#    3.600    3.000    0.000    3.000    0.000    0.000 
#    0.000    0.000    0.000    0.000    0.000    0.000 
#
# Total GULP energy -223074.011628 kJ/mol
# GULP energy per Si atom -5576.850291 kJ/mol
# Density = 2.368492 g / cm^3
# Si number density = 23.738947 Si / 1000 Ang^3
#
#
#
# Elastic Constant Matrix: (Units=GPa)
#
#
# Indices 1 2 3 4 5 6 
#
# 1 65.6140 -6.1902 2.5167 0.0000 0.0000 0.0000
# 2 -6.1902 91.1615 28.6773 0.0000 0.0000 0.0000
# 3 2.5167 28.6773 89.4613 0.0000 0.0000 0.0000
# 4 0.0000 0.0000 0.0000 47.6308 0.0000 0.0000
# 5 0.0000 0.0000 0.0000 0.0000 0.2580 0.0000
# 6 0.0000 0.0000 0.0000 0.0000 0.0000 23.6606
#
#
#
# Elastic Compliance Matrix: (Units=1/GPa)
#
#
# Indices 1 2 3 4 5 6 
#
# 1 0.015397 0.001314 -0.000854 0.000000 0.000000 0.000000
# 2 0.001314 0.012312 -0.003984 0.000000 0.000000 0.000000
# 3 -0.000854 -0.003984 0.012479 0.000000 0.000000 0.000000
# 4 0.000000 0.000000 0.000000 0.020995 0.000000 0.000000
# 5 0.000000 0.000000 0.000000 0.000000 3.875891 0.000000
# 6 0.000000 0.000000 0.000000 0.000000 0.000000 0.042264
#
#
# Mechanical properties :
#
#
# Convention : Reuss Voigt Hill
#
# Bulk Modulus (GPa) = 30.17424 32.91606 31.54515
# Shear Modulus (GPa) = 1.25080 29.05875 15.15477
#
# Velocity S-wave (km/s) = 0.72667 3.50250 2.52938
# Velocity P-wave (km/s) = 3.66640 5.50024 4.67414
#
# Compressibility (1/GPa) = 0.03314085
#
# Stress axis : x y z
#
# Youngs Moduli (GPa) = 64.94593 81.22185 80.13441
#
# Poissons Ratio (x) = -0.10675 0.06847
# Poissons Ratio (y) = -0.08536 0.31923
# Poissons Ratio (z) = 0.05550 0.32356
#
# Static dielectric constant tensor:
#      x y z
#    x 1.966500 0.000000 0.000000 
#    y 0.000000 1.920880 0.000000 
#    z 0.000000 0.000000 1.968980 
# 
# From -- ./inp_files/7053.got.cif
#   From: 2010.05.17/outbox.cif.g08.bks.cpg/sg64_4_cif.got.tgz:7053.got - 2010.06.03 16:29:19.
