data_PCOD9479908
_publ_section_title
;
Structure prediction by ZEFSAII (Michael W. Deem and Ramdas Pophale) SiO2 
 PCOD9479908
Probable space group: C M C A
;
_chemical_formula_sum "Si O2"
_cell_formula_units_Z 88
_cell_length_a 26.648447
_cell_length_b 12.894626
_cell_length_c 11.817370
_cell_angle_alpha 90.000000
_cell_angle_beta 90.000000
_cell_angle_gamma 90.000000
_cell_volume 4060.705449
_symmetry_space_group_name_H-M "C M C A"
_symmetry_group_IT_number 64
_symmetry_cell_setting 'orthorhombic'
loop_
_space_group_symop_operation_xyz
x,y,z
-x,1/2-y,1/2+z
x,-y,-z
-x,1/2+y,1/2-z
-x,-y,-z
x,1/2+y,1/2-z
-x,y,z
x,1/2-y,1/2+z
1/2+x,1/2+y,z
1/2-x,-y,1/2+z
1/2+x,1/2-y,-z
1/2-x,y,1/2-z
1/2-x,1/2-y,-z
1/2+x,y,1/2-z
1/2-x,1/2+y,z
1/2+x,-y,1/2+z
loop_
_atom_site_type_symbol
_atom_site_label
_atom_site_fract_x
_atom_site_fract_y
_atom_site_fract_z
Si Si1 0.612879 0.701987 0.906020
Si Si2 0.394833 0.422964 0.674985
Si Si3 0.000000 0.561717 0.299150
Si Si4 0.326539 0.147859 0.385054
Si Si5 0.000000 0.854450 0.043429
Si Si6 0.341337 0.618921 0.674855
Si Si7 0.750000 0.476343 0.750000
O O1 0.620835 0.825803 0.902307
O O2 0.553779 0.693119 0.927904
O O3 0.628713 0.656808 0.785886
O O4 0.646169 0.636596 0.994737
O O5 0.451764 0.426000 0.719211
O O6 0.363784 0.399273 0.790717
O O7 0.378879 0.533267 0.624223
O O8 0.000000 0.639552 0.406085
O O9 0.000000 0.456504 0.374936
O O10 0.323863 0.272604 0.377163
O O11 0.274114 0.094904 0.349579
O O12 0.292517 0.551254 0.701912
#
# Coordination Sequence:
#
# PCOD9479908 Si02
#       7
#    16  16   8  16   8  16   8
#     4  11  22  40  65  94 131 173 211 260 324 386
#     4  10  21  37  60  88 128 171 203 264 318 375
#     4  11  19  34  60  95 130 164 216 259 318 378
#     4  10  22  41  62  91 125 163 214 264 323 389
#     4  11  21  34  66 101 126 168 216 263 312 392
#     4  10  22  42  62  90 127 163 216 268 323 386
#     4  10  22  40  66  88 118 162 204 280 328 374
#
# _framework density 21.671109999999999
#
# number of rings (size 3 to 8) (size 9 to 14) (size 15 to 20)
#    0.000    1.636    3.636    1.091    0.000    3.636 
#    0.000   20.909    0.000    2.182    0.000    0.000 
#    0.000    0.000    0.000    0.000    0.000    0.000 
#
# Total GULP energy -245288.004034 kJ/mol
# GULP energy per Si atom -5574.727364 kJ/mol
# Density = 2.162179 g / cm^3
# Si number density = 21.671110 Si / 1000 Ang^3
#
#
#
# Elastic Constant Matrix: (Units=GPa)
#
#
# Indices 1 2 3 4 5 6 
#
# 1 100.0717 26.0276 6.0616 0.0000 0.0000 0.0000
# 2 26.0276 109.6654 11.1222 0.0000 0.0000 0.0000
# 3 6.0616 11.1222 35.5803 0.0000 0.0000 0.0000
# 4 0.0000 0.0000 0.0000 14.3234 0.0000 0.0000
# 5 0.0000 0.0000 0.0000 0.0000 -73.8907 0.0000
# 6 0.0000 0.0000 0.0000 0.0000 0.0000 23.7356
#
#
#
# Elastic Compliance Matrix: (Units=1/GPa)
#
#
# Indices 1 2 3 4 5 6 
#
# 1 0.010689 -0.002429 -0.001062 0.000000 0.000000 0.000000
# 2 -0.002429 0.009969 -0.002702 0.000000 0.000000 0.000000
# 3 -0.001062 -0.002702 0.029131 0.000000 0.000000 0.000000
# 4 0.000000 0.000000 0.000000 0.069816 0.000000 0.000000
# 5 0.000000 0.000000 0.000000 0.000000 -0.013534 0.000000
# 6 0.000000 0.000000 0.000000 0.000000 0.000000 0.042131
#
#
# Mechanical properties :
#
#
# Convention : Reuss Voigt Hill
#
# Bulk Modulus (GPa) = 26.73610 36.86001 31.79806
# Shear Modulus (GPa) = 28.89227 6.30740 17.59983
#
# Velocity S-wave (km/s) = 3.65528 1.70787 2.85289
# Velocity P-wave (km/s) = 5.49352 4.57546 5.05538
#
# Compressibility (1/GPa) = 0.03740261
#
# Stress axis : x y z
#
# Youngs Moduli (GPa) = 93.55448 100.30826 34.32758
#
# Poissons Ratio (x) = 0.24367 0.03644
# Poissons Ratio (y) = 0.22726 0.09277
# Poissons Ratio (z) = 0.09932 0.27108
#
# Static dielectric constant tensor:
#      x y z
#    x 1.683910 0.000000 0.000000 
#    y 0.000000 1.823290 0.000000 
#    z 0.000000 0.000000 1.818990 
# 
# From -- ./inp_files/27996.got.cif
#   From: 2010.05.17/outbox.cif.g08.bks.cpg/sg64_14_cif.got.tgz:27996.got - 2010.06.03 16:29:19.
