data_PCOD9479979
_publ_section_title
;
Structure prediction by ZEFSAII (Michael W. Deem and Ramdas Pophale) SiO2 
 PCOD9479979
Probable space group: C M C A
;
_chemical_formula_sum "Si O2"
_cell_formula_units_Z 80
_cell_length_a 18.336585
_cell_length_b 24.711652
_cell_length_c 10.025064
_cell_angle_alpha 90.000000
_cell_angle_beta 90.000000
_cell_angle_gamma 90.000000
_cell_volume 4542.630257
_symmetry_space_group_name_H-M "C M C A"
_symmetry_group_IT_number 64
_symmetry_cell_setting 'orthorhombic'
loop_
_space_group_symop_operation_xyz
x,y,z
-x,1/2-y,1/2+z
x,-y,-z
-x,1/2+y,1/2-z
-x,-y,-z
x,1/2+y,1/2-z
-x,y,z
x,1/2-y,1/2+z
1/2+x,1/2+y,z
1/2-x,-y,1/2+z
1/2+x,1/2-y,-z
1/2-x,y,1/2-z
1/2-x,1/2-y,-z
1/2+x,y,1/2-z
1/2-x,1/2+y,z
1/2+x,-y,1/2+z
loop_
_atom_site_type_symbol
_atom_site_label
_atom_site_fract_x
_atom_site_fract_y
_atom_site_fract_z
Si Si1 0.417368 0.414252 0.985622
Si Si2 0.000000 0.285123 0.877623
Si Si3 0.000000 0.311579 0.578239
Si Si4 0.165319 0.082801 0.735262
Si Si5 0.665156 0.543581 0.267694
Si Si6 0.417142 0.382775 0.517954
O O1 0.500000 0.435107 0.007594
O O2 0.432102 0.353272 0.931481
O O3 0.374109 0.412542 0.122819
O O4 0.375777 0.447638 0.872773
O O5 0.000000 0.281096 0.718616
O O6 0.068005 0.322861 0.923858
O O7 0.000000 0.229354 0.955814
O O8 0.250000 0.097651 0.750000
O O9 0.124222 0.116393 0.621856
O O10 0.161856 0.019496 0.693657
O O11 0.750000 0.558159 0.250000
O O12 0.626189 0.580688 0.377059
O O13 0.500000 0.404962 0.500702
#
# Coordination Sequence:
#
# PCOD9479979 Si02
#       6
#    16   8   8  16  16  16
#     4  10  21  38  57  89 113 152 198 244 279 338
#     4  10  22  40  65  89 110 144 193 247 307 338
#     4  10  22  40  65  89 110 144 193 247 307 338
#     4  11  23  35  55  88 124 164 191 221 287 347
#     4  11  21  37  57  82 126 164 187 229 287 347
#     4  10  21  38  57  89 113 152 198 244 279 338
#
# _framework density 17.610942000000001
#
# number of rings (size 3 to 8) (size 9 to 14) (size 15 to 20)
#    1.200    0.400    2.000    3.600    2.800    8.000 
#    0.000    0.000    0.000    7.200    0.000    0.000 
#    0.000    0.000    0.000    0.000    0.000    0.000 
#
# Total GULP energy -223061.673703 kJ/mol
# GULP energy per Si atom -5576.541843 kJ/mol
# Density = 1.757086 g / cm^3
# Si number density = 17.610942 Si / 1000 Ang^3
#
#
#
# Elastic Constant Matrix: (Units=GPa)
#
#
# Indices 1 2 3 4 5 6 
#
# 1 115.0662 -0.6345 27.7457 0.0000 0.0000 0.0000
# 2 -0.6345 38.1535 -9.8784 0.0000 0.0000 0.0000
# 3 27.7457 -9.8784 77.7451 0.0000 0.0000 0.0000
# 4 0.0000 0.0000 0.0000 33.6337 0.0000 0.0000
# 5 0.0000 0.0000 0.0000 0.0000 25.2329 0.0000
# 6 0.0000 0.0000 0.0000 0.0000 0.0000 -23.3369
#
#
#
# Elastic Compliance Matrix: (Units=1/GPa)
#
#
# Indices 1 2 3 4 5 6 
#
# 1 0.009529 -0.000747 -0.003496 0.000000 0.000000 0.000000
# 2 -0.000747 0.027160 0.003717 0.000000 0.000000 0.000000
# 3 -0.003496 0.003717 0.014582 0.000000 0.000000 0.000000
# 4 0.000000 0.000000 0.000000 0.029732 0.000000 0.000000
# 5 0.000000 0.000000 0.000000 0.000000 0.039631 0.000000
# 6 0.000000 0.000000 0.000000 0.000000 0.000000 -0.042851
#
#
# Mechanical properties :
#
#
# Convention : Reuss Voigt Hill
#
# Bulk Modulus (GPa) = 19.91157 29.49227 24.70192
# Shear Modulus (GPa) = 52.31504 21.35473 36.83489
#
# Velocity S-wave (km/s) = 5.45623 3.48599 4.57835
# Velocity P-wave (km/s) = 7.14317 5.74333 6.48115
#
# Compressibility (1/GPa) = 0.05022206
#
# Stress axis : x y z
#
# Youngs Moduli (GPa) = 104.93781 36.81884 68.57564
#
# Poissons Ratio (x) = 0.02749 0.23972
# Poissons Ratio (y) = 0.07835 -0.25492
# Poissons Ratio (z) = 0.36684 -0.13687
#
# Static dielectric constant tensor:
#      x y z
#    x 1.586280 0.000000 0.000000 
#    y 0.000000 1.593290 0.000000 
#    z 0.000000 0.000000 1.584580 
# 
# From -- ./inp_files/7291.got.cif
#   From: 2010.05.17/outbox.cif.g08.bks.cpg/sg64_4_cif.got.tgz:7291.got - 2010.06.03 16:29:19.
