data_PCOD9479631
_publ_section_title
;
Structure prediction by ZEFSAII (Michael W. Deem and Ramdas Pophale) SiO2 
 PCOD9479631
Probable space group: C M C A
;
_chemical_formula_sum "Si O2"
_cell_formula_units_Z 112
_cell_length_a 14.080312
_cell_length_b 31.904026
_cell_length_c 12.403660
_cell_angle_alpha 90.000000
_cell_angle_beta 90.000000
_cell_angle_gamma 90.000000
_cell_volume 5571.955278
_symmetry_space_group_name_H-M "C M C A"
_symmetry_group_IT_number 64
_symmetry_cell_setting 'orthorhombic'
loop_
_space_group_symop_operation_xyz
x,y,z
-x,1/2-y,1/2+z
x,-y,-z
-x,1/2+y,1/2-z
-x,-y,-z
x,1/2+y,1/2-z
-x,y,z
x,1/2-y,1/2+z
1/2+x,1/2+y,z
1/2-x,-y,1/2+z
1/2+x,1/2-y,-z
1/2-x,y,1/2-z
1/2-x,1/2-y,-z
1/2+x,y,1/2-z
1/2-x,1/2+y,z
1/2+x,-y,1/2+z
loop_
_atom_site_type_symbol
_atom_site_label
_atom_site_fract_x
_atom_site_fract_y
_atom_site_fract_z
Si Si1 0.793876 0.959962 0.074279
Si Si2 0.388628 0.938622 0.204042
Si Si3 0.803648 0.867744 0.995389
Si Si4 0.612281 0.766182 0.127704
Si Si5 0.104264 0.173194 0.443595
Si Si6 0.612917 0.344598 0.220510
Si Si7 0.652255 0.177575 0.295569
O O1 0.685448 0.956536 0.117770
O O2 0.860053 0.958795 0.180732
O O3 0.814240 0.917112 0.010679
O O4 0.807916 0.000000 0.000000
O O5 0.500000 0.944246 0.180543
O O6 0.368335 0.888729 0.219063
O O7 0.693793 0.855969 0.970944
O O8 0.870025 0.850588 0.898757
O O9 0.833627 0.846060 0.107228
O O10 0.500000 0.756389 0.142042
O O11 0.636563 0.804752 0.206260
O O12 0.666276 0.724096 0.157334
O O13 0.624047 0.783465 0.006834
O O14 0.096232 0.179658 0.315719
O O15 0.000000 0.158279 0.484504
O O16 0.500000 0.343432 0.199659
O O17 0.750000 0.159635 0.250000
#
# Coordination Sequence:
#
# PCOD9479631 Si02
#       7
#    16  16  16  16  16  16  16
#     4  10  21  39  64  92 122 156 194 254 306 359
#     4   9  19  39  62  92 124 154 198 246 298 358
#     4  10  22  39  61  85 114 155 197 239 301 359
#     4  10  21  34  55  83 114 155 198 244 289 332
#     4  10  22  39  55  79 118 159 196 240 291 349
#     4   9  19  35  60  89 116 151 197 246 291 342
#     4  10  23  37  52  78 114 157 200 243 285 350
#
# _framework density 20.100663999999998
#
# number of rings (size 3 to 8) (size 9 to 14) (size 15 to 20)
#    0.000    2.286    0.000    1.286    4.000    5.714 
#    7.714    0.000    0.000    0.000    0.000    0.000 
#    0.000    0.000    0.000    0.000    0.000    0.000 
#
# Total GULP energy -312516.014012 kJ/mol
# GULP energy per Si atom -5580.643107 kJ/mol
# Density = 2.005491 g / cm^3
# Si number density = 20.100664 Si / 1000 Ang^3
#
#
#
# Elastic Constant Matrix: (Units=GPa)
#
#
# Indices 1 2 3 4 5 6 
#
# 1 53.7705 -4.9669 20.5348 0.0000 0.0000 0.0000
# 2 -4.9669 83.1582 58.3625 0.0000 0.0000 0.0000
# 3 20.5348 58.3625 120.8185 0.0000 0.0000 0.0000
# 4 0.0000 0.0000 0.0000 33.1856 0.0000 0.0000
# 5 0.0000 0.0000 0.0000 0.0000 20.3153 0.0000
# 6 0.0000 0.0000 0.0000 0.0000 0.0000 12.2645
#
#
#
# Elastic Compliance Matrix: (Units=1/GPa)
#
#
# Indices 1 2 3 4 5 6 
#
# 1 0.021622 0.005856 -0.006504 0.000000 0.000000 0.000000
# 2 0.005856 0.019779 -0.010550 0.000000 0.000000 0.000000
# 3 -0.006504 -0.010550 0.014478 0.000000 0.000000 0.000000
# 4 0.000000 0.000000 0.000000 0.030134 0.000000 0.000000
# 5 0.000000 0.000000 0.000000 0.000000 0.049224 0.000000
# 6 0.000000 0.000000 0.000000 0.000000 0.000000 0.081536
#
#
# Mechanical properties :
#
#
# Convention : Reuss Voigt Hill
#
# Bulk Modulus (GPa) = 29.86446 45.06756 37.46601
# Shear Modulus (GPa) = 19.97361 25.40754 22.69057
#
# Velocity S-wave (km/s) = 3.15569 3.55916 3.36348
# Velocity P-wave (km/s) = 5.30731 6.27373 5.81065
#
# Compressibility (1/GPa) = 0.03348462
#
# Stress axis : x y z
#
# Youngs Moduli (GPa) = 46.24866 50.55829 69.06804
#
# Poissons Ratio (x) = -0.29607 0.44920
# Poissons Ratio (y) = -0.27083 0.72865
# Poissons Ratio (z) = 0.30079 0.53338
#
# Static dielectric constant tensor:
#      x y z
#    x 1.785960 0.000000 0.000000 
#    y 0.000000 1.668690 0.000000 
#    z 0.000000 0.000000 1.744300 
# 
# From -- ./inp_files/14937.got.cif
#   From: 2010.05.17/outbox.cif.g08.bks.cpg/sg64_8_cif.got.tgz:14937.got - 2010.06.03 16:29:19.
