data_PCOD9479380
_publ_section_title
;
Structure prediction by ZEFSAII (Michael W. Deem and Ramdas Pophale) SiO2 
 PCOD9479380
Probable space group: C M C A
;
_chemical_formula_sum "Si O2"
_cell_formula_units_Z 112
_cell_length_a 16.867511
_cell_length_b 14.658516
_cell_length_c 18.080568
_cell_angle_alpha 90.000000
_cell_angle_beta 90.000000
_cell_angle_gamma 90.000000
_cell_volume 4470.468892
_symmetry_space_group_name_H-M "C M C A"
_symmetry_group_IT_number 64
_symmetry_cell_setting 'orthorhombic'
loop_
_space_group_symop_operation_xyz
x,y,z
-x,1/2-y,1/2+z
x,-y,-z
-x,1/2+y,1/2-z
-x,-y,-z
x,1/2+y,1/2-z
-x,y,z
x,1/2-y,1/2+z
1/2+x,1/2+y,z
1/2-x,-y,1/2+z
1/2+x,1/2-y,-z
1/2-x,y,1/2-z
1/2-x,1/2-y,-z
1/2+x,y,1/2-z
1/2-x,1/2+y,z
1/2+x,-y,1/2+z
loop_
_atom_site_type_symbol
_atom_site_label
_atom_site_fract_x
_atom_site_fract_y
_atom_site_fract_z
Si Si1 0.845542 0.823104 0.130417
Si Si2 0.746858 0.174123 0.062077
Si Si3 0.409102 0.257730 0.281634
Si Si4 0.410884 0.935802 0.785193
Si Si5 0.088768 0.392778 0.519336
Si Si6 0.082505 0.904446 0.540582
Si Si7 0.702504 0.897436 0.179382
O O1 0.792181 0.730709 0.129118
O O2 0.898419 0.812816 0.203478
O O3 0.897789 0.836664 0.057311
O O4 0.778438 0.903681 0.126276
O O5 0.674609 0.116106 0.029854
O O6 0.750000 0.250000 0.000000
O O7 0.833600 0.130838 0.068437
O O8 0.500000 0.259057 0.302781
O O9 0.360327 0.318989 0.340000
O O10 0.388232 0.152473 0.263498
O O11 0.500000 0.967722 0.760928
O O12 0.344159 0.013785 0.793026
O O13 0.421101 0.907246 0.870540
O O14 0.091241 0.500000 0.500000
O O15 0.000000 0.373947 0.549425
O O16 0.000000 0.853403 0.517516
O O17 0.075438 0.000000 0.500000
O O18 0.750000 0.859160 0.250000
#
# Coordination Sequence:
#
# PCOD9479380 Si02
#       7
#    16  16  16  16  16  16  16
#     4  10  21  37  59  85 115 156 204 248 304 365
#     4  10  21  34  56  85 116 159 194 243 298 361
#     4  10  20  39  63  85 117 156 200 254 305 372
#     4  10  21  38  62  88 119 158 195 245 312 367
#     4  10  22  38  56  82 118 161 204 245 295 363
#     4  10  21  36  59  92 122 154 199 248 305 374
#     4  10  23  38  58  88 115 151 201 255 304 353
#
# _framework density 25.053301000000001
#
# number of rings (size 3 to 8) (size 9 to 14) (size 15 to 20)
#    0.000    2.000    1.429    1.286    6.000    4.000 
#    0.000    1.429    0.000    6.857    0.000    0.000 
#    0.000    0.000    0.000    0.000    0.000    0.000 
#
# Total GULP energy -311911.854167 kJ/mol
# GULP energy per Si atom -5569.854539 kJ/mol
# Density = 2.499628 g / cm^3
# Si number density = 25.053301 Si / 1000 Ang^3
#
#
#
# Elastic Constant Matrix: (Units=GPa)
#
#
# Indices 1 2 3 4 5 6 
#
# 1 199.9772 64.8835 12.2869 0.0000 0.0000 0.0000
# 2 64.8835 85.4823 -11.9829 0.0000 0.0000 0.0000
# 3 12.2869 -11.9829 34.7703 0.0000 0.0000 0.0000
# 4 0.0000 0.0000 0.0000 20.0914 0.0000 0.0000
# 5 0.0000 0.0000 0.0000 0.0000 25.2559 0.0000
# 6 0.0000 0.0000 0.0000 0.0000 0.0000 36.4110
#
#
#
# Elastic Compliance Matrix: (Units=1/GPa)
#
#
# Indices 1 2 3 4 5 6 
#
# 1 0.007304 -0.006205 -0.004720 0.000000 0.000000 0.000000
# 2 -0.006205 0.017564 0.008246 0.000000 0.000000 0.000000
# 3 -0.004720 0.008246 0.033270 0.000000 0.000000 0.000000
# 4 0.000000 0.000000 0.000000 0.049773 0.000000 0.000000
# 5 0.000000 0.000000 0.000000 0.000000 0.039595 0.000000
# 6 0.000000 0.000000 0.000000 0.000000 0.000000 0.027464
#
#
# Mechanical properties :
#
#
# Convention : Reuss Voigt Hill
#
# Bulk Modulus (GPa) = 18.94653 50.06720 34.50686
# Shear Modulus (GPa) = 25.26259 33.35448 29.30853
#
# Velocity S-wave (km/s) = 3.17890 3.65271 3.42401
# Velocity P-wave (km/s) = 4.58833 6.14959 5.42541
#
# Compressibility (1/GPa) = 0.05278012
#
# Stress axis : x y z
#
# Youngs Moduli (GPa) = 136.91222 56.93331 30.05725
#
# Poissons Ratio (x) = 0.35330 0.14186
# Poissons Ratio (y) = 0.84961 -0.24785
# Poissons Ratio (z) = 0.64617 -0.46948
#
# Static dielectric constant tensor:
#      x y z
#    x 2.906600 0.000000 0.000000 
#    y 0.000000 2.090850 0.000000 
#    z 0.000000 0.000000 2.104580 
# 
# From -- ./inp_files/50084.got.cif
#   From: 2010.05.17/outbox.cif.g08.bks.cpg/sg64_26_cif.got.tgz:50084.got - 2010.06.03 16:29:19.
