data_PCOD9479815
_publ_section_title
;
Structure prediction by ZEFSAII (Michael W. Deem and Ramdas Pophale) SiO2 
 PCOD9479815
Probable space group: C M C A
;
_chemical_formula_sum "Si O2"
_cell_formula_units_Z 68
_cell_length_a 29.025202
_cell_length_b 20.341417
_cell_length_c 5.036367
_cell_angle_alpha 90.000000
_cell_angle_beta 90.000000
_cell_angle_gamma 90.000000
_cell_volume 2973.540263
_symmetry_space_group_name_H-M "C M C A"
_symmetry_group_IT_number 64
_symmetry_cell_setting 'orthorhombic'
loop_
_space_group_symop_operation_xyz
x,y,z
-x,1/2-y,1/2+z
x,-y,-z
-x,1/2+y,1/2-z
-x,-y,-z
x,1/2+y,1/2-z
-x,y,z
x,1/2-y,1/2+z
1/2+x,1/2+y,z
1/2-x,-y,1/2+z
1/2+x,1/2-y,-z
1/2-x,y,1/2-z
1/2-x,1/2-y,-z
1/2+x,y,1/2-z
1/2-x,1/2+y,z
1/2+x,-y,1/2+z
loop_
_atom_site_type_symbol
_atom_site_label
_atom_site_fract_x
_atom_site_fract_y
_atom_site_fract_z
Si Si1 0.054890 0.287201 0.295323
Si Si2 0.000000 0.000000 0.000000
Si Si3 0.590657 0.417669 0.941724
Si Si4 0.194450 0.292115 0.237897
Si Si5 0.847892 0.431093 0.072660
O O1 0.065430 0.226153 0.489362
O O2 0.080025 0.347706 0.424721
O O3 0.000000 0.298629 0.314275
O O4 0.958686 0.048862 0.111906
O O5 0.621977 0.411846 0.683103
O O6 0.618090 0.450677 0.187325
O O7 0.178998 0.260405 0.515296
O O8 0.250000 0.293033 0.250000
O O9 0.179116 0.366209 0.168028
O O10 0.822116 0.500000 0.000000
#
# Coordination Sequence:
#
# PCOD9479815 Si02
#       5
#    16   4  16  16  16
#     4  10  21  37  55  81 112 154 212 274 331 384
#     4  12  24  46  60  90 128 198 240 276 328 410
#     4  12  25  41  65  88 132 179 232 280 336 394
#     4  10  23  46  75 104 137 178 222 272 348 439
#     4  12  25  43  65 103 136 172 226 290 339 407
#
# _framework density 22.868362999999999
#
# number of rings (size 3 to 8) (size 9 to 14) (size 15 to 20)
#    0.000    0.941    3.529    2.824    0.000    7.529 
#    0.000    5.882    0.000    0.000    0.000    0.000 
#    0.000    0.000    0.000    0.000    0.000    0.000 
#
# Total GULP energy -189520.843596 kJ/mol
# GULP energy per Si atom -5574.142459 kJ/mol
# Density = 2.281631 g / cm^3
# Si number density = 22.868363 Si / 1000 Ang^3
#
#
#
# Elastic Constant Matrix: (Units=GPa)
#
#
# Indices 1 2 3 4 5 6 
#
# 1 68.2926 29.2382 13.0799 0.0000 0.0000 0.0000
# 2 29.2382 128.4831 -1.5986 0.0000 0.0000 0.0000
# 3 13.0799 -1.5986 91.1234 0.0000 0.0000 0.0000
# 4 0.0000 0.0000 0.0000 37.9321 0.0000 0.0000
# 5 0.0000 0.0000 0.0000 0.0000 19.0261 0.0000
# 6 0.0000 0.0000 0.0000 0.0000 0.0000 29.4255
#
#
#
# Elastic Compliance Matrix: (Units=1/GPa)
#
#
# Indices 1 2 3 4 5 6 
#
# 1 0.016763 -0.003845 -0.002474 0.000000 0.000000 0.000000
# 2 -0.003845 0.008667 0.000704 0.000000 0.000000 0.000000
# 3 -0.002474 0.000704 0.011342 0.000000 0.000000 0.000000
# 4 0.000000 0.000000 0.000000 0.026363 0.000000 0.000000
# 5 0.000000 0.000000 0.000000 0.000000 0.052560 0.000000
# 6 0.000000 0.000000 0.000000 0.000000 0.000000 0.033984
#
#
# Mechanical properties :
#
#
# Convention : Reuss Voigt Hill
#
# Bulk Modulus (GPa) = 39.15210 41.03757 40.09484
# Shear Modulus (GPa) = 29.51213 33.75539 31.63376
#
# Velocity S-wave (km/s) = 3.59628 3.84614 3.72331
# Velocity P-wave (km/s) = 5.86533 6.14067 6.00458
#
# Compressibility (1/GPa) = 0.02554141
#
# Stress axis : x y z
#
# Youngs Moduli (GPa) = 59.65523 115.38063 88.17145
#
# Poissons Ratio (x) = 0.44369 0.21810
# Poissons Ratio (y) = 0.22940 -0.06207
# Poissons Ratio (z) = 0.14756 -0.08123
#
# Static dielectric constant tensor:
#      x y z
#    x 1.831330 0.000000 0.000000 
#    y 0.000000 1.972560 0.000000 
#    z 0.000000 0.000000 1.818090 
# 
# From -- ./inp_files/2762.got.cif
#   From: 2010.05.17/outbox.cif.g08.bks.cpg/sg64_2_cif.got.tgz:2762.got - 2010.06.03 16:29:19.
