data_PCOD9479886
_publ_section_title
;
Structure prediction by ZEFSAII (Michael W. Deem and Ramdas Pophale) SiO2 
 PCOD9479886
Probable space group: C M C A
;
_chemical_formula_sum "Si O2"
_cell_formula_units_Z 96
_cell_length_a 14.044089
_cell_length_b 21.420128
_cell_length_c 16.054425
_cell_angle_alpha 90.000000
_cell_angle_beta 90.000000
_cell_angle_gamma 90.000000
_cell_volume 4829.591409
_symmetry_space_group_name_H-M "C M C A"
_symmetry_group_IT_number 64
_symmetry_cell_setting 'orthorhombic'
loop_
_space_group_symop_operation_xyz
x,y,z
-x,1/2-y,1/2+z
x,-y,-z
-x,1/2+y,1/2-z
-x,-y,-z
x,1/2+y,1/2-z
-x,y,z
x,1/2-y,1/2+z
1/2+x,1/2+y,z
1/2-x,-y,1/2+z
1/2+x,1/2-y,-z
1/2-x,y,1/2-z
1/2-x,1/2-y,-z
1/2+x,y,1/2-z
1/2-x,1/2+y,z
1/2+x,-y,1/2+z
loop_
_atom_site_type_symbol
_atom_site_label
_atom_site_fract_x
_atom_site_fract_y
_atom_site_fract_z
Si Si1 0.233347 0.037935 0.121576
Si Si2 0.239801 0.096848 0.947836
Si Si3 0.385476 0.794510 0.378878
Si Si4 0.614228 0.705581 0.535325
Si Si5 0.884893 0.229925 0.207921
Si Si6 0.387568 0.089306 0.240416
O O1 0.324688 0.072638 0.160576
O O2 0.148803 0.042424 0.188336
O O3 0.258880 0.966529 0.102288
O O4 0.204059 0.073284 0.037608
O O5 0.163993 0.140951 0.902606
O O6 0.331935 0.140015 0.961653
O O7 0.500000 0.801109 0.378046
O O8 0.362747 0.744768 0.452167
O O9 0.354192 0.769454 0.288538
O O10 0.500000 0.697485 0.537371
O O11 0.644929 0.743834 0.618271
O O12 0.861388 0.158006 0.225345
O O13 0.000000 0.232685 0.207018
O O14 0.500000 0.086792 0.225147
#
# Coordination Sequence:
#
# PCOD9479886 Si02
#       6
#    16  16  16  16  16  16
#     4  10  24  39  56  86 113 151 204 230 272 355
#     4  11  23  39  56  82 122 154 186 239 288 338
#     4  10  21  37  59  87 116 150 193 240 296 352
#     4  10  21  37  59  87 116 150 193 240 296 352
#     4   9  19  35  58  87 113 144 192 244 293 347
#     4  10  21  41  63  82 113 151 191 242 286 332
#
# _framework density 19.877458000000001
#
# number of rings (size 3 to 8) (size 9 to 14) (size 15 to 20)
#    0.000    2.000    0.000    2.500    0.000   11.333 
#    0.000    5.000    0.000    0.000    0.000    0.000 
#    0.000    0.000    0.000    0.000    0.000    0.000 
#
# Total GULP energy -268241.302751 kJ/mol
# GULP energy per Si atom -5588.360474 kJ/mol
# Density = 1.983222 g / cm^3
# Si number density = 19.877458 Si / 1000 Ang^3
#
#
#
# Elastic Constant Matrix: (Units=GPa)
#
#
# Indices 1 2 3 4 5 6 
#
# 1 69.2117 11.0371 14.6099 0.0000 0.0000 0.0000
# 2 11.0371 94.7618 25.4960 0.0000 0.0000 0.0000
# 3 14.6099 25.4960 93.8662 0.0000 0.0000 0.0000
# 4 0.0000 0.0000 0.0000 26.8916 0.0000 0.0000
# 5 0.0000 0.0000 0.0000 0.0000 22.0556 0.0000
# 6 0.0000 0.0000 0.0000 0.0000 0.0000 2.1542
#
#
#
# Elastic Compliance Matrix: (Units=1/GPa)
#
#
# Indices 1 2 3 4 5 6 
#
# 1 0.015067 -0.001213 -0.002016 0.000000 0.000000 0.000000
# 2 -0.001213 0.011482 -0.002930 0.000000 0.000000 0.000000
# 3 -0.002016 -0.002930 0.011763 0.000000 0.000000 0.000000
# 4 0.000000 0.000000 0.000000 0.037186 0.000000 0.000000
# 5 0.000000 0.000000 0.000000 0.000000 0.045340 0.000000
# 6 0.000000 0.000000 0.000000 0.000000 0.000000 0.464213
#
#
# Mechanical properties :
#
#
# Convention : Reuss Voigt Hill
#
# Bulk Modulus (GPa) = 38.46775 40.01395 39.24085
# Shear Modulus (GPa) = 8.25036 24.00007 16.12521
#
# Velocity S-wave (km/s) = 2.03952 3.47854 2.85130
# Velocity P-wave (km/s) = 4.99406 6.02558 5.53391
#
# Compressibility (1/GPa) = 0.02599580
#
# Stress axis : x y z
#
# Youngs Moduli (GPa) = 66.36886 87.09014 85.01164
#
# Poissons Ratio (x) = 0.10560 0.17137
# Poissons Ratio (y) = 0.08048 0.24909
# Poissons Ratio (z) = 0.13379 0.25518
#
# Static dielectric constant tensor:
#      x y z
#    x 1.715890 0.000000 0.000000 
#    y 0.000000 1.665620 0.000000 
#    z 0.000000 0.000000 1.705520 
# 
# From -- ./inp_files/23946.got.cif
#   From: 2010.05.17/outbox.cif.g08.bks.cpg/sg64_12_cif.got.tgz:23946.got - 2010.06.03 16:29:19.
