data_PCOD9479226
_publ_section_title
;
Structure prediction by ZEFSAII (Michael W. Deem and Ramdas Pophale) SiO2 
 PCOD9479226
Probable space group: C M C A
;
_chemical_formula_sum "Si O2"
_cell_formula_units_Z 80
_cell_length_a 14.853592
_cell_length_b 25.180793
_cell_length_c 10.569192
_cell_angle_alpha 90.000000
_cell_angle_beta 90.000000
_cell_angle_gamma 90.000000
_cell_volume 3953.144421
_symmetry_space_group_name_H-M "C M C A"
_symmetry_group_IT_number 64
_symmetry_cell_setting 'orthorhombic'
loop_
_space_group_symop_operation_xyz
x,y,z
-x,1/2-y,1/2+z
x,-y,-z
-x,1/2+y,1/2-z
-x,-y,-z
x,1/2+y,1/2-z
-x,y,z
x,1/2-y,1/2+z
1/2+x,1/2+y,z
1/2-x,-y,1/2+z
1/2+x,1/2-y,-z
1/2-x,y,1/2-z
1/2-x,1/2-y,-z
1/2+x,y,1/2-z
1/2-x,1/2+y,z
1/2+x,-y,1/2+z
loop_
_atom_site_type_symbol
_atom_site_label
_atom_site_fract_x
_atom_site_fract_y
_atom_site_fract_z
Si Si1 0.825252 0.809111 0.400784
Si Si2 0.701300 0.686363 0.121574
Si Si3 0.500000 0.562632 0.973409
Si Si4 0.000000 0.846286 0.845811
Si Si5 0.646490 0.909001 0.264185
Si Si6 0.500000 0.331531 0.550530
Si Si7 0.000000 0.945485 0.427776
O O1 0.752091 0.834292 0.496332
O O2 0.792167 0.750327 0.371063
O O3 0.849691 0.847041 0.282865
O O4 0.913642 0.805236 0.487335
O O5 0.750000 0.665435 0.250000
O O6 0.595919 0.675083 0.108011
O O7 0.411686 0.580661 0.891213
O O8 0.500000 0.500000 0.000000
O O9 0.500000 0.592995 0.107296
O O10 0.000000 0.830241 0.699665
O O11 0.750000 0.926843 0.250000
O O12 0.587258 0.939292 0.159803
O O13 0.500000 0.393662 0.515460
O O14 0.000000 0.000000 0.500000
#
# Coordination Sequence:
#
# PCOD9479226 Si02
#       7
#    16  16   8   8  16   8   8
#     4  10  21  40  62  94 130 166 210 253 308 392
#     4  11  22  38  62  96 133 169 206 258 314 383
#     4  11  27  46  64  94 128 165 221 282 330 373
#     4  12  24  39  60  89 126 164 206 263 320 369
#     4  10  21  42  66  90 122 164 210 254 317 386
#     4  10  20  38  60  87 125 158 207 255 315 373
#     4   9  21  37  64  88 113 155 201 258 314 368
#
# _framework density 20.237055000000002
#
# number of rings (size 3 to 8) (size 9 to 14) (size 15 to 20)
#    0.000    1.600    2.000    3.000    2.800    2.400 
#    3.600    1.000    0.000    0.000    0.000    0.000 
#    0.000    0.000    0.000    0.000    0.000    0.000 
#
# Total GULP energy -223122.882059 kJ/mol
# GULP energy per Si atom -5578.072051 kJ/mol
# Density = 2.019099 g / cm^3
# Si number density = 20.237055 Si / 1000 Ang^3
#
#
#
# Elastic Constant Matrix: (Units=GPa)
#
#
# Indices 1 2 3 4 5 6 
#
# 1 161.4525 -9.6037 26.3065 0.0000 0.0000 0.0000
# 2 -9.6037 53.3762 12.6496 0.0000 0.0000 0.0000
# 3 26.3065 12.6496 56.4329 0.0000 0.0000 0.0000
# 4 0.0000 0.0000 0.0000 18.0064 0.0000 0.0000
# 5 0.0000 0.0000 0.0000 0.0000 28.7546 0.0000
# 6 0.0000 0.0000 0.0000 0.0000 0.0000 16.2793
#
#
#
# Elastic Compliance Matrix: (Units=1/GPa)
#
#
# Indices 1 2 3 4 5 6 
#
# 1 0.006923 0.002123 -0.003703 0.000000 0.000000 0.000000
# 2 0.002123 0.020437 -0.005571 0.000000 0.000000 0.000000
# 3 -0.003703 -0.005571 0.020695 0.000000 0.000000 0.000000
# 4 0.000000 0.000000 0.000000 0.055536 0.000000 0.000000
# 5 0.000000 0.000000 0.000000 0.000000 0.034777 0.000000
# 6 0.000000 0.000000 0.000000 0.000000 0.000000 0.061428
#
#
# Mechanical properties :
#
#
# Convention : Reuss Voigt Hill
#
# Bulk Modulus (GPa) = 29.62597 36.66294 33.14445
# Shear Modulus (GPa) = 22.18771 28.73533 25.46152
#
# Velocity S-wave (km/s) = 3.31477 3.77229 3.55091
# Velocity P-wave (km/s) = 5.41494 6.09341 5.76416
#
# Compressibility (1/GPa) = 0.03375417
#
# Stress axis : x y z
#
# Youngs Moduli (GPa) = 144.43570 48.93030 48.32024
#
# Poissons Ratio (x) = -0.10390 0.17895
# Poissons Ratio (y) = -0.30669 0.26919
# Poissons Ratio (z) = 0.53490 0.27259
#
# Static dielectric constant tensor:
#      x y z
#    x 1.855250 0.000000 0.000000 
#    y 0.000000 1.690800 0.000000 
#    z 0.000000 0.000000 1.785660 
# 
# From -- ./inp_files/14520.got.cif
#   From: 2010.05.17/outbox.cif.g08.bks.cpg/sg64_8_cif.got.tgz:14520.got - 2010.06.03 16:29:19.
