data_PCOD9479616
_publ_section_title
;
Structure prediction by ZEFSAII (Michael W. Deem and Ramdas Pophale) SiO2 
 PCOD9479616
Probable space group: C M C A
;
_chemical_formula_sum "Si O2"
_cell_formula_units_Z 96
_cell_length_a 20.366576
_cell_length_b 18.652821
_cell_length_c 11.570151
_cell_angle_alpha 90.000000
_cell_angle_beta 90.000000
_cell_angle_gamma 90.000000
_cell_volume 4395.432061
_symmetry_space_group_name_H-M "C M C A"
_symmetry_group_IT_number 64
_symmetry_cell_setting 'orthorhombic'
loop_
_space_group_symop_operation_xyz
x,y,z
-x,1/2-y,1/2+z
x,-y,-z
-x,1/2+y,1/2-z
-x,-y,-z
x,1/2+y,1/2-z
-x,y,z
x,1/2-y,1/2+z
1/2+x,1/2+y,z
1/2-x,-y,1/2+z
1/2+x,1/2-y,-z
1/2-x,y,1/2-z
1/2-x,1/2-y,-z
1/2+x,y,1/2-z
1/2-x,1/2+y,z
1/2+x,-y,1/2+z
loop_
_atom_site_type_symbol
_atom_site_label
_atom_site_fract_x
_atom_site_fract_y
_atom_site_fract_z
Si Si1 0.724213 0.075637 0.561775
Si Si2 0.241684 0.802954 0.873746
Si Si3 0.389607 0.715347 0.397877
Si Si4 0.577355 0.050373 0.112271
Si Si5 0.105428 0.776054 0.347648
Si Si6 0.355705 0.426314 0.284223
O O1 0.727304 0.137519 0.467616
O O2 0.668964 0.091084 0.656566
O O3 0.792480 0.071116 0.632154
O O4 0.713227 0.000000 0.500000
O O5 0.250000 0.840954 0.750000
O O6 0.311775 0.766553 0.898421
O O7 0.182542 0.746976 0.855404
O O8 0.392638 0.628850 0.399352
O O9 0.417834 0.740603 0.273463
O O10 0.419112 0.741090 0.521579
O O11 0.500000 0.059115 0.128682
O O12 0.609617 0.003009 0.212175
O O13 0.587867 0.000000 0.000000
O O14 0.099706 0.861130 0.329050
#
# Coordination Sequence:
#
# PCOD9479616 Si02
#       6
#    16  16  16  16  16  16
#     4  11  23  33  57  93 136 163 202 251 326 384
#     4  10  21  33  57  87 131 168 200 239 313 393
#     4  11  22  38  64  93 130 166 214 256 316 384
#     4  11  23  45  70  89 115 169 231 276 310 364
#     4  11  22  36  61  92 132 163 200 252 319 388
#     4  11  23  38  61  94 127 164 209 266 311 386
#
# _framework density 21.840857
#
# number of rings (size 3 to 8) (size 9 to 14) (size 15 to 20)
#    0.000    1.167    3.333    3.000   14.000    0.000 
#    0.000    1.667    0.000    0.500    0.000    0.000 
#    0.000    0.000    0.000    0.000    0.000    0.000 
#
# Total GULP energy -268208.106436 kJ/mol
# GULP energy per Si atom -5587.668884 kJ/mol
# Density = 2.179115 g / cm^3
# Si number density = 21.840857 Si / 1000 Ang^3
#
#
#
# Elastic Constant Matrix: (Units=GPa)
#
#
# Indices 1 2 3 4 5 6 
#
# 1 42.2773 5.5621 7.9306 0.0000 0.0000 0.0000
# 2 5.5621 102.3309 41.2361 0.0000 0.0000 0.0000
# 3 7.9306 41.2361 199.5094 0.0000 0.0000 0.0000
# 4 0.0000 0.0000 0.0000 44.9823 0.0000 0.0000
# 5 0.0000 0.0000 0.0000 0.0000 -1.5102 0.0000
# 6 0.0000 0.0000 0.0000 0.0000 0.0000 -4.5075
#
#
#
# Elastic Compliance Matrix: (Units=1/GPa)
#
#
# Indices 1 2 3 4 5 6 
#
# 1 0.023925 -0.001001 -0.000744 0.000000 0.000000 0.000000
# 2 -0.001001 0.010702 -0.002172 0.000000 0.000000 0.000000
# 3 -0.000744 -0.002172 0.005491 0.000000 0.000000 0.000000
# 4 0.000000 0.000000 0.000000 0.022231 0.000000 0.000000
# 5 0.000000 0.000000 0.000000 0.000000 -0.662149 0.000000
# 6 0.000000 0.000000 0.000000 0.000000 0.000000 -0.221854
#
#
# Mechanical properties :
#
#
# Convention : Reuss Voigt Hill
#
# Bulk Modulus (GPa) = 30.97554 50.39724 40.68639
# Shear Modulus (GPa) = -6.22619 27.08551 10.42966
#
# Velocity S-wave (km/s) = -1.69024 3.52537 2.18762
# Velocity P-wave (km/s) = 3.22552 6.30046 5.00499
#
# Compressibility (1/GPa) = 0.03228354
#
# Stress axis : x y z
#
# Youngs Moduli (GPa) = 41.79799 93.44114 182.12149
#
# Poissons Ratio (x) = 0.09349 0.13554
# Poissons Ratio (y) = 0.04182 0.39560
# Poissons Ratio (z) = 0.03111 0.20297
#
# Static dielectric constant tensor:
#      x y z
#    x 1.793580 0.000000 0.000000 
#    y 0.000000 1.783790 0.000000 
#    z 0.000000 0.000000 1.887130 
# 
# From -- ./inp_files/18355.got.cif
#   From: 2010.05.17/outbox.cif.g08.bks.cpg/sg64_10_cif.got.tgz:18355.got - 2010.06.03 16:29:19.
