data_PCOD9479791
_publ_section_title
;
Structure prediction by ZEFSAII (Michael W. Deem and Ramdas Pophale) SiO2 
 PCOD9479791
Probable space group: C M C A
;
_chemical_formula_sum "Si O2"
_cell_formula_units_Z 88
_cell_length_a 28.466540
_cell_length_b 9.841944
_cell_length_c 15.271426
_cell_angle_alpha 90.000000
_cell_angle_beta 90.000000
_cell_angle_gamma 90.000000
_cell_volume 4278.535750
_symmetry_space_group_name_H-M "C M C A"
_symmetry_group_IT_number 64
_symmetry_cell_setting 'orthorhombic'
loop_
_space_group_symop_operation_xyz
x,y,z
-x,1/2-y,1/2+z
x,-y,-z
-x,1/2+y,1/2-z
-x,-y,-z
x,1/2+y,1/2-z
-x,y,z
x,1/2-y,1/2+z
1/2+x,1/2+y,z
1/2-x,-y,1/2+z
1/2+x,1/2-y,-z
1/2-x,y,1/2-z
1/2-x,1/2-y,-z
1/2+x,y,1/2-z
1/2-x,1/2+y,z
1/2+x,-y,1/2+z
loop_
_atom_site_type_symbol
_atom_site_label
_atom_site_fract_x
_atom_site_fract_y
_atom_site_fract_z
Si Si1 0.608729 0.500000 0.000000
Si Si2 0.444878 0.475612 0.819951
Si Si3 0.141342 0.209775 0.549193
Si Si4 0.275256 0.604364 0.432584
Si Si5 0.444411 0.655803 0.654365
Si Si6 0.222376 0.338342 0.162398
O O1 0.579215 0.520250 0.910602
O O2 0.636934 0.363498 0.982149
O O3 0.500000 0.505464 0.828664
O O4 0.429493 0.554205 0.732307
O O5 0.439548 0.312505 0.813404
O O6 0.174816 0.137383 0.478183
O O7 0.090301 0.148306 0.570827
O O8 0.169120 0.204954 0.642056
O O9 0.249959 0.500000 0.500000
O O10 0.249800 0.742129 0.406893
O O11 0.278771 0.500844 0.351566
O O12 0.500000 0.633815 0.634273
O O13 0.250000 0.309629 0.250000
#
# Coordination Sequence:
#
# PCOD9479791 Si02
#       6
#     8  16  16  16  16  16
#     4  10  21  36  62  96 126 164 212 256 319 380
#     4   9  18  37  62  89 124 169 216 263 307 368
#     4  10  22  39  63  94 126 170 206 264 312 380
#     4  10  22  43  65  89 125 161 208 262 320 376
#     4   9  19  39  63  93 131 167 213 262 313 370
#     4  11  24  43  66  93 124 166 212 267 320 385
#
# _framework density 20.567784
#
# number of rings (size 3 to 8) (size 9 to 14) (size 15 to 20)
#    0.000    2.182    0.000    3.000    3.818    2.182 
#   26.182    0.000    0.000    4.909    0.000    0.000 
#    0.000    0.000    0.000    0.000    0.000    0.000 
#
# Total GULP energy -245018.045708 kJ/mol
# GULP energy per Si atom -5568.591948 kJ/mol
# Density = 2.052097 g / cm^3
# Si number density = 20.567784 Si / 1000 Ang^3
#
#
#
# Elastic Constant Matrix: (Units=GPa)
#
#
# Indices 1 2 3 4 5 6 
#
# 1 91.6099 42.0662 34.8759 0.0000 0.0000 0.0000
# 2 42.0662 103.8030 27.2427 0.0000 0.0000 0.0000
# 3 34.8759 27.2427 66.4376 0.0000 0.0000 0.0000
# 4 0.0000 0.0000 0.0000 25.1032 0.0000 0.0000
# 5 0.0000 0.0000 0.0000 0.0000 36.6006 0.0000
# 6 0.0000 0.0000 0.0000 0.0000 0.0000 15.8675
#
#
#
# Elastic Compliance Matrix: (Units=1/GPa)
#
#
# Indices 1 2 3 4 5 6 
#
# 1 0.015389 -0.004613 -0.006187 0.000000 0.000000 0.000000
# 2 -0.004613 0.012178 -0.002572 0.000000 0.000000 0.000000
# 3 -0.006187 -0.002572 0.019354 0.000000 0.000000 0.000000
# 4 0.000000 0.000000 0.000000 0.039836 0.000000 0.000000
# 5 0.000000 0.000000 0.000000 0.000000 0.027322 0.000000
# 6 0.000000 0.000000 0.000000 0.000000 0.000000 0.063022
#
#
# Mechanical properties :
#
#
# Convention : Reuss Voigt Hill
#
# Bulk Modulus (GPa) = 49.55970 52.24668 50.90319
# Shear Modulus (GPa) = 23.74498 26.02533 24.88516
#
# Velocity S-wave (km/s) = 3.40144 3.56103 3.48215
# Velocity P-wave (km/s) = 6.29083 6.50886 6.40077
#
# Compressibility (1/GPa) = 0.02017768
#
# Stress axis : x y z
#
# Youngs Moduli (GPa) = 64.97970 82.11518 51.66819
#
# Poissons Ratio (x) = 0.37878 0.31968
# Poissons Ratio (y) = 0.29974 0.13290
# Poissons Ratio (z) = 0.40203 0.21121
#
# Static dielectric constant tensor:
#      x y z
#    x 1.759870 0.000000 0.000000 
#    y 0.000000 1.748090 0.000000 
#    z 0.000000 0.000000 1.805470 
# 
# From -- ./inp_files/27967.got.cif
#   From: 2010.05.17/outbox.cif.g08.bks.cpg/sg64_14_cif.got.tgz:27967.got - 2010.06.03 16:29:19.
