data_PCOD9479774
_publ_section_title
;
Structure prediction by ZEFSAII (Michael W. Deem and Ramdas Pophale) SiO2 
 PCOD9479774
Probable space group: C M C A
;
_chemical_formula_sum "Si O2"
_cell_formula_units_Z 112
_cell_length_a 22.221003
_cell_length_b 22.182730
_cell_length_c 11.072340
_cell_angle_alpha 90.000000
_cell_angle_beta 90.000000
_cell_angle_gamma 90.000000
_cell_volume 5457.805623
_symmetry_space_group_name_H-M "C M C A"
_symmetry_group_IT_number 64
_symmetry_cell_setting 'orthorhombic'
loop_
_space_group_symop_operation_xyz
x,y,z
-x,1/2-y,1/2+z
x,-y,-z
-x,1/2+y,1/2-z
-x,-y,-z
x,1/2+y,1/2-z
-x,y,z
x,1/2-y,1/2+z
1/2+x,1/2+y,z
1/2-x,-y,1/2+z
1/2+x,1/2-y,-z
1/2-x,y,1/2-z
1/2-x,1/2-y,-z
1/2+x,y,1/2-z
1/2-x,1/2+y,z
1/2+x,-y,1/2+z
loop_
_atom_site_type_symbol
_atom_site_label
_atom_site_fract_x
_atom_site_fract_y
_atom_site_fract_z
Si Si1 0.068525 0.750986 0.343243
Si Si2 0.355143 0.637294 0.086527
Si Si3 0.392081 0.845207 0.958607
Si Si4 0.567572 0.430338 0.737570
Si Si5 0.932004 0.648081 0.646188
Si Si6 0.262178 0.296439 0.611333
Si Si7 0.068879 0.059080 0.631813
O O1 0.115362 0.697917 0.357848
O O2 0.076457 0.794708 0.459239
O O3 0.079068 0.791911 0.225243
O O4 0.000000 0.729114 0.339802
O O5 0.383034 0.581940 0.160395
O O6 0.284528 0.648262 0.094972
O O7 0.381699 0.637505 0.952534
O O8 0.386598 0.902846 0.048181
O O9 0.430028 0.872301 0.849183
O O10 0.329560 0.820135 0.908240
O O11 0.500000 0.437673 0.787355
O O12 0.581188 0.489583 0.658361
O O13 0.931946 0.593565 0.740781
O O14 0.000000 0.652557 0.593929
O O15 0.250000 0.273474 0.750000
O O16 0.250000 0.250000 0.500000
O O17 0.000000 0.064433 0.582209
#
# Coordination Sequence:
#
# PCOD9479774 Si02
#       7
#    16  16  16  16  16  16  16
#     4  10  21  36  59  95 131 163 206 269 334 394
#     4  12  24  38  60  90 128 172 215 260 331 396
#     4  11  21  40  65  90 125 169 219 266 326 389
#     4  11  22  37  65  99 131 162 209 272 338 395
#     4   9  20  38  60  90 129 165 205 260 327 395
#     4  12  27  46  66  91 130 181 224 276 325 392
#     4   9  20  40  67  98 129 167 212 271 337 398
#
# _framework density 20.521068
#
# number of rings (size 3 to 8) (size 9 to 14) (size 15 to 20)
#    0.000    1.429    2.857    3.857    4.000    1.714 
#    0.000    2.143    9.429    0.000    0.000    0.000 
#    0.000    0.000    0.000    0.000    0.000    0.000 
#
# Total GULP energy -312925.346909 kJ/mol
# GULP energy per Si atom -5587.952623 kJ/mol
# Density = 2.047436 g / cm^3
# Si number density = 20.521068 Si / 1000 Ang^3
#
#
#
# Elastic Constant Matrix: (Units=GPa)
#
#
# Indices 1 2 3 4 5 6 
#
# 1 81.2381 15.5106 25.6791 0.0000 0.0000 0.0000
# 2 15.5106 69.4413 16.1384 0.0000 0.0000 0.0000
# 3 25.6791 16.1384 107.1584 0.0000 0.0000 0.0000
# 4 0.0000 0.0000 0.0000 8.6088 0.0000 0.0000
# 5 0.0000 0.0000 0.0000 0.0000 29.5243 0.0000
# 6 0.0000 0.0000 0.0000 0.0000 0.0000 19.6609
#
#
#
# Elastic Compliance Matrix: (Units=1/GPa)
#
#
# Indices 1 2 3 4 5 6 
#
# 1 0.013687 -0.002378 -0.002922 0.000000 0.000000 0.000000
# 2 -0.002378 0.015336 -0.001740 0.000000 0.000000 0.000000
# 3 -0.002922 -0.001740 0.010294 0.000000 0.000000 0.000000
# 4 0.000000 0.000000 0.000000 0.116160 0.000000 0.000000
# 5 0.000000 0.000000 0.000000 0.000000 0.033870 0.000000
# 6 0.000000 0.000000 0.000000 0.000000 0.000000 0.050862
#
#
# Mechanical properties :
#
#
# Convention : Reuss Voigt Hill
#
# Bulk Modulus (GPa) = 39.62277 41.38822 40.50550
# Shear Modulus (GPa) = 19.03294 24.92612 21.97953
#
# Velocity S-wave (km/s) = 3.04876 3.48898 3.27627
# Velocity P-wave (km/s) = 5.63414 6.03681 5.83895
#
# Compressibility (1/GPa) = 0.02523801
#
# Stress axis : x y z
#
# Youngs Moduli (GPa) = 73.06143 65.20528 97.14245
#
# Poissons Ratio (x) = 0.15507 0.28383
# Poissons Ratio (y) = 0.17375 0.16901
# Poissons Ratio (z) = 0.21347 0.11344
#
# Static dielectric constant tensor:
#      x y z
#    x 1.699500 0.000000 0.000000 
#    y 0.000000 1.738090 0.000000 
#    z 0.000000 0.000000 1.794850 
# 
# From -- ./inp_files/17561.got.cif
#   From: 2010.05.17/outbox.cif.g08.bks.cpg/sg64_9_cif.got.tgz:17561.got - 2010.06.03 16:29:19.
