data_PCOD9479073
_publ_section_title
;
Structure prediction by ZEFSAII (Michael W. Deem and Ramdas Pophale) SiO2 
 PCOD9479073
Probable space group: C M C A
;
_chemical_formula_sum "Si O2"
_cell_formula_units_Z 88
_cell_length_a 10.529655
_cell_length_b 14.984507
_cell_length_c 27.528137
_cell_angle_alpha 90.000000
_cell_angle_beta 90.000000
_cell_angle_gamma 90.000000
_cell_volume 4343.435952
_symmetry_space_group_name_H-M "C M C A"
_symmetry_group_IT_number 64
_symmetry_cell_setting 'orthorhombic'
loop_
_space_group_symop_operation_xyz
x,y,z
-x,1/2-y,1/2+z
x,-y,-z
-x,1/2+y,1/2-z
-x,-y,-z
x,1/2+y,1/2-z
-x,y,z
x,1/2-y,1/2+z
1/2+x,1/2+y,z
1/2-x,-y,1/2+z
1/2+x,1/2-y,-z
1/2-x,y,1/2-z
1/2-x,1/2-y,-z
1/2+x,y,1/2-z
1/2-x,1/2+y,z
1/2+x,-y,1/2+z
loop_
_atom_site_type_symbol
_atom_site_label
_atom_site_fract_x
_atom_site_fract_y
_atom_site_fract_z
Si Si1 0.250000 0.776381 0.750000
Si Si2 0.144688 0.626532 0.422009
Si Si3 0.350193 0.428030 0.820216
Si Si4 0.142001 0.627810 0.688134
Si Si5 0.142573 0.670739 0.889418
Si Si6 0.857242 0.606193 0.997950
O O1 0.287511 0.845372 0.707510
O O2 0.149204 0.705096 0.728809
O O3 0.189223 0.564779 0.376994
O O4 0.138287 0.723576 0.397745
O O5 0.245852 0.632046 0.465148
O O6 0.000000 0.602159 0.437552
O O7 0.500000 0.408715 0.821055
O O8 0.335353 0.525215 0.795905
O O9 0.251700 0.648690 0.649726
O O10 0.000000 0.629222 0.666532
O O11 0.000000 0.640411 0.875011
O O12 0.171728 0.632214 0.942691
O O13 0.000000 0.642342 0.009744
O O14 0.864363 0.500000 0.000000
#
# Coordination Sequence:
#
# PCOD9479073 Si02
#       6
#     8  16  16  16  16  16
#     4  12  22  42  64  88 124 160 202 256 316 366
#     4  10  20  37  60  84 118 165 203 244 305 367
#     4  10  22  41  61  88 126 161 200 252 310 369
#     4  11  24  40  65  96 121 158 211 257 300 366
#     4  10  21  39  61  86 124 167 199 246 314 366
#     4  10  21  36  56  87 123 158 203 255 302 357
#
# _framework density 20.260458
#
# number of rings (size 3 to 8) (size 9 to 14) (size 15 to 20)
#    0.000    1.636    1.818    2.727    0.000    2.545 
#    0.000    1.818    0.000    0.000    0.000    0.000 
#    0.000    0.000    0.000    0.000    0.000    0.000 
#
# Total GULP energy -245339.922813 kJ/mol
# GULP energy per Si atom -5575.907337 kJ/mol
# Density = 2.021434 g / cm^3
# Si number density = 20.260458 Si / 1000 Ang^3
#
#
#
# Elastic Constant Matrix: (Units=GPa)
#
#
# Indices 1 2 3 4 5 6 
#
# 1 114.1222 16.7791 67.6843 0.0000 0.0000 0.0000
# 2 16.7791 96.0951 9.2807 0.0000 0.0000 0.0000
# 3 67.6843 9.2807 69.2416 0.0000 0.0000 0.0000
# 4 0.0000 0.0000 0.0000 27.8446 0.0000 0.0000
# 5 0.0000 0.0000 0.0000 0.0000 -26.7090 0.0000
# 6 0.0000 0.0000 0.0000 0.0000 0.0000 30.6135
#
#
#
# Elastic Compliance Matrix: (Units=1/GPa)
#
#
# Indices 1 2 3 4 5 6 
#
# 1 0.021127 -0.001717 -0.020421 0.000000 0.000000 0.000000
# 2 -0.001717 0.010682 0.000246 0.000000 0.000000 0.000000
# 3 -0.020421 0.000246 0.034371 0.000000 0.000000 0.000000
# 4 0.000000 0.000000 0.000000 0.035914 0.000000 0.000000
# 5 0.000000 0.000000 0.000000 0.000000 -0.037441 0.000000
# 6 0.000000 0.000000 0.000000 0.000000 0.000000 0.032665
#
#
# Mechanical properties :
#
#
# Convention : Reuss Voigt Hill
#
# Bulk Modulus (GPa) = 44.64953 51.88302 48.26627
# Shear Modulus (GPa) = 33.65480 18.73082 26.19281
#
# Velocity S-wave (km/s) = 4.08009 3.04386 3.59946
# Velocity P-wave (km/s) = 6.65446 6.16580 6.41478
#
# Compressibility (1/GPa) = 0.02239665
#
# Stress axis : x y z
#
# Youngs Moduli (GPa) = 47.33389 93.61261 29.09413
#
# Poissons Ratio (x) = 0.16070 0.59414
# Poissons Ratio (y) = 0.08125 -0.00716
# Poissons Ratio (z) = 0.96662 -0.02305
#
# Static dielectric constant tensor:
#      x y z
#    x 1.741890 0.000000 0.000000 
#    y 0.000000 1.745150 0.000000 
#    z 0.000000 0.000000 1.782350 
# 
# From -- ./inp_files/44077.got.cif
#   From: 2010.05.17/outbox.cif.g08.bks.cpg/sg64_23_cif.got.tgz:44077.got - 2010.06.03 16:29:19.
