data_PCOD9479370
_publ_section_title
;
Structure prediction by ZEFSAII (Michael W. Deem and Ramdas Pophale) SiO2 
 PCOD9479370
Probable space group: C M C A
;
_chemical_formula_sum "Si O2"
_cell_formula_units_Z 72
_cell_length_a 15.580942
_cell_length_b 14.213816
_cell_length_c 15.933812
_cell_angle_alpha 90.000000
_cell_angle_beta 90.000000
_cell_angle_gamma 90.000000
_cell_volume 3528.775981
_symmetry_space_group_name_H-M "C M C A"
_symmetry_group_IT_number 64
_symmetry_cell_setting 'orthorhombic'
loop_
_space_group_symop_operation_xyz
x,y,z
-x,1/2-y,1/2+z
x,-y,-z
-x,1/2+y,1/2-z
-x,-y,-z
x,1/2+y,1/2-z
-x,y,z
x,1/2-y,1/2+z
1/2+x,1/2+y,z
1/2-x,-y,1/2+z
1/2+x,1/2-y,-z
1/2-x,y,1/2-z
1/2-x,1/2-y,-z
1/2+x,y,1/2-z
1/2-x,1/2+y,z
1/2+x,-y,1/2+z
loop_
_atom_site_type_symbol
_atom_site_label
_atom_site_fract_x
_atom_site_fract_y
_atom_site_fract_z
Si Si1 0.000000 0.835289 0.079927
Si Si2 0.336149 0.215119 0.106385
Si Si3 0.667477 0.672954 0.593366
Si Si4 0.500000 0.712768 0.116812
Si Si5 0.500000 0.008190 0.313596
Si Si6 0.900029 0.483055 0.841297
O O1 0.082956 0.783354 0.116291
O O2 0.000000 0.943570 0.105746
O O3 0.000000 0.819838 0.980390
O O4 0.251074 0.273664 0.127411
O O5 0.354744 0.117562 0.153070
O O6 0.331755 0.187167 0.007371
O O7 0.583741 0.724612 0.629656
O O8 0.654464 0.563354 0.613358
O O9 0.500000 0.618610 0.169983
O O10 0.418203 0.987400 0.254609
O O11 0.000000 0.475514 0.875728
#
# Coordination Sequence:
#
# PCOD9479370 Si02
#       6
#     8  16  16   8   8  16
#     4  10  20  39  61  83 120 163 201 254 309 354
#     4  10  21  37  62  93 120 155 206 251 298 360
#     4  10  21  37  62  93 120 155 206 251 298 360
#     4  10  20  39  61  83 120 163 201 254 309 354
#     4  10  23  38  59  86 118 162 210 242 303 378
#     4  10  21  38  63  85 123 161 194 252 300 358
#
# _framework density 20.403675
#
# number of rings (size 3 to 8) (size 9 to 14) (size 15 to 20)
#    0.667    1.333    2.222    1.000    0.000    6.222 
#    0.000   13.333    0.000    0.000    0.000    0.000 
#    0.000    0.000    0.000    0.000    0.000    0.000 
#
# Total GULP energy -200937.575605 kJ/mol
# GULP energy per Si atom -5581.599322 kJ/mol
# Density = 2.035724 g / cm^3
# Si number density = 20.403675 Si / 1000 Ang^3
#
#
#
# Elastic Constant Matrix: (Units=GPa)
#
#
# Indices 1 2 3 4 5 6 
#
# 1 134.8516 27.5706 10.6654 0.0000 0.0000 0.0000
# 2 27.5706 65.2206 7.4221 0.0000 0.0000 0.0000
# 3 10.6654 7.4221 12.5294 0.0000 0.0000 0.0000
# 4 0.0000 0.0000 0.0000 32.7997 0.0000 0.0000
# 5 0.0000 0.0000 0.0000 0.0000 -0.2096 0.0000
# 6 0.0000 0.0000 0.0000 0.0000 0.0000 51.2814
#
#
#
# Elastic Compliance Matrix: (Units=1/GPa)
#
#
# Indices 1 2 3 4 5 6 
#
# 1 0.008450 -0.002952 -0.005444 0.000000 0.000000 0.000000
# 2 -0.002952 0.017473 -0.007837 0.000000 0.000000 0.000000
# 3 -0.005444 -0.007837 0.089089 0.000000 0.000000 0.000000
# 4 0.000000 0.000000 0.000000 0.030488 0.000000 0.000000
# 5 0.000000 0.000000 0.000000 0.000000 -4.772063 0.000000
# 6 0.000000 0.000000 0.000000 0.000000 0.000000 0.019500
#
#
# Mechanical properties :
#
#
# Convention : Reuss Voigt Hill
#
# Bulk Modulus (GPa) = 12.11467 33.76863 22.94165
# Shear Modulus (GPa) = -1.09961 27.90386 13.40213
#
# Velocity S-wave (km/s) = -0.73491 3.70211 2.56569
# Velocity P-wave (km/s) = 2.28698 5.90426 4.47720
#
# Compressibility (1/GPa) = 0.08254455
#
# Stress axis : x y z
#
# Youngs Moduli (GPa) = 118.34683 57.23274 11.22477
#
# Poissons Ratio (x) = 0.16898 0.06110
# Poissons Ratio (y) = 0.34941 0.08797
# Poissons Ratio (z) = 0.64425 0.44853
#
# Static dielectric constant tensor:
#      x y z
#    x 1.720540 0.000000 0.000000 
#    y 0.000000 1.684610 0.000000 
#    z 0.000000 0.000000 1.764780 
# 
# From -- ./inp_files/32913.got.cif
#   From: 2010.05.17/outbox.cif.g08.bks.cpg/sg64_17_cif.got.tgz:32913.got - 2010.06.03 16:29:19.
