data_PCOD9479042
_publ_section_title
;
Structure prediction by ZEFSAII (Michael W. Deem and Ramdas Pophale) SiO2 
 PCOD9479042
Probable space group: C M C A
;
_chemical_formula_sum "Si O2"
_cell_formula_units_Z 116
_cell_length_a 8.863382
_cell_length_b 24.777130
_cell_length_c 29.117184
_cell_angle_alpha 90.000000
_cell_angle_beta 90.000000
_cell_angle_gamma 90.000000
_cell_volume 6394.400554
_symmetry_space_group_name_H-M "C M C A"
_symmetry_group_IT_number 64
_symmetry_cell_setting 'orthorhombic'
loop_
_space_group_symop_operation_xyz
x,y,z
-x,1/2-y,1/2+z
x,-y,-z
-x,1/2+y,1/2-z
-x,-y,-z
x,1/2+y,1/2-z
-x,y,z
x,1/2-y,1/2+z
1/2+x,1/2+y,z
1/2-x,-y,1/2+z
1/2+x,1/2-y,-z
1/2-x,y,1/2-z
1/2-x,1/2-y,-z
1/2+x,y,1/2-z
1/2-x,1/2+y,z
1/2+x,-y,1/2+z
loop_
_atom_site_type_symbol
_atom_site_label
_atom_site_fract_x
_atom_site_fract_y
_atom_site_fract_z
Si Si1 0.833319 0.093413 0.948693
Si Si2 0.681501 0.674793 0.299347
Si Si3 0.821456 0.235757 0.639656
Si Si4 0.180735 0.950455 0.356904
Si Si5 0.820572 0.356796 0.299180
Si Si6 0.321774 0.294185 0.466487
Si Si7 0.000000 0.500000 0.500000
Si Si8 0.180422 0.451025 0.798515
O O1 0.743405 0.068777 0.905725
O O2 0.753033 0.146378 0.968777
O O3 0.000000 0.110998 0.931137
O O4 0.870789 0.045069 0.983994
O O5 0.500000 0.681063 0.298621
O O6 0.750000 0.692004 0.250000
O O7 0.755142 0.709327 0.339715
O O8 0.720110 0.611596 0.305382
O O9 0.732103 0.188719 0.665443
O O10 0.802076 0.227351 0.585520
O O11 0.000000 0.231757 0.649942
O O12 0.250733 0.911896 0.318335
O O13 0.000000 0.945291 0.356996
O O14 0.223800 0.010778 0.340901
O O15 0.750000 0.344070 0.250000
O O16 0.000000 0.359829 0.296167
O O17 0.500000 0.299080 0.475521
O O18 0.250000 0.250000 0.500000
O O19 0.250000 0.469149 0.750000
O O20 0.000000 0.454111 0.793928
#
# Coordination Sequence:
#
# PCOD9479042 Si02
#       8
#    16  16  16  16  16  16   4  16
#     4  10  21  43  67  92 126 164 210 263 332 395
#     4  10  20  37  58  83 122 166 211 258 308 371
#     4  11  23  40  60  89 121 161 207 256 316 381
#     4  11  21  37  61  91 125 163 207 260 317 384
#     4  12  24  37  58  90 127 169 208 257 309 379
#     4  11  24  43  69  97 128 167 213 275 339 407
#     4   8  24  44  70  96 128 168 210 274 320 408
#     4   9  20  36  55  81 119 162 209 255 304 364
#
# _framework density 18.140872000000002
#
# number of rings (size 3 to 8) (size 9 to 14) (size 15 to 20)
#    0.414    1.103    1.379    4.138    0.000    4.414 
#    2.483    1.379    0.000    0.000    0.000    0.000 
#    0.000    0.000    0.000    0.000    0.000    0.000 
#
# Total GULP energy -323219.839803 kJ/mol
# GULP energy per Si atom -5572.755859 kJ/mol
# Density = 1.809958 g / cm^3
# Si number density = 18.140872 Si / 1000 Ang^3
#
#
#
# Elastic Constant Matrix: (Units=GPa)
#
#
# Indices 1 2 3 4 5 6 
#
# 1 112.9321 57.4173 53.2805 0.0000 0.0000 0.0000
# 2 57.4173 114.6255 53.1234 0.0000 0.0000 0.0000
# 3 53.2805 53.1234 66.2170 0.0000 0.0000 0.0000
# 4 0.0000 0.0000 0.0000 83.9965 0.0000 0.0000
# 5 0.0000 0.0000 0.0000 0.0000 30.9941 0.0000
# 6 0.0000 0.0000 0.0000 0.0000 0.0000 29.7281
#
#
#
# Elastic Compliance Matrix: (Units=1/GPa)
#
#
# Indices 1 2 3 4 5 6 
#
# 1 0.014910 -0.003038 -0.009559 0.000000 0.000000 0.000000
# 2 -0.003038 0.014507 -0.009194 0.000000 0.000000 0.000000
# 3 -0.009559 -0.009194 0.030169 0.000000 0.000000 0.000000
# 4 0.000000 0.000000 0.000000 0.011905 0.000000 0.000000
# 5 0.000000 0.000000 0.000000 0.000000 0.032264 0.000000
# 6 0.000000 0.000000 0.000000 0.000000 0.000000 0.033638
#
#
# Mechanical properties :
#
#
# Convention : Reuss Voigt Hill
#
# Bulk Modulus (GPa) = 62.48667 69.04634 65.76651
# Shear Modulus (GPa) = 26.83702 37.60732 32.22217
#
# Velocity S-wave (km/s) = 3.85043 4.55804 4.21909
# Velocity P-wave (km/s) = 7.36802 8.11448 7.75024
#
# Compressibility (1/GPa) = 0.01600341
#
# Stress axis : x y z
#
# Youngs Moduli (GPa) = 67.07105 68.93395 33.14618
#
# Poissons Ratio (x) = 0.20942 0.31686
# Poissons Ratio (y) = 0.20377 0.30473
# Poissons Ratio (z) = 0.64116 0.63375
#
# Static dielectric constant tensor:
#      x y z
#    x 1.615650 0.000000 0.000000 
#    y 0.000000 1.672090 0.000000 
#    z 0.000000 0.000000 1.604120 
# 
# From -- ./inp_files/52289.got.cif
#   From: 2010.05.17/outbox.cif.g08.bks.cpg/sg64_27_cif.got.tgz:52289.got - 2010.06.03 16:29:19.
