data_PCOD9479436
_publ_section_title
;
Structure prediction by ZEFSAII (Michael W. Deem and Ramdas Pophale) SiO2 
 PCOD9479436
Probable space group: C M C A
;
_chemical_formula_sum "Si O2"
_cell_formula_units_Z 72
_cell_length_a 13.368104
_cell_length_b 9.683979
_cell_length_c 26.062966
_cell_angle_alpha 90.000000
_cell_angle_beta 90.000000
_cell_angle_gamma 90.000000
_cell_volume 3374.018753
_symmetry_space_group_name_H-M "C M C A"
_symmetry_group_IT_number 64
_symmetry_cell_setting 'orthorhombic'
loop_
_space_group_symop_operation_xyz
x,y,z
-x,1/2-y,1/2+z
x,-y,-z
-x,1/2+y,1/2-z
-x,-y,-z
x,1/2+y,1/2-z
-x,y,z
x,1/2-y,1/2+z
1/2+x,1/2+y,z
1/2-x,-y,1/2+z
1/2+x,1/2-y,-z
1/2-x,y,1/2-z
1/2-x,1/2-y,-z
1/2+x,y,1/2-z
1/2-x,1/2+y,z
1/2+x,-y,1/2+z
loop_
_atom_site_type_symbol
_atom_site_label
_atom_site_fract_x
_atom_site_fract_y
_atom_site_fract_z
Si Si1 0.615484 0.727098 0.204620
Si Si2 0.750000 0.977907 0.250000
Si Si3 0.218841 0.524346 0.438850
Si Si4 0.000000 0.165694 0.503879
Si Si5 0.500000 0.071759 0.555889
Si Si6 0.341218 0.711332 0.590370
O O1 0.500000 0.720750 0.223830
O O2 0.679180 0.588656 0.219110
O O3 0.612096 0.741408 0.143083
O O4 0.674010 0.866656 0.223194
O O5 0.228851 0.500000 0.500000
O O6 0.105722 0.481529 0.422444
O O7 0.294616 0.437060 0.405821
O O8 0.242968 0.680922 0.425908
O O9 0.908950 0.209454 0.540051
O O10 0.000000 0.263330 0.454124
O O11 0.000000 0.000000 0.500000
O O12 0.500000 0.000000 0.500000
#
# Coordination Sequence:
#
# PCOD9479436 Si02
#       6
#    16   8  16   8   8  16
#     4  11  23  44  72  96 131 164 211 267 329 400
#     4  10  24  46  70 100 126 166 206 264 348 398
#     4  11  22  37  59  82 127 170 212 255 308 361
#     4  12  24  38  58  86 126 171 211 252 304 360
#     4  10  20  40  56  78 118 177 213 244 306 370
#     4  12  23  39  60  92 120 162 212 261 305 372
#
# _framework density 21.339535999999999
#
# number of rings (size 3 to 8) (size 9 to 14) (size 15 to 20)
#    0.000    0.889    5.556    3.333    3.111    0.000 
#    0.000    0.000    2.444    0.000    0.000    0.000 
#    0.000    0.000    0.000    0.000    0.000    0.000 
#
# Total GULP energy -200624.870455 kJ/mol
# GULP energy per Si atom -5572.913068 kJ/mol
# Density = 2.129097 g / cm^3
# Si number density = 21.339536 Si / 1000 Ang^3
#
#
#
# Elastic Constant Matrix: (Units=GPa)
#
#
# Indices 1 2 3 4 5 6 
#
# 1 83.9095 14.9046 19.2555 0.0000 0.0000 0.0000
# 2 14.9046 157.9306 30.2834 0.0000 0.0000 0.0000
# 3 19.2555 30.2834 53.4563 0.0000 0.0000 0.0000
# 4 0.0000 0.0000 0.0000 25.3486 0.0000 0.0000
# 5 0.0000 0.0000 0.0000 0.0000 -6.5524 0.0000
# 6 0.0000 0.0000 0.0000 0.0000 0.0000 24.6790
#
#
#
# Elastic Compliance Matrix: (Units=1/GPa)
#
#
# Indices 1 2 3 4 5 6 
#
# 1 0.013011 -0.000369 -0.004477 0.000000 0.000000 0.000000
# 2 -0.000369 0.007114 -0.003897 0.000000 0.000000 0.000000
# 3 -0.004477 -0.003897 0.022527 0.000000 0.000000 0.000000
# 4 0.000000 0.000000 0.000000 0.039450 0.000000 0.000000
# 5 0.000000 0.000000 0.000000 0.000000 -0.152617 0.000000
# 6 0.000000 0.000000 0.000000 0.000000 0.000000 0.040520
#
#
# Mechanical properties :
#
#
# Convention : Reuss Voigt Hill
#
# Bulk Modulus (GPa) = 39.73853 47.13150 43.43501
# Shear Modulus (GPa) = -1213.86673 24.08526 -594.89073
#
# Velocity S-wave (km/s) = -23.87613 3.36321 -16.71464
# Velocity P-wave (km/s) = 27.22922 6.10049 18.76452
#
# Compressibility (1/GPa) = 0.02516450
#
# Stress axis : x y z
#
# Youngs Moduli (GPa) = 76.86007 140.56740 44.39044
#
# Poissons Ratio (x) = 0.05192 0.19875
# Poissons Ratio (y) = 0.02839 0.17299
# Poissons Ratio (z) = 0.34413 0.54781
#
# Static dielectric constant tensor:
#      x y z
#    x 1.846750 0.000000 0.000000 
#    y 0.000000 1.832680 0.000000 
#    z 0.000000 0.000000 1.774530 
# 
# From -- ./inp_files/49855.got.cif
#   From: 2010.05.17/outbox.cif.g08.bks.cpg/sg64_25_cif.got.tgz:49855.got - 2010.06.03 16:29:19.
