data_PCOD9479826
_publ_section_title
;
Structure prediction by ZEFSAII (Michael W. Deem and Ramdas Pophale) SiO2 
 PCOD9479826
Probable space group: C M C A
;
_chemical_formula_sum "Si O2"
_cell_formula_units_Z 80
_cell_length_a 26.157664
_cell_length_b 5.084267
_cell_length_c 24.475981
_cell_angle_alpha 90.000000
_cell_angle_beta 90.000000
_cell_angle_gamma 90.000000
_cell_volume 3255.123075
_symmetry_space_group_name_H-M "C M C A"
_symmetry_group_IT_number 64
_symmetry_cell_setting 'orthorhombic'
loop_
_space_group_symop_operation_xyz
x,y,z
-x,1/2-y,1/2+z
x,-y,-z
-x,1/2+y,1/2-z
-x,-y,-z
x,1/2+y,1/2-z
-x,y,z
x,1/2-y,1/2+z
1/2+x,1/2+y,z
1/2-x,-y,1/2+z
1/2+x,1/2-y,-z
1/2-x,y,1/2-z
1/2-x,1/2-y,-z
1/2+x,y,1/2-z
1/2-x,1/2+y,z
1/2+x,-y,1/2+z
loop_
_atom_site_type_symbol
_atom_site_label
_atom_site_fract_x
_atom_site_fract_y
_atom_site_fract_z
Si Si1 0.806395 0.732402 0.728722
Si Si2 0.945706 0.749551 0.960998
Si Si3 0.341515 0.512080 0.064213
Si Si4 0.059031 0.486259 0.210867
Si Si5 0.844689 0.977951 0.372270
O O1 0.831306 0.444848 0.729907
O O2 0.750000 0.671344 0.750000
O O3 0.808374 0.876861 0.671867
O O4 0.894884 0.822297 0.929503
O O5 0.000000 0.720037 0.931444
O O6 0.938882 0.500000 0.000000
O O7 0.949875 0.000000 0.000000
O O8 0.349539 0.214249 0.083141
O O9 0.313931 0.721875 0.103833
O O10 0.326932 0.500000 0.000000
O O11 0.064071 0.260004 0.256588
O O12 0.101997 0.464633 0.163462
O O13 0.000000 0.473045 0.189996
#
# Coordination Sequence:
#
# PCOD9479826 Si02
#       5
#    16  16  16  16  16
#     4  10  21  39  64  96 122 141 180 247 313 370
#     4   9  17  31  49  68 100 151 206 258 294 311
#     4  11  23  37  53  82 121 162 208 249 286 343
#     4  10  21  37  56  82 119 158 198 248 305 367
#     4  12  22  36  61  87 118 161 201 243 303 358
#
# _framework density 24.576646
#
# number of rings (size 3 to 8) (size 9 to 14) (size 15 to 20)
#    0.000    1.600    0.000    6.600    0.000    1.600 
#    0.000    0.000    0.000    0.000    0.000   56.000 
#    0.000    0.000    0.000    0.000    0.000    0.000 
#
# Total GULP energy -222967.884357 kJ/mol
# GULP energy per Si atom -5574.197109 kJ/mol
# Density = 2.452071 g / cm^3
# Si number density = 24.576646 Si / 1000 Ang^3
#
#
#
# Elastic Constant Matrix: (Units=GPa)
#
#
# Indices 1 2 3 4 5 6 
#
# 1 57.7178 -10.8237 0.6793 0.0000 0.0000 0.0000
# 2 -10.8237 170.8002 31.9398 0.0000 0.0000 0.0000
# 3 0.6793 31.9398 117.7259 0.0000 0.0000 0.0000
# 4 0.0000 0.0000 0.0000 52.1006 0.0000 0.0000
# 5 0.0000 0.0000 0.0000 0.0000 5.9617 0.0000
# 6 0.0000 0.0000 0.0000 0.0000 0.0000 21.4238
#
#
#
# Elastic Compliance Matrix: (Units=1/GPa)
#
#
# Indices 1 2 3 4 5 6 
#
# 1 0.017554 0.001192 -0.000425 0.000000 0.000000 0.000000
# 2 0.001192 0.006249 -0.001702 0.000000 0.000000 0.000000
# 3 -0.000425 -0.001702 0.008959 0.000000 0.000000 0.000000
# 4 0.000000 0.000000 0.000000 0.019194 0.000000 0.000000
# 5 0.000000 0.000000 0.000000 0.000000 0.167736 0.000000
# 6 0.000000 0.000000 0.000000 0.000000 0.000000 0.046677
#
#
# Mechanical properties :
#
#
# Convention : Reuss Voigt Hill
#
# Bulk Modulus (GPa) = 32.37147 43.31495 37.84321
# Shear Modulus (GPa) = 17.95106 37.52715 27.73911
#
# Velocity S-wave (km/s) = 2.70554 3.91185 3.36322
# Velocity P-wave (km/s) = 4.79168 6.16978 5.52387
#
# Compressibility (1/GPa) = 0.03089140
#
# Stress axis : x y z
#
# Youngs Moduli (GPa) = 56.96655 160.03516 111.62501
#
# Poissons Ratio (x) = -0.19073 0.04740
# Poissons Ratio (y) = -0.06789 0.19000
# Poissons Ratio (z) = 0.02419 0.27241
#
# Static dielectric constant tensor:
#      x y z
#    x 2.928080 0.000000 0.000000 
#    y 0.000000 2.073190 0.000000 
#    z 0.000000 0.000000 2.131420 
# 
# From -- ./inp_files/47041.got.cif
#   From: 2010.05.17/outbox.cif.g08.bks.cpg/sg64_24_cif.got.tgz:47041.got - 2010.06.03 16:29:19.
