data_PCOD9479841
_publ_section_title
;
Structure prediction by ZEFSAII (Michael W. Deem and Ramdas Pophale) SiO2 
 PCOD9479841
Probable space group: C M C A
;
_chemical_formula_sum "Si O2"
_cell_formula_units_Z 80
_cell_length_a 17.997894
_cell_length_b 25.973364
_cell_length_c 7.291443
_cell_angle_alpha 90.000000
_cell_angle_beta 90.000000
_cell_angle_gamma 90.000000
_cell_volume 3408.500615
_symmetry_space_group_name_H-M "C M C A"
_symmetry_group_IT_number 64
_symmetry_cell_setting 'orthorhombic'
loop_
_space_group_symop_operation_xyz
x,y,z
-x,1/2-y,1/2+z
x,-y,-z
-x,1/2+y,1/2-z
-x,-y,-z
x,1/2+y,1/2-z
-x,y,z
x,1/2-y,1/2+z
1/2+x,1/2+y,z
1/2-x,-y,1/2+z
1/2+x,1/2-y,-z
1/2-x,y,1/2-z
1/2-x,1/2-y,-z
1/2+x,y,1/2-z
1/2-x,1/2+y,z
1/2+x,-y,1/2+z
loop_
_atom_site_type_symbol
_atom_site_label
_atom_site_fract_x
_atom_site_fract_y
_atom_site_fract_z
Si Si1 0.161877 0.541452 0.771291
Si Si2 0.087451 0.324508 0.867913
Si Si3 0.413859 0.143941 0.697454
Si Si4 0.337141 0.929522 0.800315
Si Si5 0.188587 0.726086 0.628774
O O1 0.250000 0.543277 0.750000
O O2 0.121146 0.588024 0.672965
O O3 0.138681 0.483959 0.711891
O O4 0.152193 0.555090 0.985955
O O5 0.116599 0.377470 0.777833
O O6 0.138895 0.275678 0.814768
O O7 0.000000 0.315253 0.831654
O O8 0.094994 0.334557 0.090881
O O9 0.500000 0.142661 0.658272
O O10 0.370962 0.184525 0.573413
O O11 0.250000 0.920710 0.750000
O O12 0.250000 0.695292 0.750000
O O13 0.250000 0.750000 0.500000
#
# Coordination Sequence:
#
# PCOD9479841 Si02
#       5
#    16  16  16  16  16
#     4   9  18  33  59  84 114 153 195 237 288 348
#     4  10  21  37  57  84 119 149 188 242 293 344
#     4  10  21  37  57  85 119 151 189 240 295 346
#     4   9  18  34  57  87 113 150 196 242 284 341
#     4  12  23  39  61  84 112 153 199 241 284 348
#
# _framework density 23.470728999999999
#
# number of rings (size 3 to 8) (size 9 to 14) (size 15 to 20)
#    0.000    2.000    2.000    1.800    2.800    0.800 
#    0.000    4.000    0.000    0.000    0.000    5.600 
#    0.000    0.000    0.000    0.000    0.000    0.000 
#
# Total GULP energy -223165.946608 kJ/mol
# GULP energy per Si atom -5579.148665 kJ/mol
# Density = 2.341731 g / cm^3
# Si number density = 23.470729 Si / 1000 Ang^3
#
#
#
# Elastic Constant Matrix: (Units=GPa)
#
#
# Indices 1 2 3 4 5 6 
#
# 1 166.9524 127.5614 9.8804 0.0000 0.0000 0.0000
# 2 127.5614 218.5355 30.4976 0.0000 0.0000 0.0000
# 3 9.8804 30.4976 42.5681 0.0000 0.0000 0.0000
# 4 0.0000 0.0000 0.0000 21.7386 0.0000 0.0000
# 5 0.0000 0.0000 0.0000 0.0000 23.1305 0.0000
# 6 0.0000 0.0000 0.0000 0.0000 0.0000 -906.8865
#
#
#
# Elastic Compliance Matrix: (Units=1/GPa)
#
#
# Indices 1 2 3 4 5 6 
#
# 1 0.011006 -0.006742 0.002276 0.000000 0.000000 0.000000
# 2 -0.006742 0.009214 -0.005037 0.000000 0.000000 0.000000
# 3 0.002276 -0.005037 0.026572 0.000000 0.000000 0.000000
# 4 0.000000 0.000000 0.000000 0.046001 0.000000 0.000000
# 5 0.000000 0.000000 0.000000 0.000000 0.043233 0.000000
# 6 0.000000 0.000000 0.000000 0.000000 0.000000 -0.001103
#
#
# Mechanical properties :
#
#
# Convention : Reuss Voigt Hill
#
# Bulk Modulus (GPa) = 35.98862 84.88165 60.43514
# Shear Modulus (GPa) = 30.63868 -155.06238 -62.21185
#
# Velocity S-wave (km/s) = 3.61695 -8.13693 -5.15400
# Velocity P-wave (km/s) = 5.72798 7.21361 3.10052
#
# Compressibility (1/GPa) = 0.02778656
#
# Stress axis : x y z
#
# Youngs Moduli (GPa) = 90.85574 108.52743 37.63367
#
# Poissons Ratio (x) = 0.73171 -0.08564
# Poissons Ratio (y) = 0.61256 0.18954
# Poissons Ratio (z) = -0.20676 0.54661
#
# Static dielectric constant tensor:
#      x y z
#    x 1.734590 0.000000 0.000000 
#    y 0.000000 1.857450 0.000000 
#    z 0.000000 0.000000 2.089860 
# 
# From -- ./inp_files/7128.got.cif
#   From: 2010.05.17/outbox.cif.g08.bks.cpg/sg64_4_cif.got.tgz:7128.got - 2010.06.03 16:29:19.
