data_PCOD9479864
_publ_section_title
;
Structure prediction by ZEFSAII (Michael W. Deem and Ramdas Pophale) SiO2 
 PCOD9479864
Probable space group: C M C A
;
_chemical_formula_sum "Si O2"
_cell_formula_units_Z 80
_cell_length_a 9.059815
_cell_length_b 15.213370
_cell_length_c 30.749135
_cell_angle_alpha 90.000000
_cell_angle_beta 90.000000
_cell_angle_gamma 90.000000
_cell_volume 4238.163047
_symmetry_space_group_name_H-M "C M C A"
_symmetry_group_IT_number 64
_symmetry_cell_setting 'orthorhombic'
loop_
_space_group_symop_operation_xyz
x,y,z
-x,1/2-y,1/2+z
x,-y,-z
-x,1/2+y,1/2-z
-x,-y,-z
x,1/2+y,1/2-z
-x,y,z
x,1/2-y,1/2+z
1/2+x,1/2+y,z
1/2-x,-y,1/2+z
1/2+x,1/2-y,-z
1/2-x,y,1/2-z
1/2-x,1/2-y,-z
1/2+x,y,1/2-z
1/2-x,1/2+y,z
1/2+x,-y,1/2+z
loop_
_atom_site_type_symbol
_atom_site_label
_atom_site_fract_x
_atom_site_fract_y
_atom_site_fract_z
Si Si1 0.679597 0.278160 0.361596
Si Si2 0.331828 0.478226 0.452330
Si Si3 0.822664 0.122429 0.202997
Si Si4 0.323134 0.469357 0.135899
Si Si5 0.165015 0.767604 0.455848
O O1 0.500000 0.286964 0.363423
O O2 0.718231 0.210207 0.323774
O O3 0.751287 0.373831 0.355727
O O4 0.726992 0.239465 0.408877
O O5 0.270185 0.500000 0.500000
O O6 0.500000 0.514143 0.449812
O O7 0.237094 0.503757 0.410582
O O8 0.342225 0.372851 0.450992
O O9 0.750000 0.119573 0.250000
O O10 0.000000 0.122527 0.207467
O O11 0.782965 0.038299 0.173472
O O12 0.500000 0.461415 0.133876
O O13 0.250000 0.750000 0.500000
O O14 0.000000 0.731158 0.460332
#
# Coordination Sequence:
#
# PCOD9479864 Si02
#       5
#    16  16  16  16  16
#     4   9  20  40  59  78 114 155 187 229 284 340
#     4   9  19  35  53  77 111 151 189 225 276 337
#     4  10  23  41  61  86 114 148 191 238 290 342
#     4  10  21  37  58  86 116 146 188 239 286 336
#     4   9  18  31  50  76 107 143 181 222 271 326
#
# _framework density 18.876103000000001
#
# number of rings (size 3 to 8) (size 9 to 14) (size 15 to 20)
#    0.000    2.600    0.000    1.800    2.800    6.800 
#    0.000    4.000    0.000    0.000    0.000    0.000 
#    0.000    0.000    0.000    0.000    0.000    0.000 
#
# Total GULP energy -223047.281714 kJ/mol
# GULP energy per Si atom -5576.182043 kJ/mol
# Density = 1.883314 g / cm^3
# Si number density = 18.876103 Si / 1000 Ang^3
#
#
#
# Elastic Constant Matrix: (Units=GPa)
#
#
# Indices 1 2 3 4 5 6 
#
# 1 39.9787 34.4818 64.4261 0.0000 0.0000 0.0000
# 2 34.4818 82.6635 81.6200 0.0000 0.0000 0.0000
# 3 64.4261 81.6200 222.1106 0.0000 0.0000 0.0000
# 4 0.0000 0.0000 0.0000 33.9669 0.0000 0.0000
# 5 0.0000 0.0000 0.0000 0.0000 34.3197 0.0000
# 6 0.0000 0.0000 0.0000 0.0000 0.0000 20.8606
#
#
#
# Elastic Compliance Matrix: (Units=1/GPa)
#
#
# Indices 1 2 3 4 5 6 
#
# 1 0.052428 -0.010757 -0.011254 0.000000 0.000000 0.000000
# 2 -0.010757 0.021193 -0.004668 0.000000 0.000000 0.000000
# 3 -0.011254 -0.004668 0.009482 0.000000 0.000000 0.000000
# 4 0.000000 0.000000 0.000000 0.029440 0.000000 0.000000
# 5 0.000000 0.000000 0.000000 0.000000 0.029138 0.000000
# 6 0.000000 0.000000 0.000000 0.000000 0.000000 0.047937
#
#
# Mechanical properties :
#
#
# Convention : Reuss Voigt Hill
#
# Bulk Modulus (GPa) = 33.61943 78.42317 56.02130
# Shear Modulus (GPa) = 19.77123 28.77776 24.27450
#
# Velocity S-wave (km/s) = 3.23990 3.90880 3.58996
# Velocity P-wave (km/s) = 5.64315 7.87452 6.85030
#
# Compressibility (1/GPa) = 0.02974471
#
# Stress axis : x y z
#
# Youngs Moduli (GPa) = 19.07369 47.18491 105.46253
#
# Poissons Ratio (x) = 0.50758 1.18693
# Poissons Ratio (y) = 0.20518 0.49227
# Poissons Ratio (z) = 0.21466 0.22025
#
# Static dielectric constant tensor:
#      x y z
#    x 1.661370 0.000000 0.000000 
#    y 0.000000 1.653360 0.000000 
#    z 0.000000 0.000000 1.664580 
# 
# From -- ./inp_files/47770.got.cif
#   From: 2010.05.17/outbox.cif.g08.bks.cpg/sg64_24_cif.got.tgz:47770.got - 2010.06.03 16:29:19.
