data_PCOD9479260
_publ_section_title
;
Structure prediction by ZEFSAII (Michael W. Deem and Ramdas Pophale) SiO2 
 PCOD9479260
Probable space group: C M C A
;
_chemical_formula_sum "Si O2"
_cell_formula_units_Z 48
_cell_length_a 11.461335
_cell_length_b 8.514847
_cell_length_c 16.894823
_cell_angle_alpha 90.000000
_cell_angle_beta 90.000000
_cell_angle_gamma 90.000000
_cell_volume 1648.791354
_symmetry_space_group_name_H-M "C M C A"
_symmetry_group_IT_number 64
_symmetry_cell_setting 'orthorhombic'
loop_
_space_group_symop_operation_xyz
x,y,z
-x,1/2-y,1/2+z
x,-y,-z
-x,1/2+y,1/2-z
-x,-y,-z
x,1/2+y,1/2-z
-x,y,z
x,1/2-y,1/2+z
1/2+x,1/2+y,z
1/2-x,-y,1/2+z
1/2+x,1/2-y,-z
1/2-x,y,1/2-z
1/2-x,1/2-y,-z
1/2+x,y,1/2-z
1/2-x,1/2+y,z
1/2+x,-y,1/2+z
loop_
_atom_site_type_symbol
_atom_site_label
_atom_site_fract_x
_atom_site_fract_y
_atom_site_fract_z
Si Si1 0.000000 0.104311 0.614442
Si Si2 0.750000 0.561348 0.250000
Si Si3 0.500000 0.454379 0.774668
Si Si4 0.500000 0.774173 0.405453
Si Si5 0.254479 0.607778 0.577860
O O1 0.000000 0.918719 0.594320
O O2 0.883388 0.184967 0.583073
O O3 0.000000 0.089203 0.708125
O O4 0.621276 0.636687 0.243755
O O5 0.747493 0.472049 0.334314
O O6 0.500000 0.557352 0.853934
O O7 0.637616 0.792000 0.427211
O O8 0.252714 0.500000 0.500000
#
# Coordination Sequence:
#
# PCOD9479260 Si02
#       5
#     8   8   8   8  16
#     4  10  21  39  61  87 122 158 198 249 298 353
#     4   8  16  32  54  80 112 150 188 236 290 336
#     4   8  16  34  54  80 116 148 186 240 288 336
#     4  10  21  39  61  87 122 158 198 249 298 353
#     4  10  20  38  62  88 122 158 198 248 296 352
#
# _framework density 29.112234000000001
#
# number of rings (size 3 to 8) (size 9 to 14) (size 15 to 20)
#    0.000    2.667    0.000    1.000    0.000    1.333 
#    0.000   61.667    0.000   16.000    0.000    0.000 
#    0.000    0.000    0.000    0.000    0.000    0.000 
#
# Total GULP energy -133614.494074 kJ/mol
# GULP energy per Si atom -5567.270586 kJ/mol
# Density = 2.904597 g / cm^3
# Si number density = 29.112234 Si / 1000 Ang^3
#
#
#
# Elastic Constant Matrix: (Units=GPa)
#
#
# Indices 1 2 3 4 5 6 
#
# 1 385.0766 78.1431 11.7131 0.0000 0.0000 0.0000
# 2 78.1431 91.6123 70.3158 0.0000 0.0000 0.0000
# 3 11.7131 70.3158 131.7071 0.0000 0.0000 0.0000
# 4 0.0000 0.0000 0.0000 36.6981 0.0000 0.0000
# 5 0.0000 0.0000 0.0000 0.0000 -7.1887 0.0000
# 6 0.0000 0.0000 0.0000 0.0000 0.0000 184.6323
#
#
#
# Elastic Compliance Matrix: (Units=1/GPa)
#
#
# Indices 1 2 3 4 5 6 
#
# 1 0.003467 -0.004609 0.002152 0.000000 0.000000 0.000000
# 2 -0.004609 0.024622 -0.012735 0.000000 0.000000 0.000000
# 3 0.002152 -0.012735 0.014200 0.000000 0.000000 0.000000
# 4 0.000000 0.000000 0.000000 0.027249 0.000000 0.000000
# 5 0.000000 0.000000 0.000000 0.000000 -0.139108 0.000000
# 6 0.000000 0.000000 0.000000 0.000000 0.000000 0.005416
#
#
# Mechanical properties :
#
#
# Convention : Reuss Voigt Hill
#
# Bulk Modulus (GPa) = 83.99835 103.19334 93.59584
# Shear Modulus (GPa) = -167.77527 72.70993 -47.53267
#
# Velocity S-wave (km/s) = -7.59971 5.00299 -4.04510
# Velocity P-wave (km/s) = 6.93481 8.30042 3.22532
#
# Compressibility (1/GPa) = 0.01190500
#
# Stress axis : x y z
#
# Youngs Moduli (GPa) = 288.45649 40.61471 70.42157
#
# Poissons Ratio (x) = 0.18720 -0.15157
# Poissons Ratio (y) = 1.32951 0.89683
# Poissons Ratio (z) = -0.62087 0.51723
#
# Static dielectric constant tensor:
#      x y z
#    x 2.276200 0.000000 0.000000 
#    y 0.000000 2.202620 0.000000 
#    z 0.000000 0.000000 2.407920 
# 
# From -- ./inp_files/30279.got.cif
#   From: 2010.05.17/outbox.cif.g08.bks.cpg/sg64_16_cif.got.tgz:30279.got - 2010.06.03 16:29:19.
