data_PCOD9479213
_publ_section_title
;
Structure prediction by ZEFSAII (Michael W. Deem and Ramdas Pophale) SiO2 
 PCOD9479213
Probable space group: C M C A
;
_chemical_formula_sum "Si O2"
_cell_formula_units_Z 88
_cell_length_a 15.054474
_cell_length_b 27.779859
_cell_length_c 9.753720
_cell_angle_alpha 90.000000
_cell_angle_beta 90.000000
_cell_angle_gamma 90.000000
_cell_volume 4079.114605
_symmetry_space_group_name_H-M "C M C A"
_symmetry_group_IT_number 64
_symmetry_cell_setting 'orthorhombic'
loop_
_space_group_symop_operation_xyz
x,y,z
-x,1/2-y,1/2+z
x,-y,-z
-x,1/2+y,1/2-z
-x,-y,-z
x,1/2+y,1/2-z
-x,y,z
x,1/2-y,1/2+z
1/2+x,1/2+y,z
1/2-x,-y,1/2+z
1/2+x,1/2-y,-z
1/2-x,y,1/2-z
1/2-x,1/2-y,-z
1/2+x,y,1/2-z
1/2-x,1/2+y,z
1/2+x,-y,1/2+z
loop_
_atom_site_type_symbol
_atom_site_label
_atom_site_fract_x
_atom_site_fract_y
_atom_site_fract_z
Si Si1 0.500000 0.177408 0.602896
Si Si2 0.689277 0.253848 0.866533
Si Si3 0.291915 0.963790 0.603829
Si Si4 0.000000 0.277440 0.027951
Si Si5 0.804014 0.404912 0.107757
Si Si6 0.000000 0.872375 0.390223
Si Si7 0.168333 0.857185 0.931895
O O1 0.500000 0.235028 0.584977
O O2 0.500000 0.160993 0.756891
O O3 0.414009 0.155040 0.529466
O O4 0.750000 0.230970 0.750000
O O5 0.593011 0.232112 0.894190
O O6 0.673320 0.310774 0.835451
O O7 0.750000 0.250000 0.000000
O O8 0.250000 0.979508 0.750000
O O9 0.339105 0.911369 0.629212
O O10 0.345263 0.000000 0.500000
O O11 0.216327 0.051512 0.505103
O O12 0.000000 0.333476 0.986071
O O13 0.750000 0.409220 0.250000
O O14 0.908505 0.400429 0.119687
O O15 0.757505 0.361078 0.024716
#
# Coordination Sequence:
#
# PCOD9479213 Si02
#       7
#     8  16  16   8  16   8  16
#     4  10  20  38  59  87 120 167 210 263 309 379
#     4  11  24  40  61  87 125 171 213 263 316 374
#     4  10  21  40  67  95 127 161 205 256 316 375
#     4  10  26  36  54  90 126 166 216 266 307 375
#     4  10  21  38  65  90 118 165 204 256 311 373
#     4  12  20  38  61  87 126 161 216 261 314 363
#     4   9  21  39  61  86 125 159 209 250 320 364
#
# _framework density 21.573309999999999
#
# number of rings (size 3 to 8) (size 9 to 14) (size 15 to 20)
#    1.091    0.727    1.818    2.182    5.091    1.455 
#    0.000    1.818    0.000    0.000    0.000    0.000 
#    0.000    0.000    0.000    0.000    0.000    0.000 
#
# Total GULP energy -244980.103985 kJ/mol
# GULP energy per Si atom -5567.729636 kJ/mol
# Density = 2.152421 g / cm^3
# Si number density = 21.573310 Si / 1000 Ang^3
#
#
#
# Elastic Constant Matrix: (Units=GPa)
#
#
# Indices 1 2 3 4 5 6 
#
# 1 149.4861 -2.5345 11.8870 0.0000 0.0000 0.0000
# 2 -2.5345 72.2931 -16.2148 0.0000 0.0000 0.0000
# 3 11.8870 -16.2148 60.7142 0.0000 0.0000 0.0000
# 4 0.0000 0.0000 0.0000 18.2854 0.0000 0.0000
# 5 0.0000 0.0000 0.0000 0.0000 22.1202 0.0000
# 6 0.0000 0.0000 0.0000 0.0000 0.0000 16.8950
#
#
#
# Elastic Compliance Matrix: (Units=1/GPa)
#
#
# Indices 1 2 3 4 5 6 
#
# 1 0.006796 -0.000064 -0.001348 0.000000 0.000000 0.000000
# 2 -0.000064 0.014715 0.003942 0.000000 0.000000 0.000000
# 3 -0.001348 0.003942 0.017787 0.000000 0.000000 0.000000
# 4 0.000000 0.000000 0.000000 0.054688 0.000000 0.000000
# 5 0.000000 0.000000 0.000000 0.000000 0.045208 0.000000
# 6 0.000000 0.000000 0.000000 0.000000 0.000000 0.059189
#
#
# Mechanical properties :
#
#
# Convention : Reuss Voigt Hill
#
# Bulk Modulus (GPa) = 22.54336 29.86321 26.20328
# Shear Modulus (GPa) = 24.02604 30.75050 27.38827
#
# Velocity S-wave (km/s) = 3.34082 3.77954 3.56693
# Velocity P-wave (km/s) = 5.03526 5.73753 5.39783
#
# Compressibility (1/GPa) = 0.04435897
#
# Stress axis : x y z
#
# Youngs Moduli (GPa) = 147.15280 67.95986 56.21983
#
# Poissons Ratio (x) = 0.00435 0.07576
# Poissons Ratio (y) = 0.00942 -0.22164
# Poissons Ratio (z) = 0.19830 -0.26792
#
# Static dielectric constant tensor:
#      x y z
#    x 1.674380 0.000000 0.000000 
#    y 0.000000 1.960890 0.000000 
#    z 0.000000 0.000000 1.843970 
# 
# From -- ./inp_files/14806.got.cif
#   From: 2010.05.17/outbox.cif.g08.bks.cpg/sg64_8_cif.got.tgz:14806.got - 2010.06.03 16:29:19.
