data_PCOD9479748
_publ_section_title
;
Structure prediction by ZEFSAII (Michael W. Deem and Ramdas Pophale) SiO2 
 PCOD9479748
Probable space group: C M C A
;
_chemical_formula_sum "Si O2"
_cell_formula_units_Z 112
_cell_length_a 15.117846
_cell_length_b 33.332208
_cell_length_c 11.687249
_cell_angle_alpha 90.000000
_cell_angle_beta 90.000000
_cell_angle_gamma 90.000000
_cell_volume 5889.335521
_symmetry_space_group_name_H-M "C M C A"
_symmetry_group_IT_number 64
_symmetry_cell_setting 'orthorhombic'
loop_
_space_group_symop_operation_xyz
x,y,z
-x,1/2-y,1/2+z
x,-y,-z
-x,1/2+y,1/2-z
-x,-y,-z
x,1/2+y,1/2-z
-x,y,z
x,1/2-y,1/2+z
1/2+x,1/2+y,z
1/2-x,-y,1/2+z
1/2+x,1/2-y,-z
1/2-x,y,1/2-z
1/2-x,1/2-y,-z
1/2+x,y,1/2-z
1/2-x,1/2+y,z
1/2+x,-y,1/2+z
loop_
_atom_site_type_symbol
_atom_site_label
_atom_site_fract_x
_atom_site_fract_y
_atom_site_fract_z
Si Si1 0.898493 0.271052 0.785287
Si Si2 0.099698 0.820273 0.943270
Si Si3 0.897445 0.410304 0.927953
Si Si4 0.898696 0.323651 0.008502
Si Si5 0.265897 0.201624 0.635087
Si Si6 0.097367 0.407869 0.661002
Si Si7 0.753848 0.472468 0.612246
O O1 0.879952 0.291553 0.663792
O O2 0.898425 0.305612 0.881198
O O3 0.823375 0.239708 0.822107
O O4 0.000000 0.254701 0.782781
O O5 0.100697 0.865849 0.902427
O O6 0.000000 0.809962 0.982757
O O7 0.171805 0.816337 0.039725
O O8 0.871401 0.370635 0.000435
O O9 0.893435 0.397846 0.794835
O O10 0.835768 0.449324 0.926702
O O11 0.000000 0.580672 0.044037
O O12 0.000000 0.321335 0.051105
O O13 0.830912 0.296263 0.079080
O O14 0.250000 0.176354 0.750000
O O15 0.172099 0.438130 0.622245
O O16 0.000000 0.426226 0.644715
O O17 0.774586 0.500000 0.500000
O O18 0.750000 0.487441 0.750000
#
# Coordination Sequence:
#
# PCOD9479748 Si02
#       7
#    16  16  16  16  16  16  16
#     4  10  22  39  60  85 110 140 191 258 313 346
#     4  10  21  40  65  87 112 148 199 260 307 350
#     4   9  17  35  62  89 112 146 200 253 293 334
#     4  10  21  39  61  84 112 148 196 255 299 339
#     4  12  27  38  52  81 120 161 198 234 303 377
#     4   9  17  35  63  91 113 146 200 253 293 339
#     4  10  21  36  57  91 126 159 190 238 298 360
#
# _framework density 19.017424999999999
#
# number of rings (size 3 to 8) (size 9 to 14) (size 15 to 20)
#    0.000    2.000    1.429    1.714    4.000    1.714 
#    0.000    2.857    0.000    1.714    0.000    0.000 
#    0.000    0.000    0.000    0.000    0.000    0.000 
#
# Total GULP energy -312017.656471 kJ/mol
# GULP energy per Si atom -5571.743866 kJ/mol
# Density = 1.897414 g / cm^3
# Si number density = 19.017425 Si / 1000 Ang^3
#
#
#
# Elastic Constant Matrix: (Units=GPa)
#
#
# Indices 1 2 3 4 5 6 
#
# 1 95.5190 37.1252 43.0093 0.0000 0.0000 0.0000
# 2 37.1252 53.7685 27.0419 0.0000 0.0000 0.0000
# 3 43.0093 27.0419 86.8026 0.0000 0.0000 0.0000
# 4 0.0000 0.0000 0.0000 -11.6245 0.0000 0.0000
# 5 0.0000 0.0000 0.0000 0.0000 -49.6596 0.0000
# 6 0.0000 0.0000 0.0000 0.0000 0.0000 17.3408
#
#
#
# Elastic Compliance Matrix: (Units=1/GPa)
#
#
# Indices 1 2 3 4 5 6 
#
# 1 0.016183 -0.008468 -0.005380 0.000000 0.000000 0.000000
# 2 -0.008468 0.026484 -0.004055 0.000000 0.000000 0.000000
# 3 -0.005380 -0.004055 0.015450 0.000000 0.000000 0.000000
# 4 0.000000 0.000000 0.000000 -0.086025 0.000000 0.000000
# 5 0.000000 0.000000 0.000000 0.000000 -0.020137 0.000000
# 6 0.000000 0.000000 0.000000 0.000000 0.000000 0.057667
#
#
# Mechanical properties :
#
#
# Convention : Reuss Voigt Hill
#
# Bulk Modulus (GPa) = 44.82224 50.04922 47.43573
# Shear Modulus (GPa) = 94.58055 -0.19441 47.19307
#
# Velocity S-wave (km/s) = 7.05986 -0.32007 4.98694
# Velocity P-wave (km/s) = 9.49082 5.12231 7.62607
#
# Compressibility (1/GPa) = 0.02231035
#
# Stress axis : x y z
#
# Youngs Moduli (GPa) = 61.79375 37.75818 64.72654
#
# Poissons Ratio (x) = 0.31972 0.34825
# Poissons Ratio (y) = 0.52325 0.26247
# Poissons Ratio (z) = 0.33247 0.15311
#
# Static dielectric constant tensor:
#      x y z
#    x 1.715150 0.000000 0.000000 
#    y 0.000000 1.658910 0.000000 
#    z 0.000000 0.000000 1.693130 
# 
# From -- ./inp_files/15004.got.cif
#   From: 2010.05.17/outbox.cif.g08.bks.cpg/sg64_8_cif.got.tgz:15004.got - 2010.06.03 16:29:19.
