data_PCOD9479921
_publ_section_title
;
Structure prediction by ZEFSAII (Michael W. Deem and Ramdas Pophale) SiO2 
 PCOD9479921
Probable space group: C M C A
;
_chemical_formula_sum "Si O2"
_cell_formula_units_Z 120
_cell_length_a 11.373169
_cell_length_b 22.332381
_cell_length_c 24.512341
_cell_angle_alpha 90.000000
_cell_angle_beta 90.000000
_cell_angle_gamma 90.000000
_cell_volume 6225.888100
_symmetry_space_group_name_H-M "C M C A"
_symmetry_group_IT_number 64
_symmetry_cell_setting 'orthorhombic'
loop_
_space_group_symop_operation_xyz
x,y,z
-x,1/2-y,1/2+z
x,-y,-z
-x,1/2+y,1/2-z
-x,-y,-z
x,1/2+y,1/2-z
-x,y,z
x,1/2-y,1/2+z
1/2+x,1/2+y,z
1/2-x,-y,1/2+z
1/2+x,1/2-y,-z
1/2-x,y,1/2-z
1/2-x,1/2-y,-z
1/2+x,y,1/2-z
1/2-x,1/2+y,z
1/2+x,-y,1/2+z
loop_
_atom_site_type_symbol
_atom_site_label
_atom_site_fract_x
_atom_site_fract_y
_atom_site_fract_z
Si Si1 0.868605 0.465607 0.442236
Si Si2 0.750000 0.294396 0.750000
Si Si3 0.865445 0.357503 0.849311
Si Si4 0.129270 0.493527 0.885247
Si Si5 0.627925 0.430760 0.276828
Si Si6 0.134513 0.696716 0.827970
Si Si7 0.284881 0.828621 0.437630
Si Si8 0.132789 0.801163 0.542842
O O1 0.874029 0.500000 0.500000
O O2 0.749715 0.492516 0.416155
O O3 0.846066 0.393532 0.442023
O O4 0.000000 0.475147 0.416942
O O5 0.817713 0.336495 0.791955
O O6 0.824757 0.251978 0.709407
O O7 0.862412 0.427990 0.858939
O O8 0.806905 0.328053 0.902869
O O9 0.000000 0.336287 0.850107
O O10 0.124241 0.540392 0.836304
O O11 0.000000 0.496744 0.914355
O O12 0.500000 0.444364 0.249846
O O13 0.750000 0.450963 0.250000
O O14 0.635018 0.360097 0.287533
O O15 0.219256 0.681828 0.879436
O O16 0.000000 0.705140 0.847619
O O17 0.194434 0.822454 0.487868
O O18 0.365041 0.770318 0.448590
O O19 0.000000 0.823548 0.539620
#
# Coordination Sequence:
#
# PCOD9479921 Si02
#       8
#    16   8  16  16  16  16  16  16
#     4  11  24  41  63  95 132 165 207 262 321 379
#     4  12  22  40  60  90 124 166 200 256 326 376
#     4  10  22  40  60  86 121 160 208 256 304 375
#     4  10  22  41  63  88 121 165 214 260 307 372
#     4  10  21  38  59  88 120 155 204 259 313 373
#     4  11  22  38  60  90 122 157 207 261 315 378
#     4  11  21  39  62  89 125 164 205 257 318 377
#     4  10  21  37  61  89 119 160 206 255 307 369
#
# _framework density 19.274359
#
# number of rings (size 3 to 8) (size 9 to 14) (size 15 to 20)
#    0.000    1.467    3.333    2.000    0.933    1.333 
#    0.000    1.333    0.000    0.000    0.000    0.000 
#    0.000    0.000    0.000    0.000    0.000    0.000 
#
# Total GULP energy -334158.839113 kJ/mol
# GULP energy per Si atom -5569.313985 kJ/mol
# Density = 1.923049 g / cm^3
# Si number density = 19.274359 Si / 1000 Ang^3
#
#
#
# Elastic Constant Matrix: (Units=GPa)
#
#
# Indices 1 2 3 4 5 6 
#
# 1 144.4495 18.8039 51.3359 0.0000 0.0000 0.0000
# 2 18.8039 59.9556 4.0144 0.0000 0.0000 0.0000
# 3 51.3359 4.0144 66.7495 0.0000 0.0000 0.0000
# 4 0.0000 0.0000 0.0000 23.0372 0.0000 0.0000
# 5 0.0000 0.0000 0.0000 0.0000 21.5669 0.0000
# 6 0.0000 0.0000 0.0000 0.0000 0.0000 10.5093
#
#
#
# Elastic Compliance Matrix: (Units=1/GPa)
#
#
# Indices 1 2 3 4 5 6 
#
# 1 0.009918 -0.002610 -0.007470 0.000000 0.000000 0.000000
# 2 -0.002610 0.017433 0.000959 0.000000 0.000000 0.000000
# 3 -0.007470 0.000959 0.020669 0.000000 0.000000 0.000000
# 4 0.000000 0.000000 0.000000 0.043408 0.000000 0.000000
# 5 0.000000 0.000000 0.000000 0.000000 0.046367 0.000000
# 6 0.000000 0.000000 0.000000 0.000000 0.000000 0.095154
#
#
# Mechanical properties :
#
#
# Convention : Reuss Voigt Hill
#
# Bulk Modulus (GPa) = 33.58319 46.60700 40.09509
# Shear Modulus (GPa) = 19.14840 24.15604 21.65222
#
# Velocity S-wave (km/s) = 3.15535 3.54400 3.35531
# Velocity P-wave (km/s) = 5.54405 6.40156 5.98817
#
# Compressibility (1/GPa) = 0.02977680
#
# Stress axis : x y z
#
# Youngs Moduli (GPa) = 100.83136 57.36096 48.38142
#
# Poissons Ratio (x) = 0.14973 0.36143
# Poissons Ratio (y) = 0.26320 -0.04640
# Poissons Ratio (z) = 0.75325 -0.05501
#
# Static dielectric constant tensor:
#      x y z
#    x 1.730000 0.000000 0.000000 
#    y 0.000000 1.681310 0.000000 
#    z 0.000000 0.000000 1.687690 
# 
# From -- ./inp_files/44467.got.cif
#   From: 2010.05.17/outbox.cif.g08.bks.cpg/sg64_23_cif.got.tgz:44467.got - 2010.06.03 16:29:19.
