data_PCOD9479348
_publ_section_title
;
Structure prediction by ZEFSAII (Michael W. Deem and Ramdas Pophale) SiO2 
 PCOD9479348
Probable space group: C M C A
;
_chemical_formula_sum "Si O2"
_cell_formula_units_Z 104
_cell_length_a 22.084691
_cell_length_b 8.389991
_cell_length_c 27.979663
_cell_angle_alpha 90.000000
_cell_angle_beta 90.000000
_cell_angle_gamma 90.000000
_cell_volume 5184.361794
_symmetry_space_group_name_H-M "C M C A"
_symmetry_group_IT_number 64
_symmetry_cell_setting 'orthorhombic'
loop_
_space_group_symop_operation_xyz
x,y,z
-x,1/2-y,1/2+z
x,-y,-z
-x,1/2+y,1/2-z
-x,-y,-z
x,1/2+y,1/2-z
-x,y,z
x,1/2-y,1/2+z
1/2+x,1/2+y,z
1/2-x,-y,1/2+z
1/2+x,1/2-y,-z
1/2-x,y,1/2-z
1/2-x,1/2-y,-z
1/2+x,y,1/2-z
1/2-x,1/2+y,z
1/2+x,-y,1/2+z
loop_
_atom_site_type_symbol
_atom_site_label
_atom_site_fract_x
_atom_site_fract_y
_atom_site_fract_z
Si Si1 0.573269 0.946609 0.717103
Si Si2 0.338610 0.762970 0.650658
Si Si3 0.067515 0.951420 0.394939
Si Si4 0.760395 0.548187 0.610408
Si Si5 0.798591 0.695366 0.039365
Si Si6 0.598674 0.500000 0.500000
Si Si7 0.571846 0.800538 0.817895
O O1 0.500000 0.922342 0.708178
O O2 0.591932 0.121902 0.697131
O O3 0.617965 0.815233 0.694057
O O4 0.581600 0.922105 0.773823
O O5 0.386919 0.692677 0.613538
O O6 0.284615 0.631149 0.648757
O O7 0.303524 0.919381 0.633922
O O8 0.000000 0.916029 0.376134
O O9 0.064235 0.980465 0.450883
O O10 0.092049 0.105768 0.365496
O O11 0.800166 0.674455 0.581063
O O12 0.721799 0.461367 0.568719
O O13 0.858589 0.651728 0.010931
O O14 0.750000 0.750000 0.000000
O O15 0.500000 0.779554 0.823623
#
# Coordination Sequence:
#
# PCOD9479348 Si02
#       7
#    16  16  16  16  16   8  16
#     4  10  20  38  67  99 123 157 205 258 322 379
#     4  11  22  38  63  91 125 165 209 262 314 376
#     4  11  23  40  62  92 131 169 209 265 328 384
#     4  10  22  36  55  89 121 161 213 262 309 363
#     4  11  18  35  57  84 116 161 222 265 297 360
#     4  12  21  34  60  90 124 168 209 258 328 386
#     4   9  20  38  64  96 126 161 211 259 305 382
#
# _framework density 20.060327999999998
#
# number of rings (size 3 to 8) (size 9 to 14) (size 15 to 20)
#    0.000    1.538    3.077    2.538    2.154    2.462 
#    0.000    0.000    0.000   12.000    0.000    0.000 
#    0.000    0.000    0.000    0.000    0.000    0.000 
#
# Total GULP energy -289712.539413 kJ/mol
# GULP energy per Si atom -5571.394989 kJ/mol
# Density = 2.001467 g / cm^3
# Si number density = 20.060328 Si / 1000 Ang^3
#
#
#
# Elastic Constant Matrix: (Units=GPa)
#
#
# Indices 1 2 3 4 5 6 
#
# 1 86.5054 44.1670 29.6264 0.0000 0.0000 0.0000
# 2 44.1670 101.7538 35.5097 0.0000 0.0000 0.0000
# 3 29.6264 35.5097 103.3430 0.0000 0.0000 0.0000
# 4 0.0000 0.0000 0.0000 23.4331 0.0000 0.0000
# 5 0.0000 0.0000 0.0000 0.0000 19.5813 0.0000
# 6 0.0000 0.0000 0.0000 0.0000 0.0000 22.8829
#
#
#
# Elastic Compliance Matrix: (Units=1/GPa)
#
#
# Indices 1 2 3 4 5 6 
#
# 1 0.015358 -0.005829 -0.002400 0.000000 0.000000 0.000000
# 2 -0.005829 0.013379 -0.002926 0.000000 0.000000 0.000000
# 3 -0.002400 -0.002926 0.011370 0.000000 0.000000 0.000000
# 4 0.000000 0.000000 0.000000 0.042675 0.000000 0.000000
# 5 0.000000 0.000000 0.000000 0.000000 0.051069 0.000000
# 6 0.000000 0.000000 0.000000 0.000000 0.000000 0.043701
#
#
# Mechanical properties :
#
#
# Convention : Reuss Voigt Hill
#
# Bulk Modulus (GPa) = 56.18906 56.68981 56.43944
# Shear Modulus (GPa) = 24.29627 25.33275 24.81451
#
# Velocity S-wave (km/s) = 3.48395 3.55748 3.52091
# Velocity P-wave (km/s) = 6.65242 6.72274 6.68767
#
# Compressibility (1/GPa) = 0.01779706
#
# Stress axis : x y z
#
# Youngs Moduli (GPa) = 65.11332 74.74543 87.95081
#
# Poissons Ratio (x) = 0.43566 0.21108
# Poissons Ratio (y) = 0.37952 0.25735
# Poissons Ratio (z) = 0.15627 0.21871
#
# Static dielectric constant tensor:
#      x y z
#    x 1.738940 0.000000 0.000000 
#    y 0.000000 1.752030 0.000000 
#    z 0.000000 0.000000 1.720650 
# 
# From -- ./inp_files/51040.got.cif
#   From: 2010.05.17/outbox.cif.g08.bks.cpg/sg64_26_cif.got.tgz:51040.got - 2010.06.03 16:29:19.
