data_PCOD9479725
_publ_section_title
;
Structure prediction by ZEFSAII (Michael W. Deem and Ramdas Pophale) SiO2 
 PCOD9479725
Probable space group: C M C A
;
_chemical_formula_sum "Si O2"
_cell_formula_units_Z 96
_cell_length_a 11.603348
_cell_length_b 16.809888
_cell_length_c 24.437163
_cell_angle_alpha 90.000000
_cell_angle_beta 90.000000
_cell_angle_gamma 90.000000
_cell_volume 4766.492599
_symmetry_space_group_name_H-M "C M C A"
_symmetry_group_IT_number 64
_symmetry_cell_setting 'orthorhombic'
loop_
_space_group_symop_operation_xyz
x,y,z
-x,1/2-y,1/2+z
x,-y,-z
-x,1/2+y,1/2-z
-x,-y,-z
x,1/2+y,1/2-z
-x,y,z
x,1/2-y,1/2+z
1/2+x,1/2+y,z
1/2-x,-y,1/2+z
1/2+x,1/2-y,-z
1/2-x,y,1/2-z
1/2-x,1/2-y,-z
1/2+x,y,1/2-z
1/2-x,1/2+y,z
1/2+x,-y,1/2+z
loop_
_atom_site_type_symbol
_atom_site_label
_atom_site_fract_x
_atom_site_fract_y
_atom_site_fract_z
Si Si1 0.879205 0.706828 0.108411
Si Si2 0.818885 0.914337 0.514693
Si Si3 0.231297 0.140235 0.603904
Si Si4 0.295557 0.910094 0.806249
Si Si5 0.136028 0.976460 0.900645
Si Si6 0.631185 0.588118 0.715818
O O1 0.872902 0.644395 0.058774
O O2 0.780849 0.771941 0.108418
O O3 0.870990 0.652916 0.161888
O O4 0.000000 0.751196 0.105613
O O5 0.815885 0.869720 0.457210
O O6 0.699461 0.939952 0.545713
O O7 0.872832 0.000000 0.500000
O O8 0.147571 0.123569 0.654909
O O9 0.325594 0.068570 0.605923
O O10 0.250000 0.875290 0.750000
O O11 0.192588 0.933181 0.848125
O O12 0.359012 0.992542 0.791485
O O13 0.000000 0.967824 0.903276
O O14 0.500000 0.606794 0.736668
O O15 0.750000 0.609853 0.750000
#
# Coordination Sequence:
#
# PCOD9479725 Si02
#       6
#    16  16  16  16  16  16
#     4  11  22  35  54  82 116 151 189 237 293 351
#     4   9  20  37  55  80 111 148 198 248 293 348
#     4  10  21  36  55  83 116 147 188 237 299 359
#     4   9  20  36  55  80 112 150 194 239 287 345
#     4   9  18  34  56  80 108 148 199 252 300 350
#     4  10  22  41  65  90 117 153 199 245 289 345
#
# _framework density 20.140597
#
# number of rings (size 3 to 8) (size 9 to 14) (size 15 to 20)
#    0.000    2.333    0.000    2.500    0.000   12.667 
#    0.000    3.333    0.000    0.000    0.000    0.000 
#    0.000    0.000    0.000    0.000    0.000    0.000 
#
# Total GULP energy -267455.852974 kJ/mol
# GULP energy per Si atom -5571.996937 kJ/mol
# Density = 2.009476 g / cm^3
# Si number density = 20.140597 Si / 1000 Ang^3
#
#
#
# Elastic Constant Matrix: (Units=GPa)
#
#
# Indices 1 2 3 4 5 6 
#
# 1 119.6522 11.0497 36.9054 0.0000 0.0000 0.0000
# 2 11.0497 56.1664 16.3053 0.0000 0.0000 0.0000
# 3 36.9054 16.3053 137.2387 0.0000 0.0000 0.0000
# 4 0.0000 0.0000 0.0000 9.3393 0.0000 0.0000
# 5 0.0000 0.0000 0.0000 0.0000 -26.9990 0.0000
# 6 0.0000 0.0000 0.0000 0.0000 0.0000 9.7132
#
#
#
# Elastic Compliance Matrix: (Units=1/GPa)
#
#
# Indices 1 2 3 4 5 6 
#
# 1 0.009182 -0.001128 -0.002335 0.000000 0.000000 0.000000
# 2 -0.001128 0.018579 -0.001904 0.000000 0.000000 0.000000
# 3 -0.002335 -0.001904 0.008141 0.000000 0.000000 0.000000
# 4 0.000000 0.000000 0.000000 0.107075 0.000000 0.000000
# 5 0.000000 0.000000 0.000000 0.000000 -0.037038 0.000000
# 6 0.000000 0.000000 0.000000 0.000000 0.000000 0.102953
#
#
# Mechanical properties :
#
#
# Convention : Reuss Voigt Hill
#
# Bulk Modulus (GPa) = 39.73502 49.06422 44.39962
# Shear Modulus (GPa) = 21.92845 14.99716 18.46281
#
# Velocity S-wave (km/s) = 3.30323 2.73174 3.03098
# Velocity P-wave (km/s) = 5.85833 5.86205 5.86019
#
# Compressibility (1/GPa) = 0.02516672
#
# Stress axis : x y z
#
# Youngs Moduli (GPa) = 108.90873 53.82429 122.83931
#
# Poissons Ratio (x) = 0.06074 0.28684
# Poissons Ratio (y) = 0.12290 0.23387
# Poissons Ratio (z) = 0.25431 0.10248
#
# Static dielectric constant tensor:
#      x y z
#    x 1.805890 0.000000 0.000000 
#    y 0.000000 1.678090 0.000000 
#    z 0.000000 0.000000 1.719460 
# 
# From -- ./inp_files/44237.got.cif
#   From: 2010.05.17/outbox.cif.g08.bks.cpg/sg64_23_cif.got.tgz:44237.got - 2010.06.03 16:29:19.
