data_PCOD9479669
_publ_section_title
;
Structure prediction by ZEFSAII (Michael W. Deem and Ramdas Pophale) SiO2 
 PCOD9479669
Probable space group: C M C A
;
_chemical_formula_sum "Si O2"
_cell_formula_units_Z 52
_cell_length_a 13.661800
_cell_length_b 4.958880
_cell_length_c 32.656355
_cell_angle_alpha 90.000000
_cell_angle_beta 90.000000
_cell_angle_gamma 90.000000
_cell_volume 2212.377488
_symmetry_space_group_name_H-M "C M C A"
_symmetry_group_IT_number 64
_symmetry_cell_setting 'orthorhombic'
loop_
_space_group_symop_operation_xyz
x,y,z
-x,1/2-y,1/2+z
x,-y,-z
-x,1/2+y,1/2-z
-x,-y,-z
x,1/2+y,1/2-z
-x,y,z
x,1/2-y,1/2+z
1/2+x,1/2+y,z
1/2-x,-y,1/2+z
1/2+x,1/2-y,-z
1/2-x,y,1/2-z
1/2-x,1/2-y,-z
1/2+x,y,1/2-z
1/2-x,1/2+y,z
1/2+x,-y,1/2+z
loop_
_atom_site_type_symbol
_atom_site_label
_atom_site_fract_x
_atom_site_fract_y
_atom_site_fract_z
Si Si1 0.189409 0.141756 0.359988
Si Si2 0.616668 0.347687 0.226392
Si Si3 0.000000 0.000000 0.500000
Si Si4 0.677990 0.257648 0.050111
O O1 0.288287 0.324529 0.360639
O O2 0.141265 0.232808 0.317918
O O3 0.140666 0.221836 0.402876
O O4 0.651002 0.646295 0.237621
O O5 0.500000 0.357707 0.228373
O O6 0.087564 0.186376 0.478598
O O7 0.732024 0.544025 0.045658
#
# Coordination Sequence:
#
# PCOD9479669 Si02
#       4
#    16  16   4  16
#     4  10  21  38  58  83 118 154 192 247 296 345
#     4  10  21  35  54  82 116 152 196 244 284 345
#     4  12  24  42  76  92 120 182 192 254 332 372
#     4  10  24  43  63  97 131 157 210 262 301 377
#
# _framework density 23.504125999999999
#
# number of rings (size 3 to 8) (size 9 to 14) (size 15 to 20)
#    0.000    1.846    0.000    2.769    2.154    6.154 
#    0.000    0.000    0.000    0.000    0.000    0.000 
#    0.000    0.000    0.000    0.000    0.000    0.000 
#
# Total GULP energy -144783.459103 kJ/mol
# GULP energy per Si atom -5568.594581 kJ/mol
# Density = 2.345063 g / cm^3
# Si number density = 23.504126 Si / 1000 Ang^3
#
#
#
# Elastic Constant Matrix: (Units=GPa)
#
#
# Indices 1 2 3 4 5 6 
#
# 1 102.7887 4.5499 11.2442 0.0000 0.0000 0.0000
# 2 4.5499 94.1071 9.2153 0.0000 0.0000 0.0000
# 3 11.2442 9.2153 88.2392 0.0000 0.0000 0.0000
# 4 0.0000 0.0000 0.0000 30.6655 0.0000 0.0000
# 5 0.0000 0.0000 0.0000 0.0000 28.4933 0.0000
# 6 0.0000 0.0000 0.0000 0.0000 0.0000 6.5229
#
#
#
# Elastic Compliance Matrix: (Units=1/GPa)
#
#
# Indices 1 2 3 4 5 6 
#
# 1 0.009878 -0.000358 -0.001221 0.000000 0.000000 0.000000
# 2 -0.000358 0.010749 -0.001077 0.000000 0.000000 0.000000
# 3 -0.001221 -0.001077 0.011601 0.000000 0.000000 0.000000
# 4 0.000000 0.000000 0.000000 0.032610 0.000000 0.000000
# 5 0.000000 0.000000 0.000000 0.000000 0.035096 0.000000
# 6 0.000000 0.000000 0.000000 0.000000 0.000000 0.153307
#
#
# Mechanical properties :
#
#
# Convention : Reuss Voigt Hill
#
# Bulk Modulus (GPa) = 37.15344 37.23933 37.19638
# Shear Modulus (GPa) = 18.68983 30.47804 24.58394
#
# Velocity S-wave (km/s) = 2.82294 3.60489 3.23761
# Velocity P-wave (km/s) = 5.14459 5.76239 5.46223
#
# Compressibility (1/GPa) = 0.02691541
#
# Stress axis : x y z
#
# Youngs Moduli (GPa) = 101.23353 93.03230 86.19985
#
# Poissons Ratio (x) = 0.03330 0.10528
# Poissons Ratio (y) = 0.03624 0.09283
# Poissons Ratio (z) = 0.12364 0.10019
#
# Static dielectric constant tensor:
#      x y z
#    x 1.813740 0.000000 0.000000 
#    y 0.000000 1.874970 0.000000 
#    z 0.000000 0.000000 1.951520 
# 
# From -- ./inp_files/53077.got.cif
#   From: 2010.05.17/outbox.cif.g08.bks.cpg/sg64_27_cif.got.tgz:53077.got - 2010.06.03 16:29:19.
