data_PCOD9479916
_publ_section_title
;
Structure prediction by ZEFSAII (Michael W. Deem and Ramdas Pophale) SiO2 
 PCOD9479916
Probable space group: C M C A
;
_chemical_formula_sum "Si O2"
_cell_formula_units_Z 96
_cell_length_a 14.718929
_cell_length_b 20.883960
_cell_length_c 13.987328
_cell_angle_alpha 90.000000
_cell_angle_beta 90.000000
_cell_angle_gamma 90.000000
_cell_volume 4299.558103
_symmetry_space_group_name_H-M "C M C A"
_symmetry_group_IT_number 64
_symmetry_cell_setting 'orthorhombic'
loop_
_space_group_symop_operation_xyz
x,y,z
-x,1/2-y,1/2+z
x,-y,-z
-x,1/2+y,1/2-z
-x,-y,-z
x,1/2+y,1/2-z
-x,y,z
x,1/2-y,1/2+z
1/2+x,1/2+y,z
1/2-x,-y,1/2+z
1/2+x,1/2-y,-z
1/2-x,y,1/2-z
1/2-x,1/2-y,-z
1/2+x,y,1/2-z
1/2-x,1/2+y,z
1/2+x,-y,1/2+z
loop_
_atom_site_type_symbol
_atom_site_label
_atom_site_fract_x
_atom_site_fract_y
_atom_site_fract_z
Si Si1 0.106182 0.947685 0.416143
Si Si2 0.351426 0.187902 0.206013
Si Si3 0.108156 0.461123 0.302394
Si Si4 0.175247 0.179535 0.830728
Si Si5 0.231888 0.656169 0.009358
Si Si6 0.104015 0.595824 0.374166
O O1 0.133321 0.969245 0.309361
O O2 0.176299 0.893545 0.445050
O O3 0.000000 0.926355 0.410759
O O4 0.110832 0.000000 0.500000
O O5 0.250000 0.192770 0.250000
O O6 0.386936 0.261117 0.203939
O O7 0.337620 0.168369 0.096328
O O8 0.397328 0.135079 0.273391
O O9 0.132167 0.390676 0.340610
O O10 0.140435 0.523617 0.358964
O O11 0.000000 0.466664 0.305825
O O12 0.250000 0.170097 0.750000
O O13 0.227095 0.202379 0.927174
O O14 0.323454 0.630317 0.059049
O O15 0.000000 0.595152 0.411033
#
# Coordination Sequence:
#
# PCOD9479916 Si02
#       6
#    16  16  16  16  16  16
#     4  10  21  37  60  93 128 165 218 271 316 383
#     4   9  21  40  62  88 123 169 212 265 315 381
#     4  10  22  40  60  89 128 168 212 266 321 385
#     4  11  22  38  62  92 129 165 211 266 326 383
#     4  11  22  38  66  95 127 170 218 264 332 382
#     4  10  23  43  65  92 132 175 218 263 321 394
#
# _framework density 22.327876
#
# number of rings (size 3 to 8) (size 9 to 14) (size 15 to 20)
#    0.000    1.833    1.667    1.500    2.333    5.333 
#    0.000    1.667    0.000    0.000    0.000    0.000 
#    0.000    0.000    0.000    0.000    0.000    0.000 
#
# Total GULP energy -267699.612707 kJ/mol
# GULP energy per Si atom -5577.075265 kJ/mol
# Density = 2.227706 g / cm^3
# Si number density = 22.327876 Si / 1000 Ang^3
#
#
#
# Elastic Constant Matrix: (Units=GPa)
#
#
# Indices 1 2 3 4 5 6 
#
# 1 45.8396 -8.8073 -6.5390 0.0000 0.0000 0.0000
# 2 -8.8073 58.5478 -9.0913 0.0000 0.0000 0.0000
# 3 -6.5390 -9.0913 89.4939 0.0000 0.0000 0.0000
# 4 0.0000 0.0000 0.0000 21.1649 0.0000 0.0000
# 5 0.0000 0.0000 0.0000 0.0000 27.1433 0.0000
# 6 0.0000 0.0000 0.0000 0.0000 0.0000 43.0533
#
#
#
# Elastic Compliance Matrix: (Units=1/GPa)
#
#
# Indices 1 2 3 4 5 6 
#
# 1 0.022828 0.003752 0.002049 0.000000 0.000000 0.000000
# 2 0.003752 0.017971 0.002100 0.000000 0.000000 0.000000
# 3 0.002049 0.002100 0.011537 0.000000 0.000000 0.000000
# 4 0.000000 0.000000 0.000000 0.047248 0.000000 0.000000
# 5 0.000000 0.000000 0.000000 0.000000 0.036841 0.000000
# 6 0.000000 0.000000 0.000000 0.000000 0.000000 0.023227
#
#
# Mechanical properties :
#
#
# Convention : Reuss Voigt Hill
#
# Bulk Modulus (GPa) = 14.67605 16.11180 15.39392
# Shear Modulus (GPa) = 30.01868 32.82691 31.42280
#
# Velocity S-wave (km/s) = 3.67065 3.83851 3.75552
# Velocity P-wave (km/s) = 4.95501 5.18432 5.07096
#
# Compressibility (1/GPa) = 0.06813824
#
# Stress axis : x y z
#
# Youngs Moduli (GPa) = 43.80502 55.64663 86.67790
#
# Poissons Ratio (x) = -0.20880 -0.17762
# Poissons Ratio (y) = -0.16437 -0.18200
# Poissons Ratio (z) = -0.08976 -0.11684
#
# Static dielectric constant tensor:
#      x y z
#    x 1.798070 0.000000 0.000000 
#    y 0.000000 1.908170 0.000000 
#    z 0.000000 0.000000 1.851440 
# 
# From -- ./inp_files/23866.got.cif
#   From: 2010.05.17/outbox.cif.g08.bks.cpg/sg64_12_cif.got.tgz:23866.got - 2010.06.03 16:29:19.
