data_PCOD9479584
_publ_section_title
;
Structure prediction by ZEFSAII (Michael W. Deem and Ramdas Pophale) SiO2 
 PCOD9479584
Probable space group: C M C A
;
_chemical_formula_sum "Si O2"
_cell_formula_units_Z 108
_cell_length_a 15.811942
_cell_length_b 14.886225
_cell_length_c 23.232374
_cell_angle_alpha 90.000000
_cell_angle_beta 90.000000
_cell_angle_gamma 90.000000
_cell_volume 5468.439126
_symmetry_space_group_name_H-M "C M C A"
_symmetry_group_IT_number 64
_symmetry_cell_setting 'orthorhombic'
loop_
_space_group_symop_operation_xyz
x,y,z
-x,1/2-y,1/2+z
x,-y,-z
-x,1/2+y,1/2-z
-x,-y,-z
x,1/2+y,1/2-z
-x,y,z
x,1/2-y,1/2+z
1/2+x,1/2+y,z
1/2-x,-y,1/2+z
1/2+x,1/2-y,-z
1/2-x,y,1/2-z
1/2-x,1/2-y,-z
1/2+x,y,1/2-z
1/2-x,1/2+y,z
1/2+x,-y,1/2+z
loop_
_atom_site_type_symbol
_atom_site_label
_atom_site_fract_x
_atom_site_fract_y
_atom_site_fract_z
Si Si1 0.102039 0.101009 0.594155
Si Si2 0.597254 0.710862 0.144252
Si Si3 0.101879 0.404339 0.319008
Si Si4 0.345709 0.780959 0.770521
Si Si5 0.300524 0.500000 0.500000
Si Si6 0.397891 0.519349 0.295794
Si Si7 0.000000 0.000000 0.000000
Si Si8 0.344332 0.462503 0.913264
O O1 0.129057 0.200777 0.612024
O O2 0.000000 0.100240 0.590739
O O3 0.141984 0.069638 0.534675
O O4 0.125759 0.034636 0.646680
O O5 0.500000 0.695578 0.127721
O O6 0.600026 0.727061 0.212204
O O7 0.649182 0.623419 0.127803
O O8 0.126799 0.300673 0.311168
O O9 0.123891 0.460151 0.260770
O O10 0.148642 0.450269 0.372553
O O11 0.000000 0.412116 0.327161
O O12 0.250000 0.768520 0.750000
O O13 0.358959 0.881370 0.794042
O O14 0.238542 0.541556 0.452226
O O15 0.500000 0.529126 0.295046
O O16 0.074721 0.966110 0.955085
#
# Coordination Sequence:
#
# PCOD9479584 Si02
#       8
#    16  16  16  16   8  16   4  16
#     4  10  23  44  70  94 128 174 221 266 324 400
#     4  11  21  42  70  96 125 172 220 263 324 404
#     4  11  21  40  68  97 129 169 214 269 323 394
#     4  12  26  36  61 101 139 167 205 262 340 400
#     4  11  27  43  65  90 134 174 225 275 327 375
#     4  10  21  40  67  95 125 165 214 262 319 395
#     4  10  20  44  58 100 122 178 226 254 320 378
#     4  11  23  40  71  95 132 173 219 276 325 384
#
# _framework density 19.749694000000002
#
# number of rings (size 3 to 8) (size 9 to 14) (size 15 to 20)
#    0.000    1.185    4.444    1.556    4.148    1.185 
#    0.000    2.963    3.259    0.000    0.000    0.000 
#    0.000    0.000    0.000    0.000    0.000    0.000 
#
# Total GULP energy -301345.568102 kJ/mol
# GULP energy per Si atom -5580.473483 kJ/mol
# Density = 1.970474 g / cm^3
# Si number density = 19.749694 Si / 1000 Ang^3
#
#
#
# Elastic Constant Matrix: (Units=GPa)
#
#
# Indices 1 2 3 4 5 6 
#
# 1 33.4955 2.6995 9.5120 0.0000 0.0000 0.0000
# 2 2.6995 77.4102 -4.9925 0.0000 0.0000 0.0000
# 3 9.5120 -4.9925 41.8599 0.0000 0.0000 0.0000
# 4 0.0000 0.0000 0.0000 5.8986 0.0000 0.0000
# 5 0.0000 0.0000 0.0000 0.0000 24.7193 0.0000
# 6 0.0000 0.0000 0.0000 0.0000 0.0000 -1.9606
#
#
#
# Elastic Compliance Matrix: (Units=1/GPa)
#
#
# Indices 1 2 3 4 5 6 
#
# 1 0.032110 -0.001603 -0.007488 0.000000 0.000000 0.000000
# 2 -0.001603 0.013098 0.001926 0.000000 0.000000 0.000000
# 3 -0.007488 0.001926 0.025820 0.000000 0.000000 0.000000
# 4 0.000000 0.000000 0.000000 0.169532 0.000000 0.000000
# 5 0.000000 0.000000 0.000000 0.000000 0.040454 0.000000
# 6 0.000000 0.000000 0.000000 0.000000 0.000000 -0.510048
#
#
# Mechanical properties :
#
#
# Convention : Reuss Voigt Hill
#
# Bulk Modulus (GPa) = 17.63637 18.57818 18.10728
# Shear Modulus (GPa) = -25.53571 15.43456 -5.05057
#
# Velocity S-wave (km/s) = -3.59969 2.79858 -1.60089
# Velocity P-wave (km/s) = 2.88577 4.45758 2.40232
#
# Compressibility (1/GPa) = 0.05670100
#
# Stress axis : x y z
#
# Youngs Moduli (GPa) = 31.14271 76.34563 38.72898
#
# Poissons Ratio (x) = 0.12236 0.28999
# Poissons Ratio (y) = 0.04991 -0.07461
# Poissons Ratio (z) = 0.23319 -0.14707
#
# Static dielectric constant tensor:
#      x y z
#    x 1.724600 0.000000 0.000000 
#    y 0.000000 1.690900 0.000000 
#    z 0.000000 0.000000 1.678060 
# 
# From -- ./inp_files/45310.got.cif
#   From: 2010.05.17/outbox.cif.g08.bks.cpg/sg64_23_cif.got.tgz:45310.got - 2010.06.03 16:29:19.
