data_PCOD9479109
_publ_section_title
;
Structure prediction by ZEFSAII (Michael W. Deem and Ramdas Pophale) SiO2 
 PCOD9479109
Probable space group: C M C A
;
_chemical_formula_sum "Si O2"
_cell_formula_units_Z 96
_cell_length_a 22.655722
_cell_length_b 18.171480
_cell_length_c 11.737866
_cell_angle_alpha 90.000000
_cell_angle_beta 90.000000
_cell_angle_gamma 90.000000
_cell_volume 4832.338569
_symmetry_space_group_name_H-M "C M C A"
_symmetry_group_IT_number 64
_symmetry_cell_setting 'orthorhombic'
loop_
_space_group_symop_operation_xyz
x,y,z
-x,1/2-y,1/2+z
x,-y,-z
-x,1/2+y,1/2-z
-x,-y,-z
x,1/2+y,1/2-z
-x,y,z
x,1/2-y,1/2+z
1/2+x,1/2+y,z
1/2-x,-y,1/2+z
1/2+x,1/2-y,-z
1/2-x,y,1/2-z
1/2-x,1/2-y,-z
1/2+x,y,1/2-z
1/2-x,1/2+y,z
1/2+x,-y,1/2+z
loop_
_atom_site_type_symbol
_atom_site_label
_atom_site_fract_x
_atom_site_fract_y
_atom_site_fract_z
Si Si1 0.929587 0.969861 0.666448
Si Si2 0.432804 0.428107 0.921220
Si Si3 0.242709 0.795956 0.380066
Si Si4 0.869541 0.665818 0.600216
Si Si5 0.566637 0.188801 0.056139
Si Si6 0.883673 0.126176 0.652340
O O1 0.913519 0.952573 0.796848
O O2 0.921097 0.892327 0.604362
O O3 0.000000 0.988018 0.659108
O O4 0.893706 0.040465 0.624116
O O5 0.500000 0.400030 0.912181
O O6 0.432800 0.500000 0.000000
O O7 0.393784 0.368311 0.984642
O O8 0.250000 0.760571 0.250000
O O9 0.250000 0.750000 0.500000
O O10 0.300146 0.847272 0.387833
O O11 0.181199 0.840413 0.375077
O O12 0.886674 0.751667 0.598943
O O13 0.897698 0.632665 0.713959
O O14 0.500000 0.211002 0.087061
O O15 0.573211 0.177180 0.921327
#
# Coordination Sequence:
#
# PCOD9479109 Si02
#       6
#    16  16  16  16  16  16
#     4  10  22  40  63  94 131 172 215 265 327 398
#     4  10  20  37  61  90 128 168 207 263 332 392
#     4  10  22  42  68  91 124 173 215 267 322 380
#     4  11  23  40  65  92 126 167 220 267 321 391
#     4  11  24  37  61  96 128 166 212 263 324 388
#     4  11  22  41  65  85 127 172 215 264 326 383
#
# _framework density 19.866157999999999
#
# number of rings (size 3 to 8) (size 9 to 14) (size 15 to 20)
#    0.000    1.500    3.333    1.500    2.333    3.333 
#    0.000    1.667    0.000    0.000    0.000    0.000 
#    0.000    0.000    0.000    0.000    0.000    0.000 
#
# Total GULP energy -267561.846606 kJ/mol
# GULP energy per Si atom -5574.205138 kJ/mol
# Density = 1.982094 g / cm^3
# Si number density = 19.866158 Si / 1000 Ang^3
#
#
#
# Elastic Constant Matrix: (Units=GPa)
#
#
# Indices 1 2 3 4 5 6 
#
# 1 65.4296 36.1733 19.8637 0.0000 0.0000 0.0000
# 2 36.1733 74.6959 26.5348 0.0000 0.0000 0.0000
# 3 19.8637 26.5348 100.1598 0.0000 0.0000 0.0000
# 4 0.0000 0.0000 0.0000 35.6371 0.0000 0.0000
# 5 0.0000 0.0000 0.0000 0.0000 22.7808 0.0000
# 6 0.0000 0.0000 0.0000 0.0000 0.0000 16.0410
#
#
#
# Elastic Compliance Matrix: (Units=1/GPa)
#
#
# Indices 1 2 3 4 5 6 
#
# 1 0.021111 -0.009644 -0.001632 0.000000 0.000000 0.000000
# 2 -0.009644 0.019184 -0.003170 0.000000 0.000000 0.000000
# 3 -0.001632 -0.003170 0.011147 0.000000 0.000000 0.000000
# 4 0.000000 0.000000 0.000000 0.028061 0.000000 0.000000
# 5 0.000000 0.000000 0.000000 0.000000 0.043897 0.000000
# 6 0.000000 0.000000 0.000000 0.000000 0.000000 0.062340
#
#
# Mechanical properties :
#
#
# Convention : Reuss Voigt Hill
#
# Bulk Modulus (GPa) = 44.34312 45.04766 44.69539
# Shear Modulus (GPa) = 22.50765 25.40603 23.95684
#
# Velocity S-wave (km/s) = 3.36961 3.57999 3.47639
# Velocity P-wave (km/s) = 6.12441 6.30978 6.21778
#
# Compressibility (1/GPa) = 0.02255141
#
# Stress axis : x y z
#
# Youngs Moduli (GPa) = 47.36971 52.12740 89.70700
#
# Poissons Ratio (x) = 0.50270 0.14638
# Poissons Ratio (y) = 0.45681 0.28435
# Poissons Ratio (z) = 0.07730 0.16523
#
# Static dielectric constant tensor:
#      x y z
#    x 1.698720 0.000000 0.000000 
#    y 0.000000 1.690880 0.000000 
#    z 0.000000 0.000000 1.775560 
# 
# From -- ./inp_files/18373.got.cif
#   From: 2010.05.17/outbox.cif.g08.bks.cpg/sg64_10_cif.got.tgz:18373.got - 2010.06.03 16:29:19.
