data_PCOD9479681
_publ_section_title
;
Structure prediction by ZEFSAII (Michael W. Deem and Ramdas Pophale) SiO2 
 PCOD9479681
Probable space group: C M C A
;
_chemical_formula_sum "Si O2"
_cell_formula_units_Z 80
_cell_length_a 26.009864
_cell_length_b 13.779691
_cell_length_c 12.221133
_cell_angle_alpha 90.000000
_cell_angle_beta 90.000000
_cell_angle_gamma 90.000000
_cell_volume 4380.150478
_symmetry_space_group_name_H-M "C M C A"
_symmetry_group_IT_number 64
_symmetry_cell_setting 'orthorhombic'
loop_
_space_group_symop_operation_xyz
x,y,z
-x,1/2-y,1/2+z
x,-y,-z
-x,1/2+y,1/2-z
-x,-y,-z
x,1/2+y,1/2-z
-x,y,z
x,1/2-y,1/2+z
1/2+x,1/2+y,z
1/2-x,-y,1/2+z
1/2+x,1/2-y,-z
1/2-x,y,1/2-z
1/2-x,1/2-y,-z
1/2+x,y,1/2-z
1/2-x,1/2+y,z
1/2+x,-y,1/2+z
loop_
_atom_site_type_symbol
_atom_site_label
_atom_site_fract_x
_atom_site_fract_y
_atom_site_fract_z
Si Si1 0.441419 0.951839 0.849193
Si Si2 0.396090 0.361556 0.444982
Si Si3 0.380877 0.326202 0.810314
Si Si4 0.708357 0.391433 0.961838
Si Si5 0.308588 0.293383 0.602553
O O1 0.500000 0.985907 0.843290
O O2 0.423605 0.894501 0.742806
O O3 0.403129 0.041500 0.873510
O O4 0.434650 0.880394 0.953661
O O5 0.404021 0.267154 0.371282
O O6 0.341413 0.344669 0.504906
O O7 0.344438 0.382589 0.894865
O O8 0.343575 0.294462 0.710075
O O9 0.755491 0.351310 0.889245
O O10 0.717874 0.500000 0.000000
O O11 0.703759 0.315335 0.062224
#
# Coordination Sequence:
#
# PCOD9479681 Si02
#       5
#    16  16  16  16  16
#     4  10  21  36  59  84 106 146 197 236 290 338
#     4   9  19  36  57  77 115 146 184 238 273 334
#     4  10  21  36  57  83 113 148 186 232 281 335
#     4  10  21  35  56  82 118 149 183 226 276 334
#     4   9  20  37  52  84 116 150 185 221 275 338
#
# _framework density 18.264213000000002
#
# number of rings (size 3 to 8) (size 9 to 14) (size 15 to 20)
#    0.000    2.400    0.000    1.800    8.400    1.600 
#    0.000    2.000    0.000    0.600    0.000    0.000 
#    0.000    0.000    0.000    0.000    0.000    0.000 
#
# Total GULP energy -223039.069960 kJ/mol
# GULP energy per Si atom -5575.976749 kJ/mol
# Density = 1.822264 g / cm^3
# Si number density = 18.264213 Si / 1000 Ang^3
#
#
#
# Elastic Constant Matrix: (Units=GPa)
#
#
# Indices 1 2 3 4 5 6 
#
# 1 42.5368 33.4212 -1.4654 0.0000 0.0000 0.0000
# 2 33.4212 117.3263 38.0550 0.0000 0.0000 0.0000
# 3 -1.4654 38.0550 45.4318 0.0000 0.0000 0.0000
# 4 0.0000 0.0000 0.0000 26.8530 0.0000 0.0000
# 5 0.0000 0.0000 0.0000 0.0000 14.1731 0.0000
# 6 0.0000 0.0000 0.0000 0.0000 0.0000 11.2711
#
#
#
# Elastic Compliance Matrix: (Units=1/GPa)
#
#
# Indices 1 2 3 4 5 6 
#
# 1 0.035162 -0.014257 0.013077 0.000000 0.000000 0.000000
# 2 -0.014257 0.017484 -0.015105 0.000000 0.000000 0.000000
# 3 0.013077 -0.015105 0.035085 0.000000 0.000000 0.000000
# 4 0.000000 0.000000 0.000000 0.037240 0.000000 0.000000
# 5 0.000000 0.000000 0.000000 0.000000 0.070556 0.000000
# 6 0.000000 0.000000 0.000000 0.000000 0.000000 0.088723
#
#
# Mechanical properties :
#
#
# Convention : Reuss Voigt Hill
#
# Bulk Modulus (GPa) = 18.12938 38.36851 28.24895
# Shear Modulus (GPa) = 14.91615 19.47836 17.19725
#
# Velocity S-wave (km/s) = 2.86087 3.26924 3.07185
# Velocity P-wave (km/s) = 4.56733 5.94169 5.29925
#
# Compressibility (1/GPa) = 0.05515908
#
# Stress axis : x y z
#
# Youngs Moduli (GPa) = 28.44008 57.19567 28.50217
#
# Poissons Ratio (x) = 0.81546 -0.37271
# Poissons Ratio (y) = 0.40548 0.43052
# Poissons Ratio (z) = -0.37190 0.86393
#
# Static dielectric constant tensor:
#      x y z
#    x 1.613080 0.000000 0.000000 
#    y 0.000000 1.610230 0.000000 
#    z 0.000000 0.000000 1.639490 
# 
# From -- ./inp_files/19001.got.cif
#   From: 2010.05.17/outbox.cif.g08.bks.cpg/sg64_10_cif.got.tgz:19001.got - 2010.06.03 16:29:19.
