data_PCOD9479506
_publ_section_title
;
Structure prediction by ZEFSAII (Michael W. Deem and Ramdas Pophale) SiO2 
 PCOD9479506
Probable space group: C M C A
;
_chemical_formula_sum "Si O2"
_cell_formula_units_Z 92
_cell_length_a 20.466055
_cell_length_b 8.941004
_cell_length_c 27.461594
_cell_angle_alpha 90.000000
_cell_angle_beta 90.000000
_cell_angle_gamma 90.000000
_cell_volume 5025.116888
_symmetry_space_group_name_H-M "C M C A"
_symmetry_group_IT_number 64
_symmetry_cell_setting 'orthorhombic'
loop_
_space_group_symop_operation_xyz
x,y,z
-x,1/2-y,1/2+z
x,-y,-z
-x,1/2+y,1/2-z
-x,-y,-z
x,1/2+y,1/2-z
-x,y,z
x,1/2-y,1/2+z
1/2+x,1/2+y,z
1/2-x,-y,1/2+z
1/2+x,1/2-y,-z
1/2-x,y,1/2-z
1/2-x,1/2-y,-z
1/2+x,y,1/2-z
1/2-x,1/2+y,z
1/2+x,-y,1/2+z
loop_
_atom_site_type_symbol
_atom_site_label
_atom_site_fract_x
_atom_site_fract_y
_atom_site_fract_z
Si Si1 0.192692 0.994108 0.816909
Si Si2 0.425296 0.996089 0.389330
Si Si3 0.108914 0.206410 0.554658
Si Si4 0.330819 0.815716 0.455996
Si Si5 0.718512 0.995199 0.911925
Si Si6 0.250000 0.247314 0.750000
Si Si7 0.500000 0.500000 0.500000
O O1 0.203012 0.853704 0.781549
O O2 0.122978 0.002818 0.843203
O O3 0.246235 0.981064 0.860069
O O4 0.209260 0.141320 0.786008
O O5 0.500000 0.958981 0.378130
O O6 0.394180 0.879192 0.427826
O O7 0.421310 0.158850 0.414502
O O8 0.150701 0.281327 0.511126
O O9 0.158075 0.109272 0.587475
O O10 0.056976 0.098075 0.528907
O O11 0.306554 0.663076 0.431059
O O12 0.273418 0.934296 0.447102
#
# Coordination Sequence:
#
# PCOD9479506 Si02
#       7
#    16  16  16  16  16   8   4
#     4  10  21  39  62  92 110 146 186 246 308 361
#     4  11  24  39  59  84 123 159 201 239 289 351
#     4  12  23  39  57  82 124 168 207 242 282 338
#     4  11  23  36  57  87 119 163 206 247 287 332
#     4  11  21  38  60  87 119 148 203 253 292 340
#     4  10  20  40  68  86 114 134 186 248 314 370
#     4  12  24  40  54  84 124 176 212 232 288 344
#
# _framework density 18.308031
#
# number of rings (size 3 to 8) (size 9 to 14) (size 15 to 20)
#    0.000    1.043    2.609    6.261    1.217    3.478 
#    0.000    0.870    0.000    0.000    0.000    0.000 
#    0.000    0.000    0.000    0.000    0.000    0.000 
#
# Total GULP energy -256761.200929 kJ/mol
# GULP energy per Si atom -5581.765238 kJ/mol
# Density = 1.826636 g / cm^3
# Si number density = 18.308031 Si / 1000 Ang^3
#
#
#
# Elastic Constant Matrix: (Units=GPa)
#
#
# Indices 1 2 3 4 5 6 
#
# 1 118.4963 48.1147 28.0185 0.0000 0.0000 0.0000
# 2 48.1147 95.9449 31.9782 0.0000 0.0000 0.0000
# 3 28.0185 31.9782 62.4919 0.0000 0.0000 0.0000
# 4 0.0000 0.0000 0.0000 24.3816 0.0000 0.0000
# 5 0.0000 0.0000 0.0000 0.0000 8.8398 0.0000
# 6 0.0000 0.0000 0.0000 0.0000 0.0000 10.0402
#
#
#
# Elastic Compliance Matrix: (Units=1/GPa)
#
#
# Indices 1 2 3 4 5 6 
#
# 1 0.010917 -0.004634 -0.002524 0.000000 0.000000 0.000000
# 2 -0.004634 0.014533 -0.005359 0.000000 0.000000 0.000000
# 3 -0.002524 -0.005359 0.019876 0.000000 0.000000 0.000000
# 4 0.000000 0.000000 0.000000 0.041015 0.000000 0.000000
# 5 0.000000 0.000000 0.000000 0.000000 0.113125 0.000000
# 6 0.000000 0.000000 0.000000 0.000000 0.000000 0.099600
#
#
# Mechanical properties :
#
#
# Convention : Reuss Voigt Hill
#
# Bulk Modulus (GPa) = 49.27822 54.79507 52.03664
# Shear Modulus (GPa) = 15.11203 19.90709 17.50956
#
# Velocity S-wave (km/s) = 2.87615 3.30106 3.09591
# Velocity P-wave (km/s) = 6.16476 6.67262 6.42371
#
# Compressibility (1/GPa) = 0.02029294
#
# Stress axis : x y z
#
# Youngs Moduli (GPa) = 91.59783 68.81123 50.31225
#
# Poissons Ratio (x) = 0.31885 0.12697
# Poissons Ratio (y) = 0.42444 0.26962
# Poissons Ratio (z) = 0.23116 0.36876
#
# Static dielectric constant tensor:
#      x y z
#    x 1.618390 0.000000 0.000000 
#    y 0.000000 1.647320 0.000000 
#    z 0.000000 0.000000 1.617800 
# 
# From -- ./inp_files/50708.got.cif
#   From: 2010.05.17/outbox.cif.g08.bks.cpg/sg64_26_cif.got.tgz:50708.got - 2010.06.03 16:29:19.
