data_PCOD9479917
_publ_section_title
;
Structure prediction by ZEFSAII (Michael W. Deem and Ramdas Pophale) SiO2 
 PCOD9479917
Probable space group: C M C A
;
_chemical_formula_sum "Si O2"
_cell_formula_units_Z 80
_cell_length_a 27.080731
_cell_length_b 10.768722
_cell_length_c 12.879181
_cell_angle_alpha 90.000000
_cell_angle_beta 90.000000
_cell_angle_gamma 90.000000
_cell_volume 3755.889404
_symmetry_space_group_name_H-M "C M C A"
_symmetry_group_IT_number 64
_symmetry_cell_setting 'orthorhombic'
loop_
_space_group_symop_operation_xyz
x,y,z
-x,1/2-y,1/2+z
x,-y,-z
-x,1/2+y,1/2-z
-x,-y,-z
x,1/2+y,1/2-z
-x,y,z
x,1/2-y,1/2+z
1/2+x,1/2+y,z
1/2-x,-y,1/2+z
1/2+x,1/2-y,-z
1/2-x,y,1/2-z
1/2-x,1/2-y,-z
1/2+x,y,1/2-z
1/2-x,1/2+y,z
1/2+x,-y,1/2+z
loop_
_atom_site_type_symbol
_atom_site_label
_atom_site_fract_x
_atom_site_fract_y
_atom_site_fract_z
Si Si1 0.307201 0.146006 0.777392
Si Si2 0.442844 0.959174 0.214855
Si Si3 0.642467 0.112368 0.190774
Si Si4 0.054739 0.134169 0.946760
Si Si5 0.626081 0.166891 0.959945
O O1 0.250000 0.150451 0.750000
O O2 0.334788 0.254602 0.714478
O O3 0.360419 0.099170 0.066917
O O4 0.323832 0.181277 0.894373
O O5 0.500000 0.977615 0.189645
O O6 0.413327 0.088660 0.229857
O O7 0.439241 0.886144 0.323420
O O8 0.413467 0.891138 0.121951
O O9 0.673032 0.995337 0.237224
O O10 0.000000 0.191592 0.964253
O O11 0.098312 0.211598 0.997807
O O12 0.054194 0.000000 0.000000
#
# Coordination Sequence:
#
# PCOD9479917 Si02
#       5
#    16  16  16  16  16
#     4  11  24  44  67  92 125 166 216 274 334 391
#     4  10  21  38  62  93 131 172 211 257 316 386
#     4  11  24  43  66  95 130 167 215 270 326 392
#     4  10  21  37  60  94 136 179 219 262 321 393
#     4  11  22  39  64  94 130 169 219 273 324 385
#
# _framework density 21.299880000000002
#
# number of rings (size 3 to 8) (size 9 to 14) (size 15 to 20)
#    0.000    1.400    0.000    7.200    0.000    3.200 
#    0.000   10.000    0.000    0.000    0.000    0.000 
#    0.000    0.000    0.000    0.000    0.000    0.000 
#
# Total GULP energy -223245.353383 kJ/mol
# GULP energy per Si atom -5581.133835 kJ/mol
# Density = 2.125140 g / cm^3
# Si number density = 21.299880 Si / 1000 Ang^3
#
#
#
# Elastic Constant Matrix: (Units=GPa)
#
#
# Indices 1 2 3 4 5 6 
#
# 1 182.0651 63.6475 56.4518 0.0000 0.0000 0.0000
# 2 63.6475 105.9473 45.4842 0.0000 0.0000 0.0000
# 3 56.4518 45.4842 101.9192 0.0000 0.0000 0.0000
# 4 0.0000 0.0000 0.0000 35.8219 0.0000 0.0000
# 5 0.0000 0.0000 0.0000 0.0000 15.3846 0.0000
# 6 0.0000 0.0000 0.0000 0.0000 0.0000 10.7939
#
#
#
# Elastic Compliance Matrix: (Units=1/GPa)
#
#
# Indices 1 2 3 4 5 6 
#
# 1 0.007489 -0.003362 -0.002647 0.000000 0.000000 0.000000
# 2 -0.003362 0.013185 -0.004022 0.000000 0.000000 0.000000
# 3 -0.002647 -0.004022 0.013073 0.000000 0.000000 0.000000
# 4 0.000000 0.000000 0.000000 0.027916 0.000000 0.000000
# 5 0.000000 0.000000 0.000000 0.000000 0.065000 0.000000
# 6 0.000000 0.000000 0.000000 0.000000 0.000000 0.092645
#
#
# Mechanical properties :
#
#
# Convention : Reuss Voigt Hill
#
# Bulk Modulus (GPa) = 73.07989 80.12208 76.60098
# Shear Modulus (GPa) = 20.49748 27.35663 23.92705
#
# Velocity S-wave (km/s) = 3.10551 3.58768 3.35527
# Velocity P-wave (km/s) = 6.87338 7.40674 7.14504
#
# Compressibility (1/GPa) = 0.01368366
#
# Stress axis : x y z
#
# Youngs Moduli (GPa) = 133.53195 75.84264 76.49370
#
# Poissons Ratio (x) = 0.25501 0.20251
# Poissons Ratio (y) = 0.44898 0.30765
# Poissons Ratio (z) = 0.35352 0.30503
#
# Static dielectric constant tensor:
#      x y z
#    x 1.769850 0.000000 0.000000 
#    y 0.000000 1.884070 0.000000 
#    z 0.000000 0.000000 1.772870 
# 
# From -- ./inp_files/27910.got.cif
#   From: 2010.05.17/outbox.cif.g08.bks.cpg/sg64_14_cif.got.tgz:27910.got - 2010.06.03 16:29:19.
