data_PCOD9479883
_publ_section_title
;
Structure prediction by ZEFSAII (Michael W. Deem and Ramdas Pophale) SiO2 
 PCOD9479883
Probable space group: C M C A
;
_chemical_formula_sum "Si O2"
_cell_formula_units_Z 64
_cell_length_a 15.262682
_cell_length_b 14.364937
_cell_length_c 14.929942
_cell_angle_alpha 90.000000
_cell_angle_beta 90.000000
_cell_angle_gamma 90.000000
_cell_volume 3273.351942
_symmetry_space_group_name_H-M "C M C A"
_symmetry_group_IT_number 64
_symmetry_cell_setting 'orthorhombic'
loop_
_space_group_symop_operation_xyz
x,y,z
-x,1/2-y,1/2+z
x,-y,-z
-x,1/2+y,1/2-z
-x,-y,-z
x,1/2+y,1/2-z
-x,y,z
x,1/2-y,1/2+z
1/2+x,1/2+y,z
1/2-x,-y,1/2+z
1/2+x,1/2-y,-z
1/2-x,y,1/2-z
1/2-x,1/2-y,-z
1/2+x,y,1/2-z
1/2-x,1/2+y,z
1/2+x,-y,1/2+z
loop_
_atom_site_type_symbol
_atom_site_label
_atom_site_fract_x
_atom_site_fract_y
_atom_site_fract_z
Si Si1 0.100725 0.917102 0.157672
Si Si2 0.751719 0.140580 0.521829
Si Si3 0.102891 0.183610 0.652783
Si Si4 0.814022 0.611375 0.334529
O O1 0.167857 0.883361 0.082267
O O2 0.117041 0.860700 0.249209
O O3 0.000000 0.903355 0.130358
O O4 0.120159 0.025427 0.175445
O O5 0.750000 0.250000 0.500000
O O6 0.838710 0.128035 0.580707
O O7 0.741428 0.092928 0.425473
O O8 0.136064 0.290423 0.655688
O O9 0.000000 0.180104 0.631922
O O10 0.750000 0.616039 0.250000
#
# Coordination Sequence:
#
# PCOD9479883 Si02
#       4
#    16  16  16  16
#     4  11  23  39  62  90 121 158 201 250 304 365
#     4  10  21  37  59  85 117 156 196 245 298 352
#     4  10  21  39  61  88 122 158 201 250 302 360
#     4  11  22  38  61  88 122 161 203 248 302 360
#
# _framework density 19.551824
#
# number of rings (size 3 to 8) (size 9 to 14) (size 15 to 20)
#    0.000    1.500    0.000    6.750    0.000    6.000 
#    0.000    2.500    0.000    6.000    0.000    0.000 
#    0.000    0.000    0.000    0.000    0.000    0.000 
#
# Total GULP energy -178819.179343 kJ/mol
# GULP energy per Si atom -5588.099354 kJ/mol
# Density = 1.950732 g / cm^3
# Si number density = 19.551824 Si / 1000 Ang^3
#
#
#
# Elastic Constant Matrix: (Units=GPa)
#
#
# Indices 1 2 3 4 5 6 
#
# 1 138.8576 36.9368 110.8250 0.0000 0.0000 0.0000
# 2 36.9368 96.0121 28.7983 0.0000 0.0000 0.0000
# 3 110.8250 28.7983 151.8140 0.0000 0.0000 0.0000
# 4 0.0000 0.0000 0.0000 21.6093 0.0000 0.0000
# 5 0.0000 0.0000 0.0000 0.0000 18.8330 0.0000
# 6 0.0000 0.0000 0.0000 0.0000 0.0000 34.6347
#
#
#
# Elastic Compliance Matrix: (Units=1/GPa)
#
#
# Indices 1 2 3 4 5 6 
#
# 1 0.018130 -0.003186 -0.012630 0.000000 0.000000 0.000000
# 2 -0.003186 0.011604 0.000125 0.000000 0.000000 0.000000
# 3 -0.012630 0.000125 0.015784 0.000000 0.000000 0.000000
# 4 0.000000 0.000000 0.000000 0.046276 0.000000 0.000000
# 5 0.000000 0.000000 0.000000 0.000000 0.053098 0.000000
# 6 0.000000 0.000000 0.000000 0.000000 0.000000 0.028873
#
#
# Mechanical properties :
#
#
# Convention : Reuss Voigt Hill
#
# Bulk Modulus (GPa) = 70.75456 82.20046 76.47751
# Shear Modulus (GPa) = 23.82549 29.02364 26.42456
#
# Velocity S-wave (km/s) = 3.49461 3.85703 3.68028
# Velocity P-wave (km/s) = 7.24912 7.87205 7.56700
#
# Compressibility (1/GPa) = 0.01413336
#
# Stress axis : x y z
#
# Youngs Moduli (GPa) = 55.15798 86.17941 63.35703
#
# Poissons Ratio (x) = 0.27459 0.80022
# Poissons Ratio (y) = 0.17575 -0.00791
# Poissons Ratio (z) = 0.69667 -0.01076
#
# Static dielectric constant tensor:
#      x y z
#    x 1.653930 0.000000 0.000000 
#    y 0.000000 1.697280 0.000000 
#    z 0.000000 0.000000 1.686360 
# 
# From -- ./inp_files/23226.got.cif
#   From: 2010.05.17/outbox.cif.g08.bks.cpg/sg64_12_cif.got.tgz:23226.got - 2010.06.03 16:29:19.
