data_PCOD9479239
_publ_section_title
;
Structure prediction by ZEFSAII (Michael W. Deem and Ramdas Pophale) SiO2 
 PCOD9479239
Probable space group: C M C A
;
_chemical_formula_sum "Si O2"
_cell_formula_units_Z 88
_cell_length_a 18.398858
_cell_length_b 11.497321
_cell_length_c 23.186985
_cell_angle_alpha 90.000000
_cell_angle_beta 90.000000
_cell_angle_gamma 90.000000
_cell_volume 4904.918612
_symmetry_space_group_name_H-M "C M C A"
_symmetry_group_IT_number 64
_symmetry_cell_setting 'orthorhombic'
loop_
_space_group_symop_operation_xyz
x,y,z
-x,1/2-y,1/2+z
x,-y,-z
-x,1/2+y,1/2-z
-x,-y,-z
x,1/2+y,1/2-z
-x,y,z
x,1/2-y,1/2+z
1/2+x,1/2+y,z
1/2-x,-y,1/2+z
1/2+x,1/2-y,-z
1/2-x,y,1/2-z
1/2-x,1/2-y,-z
1/2+x,y,1/2-z
1/2-x,1/2+y,z
1/2+x,-y,1/2+z
loop_
_atom_site_type_symbol
_atom_site_label
_atom_site_fract_x
_atom_site_fract_y
_atom_site_fract_z
Si Si1 0.875375 0.500000 0.500000
Si Si2 0.158980 0.594943 0.852152
Si Si3 0.267003 0.325103 0.056486
Si Si4 0.500000 0.108241 0.888174
Si Si5 0.345236 0.822319 0.845390
Si Si6 0.000000 0.189549 0.015589
Si Si7 0.250000 0.288314 0.250000
Si Si8 0.000000 0.330521 0.894473
O O1 0.820017 0.434147 0.456729
O O2 0.929785 0.396656 0.521332
O O3 0.192828 0.637739 0.912472
O O4 0.073771 0.624482 0.851836
O O5 0.167640 0.457797 0.851874
O O6 0.205245 0.642392 0.798595
O O7 0.306618 0.244763 0.102809
O O8 0.250000 0.250000 0.000000
O O9 0.500000 0.204951 0.938665
O O10 0.500000 0.970880 0.908269
O O11 0.309897 0.782983 0.785690
O O12 0.430105 0.802796 0.855863
O O13 0.000000 0.252142 0.952523
#
# Coordination Sequence:
#
# PCOD9479239 Si02
#       8
#     8  16  16   8  16   8   8   8
#     4  11  22  34  58  85 130 160 196 243 300 360
#     4  10  22  38  60  86 114 157 203 251 303 361
#     4  11  21  36  57  88 123 161 198 245 300 364
#     4  10  22  38  61  86 119 161 206 248 304 366
#     4  10  21  38  60  83 116 155 200 247 303 360
#     4  11  21  38  56  88 132 161 199 247 298 376
#     4  10  22  40  62  84 116 150 204 266 304 356
#     4  10  20  38  61  86 120 163 199 245 304 368
#
# _framework density 17.941175000000001
#
# number of rings (size 3 to 8) (size 9 to 14) (size 15 to 20)
#    0.000    1.636    1.818    3.000    0.000    2.182 
#    0.000    0.000    0.000    0.000    0.000    0.000 
#    0.000    0.000    0.000    0.000    0.000    0.000 
#
# Total GULP energy -245317.395862 kJ/mol
# GULP energy per Si atom -5575.395360 kJ/mol
# Density = 1.790034 g / cm^3
# Si number density = 17.941175 Si / 1000 Ang^3
#
#
#
# Elastic Constant Matrix: (Units=GPa)
#
#
# Indices 1 2 3 4 5 6 
#
# 1 124.3759 60.6289 46.2009 0.0000 0.0000 0.0000
# 2 60.6289 84.3522 51.5398 0.0000 0.0000 0.0000
# 3 46.2009 51.5398 103.3826 0.0000 0.0000 0.0000
# 4 0.0000 0.0000 0.0000 19.6676 0.0000 0.0000
# 5 0.0000 0.0000 0.0000 0.0000 19.7201 0.0000
# 6 0.0000 0.0000 0.0000 0.0000 0.0000 4.8079
#
#
#
# Elastic Compliance Matrix: (Units=1/GPa)
#
#
# Indices 1 2 3 4 5 6 
#
# 1 0.012558 -0.008049 -0.001599 0.000000 0.000000 0.000000
# 2 -0.008049 0.022207 -0.007474 0.000000 0.000000 0.000000
# 3 -0.001599 -0.007474 0.014114 0.000000 0.000000 0.000000
# 4 0.000000 0.000000 0.000000 0.050845 0.000000 0.000000
# 5 0.000000 0.000000 0.000000 0.000000 0.050710 0.000000
# 6 0.000000 0.000000 0.000000 0.000000 0.000000 0.207992
#
#
# Mechanical properties :
#
#
# Convention : Reuss Voigt Hill
#
# Bulk Modulus (GPa) = 68.33408 69.87219 69.10313
# Shear Modulus (GPa) = 12.57713 19.08854 15.83283
#
# Velocity S-wave (km/s) = 2.65055 3.26537 2.97389
# Velocity P-wave (km/s) = 6.89476 7.29702 7.09874
#
# Compressibility (1/GPa) = 0.01463399
#
# Stress axis : x y z
#
# Youngs Moduli (GPa) = 79.63220 45.03134 70.85384
#
# Poissons Ratio (x) = 0.36245 0.11332
# Poissons Ratio (y) = 0.64094 0.52956
# Poissons Ratio (z) = 0.12736 0.33656
#
# Static dielectric constant tensor:
#      x y z
#    x 1.649520 0.000000 0.000000 
#    y 0.000000 1.608820 0.000000 
#    z 0.000000 0.000000 1.443750 
# 
# From -- ./inp_files/40111.got.cif
#   From: 2010.05.17/outbox.cif.g08.bks.cpg/sg64_21_cif.got.tgz:40111.got - 2010.06.03 16:29:19.
