data_PCOD9479540
_publ_section_title
;
Structure prediction by ZEFSAII (Michael W. Deem and Ramdas Pophale) SiO2 
 PCOD9479540
Probable space group: C M C A
;
_chemical_formula_sum "Si O2"
_cell_formula_units_Z 104
_cell_length_a 20.236153
_cell_length_b 26.232500
_cell_length_c 9.555034
_cell_angle_alpha 90.000000
_cell_angle_beta 90.000000
_cell_angle_gamma 90.000000
_cell_volume 5072.240911
_symmetry_space_group_name_H-M "C M C A"
_symmetry_group_IT_number 64
_symmetry_cell_setting 'orthorhombic'
loop_
_space_group_symop_operation_xyz
x,y,z
-x,1/2-y,1/2+z
x,-y,-z
-x,1/2+y,1/2-z
-x,-y,-z
x,1/2+y,1/2-z
-x,y,z
x,1/2-y,1/2+z
1/2+x,1/2+y,z
1/2-x,-y,1/2+z
1/2+x,1/2-y,-z
1/2-x,y,1/2-z
1/2-x,1/2-y,-z
1/2+x,y,1/2-z
1/2-x,1/2+y,z
1/2+x,-y,1/2+z
loop_
_atom_site_type_symbol
_atom_site_label
_atom_site_fract_x
_atom_site_fract_y
_atom_site_fract_z
Si Si1 0.786966 0.622248 0.492925
Si Si2 0.500000 0.130132 0.455791
Si Si3 0.118179 0.930057 0.799741
Si Si4 0.674735 0.536378 0.781740
Si Si5 0.077635 0.797922 0.392303
Si Si6 0.365928 0.902604 0.014238
Si Si7 0.617080 0.204406 0.576864
O O1 0.818300 0.602589 0.349069
O O2 0.815806 0.582681 0.609853
O O3 0.708645 0.618472 0.496746
O O4 0.815346 0.677265 0.531066
O O5 0.442516 0.094640 0.380950
O O6 0.558244 0.166900 0.525255
O O7 0.111232 0.925630 0.632641
O O8 0.133379 0.988667 0.835606
O O9 0.750000 0.518393 0.750000
O O10 0.640995 0.557515 0.641018
O O11 0.088363 0.855595 0.442042
O O12 0.106359 0.758481 0.503953
O O13 0.112241 0.790917 0.243180
O O14 0.000000 0.787013 0.375040
#
# Coordination Sequence:
#
# PCOD9479540 Si02
#       7
#    16   8  16  16  16  16  16
#     4  10  22  43  65  96 134 170 219 278 330 387
#     4  10  24  44  64  92 134 165 218 276 315 385
#     4  11  23  39  67  98 132 179 223 264 323 400
#     4  10  20  41  67  95 135 177 220 271 334 392
#     4  12  25  42  69  94 125 175 217 266 339 395
#     4  11  24  40  66  99 136 171 216 278 329 392
#     4  11  24  44  69  92 126 169 223 273 328 400
#
# _framework density 20.503757
#
# number of rings (size 3 to 8) (size 9 to 14) (size 15 to 20)
#    0.000    1.231    3.077    2.308    5.385    3.077 
#    1.385    6.923    0.000    0.000    0.000    0.000 
#    0.000    0.000    0.000    0.000    0.000    0.000 
#
# Total GULP energy -289699.571275 kJ/mol
# GULP energy per Si atom -5571.145601 kJ/mol
# Density = 2.045709 g / cm^3
# Si number density = 20.503757 Si / 1000 Ang^3
#
#
#
# Elastic Constant Matrix: (Units=GPa)
#
#
# Indices 1 2 3 4 5 6 
#
# 1 31.3747 -6.8280 -18.9606 0.0000 0.0000 0.0000
# 2 -6.8280 45.3401 20.7605 0.0000 0.0000 0.0000
# 3 -18.9606 20.7605 79.4472 0.0000 0.0000 0.0000
# 4 0.0000 0.0000 0.0000 28.2829 0.0000 0.0000
# 5 0.0000 0.0000 0.0000 0.0000 13.9935 0.0000
# 6 0.0000 0.0000 0.0000 0.0000 0.0000 22.8622
#
#
#
# Elastic Compliance Matrix: (Units=1/GPa)
#
#
# Indices 1 2 3 4 5 6 
#
# 1 0.037367 0.001754 0.008460 0.000000 0.000000 0.000000
# 2 0.001754 0.025135 -0.006150 0.000000 0.000000 0.000000
# 3 0.008460 -0.006150 0.016213 0.000000 0.000000 0.000000
# 4 0.000000 0.000000 0.000000 0.035357 0.000000 0.000000
# 5 0.000000 0.000000 0.000000 0.000000 0.071462 0.000000
# 6 0.000000 0.000000 0.000000 0.000000 0.000000 0.043740
#
#
# Mechanical properties :
#
#
# Convention : Reuss Voigt Hill
#
# Bulk Modulus (GPa) = 11.51509 16.23398 13.87454
# Shear Modulus (GPa) = 19.99245 23.77372 21.88308
#
# Velocity S-wave (km/s) = 3.12599 3.40881 3.27046
# Velocity P-wave (km/s) = 4.31941 4.84025 4.58723
#
# Compressibility (1/GPa) = 0.08684256
#
# Stress axis : x y z
#
# Youngs Moduli (GPa) = 26.76168 39.78445 61.67933
#
# Poissons Ratio (x) = -0.06977 -0.52178
# Poissons Ratio (y) = -0.04693 0.37931
# Poissons Ratio (z) = -0.22639 0.24466
#
# Static dielectric constant tensor:
#      x y z
#    x 1.711740 0.000000 0.000000 
#    y 0.000000 1.699860 0.000000 
#    z 0.000000 0.000000 1.738980 
# 
# From -- ./inp_files/8503.got.cif
#   From: 2010.05.17/outbox.cif.g08.bks.cpg/sg64_5_cif.got.tgz:8503.got - 2010.06.03 16:29:19.
