data_PCOD9479459
_publ_section_title
;
Structure prediction by ZEFSAII (Michael W. Deem and Ramdas Pophale) SiO2 
 PCOD9479459
Probable space group: C M C A
;
_chemical_formula_sum "Si O2"
_cell_formula_units_Z 88
_cell_length_a 18.228209
_cell_length_b 12.552611
_cell_length_c 17.709414
_cell_angle_alpha 90.000000
_cell_angle_beta 90.000000
_cell_angle_gamma 90.000000
_cell_volume 4052.119650
_symmetry_space_group_name_H-M "C M C A"
_symmetry_group_IT_number 64
_symmetry_cell_setting 'orthorhombic'
loop_
_space_group_symop_operation_xyz
x,y,z
-x,1/2-y,1/2+z
x,-y,-z
-x,1/2+y,1/2-z
-x,-y,-z
x,1/2+y,1/2-z
-x,y,z
x,1/2-y,1/2+z
1/2+x,1/2+y,z
1/2-x,-y,1/2+z
1/2+x,1/2-y,-z
1/2-x,y,1/2-z
1/2-x,1/2-y,-z
1/2+x,y,1/2-z
1/2-x,1/2+y,z
1/2+x,-y,1/2+z
loop_
_atom_site_type_symbol
_atom_site_label
_atom_site_fract_x
_atom_site_fract_y
_atom_site_fract_z
Si Si1 0.255202 0.000000 0.000000
Si Si2 0.843181 0.110527 0.631732
Si Si3 0.160939 0.649828 0.408287
Si Si4 0.500000 0.963185 0.085386
Si Si5 0.500000 0.647159 0.855076
Si Si6 0.500000 0.630165 0.287850
Si Si7 0.126298 0.503892 0.713305
Si Si8 0.500000 0.375528 0.976005
O O1 0.304069 0.965871 0.071240
O O2 0.205309 0.101763 0.021279
O O3 0.818642 0.232019 0.618275
O O4 0.838001 0.068564 0.717744
O O5 0.928971 0.102207 0.610234
O O6 0.176161 0.563226 0.342796
O O7 0.074425 0.646948 0.430285
O O8 0.500000 0.072366 0.131989
O O9 0.500000 0.000000 0.000000
O O10 0.500000 0.745347 0.798124
O O11 0.427244 0.579706 0.835744
O O12 0.500000 0.681798 0.942415
O O13 0.428319 0.584832 0.247631
O O14 0.500000 0.500000 0.000000
#
# Coordination Sequence:
#
# PCOD9479459 Si02
#       8
#     8  16  16   8   8   8  16   8
#     4  12  26  46  64  98 136 166 226 270 318 412
#     4  11  25  43  70  95 132 175 214 274 330 383
#     4  12  24  44  69  97 132 174 216 268 337 381
#     4  10  20  40  62  97 128 161 213 265 312 383
#     4  11  19  33  60  97 132 167 206 261 332 376
#     4   9  20  31  58  94 129 163 204 260 321 379
#     4  10  21  40  60  91 133 165 223 266 313 394
#     4  12  21  40  66 100 130 163 209 275 316 379
#
# _framework density 21.717027999999999
#
# number of rings (size 3 to 8) (size 9 to 14) (size 15 to 20)
#    0.000    1.091    3.636    3.273    2.545    0.727 
#    0.000    7.273    0.000    0.000    0.000    0.000 
#    0.000    0.000    0.000    0.000    0.000    0.000 
#
# Total GULP energy -246044.095749 kJ/mol
# GULP energy per Si atom -5591.911267 kJ/mol
# Density = 2.166760 g / cm^3
# Si number density = 21.717028 Si / 1000 Ang^3
#
#
#
# Elastic Constant Matrix: (Units=GPa)
#
#
# Indices 1 2 3 4 5 6 
#
# 1 76.7048 14.7366 25.9640 0.0000 0.0000 0.0000
# 2 14.7366 108.4741 13.4541 0.0000 0.0000 0.0000
# 3 25.9640 13.4541 122.9752 0.0000 0.0000 0.0000
# 4 0.0000 0.0000 0.0000 20.8156 0.0000 0.0000
# 5 0.0000 0.0000 0.0000 0.0000 27.6156 0.0000
# 6 0.0000 0.0000 0.0000 0.0000 0.0000 -14.1561
#
#
#
# Elastic Compliance Matrix: (Units=1/GPa)
#
#
# Indices 1 2 3 4 5 6 
#
# 1 0.014306 -0.001590 -0.002846 0.000000 0.000000 0.000000
# 2 -0.001590 0.009522 -0.000706 0.000000 0.000000 0.000000
# 3 -0.002846 -0.000706 0.008810 0.000000 0.000000 0.000000
# 4 0.000000 0.000000 0.000000 0.048041 0.000000 0.000000
# 5 0.000000 0.000000 0.000000 0.000000 0.036211 0.000000
# 6 0.000000 0.000000 0.000000 0.000000 0.000000 -0.070641
#
#
# Mechanical properties :
#
#
# Convention : Reuss Voigt Hill
#
# Bulk Modulus (GPa) = 44.73765 46.27374 45.50570
# Shear Modulus (GPa) = 78.14140 23.78831 50.96486
#
# Velocity S-wave (km/s) = 6.00498 3.31324 4.84960
# Velocity P-wave (km/s) = 8.29003 5.99921 7.23586
#
# Compressibility (1/GPa) = 0.02235254
#
# Stress axis : x y z
#
# Youngs Moduli (GPa) = 69.90044 105.01523 113.50813
#
# Poissons Ratio (x) = 0.16703 0.32310
# Poissons Ratio (y) = 0.11118 0.08014
# Poissons Ratio (z) = 0.19897 0.07414
#
# Static dielectric constant tensor:
#      x y z
#    x 1.773440 0.000000 0.000000 
#    y 0.000000 1.778460 0.000000 
#    z 0.000000 0.000000 1.957430 
# 
# From -- ./inp_files/34181.got.cif
#   From: 2010.05.17/outbox.cif.g08.bks.cpg/sg64_18_cif.got.tgz:34181.got - 2010.06.03 16:29:19.
