data_PCOD9479039
_publ_section_title
;
Structure prediction by ZEFSAII (Michael W. Deem and Ramdas Pophale) SiO2 
 PCOD9479039
Probable space group: C M C A
;
_chemical_formula_sum "Si O2"
_cell_formula_units_Z 80
_cell_length_a 7.885417
_cell_length_b 14.350453
_cell_length_c 31.199374
_cell_angle_alpha 90.000000
_cell_angle_beta 90.000000
_cell_angle_gamma 90.000000
_cell_volume 3530.499511
_symmetry_space_group_name_H-M "C M C A"
_symmetry_group_IT_number 64
_symmetry_cell_setting 'orthorhombic'
loop_
_space_group_symop_operation_xyz
x,y,z
-x,1/2-y,1/2+z
x,-y,-z
-x,1/2+y,1/2-z
-x,-y,-z
x,1/2+y,1/2-z
-x,y,z
x,1/2-y,1/2+z
1/2+x,1/2+y,z
1/2-x,-y,1/2+z
1/2+x,1/2-y,-z
1/2-x,y,1/2-z
1/2-x,1/2-y,-z
1/2+x,y,1/2-z
1/2-x,1/2+y,z
1/2+x,-y,1/2+z
loop_
_atom_site_type_symbol
_atom_site_label
_atom_site_fract_x
_atom_site_fract_y
_atom_site_fract_z
Si Si1 0.791316 0.416748 0.627461
Si Si2 0.299031 0.822908 0.449038
Si Si3 0.200699 0.704707 0.858180
Si Si4 0.799113 0.052646 0.798410
Si Si5 0.803507 0.610632 0.464662
O O1 0.741067 0.311314 0.639546
O O2 0.729067 0.483970 0.664890
O O3 0.729590 0.433543 0.578658
O O4 0.000000 0.419856 0.626236
O O5 0.500000 0.809133 0.456381
O O6 0.276716 0.848588 0.399495
O O7 0.208400 0.722701 0.455114
O O8 0.237025 0.892775 0.486486
O O9 0.245446 0.654641 0.814188
O O10 0.000000 0.704013 0.863788
O O11 0.750000 0.031280 0.750000
O O12 0.000000 0.046812 0.800807
O O13 0.000000 0.581411 0.466016
#
# Coordination Sequence:
#
# PCOD9479039 Si02
#       5
#    16  16  16  16  16
#     4   8  17  35  58  80 106 142 181 220 264 317
#     4   9  15  25  47  79 110 142 180 220 263 313
#     4  10  20  37  58  81 111 146 181 219 265 318
#     4  11  23  40  59  80 105 135 176 225 275 324
#     4   8  14  27  48  75 108 145 182 219 262 315
#
# _framework density 22.659682
#
# number of rings (size 3 to 8) (size 9 to 14) (size 15 to 20)
#    0.000    2.800    0.000    3.000    0.000    1.600 
#    0.000   13.000    0.000    6.000    0.000    0.000 
#    0.000    0.000    0.000    0.000    0.000    0.000 
#
# Total GULP energy -223232.778356 kJ/mol
# GULP energy per Si atom -5580.819459 kJ/mol
# Density = 2.260811 g / cm^3
# Si number density = 22.659682 Si / 1000 Ang^3
#
#
#
# Elastic Constant Matrix: (Units=GPa)
#
#
# Indices 1 2 3 4 5 6 
#
# 1 43.5058 4.8350 10.3270 0.0000 0.0000 0.0000
# 2 4.8350 66.6160 48.6697 0.0000 0.0000 0.0000
# 3 10.3270 48.6697 158.4838 0.0000 0.0000 0.0000
# 4 0.0000 0.0000 0.0000 39.2770 0.0000 0.0000
# 5 0.0000 0.0000 0.0000 0.0000 33.2408 0.0000
# 6 0.0000 0.0000 0.0000 0.0000 0.0000 8.0592
#
#
#
# Elastic Compliance Matrix: (Units=1/GPa)
#
#
# Indices 1 2 3 4 5 6 
#
# 1 0.023376 -0.000753 -0.001292 0.000000 0.000000 0.000000
# 2 -0.000753 0.019378 -0.005902 0.000000 0.000000 0.000000
# 3 -0.001292 -0.005902 0.008206 0.000000 0.000000 0.000000
# 4 0.000000 0.000000 0.000000 0.025460 0.000000 0.000000
# 5 0.000000 0.000000 0.000000 0.000000 0.030083 0.000000
# 6 0.000000 0.000000 0.000000 0.000000 0.000000 0.124082
#
#
# Mechanical properties :
#
#
# Convention : Reuss Voigt Hill
#
# Bulk Modulus (GPa) = 28.51682 44.02991 36.27336
# Shear Modulus (GPa) = 19.36727 29.76700 24.56713
#
# Velocity S-wave (km/s) = 2.92670 3.62837 3.29626
# Velocity P-wave (km/s) = 4.90234 6.08494 5.52537
#
# Compressibility (1/GPa) = 0.03506703
#
# Stress axis : x y z
#
# Youngs Moduli (GPa) = 42.77932 51.60510 121.85591
#
# Poissons Ratio (x) = 0.03884 0.15745
# Poissons Ratio (y) = 0.03220 0.71917
# Poissons Ratio (z) = 0.05527 0.30456
#
# Static dielectric constant tensor:
#      x y z
#    x 1.848390 0.000000 0.000000 
#    y 0.000000 1.889150 0.000000 
#    z 0.000000 0.000000 1.832510 
# 
# From -- ./inp_files/51745.got.cif
#   From: 2010.05.17/outbox.cif.g08.bks.cpg/sg64_26_cif.got.tgz:51745.got - 2010.06.03 16:29:19.
