data_PCOD9479256
_publ_section_title
;
Structure prediction by ZEFSAII (Michael W. Deem and Ramdas Pophale) SiO2 
 PCOD9479256
Probable space group: C M C A
;
_chemical_formula_sum "Si O2"
_cell_formula_units_Z 128
_cell_length_a 24.092098
_cell_length_b 23.117918
_cell_length_c 10.321763
_cell_angle_alpha 90.000000
_cell_angle_beta 90.000000
_cell_angle_gamma 90.000000
_cell_volume 5748.800306
_symmetry_space_group_name_H-M "C M C A"
_symmetry_group_IT_number 64
_symmetry_cell_setting 'orthorhombic'
loop_
_space_group_symop_operation_xyz
x,y,z
-x,1/2-y,1/2+z
x,-y,-z
-x,1/2+y,1/2-z
-x,-y,-z
x,1/2+y,1/2-z
-x,y,z
x,1/2-y,1/2+z
1/2+x,1/2+y,z
1/2-x,-y,1/2+z
1/2+x,1/2-y,-z
1/2-x,y,1/2-z
1/2-x,1/2-y,-z
1/2+x,y,1/2-z
1/2-x,1/2+y,z
1/2+x,-y,1/2+z
loop_
_atom_site_type_symbol
_atom_site_label
_atom_site_fract_x
_atom_site_fract_y
_atom_site_fract_z
Si Si1 0.438436 0.767113 0.195989
Si Si2 0.153332 0.920041 0.054234
Si Si3 0.375461 0.962240 0.182485
Si Si4 0.376904 0.214723 0.544372
Si Si5 0.314611 0.432971 0.768368
Si Si6 0.938151 0.621240 0.976945
Si Si7 0.827907 0.828285 0.608286
Si Si8 0.268747 0.115467 0.879072
O O1 0.500000 0.742323 0.179763
O O2 0.423683 0.771988 0.346824
O O3 0.438027 0.832144 0.140048
O O4 0.397006 0.732615 0.099838
O O5 0.114894 0.947533 0.165279
O O6 0.140532 0.851584 0.051497
O O7 0.217476 0.927005 0.097593
O O8 0.157307 0.941706 0.907863
O O9 0.423355 0.940138 0.088260
O O10 0.324512 0.919756 0.146452
O O11 0.351684 0.027022 0.173356
O O12 0.330764 0.259721 0.595923
O O13 0.250000 0.450172 0.750000
O O14 0.316351 0.364811 0.736294
O O15 0.000000 0.621310 0.035637
O O16 0.888829 0.646660 0.065850
O O17 0.781939 0.848251 0.505044
O O18 0.250000 0.149158 0.750000
#
# Coordination Sequence:
#
# PCOD9479256 Si02
#       8
#    16  16  16  16  16  16  16  16
#     4  10  20  38  62  88 117 157 205 253 305 365
#     4  11  21  38  57  87 120 161 202 246 303 364
#     4  10  21  38  62  86 114 157 206 258 295 364
#     4  11  22  37  61  89 125 156 200 256 306 369
#     4  12  23  39  56  88 124 163 206 249 302 356
#     4   9  19  39  66  88 113 153 202 251 310 367
#     4  10  22  39  55  90 124 157 200 256 297 364
#     4   9  19  36  55  82 111 157 206 236 297 357
#
# _framework density 22.265514
#
# number of rings (size 3 to 8) (size 9 to 14) (size 15 to 20)
#    0.000    1.750    2.500    2.625    1.750    3.000 
#    0.000    1.250    0.000    3.750    0.000    0.000 
#    0.000    0.000    0.000    0.000    0.000    0.000 
#
# Total GULP energy -356951.776564 kJ/mol
# GULP energy per Si atom -5577.371509 kJ/mol
# Density = 2.221484 g / cm^3
# Si number density = 22.265514 Si / 1000 Ang^3
#
#
#
# Elastic Constant Matrix: (Units=GPa)
#
#
# Indices 1 2 3 4 5 6 
#
# 1 47.5075 -0.2656 8.0530 0.0000 0.0000 0.0000
# 2 -0.2656 92.7141 9.8199 0.0000 0.0000 0.0000
# 3 8.0530 9.8199 58.5496 0.0000 0.0000 0.0000
# 4 0.0000 0.0000 0.0000 29.2266 0.0000 0.0000
# 5 0.0000 0.0000 0.0000 0.0000 21.4926 0.0000
# 6 0.0000 0.0000 0.0000 0.0000 0.0000 12.6451
#
#
#
# Elastic Compliance Matrix: (Units=1/GPa)
#
#
# Indices 1 2 3 4 5 6 
#
# 1 0.021565 0.000383 -0.003030 0.000000 0.000000 0.000000
# 2 0.000383 0.010988 -0.001895 0.000000 0.000000 0.000000
# 3 -0.003030 -0.001895 0.017814 0.000000 0.000000 0.000000
# 4 0.000000 0.000000 0.000000 0.034215 0.000000 0.000000
# 5 0.000000 0.000000 0.000000 0.000000 0.046528 0.000000
# 6 0.000000 0.000000 0.000000 0.000000 0.000000 0.079082
#
#
# Mechanical properties :
#
#
# Convention : Reuss Voigt Hill
#
# Bulk Modulus (GPa) = 24.22426 25.99844 25.11135
# Shear Modulus (GPa) = 21.45569 24.75045 23.10307
#
# Velocity S-wave (km/s) = 3.10761 3.33769 3.22470
# Velocity P-wave (km/s) = 4.87644 5.15320 5.01673
#
# Compressibility (1/GPa) = 0.04128094
#
# Stress axis : x y z
#
# Youngs Moduli (GPa) = 46.37117 91.01081 56.13482
#
# Poissons Ratio (x) = -0.03483 0.17011
# Poissons Ratio (y) = -0.01775 0.10640
# Poissons Ratio (z) = 0.14052 0.17251
#
# Static dielectric constant tensor:
#      x y z
#    x 1.824040 0.000000 0.000000 
#    y 0.000000 1.853800 0.000000 
#    z 0.000000 0.000000 1.913450 
# 
# From -- ./inp_files/18665.got.cif
#   From: 2010.05.17/outbox.cif.g08.bks.cpg/sg64_10_cif.got.tgz:18665.got - 2010.06.03 16:29:19.
