data_PCOD9479680
_publ_section_title
;
Structure prediction by ZEFSAII (Michael W. Deem and Ramdas Pophale) SiO2 
 PCOD9479680
Probable space group: C M C A
;
_chemical_formula_sum "Si O2"
_cell_formula_units_Z 104
_cell_length_a 26.702612
_cell_length_b 14.921661
_cell_length_c 15.187315
_cell_angle_alpha 90.000000
_cell_angle_beta 90.000000
_cell_angle_gamma 90.000000
_cell_volume 6051.345022
_symmetry_space_group_name_H-M "C M C A"
_symmetry_group_IT_number 64
_symmetry_cell_setting 'orthorhombic'
loop_
_space_group_symop_operation_xyz
x,y,z
-x,1/2-y,1/2+z
x,-y,-z
-x,1/2+y,1/2-z
-x,-y,-z
x,1/2+y,1/2-z
-x,y,z
x,1/2-y,1/2+z
1/2+x,1/2+y,z
1/2-x,-y,1/2+z
1/2+x,1/2-y,-z
1/2-x,y,1/2-z
1/2-x,1/2-y,-z
1/2+x,y,1/2-z
1/2-x,1/2+y,z
1/2+x,-y,1/2+z
loop_
_atom_site_type_symbol
_atom_site_label
_atom_site_fract_x
_atom_site_fract_y
_atom_site_fract_z
Si Si1 0.687902 0.077190 0.567429
Si Si2 0.559449 0.021721 0.146370
Si Si3 0.135114 0.292299 0.572234
Si Si4 0.642708 0.051250 0.293514
Si Si5 0.941727 0.353158 0.017835
Si Si6 0.250000 0.632431 0.250000
Si Si7 0.237818 0.277115 0.100145
O O1 0.657831 0.147659 0.506969
O O2 0.732820 0.130747 0.614291
O O3 0.706887 0.000000 0.500000
O O4 0.652708 0.029105 0.638021
O O5 0.500000 0.027817 0.172001
O O6 0.600288 0.028332 0.222999
O O7 0.565579 0.929307 0.092258
O O8 0.570136 0.100360 0.075540
O O9 0.125278 0.361871 0.650633
O O10 0.089811 0.233943 0.538604
O O11 0.177986 0.223228 0.605087
O O12 0.698511 0.076442 0.257602
O O13 0.000000 0.330914 0.016598
O O14 0.254342 0.698228 0.334197
O O15 0.250000 0.250000 0.000000
#
# Coordination Sequence:
#
# PCOD9479680 Si02
#       7
#    16  16  16  16  16   8  16
#     4   9  19  36  53  77 114 147 177 222 270 323
#     4   9  20  38  57  79 108 143 182 230 278 324
#     4   9  19  36  56  81 108 144 182 222 276 323
#     4  10  21  35  56  82 115 146 182 227 273 332
#     4   9  19  38  58  79 106 138 184 232 273 327
#     4  10  22  34  52  84 112 148 188 228 272 326
#     4   9  19  35  52  74 111 145 181 224 263 325
#
# _framework density 17.186263
#
# number of rings (size 3 to 8) (size 9 to 14) (size 15 to 20)
#    0.000    2.769    0.000    1.846    4.308    4.923 
#    2.769    0.769    0.000    2.769    0.000    0.000 
#    0.000    0.000    0.000    0.000    0.000    0.000 
#
# Total GULP energy -289728.402534 kJ/mol
# GULP energy per Si atom -5571.700049 kJ/mol
# Density = 1.714715 g / cm^3
# Si number density = 17.186263 Si / 1000 Ang^3
#
#
#
# Elastic Constant Matrix: (Units=GPa)
#
#
# Indices 1 2 3 4 5 6 
#
# 1 71.1229 51.4932 49.1674 0.0000 0.0000 0.0000
# 2 51.4932 69.8208 21.4091 0.0000 0.0000 0.0000
# 3 49.1674 21.4091 79.3229 0.0000 0.0000 0.0000
# 4 0.0000 0.0000 0.0000 8.9730 0.0000 0.0000
# 5 0.0000 0.0000 0.0000 0.0000 31.1597 0.0000
# 6 0.0000 0.0000 0.0000 0.0000 0.0000 21.6659
#
#
#
# Elastic Compliance Matrix: (Units=1/GPa)
#
#
# Indices 1 2 3 4 5 6 
#
# 1 0.056072 -0.033466 -0.025723 0.000000 0.000000 0.000000
# 2 -0.033466 0.035588 0.011138 0.000000 0.000000 0.000000
# 3 -0.025723 0.011138 0.025545 0.000000 0.000000 0.000000
# 4 0.000000 0.000000 0.000000 0.111446 0.000000 0.000000
# 5 0.000000 0.000000 0.000000 0.000000 0.032093 0.000000
# 6 0.000000 0.000000 0.000000 0.000000 0.000000 0.046155
#
#
# Mechanical properties :
#
#
# Convention : Reuss Voigt Hill
#
# Bulk Modulus (GPa) = 47.38588 51.60067 49.49328
# Shear Modulus (GPa) = 12.19406 18.90617 15.55012
#
# Velocity S-wave (km/s) = 2.66658 3.32034 3.01125
# Velocity P-wave (km/s) = 6.09202 6.69246 6.39929
#
# Compressibility (1/GPa) = 0.02110333
#
# Stress axis : x y z
#
# Youngs Moduli (GPa) = 17.83416 28.09900 39.14701
#
# Poissons Ratio (x) = 0.94036 1.00699
# Poissons Ratio (y) = 0.59684 -0.43603
# Poissons Ratio (z) = 0.45875 -0.31297
#
# Static dielectric constant tensor:
#      x y z
#    x 1.574210 0.000000 0.000000 
#    y 0.000000 1.583240 0.000000 
#    z 0.000000 0.000000 1.595680 
# 
# From -- ./inp_files/34350.got.cif
#   From: 2010.05.17/outbox.cif.g08.bks.cpg/sg64_18_cif.got.tgz:34350.got - 2010.06.03 16:29:19.
