data_PCOD9479470
_publ_section_title
;
Structure prediction by ZEFSAII (Michael W. Deem and Ramdas Pophale) SiO2 
 PCOD9479470
Probable space group: C M C A
;
_chemical_formula_sum "Si O2"
_cell_formula_units_Z 96
_cell_length_a 8.960977
_cell_length_b 19.758479
_cell_length_c 29.899101
_cell_angle_alpha 90.000000
_cell_angle_beta 90.000000
_cell_angle_gamma 90.000000
_cell_volume 5293.793576
_symmetry_space_group_name_H-M "C M C A"
_symmetry_group_IT_number 64
_symmetry_cell_setting 'orthorhombic'
loop_
_space_group_symop_operation_xyz
x,y,z
-x,1/2-y,1/2+z
x,-y,-z
-x,1/2+y,1/2-z
-x,-y,-z
x,1/2+y,1/2-z
-x,y,z
x,1/2-y,1/2+z
1/2+x,1/2+y,z
1/2-x,-y,1/2+z
1/2+x,1/2-y,-z
1/2-x,y,1/2-z
1/2-x,1/2-y,-z
1/2+x,y,1/2-z
1/2-x,1/2+y,z
1/2+x,-y,1/2+z
loop_
_atom_site_type_symbol
_atom_site_label
_atom_site_fract_x
_atom_site_fract_y
_atom_site_fract_z
Si Si1 0.821572 0.106034 0.297990
Si Si2 0.319564 0.144257 0.618062
Si Si3 0.178712 0.013880 0.126610
Si Si4 0.179250 0.762797 0.201998
Si Si5 0.828184 0.068759 0.028459
Si Si6 0.176571 0.813739 0.475604
O O1 0.750000 0.090522 0.250000
O O2 0.781489 0.184502 0.308696
O O3 0.000000 0.101781 0.295275
O O4 0.760091 0.054844 0.334708
O O5 0.500000 0.147629 0.613170
O O6 0.278980 0.065247 0.623883
O O7 0.276396 0.187679 0.661710
O O8 0.246164 0.173604 0.573329
O O9 0.000000 0.016366 0.133844
O O10 0.209400 0.049464 0.079142
O O11 0.250000 0.780096 0.250000
O O12 0.000000 0.766418 0.206286
O O13 0.000000 0.094565 0.026736
O O14 0.719286 0.121952 0.005974
O O15 0.825069 0.000000 0.000000
O O16 0.250000 0.750000 0.500000
O O17 0.000000 0.805273 0.472150
#
# Coordination Sequence:
#
# PCOD9479470 Si02
#       6
#    16  16  16  16  16  16
#     4  10  21  38  59  86 117 151 196 244 294 351
#     4  10  21  41  62  86 120 157 196 240 298 355
#     4  10  21  37  61  88 119 156 192 237 296 357
#     4   9  20  38  61  85 114 151 192 240 293 349
#     4  10  20  40  64  87 120 161 197 236 295 357
#     4  12  26  41  60  88 121 159 203 250 296 348
#
# _framework density 18.134443999999998
#
# number of rings (size 3 to 8) (size 9 to 14) (size 15 to 20)
#    0.000    1.833    1.667    2.000    2.333    3.667 
#    0.000    1.667    0.000    0.000    0.000    0.000 
#    0.000    0.000    0.000    0.000    0.000    0.000 
#
# Total GULP energy -268124.389697 kJ/mol
# GULP energy per Si atom -5585.924785 kJ/mol
# Density = 1.809317 g / cm^3
# Si number density = 18.134444 Si / 1000 Ang^3
#
#
#
# Elastic Constant Matrix: (Units=GPa)
#
#
# Indices 1 2 3 4 5 6 
#
# 1 57.0095 56.1822 71.6491 0.0000 0.0000 0.0000
# 2 56.1822 103.4617 95.5259 0.0000 0.0000 0.0000
# 3 71.6491 95.5259 170.3321 0.0000 0.0000 0.0000
# 4 0.0000 0.0000 0.0000 36.4314 0.0000 0.0000
# 5 0.0000 0.0000 0.0000 0.0000 33.8418 0.0000
# 6 0.0000 0.0000 0.0000 0.0000 0.0000 -45.2585
#
#
#
# Elastic Compliance Matrix: (Units=1/GPa)
#
#
# Indices 1 2 3 4 5 6 
#
# 1 0.045999 -0.014752 -0.011076 0.000000 0.000000 0.000000
# 2 -0.014752 0.024776 -0.007689 0.000000 0.000000 0.000000
# 3 -0.011076 -0.007689 0.014842 0.000000 0.000000 0.000000
# 4 0.000000 0.000000 0.000000 0.027449 0.000000 0.000000
# 5 0.000000 0.000000 0.000000 0.000000 0.029549 0.000000
# 6 0.000000 0.000000 0.000000 0.000000 0.000000 -0.022095
#
#
# Mechanical properties :
#
#
# Convention : Reuss Voigt Hill
#
# Bulk Modulus (GPa) = 53.81501 86.39085 70.10293
# Shear Modulus (GPa) = 25.80654 12.16602 18.98628
#
# Velocity S-wave (km/s) = 3.77645 2.59294 3.23921
# Velocity P-wave (km/s) = 6.98251 7.53040 7.26163
#
# Compressibility (1/GPa) = 0.01858218
#
# Stress axis : x y z
#
# Youngs Moduli (GPa) = 21.73947 40.36182 67.37559
#
# Poissons Ratio (x) = 0.59544 0.74624
# Poissons Ratio (y) = 0.32071 0.51807
# Poissons Ratio (z) = 0.24078 0.31035
#
# Static dielectric constant tensor:
#      x y z
#    x 1.613270 0.000000 0.000000 
#    y 0.000000 1.606930 0.000000 
#    z 0.000000 0.000000 1.590090 
# 
# From -- ./inp_files/48163.got.cif
#   From: 2010.05.17/outbox.cif.g08.bks.cpg/sg64_25_cif.got.tgz:48163.got - 2010.06.03 16:29:19.
