data_PCOD9479541
_publ_section_title
;
Structure prediction by ZEFSAII (Michael W. Deem and Ramdas Pophale) SiO2 
 PCOD9479541
Probable space group: C M C A
;
_chemical_formula_sum "Si O2"
_cell_formula_units_Z 116
_cell_length_a 31.508670
_cell_length_b 17.201624
_cell_length_c 9.830195
_cell_angle_alpha 90.000000
_cell_angle_beta 90.000000
_cell_angle_gamma 90.000000
_cell_volume 5327.968581
_symmetry_space_group_name_H-M "C M C A"
_symmetry_group_IT_number 64
_symmetry_cell_setting 'orthorhombic'
loop_
_space_group_symop_operation_xyz
x,y,z
-x,1/2-y,1/2+z
x,-y,-z
-x,1/2+y,1/2-z
-x,-y,-z
x,1/2+y,1/2-z
-x,y,z
x,1/2-y,1/2+z
1/2+x,1/2+y,z
1/2-x,-y,1/2+z
1/2+x,1/2-y,-z
1/2-x,y,1/2-z
1/2-x,1/2-y,-z
1/2+x,y,1/2-z
1/2-x,1/2+y,z
1/2+x,-y,1/2+z
loop_
_atom_site_type_symbol
_atom_site_label
_atom_site_fract_x
_atom_site_fract_y
_atom_site_fract_z
Si Si1 0.452097 0.316457 0.051707
Si Si2 0.848329 0.848779 0.279066
Si Si3 0.325787 0.082419 0.486142
Si Si4 0.797648 0.752554 0.449319
Si Si5 0.089000 0.420585 0.678025
Si Si6 0.932638 0.578303 0.813708
Si Si7 0.120407 0.291554 0.869907
Si Si8 0.000000 0.000000 0.500000
O O1 0.500000 0.288285 0.037942
O O2 0.447097 0.359009 0.199012
O O3 0.417196 0.248960 0.046774
O O4 0.440434 0.374208 0.928162
O O5 0.840046 0.889002 0.135086
O O6 0.803523 0.819527 0.336454
O O7 0.883893 0.900306 0.354017
O O8 0.871193 0.765895 0.257087
O O9 0.307023 0.161195 0.419002
O O10 0.367583 0.062585 0.401058
O O11 0.301202 0.000000 0.500000
O O12 0.750000 0.750000 0.500000
O O13 0.834951 0.783673 0.550998
O O14 0.067385 0.498342 0.728383
O O15 0.103550 0.370461 0.807611
O O16 0.963134 0.559674 0.938188
#
# Coordination Sequence:
#
# PCOD9479541 Si02
#       8
#    16  16  16  16  16  16  16   4
#     4  11  22  42  66  94 133 182 236 289 342 427
#     4  10  20  41  68  94 132 181 224 283 351 418
#     4  11  20  41  72 103 131 178 236 293 345 418
#     4  11  24  44  72 100 142 185 233 284 364 435
#     4  12  21  41  67  99 129 180 235 287 351 417
#     4  11  24  41  66  93 136 181 233 286 355 416
#     4  10  22  40  64  96 133 177 225 287 353 412
#     4  12  28  44  54 104 140 184 226 302 348 424
#
# _framework density 21.771899999999999
#
# number of rings (size 3 to 8) (size 9 to 14) (size 15 to 20)
#    0.000    1.103    7.586    0.414    2.897    3.310 
#    0.000    1.379    3.034    0.000    0.000    0.000 
#    0.000    0.000    0.000    0.000    0.000    0.000 
#
# Total GULP energy -322971.962906 kJ/mol
# GULP energy per Si atom -5568.482119 kJ/mol
# Density = 2.172235 g / cm^3
# Si number density = 21.771900 Si / 1000 Ang^3
#
#
#
# Elastic Constant Matrix: (Units=GPa)
#
#
# Indices 1 2 3 4 5 6 
#
# 1 107.4749 14.5798 13.7684 0.0000 0.0000 0.0000
# 2 14.5798 71.9524 21.8282 0.0000 0.0000 0.0000
# 3 13.7684 21.8282 44.4074 0.0000 0.0000 0.0000
# 4 0.0000 0.0000 0.0000 31.1102 0.0000 0.0000
# 5 0.0000 0.0000 0.0000 0.0000 11.6741 0.0000
# 6 0.0000 0.0000 0.0000 0.0000 0.0000 16.7682
#
#
#
# Elastic Compliance Matrix: (Units=1/GPa)
#
#
# Indices 1 2 3 4 5 6 
#
# 1 0.009784 -0.001248 -0.002420 0.000000 0.000000 0.000000
# 2 -0.001248 0.016493 -0.007720 0.000000 0.000000 0.000000
# 3 -0.002420 -0.007720 0.027064 0.000000 0.000000 0.000000
# 4 0.000000 0.000000 0.000000 0.032144 0.000000 0.000000
# 5 0.000000 0.000000 0.000000 0.000000 0.085660 0.000000
# 6 0.000000 0.000000 0.000000 0.000000 0.000000 0.059637
#
#
# Mechanical properties :
#
#
# Convention : Reuss Voigt Hill
#
# Bulk Modulus (GPa) = 32.71802 36.02084 34.36943
# Shear Modulus (GPa) = 18.95768 23.48772 21.22270
#
# Velocity S-wave (km/s) = 2.95403 3.28809 3.12553
# Velocity P-wave (km/s) = 5.16675 5.56740 5.37081
#
# Compressibility (1/GPa) = 0.03056420
#
# Stress axis : x y z
#
# Youngs Moduli (GPa) = 102.20919 60.63155 36.94982
#
# Poissons Ratio (x) = 0.07569 0.08941
# Poissons Ratio (y) = 0.12760 0.28525
# Poissons Ratio (z) = 0.24733 0.46808
#
# Static dielectric constant tensor:
#      x y z
#    x 1.771440 0.000000 0.000000 
#    y 0.000000 1.832010 0.000000 
#    z 0.000000 0.000000 1.939100 
# 
# From -- ./inp_files/19960.got.cif
#   From: 2010.05.17/outbox.cif.g08.bks.cpg/sg64_10_cif.got.tgz:19960.got - 2010.06.03 16:29:19.
