data_PCOD9479171
_publ_section_title
;
Structure prediction by ZEFSAII (Michael W. Deem and Ramdas Pophale) SiO2 
 PCOD9479171
Probable space group: C M C A
;
_chemical_formula_sum "Si O2"
_cell_formula_units_Z 96
_cell_length_a 19.633636
_cell_length_b 14.876333
_cell_length_c 15.694719
_cell_angle_alpha 90.000000
_cell_angle_beta 90.000000
_cell_angle_gamma 90.000000
_cell_volume 4584.058706
_symmetry_space_group_name_H-M "C M C A"
_symmetry_group_IT_number 64
_symmetry_cell_setting 'orthorhombic'
loop_
_space_group_symop_operation_xyz
x,y,z
-x,1/2-y,1/2+z
x,-y,-z
-x,1/2+y,1/2-z
-x,-y,-z
x,1/2+y,1/2-z
-x,y,z
x,1/2-y,1/2+z
1/2+x,1/2+y,z
1/2-x,-y,1/2+z
1/2+x,1/2-y,-z
1/2-x,y,1/2-z
1/2-x,1/2-y,-z
1/2+x,y,1/2-z
1/2-x,1/2+y,z
1/2+x,-y,1/2+z
loop_
_atom_site_type_symbol
_atom_site_label
_atom_site_fract_x
_atom_site_fract_y
_atom_site_fract_z
Si Si1 0.317749 0.094980 0.009049
Si Si2 0.422692 0.073602 0.281964
Si Si3 0.922124 0.141107 0.759641
Si Si4 0.720338 0.617787 0.159483
Si Si5 0.079145 0.298761 0.884321
Si Si6 0.211522 0.326937 0.166712
O O1 0.261411 0.078637 0.081250
O O2 0.369483 0.170630 0.042687
O O3 0.281709 0.123653 0.922157
O O4 0.356160 0.000000 0.000000
O O5 0.500000 0.093355 0.311396
O O6 0.360176 0.101636 0.341313
O O7 0.412901 0.129136 0.193624
O O8 0.417494 0.966094 0.269924
O O9 0.906010 0.200958 0.843407
O O10 0.868135 0.170700 0.689836
O O11 0.000000 0.163779 0.737068
O O12 0.750000 0.584481 0.250000
O O13 0.734310 0.724401 0.156951
O O14 0.000000 0.300861 0.910812
O O15 0.250000 0.365074 0.250000
#
# Coordination Sequence:
#
# PCOD9479171 Si02
#       6
#    16  16  16  16  16  16
#     4  12  26  40  61  99 131 169 216 269 327 386
#     4  10  20  37  66  95 125 169 216 259 318 389
#     4  10  21  38  67  97 123 168 214 258 324 391
#     4  11  22  42  64  91 130 170 215 265 322 383
#     4  10  20  41  66  95 134 166 208 267 324 390
#     4  11  24  41  65  89 127 173 218 264 322 383
#
# _framework density 20.942140999999999
#
# number of rings (size 3 to 8) (size 9 to 14) (size 15 to 20)
#    0.000    1.333    3.333    2.500    2.333    1.000 
#    0.000    0.000    0.000    1.500    0.000    0.000 
#    0.000    0.000    0.000    0.000    0.000    0.000 
#
# Total GULP energy -268220.271663 kJ/mol
# GULP energy per Si atom -5587.922326 kJ/mol
# Density = 2.089448 g / cm^3
# Si number density = 20.942141 Si / 1000 Ang^3
#
#
#
# Elastic Constant Matrix: (Units=GPa)
#
#
# Indices 1 2 3 4 5 6 
#
# 1 81.0007 -1.4768 40.5997 0.0000 0.0000 0.0000
# 2 -1.4768 94.5164 25.8550 0.0000 0.0000 0.0000
# 3 40.5997 25.8550 108.5151 0.0000 0.0000 0.0000
# 4 0.0000 0.0000 0.0000 0.5027 0.0000 0.0000
# 5 0.0000 0.0000 0.0000 0.0000 18.3040 0.0000
# 6 0.0000 0.0000 0.0000 0.0000 0.0000 24.0343
#
#
#
# Elastic Compliance Matrix: (Units=1/GPa)
#
#
# Indices 1 2 3 4 5 6 
#
# 1 0.015527 0.001959 -0.006276 0.000000 0.000000 0.000000
# 2 0.001959 0.011565 -0.003489 0.000000 0.000000 0.000000
# 3 -0.006276 -0.003489 0.012395 0.000000 0.000000 0.000000
# 4 0.000000 0.000000 0.000000 1.989090 0.000000 0.000000
# 5 0.000000 0.000000 0.000000 0.000000 0.054633 0.000000
# 6 0.000000 0.000000 0.000000 0.000000 0.000000 0.041607
#
#
# Mechanical properties :
#
#
# Convention : Reuss Voigt Hill
#
# Bulk Modulus (GPa) = 41.88272 45.99866 43.94069
# Shear Modulus (GPa) = 2.32733 23.17182 12.74957
#
# Velocity S-wave (km/s) = 1.05533 3.32997 2.47006
# Velocity P-wave (km/s) = 4.63979 6.06607 5.40023
#
# Compressibility (1/GPa) = 0.02387620
#
# Stress axis : x y z
#
# Youngs Moduli (GPa) = 64.40369 86.46699 80.67994
#
# Poissons Ratio (x) = -0.16943 0.50636
# Poissons Ratio (y) = -0.12620 0.28146
# Poissons Ratio (z) = 0.40421 0.30165
#
# Static dielectric constant tensor:
#      x y z
#    x 1.761790 0.000000 0.000000 
#    y 0.000000 1.785360 0.000000 
#    z 0.000000 0.000000 1.733110 
# 
# From -- ./inp_files/26339.got.cif
#   From: 2010.05.17/outbox.cif.g08.bks.cpg/sg64_14_cif.got.tgz:26339.got - 2010.06.03 16:29:19.
