data_PCOD9479065
_publ_section_title
;
Structure prediction by ZEFSAII (Michael W. Deem and Ramdas Pophale) SiO2 
 PCOD9479065
Probable space group: C M C A
;
_chemical_formula_sum "Si O2"
_cell_formula_units_Z 116
_cell_length_a 23.739185
_cell_length_b 18.841738
_cell_length_c 13.556919
_cell_angle_alpha 90.000000
_cell_angle_beta 90.000000
_cell_angle_gamma 90.000000
_cell_volume 6063.840463
_symmetry_space_group_name_H-M "C M C A"
_symmetry_group_IT_number 64
_symmetry_cell_setting 'orthorhombic'
loop_
_space_group_symop_operation_xyz
x,y,z
-x,1/2-y,1/2+z
x,-y,-z
-x,1/2+y,1/2-z
-x,-y,-z
x,1/2+y,1/2-z
-x,y,z
x,1/2-y,1/2+z
1/2+x,1/2+y,z
1/2-x,-y,1/2+z
1/2+x,1/2-y,-z
1/2-x,y,1/2-z
1/2-x,1/2-y,-z
1/2+x,y,1/2-z
1/2-x,1/2+y,z
1/2+x,-y,1/2+z
loop_
_atom_site_type_symbol
_atom_site_label
_atom_site_fract_x
_atom_site_fract_y
_atom_site_fract_z
Si Si1 0.602845 0.037543 0.868515
Si Si2 0.144808 0.282815 0.646616
Si Si3 0.714294 0.923493 0.002995
Si Si4 0.757832 0.305876 0.358001
Si Si5 0.565770 0.165551 0.750680
Si Si6 0.118806 0.265369 0.423025
Si Si7 0.637509 0.379115 0.664720
Si Si8 0.500000 0.000000 0.000000
O O1 0.658065 0.061456 0.930325
O O2 0.592417 0.090093 0.778198
O O3 0.607355 0.955438 0.835731
O O4 0.549538 0.042580 0.939526
O O5 0.208070 0.251848 0.638316
O O6 0.102646 0.223228 0.689950
O O7 0.124301 0.290996 0.534572
O O8 0.143814 0.346820 0.725737
O O9 0.748180 0.863082 0.057633
O O10 0.694579 0.896559 0.896007
O O11 0.743688 0.000000 0.000000
O O12 0.750000 0.339894 0.250000
O O13 0.819443 0.274152 0.372642
O O14 0.500000 0.168391 0.775287
O O15 0.575639 0.187224 0.637767
O O16 0.106962 0.181763 0.402198
#
# Coordination Sequence:
#
# PCOD9479065 Si02
#       8
#    16  16  16  16  16  16  16   4
#     4  11  20  38  62  94 122 156 212 262 314 360
#     4  11  23  39  62  94 123 161 210 251 313 379
#     4  10  20  37  59  91 129 159 202 262 309 360
#     4  12  20  38  67  88 125 172 204 249 312 383
#     4  11  23  41  63  87 124 166 208 261 315 378
#     4  11  23  40  63  91 127 164 205 252 316 378
#     4  10  20  37  59  90 120 155 200 267 299 361
#     4  12  20  32  68  96 118 164 204 266 318 352
#
# _framework density 19.129791000000001
#
# number of rings (size 3 to 8) (size 9 to 14) (size 15 to 20)
#    0.000    1.103    8.276    0.414    0.000    0.552 
#    4.966    4.828    3.034    0.828    0.000    0.000 
#    0.000    0.000    0.000    0.000    0.000    0.000 
#
# Total GULP energy -323155.402520 kJ/mol
# GULP energy per Si atom -5571.644871 kJ/mol
# Density = 1.908625 g / cm^3
# Si number density = 19.129791 Si / 1000 Ang^3
#
#
#
# Elastic Constant Matrix: (Units=GPa)
#
#
# Indices 1 2 3 4 5 6 
#
# 1 68.3835 31.1791 1.4004 0.0000 0.0000 0.0000
# 2 31.1791 113.9979 40.3526 0.0000 0.0000 0.0000
# 3 1.4004 40.3526 112.8978 0.0000 0.0000 0.0000
# 4 0.0000 0.0000 0.0000 36.0514 0.0000 0.0000
# 5 0.0000 0.0000 0.0000 0.0000 13.9759 0.0000
# 6 0.0000 0.0000 0.0000 0.0000 0.0000 10.3394
#
#
#
# Elastic Compliance Matrix: (Units=1/GPa)
#
#
# Indices 1 2 3 4 5 6 
#
# 1 0.016974 -0.005230 0.001659 0.000000 0.000000 0.000000
# 2 -0.005230 0.011654 -0.004101 0.000000 0.000000 0.000000
# 3 0.001659 -0.004101 0.010303 0.000000 0.000000 0.000000
# 4 0.000000 0.000000 0.000000 0.027738 0.000000 0.000000
# 5 0.000000 0.000000 0.000000 0.000000 0.071552 0.000000
# 6 0.000000 0.000000 0.000000 0.000000 0.000000 0.096718
#
#
# Mechanical properties :
#
#
# Convention : Reuss Voigt Hill
#
# Bulk Modulus (GPa) = 42.39544 49.01593 45.70568
# Shear Modulus (GPa) = 19.36910 26.89649 23.13280
#
# Velocity S-wave (km/s) = 3.18545 3.75374 3.48121
# Velocity P-wave (km/s) = 5.97826 6.66827 6.33267
#
# Compressibility (1/GPa) = 0.02358745
#
# Stress axis : x y z
#
# Youngs Moduli (GPa) = 58.91421 85.80821 97.06255
#
# Poissons Ratio (x) = 0.44874 -0.16099
# Poissons Ratio (y) = 0.30810 0.39801
# Poissons Ratio (z) = -0.09772 0.35186
#
# Static dielectric constant tensor:
#      x y z
#    x 1.648690 0.000000 0.000000 
#    y 0.000000 1.713570 0.000000 
#    z 0.000000 0.000000 1.741440 
# 
# From -- ./inp_files/27580.got.cif
#   From: 2010.05.17/outbox.cif.g08.bks.cpg/sg64_14_cif.got.tgz:27580.got - 2010.06.03 16:29:19.
