data_PCOD9479590
_publ_section_title
;
Structure prediction by ZEFSAII (Michael W. Deem and Ramdas Pophale) SiO2 
 PCOD9479590
Probable space group: C M C A
;
_chemical_formula_sum "Si O2"
_cell_formula_units_Z 44
_cell_length_a 16.580270
_cell_length_b 11.967712
_cell_length_c 8.982236
_cell_angle_alpha 90.000000
_cell_angle_beta 90.000000
_cell_angle_gamma 90.000000
_cell_volume 1782.326193
_symmetry_space_group_name_H-M "C M C A"
_symmetry_group_IT_number 64
_symmetry_cell_setting 'orthorhombic'
loop_
_space_group_symop_operation_xyz
x,y,z
-x,1/2-y,1/2+z
x,-y,-z
-x,1/2+y,1/2-z
-x,-y,-z
x,1/2+y,1/2-z
-x,y,z
x,1/2-y,1/2+z
1/2+x,1/2+y,z
1/2-x,-y,1/2+z
1/2+x,1/2-y,-z
1/2-x,y,1/2-z
1/2-x,1/2-y,-z
1/2+x,y,1/2-z
1/2-x,1/2+y,z
1/2+x,-y,1/2+z
loop_
_atom_site_type_symbol
_atom_site_label
_atom_site_fract_x
_atom_site_fract_y
_atom_site_fract_z
Si Si1 0.593331 0.161319 0.507814
Si Si2 0.500000 0.500000 0.500000
Si Si3 0.776245 0.000000 0.000000
Si Si4 0.868853 0.390694 0.833849
O O1 0.500000 0.127977 0.528351
O O2 0.661861 0.083909 0.583353
O O3 0.601874 0.287102 0.563991
O O4 0.617227 0.150077 0.334075
O O5 0.570069 0.510514 0.372125
O O6 0.717707 0.070829 0.105848
#
# Coordination Sequence:
#
# PCOD9479590 Si02
#       4
#    16   4   8  16
#     4  12  24  47  72 110 141 191 241 297 361 428
#     4  10  20  44  66 104 134 184 230 288 348 422
#     4  11  27  43  69 104 152 186 237 293 355 431
#     4  11  25  46  73 103 147 188 242 296 359 428
#
# _framework density 24.686837000000001
#
# number of rings (size 3 to 8) (size 9 to 14) (size 15 to 20)
#    0.000    0.727    3.636    2.727    0.000    8.727 
#    6.545    0.000    0.000    0.000    0.000    0.000 
#    0.000    0.000    0.000    0.000    0.000    0.000 
#
# Total GULP energy -122553.565565 kJ/mol
# GULP energy per Si atom -5570.616617 kJ/mol
# Density = 2.463065 g / cm^3
# Si number density = 24.686837 Si / 1000 Ang^3
#
#
#
# Elastic Constant Matrix: (Units=GPa)
#
#
# Indices 1 2 3 4 5 6 
#
# 1 261.8565 45.2526 26.3204 0.0000 0.0000 0.0000
# 2 45.2526 64.2515 16.3975 0.0000 0.0000 0.0000
# 3 26.3204 16.3975 115.6795 0.0000 0.0000 0.0000
# 4 0.0000 0.0000 0.0000 31.3234 0.0000 0.0000
# 5 0.0000 0.0000 0.0000 0.0000 29.5788 0.0000
# 6 0.0000 0.0000 0.0000 0.0000 0.0000 110.2706
#
#
#
# Elastic Compliance Matrix: (Units=1/GPa)
#
#
# Indices 1 2 3 4 5 6 
#
# 1 0.004385 -0.002940 -0.000581 0.000000 0.000000 0.000000
# 2 -0.002940 0.018120 -0.001899 0.000000 0.000000 0.000000
# 3 -0.000581 -0.001899 0.009046 0.000000 0.000000 0.000000
# 4 0.000000 0.000000 0.000000 0.031925 0.000000 0.000000
# 5 0.000000 0.000000 0.000000 0.000000 0.033808 0.000000
# 6 0.000000 0.000000 0.000000 0.000000 0.000000 0.009069
#
#
# Mechanical properties :
#
#
# Convention : Reuss Voigt Hill
#
# Bulk Modulus (GPa) = 48.28743 68.63651 58.46197
# Shear Modulus (GPa) = 40.29096 57.82237 49.05666
#
# Velocity S-wave (km/s) = 4.04429 4.84491 4.46259
# Velocity P-wave (km/s) = 6.43512 7.69161 7.09125
#
# Compressibility (1/GPa) = 0.02070932
#
# Stress axis : x y z
#
# Youngs Moduli (GPa) = 228.02793 55.18909 110.54591
#
# Poissons Ratio (x) = 0.16228 0.06423
# Poissons Ratio (y) = 0.67049 0.20997
# Poissons Ratio (z) = 0.13249 0.10483
#
# Static dielectric constant tensor:
#      x y z
#    x 1.972860 0.000000 0.000000 
#    y 0.000000 2.097690 0.000000 
#    z 0.000000 0.000000 2.032090 
# 
# From -- ./inp_files/6191.got.cif
#   From: 2010.05.17/outbox.cif.g08.bks.cpg/sg64_4_cif.got.tgz:6191.got - 2010.06.03 16:29:19.
