data_PCOD9479120
_publ_section_title
;
Structure prediction by ZEFSAII (Michael W. Deem and Ramdas Pophale) SiO2 
 PCOD9479120
Probable space group: C M C A
;
_chemical_formula_sum "Si O2"
_cell_formula_units_Z 96
_cell_length_a 13.335881
_cell_length_b 19.546570
_cell_length_c 16.923707
_cell_angle_alpha 90.000000
_cell_angle_beta 90.000000
_cell_angle_gamma 90.000000
_cell_volume 4411.515083
_symmetry_space_group_name_H-M "C M C A"
_symmetry_group_IT_number 64
_symmetry_cell_setting 'orthorhombic'
loop_
_space_group_symop_operation_xyz
x,y,z
-x,1/2-y,1/2+z
x,-y,-z
-x,1/2+y,1/2-z
-x,-y,-z
x,1/2+y,1/2-z
-x,y,z
x,1/2-y,1/2+z
1/2+x,1/2+y,z
1/2-x,-y,1/2+z
1/2+x,1/2-y,-z
1/2-x,y,1/2-z
1/2-x,1/2-y,-z
1/2+x,y,1/2-z
1/2-x,1/2+y,z
1/2+x,-y,1/2+z
loop_
_atom_site_type_symbol
_atom_site_label
_atom_site_fract_x
_atom_site_fract_y
_atom_site_fract_z
Si Si1 0.786912 0.585897 0.166707
Si Si2 0.882852 0.124889 0.552061
Si Si3 0.882812 0.288669 0.913334
Si Si4 0.682866 0.426497 0.988558
Si Si5 0.617032 0.648755 0.860563
Si Si6 0.618614 0.060260 0.785666
O O1 0.750000 0.612546 0.250000
O O2 0.864565 0.639843 0.130659
O O3 0.830237 0.509900 0.183532
O O4 0.695521 0.586686 0.103914
O O5 0.854873 0.194474 0.504755
O O6 0.798904 0.073504 0.518961
O O7 0.873811 0.118137 0.646007
O O8 0.000000 0.109067 0.533383
O O9 0.836626 0.224820 0.866068
O O10 0.000000 0.273682 0.916501
O O11 0.629090 0.376531 0.049294
O O12 0.635745 0.500000 0.000000
O O13 0.500000 0.653380 0.838733
O O14 0.656200 0.592982 0.797244
O O15 0.500000 0.043583 0.777212
#
# Coordination Sequence:
#
# PCOD9479120 Si02
#       6
#    16  16  16  16  16  16
#     4  11  22  37  57  91 121 152 204 257 312 366
#     4   9  19  34  60  91 116 151 199 256 311 359
#     4   9  20  41  61  84 121 158 201 256 309 364
#     4  11  21  37  60  87 119 159 198 252 305 366
#     4  10  23  42  61  86 126 171 207 245 306 376
#     4  10  20  37  62  89 118 157 208 258 307 363
#
# _framework density 21.761232
#
# number of rings (size 3 to 8) (size 9 to 14) (size 15 to 20)
#    0.000    2.000    1.667    1.500    0.000    4.000 
#    6.000    1.667    0.000    0.000    0.000    0.000 
#    0.000    0.000    0.000    0.000    0.000    0.000 
#
# Total GULP energy -267297.189085 kJ/mol
# GULP energy per Si atom -5568.691439 kJ/mol
# Density = 2.171170 g / cm^3
# Si number density = 21.761232 Si / 1000 Ang^3
#
#
#
# Elastic Constant Matrix: (Units=GPa)
#
#
# Indices 1 2 3 4 5 6 
#
# 1 32.8259 -1.9034 -3.6579 0.0000 0.0000 0.0000
# 2 -1.9034 116.9848 27.3358 0.0000 0.0000 0.0000
# 3 -3.6579 27.3358 112.5952 0.0000 0.0000 0.0000
# 4 0.0000 0.0000 0.0000 22.6797 0.0000 0.0000
# 5 0.0000 0.0000 0.0000 0.0000 16.8528 0.0000
# 6 0.0000 0.0000 0.0000 0.0000 0.0000 7.0902
#
#
#
# Elastic Compliance Matrix: (Units=1/GPa)
#
#
# Indices 1 2 3 4 5 6 
#
# 1 0.030583 0.000281 0.000925 0.000000 0.000000 0.000000
# 2 0.000281 0.009065 -0.002192 0.000000 0.000000 0.000000
# 3 0.000925 -0.002192 0.009444 0.000000 0.000000 0.000000
# 4 0.000000 0.000000 0.000000 0.044092 0.000000 0.000000
# 5 0.000000 0.000000 0.000000 0.000000 0.059337 0.000000
# 6 0.000000 0.000000 0.000000 0.000000 0.000000 0.141039
#
#
# Mechanical properties :
#
#
# Convention : Reuss Voigt Hill
#
# Bulk Modulus (GPa) = 21.22168 33.99498 27.60833
# Shear Modulus (GPa) = 16.06491 25.36666 20.71578
#
# Velocity S-wave (km/s) = 2.72000 3.41791 3.08873
# Velocity P-wave (km/s) = 4.43145 5.58855 5.04329
#
# Compressibility (1/GPa) = 0.04712162
#
# Stress axis : x y z
#
# Youngs Moduli (GPa) = 32.69767 110.31674 105.89289
#
# Poissons Ratio (x) = -0.03104 -0.09798
# Poissons Ratio (y) = -0.00920 0.23208
# Poissons Ratio (z) = -0.03025 0.24177
#
# Static dielectric constant tensor:
#      x y z
#    x 1.828010 0.000000 0.000000 
#    y 0.000000 1.812190 0.000000 
#    z 0.000000 0.000000 1.982870 
# 
# From -- ./inp_files/23927.got.cif
#   From: 2010.05.17/outbox.cif.g08.bks.cpg/sg64_12_cif.got.tgz:23927.got - 2010.06.03 16:29:19.
