data_PCOD9479676
_publ_section_title
;
Structure prediction by ZEFSAII (Michael W. Deem and Ramdas Pophale) SiO2 
 PCOD9479676
Probable space group: C M C A
;
_chemical_formula_sum "Si O2"
_cell_formula_units_Z 80
_cell_length_a 8.655706
_cell_length_b 15.263071
_cell_length_c 30.546041
_cell_angle_alpha 90.000000
_cell_angle_beta 90.000000
_cell_angle_gamma 90.000000
_cell_volume 4035.518583
_symmetry_space_group_name_H-M "C M C A"
_symmetry_group_IT_number 64
_symmetry_cell_setting 'orthorhombic'
loop_
_space_group_symop_operation_xyz
x,y,z
-x,1/2-y,1/2+z
x,-y,-z
-x,1/2+y,1/2-z
-x,-y,-z
x,1/2+y,1/2-z
-x,y,z
x,1/2-y,1/2+z
1/2+x,1/2+y,z
1/2-x,-y,1/2+z
1/2+x,1/2-y,-z
1/2-x,y,1/2-z
1/2-x,1/2-y,-z
1/2+x,y,1/2-z
1/2-x,1/2+y,z
1/2+x,-y,1/2+z
loop_
_atom_site_type_symbol
_atom_site_label
_atom_site_fract_x
_atom_site_fract_y
_atom_site_fract_z
Si Si1 0.681756 0.985166 0.142335
Si Si2 0.816444 0.137284 0.201434
Si Si3 0.824825 0.225510 0.954137
Si Si4 0.686826 0.288108 0.141244
Si Si5 0.323811 0.546534 0.546510
O O1 0.500000 0.987951 0.153292
O O2 0.771239 0.052835 0.172560
O O3 0.742990 0.885405 0.146650
O O4 0.696193 0.009367 0.090609
O O5 0.750000 0.126917 0.250000
O O6 0.741646 0.222225 0.178467
O O7 0.000000 0.147317 0.202925
O O8 0.760679 0.250748 0.906285
O O9 0.804920 0.120882 0.952394
O O10 0.000000 0.256253 0.955888
O O11 0.750000 0.250000 0.000000
O O12 0.500000 0.294147 0.140313
O O13 0.315701 0.500000 0.500000
O O14 0.500000 0.584448 0.550013
#
# Coordination Sequence:
#
# PCOD9479676 Si02
#       5
#    16  16  16  16  16
#     4  10  21  40  64  92 128 165 206 256 311 370
#     4  12  26  44  67  95 124 160 209 260 316 376
#     4  10  21  35  55  84 120 160 203 248 298 359
#     4  10  22  42  64  90 126 166 208 258 313 369
#     4   9  19  35  56  84 119 160 201 244 299 358
#
# _framework density 19.823969999999999
#
# number of rings (size 3 to 8) (size 9 to 14) (size 15 to 20)
#    0.000    1.800    0.000    3.600    2.800    4.400 
#    0.000    4.000    0.000    0.000    0.000    0.000 
#    0.000    0.000    0.000    0.000    0.000    0.000 
#
# Total GULP energy -223206.772195 kJ/mol
# GULP energy per Si atom -5580.169305 kJ/mol
# Density = 1.977885 g / cm^3
# Si number density = 19.823970 Si / 1000 Ang^3
#
#
#
# Elastic Constant Matrix: (Units=GPa)
#
#
# Indices 1 2 3 4 5 6 
#
# 1 63.6047 7.4871 33.0038 0.0000 0.0000 0.0000
# 2 7.4871 57.5429 44.3730 0.0000 0.0000 0.0000
# 3 33.0038 44.3730 150.6989 0.0000 0.0000 0.0000
# 4 0.0000 0.0000 0.0000 33.6712 0.0000 0.0000
# 5 0.0000 0.0000 0.0000 0.0000 28.9588 0.0000
# 6 0.0000 0.0000 0.0000 0.0000 0.0000 33.4116
#
#
#
# Elastic Compliance Matrix: (Units=1/GPa)
#
#
# Indices 1 2 3 4 5 6 
#
# 1 0.017773 0.000891 -0.004155 0.000000 0.000000 0.000000
# 2 0.000891 0.022528 -0.006829 0.000000 0.000000 0.000000
# 3 -0.004155 -0.006829 0.009556 0.000000 0.000000 0.000000
# 4 0.000000 0.000000 0.000000 0.029699 0.000000 0.000000
# 5 0.000000 0.000000 0.000000 0.000000 0.034532 0.000000
# 6 0.000000 0.000000 0.000000 0.000000 0.000000 0.029930
#
#
# Mechanical properties :
#
#
# Convention : Reuss Voigt Hill
#
# Bulk Modulus (GPa) = 33.70013 49.06381 41.38197
# Shear Modulus (GPa) = 28.72024 31.67382 30.19703
#
# Velocity S-wave (km/s) = 3.81039 4.00153 3.90713
# Velocity P-wave (km/s) = 6.03286 6.79361 6.42450
#
# Compressibility (1/GPa) = 0.02967348
#
# Stress axis : x y z
#
# Youngs Moduli (GPa) = 56.26481 44.38911 104.64249
#
# Poissons Ratio (x) = -0.03957 0.43478
# Poissons Ratio (y) = -0.05016 0.71456
# Poissons Ratio (z) = 0.23377 0.30311
#
# Static dielectric constant tensor:
#      x y z
#    x 1.693830 0.000000 0.000000 
#    y 0.000000 1.680060 0.000000 
#    z 0.000000 0.000000 1.725490 
# 
# From -- ./inp_files/51764.got.cif
#   From: 2010.05.17/outbox.cif.g08.bks.cpg/sg64_26_cif.got.tgz:51764.got - 2010.06.03 16:29:19.
