data_PCOD9479868
_publ_section_title
;
Structure prediction by ZEFSAII (Michael W. Deem and Ramdas Pophale) SiO2 
 PCOD9479868
Probable space group: C M C A
;
_chemical_formula_sum "Si O2"
_cell_formula_units_Z 72
_cell_length_a 22.654634
_cell_length_b 10.039620
_cell_length_c 15.372586
_cell_angle_alpha 90.000000
_cell_angle_beta 90.000000
_cell_angle_gamma 90.000000
_cell_volume 3496.401168
_symmetry_space_group_name_H-M "C M C A"
_symmetry_group_IT_number 64
_symmetry_cell_setting 'orthorhombic'
loop_
_space_group_symop_operation_xyz
x,y,z
-x,1/2-y,1/2+z
x,-y,-z
-x,1/2+y,1/2-z
-x,-y,-z
x,1/2+y,1/2-z
-x,y,z
x,1/2-y,1/2+z
1/2+x,1/2+y,z
1/2-x,-y,1/2+z
1/2+x,1/2-y,-z
1/2-x,y,1/2-z
1/2-x,1/2-y,-z
1/2+x,y,1/2-z
1/2-x,1/2+y,z
1/2+x,-y,1/2+z
loop_
_atom_site_type_symbol
_atom_site_label
_atom_site_fract_x
_atom_site_fract_y
_atom_site_fract_z
Si Si1 0.935178 0.053696 0.596471
Si Si2 0.636600 0.818766 0.828161
Si Si3 0.167209 0.453582 0.401973
Si Si4 0.068906 0.162789 0.158619
Si Si5 0.750000 0.055085 0.250000
O O1 0.886755 0.960929 0.639336
O O2 0.000000 0.036689 0.639640
O O3 0.939563 0.000000 0.500000
O O4 0.922576 0.209677 0.596929
O O5 0.645296 0.699061 0.895587
O O6 0.590226 0.782447 0.752399
O O7 0.699289 0.850431 0.786723
O O8 0.183521 0.500000 0.500000
O O9 0.112493 0.545559 0.370158
O O10 0.219356 0.474881 0.330139
O O11 0.000000 0.124968 0.158606
#
# Coordination Sequence:
#
# PCOD9479868 Si02
#       5
#    16  16  16  16   8
#     4  10  21  37  58  86 119 154 191 233 291 361
#     4  11  22  38  61  85 116 158 203 249 301 360
#     4  11  24  41  64  93 122 158 210 266 311 360
#     4  10  21  38  60  88 124 161 197 244 303 364
#     4  10  24  42  60  86 122 160 204 254 314 378
#
# _framework density 20.592603
#
# number of rings (size 3 to 8) (size 9 to 14) (size 15 to 20)
#    0.000    1.556    0.000    5.333    0.000    7.556 
#    0.000    0.000    0.000    0.000    0.000    0.000 
#    0.000    0.000    0.000    0.000    0.000    0.000 
#
# Total GULP energy -200896.033835 kJ/mol
# GULP energy per Si atom -5580.445384 kJ/mol
# Density = 2.054573 g / cm^3
# Si number density = 20.592603 Si / 1000 Ang^3
#
#
#
# Elastic Constant Matrix: (Units=GPa)
#
#
# Indices 1 2 3 4 5 6 
#
# 1 120.7620 41.3678 35.7378 0.0000 0.0000 0.0000
# 2 41.3678 62.6793 -0.9611 0.0000 0.0000 0.0000
# 3 35.7378 -0.9611 73.7241 0.0000 0.0000 0.0000
# 4 0.0000 0.0000 0.0000 32.3915 0.0000 0.0000
# 5 0.0000 0.0000 0.0000 0.0000 18.7078 0.0000
# 6 0.0000 0.0000 0.0000 0.0000 0.0000 19.0064
#
#
#
# Elastic Compliance Matrix: (Units=1/GPa)
#
#
# Indices 1 2 3 4 5 6 
#
# 1 0.013243 -0.008840 -0.006535 0.000000 0.000000 0.000000
# 2 -0.008840 0.021859 0.004570 0.000000 0.000000 0.000000
# 3 -0.006535 0.004570 0.016791 0.000000 0.000000 0.000000
# 4 0.000000 0.000000 0.000000 0.030872 0.000000 0.000000
# 5 0.000000 0.000000 0.000000 0.000000 0.053454 0.000000
# 6 0.000000 0.000000 0.000000 0.000000 0.000000 0.052614
#
#
# Mechanical properties :
#
#
# Convention : Reuss Voigt Hill
#
# Bulk Modulus (GPa) = 33.02117 45.49492 39.25804
# Shear Modulus (GPa) = 22.67190 26.08921 24.38055
#
# Velocity S-wave (km/s) = 3.32169 3.56325 3.44459
# Velocity P-wave (km/s) = 5.54813 6.25058 5.90980
#
# Compressibility (1/GPa) = 0.03028360
#
# Stress axis : x y z
#
# Youngs Moduli (GPa) = 75.51163 45.74786 59.55427
#
# Poissons Ratio (x) = 0.40443 0.38917
# Poissons Ratio (y) = 0.66756 -0.27219
# Poissons Ratio (z) = 0.49345 -0.20909
#
# Static dielectric constant tensor:
#      x y z
#    x 1.490880 0.000000 0.000000 
#    y 0.000000 1.910430 0.000000 
#    z 0.000000 0.000000 1.434330 
# 
# From -- ./inp_files/34834.got.cif
#   From: 2010.05.17/outbox.cif.g08.bks.cpg/sg64_18_cif.got.tgz:34834.got - 2010.06.03 16:29:19.
