data_PCOD9479746
_publ_section_title
;
Structure prediction by ZEFSAII (Michael W. Deem and Ramdas Pophale) SiO2 
 PCOD9479746
Probable space group: C M C A
;
_chemical_formula_sum "Si O2"
_cell_formula_units_Z 128
_cell_length_a 23.624081
_cell_length_b 12.045632
_cell_length_c 23.330604
_cell_angle_alpha 90.000000
_cell_angle_beta 90.000000
_cell_angle_gamma 90.000000
_cell_volume 6639.119663
_symmetry_space_group_name_H-M "C M C A"
_symmetry_group_IT_number 64
_symmetry_cell_setting 'orthorhombic'
loop_
_space_group_symop_operation_xyz
x,y,z
-x,1/2-y,1/2+z
x,-y,-z
-x,1/2+y,1/2-z
-x,-y,-z
x,1/2+y,1/2-z
-x,y,z
x,1/2-y,1/2+z
1/2+x,1/2+y,z
1/2-x,-y,1/2+z
1/2+x,1/2-y,-z
1/2-x,y,1/2-z
1/2-x,1/2-y,-z
1/2+x,y,1/2-z
1/2-x,1/2+y,z
1/2+x,-y,1/2+z
loop_
_atom_site_type_symbol
_atom_site_label
_atom_site_fract_x
_atom_site_fract_y
_atom_site_fract_z
Si Si1 0.337220 0.540137 0.152553
Si Si2 0.563804 0.084019 0.805258
Si Si3 0.702074 0.386911 0.966947
Si Si4 0.434433 0.361625 0.621328
Si Si5 0.561644 0.386838 0.168548
Si Si6 0.175793 0.800417 0.554928
Si Si7 0.284500 0.177352 0.669613
Si Si8 0.837669 0.245426 0.712804
O O1 0.322962 0.608197 0.096321
O O2 0.388994 0.457825 0.140698
O O3 0.286437 0.455977 0.167089
O O4 0.349440 0.625059 0.203562
O O5 0.500000 0.118925 0.822842
O O6 0.562953 0.082420 0.735884
O O7 0.613098 0.172915 0.815916
O O8 0.575181 0.966279 0.836097
O O9 0.770347 0.377306 0.960389
O O10 0.688999 0.500000 0.000000
O O11 0.675229 0.285644 0.002330
O O12 0.500000 0.371646 0.599676
O O13 0.432889 0.244440 0.655795
O O14 0.384104 0.354338 0.573943
O O15 0.500000 0.419908 0.145993
O O16 0.195775 0.730227 0.610430
O O17 0.222270 0.218608 0.683877
O O18 0.326075 0.213754 0.721195
#
# Coordination Sequence:
#
# PCOD9479746 Si02
#       8
#    16  16  16  16  16  16  16  16
#     4  12  23  40  61  91 127 157 205 256 305 368
#     4  10  22  37  58  87 122 168 209 243 296 376
#     4  11  23  40  64  90 116 158 207 262 308 357
#     4  10  21  39  62  87 123 164 206 253 304 368
#     4  10  21  36  57  87 122 164 205 245 301 365
#     4  11  22  40  64  87 120 157 211 252 302 368
#     4  11  23  39  57  93 126 166 196 248 309 378
#     4  11  25  37  59  93 129 161 196 247 320 366
#
# _framework density 19.279664
#
# number of rings (size 3 to 8) (size 9 to 14) (size 15 to 20)
#    0.000    1.250    5.000    0.000    5.250    2.500 
#    0.000    0.625    0.000    2.625    0.000    0.000 
#    0.000    0.000    0.000    0.000    0.000    0.000 
#
# Total GULP energy -357006.168890 kJ/mol
# GULP energy per Si atom -5578.221389 kJ/mol
# Density = 1.923578 g / cm^3
# Si number density = 19.279664 Si / 1000 Ang^3
#
#
#
# Elastic Constant Matrix: (Units=GPa)
#
#
# Indices 1 2 3 4 5 6 
#
# 1 102.0357 17.8256 -4.4114 0.0000 0.0000 0.0000
# 2 17.8256 65.4477 9.3823 0.0000 0.0000 0.0000
# 3 -4.4114 9.3823 55.2420 0.0000 0.0000 0.0000
# 4 0.0000 0.0000 0.0000 20.7388 0.0000 0.0000
# 5 0.0000 0.0000 0.0000 0.0000 26.5145 0.0000
# 6 0.0000 0.0000 0.0000 0.0000 0.0000 22.8892
#
#
#
# Elastic Compliance Matrix: (Units=1/GPa)
#
#
# Indices 1 2 3 4 5 6 
#
# 1 0.010386 -0.003021 0.001343 0.000000 0.000000 0.000000
# 2 -0.003021 0.016540 -0.003050 0.000000 0.000000 0.000000
# 3 0.001343 -0.003050 0.018727 0.000000 0.000000 0.000000
# 4 0.000000 0.000000 0.000000 0.048219 0.000000 0.000000
# 5 0.000000 0.000000 0.000000 0.000000 0.037715 0.000000
# 6 0.000000 0.000000 0.000000 0.000000 0.000000 0.043689
#
#
# Mechanical properties :
#
#
# Convention : Reuss Voigt Hill
#
# Bulk Modulus (GPa) = 27.62804 29.81315 28.72059
# Shear Modulus (GPa) = 25.40660 27.35711 26.38185
#
# Velocity S-wave (km/s) = 3.63408 3.77100 3.70317
# Velocity P-wave (km/s) = 5.65420 5.87006 5.76314
#
# Compressibility (1/GPa) = 0.03619512
#
# Stress axis : x y z
#
# Youngs Moduli (GPa) = 96.28007 60.46105 53.39753
#
# Poissons Ratio (x) = 0.18267 -0.07169
# Poissons Ratio (y) = 0.29089 0.16288
# Poissons Ratio (z) = -0.12926 0.18443
#
# Static dielectric constant tensor:
#      x y z
#    x 1.716210 0.000000 0.000000 
#    y 0.000000 1.673380 0.000000 
#    z 0.000000 0.000000 1.667010 
# 
# From -- ./inp_files/46761.got.cif
#   From: 2010.05.17/outbox.cif.g08.bks.cpg/sg64_24_cif.got.tgz:46761.got - 2010.06.03 16:29:19.
