data_PCOD9479870
_publ_section_title
;
Structure prediction by ZEFSAII (Michael W. Deem and Ramdas Pophale) SiO2 
 PCOD9479870
Probable space group: C M C A
;
_chemical_formula_sum "Si O2"
_cell_formula_units_Z 88
_cell_length_a 30.969764
_cell_length_b 16.309844
_cell_length_c 9.671320
_cell_angle_alpha 90.000000
_cell_angle_beta 90.000000
_cell_angle_gamma 90.000000
_cell_volume 4885.099977
_symmetry_space_group_name_H-M "C M C A"
_symmetry_group_IT_number 64
_symmetry_cell_setting 'orthorhombic'
loop_
_space_group_symop_operation_xyz
x,y,z
-x,1/2-y,1/2+z
x,-y,-z
-x,1/2+y,1/2-z
-x,-y,-z
x,1/2+y,1/2-z
-x,y,z
x,1/2-y,1/2+z
1/2+x,1/2+y,z
1/2-x,-y,1/2+z
1/2+x,1/2-y,-z
1/2-x,y,1/2-z
1/2-x,1/2-y,-z
1/2+x,y,1/2-z
1/2-x,1/2+y,z
1/2+x,-y,1/2+z
loop_
_atom_site_type_symbol
_atom_site_label
_atom_site_fract_x
_atom_site_fract_y
_atom_site_fract_z
Si Si1 0.153681 0.619437 0.859351
Si Si2 0.254239 0.664266 0.580095
Si Si3 0.334737 0.409441 0.042568
Si Si4 0.551159 0.336077 0.636828
Si Si5 0.086161 0.500000 0.000000
Si Si6 0.600101 0.778110 0.587820
O O1 0.198397 0.625621 0.943298
O O2 0.164072 0.594657 0.706013
O O3 0.118286 0.556073 0.911506
O O4 0.132509 0.708994 0.855795
O O5 0.250000 0.674046 0.750000
O O6 0.250000 0.750000 0.500000
O O7 0.215234 0.612155 0.514295
O O8 0.346368 0.500000 0.000000
O O9 0.369278 0.346143 0.980969
O O10 0.500000 0.323989 0.645305
O O11 0.560306 0.430248 0.586497
O O12 0.571205 0.271464 0.525085
O O13 0.573117 0.316223 0.784942
#
# Coordination Sequence:
#
# PCOD9479870 Si02
#       6
#    16  16  16  16   8  16
#     4  10  21  40  59  90 121 162 208 240 304 363
#     4  10  21  37  58  86 121 159 202 247 285 356
#     4  11  22  38  60  90 126 160 203 252 302 349
#     4  11  23  41  64  93 120 157 206 257 312 369
#     4  10  23  38  66  86 124 158 200 256 307 366
#     4  11  21  39  67  86 122 165 199 249 307 373
#
# _framework density 18.013961999999999
#
# number of rings (size 3 to 8) (size 9 to 14) (size 15 to 20)
#    0.000    1.455    3.636    1.909    1.273    0.000 
#    3.273    0.000    0.000    2.182    0.000    0.000 
#    0.000    0.000    0.000    0.000    0.000    0.000 
#
# Total GULP energy -245237.070219 kJ/mol
# GULP energy per Si atom -5573.569778 kJ/mol
# Density = 1.797296 g / cm^3
# Si number density = 18.013962 Si / 1000 Ang^3
#
#
#
# Elastic Constant Matrix: (Units=GPa)
#
#
# Indices 1 2 3 4 5 6 
#
# 1 119.2636 33.8367 20.5406 0.0000 0.0000 0.0000
# 2 33.8367 119.4219 18.3596 0.0000 0.0000 0.0000
# 3 20.5406 18.3596 48.7331 0.0000 0.0000 0.0000
# 4 0.0000 0.0000 0.0000 16.2255 0.0000 0.0000
# 5 0.0000 0.0000 0.0000 0.0000 19.8872 0.0000
# 6 0.0000 0.0000 0.0000 0.0000 0.0000 26.0688
#
#
#
# Elastic Compliance Matrix: (Units=1/GPa)
#
#
# Indices 1 2 3 4 5 6 
#
# 1 0.009565 -0.002219 -0.003196 0.000000 0.000000 0.000000
# 2 -0.002219 0.009403 -0.002607 0.000000 0.000000 0.000000
# 3 -0.003196 -0.002607 0.022849 0.000000 0.000000 0.000000
# 4 0.000000 0.000000 0.000000 0.061631 0.000000 0.000000
# 5 0.000000 0.000000 0.000000 0.000000 0.050284 0.000000
# 6 0.000000 0.000000 0.000000 0.000000 0.000000 0.038360
#
#
# Mechanical properties :
#
#
# Convention : Reuss Voigt Hill
#
# Bulk Modulus (GPa) = 38.79927 48.09915 43.44921
# Shear Modulus (GPa) = 23.07056 26.74841 24.90949
#
# Velocity S-wave (km/s) = 3.58258 3.85758 3.72262
# Velocity P-wave (km/s) = 6.22080 6.82644 6.53064
#
# Compressibility (1/GPa) = 0.02577368
#
# Stress axis : x y z
#
# Youngs Moduli (GPa) = 104.55181 106.34711 43.76541
#
# Poissons Ratio (x) = 0.23596 0.13985
# Poissons Ratio (y) = 0.23197 0.11411
# Poissons Ratio (z) = 0.33410 0.27728
#
# Static dielectric constant tensor:
#      x y z
#    x 1.638950 0.000000 0.000000 
#    y 0.000000 1.608480 0.000000 
#    z 0.000000 0.000000 1.609970 
# 
# From -- ./inp_files/11094.got.cif
#   From: 2010.05.17/outbox.cif.g08.bks.cpg/sg64_6_cif.got.tgz:11094.got - 2010.06.03 16:29:19.
