data_PCOD9479052
_publ_section_title
;
Structure prediction by ZEFSAII (Michael W. Deem and Ramdas Pophale) SiO2 
 PCOD9479052
Probable space group: C M C A
;
_chemical_formula_sum "Si O2"
_cell_formula_units_Z 88
_cell_length_a 14.794885
_cell_length_b 21.017953
_cell_length_c 14.442803
_cell_angle_alpha 90.000000
_cell_angle_beta 90.000000
_cell_angle_gamma 90.000000
_cell_volume 4491.107989
_symmetry_space_group_name_H-M "C M C A"
_symmetry_group_IT_number 64
_symmetry_cell_setting 'orthorhombic'
loop_
_space_group_symop_operation_xyz
x,y,z
-x,1/2-y,1/2+z
x,-y,-z
-x,1/2+y,1/2-z
-x,-y,-z
x,1/2+y,1/2-z
-x,y,z
x,1/2-y,1/2+z
1/2+x,1/2+y,z
1/2-x,-y,1/2+z
1/2+x,1/2-y,-z
1/2-x,y,1/2-z
1/2-x,1/2-y,-z
1/2+x,y,1/2-z
1/2-x,1/2+y,z
1/2+x,-y,1/2+z
loop_
_atom_site_type_symbol
_atom_site_label
_atom_site_fract_x
_atom_site_fract_y
_atom_site_fract_z
Si Si1 0.605417 0.115246 0.686896
Si Si2 0.747100 0.863558 0.026645
Si Si3 0.672647 0.161049 0.323294
Si Si4 0.601926 0.205144 0.860779
Si Si5 0.895720 0.025600 0.164718
Si Si6 0.255834 0.500000 0.000000
O O1 0.500000 0.123272 0.659124
O O2 0.671209 0.130259 0.601127
O O3 0.624478 0.161653 0.771839
O O4 0.615302 0.041238 0.718561
O O5 0.674983 0.812864 0.062072
O O6 0.785203 0.847580 0.925673
O O7 0.704611 0.934899 0.022404
O O8 0.750000 0.176505 0.250000
O O9 0.608201 0.221510 0.331595
O O10 0.627400 0.094123 0.292787
O O11 0.500000 0.190181 0.890632
O O12 0.000000 0.027711 0.132187
O O13 0.824108 0.016991 0.082831
#
# Coordination Sequence:
#
# PCOD9479052 Si02
#       6
#    16  16  16  16  16   8
#     4   9  19  35  60  88 112 142 185 231 278 331
#     4  10  20  37  59  82 112 147 184 227 277 333
#     4  11  23  37  54  81 114 149 187 232 281 332
#     4  11  23  39  58  82 111 148 189 233 282 334
#     4   9  17  32  54  82 112 144 182 228 277 329
#     4   8  17  30  55  86 110 140 182 228 272 320
#
# _framework density 19.594273000000001
#
# number of rings (size 3 to 8) (size 9 to 14) (size 15 to 20)
#    0.000    2.182    0.000    3.000    0.000    9.455 
#    0.000    4.091    0.000    0.000    0.000    0.000 
#    0.000    0.000    0.000    0.000    0.000    0.000 
#
# Total GULP energy -245341.632852 kJ/mol
# GULP energy per Si atom -5575.946201 kJ/mol
# Density = 1.954968 g / cm^3
# Si number density = 19.594273 Si / 1000 Ang^3
#
#
#
# Elastic Constant Matrix: (Units=GPa)
#
#
# Indices 1 2 3 4 5 6 
#
# 1 53.1232 24.6752 26.5056 0.0000 0.0000 0.0000
# 2 24.6752 114.7045 24.5756 0.0000 0.0000 0.0000
# 3 26.5056 24.5756 51.0369 0.0000 0.0000 0.0000
# 4 0.0000 0.0000 0.0000 -26.0318 0.0000 0.0000
# 5 0.0000 0.0000 0.0000 0.0000 22.8181 0.0000
# 6 0.0000 0.0000 0.0000 0.0000 0.0000 24.7275
#
#
#
# Elastic Compliance Matrix: (Units=1/GPa)
#
#
# Indices 1 2 3 4 5 6 
#
# 1 0.026331 -0.003049 -0.012207 0.000000 0.000000 0.000000
# 2 -0.003049 0.010074 -0.003267 0.000000 0.000000 0.000000
# 3 -0.012207 -0.003267 0.027506 0.000000 0.000000 0.000000
# 4 0.000000 0.000000 0.000000 -0.038415 0.000000 0.000000
# 5 0.000000 0.000000 0.000000 0.000000 0.043825 0.000000
# 6 0.000000 0.000000 0.000000 0.000000 0.000000 0.040441
#
#
# Mechanical properties :
#
#
# Convention : Reuss Voigt Hill
#
# Bulk Modulus (GPa) = 37.22274 41.15303 39.18789
# Shear Modulus (GPa) = 32.09999 13.84331 22.97165
#
# Velocity S-wave (km/s) = 4.05190 2.66089 3.42770
# Velocity P-wave (km/s) = 6.39754 5.52165 5.97566
#
# Compressibility (1/GPa) = 0.02686530
#
# Stress axis : x y z
#
# Youngs Moduli (GPa) = 37.97831 99.26544 36.35526
#
# Poissons Ratio (x) = 0.30266 0.44377
# Poissons Ratio (y) = 0.11580 0.11879
# Poissons Ratio (z) = 0.46358 0.32434
#
# Static dielectric constant tensor:
#      x y z
#    x 1.670550 0.000000 0.000000 
#    y 0.000000 1.756780 0.000000 
#    z 0.000000 0.000000 1.663550 
# 
# From -- ./inp_files/23770.got.cif
#   From: 2010.05.17/outbox.cif.g08.bks.cpg/sg64_12_cif.got.tgz:23770.got - 2010.06.03 16:29:19.
