data_PCOD9479931
_publ_section_title
;
Structure prediction by ZEFSAII (Michael W. Deem and Ramdas Pophale) SiO2 
 PCOD9479931
Probable space group: C M C A
;
_chemical_formula_sum "Si O2"
_cell_formula_units_Z 96
_cell_length_a 14.404864
_cell_length_b 20.339017
_cell_length_c 18.312716
_cell_angle_alpha 90.000000
_cell_angle_beta 90.000000
_cell_angle_gamma 90.000000
_cell_volume 5365.273704
_symmetry_space_group_name_H-M "C M C A"
_symmetry_group_IT_number 64
_symmetry_cell_setting 'orthorhombic'
loop_
_space_group_symop_operation_xyz
x,y,z
-x,1/2-y,1/2+z
x,-y,-z
-x,1/2+y,1/2-z
-x,-y,-z
x,1/2+y,1/2-z
-x,y,z
x,1/2-y,1/2+z
1/2+x,1/2+y,z
1/2-x,-y,1/2+z
1/2+x,1/2-y,-z
1/2-x,y,1/2-z
1/2-x,1/2-y,-z
1/2+x,y,1/2-z
1/2-x,1/2+y,z
1/2+x,-y,1/2+z
loop_
_atom_site_type_symbol
_atom_site_label
_atom_site_fract_x
_atom_site_fract_y
_atom_site_fract_z
Si Si1 0.500000 0.524486 0.826851
Si Si2 0.500000 0.089708 0.210754
Si Si3 0.208724 0.587128 0.167671
Si Si4 0.176694 0.323480 0.426829
Si Si5 0.000000 0.678590 0.675954
Si Si6 0.000000 0.780551 0.807918
Si Si7 0.820381 0.793469 0.906873
Si Si8 0.688693 0.476663 0.083468
O O1 0.500000 0.477240 0.757474
O O2 0.500000 0.601123 0.805146
O O3 0.590723 0.511763 0.875856
O O4 0.597528 0.094505 0.168547
O O5 0.500000 0.149835 0.267075
O O6 0.250000 0.584552 0.250000
O O7 0.259130 0.647947 0.127770
O O8 0.237083 0.520681 0.126068
O O9 0.090471 0.309145 0.373776
O O10 0.149776 0.315067 0.511785
O O11 0.257565 0.271458 0.412138
O O12 0.207207 0.398769 0.414554
O O13 0.000000 0.724078 0.746791
O O14 0.908739 0.778765 0.857334
O O15 0.682878 0.500000 0.000000
#
# Coordination Sequence:
#
# PCOD9479931 Si02
#       8
#     8   8  16  16   8   8  16  16
#     4  10  21  37  61  94 121 159 210 266 306 366
#     4  12  24  38  61  98 124 162 205 257 310 374
#     4  12  23  41  65  95 128 165 209 260 315 376
#     4  10  23  41  62  91 126 168 210 264 314 376
#     4  10  23  38  60  94 128 159 204 268 319 370
#     4  12  23  39  65  95 123 167 215 263 319 378
#     4  11  23  41  65  90 124 170 216 256 316 380
#     4  11  21  40  65  91 125 165 214 260 314 370
#
# _framework density 17.892842000000002
#
# number of rings (size 3 to 8) (size 9 to 14) (size 15 to 20)
#    0.000    1.000    5.000    1.750    0.000    1.333 
#    0.000    1.250    0.000    0.000    0.000    0.000 
#    0.000    0.000    0.000    0.000    0.000    0.000 
#
# Total GULP energy -268269.221996 kJ/mol
# GULP energy per Si atom -5588.942125 kJ/mol
# Density = 1.785212 g / cm^3
# Si number density = 17.892842 Si / 1000 Ang^3
#
#
#
# Elastic Constant Matrix: (Units=GPa)
#
#
# Indices 1 2 3 4 5 6 
#
# 1 128.0287 57.1417 76.8787 0.0000 0.0000 0.0000
# 2 57.1417 93.3622 68.9151 0.0000 0.0000 0.0000
# 3 76.8787 68.9151 123.3054 0.0000 0.0000 0.0000
# 4 0.0000 0.0000 0.0000 27.4988 0.0000 0.0000
# 5 0.0000 0.0000 0.0000 0.0000 13.7317 0.0000
# 6 0.0000 0.0000 0.0000 0.0000 0.0000 -21.0238
#
#
#
# Elastic Compliance Matrix: (Units=1/GPa)
#
#
# Indices 1 2 3 4 5 6 
#
# 1 0.013083 -0.003381 -0.006267 0.000000 0.000000 0.000000
# 2 -0.003381 0.019107 -0.008571 0.000000 0.000000 0.000000
# 3 -0.006267 -0.008571 0.016808 0.000000 0.000000 0.000000
# 4 0.000000 0.000000 0.000000 0.036365 0.000000 0.000000
# 5 0.000000 0.000000 0.000000 0.000000 0.072824 0.000000
# 6 0.000000 0.000000 0.000000 0.000000 0.000000 -0.047565
#
#
# Mechanical properties :
#
#
# Convention : Reuss Voigt Hill
#
# Bulk Modulus (GPa) = 79.62283 83.39637 81.50960
# Shear Modulus (GPa) = 33.05849 13.49206 23.27528
#
# Velocity S-wave (km/s) = 4.30301 2.74897 3.61059
# Velocity P-wave (km/s) = 8.32372 7.53563 7.93946
#
# Compressibility (1/GPa) = 0.01255921
#
# Stress axis : x y z
#
# Youngs Moduli (GPa) = 76.43301 52.33735 59.49664
#
# Poissons Ratio (x) = 0.17697 0.37289
# Poissons Ratio (y) = 0.25844 0.50992
# Poissons Ratio (z) = 0.47904 0.44856
#
# Static dielectric constant tensor:
#      x y z
#    x 1.638170 0.000000 0.000000 
#    y 0.000000 1.592350 0.000000 
#    z 0.000000 0.000000 1.591490 
# 
# From -- ./inp_files/24022.got.cif
#   From: 2010.05.17/outbox.cif.g08.bks.cpg/sg64_13_cif.got.tgz:24022.got - 2010.06.03 16:29:19.
