data_PCOD9479491
_publ_section_title
;
Structure prediction by ZEFSAII (Michael W. Deem and Ramdas Pophale) SiO2 
 PCOD9479491
Probable space group: C M C A
;
_chemical_formula_sum "Si O2"
_cell_formula_units_Z 80
_cell_length_a 8.904810
_cell_length_b 25.398691
_cell_length_c 18.760495
_cell_angle_alpha 90.000000
_cell_angle_beta 90.000000
_cell_angle_gamma 90.000000
_cell_volume 4243.070865
_symmetry_space_group_name_H-M "C M C A"
_symmetry_group_IT_number 64
_symmetry_cell_setting 'orthorhombic'
loop_
_space_group_symop_operation_xyz
x,y,z
-x,1/2-y,1/2+z
x,-y,-z
-x,1/2+y,1/2-z
-x,-y,-z
x,1/2+y,1/2-z
-x,y,z
x,1/2-y,1/2+z
1/2+x,1/2+y,z
1/2-x,-y,1/2+z
1/2+x,1/2-y,-z
1/2-x,y,1/2-z
1/2-x,1/2-y,-z
1/2+x,y,1/2-z
1/2-x,1/2+y,z
1/2+x,-y,1/2+z
loop_
_atom_site_type_symbol
_atom_site_label
_atom_site_fract_x
_atom_site_fract_y
_atom_site_fract_z
Si Si1 0.179142 0.766758 0.672979
Si Si2 0.178862 0.070256 0.672035
Si Si3 0.319930 0.143398 0.418275
Si Si4 0.680704 0.664445 0.919086
Si Si5 0.679809 0.980088 0.580127
O O1 0.250000 0.756686 0.750000
O O2 0.239967 0.820777 0.639860
O O3 0.218508 0.719227 0.619152
O O4 0.000000 0.768576 0.679423
O O5 0.250000 0.075836 0.750000
O O6 0.239738 0.117164 0.622307
O O7 0.000000 0.072179 0.676664
O O8 0.233529 0.016134 0.635966
O O9 0.500000 0.148845 0.410722
O O10 0.278297 0.162857 0.497712
O O11 0.283879 0.081531 0.413128
O O12 0.500000 0.656515 0.914702
O O13 0.500000 0.986668 0.590444
O O14 0.713673 0.000000 0.500000
#
# Coordination Sequence:
#
# PCOD9479491 Si02
#       5
#    16  16  16  16  16
#     4  11  24  40  61  88 124 163 205 254 304 363
#     4  12  25  39  61  92 126 162 205 256 305 362
#     4  10  21  39  66  92 121 160 201 248 306 368
#     4  10  21  41  65  91 122 160 203 251 309 367
#     4  10  20  40  66  89 121 162 199 246 305 365
#
# _framework density 18.854268000000001
#
# number of rings (size 3 to 8) (size 9 to 14) (size 15 to 20)
#    0.000    1.400    2.000    3.600    0.000    6.000 
#    0.000    0.000    0.000    0.000    0.000    0.000 
#    0.000    0.000    0.000    0.000    0.000    0.000 
#
# Total GULP energy -223689.467447 kJ/mol
# GULP energy per Si atom -5592.236686 kJ/mol
# Density = 1.881135 g / cm^3
# Si number density = 18.854268 Si / 1000 Ang^3
#
#
#
# Elastic Constant Matrix: (Units=GPa)
#
#
# Indices 1 2 3 4 5 6 
#
# 1 23.2629 20.3108 2.7717 0.0000 0.0000 0.0000
# 2 20.3108 85.7474 -9.7350 0.0000 0.0000 0.0000
# 3 2.7717 -9.7350 19.8643 0.0000 0.0000 0.0000
# 4 0.0000 0.0000 0.0000 15.6739 0.0000 0.0000
# 5 0.0000 0.0000 0.0000 0.0000 27.9656 0.0000
# 6 0.0000 0.0000 0.0000 0.0000 0.0000 28.0542
#
#
#
# Elastic Compliance Matrix: (Units=1/GPa)
#
#
# Indices 1 2 3 4 5 6 
#
# 1 0.058556 -0.015670 -0.015850 0.000000 0.000000 0.000000
# 2 -0.015670 0.016542 0.010293 0.000000 0.000000 0.000000
# 3 -0.015850 0.010293 0.057598 0.000000 0.000000 0.000000
# 4 0.000000 0.000000 0.000000 0.063800 0.000000 0.000000
# 5 0.000000 0.000000 0.000000 0.000000 0.035758 0.000000
# 6 0.000000 0.000000 0.000000 0.000000 0.000000 0.035645
#
#
# Mechanical properties :
#
#
# Convention : Reuss Voigt Hill
#
# Bulk Modulus (GPa) = 11.08097 17.28552 14.18324
# Shear Modulus (GPa) = 14.68716 22.04055 18.36385
#
# Velocity S-wave (km/s) = 2.79405 3.42277 3.12427
# Velocity P-wave (km/s) = 4.03719 4.98079 4.53361
#
# Compressibility (1/GPa) = 0.09024482
#
# Stress axis : x y z
#
# Youngs Moduli (GPa) = 17.07758 60.45074 17.36180
#
# Poissons Ratio (x) = 0.94724 0.27518
# Poissons Ratio (y) = 0.26760 -0.17871
# Poissons Ratio (z) = 0.27067 -0.62224
#
# Static dielectric constant tensor:
#      x y z
#    x 1.627400 0.000000 0.000000 
#    y 0.000000 1.633340 0.000000 
#    z 0.000000 0.000000 1.623020 
# 
# From -- ./inp_files/29780.got.cif
#   From: 2010.05.17/outbox.cif.g08.bks.cpg/sg64_15_cif.got.tgz:29780.got - 2010.06.03 16:29:19.
