data_PCOD9479053
_publ_section_title
;
Structure prediction by ZEFSAII (Michael W. Deem and Ramdas Pophale) SiO2 
 PCOD9479053
Probable space group: C M C A
;
_chemical_formula_sum "Si O2"
_cell_formula_units_Z 56
_cell_length_a 10.434687
_cell_length_b 19.731415
_cell_length_c 14.459585
_cell_angle_alpha 90.000000
_cell_angle_beta 90.000000
_cell_angle_gamma 90.000000
_cell_volume 2977.100434
_symmetry_space_group_name_H-M "C M C A"
_symmetry_group_IT_number 64
_symmetry_cell_setting 'orthorhombic'
loop_
_space_group_symop_operation_xyz
x,y,z
-x,1/2-y,1/2+z
x,-y,-z
-x,1/2+y,1/2-z
-x,-y,-z
x,1/2+y,1/2-z
-x,y,z
x,1/2-y,1/2+z
1/2+x,1/2+y,z
1/2-x,-y,1/2+z
1/2+x,1/2-y,-z
1/2-x,y,1/2-z
1/2-x,1/2-y,-z
1/2+x,y,1/2-z
1/2-x,1/2+y,z
1/2+x,-y,1/2+z
loop_
_atom_site_type_symbol
_atom_site_label
_atom_site_fract_x
_atom_site_fract_y
_atom_site_fract_z
Si Si1 0.652575 0.516031 0.602572
Si Si2 0.650748 0.338011 0.437338
Si Si3 0.644655 0.814432 0.599023
Si Si4 0.250000 0.408452 0.750000
O O1 0.704477 0.500000 0.500000
O O2 0.500000 0.512030 0.598587
O O3 0.684412 0.594858 0.620765
O O4 0.693351 0.459801 0.674773
O O5 0.500000 0.344454 0.466463
O O6 0.661719 0.266242 0.385548
O O7 0.745731 0.334522 0.525219
O O8 0.500000 0.824075 0.561389
O O9 0.659525 0.858560 0.691229
#
# Coordination Sequence:
#
# PCOD9479053 Si02
#       4
#    16  16  16   8
#     4  10  20  37  59  83 114 160 204 237 288 360
#     4   9  19  39  62  81 112 158 198 236 292 358
#     4  10  21  36  58  89 117 147 195 250 296 341
#     4  12  22  34  58  90 122 154 194 252 296 350
#
# _framework density 18.810248999999999
#
# number of rings (size 3 to 8) (size 9 to 14) (size 15 to 20)
#    0.000    2.000    2.857    0.857    0.000    2.286 
#    0.000    4.286    0.000    0.000    0.000    0.000 
#    0.000    0.000    0.000    0.000    0.000    0.000 
#
# Total GULP energy -155920.981816 kJ/mol
# GULP energy per Si atom -5568.606493 kJ/mol
# Density = 1.876744 g / cm^3
# Si number density = 18.810249 Si / 1000 Ang^3
#
#
#
# Elastic Constant Matrix: (Units=GPa)
#
#
# Indices 1 2 3 4 5 6 
#
# 1 63.3771 53.0583 25.4067 0.0000 0.0000 0.0000
# 2 53.0583 180.1308 72.9686 0.0000 0.0000 0.0000
# 3 25.4067 72.9686 84.4496 0.0000 0.0000 0.0000
# 4 0.0000 0.0000 0.0000 43.6281 0.0000 0.0000
# 5 0.0000 0.0000 0.0000 0.0000 10.1029 0.0000
# 6 0.0000 0.0000 0.0000 0.0000 0.0000 19.7907
#
#
#
# Elastic Compliance Matrix: (Units=1/GPa)
#
#
# Indices 1 2 3 4 5 6 
#
# 1 0.021066 -0.005597 -0.001502 0.000000 0.000000 0.000000
# 2 -0.005597 0.010028 -0.006981 0.000000 0.000000 0.000000
# 3 -0.001502 -0.006981 0.018325 0.000000 0.000000 0.000000
# 4 0.000000 0.000000 0.000000 0.022921 0.000000 0.000000
# 5 0.000000 0.000000 0.000000 0.000000 0.098982 0.000000
# 6 0.000000 0.000000 0.000000 0.000000 0.000000 0.050529
#
#
# Mechanical properties :
#
#
# Convention : Reuss Voigt Hill
#
# Bulk Modulus (GPa) = 47.03639 70.09164 58.56401
# Shear Modulus (GPa) = 19.44795 26.47257 22.96026
#
# Velocity S-wave (km/s) = 3.21892 3.75553 3.49753
# Velocity P-wave (km/s) = 6.23501 7.49325 6.89290
#
# Compressibility (1/GPa) = 0.02126014
#
# Stress axis : x y z
#
# Youngs Moduli (GPa) = 47.46950 99.72180 54.57027
#
# Poissons Ratio (x) = 0.55812 0.08196
# Poissons Ratio (y) = 0.26567 0.38094
# Poissons Ratio (z) = 0.07130 0.69614
#
# Static dielectric constant tensor:
#      x y z
#    x 1.651590 0.000000 0.000000 
#    y 0.000000 1.701710 0.000000 
#    z 0.000000 0.000000 1.654610 
# 
# From -- ./inp_files/20689.got.cif
#   From: 2010.05.17/outbox.cif.g08.bks.cpg/sg64_11_cif.got.tgz:20689.got - 2010.06.03 16:29:19.
