data_PCOD9479103
_publ_section_title
;
Structure prediction by ZEFSAII (Michael W. Deem and Ramdas Pophale) SiO2 
 PCOD9479103
Probable space group: C M C A
;
_chemical_formula_sum "Si O2"
_cell_formula_units_Z 80
_cell_length_a 16.670922
_cell_length_b 8.663921
_cell_length_c 25.359869
_cell_angle_alpha 90.000000
_cell_angle_beta 90.000000
_cell_angle_gamma 90.000000
_cell_volume 3662.866658
_symmetry_space_group_name_H-M "C M C A"
_symmetry_group_IT_number 64
_symmetry_cell_setting 'orthorhombic'
loop_
_space_group_symop_operation_xyz
x,y,z
-x,1/2-y,1/2+z
x,-y,-z
-x,1/2+y,1/2-z
-x,-y,-z
x,1/2+y,1/2-z
-x,y,z
x,1/2-y,1/2+z
1/2+x,1/2+y,z
1/2-x,-y,1/2+z
1/2+x,1/2-y,-z
1/2-x,y,1/2-z
1/2-x,1/2-y,-z
1/2+x,y,1/2-z
1/2-x,1/2+y,z
1/2+x,-y,1/2+z
loop_
_atom_site_type_symbol
_atom_site_label
_atom_site_fract_x
_atom_site_fract_y
_atom_site_fract_z
Si Si1 0.000000 0.258696 0.736729
Si Si2 0.000000 0.258032 0.480150
Si Si3 0.000000 0.563159 0.915971
Si Si4 0.245194 0.382241 0.873193
Si Si5 0.363102 0.372333 0.331419
Si Si6 0.000000 0.573065 0.669099
Si Si7 0.862808 0.384919 0.416179
O O1 0.920971 0.168085 0.716675
O O2 0.000000 0.425898 0.708687
O O3 0.000000 0.235667 0.799279
O O4 0.000000 0.191945 0.538539
O O5 0.920824 0.354215 0.465305
O O6 0.000000 0.106245 0.442047
O O7 0.077200 0.590000 0.879685
O O8 0.309739 0.274957 0.845008
O O9 0.198769 0.486500 0.830409
O O10 0.181536 0.273832 0.901988
O O11 0.292613 0.488673 0.915086
O O12 0.922860 0.569553 0.631479
#
# Coordination Sequence:
#
# PCOD9479103 Si02
#       7
#     8   8   8  16  16   8  16
#     4  11  24  40  62  88 117 154 200 238 285 352
#     4  10  20  37  61  89 118 158 200 238 286 349
#     4  10  20  37  61  89 118 158 200 238 286 349
#     4  10  20  38  62  84 118 158 192 240 300 342
#     4  10  21  40  61  84 119 157 195 241 292 343
#     4  11  24  40  62  88 117 154 200 238 285 352
#     4  10  21  40  61  84 119 157 195 241 292 343
#
# _framework density 21.840817000000001
#
# number of rings (size 3 to 8) (size 9 to 14) (size 15 to 20)
#    0.000    1.800    4.000    0.000    2.800    0.000 
#    0.000   14.000    0.000    0.000    0.000    0.000 
#    0.000    0.000    0.000    0.000    0.000    0.000 
#
# Total GULP energy -223631.802993 kJ/mol
# GULP energy per Si atom -5590.795075 kJ/mol
# Density = 2.179111 g / cm^3
# Si number density = 21.840817 Si / 1000 Ang^3
#
#
#
# Elastic Constant Matrix: (Units=GPa)
#
#
# Indices 1 2 3 4 5 6 
#
# 1 123.1114 50.1814 6.1054 0.0000 0.0000 0.0000
# 2 50.1814 110.0751 8.2376 0.0000 0.0000 0.0000
# 3 6.1054 8.2376 38.4131 0.0000 0.0000 0.0000
# 4 0.0000 0.0000 0.0000 17.2952 0.0000 0.0000
# 5 0.0000 0.0000 0.0000 0.0000 -2.3151 0.0000
# 6 0.0000 0.0000 0.0000 0.0000 0.0000 -28.9039
#
#
#
# Elastic Compliance Matrix: (Units=1/GPa)
#
#
# Indices 1 2 3 4 5 6 
#
# 1 0.009991 -0.004508 -0.000621 0.000000 0.000000 0.000000
# 2 -0.004508 0.011267 -0.001700 0.000000 0.000000 0.000000
# 3 -0.000621 -0.001700 0.026496 0.000000 0.000000 0.000000
# 4 0.000000 0.000000 0.000000 0.057820 0.000000 0.000000
# 5 0.000000 0.000000 0.000000 0.000000 -0.431953 0.000000
# 6 0.000000 0.000000 0.000000 0.000000 0.000000 -0.034597
#
#
# Mechanical properties :
#
#
# Convention : Reuss Voigt Hill
#
# Bulk Modulus (GPa) = 29.32898 44.51651 36.92274
# Shear Modulus (GPa) = -14.88304 11.02025 -1.93140
#
# Velocity S-wave (km/s) = -2.61326 2.24870 -0.94140
# Velocity P-wave (km/s) = 2.08619 5.21236 3.96994
#
# Compressibility (1/GPa) = 0.03409597
#
# Stress axis : x y z
#
# Youngs Moduli (GPa) = 100.08844 88.75337 37.74152
#
# Poissons Ratio (x) = 0.40013 0.02344
# Poissons Ratio (y) = 0.45123 0.06415
# Poissons Ratio (z) = 0.06217 0.15085
#
# Static dielectric constant tensor:
#      x y z
#    x 1.807560 0.000000 0.000000 
#    y 0.000000 1.828580 0.000000 
#    z 0.000000 0.000000 1.792260 
# 
# From -- ./inp_files/47913.got.cif
#   From: 2010.05.17/outbox.cif.g08.bks.cpg/sg64_24_cif.got.tgz:47913.got - 2010.06.03 16:29:19.
