data_PCOD9479628
_publ_section_title
;
Structure prediction by ZEFSAII (Michael W. Deem and Ramdas Pophale) SiO2 
 PCOD9479628
Probable space group: C M C A
;
_chemical_formula_sum "Si O2"
_cell_formula_units_Z 112
_cell_length_a 29.310021
_cell_length_b 5.249883
_cell_length_c 29.828601
_cell_angle_alpha 90.000000
_cell_angle_beta 90.000000
_cell_angle_gamma 90.000000
_cell_volume 4589.851549
_symmetry_space_group_name_H-M "C M C A"
_symmetry_group_IT_number 64
_symmetry_cell_setting 'orthorhombic'
loop_
_space_group_symop_operation_xyz
x,y,z
-x,1/2-y,1/2+z
x,-y,-z
-x,1/2+y,1/2-z
-x,-y,-z
x,1/2+y,1/2-z
-x,y,z
x,1/2-y,1/2+z
1/2+x,1/2+y,z
1/2-x,-y,1/2+z
1/2+x,1/2-y,-z
1/2-x,y,1/2-z
1/2-x,1/2-y,-z
1/2+x,y,1/2-z
1/2-x,1/2+y,z
1/2+x,-y,1/2+z
loop_
_atom_site_type_symbol
_atom_site_label
_atom_site_fract_x
_atom_site_fract_y
_atom_site_fract_z
Si Si1 0.948431 0.473362 0.268116
Si Si2 0.224862 0.433947 0.567352
Si Si3 0.913898 0.971560 0.138885
Si Si4 0.144837 0.479602 0.143492
Si Si5 0.051493 0.363052 0.547987
Si Si6 0.353082 0.871828 0.046149
Si Si7 0.728427 0.822083 0.674795
O O1 0.924776 0.731620 0.253451
O O2 0.949613 0.452332 0.321071
O O3 0.000000 0.487074 0.248950
O O4 0.247446 0.689235 0.550739
O O5 0.172593 0.398247 0.552170
O O6 0.229021 0.402029 0.621479
O O7 0.877221 0.753900 0.151328
O O8 0.892353 0.253634 0.141248
O O9 0.935416 0.951469 0.089557
O O10 0.162740 0.507763 0.092037
O O11 0.183238 0.356611 0.175133
O O12 0.052564 0.500000 0.500000
O O13 0.092449 0.160634 0.546953
O O14 0.000000 0.263630 0.555283
O O15 0.340227 0.000000 0.000000
O O16 0.765196 0.611436 0.692855
#
# Coordination Sequence:
#
# PCOD9479628 Si02
#       7
#    16  16  16  16  16  16  16
#     4  10  21  38  61  89 119 150 185 231 295 364
#     4   9  19  33  51  75 103 140 187 239 300 360
#     4  11  21  38  60  86 120 153 193 244 293 343
#     4  10  21  34  54  82 113 151 193 239 291 347
#     4  10  22  39  59  84 116 161 212 252 288 335
#     4  10  21  35  53  77 111 152 199 252 300 343
#     4   9  16  29  48  72 107 146 186 233 281 338
#
# _framework density 24.401662000000002
#
# number of rings (size 3 to 8) (size 9 to 14) (size 15 to 20)
#    0.000    2.143    0.000    3.000    0.000    8.857 
#    0.000    7.857    0.000    0.000    0.000    0.000 
#    0.000   40.000    0.000    0.000    0.000    0.000 
#
# Total GULP energy -312468.819121 kJ/mol
# GULP energy per Si atom -5579.800341 kJ/mol
# Density = 2.434612 g / cm^3
# Si number density = 24.401662 Si / 1000 Ang^3
#
#
#
# Elastic Constant Matrix: (Units=GPa)
#
#
# Indices 1 2 3 4 5 6 
#
# 1 86.2239 -2.3360 -3.0421 0.0000 0.0000 0.0000
# 2 -2.3360 112.3441 12.3653 0.0000 0.0000 0.0000
# 3 -3.0421 12.3653 69.2350 0.0000 0.0000 0.0000
# 4 0.0000 0.0000 0.0000 12.7791 0.0000 0.0000
# 5 0.0000 0.0000 0.0000 0.0000 11.7242 0.0000
# 6 0.0000 0.0000 0.0000 0.0000 0.0000 -6.2910
#
#
#
# Elastic Compliance Matrix: (Units=1/GPa)
#
#
# Indices 1 2 3 4 5 6 
#
# 1 0.011620 0.000189 0.000477 0.000000 0.000000 0.000000
# 2 0.000189 0.009083 -0.001614 0.000000 0.000000 0.000000
# 3 0.000477 -0.001614 0.014753 0.000000 0.000000 0.000000
# 4 0.000000 0.000000 0.000000 0.078253 0.000000 0.000000
# 5 0.000000 0.000000 0.000000 0.000000 0.085294 0.000000
# 6 0.000000 0.000000 0.000000 0.000000 0.000000 -0.158958
#
#
# Mechanical properties :
#
#
# Convention : Reuss Voigt Hill
#
# Bulk Modulus (GPa) = 29.79804 31.30862 30.55333
# Shear Modulus (GPa) = 94.11681 21.03019 57.57350
#
# Velocity S-wave (km/s) = 6.21720 2.93889 4.86264
# Velocity P-wave (km/s) = 7.98599 4.93705 6.63892
#
# Compressibility (1/GPa) = 0.03355925
#
# Stress axis : x y z
#
# Youngs Moduli (GPa) = 86.06109 110.09835 67.78395
#
# Poissons Ratio (x) = -0.02082 -0.03232
# Poissons Ratio (y) = -0.01628 0.10939
# Poissons Ratio (z) = -0.04103 0.17768
#
# Static dielectric constant tensor:
#      x y z
#    x 2.041930 0.000000 0.000000 
#    y 0.000000 1.963290 0.000000 
#    z 0.000000 0.000000 1.968870 
# 
# From -- ./inp_files/54093.got.cif
#   From: 2010.05.17/outbox.cif.g08.bks.cpg/sg64_28_cif.got.tgz:54093.got - 2010.06.03 16:29:19.
