data_PCOD9479568
_publ_section_title
;
Structure prediction by ZEFSAII (Michael W. Deem and Ramdas Pophale) SiO2 
 PCOD9479568
Probable space group: C M C A
;
_chemical_formula_sum "Si O2"
_cell_formula_units_Z 56
_cell_length_a 18.368720
_cell_length_b 15.215965
_cell_length_c 8.011233
_cell_angle_alpha 90.000000
_cell_angle_beta 90.000000
_cell_angle_gamma 90.000000
_cell_volume 2239.122004
_symmetry_space_group_name_H-M "C M C A"
_symmetry_group_IT_number 64
_symmetry_cell_setting 'orthorhombic'
loop_
_space_group_symop_operation_xyz
x,y,z
-x,1/2-y,1/2+z
x,-y,-z
-x,1/2+y,1/2-z
-x,-y,-z
x,1/2+y,1/2-z
-x,y,z
x,1/2-y,1/2+z
1/2+x,1/2+y,z
1/2-x,-y,1/2+z
1/2+x,1/2-y,-z
1/2-x,y,1/2-z
1/2-x,1/2-y,-z
1/2+x,y,1/2-z
1/2-x,1/2+y,z
1/2+x,-y,1/2+z
loop_
_atom_site_type_symbol
_atom_site_label
_atom_site_fract_x
_atom_site_fract_y
_atom_site_fract_z
Si Si1 0.085377 0.202964 0.725561
Si Si2 0.414176 0.386313 0.640635
Si Si3 0.285707 0.661179 0.930914
Si Si4 0.804169 0.500000 0.000000
O O1 0.106868 0.306761 0.735168
O O2 0.096477 0.157013 0.546024
O O3 0.130596 0.161895 0.877132
O O4 0.000000 0.200200 0.761921
O O5 0.500000 0.407008 0.659089
O O6 0.363391 0.471910 0.643275
O O7 0.250000 0.650199 0.750000
O O8 0.251571 0.579861 0.024364
O O9 0.250000 0.750000 0.000000
#
# Coordination Sequence:
#
# PCOD9479568 Si02
#       4
#    16  16  16   8
#     4  10  20  42  66  92 130 171 214 265 327 390
#     4  10  21  40  67  96 129 171 218 269 330 395
#     4  12  24  44  66  97 131 173 221 275 332 391
#     4  12  23  38  65  96 134 168 220 268 325 394
#
# _framework density 25.009803000000002
#
# number of rings (size 3 to 8) (size 9 to 14) (size 15 to 20)
#    0.000    1.143    5.714    0.429    0.000    1.143 
#    5.143    0.714    0.000    0.000    0.000    0.000 
#    0.000    0.000    0.000    0.000    0.000    0.000 
#
# Total GULP energy -156269.242406 kJ/mol
# GULP energy per Si atom -5581.044372 kJ/mol
# Density = 2.495288 g / cm^3
# Si number density = 25.009803 Si / 1000 Ang^3
#
#
#
# Elastic Constant Matrix: (Units=GPa)
#
#
# Indices 1 2 3 4 5 6 
#
# 1 45.3131 22.9252 11.8351 0.0000 0.0000 0.0000
# 2 22.9252 119.5790 -7.9988 0.0000 0.0000 0.0000
# 3 11.8351 -7.9988 66.7564 0.0000 0.0000 0.0000
# 4 0.0000 0.0000 0.0000 21.9936 0.0000 0.0000
# 5 0.0000 0.0000 0.0000 0.0000 16.4715 0.0000
# 6 0.0000 0.0000 0.0000 0.0000 0.0000 38.7124
#
#
#
# Elastic Compliance Matrix: (Units=1/GPa)
#
#
# Indices 1 2 3 4 5 6 
#
# 1 0.026165 -0.005370 -0.005282 0.000000 0.000000 0.000000
# 2 -0.005370 0.009532 0.002094 0.000000 0.000000 0.000000
# 3 -0.005282 0.002094 0.016167 0.000000 0.000000 0.000000
# 4 0.000000 0.000000 0.000000 0.045468 0.000000 0.000000
# 5 0.000000 0.000000 0.000000 0.000000 0.060711 0.000000
# 6 0.000000 0.000000 0.000000 0.000000 0.000000 0.025832
#
#
# Mechanical properties :
#
#
# Convention : Reuss Voigt Hill
#
# Bulk Modulus (GPa) = 28.77766 31.68572 30.23169
# Shear Modulus (GPa) = 23.52135 29.09462 26.30799
#
# Velocity S-wave (km/s) = 3.07006 3.41446 3.24683
# Velocity P-wave (km/s) = 4.90903 5.31428 5.11567
#
# Compressibility (1/GPa) = 0.03474917
#
# Stress axis : x y z
#
# Youngs Moduli (GPa) = 38.21917 104.90774 61.85359
#
# Poissons Ratio (x) = 0.56331 0.32672
# Poissons Ratio (y) = 0.20522 -0.12953
# Poissons Ratio (z) = 0.20188 -0.21969
#
# Static dielectric constant tensor:
#      x y z
#    x 1.781020 0.000000 0.000000 
#    y 0.000000 2.024560 0.000000 
#    z 0.000000 0.000000 2.351800 
# 
# From -- ./inp_files/7637.got.cif
#   From: 2010.05.17/outbox.cif.g08.bks.cpg/sg64_4_cif.got.tgz:7637.got - 2010.06.03 16:29:19.
