data_PCOD9479971
_publ_section_title
;
Structure prediction by ZEFSAII (Michael W. Deem and Ramdas Pophale) SiO2 
 PCOD9479971
Probable space group: C M C A
;
_chemical_formula_sum "Si O2"
_cell_formula_units_Z 64
_cell_length_a 22.408557
_cell_length_b 23.654221
_cell_length_c 5.460465
_cell_angle_alpha 90.000000
_cell_angle_beta 90.000000
_cell_angle_gamma 90.000000
_cell_volume 2894.357476
_symmetry_space_group_name_H-M "C M C A"
_symmetry_group_IT_number 64
_symmetry_cell_setting 'orthorhombic'
loop_
_space_group_symop_operation_xyz
x,y,z
-x,1/2-y,1/2+z
x,-y,-z
-x,1/2+y,1/2-z
-x,-y,-z
x,1/2+y,1/2-z
-x,y,z
x,1/2-y,1/2+z
1/2+x,1/2+y,z
1/2-x,-y,1/2+z
1/2+x,1/2-y,-z
1/2-x,y,1/2-z
1/2-x,1/2-y,-z
1/2+x,y,1/2-z
1/2-x,1/2+y,z
1/2+x,-y,1/2+z
loop_
_atom_site_type_symbol
_atom_site_label
_atom_site_fract_x
_atom_site_fract_y
_atom_site_fract_z
Si Si1 0.126410 0.343880 0.179421
Si Si2 0.930368 0.563217 0.580473
Si Si3 0.750000 0.035827 0.250000
Si Si4 0.500000 0.782967 0.141214
Si Si5 0.154216 0.366893 0.675903
O O1 0.111788 0.411557 0.207028
O O2 0.162814 0.331934 0.426524
O O3 0.061567 0.316062 0.183495
O O4 0.157774 0.332943 0.924875
O O5 0.916196 0.500000 0.500000
O O6 0.912642 0.607286 0.365087
O O7 0.000000 0.565553 0.642129
O O8 0.803922 0.078772 0.191124
O O9 0.759959 0.000000 0.500000
O O10 0.500000 0.762717 0.860287
#
# Coordination Sequence:
#
# PCOD9479971 Si02
#       5
#    16  16   8   8  16
#     4  10  21  38  56  86 119 152 198 245 300 372
#     4   9  19  33  54  83 121 160 195 226 292 360
#     4  12  24  38  58  88 124 172 226 250 276 340
#     4  12  24  40  67  93 121 155 196 260 330 378
#     4  10  22  35  58  79 125 159 203 243 290 329
#
# _framework density 22.111989000000001
#
# number of rings (size 3 to 8) (size 9 to 14) (size 15 to 20)
#    1.500    0.250    1.250    3.750    5.250    0.000 
#    0.000    2.500    0.000    0.000    0.000   17.500 
#    0.000    0.000    0.000    0.000    0.000    0.000 
#
# Total GULP energy -178202.294431 kJ/mol
# GULP energy per Si atom -5568.821701 kJ/mol
# Density = 2.206166 g / cm^3
# Si number density = 22.111989 Si / 1000 Ang^3
#
#
#
# Elastic Constant Matrix: (Units=GPa)
#
#
# Indices 1 2 3 4 5 6 
#
# 1 40.1910 1.9610 19.3989 0.0000 0.0000 0.0000
# 2 1.9610 19.7695 5.4955 0.0000 0.0000 0.0000
# 3 19.3989 5.4955 174.6192 0.0000 0.0000 0.0000
# 4 0.0000 0.0000 0.0000 24.8168 0.0000 0.0000
# 5 0.0000 0.0000 0.0000 0.0000 29.5023 0.0000
# 6 0.0000 0.0000 0.0000 0.0000 0.0000 9.3541
#
#
#
# Elastic Compliance Matrix: (Units=1/GPa)
#
#
# Indices 1 2 3 4 5 6 
#
# 1 0.026355 -0.001816 -0.002871 0.000000 0.000000 0.000000
# 2 -0.001816 0.051155 -0.001408 0.000000 0.000000 0.000000
# 3 -0.002871 -0.001408 0.006090 0.000000 0.000000 0.000000
# 4 0.000000 0.000000 0.000000 0.040295 0.000000 0.000000
# 5 0.000000 0.000000 0.000000 0.000000 0.033896 0.000000
# 6 0.000000 0.000000 0.000000 0.000000 0.000000 0.106905
#
#
# Mechanical properties :
#
#
# Convention : Reuss Voigt Hill
#
# Bulk Modulus (GPa) = 14.00370 32.03228 23.01799
# Shear Modulus (GPa) = 16.62847 26.58293 21.60570
#
# Velocity S-wave (km/s) = 2.74526 3.47103 3.12926
# Velocity P-wave (km/s) = 4.04913 5.53009 4.84651
#
# Compressibility (1/GPa) = 0.07140971
#
# Stress axis : x y z
#
# Youngs Moduli (GPa) = 37.94289 19.54856 164.20422
#
# Poissons Ratio (x) = 0.03551 0.47138
# Poissons Ratio (y) = 0.06892 0.23122
# Poissons Ratio (z) = 0.10892 0.02753
#
# Static dielectric constant tensor:
#      x y z
#    x 1.812100 0.000000 0.000000 
#    y 0.000000 1.820930 0.000000 
#    z 0.000000 0.000000 1.991030 
# 
# From -- ./inp_files/2199.got.cif
#   From: 2010.05.17/outbox.cif.g08.bks.cpg/sg64_2_cif.got.tgz:2199.got - 2010.06.03 16:29:19.
