data_PCOD9479552
_publ_section_title
;
Structure prediction by ZEFSAII (Michael W. Deem and Ramdas Pophale) SiO2 
 PCOD9479552
Probable space group: C M C A
;
_chemical_formula_sum "Si O2"
_cell_formula_units_Z 112
_cell_length_a 14.374237
_cell_length_b 27.967833
_cell_length_c 12.175726
_cell_angle_alpha 90.000000
_cell_angle_beta 90.000000
_cell_angle_gamma 90.000000
_cell_volume 4894.839828
_symmetry_space_group_name_H-M "C M C A"
_symmetry_group_IT_number 64
_symmetry_cell_setting 'orthorhombic'
loop_
_space_group_symop_operation_xyz
x,y,z
-x,1/2-y,1/2+z
x,-y,-z
-x,1/2+y,1/2-z
-x,-y,-z
x,1/2+y,1/2-z
-x,y,z
x,1/2-y,1/2+z
1/2+x,1/2+y,z
1/2-x,-y,1/2+z
1/2+x,1/2-y,-z
1/2-x,y,1/2-z
1/2-x,1/2-y,-z
1/2+x,y,1/2-z
1/2-x,1/2+y,z
1/2+x,-y,1/2+z
loop_
_atom_site_type_symbol
_atom_site_label
_atom_site_fract_x
_atom_site_fract_y
_atom_site_fract_z
Si Si1 0.608475 0.898244 0.442113
Si Si2 0.103027 0.653173 0.917141
Si Si3 0.112090 0.378287 0.692302
Si Si4 0.112938 0.536472 0.142294
Si Si5 0.853056 0.306349 0.293605
Si Si6 0.387365 0.299265 0.639063
Si Si7 0.797697 0.941422 0.404325
O O1 0.500000 0.914424 0.440677
O O2 0.638600 0.884377 0.566206
O O3 0.615485 0.850247 0.369331
O O4 0.686279 0.936570 0.405204
O O5 0.094107 0.692315 0.822414
O O6 0.161688 0.609523 0.869276
O O7 0.000000 0.634231 0.944500
O O8 0.145464 0.675362 0.027136
O O9 0.135809 0.424500 0.765506
O O10 0.143338 0.330937 0.756899
O O11 0.000000 0.376007 0.691281
O O12 0.158179 0.484812 0.163142
O O13 0.000000 0.533187 0.131321
O O14 0.160021 0.552331 0.027453
O O15 0.750000 0.312371 0.250000
O O16 0.860667 0.255729 0.352780
O O17 0.500000 0.300506 0.634806
#
# Coordination Sequence:
#
# PCOD9479552 Si02
#       7
#    16  16  16  16  16  16  16
#     4  11  25  46  67  97 148 192 231 288 352 425
#     4  11  22  41  67  98 138 183 234 290 346 407
#     4   9  20  41  70 102 143 189 227 279 353 418
#     4  10  20  41  73 110 142 174 229 297 354 412
#     4  12  26  44  65  99 140 185 242 284 347 413
#     4  10  22  40  66 101 140 184 232 285 348 413
#     4  11  21  39  69 104 137 181 232 289 350 413
#
# _framework density 22.881238
#
# number of rings (size 3 to 8) (size 9 to 14) (size 15 to 20)
#    0.000    1.429    2.857    3.000    2.000    2.286 
#    0.000    7.143    0.000    3.429    0.000    1.000 
#    0.000    0.000    0.000    0.000    0.000    0.000 
#
# Total GULP energy -313110.558135 kJ/mol
# GULP energy per Si atom -5591.259967 kJ/mol
# Density = 2.282916 g / cm^3
# Si number density = 22.881238 Si / 1000 Ang^3
#
#
#
# Elastic Constant Matrix: (Units=GPa)
#
#
# Indices 1 2 3 4 5 6 
#
# 1 142.0365 36.3070 13.8676 0.0000 0.0000 0.0000
# 2 36.3070 94.1191 24.6013 0.0000 0.0000 0.0000
# 3 13.8676 24.6013 92.0960 0.0000 0.0000 0.0000
# 4 0.0000 0.0000 0.0000 -8.6515 0.0000 0.0000
# 5 0.0000 0.0000 0.0000 0.0000 47.9298 0.0000
# 6 0.0000 0.0000 0.0000 0.0000 0.0000 33.6882
#
#
#
# Elastic Compliance Matrix: (Units=1/GPa)
#
#
# Indices 1 2 3 4 5 6 
#
# 1 0.007824 -0.002914 -0.000400 0.000000 0.000000 0.000000
# 2 -0.002914 0.012507 -0.002902 0.000000 0.000000 0.000000
# 3 -0.000400 -0.002902 0.011694 0.000000 0.000000 0.000000
# 4 0.000000 0.000000 0.000000 -0.115587 0.000000 0.000000
# 5 0.000000 0.000000 0.000000 0.000000 0.020864 0.000000
# 6 0.000000 0.000000 0.000000 0.000000 0.000000 0.029684
#
#
# Mechanical properties :
#
#
# Convention : Reuss Voigt Hill
#
# Bulk Modulus (GPa) = 51.03693 53.08928 52.06311
# Shear Modulus (GPa) = -355.86787 31.49167 -162.18810
#
# Velocity S-wave (km/s) = -12.48463 3.71389 -8.42831
# Velocity P-wave (km/s) = 13.61865 6.45315 8.48011
#
# Compressibility (1/GPa) = 0.01959366
#
# Stress axis : x y z
#
# Youngs Moduli (GPa) = 127.80716 79.95231 85.51593
#
# Poissons Ratio (x) = 0.23296 0.03419
# Poissons Ratio (y) = 0.37240 0.24820
# Poissons Ratio (z) = 0.05110 0.23205
#
# Static dielectric constant tensor:
#      x y z
#    x 0.412530 0.000000 0.000000 
#    y 0.000000 1.857100 0.000000 
#    z 0.000000 0.000000 1.900890 
# 
# From -- ./inp_files/15015.got.cif
#   From: 2010.05.17/outbox.cif.g08.bks.cpg/sg64_8_cif.got.tgz:15015.got - 2010.06.03 16:29:19.
