data_PCOD9479112
_publ_section_title
;
Structure prediction by ZEFSAII (Michael W. Deem and Ramdas Pophale) SiO2 
 PCOD9479112
Probable space group: C M C A
;
_chemical_formula_sum "Si O2"
_cell_formula_units_Z 96
_cell_length_a 15.685409
_cell_length_b 18.124239
_cell_length_c 15.799635
_cell_angle_alpha 90.000000
_cell_angle_beta 90.000000
_cell_angle_gamma 90.000000
_cell_volume 4491.616640
_symmetry_space_group_name_H-M "C M C A"
_symmetry_group_IT_number 64
_symmetry_cell_setting 'orthorhombic'
loop_
_space_group_symop_operation_xyz
x,y,z
-x,1/2-y,1/2+z
x,-y,-z
-x,1/2+y,1/2-z
-x,-y,-z
x,1/2+y,1/2-z
-x,y,z
x,1/2-y,1/2+z
1/2+x,1/2+y,z
1/2-x,-y,1/2+z
1/2+x,1/2-y,-z
1/2-x,y,1/2-z
1/2-x,1/2-y,-z
1/2+x,y,1/2-z
1/2-x,1/2+y,z
1/2+x,-y,1/2+z
loop_
_atom_site_type_symbol
_atom_site_label
_atom_site_fract_x
_atom_site_fract_y
_atom_site_fract_z
Si Si1 0.906607 0.024416 0.838770
Si Si2 0.724075 0.036336 0.910512
Si Si3 0.836891 0.909116 0.714203
Si Si4 0.600989 0.322914 0.413600
Si Si5 0.399983 0.777214 0.899917
Si Si6 0.651741 0.332683 0.239159
O O1 0.825861 0.043215 0.897732
O O2 0.902606 0.093035 0.773063
O O3 0.000000 0.023548 0.878990
O O4 0.890322 0.946998 0.789850
O O5 0.664962 0.108006 0.908901
O O6 0.695021 0.979516 0.838817
O O7 0.708146 0.000000 0.000000
O O8 0.750000 0.872560 0.750000
O O9 0.882733 0.853789 0.649886
O O10 0.500000 0.341717 0.420002
O O11 0.623375 0.281362 0.500881
O O12 0.617575 0.287776 0.320947
O O13 0.500000 0.760762 0.895623
O O14 0.353750 0.715350 0.845322
O O15 0.750000 0.354246 0.250000
#
# Coordination Sequence:
#
# PCOD9479112 Si02
#       6
#    16  16  16  16  16  16
#     4  11  22  39  64  90 125 172 217 256 312 384
#     4  11  21  39  63  94 128 160 213 266 319 377
#     4  10  20  37  61  92 126 164 207 262 322 375
#     4  11  23  40  63  95 126 165 216 265 317 382
#     4  11  24  39  61  95 130 165 209 265 324 376
#     4  12  23  43  66  91 127 173 214 263 319 380
#
# _framework density 21.373151
#
# number of rings (size 3 to 8) (size 9 to 14) (size 15 to 20)
#    0.000    1.000    5.000    3.000    0.000    2.000 
#    0.000    0.000    0.000    6.000    0.000    0.000 
#    0.000    0.000    0.000    0.000    0.000    0.000 
#
# Total GULP energy -267960.758372 kJ/mol
# GULP energy per Si atom -5582.515799 kJ/mol
# Density = 2.132450 g / cm^3
# Si number density = 21.373151 Si / 1000 Ang^3
#
#
#
# Elastic Constant Matrix: (Units=GPa)
#
#
# Indices 1 2 3 4 5 6 
#
# 1 96.1418 -3.7669 -2.3068 0.0000 0.0000 0.0000
# 2 -3.7669 29.0418 -3.5751 0.0000 0.0000 0.0000
# 3 -2.3068 -3.5751 86.6464 0.0000 0.0000 0.0000
# 4 0.0000 0.0000 0.0000 32.2898 0.0000 0.0000
# 5 0.0000 0.0000 0.0000 0.0000 33.0533 0.0000
# 6 0.0000 0.0000 0.0000 0.0000 0.0000 14.7956
#
#
#
# Elastic Compliance Matrix: (Units=1/GPa)
#
#
# Indices 1 2 3 4 5 6 
#
# 1 0.010464 0.001399 0.000336 0.000000 0.000000 0.000000
# 2 0.001399 0.034796 0.001473 0.000000 0.000000 0.000000
# 3 0.000336 0.001473 0.011611 0.000000 0.000000 0.000000
# 4 0.000000 0.000000 0.000000 0.030970 0.000000 0.000000
# 5 0.000000 0.000000 0.000000 0.000000 0.030254 0.000000
# 6 0.000000 0.000000 0.000000 0.000000 0.000000 0.067588
#
#
# Mechanical properties :
#
#
# Convention : Reuss Voigt Hill
#
# Bulk Modulus (GPa) = 15.80108 21.39248 18.59678
# Shear Modulus (GPa) = 24.95483 30.79299 27.87391
#
# Velocity S-wave (km/s) = 3.42069 3.79982 3.61523
# Velocity P-wave (km/s) = 4.79693 5.41131 5.11335
#
# Compressibility (1/GPa) = 0.06328680
#
# Stress axis : x y z
#
# Youngs Moduli (GPa) = 95.56418 28.73905 86.12603
#
# Poissons Ratio (x) = -0.04020 -0.02896
# Poissons Ratio (y) = -0.13366 -0.12686
# Poissons Ratio (z) = -0.03214 -0.04233
#
# Static dielectric constant tensor:
#      x y z
#    x 1.767710 0.000000 0.000000 
#    y 0.000000 1.767320 0.000000 
#    z 0.000000 0.000000 1.837370 
# 
# From -- ./inp_files/23944.got.cif
#   From: 2010.05.17/outbox.cif.g08.bks.cpg/sg64_12_cif.got.tgz:23944.got - 2010.06.03 16:29:19.
