data_PCOD9479545
_publ_section_title
;
Structure prediction by ZEFSAII (Michael W. Deem and Ramdas Pophale) SiO2 
 PCOD9479545
Probable space group: C M C A
;
_chemical_formula_sum "Si O2"
_cell_formula_units_Z 68
_cell_length_a 19.517047
_cell_length_b 13.580735
_cell_length_c 12.235109
_cell_angle_alpha 90.000000
_cell_angle_beta 90.000000
_cell_angle_gamma 90.000000
_cell_volume 3242.987134
_symmetry_space_group_name_H-M "C M C A"
_symmetry_group_IT_number 64
_symmetry_cell_setting 'orthorhombic'
loop_
_space_group_symop_operation_xyz
x,y,z
-x,1/2-y,1/2+z
x,-y,-z
-x,1/2+y,1/2-z
-x,-y,-z
x,1/2+y,1/2-z
-x,y,z
x,1/2-y,1/2+z
1/2+x,1/2+y,z
1/2-x,-y,1/2+z
1/2+x,1/2-y,-z
1/2-x,y,1/2-z
1/2-x,1/2-y,-z
1/2+x,y,1/2-z
1/2-x,1/2+y,z
1/2+x,-y,1/2+z
loop_
_atom_site_type_symbol
_atom_site_label
_atom_site_fract_x
_atom_site_fract_y
_atom_site_fract_z
Si Si1 0.831044 0.082644 0.246753
Si Si2 0.500000 0.000000 0.000000
Si Si3 0.073407 0.912418 0.304985
Si Si4 0.922832 0.888139 0.955885
Si Si5 0.923356 0.734442 0.152551
O O1 0.750000 0.084885 0.250000
O O2 0.863595 0.119192 0.133074
O O3 0.866372 0.152088 0.337172
O O4 0.862875 0.974745 0.264458
O O5 0.441351 0.063783 0.930942
O O6 0.078766 0.801982 0.261903
O O7 0.000000 0.948986 0.252843
O O8 0.000000 0.870953 0.911154
O O9 0.914000 0.810636 0.053873
O O10 0.921045 0.000000 0.000000
O O11 0.000000 0.688321 0.142115
#
# Coordination Sequence:
#
# PCOD9479545 Si02
#       5
#    16   4  16  16  16
#     4  12  25  39  60  95 138 167 202 254 322 400
#     4   8  20  36  68  90 124 150 214 284 324 346
#     4   9  19  41  63  90 118 164 214 266 308 359
#     4  10  20  41  70  91 117 168 222 266 308 361
#     4  10  21  39  67  93 118 160 224 269 303 364
#
# _framework density 20.968322000000001
#
# number of rings (size 3 to 8) (size 9 to 14) (size 15 to 20)
#    0.706    1.176    2.353    2.118    0.000    3.765 
#    6.353    0.000    0.000    0.000    0.000    0.000 
#    0.000    0.000    0.000    0.000    0.000    0.000 
#
# Total GULP energy -189322.020962 kJ/mol
# GULP energy per Si atom -5568.294734 kJ/mol
# Density = 2.092060 g / cm^3
# Si number density = 20.968322 Si / 1000 Ang^3
#
#
#
# Elastic Constant Matrix: (Units=GPa)
#
#
# Indices 1 2 3 4 5 6 
#
# 1 205.4991 60.5884 39.4654 0.0000 0.0000 0.0000
# 2 60.5884 52.8976 2.4812 0.0000 0.0000 0.0000
# 3 39.4654 2.4812 64.1307 0.0000 0.0000 0.0000
# 4 0.0000 0.0000 0.0000 35.4602 0.0000 0.0000
# 5 0.0000 0.0000 0.0000 0.0000 22.0669 0.0000
# 6 0.0000 0.0000 0.0000 0.0000 0.0000 8.2200
#
#
#
# Elastic Compliance Matrix: (Units=1/GPa)
#
#
# Indices 1 2 3 4 5 6 
#
# 1 0.008684 -0.009714 -0.004968 0.000000 0.000000 0.000000
# 2 -0.009714 0.029804 0.004825 0.000000 0.000000 0.000000
# 3 -0.004968 0.004825 0.018464 0.000000 0.000000 0.000000
# 4 0.000000 0.000000 0.000000 0.028201 0.000000 0.000000
# 5 0.000000 0.000000 0.000000 0.000000 0.045317 0.000000
# 6 0.000000 0.000000 0.000000 0.000000 0.000000 0.121655
#
#
# Mechanical properties :
#
#
# Convention : Reuss Voigt Hill
#
# Bulk Modulus (GPa) = 26.85469 58.62194 42.73832
# Shear Modulus (GPa) = 17.58997 27.81557 22.70277
#
# Velocity S-wave (km/s) = 2.89949 3.64614 3.29404
# Velocity P-wave (km/s) = 4.90352 6.76342 5.90713
#
# Compressibility (1/GPa) = 0.03723744
#
# Stress axis : x y z
#
# Youngs Moduli (GPa) = 115.14904 33.55209 54.15940
#
# Poissons Ratio (x) = 0.32592 0.26909
# Poissons Ratio (y) = 1.11855 -0.26130
# Poissons Ratio (z) = 0.57211 -0.16188
#
# Static dielectric constant tensor:
#      x y z
#    x 1.704690 0.000000 0.000000 
#    y 0.000000 1.784820 0.000000 
#    z 0.000000 0.000000 1.859130 
# 
# From -- ./inp_files/16956.got.cif
#   From: 2010.05.17/outbox.cif.g08.bks.cpg/sg64_9_cif.got.tgz:16956.got - 2010.06.03 16:29:19.
