data_PCOD9479858
_publ_section_title
;
Structure prediction by ZEFSAII (Michael W. Deem and Ramdas Pophale) SiO2 
 PCOD9479858
Probable space group: C M C A
;
_chemical_formula_sum "Si O2"
_cell_formula_units_Z 80
_cell_length_a 14.338942
_cell_length_b 28.536895
_cell_length_c 9.793959
_cell_angle_alpha 90.000000
_cell_angle_beta 90.000000
_cell_angle_gamma 90.000000
_cell_volume 4007.579136
_symmetry_space_group_name_H-M "C M C A"
_symmetry_group_IT_number 64
_symmetry_cell_setting 'orthorhombic'
loop_
_space_group_symop_operation_xyz
x,y,z
-x,1/2-y,1/2+z
x,-y,-z
-x,1/2+y,1/2-z
-x,-y,-z
x,1/2+y,1/2-z
-x,y,z
x,1/2-y,1/2+z
1/2+x,1/2+y,z
1/2-x,-y,1/2+z
1/2+x,1/2-y,-z
1/2-x,y,1/2-z
1/2-x,1/2-y,-z
1/2+x,y,1/2-z
1/2-x,1/2+y,z
1/2+x,-y,1/2+z
loop_
_atom_site_type_symbol
_atom_site_label
_atom_site_fract_x
_atom_site_fract_y
_atom_site_fract_z
Si Si1 0.269019 0.390038 0.101152
Si Si2 0.608475 0.367270 0.583200
Si Si3 0.886781 0.282743 0.718580
Si Si4 0.708615 0.540284 0.394840
Si Si5 0.612346 0.699590 0.912603
O O1 0.250000 0.410656 0.250000
O O2 0.349196 0.352045 0.111292
O O3 0.175776 0.363319 0.047442
O O4 0.282761 0.429350 0.985231
O O5 0.500000 0.360118 0.551117
O O6 0.637591 0.329625 0.697171
O O7 0.629093 0.420472 0.631600
O O8 0.855016 0.284808 0.563185
O O9 0.856093 0.237182 0.801105
O O10 0.000000 0.281698 0.715367
O O11 0.677477 0.500000 0.500000
O O12 0.750000 0.524966 0.250000
O O13 0.500000 0.699118 0.912112
#
# Coordination Sequence:
#
# PCOD9479858 Si02
#       5
#    16  16  16  16  16
#     4  10  23  38  57  90 112 157 199 240 296 343
#     4   9  21  39  61  85 119 156 198 237 290 354
#     4   9  19  35  56  84 117 158 195 241 290 340
#     4  10  21  39  65  87 120 151 191 244 298 349
#     4  10  21  37  58  84 121 157 198 244 295 348
#
# _framework density 19.962177000000001
#
# number of rings (size 3 to 8) (size 9 to 14) (size 15 to 20)
#    1.200    1.200    0.000    1.800    2.800    2.000 
#    0.000    0.000    0.000    1.200    0.000    0.000 
#    0.000    0.000    0.000    0.000    0.000    0.000 
#
# Total GULP energy -222947.109914 kJ/mol
# GULP energy per Si atom -5573.677748 kJ/mol
# Density = 1.991674 g / cm^3
# Si number density = 19.962177 Si / 1000 Ang^3
#
#
#
# Elastic Constant Matrix: (Units=GPa)
#
#
# Indices 1 2 3 4 5 6 
#
# 1 50.3828 1.7277 9.4964 0.0000 0.0000 0.0000
# 2 1.7277 91.3814 24.3586 0.0000 0.0000 0.0000
# 3 9.4964 24.3586 123.8523 0.0000 0.0000 0.0000
# 4 0.0000 0.0000 0.0000 75.5405 0.0000 0.0000
# 5 0.0000 0.0000 0.0000 0.0000 20.5483 0.0000
# 6 0.0000 0.0000 0.0000 0.0000 0.0000 25.5293
#
#
#
# Elastic Compliance Matrix: (Units=1/GPa)
#
#
# Indices 1 2 3 4 5 6 
#
# 1 0.020139 0.000033 -0.001551 0.000000 0.000000 0.000000
# 2 0.000033 0.011549 -0.002274 0.000000 0.000000 0.000000
# 3 -0.001551 -0.002274 0.008640 0.000000 0.000000 0.000000
# 4 0.000000 0.000000 0.000000 0.013238 0.000000 0.000000
# 5 0.000000 0.000000 0.000000 0.000000 0.048666 0.000000
# 6 0.000000 0.000000 0.000000 0.000000 0.000000 0.039171
#
#
# Mechanical properties :
#
#
# Convention : Reuss Voigt Hill
#
# Bulk Modulus (GPa) = 30.53958 37.42021 33.97990
# Shear Modulus (GPa) = 31.26933 39.65919 35.46426
#
# Velocity S-wave (km/s) = 3.96211 4.46210 4.21951
# Velocity P-wave (km/s) = 6.02188 6.73300 6.38734
#
# Compressibility (1/GPa) = 0.03274439
#
# Stress axis : x y z
#
# Youngs Moduli (GPa) = 49.65441 86.59033 115.73769
#
# Poissons Ratio (x) = -0.00282 0.17946
# Poissons Ratio (y) = -0.00162 0.26317
# Poissons Ratio (z) = 0.07699 0.19689
#
# Static dielectric constant tensor:
#      x y z
#    x 1.712050 0.000000 0.000000 
#    y 0.000000 1.713810 0.000000 
#    z 0.000000 0.000000 1.699820 
# 
# From -- ./inp_files/7269.got.cif
#   From: 2010.05.17/outbox.cif.g08.bks.cpg/sg64_4_cif.got.tgz:7269.got - 2010.06.03 16:29:19.
