data_PCOD9479332
_publ_section_title
;
Structure prediction by ZEFSAII (Michael W. Deem and Ramdas Pophale) SiO2 
 PCOD9479332
Probable space group: C M C A
;
_chemical_formula_sum "Si O2"
_cell_formula_units_Z 104
_cell_length_a 21.823200
_cell_length_b 9.090848
_cell_length_c 29.422534
_cell_angle_alpha 90.000000
_cell_angle_beta 90.000000
_cell_angle_gamma 90.000000
_cell_volume 5837.177537
_symmetry_space_group_name_H-M "C M C A"
_symmetry_group_IT_number 64
_symmetry_cell_setting 'orthorhombic'
loop_
_space_group_symop_operation_xyz
x,y,z
-x,1/2-y,1/2+z
x,-y,-z
-x,1/2+y,1/2-z
-x,-y,-z
x,1/2+y,1/2-z
-x,y,z
x,1/2-y,1/2+z
1/2+x,1/2+y,z
1/2-x,-y,1/2+z
1/2+x,1/2-y,-z
1/2-x,y,1/2-z
1/2-x,1/2-y,-z
1/2+x,y,1/2-z
1/2-x,1/2+y,z
1/2+x,-y,1/2+z
loop_
_atom_site_type_symbol
_atom_site_label
_atom_site_fract_x
_atom_site_fract_y
_atom_site_fract_z
Si Si1 0.787977 0.677362 0.144170
Si Si2 0.875389 0.101690 0.632401
Si Si3 0.824253 0.679221 0.292540
Si Si4 0.801615 0.238462 0.560843
Si Si5 0.000000 0.936952 0.317416
Si Si6 0.500000 0.241583 0.232480
Si Si7 0.867078 0.356094 0.292694
Si Si8 0.768559 0.000000 0.000000
O O1 0.828560 0.534901 0.133851
O O2 0.741617 0.641896 0.185787
O O3 0.747105 0.725992 0.101304
O O4 0.833753 0.804975 0.161183
O O5 0.855289 0.220117 0.669676
O O6 0.863709 0.181411 0.584416
O O7 0.941494 0.053202 0.649792
O O8 0.860219 0.528566 0.285395
O O9 0.829596 0.774107 0.247182
O O10 0.806500 0.386970 0.531384
O O11 0.773261 0.107466 0.530674
O O12 0.000000 0.790434 0.285605
O O13 0.000000 0.069827 0.280835
O O14 0.562690 0.306453 0.211451
#
# Coordination Sequence:
#
# PCOD9479332 Si02
#       8
#    16  16  16  16   8   8  16   8
#     4  11  22  38  56  88 122 149 191 244 298 354
#     4  11  22  39  60  85 120 157 201 244 290 351
#     4  11  23  36  55  79 115 158 197 251 295 336
#     4  10  21  38  63  96 122 149 186 241 309 376
#     4  12  24  42  58  78 118 170 210 255 274 337
#     4  12  24  40  56  76 114 166 224 239 277 319
#     4  12  23  37  55  78 116 162 205 246 283 334
#     4  10  20  38  66  94 122 148 178 242 316 378
#
# _framework density 17.81683
#
# number of rings (size 3 to 8) (size 9 to 14) (size 15 to 20)
#    0.000    0.923    4.615    4.154    2.154    1.231 
#    0.000    0.000    0.000    0.923    0.000    0.000 
#    0.000    0.000    0.000    0.000    0.000    0.000 
#
# Total GULP energy -290321.084948 kJ/mol
# GULP energy per Si atom -5583.097787 kJ/mol
# Density = 1.777628 g / cm^3
# Si number density = 17.816830 Si / 1000 Ang^3
#
#
#
# Elastic Constant Matrix: (Units=GPa)
#
#
# Indices 1 2 3 4 5 6 
#
# 1 95.0601 14.3611 33.2199 0.0000 0.0000 0.0000
# 2 14.3611 110.3301 40.4377 0.0000 0.0000 0.0000
# 3 33.2199 40.4377 81.4411 0.0000 0.0000 0.0000
# 4 0.0000 0.0000 0.0000 36.4931 0.0000 0.0000
# 5 0.0000 0.0000 0.0000 0.0000 20.7419 0.0000
# 6 0.0000 0.0000 0.0000 0.0000 0.0000 21.0992
#
#
#
# Elastic Compliance Matrix: (Units=1/GPa)
#
#
# Indices 1 2 3 4 5 6 
#
# 1 0.012276 0.000290 -0.005152 0.000000 0.000000 0.000000
# 2 0.000290 0.011087 -0.005623 0.000000 0.000000 0.000000
# 3 -0.005152 -0.005623 0.017172 0.000000 0.000000 0.000000
# 4 0.000000 0.000000 0.000000 0.027402 0.000000 0.000000
# 5 0.000000 0.000000 0.000000 0.000000 0.048212 0.000000
# 6 0.000000 0.000000 0.000000 0.000000 0.000000 0.047395
#
#
# Mechanical properties :
#
#
# Convention : Reuss Voigt Hill
#
# Bulk Modulus (GPa) = 51.10911 51.42985 51.26948
# Shear Modulus (GPa) = 26.17310 28.92102 27.54706
#
# Velocity S-wave (km/s) = 3.83692 4.03332 3.93635
# Velocity P-wave (km/s) = 6.95539 7.11469 7.03549
#
# Compressibility (1/GPa) = 0.01956598
#
# Stress axis : x y z
#
# Youngs Moduli (GPa) = 81.45927 90.19590 58.23348
#
# Poissons Ratio (x) = -0.02617 0.29999
# Poissons Ratio (y) = -0.02364 0.32747
# Poissons Ratio (z) = 0.41964 0.50720
#
# Static dielectric constant tensor:
#      x y z
#    x 1.621540 0.000000 0.000000 
#    y 0.000000 1.617030 0.000000 
#    z 0.000000 0.000000 1.629980 
# 
# From -- ./inp_files/53781.got.cif
#   From: 2010.05.17/outbox.cif.g08.bks.cpg/sg64_27_cif.got.tgz:53781.got - 2010.06.03 16:29:19.
