data_PCOD9479730
_publ_section_title
;
Structure prediction by ZEFSAII (Michael W. Deem and Ramdas Pophale) SiO2 
 PCOD9479730
Probable space group: C M C A
;
_chemical_formula_sum "Si O2"
_cell_formula_units_Z 64
_cell_length_a 27.347321
_cell_length_b 14.578433
_cell_length_c 8.148473
_cell_angle_alpha 90.000000
_cell_angle_beta 90.000000
_cell_angle_gamma 90.000000
_cell_volume 3248.642072
_symmetry_space_group_name_H-M "C M C A"
_symmetry_group_IT_number 64
_symmetry_cell_setting 'orthorhombic'
loop_
_space_group_symop_operation_xyz
x,y,z
-x,1/2-y,1/2+z
x,-y,-z
-x,1/2+y,1/2-z
-x,-y,-z
x,1/2+y,1/2-z
-x,y,z
x,1/2-y,1/2+z
1/2+x,1/2+y,z
1/2-x,-y,1/2+z
1/2+x,1/2-y,-z
1/2-x,y,1/2-z
1/2-x,1/2-y,-z
1/2+x,y,1/2-z
1/2-x,1/2+y,z
1/2+x,-y,1/2+z
loop_
_atom_site_type_symbol
_atom_site_label
_atom_site_fract_x
_atom_site_fract_y
_atom_site_fract_z
Si Si1 0.554949 0.395519 0.567679
Si Si2 0.853595 0.142762 0.628971
Si Si3 0.306088 0.308446 0.708047
Si Si4 0.628879 0.041535 0.325053
O O1 0.551903 0.500000 0.500000
O O2 0.500000 0.358821 0.578511
O O3 0.592141 0.342850 0.446853
O O4 0.583373 0.407077 0.739335
O O5 0.816969 0.154604 0.474728
O O6 0.837262 0.216755 0.761836
O O7 0.854621 0.041786 0.706609
O O8 0.250000 0.291687 0.750000
O O9 0.327587 0.385252 0.830395
O O10 0.616466 0.000000 0.500000
#
# Coordination Sequence:
#
# PCOD9479730 Si02
#       4
#    16  16  16  16
#     4   8  16  34  58  80 107 143 180 228 288 342
#     4  10  21  38  56  82 115 147 192 241 287 345
#     4  11  22  36  56  81 113 155 195 240 291 344
#     4  10  21  36  56  84 116 150 191 240 288 348
#
# _framework density 19.700538999999999
#
# number of rings (size 3 to 8) (size 9 to 14) (size 15 to 20)
#    0.000    2.250    0.000    4.500    0.000    3.500 
#    0.000    5.000    0.000    6.000    0.000    0.000 
#    0.000    0.000    0.000    0.000    0.000    0.000 
#
# Total GULP energy -178538.964181 kJ/mol
# GULP energy per Si atom -5579.342631 kJ/mol
# Density = 1.965570 g / cm^3
# Si number density = 19.700539 Si / 1000 Ang^3
#
#
#
# Elastic Constant Matrix: (Units=GPa)
#
#
# Indices 1 2 3 4 5 6 
#
# 1 136.8062 44.7185 26.2512 0.0000 0.0000 0.0000
# 2 44.7185 58.6639 -0.2171 0.0000 0.0000 0.0000
# 3 26.2512 -0.2171 60.6015 0.0000 0.0000 0.0000
# 4 0.0000 0.0000 0.0000 26.5171 0.0000 0.0000
# 5 0.0000 0.0000 0.0000 0.0000 5.6351 0.0000
# 6 0.0000 0.0000 0.0000 0.0000 0.0000 24.0968
#
#
#
# Elastic Compliance Matrix: (Units=1/GPa)
#
#
# Indices 1 2 3 4 5 6 
#
# 1 0.010965 -0.008376 -0.004780 0.000000 0.000000 0.000000
# 2 -0.008376 0.023445 0.003712 0.000000 0.000000 0.000000
# 3 -0.004780 0.003712 0.018585 0.000000 0.000000 0.000000
# 4 0.000000 0.000000 0.000000 0.037711 0.000000 0.000000
# 5 0.000000 0.000000 0.000000 0.000000 0.177460 0.000000
# 6 0.000000 0.000000 0.000000 0.000000 0.000000 0.041499
#
#
# Mechanical properties :
#
#
# Convention : Reuss Voigt Hill
#
# Bulk Modulus (GPa) = 29.31881 44.17520 36.74700
# Shear Modulus (GPa) = 14.70933 23.60442 19.15687
#
# Velocity S-wave (km/s) = 2.73545 3.46520 3.12172
# Velocity P-wave (km/s) = 4.98913 6.20340 5.62910
#
# Compressibility (1/GPa) = 0.03410780
#
# Stress axis : x y z
#
# Youngs Moduli (GPa) = 91.20278 42.65357 53.80701
#
# Poissons Ratio (x) = 0.35726 0.25718
# Poissons Ratio (y) = 0.76390 -0.19974
# Poissons Ratio (z) = 0.43591 -0.15834
#
# Static dielectric constant tensor:
#      x y z
#    x 1.689920 0.000000 0.000000 
#    y 0.000000 1.698840 0.000000 
#    z 0.000000 0.000000 1.715770 
# 
# From -- ./inp_files/8964.got.cif
#   From: 2010.05.17/outbox.cif.g08.bks.cpg/sg64_5_cif.got.tgz:8964.got - 2010.06.03 16:29:19.
