data_PCOD9479166
_publ_section_title
;
Structure prediction by ZEFSAII (Michael W. Deem and Ramdas Pophale) SiO2 
 PCOD9479166
Probable space group: C M C A
;
_chemical_formula_sum "Si O2"
_cell_formula_units_Z 80
_cell_length_a 22.620004
_cell_length_b 5.697540
_cell_length_c 27.541430
_cell_angle_alpha 90.000000
_cell_angle_beta 90.000000
_cell_angle_gamma 90.000000
_cell_volume 3549.494815
_symmetry_space_group_name_H-M "C M C A"
_symmetry_group_IT_number 64
_symmetry_cell_setting 'orthorhombic'
loop_
_space_group_symop_operation_xyz
x,y,z
-x,1/2-y,1/2+z
x,-y,-z
-x,1/2+y,1/2-z
-x,-y,-z
x,1/2+y,1/2-z
-x,y,z
x,1/2-y,1/2+z
1/2+x,1/2+y,z
1/2-x,-y,1/2+z
1/2+x,1/2-y,-z
1/2-x,y,1/2-z
1/2-x,1/2-y,-z
1/2+x,y,1/2-z
1/2-x,1/2+y,z
1/2+x,-y,1/2+z
loop_
_atom_site_type_symbol
_atom_site_label
_atom_site_fract_x
_atom_site_fract_y
_atom_site_fract_z
Si Si1 0.284482 0.500000 0.000000
Si Si2 0.664566 0.843773 0.404969
Si Si3 0.601893 0.777109 0.644098
Si Si4 0.766689 0.173396 0.669782
Si Si5 0.064688 0.018195 0.442017
Si Si6 0.000000 0.222126 0.721682
O O1 0.321715 0.489789 0.950541
O O2 0.250000 0.750000 0.000000
O O3 0.726448 0.794608 0.378814
O O4 0.624969 0.646430 0.428475
O O5 0.623126 0.957785 0.363997
O O6 0.664463 0.651251 0.656057
O O7 0.570819 0.704556 0.593509
O O8 0.557275 0.734137 0.687288
O O9 0.755722 0.430401 0.693644
O O10 0.000000 0.128057 0.429694
O O11 0.064808 0.000000 0.500000
O O12 0.000000 0.466973 0.752148
#
# Coordination Sequence:
#
# PCOD9479166 Si02
#       6
#     8  16  16  16  16   8
#     4  12  26  40  63 104 159 206 264 296 344 428
#     4  11  24  39  67 101 149 202 248 302 363 423
#     4  11  24  45  72 104 148 189 248 313 372 450
#     4  10  20  37  65 103 135 189 233 285 359 424
#     4  11  24  40  65 105 154 207 258 294 358 437
#     4  12  32  54  85 113 137 187 250 318 392 470
#
# _framework density 22.538416999999999
#
# number of rings (size 3 to 8) (size 9 to 14) (size 15 to 20)
#    0.000    1.000    3.000    3.600    8.400    0.000 
#    0.000    2.500    0.000   14.400    0.000    0.000 
#    0.000    0.000    0.000    0.000    0.000    0.000 
#
# Total GULP energy -222971.536207 kJ/mol
# GULP energy per Si atom -5574.288405 kJ/mol
# Density = 2.248712 g / cm^3
# Si number density = 22.538417 Si / 1000 Ang^3
#
#
#
# Elastic Constant Matrix: (Units=GPa)
#
#
# Indices 1 2 3 4 5 6 
#
# 1 177.1743 38.5952 67.0717 0.0000 0.0000 0.0000
# 2 38.5952 115.1471 32.3842 0.0000 0.0000 0.0000
# 3 67.0717 32.3842 98.9137 0.0000 0.0000 0.0000
# 4 0.0000 0.0000 0.0000 9.0680 0.0000 0.0000
# 5 0.0000 0.0000 0.0000 0.0000 -452.6584 0.0000
# 6 0.0000 0.0000 0.0000 0.0000 0.0000 36.2698
#
#
#
# Elastic Compliance Matrix: (Units=1/GPa)
#
#
# Indices 1 2 3 4 5 6 
#
# 1 0.007749 -0.001233 -0.004851 0.000000 0.000000 0.000000
# 2 -0.001233 0.009762 -0.002360 0.000000 0.000000 0.000000
# 3 -0.004851 -0.002360 0.014172 0.000000 0.000000 0.000000
# 4 0.000000 0.000000 0.000000 0.110279 0.000000 0.000000
# 5 0.000000 0.000000 0.000000 0.000000 -0.002209 0.000000
# 6 0.000000 0.000000 0.000000 0.000000 0.000000 0.027571
#
#
# Mechanical properties :
#
#
# Convention : Reuss Voigt Hill
#
# Bulk Modulus (GPa) = 67.59075 74.14859 70.86967
# Shear Modulus (GPa) = 26.43519 -64.58518 -19.07499
#
# Velocity S-wave (km/s) = 3.42847 -5.35890 -2.91234
# Velocity P-wave (km/s) = 6.76216 2.30656 4.49481
#
# Compressibility (1/GPa) = 0.01479492
#
# Stress axis : x y z
#
# Youngs Moduli (GPa) = 129.04688 102.44302 70.56332
#
# Poissons Ratio (x) = 0.12632 0.34229
# Poissons Ratio (y) = 0.15913 0.16651
# Poissons Ratio (z) = 0.62598 0.24174
#
# Static dielectric constant tensor:
#      x y z
#    x 1.838240 0.000000 0.000000 
#    y 0.000000 1.980340 0.000000 
#    z 0.000000 0.000000 1.819970 
# 
# From -- ./inp_files/53865.got.cif
#   From: 2010.05.17/outbox.cif.g08.bks.cpg/sg64_27_cif.got.tgz:53865.got - 2010.06.03 16:29:19.
