data_PCOD9479310
_publ_section_title
;
Structure prediction by ZEFSAII (Michael W. Deem and Ramdas Pophale) SiO2 
 PCOD9479310
Probable space group: C M C A
;
_chemical_formula_sum "Si O2"
_cell_formula_units_Z 88
_cell_length_a 17.150136
_cell_length_b 14.821993
_cell_length_c 17.971630
_cell_angle_alpha 90.000000
_cell_angle_beta 90.000000
_cell_angle_gamma 90.000000
_cell_volume 4568.373892
_symmetry_space_group_name_H-M "C M C A"
_symmetry_group_IT_number 64
_symmetry_cell_setting 'orthorhombic'
loop_
_space_group_symop_operation_xyz
x,y,z
-x,1/2-y,1/2+z
x,-y,-z
-x,1/2+y,1/2-z
-x,-y,-z
x,1/2+y,1/2-z
-x,y,z
x,1/2-y,1/2+z
1/2+x,1/2+y,z
1/2-x,-y,1/2+z
1/2+x,1/2-y,-z
1/2-x,y,1/2-z
1/2-x,1/2-y,-z
1/2+x,y,1/2-z
1/2-x,1/2+y,z
1/2+x,-y,1/2+z
loop_
_atom_site_type_symbol
_atom_site_label
_atom_site_fract_x
_atom_site_fract_y
_atom_site_fract_z
Si Si1 0.169268 0.500000 0.000000
Si Si2 0.410946 0.454060 0.918891
Si Si3 0.323617 0.298936 0.695548
Si Si4 0.405787 0.104865 0.704713
Si Si5 0.092872 0.522337 0.162844
Si Si6 0.234734 0.338916 0.545235
O O1 0.122605 0.510698 0.077684
O O2 0.227232 0.583729 0.995248
O O3 0.500000 0.425868 0.899936
O O4 0.385795 0.530797 0.859251
O O5 0.350185 0.372026 0.927565
O O6 0.413264 0.500000 0.000000
O O7 0.250000 0.296020 0.750000
O O8 0.367041 0.202702 0.694808
O O9 0.379531 0.385954 0.704757
O O10 0.286225 0.323034 0.617193
O O11 0.500000 0.114913 0.702294
O O12 0.382592 0.060519 0.783789
O O13 0.000000 0.523883 0.160018
O O14 0.250000 0.250000 0.500000
#
# Coordination Sequence:
#
# PCOD9479310 Si02
#       6
#     8  16  16  16  16  16
#     4  10  23  40  65  90 126 162 212 268 315 376
#     4  10  20  38  64  92 126 166 207 256 315 375
#     4  11  24  37  61  94 125 162 208 255 314 376
#     4  10  22  40  65  92 125 166 206 260 318 377
#     4  10  22  43  65  90 125 166 212 263 318 378
#     4  11  23  39  61  93 127 165 206 258 308 369
#
# _framework density 19.262871000000001
#
# number of rings (size 3 to 8) (size 9 to 14) (size 15 to 20)
#    0.000    1.636    0.909    3.000    2.545    2.182 
#    0.000    5.455    0.000    0.000    0.000    0.000 
#    0.000    0.000    0.000    0.000    0.000    0.000 
#
# Total GULP energy -245317.594949 kJ/mol
# GULP energy per Si atom -5575.399885 kJ/mol
# Density = 1.921903 g / cm^3
# Si number density = 19.262871 Si / 1000 Ang^3
#
#
#
# Elastic Constant Matrix: (Units=GPa)
#
#
# Indices 1 2 3 4 5 6 
#
# 1 91.1596 73.0041 28.6000 0.0000 0.0000 0.0000
# 2 73.0041 164.1420 36.5332 0.0000 0.0000 0.0000
# 3 28.6000 36.5332 75.6913 0.0000 0.0000 0.0000
# 4 0.0000 0.0000 0.0000 35.2007 0.0000 0.0000
# 5 0.0000 0.0000 0.0000 0.0000 21.7930 0.0000
# 6 0.0000 0.0000 0.0000 0.0000 0.0000 -10.5661
#
#
#
# Elastic Compliance Matrix: (Units=1/GPa)
#
#
# Indices 1 2 3 4 5 6 
#
# 1 0.017720 -0.007160 -0.003240 0.000000 0.000000 0.000000
# 2 -0.007160 0.009719 -0.001985 0.000000 0.000000 0.000000
# 3 -0.003240 -0.001985 0.015394 0.000000 0.000000 0.000000
# 4 0.000000 0.000000 0.000000 0.028409 0.000000 0.000000
# 5 0.000000 0.000000 0.000000 0.000000 0.045886 0.000000
# 6 0.000000 0.000000 0.000000 0.000000 0.000000 -0.094642
#
#
# Mechanical properties :
#
#
# Convention : Reuss Voigt Hill
#
# Bulk Modulus (GPa) = 55.36340 67.47417 61.41878
# Shear Modulus (GPa) = 93.84841 22.14254 57.99548
#
# Velocity S-wave (km/s) = 6.98753 3.39410 5.49297
# Velocity P-wave (km/s) = 9.69042 7.10380 8.49612
#
# Compressibility (1/GPa) = 0.01806247
#
# Stress axis : x y z
#
# Youngs Moduli (GPa) = 56.43205 102.89325 64.96068
#
# Poissons Ratio (x) = 0.73675 0.21045
# Poissons Ratio (y) = 0.40407 0.12897
# Poissons Ratio (z) = 0.18282 0.20428
#
# Static dielectric constant tensor:
#      x y z
#    x 1.709960 0.000000 0.000000 
#    y 0.000000 1.490820 0.000000 
#    z 0.000000 0.000000 1.614580 
# 
# From -- ./inp_files/40049.got.cif
#   From: 2010.05.17/outbox.cif.g08.bks.cpg/sg64_21_cif.got.tgz:40049.got - 2010.06.03 16:29:19.
