data_PCOD9479051
_publ_section_title
;
Structure prediction by ZEFSAII (Michael W. Deem and Ramdas Pophale) SiO2 
 PCOD9479051
Probable space group: C M C A
;
_chemical_formula_sum "Si O2"
_cell_formula_units_Z 64
_cell_length_a 13.622869
_cell_length_b 23.655777
_cell_length_c 10.106889
_cell_angle_alpha 90.000000
_cell_angle_beta 90.000000
_cell_angle_gamma 90.000000
_cell_volume 3257.041513
_symmetry_space_group_name_H-M "C M C A"
_symmetry_group_IT_number 64
_symmetry_cell_setting 'orthorhombic'
loop_
_space_group_symop_operation_xyz
x,y,z
-x,1/2-y,1/2+z
x,-y,-z
-x,1/2+y,1/2-z
-x,-y,-z
x,1/2+y,1/2-z
-x,y,z
x,1/2-y,1/2+z
1/2+x,1/2+y,z
1/2-x,-y,1/2+z
1/2+x,1/2-y,-z
1/2-x,y,1/2-z
1/2-x,1/2-y,-z
1/2+x,y,1/2-z
1/2-x,1/2+y,z
1/2+x,-y,1/2+z
loop_
_atom_site_type_symbol
_atom_site_label
_atom_site_fract_x
_atom_site_fract_y
_atom_site_fract_z
Si Si1 0.803702 0.670040 0.888237
Si Si2 0.319156 0.937752 0.949744
Si Si3 0.893652 0.087353 0.158101
Si Si4 0.170223 0.790255 0.869017
O O1 0.750000 0.657201 0.750000
O O2 0.870243 0.726396 0.872440
O O3 0.847429 0.613403 0.951761
O O4 0.723362 0.693068 0.993604
O O5 0.201066 0.931859 0.926017
O O6 0.369919 0.929318 0.808537
O O7 0.341615 0.000000 0.000000
O O8 0.895490 0.155558 0.157226
O O9 0.000000 0.065607 0.114897
O O10 0.250000 0.790059 0.750000
#
# Coordination Sequence:
#
# PCOD9479051 Si02
#       4
#    16  16  16  16
#     4   9  17  28  58  83 108 143 188 238 282 335
#     4  10  21  37  58  83 113 158 195 230 287 343
#     4  10  20  37  59  82 111 149 195 240 288 345
#     4   9  15  33  55  82 106 144 184 232 294 339
#
# _framework density 19.649733999999999
#
# number of rings (size 3 to 8) (size 9 to 14) (size 15 to 20)
#    0.000    2.500    5.000    0.000    3.500    1.000 
#    0.000    1.250    0.000    1.500    0.000    0.000 
#    0.000    0.000    0.000    0.000    0.000    0.000 
#
# Total GULP energy -178151.188364 kJ/mol
# GULP energy per Si atom -5567.224636 kJ/mol
# Density = 1.960501 g / cm^3
# Si number density = 19.649734 Si / 1000 Ang^3
#
#
#
# Elastic Constant Matrix: (Units=GPa)
#
#
# Indices 1 2 3 4 5 6 
#
# 1 51.5997 -9.7840 -8.4962 0.0000 0.0000 0.0000
# 2 -9.7840 150.0223 23.3866 0.0000 0.0000 0.0000
# 3 -8.4962 23.3866 88.2058 0.0000 0.0000 0.0000
# 4 0.0000 0.0000 0.0000 5.4136 0.0000 0.0000
# 5 0.0000 0.0000 0.0000 0.0000 -7.0804 0.0000
# 6 0.0000 0.0000 0.0000 0.0000 0.0000 -5.5219
#
#
#
# Elastic Compliance Matrix: (Units=1/GPa)
#
#
# Indices 1 2 3 4 5 6 
#
# 1 0.019846 0.001039 0.001636 0.000000 0.000000 0.000000
# 2 0.001039 0.007007 -0.001758 0.000000 0.000000 0.000000
# 3 0.001636 -0.001758 0.011961 0.000000 0.000000 0.000000
# 4 0.000000 0.000000 0.000000 0.184722 0.000000 0.000000
# 5 0.000000 0.000000 0.000000 0.000000 -0.141234 0.000000
# 6 0.000000 0.000000 0.000000 0.000000 0.000000 -0.181097
#
#
# Mechanical properties :
#
#
# Convention : Reuss Voigt Hill
#
# Bulk Modulus (GPa) = 24.60040 33.33786 28.96913
# Shear Modulus (GPa) = -57.41845 17.54367 -19.93739
#
# Velocity S-wave (km/s) = -5.41151 2.99125 -3.18880
# Velocity P-wave (km/s) = 5.14774 5.37894 1.10312
#
# Compressibility (1/GPa) = 0.04064975
#
# Stress axis : x y z
#
# Youngs Moduli (GPa) = 50.38692 142.70471 83.60659
#
# Poissons Ratio (x) = -0.14831 -0.13679
# Poissons Ratio (y) = -0.05237 0.14697
# Poissons Ratio (z) = -0.08244 0.25085
#
# Static dielectric constant tensor:
#      x y z
#    x 1.675510 0.000000 0.000000 
#    y 0.000000 1.738460 0.000000 
#    z 0.000000 0.000000 1.673470 
# 
# From -- ./inp_files/5553.got.cif
#   From: 2010.05.17/outbox.cif.g08.bks.cpg/sg64_3_cif.got.tgz:5553.got - 2010.06.03 16:29:19.
