data_PCOD9479879
_publ_section_title
;
Structure prediction by ZEFSAII (Michael W. Deem and Ramdas Pophale) SiO2 
 PCOD9479879
Probable space group: C M C A
;
_chemical_formula_sum "Si O2"
_cell_formula_units_Z 80
_cell_length_a 26.612211
_cell_length_b 26.325208
_cell_length_c 6.105002
_cell_angle_alpha 90.000000
_cell_angle_beta 90.000000
_cell_angle_gamma 90.000000
_cell_volume 4276.993400
_symmetry_space_group_name_H-M "C M C A"
_symmetry_group_IT_number 64
_symmetry_cell_setting 'orthorhombic'
loop_
_space_group_symop_operation_xyz
x,y,z
-x,1/2-y,1/2+z
x,-y,-z
-x,1/2+y,1/2-z
-x,-y,-z
x,1/2+y,1/2-z
-x,y,z
x,1/2-y,1/2+z
1/2+x,1/2+y,z
1/2-x,-y,1/2+z
1/2+x,1/2-y,-z
1/2-x,y,1/2-z
1/2-x,1/2-y,-z
1/2+x,y,1/2-z
1/2-x,1/2+y,z
1/2+x,-y,1/2+z
loop_
_atom_site_type_symbol
_atom_site_label
_atom_site_fract_x
_atom_site_fract_y
_atom_site_fract_z
Si Si1 0.649773 0.114383 0.245207
Si Si2 0.557117 0.561718 0.500987
Si Si3 0.621029 0.449559 0.131962
Si Si4 0.310149 0.774338 0.754688
Si Si5 0.714501 0.052377 0.927001
O O1 0.598223 0.091746 0.140937
O O2 0.647704 0.092545 0.487347
O O3 0.657887 0.173922 0.237522
O O4 0.696158 0.088288 0.118681
O O5 0.562392 0.500000 0.500000
O O6 0.500000 0.573936 0.443734
O O7 0.572646 0.573400 0.750345
O O8 0.663085 0.464768 0.308259
O O9 0.607698 0.500000 0.000000
O O10 0.319728 0.750747 0.503319
O O11 0.250000 0.783813 0.750000
O O12 0.750000 0.078521 0.750000
O O13 0.740755 0.000000 0.000000
#
# Coordination Sequence:
#
# PCOD9479879 Si02
#       5
#    16  16  16  16  16
#     4  11  23  38  61  85 119 164 205 261 316 378
#     4  10  21  37  58  91 129 162 202 249 306 381
#     4  11  19  35  53  83 123 161 204 243 297 377
#     4  10  25  45  67  93 123 163 219 275 328 381
#     4  11  23  32  49  82 125 164 200 240 298 383
#
# _framework density 18.704727999999999
#
# number of rings (size 3 to 8) (size 9 to 14) (size 15 to 20)
#    0.000    1.400    4.000    1.800    8.400    2.000 
#    0.000    0.000    0.000    1.200    0.000    0.000 
#    0.000    0.000    0.000    0.000    0.000    0.000 
#
# Total GULP energy -222723.972170 kJ/mol
# GULP energy per Si atom -5568.099304 kJ/mol
# Density = 1.866215 g / cm^3
# Si number density = 18.704728 Si / 1000 Ang^3
#
#
#
# Elastic Constant Matrix: (Units=GPa)
#
#
# Indices 1 2 3 4 5 6 
#
# 1 93.5673 40.6564 36.9128 0.0000 0.0000 0.0000
# 2 40.6564 104.3120 50.2959 0.0000 0.0000 0.0000
# 3 36.9128 50.2959 106.3514 0.0000 0.0000 0.0000
# 4 0.0000 0.0000 0.0000 20.9023 0.0000 0.0000
# 5 0.0000 0.0000 0.0000 0.0000 20.0484 0.0000
# 6 0.0000 0.0000 0.0000 0.0000 0.0000 16.8033
#
#
#
# Elastic Compliance Matrix: (Units=1/GPa)
#
#
# Indices 1 2 3 4 5 6 
#
# 1 0.013500 -0.003889 -0.002846 0.000000 0.000000 0.000000
# 2 -0.003889 0.013539 -0.005053 0.000000 0.000000 0.000000
# 3 -0.002846 -0.005053 0.012780 0.000000 0.000000 0.000000
# 4 0.000000 0.000000 0.000000 0.047842 0.000000 0.000000
# 5 0.000000 0.000000 0.000000 0.000000 0.049879 0.000000
# 6 0.000000 0.000000 0.000000 0.000000 0.000000 0.059512
#
#
# Mechanical properties :
#
#
# Convention : Reuss Voigt Hill
#
# Bulk Modulus (GPa) = 61.56779 62.21788 61.89283
# Shear Modulus (GPa) = 22.11956 23.30850 22.71403
#
# Velocity S-wave (km/s) = 3.44258 3.53388 3.48853
# Velocity P-wave (km/s) = 6.98490 7.07011 7.02764
#
# Compressibility (1/GPa) = 0.01624226
#
# Stress axis : x y z
#
# Youngs Moduli (GPa) = 74.07168 73.86119 78.24526
#
# Poissons Ratio (x) = 0.28728 0.22271
# Poissons Ratio (y) = 0.28810 0.39536
# Poissons Ratio (z) = 0.21083 0.37321
#
# Static dielectric constant tensor:
#      x y z
#    x 1.661100 0.000000 0.000000 
#    y 0.000000 1.637220 0.000000 
#    z 0.000000 0.000000 1.787320 
# 
# From -- ./inp_files/2905.got.cif
#   From: 2010.05.17/outbox.cif.g08.bks.cpg/sg64_2_cif.got.tgz:2905.got - 2010.06.03 16:29:19.
