data_PCOD9479391
_publ_section_title
;
Structure prediction by ZEFSAII (Michael W. Deem and Ramdas Pophale) SiO2 
 PCOD9479391
Probable space group: C M C A
;
_chemical_formula_sum "Si O2"
_cell_formula_units_Z 80
_cell_length_a 26.485977
_cell_length_b 13.379134
_cell_length_c 13.115256
_cell_angle_alpha 90.000000
_cell_angle_beta 90.000000
_cell_angle_gamma 90.000000
_cell_volume 4647.514711
_symmetry_space_group_name_H-M "C M C A"
_symmetry_group_IT_number 64
_symmetry_cell_setting 'orthorhombic'
loop_
_space_group_symop_operation_xyz
x,y,z
-x,1/2-y,1/2+z
x,-y,-z
-x,1/2+y,1/2-z
-x,-y,-z
x,1/2+y,1/2-z
-x,y,z
x,1/2-y,1/2+z
1/2+x,1/2+y,z
1/2-x,-y,1/2+z
1/2+x,1/2-y,-z
1/2-x,y,1/2-z
1/2-x,1/2-y,-z
1/2+x,y,1/2-z
1/2-x,1/2+y,z
1/2+x,-y,1/2+z
loop_
_atom_site_type_symbol
_atom_site_label
_atom_site_fract_x
_atom_site_fract_y
_atom_site_fract_z
Si Si1 0.806079 0.753303 0.050574
Si Si2 0.124780 0.705256 0.858961
Si Si3 0.357648 0.114671 0.217843
Si Si4 0.193446 0.425519 0.289264
Si Si5 0.556243 0.523382 0.619041
O O1 0.847906 0.737643 0.963100
O O2 0.819775 0.667839 0.135797
O O3 0.810813 0.859216 0.109060
O O4 0.750000 0.750000 0.000000
O O5 0.117905 0.799767 0.786587
O O6 0.163267 0.633785 0.798046
O O7 0.075681 0.637113 0.871770
O O8 0.401848 0.050848 0.165070
O O9 0.327682 0.037502 0.290101
O O10 0.250000 0.428712 0.250000
O O11 0.554286 0.500000 0.500000
O O12 0.500000 0.510678 0.663071
#
# Coordination Sequence:
#
# PCOD9479391 Si02
#       5
#    16  16  16  16  16
#     4  11  21  36  55  79 119 160 189 229 285 335
#     4  10  21  38  56  83 115 149 190 233 280 343
#     4  10  23  37  56  85 118 143 195 240 276 353
#     4  10  21  34  52  82 113 155 193 224 276 341
#     4  10  20  39  64  85 107 147 195 242 292 338
#
# _framework density 17.213501999999998
#
# number of rings (size 3 to 8) (size 9 to 14) (size 15 to 20)
#    0.000    1.800    4.000    0.000    2.800    1.600 
#    0.000    0.000    0.000    0.000    0.000    5.600 
#    0.000    0.000    0.000    0.000    0.000    0.000 
#
# Total GULP energy -222942.030559 kJ/mol
# GULP energy per Si atom -5573.550764 kJ/mol
# Density = 1.717432 g / cm^3
# Si number density = 17.213502 Si / 1000 Ang^3
#
#
#
# Elastic Constant Matrix: (Units=GPa)
#
#
# Indices 1 2 3 4 5 6 
#
# 1 87.9368 48.3410 24.6824 0.0000 0.0000 0.0000
# 2 48.3410 128.1073 49.9222 0.0000 0.0000 0.0000
# 3 24.6824 49.9222 72.1415 0.0000 0.0000 0.0000
# 4 0.0000 0.0000 0.0000 17.2093 0.0000 0.0000
# 5 0.0000 0.0000 0.0000 0.0000 5.3130 0.0000
# 6 0.0000 0.0000 0.0000 0.0000 0.0000 8.9472
#
#
#
# Elastic Compliance Matrix: (Units=1/GPa)
#
#
# Indices 1 2 3 4 5 6 
#
# 1 0.014483 -0.004839 -0.001607 0.000000 0.000000 0.000000
# 2 -0.004839 0.012305 -0.006860 0.000000 0.000000 0.000000
# 3 -0.001607 -0.006860 0.019158 0.000000 0.000000 0.000000
# 4 0.000000 0.000000 0.000000 0.058108 0.000000 0.000000
# 5 0.000000 0.000000 0.000000 0.000000 0.188219 0.000000
# 6 0.000000 0.000000 0.000000 0.000000 0.000000 0.111767
#
#
# Mechanical properties :
#
#
# Convention : Reuss Voigt Hill
#
# Bulk Modulus (GPa) = 51.71735 59.34188 55.52962
# Shear Modulus (GPa) = 11.43915 17.30989 14.37452
#
# Velocity S-wave (km/s) = 2.58067 3.17456 2.89290
# Velocity P-wave (km/s) = 6.24417 6.92719 6.59453
#
# Compressibility (1/GPa) = 0.01933587
#
# Stress axis : x y z
#
# Youngs Moduli (GPa) = 69.04714 81.26749 52.19720
#
# Poissons Ratio (x) = 0.39326 0.08386
# Poissons Ratio (y) = 0.33412 0.35805
# Poissons Ratio (z) = 0.11093 0.55746
#
# Static dielectric constant tensor:
#      x y z
#    x 1.584860 0.000000 0.000000 
#    y 0.000000 1.599240 0.000000 
#    z 0.000000 0.000000 1.578460 
# 
# From -- ./inp_files/18981.got.cif
#   From: 2010.05.17/outbox.cif.g08.bks.cpg/sg64_10_cif.got.tgz:18981.got - 2010.06.03 16:29:19.
