data_PCOD9479016
_publ_section_title
;
Structure prediction by ZEFSAII (Michael W. Deem and Ramdas Pophale) SiO2 
 PCOD9479016
Probable space group: C M C A
;
_chemical_formula_sum "Si O2"
_cell_formula_units_Z 96
_cell_length_a 21.964256
_cell_length_b 25.420355
_cell_length_c 9.205308
_cell_angle_alpha 90.000000
_cell_angle_beta 90.000000
_cell_angle_gamma 90.000000
_cell_volume 5139.684165
_symmetry_space_group_name_H-M "C M C A"
_symmetry_group_IT_number 64
_symmetry_cell_setting 'orthorhombic'
loop_
_space_group_symop_operation_xyz
x,y,z
-x,1/2-y,1/2+z
x,-y,-z
-x,1/2+y,1/2-z
-x,-y,-z
x,1/2+y,1/2-z
-x,y,z
x,1/2-y,1/2+z
1/2+x,1/2+y,z
1/2-x,-y,1/2+z
1/2+x,1/2-y,-z
1/2-x,y,1/2-z
1/2-x,1/2-y,-z
1/2+x,y,1/2-z
1/2-x,1/2+y,z
1/2+x,-y,1/2+z
loop_
_atom_site_type_symbol
_atom_site_label
_atom_site_fract_x
_atom_site_fract_y
_atom_site_fract_z
Si Si1 0.373189 0.640518 0.813772
Si Si2 0.187865 0.297718 0.560212
Si Si3 0.112153 0.860949 0.735126
Si Si4 0.000000 0.313423 0.279285
Si Si5 0.927346 0.560964 0.459077
Si Si6 0.500000 0.702809 0.128061
Si Si7 0.675760 0.820554 0.044454
O O1 0.349571 0.687133 0.916853
O O2 0.438640 0.655032 0.748417
O O3 0.387577 0.592717 0.922141
O O4 0.325948 0.639958 0.681091
O O5 0.170863 0.339596 0.681269
O O6 0.258509 0.308165 0.525903
O O7 0.164728 0.239298 0.601782
O O8 0.057881 0.826009 0.801710
O O9 0.128007 0.845052 0.570627
O O10 0.095531 0.918769 0.799916
O O11 0.000000 0.261935 0.182442
O O12 0.000000 0.301215 0.453235
O O13 0.921589 0.500000 0.500000
O O14 0.000000 0.574307 0.470575
#
# Coordination Sequence:
#
# PCOD9479016 Si02
#       7
#    16  16  16   8  16   8  16
#     4  11  21  36  55  84 113 146 194 234 281 342
#     4  10  20  37  54  80 120 165 193 207 266 345
#     4  11  21  36  55  84 113 146 194 234 281 342
#     4  12  22  34  52  82 117 152 178 231 283 353
#     4  10  20  42  64  78 105 150 200 245 298 358
#     4  12  22  34  52  82 117 152 178 231 283 353
#     4  11  22  33  56  85 119 157 187 230 267 336
#
# _framework density 18.678191000000002
#
# number of rings (size 3 to 8) (size 9 to 14) (size 15 to 20)
#    0.000    1.167    5.000    4.000    2.333    2.667 
#    0.000    0.833    0.000   18.000    0.000    0.000 
#    0.000    0.000    0.000    0.000    0.000    0.000 
#
# Total GULP energy -267298.651002 kJ/mol
# GULP energy per Si atom -5568.721896 kJ/mol
# Density = 1.863568 g / cm^3
# Si number density = 18.678191 Si / 1000 Ang^3
#
#
#
# Elastic Constant Matrix: (Units=GPa)
#
#
# Indices 1 2 3 4 5 6 
#
# 1 52.2970 15.8914 18.6724 0.0000 0.0000 0.0000
# 2 15.8914 79.5552 17.5232 0.0000 0.0000 0.0000
# 3 18.6724 17.5232 79.8622 0.0000 0.0000 0.0000
# 4 0.0000 0.0000 0.0000 17.3833 0.0000 0.0000
# 5 0.0000 0.0000 0.0000 0.0000 -11.5074 0.0000
# 6 0.0000 0.0000 0.0000 0.0000 0.0000 19.5457
#
#
#
# Elastic Compliance Matrix: (Units=1/GPa)
#
#
# Indices 1 2 3 4 5 6 
#
# 1 0.021695 -0.003380 -0.004331 0.000000 0.000000 0.000000
# 2 -0.003380 0.013735 -0.002223 0.000000 0.000000 0.000000
# 3 -0.004331 -0.002223 0.014022 0.000000 0.000000 0.000000
# 4 0.000000 0.000000 0.000000 0.057526 0.000000 0.000000
# 5 0.000000 0.000000 0.000000 0.000000 -0.086900 0.000000
# 6 0.000000 0.000000 0.000000 0.000000 0.000000 0.051162
#
#
# Mechanical properties :
#
#
# Convention : Reuss Voigt Hill
#
# Bulk Modulus (GPa) = 33.80248 35.09870 34.45059
# Shear Modulus (GPa) = 49.52018 15.72614 32.62316
#
# Velocity S-wave (km/s) = 5.15460 2.90479 4.18376
# Velocity P-wave (km/s) = 7.31868 5.48475 6.46705
#
# Compressibility (1/GPa) = 0.02958363
#
# Stress axis : x y z
#
# Youngs Moduli (GPa) = 46.09387 72.80809 71.31633
#
# Poissons Ratio (x) = 0.24607 0.30886
# Poissons Ratio (y) = 0.15578 0.15857
# Poissons Ratio (z) = 0.19963 0.16189
#
# Static dielectric constant tensor:
#      x y z
#    x 1.730320 0.000000 0.000000 
#    y 0.000000 1.669120 0.000000 
#    z 0.000000 0.000000 1.704550 
# 
# From -- ./inp_files/9554.got.cif
#   From: 2010.05.17/outbox.cif.g08.bks.cpg/sg64_5_cif.got.tgz:9554.got - 2010.06.03 16:29:19.
