data_PCOD9479383
_publ_section_title
;
Structure prediction by ZEFSAII (Michael W. Deem and Ramdas Pophale) SiO2 
 PCOD9479383
Probable space group: C M C A
;
_chemical_formula_sum "Si O2"
_cell_formula_units_Z 80
_cell_length_a 13.724370
_cell_length_b 13.177057
_cell_length_c 23.184196
_cell_angle_alpha 90.000000
_cell_angle_beta 90.000000
_cell_angle_gamma 90.000000
_cell_volume 4192.787791
_symmetry_space_group_name_H-M "C M C A"
_symmetry_group_IT_number 64
_symmetry_cell_setting 'orthorhombic'
loop_
_space_group_symop_operation_xyz
x,y,z
-x,1/2-y,1/2+z
x,-y,-z
-x,1/2+y,1/2-z
-x,-y,-z
x,1/2+y,1/2-z
-x,y,z
x,1/2-y,1/2+z
1/2+x,1/2+y,z
1/2-x,-y,1/2+z
1/2+x,1/2-y,-z
1/2-x,y,1/2-z
1/2-x,1/2-y,-z
1/2+x,y,1/2-z
1/2-x,1/2+y,z
1/2+x,-y,1/2+z
loop_
_atom_site_type_symbol
_atom_site_label
_atom_site_fract_x
_atom_site_fract_y
_atom_site_fract_z
Si Si1 0.889194 0.291599 0.470128
Si Si2 0.613974 0.607564 0.778775
Si Si3 0.809851 0.600648 0.965627
Si Si4 0.613405 0.191077 0.156254
Si Si5 0.705079 0.526402 0.662529
O O1 0.870518 0.197725 0.513324
O O2 0.803123 0.372000 0.479323
O O3 0.875551 0.245719 0.405685
O O4 0.000000 0.329254 0.475066
O O5 0.500000 0.589351 0.787981
O O6 0.634188 0.724580 0.795345
O O7 0.645557 0.579006 0.714367
O O8 0.682215 0.542408 0.821011
O O9 0.818504 0.577780 0.898185
O O10 0.839640 0.500000 0.000000
O O11 0.500000 0.160089 0.161364
O O12 0.678285 0.091663 0.160136
#
# Coordination Sequence:
#
# PCOD9479383 Si02
#       5
#    16  16  16  16  16
#     4  10  22  39  61  89 125 161 197 247 304 358
#     4  10  23  41  61  86 122 162 201 249 306 361
#     4  11  22  39  63  91 123 160 206 251 301 362
#     4  10  20  39  63  87 119 158 199 249 305 354
#     4  11  22  38  64  92 121 159 207 253 298 362
#
# _framework density 19.080383000000001
#
# number of rings (size 3 to 8) (size 9 to 14) (size 15 to 20)
#    0.000    1.600    4.000    0.600    0.000    5.600 
#    0.000    0.000    0.000    1.200    0.000    0.000 
#    0.000    0.000    0.000    0.000    0.000    0.000 
#
# Total GULP energy -223438.372748 kJ/mol
# GULP energy per Si atom -5585.959319 kJ/mol
# Density = 1.903696 g / cm^3
# Si number density = 19.080383 Si / 1000 Ang^3
#
#
#
# Elastic Constant Matrix: (Units=GPa)
#
#
# Indices 1 2 3 4 5 6 
#
# 1 65.4558 12.7922 -12.7272 0.0000 0.0000 0.0000
# 2 12.7922 34.9511 -14.6076 0.0000 0.0000 0.0000
# 3 -12.7272 -14.6076 77.7093 0.0000 0.0000 0.0000
# 4 0.0000 0.0000 0.0000 9.5428 0.0000 0.0000
# 5 0.0000 0.0000 0.0000 0.0000 10.4865 0.0000
# 6 0.0000 0.0000 0.0000 0.0000 0.0000 22.8874
#
#
#
# Elastic Compliance Matrix: (Units=1/GPa)
#
#
# Indices 1 2 3 4 5 6 
#
# 1 0.016663 -0.005381 0.001718 0.000000 0.000000 0.000000
# 2 -0.005381 0.032789 0.005282 0.000000 0.000000 0.000000
# 3 0.001718 0.005282 0.014143 0.000000 0.000000 0.000000
# 4 0.000000 0.000000 0.000000 0.104791 0.000000 0.000000
# 5 0.000000 0.000000 0.000000 0.000000 0.095360 0.000000
# 6 0.000000 0.000000 0.000000 0.000000 0.000000 0.043692
#
#
# Mechanical properties :
#
#
# Convention : Reuss Voigt Hill
#
# Bulk Modulus (GPa) = 14.96286 16.55900 15.76093
# Shear Modulus (GPa) = 15.31500 21.42727 18.37113
#
# Velocity S-wave (km/s) = 2.83619 3.35475 3.10631
# Velocity P-wave (km/s) = 4.31096 4.86860 4.59824
#
# Compressibility (1/GPa) = 0.06683216
#
# Stress axis : x y z
#
# Youngs Moduli (GPa) = 60.01300 30.49848 70.70778
#
# Poissons Ratio (x) = 0.16411 -0.12145
# Poissons Ratio (y) = 0.32292 -0.37349
# Poissons Ratio (z) = -0.10308 -0.16110
#
# Static dielectric constant tensor:
#      x y z
#    x 1.668920 0.000000 0.000000 
#    y 0.000000 1.639480 0.000000 
#    z 0.000000 0.000000 1.654250 
# 
# From -- ./inp_files/44933.got.cif
#   From: 2010.05.17/outbox.cif.g08.bks.cpg/sg64_23_cif.got.tgz:44933.got - 2010.06.03 16:29:19.
