data_PCOD9479690
_publ_section_title
;
Structure prediction by ZEFSAII (Michael W. Deem and Ramdas Pophale) SiO2 
 PCOD9479690
Probable space group: C M C A
;
_chemical_formula_sum "Si O2"
_cell_formula_units_Z 96
_cell_length_a 14.934751
_cell_length_b 23.407170
_cell_length_c 12.179395
_cell_angle_alpha 90.000000
_cell_angle_beta 90.000000
_cell_angle_gamma 90.000000
_cell_volume 4257.676017
_symmetry_space_group_name_H-M "C M C A"
_symmetry_group_IT_number 64
_symmetry_cell_setting 'orthorhombic'
loop_
_space_group_symop_operation_xyz
x,y,z
-x,1/2-y,1/2+z
x,-y,-z
-x,1/2+y,1/2-z
-x,-y,-z
x,1/2+y,1/2-z
-x,y,z
x,1/2-y,1/2+z
1/2+x,1/2+y,z
1/2-x,-y,1/2+z
1/2+x,1/2-y,-z
1/2-x,y,1/2-z
1/2-x,1/2-y,-z
1/2+x,y,1/2-z
1/2-x,1/2+y,z
1/2+x,-y,1/2+z
loop_
_atom_site_type_symbol
_atom_site_label
_atom_site_fract_x
_atom_site_fract_y
_atom_site_fract_z
Si Si1 0.601004 0.042583 0.349675
Si Si2 0.390618 0.128807 0.527404
Si Si3 0.390706 0.854926 0.050030
Si Si4 0.846763 0.858020 0.702211
Si Si5 0.107358 0.731120 0.372122
Si Si6 0.609411 0.574706 0.752033
O O1 0.500000 0.025541 0.381028
O O2 0.640593 0.073720 0.456720
O O3 0.595370 0.092803 0.259608
O O4 0.642236 0.986603 0.294904
O O5 0.500000 0.128983 0.521481
O O6 0.360191 0.185614 0.464028
O O7 0.366795 0.120583 0.653742
O O8 0.500000 0.855252 0.043538
O O9 0.361365 0.794609 0.102668
O O10 0.361143 0.904800 0.132618
O O11 0.355170 0.859531 0.927212
O O12 0.750000 0.871582 0.750000
O O13 0.870709 0.796530 0.754416
O O14 0.000000 0.732608 0.379321
O O15 0.500000 0.572789 0.746757
#
# Coordination Sequence:
#
# PCOD9479690 Si02
#       6
#    16  16  16  16  16  16
#     4   9  17  33  58  82 108 144 189 234 280 335
#     4   8  14  27  51  84 112 139 177 227 285 335
#     4  10  21  35  58  89 115 143 186 241 291 338
#     4  11  23  38  56  75 113 156 190 226 281 353
#     4   9  19  35  59  84 109 141 186 239 284 335
#     4   9  17  29  54  89 114 136 178 239 294 335
#
# _framework density 22.547512000000001
#
# number of rings (size 3 to 8) (size 9 to 14) (size 15 to 20)
#    0.000    2.667    0.000    3.000    2.333    3.333 
#    0.000    2.500   14.667    0.000    0.000    0.000 
#    0.000    0.000    0.000    0.000    0.000    0.000 
#
# Total GULP energy -267992.856709 kJ/mol
# GULP energy per Si atom -5583.184515 kJ/mol
# Density = 2.249619 g / cm^3
# Si number density = 22.547512 Si / 1000 Ang^3
#
#
#
# Elastic Constant Matrix: (Units=GPa)
#
#
# Indices 1 2 3 4 5 6 
#
# 1 46.3980 13.6724 5.7863 0.0000 0.0000 0.0000
# 2 13.6724 65.2581 43.4172 0.0000 0.0000 0.0000
# 3 5.7863 43.4172 177.3954 0.0000 0.0000 0.0000
# 4 0.0000 0.0000 0.0000 13.3572 0.0000 0.0000
# 5 0.0000 0.0000 0.0000 0.0000 4.2018 0.0000
# 6 0.0000 0.0000 0.0000 0.0000 0.0000 -6.1601
#
#
#
# Elastic Compliance Matrix: (Units=1/GPa)
#
#
# Indices 1 2 3 4 5 6 
#
# 1 0.023010 -0.005162 0.000513 0.000000 0.000000 0.000000
# 2 -0.005162 0.019462 -0.004595 0.000000 0.000000 0.000000
# 3 0.000513 -0.004595 0.006745 0.000000 0.000000 0.000000
# 4 0.000000 0.000000 0.000000 0.074866 0.000000 0.000000
# 5 0.000000 0.000000 0.000000 0.000000 0.237993 0.000000
# 6 0.000000 0.000000 0.000000 0.000000 0.000000 -0.162336
#
#
# Mechanical properties :
#
#
# Convention : Reuss Voigt Hill
#
# Bulk Modulus (GPa) = 32.54273 46.08925 39.31599
# Shear Modulus (GPa) = 21.88453 17.35815 19.62134
#
# Velocity S-wave (km/s) = 3.11882 2.77762 2.95315
# Velocity P-wave (km/s) = 5.23772 5.54727 5.39472
#
# Compressibility (1/GPa) = 0.03072883
#
# Stress axis : x y z
#
# Youngs Moduli (GPa) = 43.45966 51.38100 148.25749
#
# Poissons Ratio (x) = 0.26523 -0.07604
# Poissons Ratio (y) = 0.22434 0.68125
# Poissons Ratio (z) = -0.02229 0.23610
#
# Static dielectric constant tensor:
#      x y z
#    x 1.900930 0.000000 0.000000 
#    y 0.000000 1.856130 0.000000 
#    z 0.000000 0.000000 1.803780 
# 
# From -- ./inp_files/16180.got.cif
#   From: 2010.05.17/outbox.cif.g08.bks.cpg/sg64_9_cif.got.tgz:16180.got - 2010.06.03 16:29:19.
