data_PCOD9479720
_publ_section_title
;
Structure prediction by ZEFSAII (Michael W. Deem and Ramdas Pophale) SiO2 
 PCOD9479720
Probable space group: C M C A
;
_chemical_formula_sum "Si O2"
_cell_formula_units_Z 80
_cell_length_a 31.537634
_cell_length_b 11.549402
_cell_length_c 8.722316
_cell_angle_alpha 90.000000
_cell_angle_beta 90.000000
_cell_angle_gamma 90.000000
_cell_volume 3177.023473
_symmetry_space_group_name_H-M "C M C A"
_symmetry_group_IT_number 64
_symmetry_cell_setting 'orthorhombic'
loop_
_space_group_symop_operation_xyz
x,y,z
-x,1/2-y,1/2+z
x,-y,-z
-x,1/2+y,1/2-z
-x,-y,-z
x,1/2+y,1/2-z
-x,y,z
x,1/2-y,1/2+z
1/2+x,1/2+y,z
1/2-x,-y,1/2+z
1/2+x,1/2-y,-z
1/2-x,y,1/2-z
1/2-x,1/2-y,-z
1/2+x,y,1/2-z
1/2-x,1/2+y,z
1/2+x,-y,1/2+z
loop_
_atom_site_type_symbol
_atom_site_label
_atom_site_fract_x
_atom_site_fract_y
_atom_site_fract_z
Si Si1 0.070389 0.080324 0.137661
Si Si2 0.500000 0.577279 0.703356
Si Si3 0.000000 0.236924 0.984159
Si Si4 0.862034 0.084364 0.373209
Si Si5 0.202596 0.918303 0.198624
Si Si6 0.700387 0.242123 0.455641
O O1 0.040097 0.996839 0.239071
O O2 0.041327 0.175868 0.056852
O O3 0.104791 0.133125 0.251573
O O4 0.088189 0.000000 0.000000
O O5 0.500000 0.629088 0.532229
O O6 0.500000 0.695141 0.808745
O O7 0.834218 0.176276 0.464215
O O8 0.883026 0.000000 0.500000
O O9 0.830009 0.003658 0.277768
O O10 0.250000 0.958949 0.250000
O O11 0.199008 0.792004 0.284450
O O12 0.193079 0.885212 0.022800
O O13 0.750000 0.250000 0.500000
#
# Coordination Sequence:
#
# PCOD9479720 Si02
#       6
#    16   8   8  16  16  16
#     4   9  20  38  56  82 116 149 190 237 289 351
#     4   9  19  37  60  82 112 151 191 233 286 352
#     4   9  19  37  60  82 112 155 193 235 292 354
#     4  10  21  36  55  81 113 146 186 238 289 341
#     4   9  19  35  54  76 104 142 185 229 280 337
#     4   9  19  36  54  75 105 141 183 230 280 339
#
# _framework density 25.180803999999998
#
# number of rings (size 3 to 8) (size 9 to 14) (size 15 to 20)
#    0.000    2.800    0.000    1.200    0.000    7.200 
#    0.000   15.000    0.000    0.000    0.000    0.000 
#    0.000    0.000    0.000    0.000    0.000    0.000 
#
# Total GULP energy -223508.403276 kJ/mol
# GULP energy per Si atom -5587.710082 kJ/mol
# Density = 2.512349 g / cm^3
# Si number density = 25.180804 Si / 1000 Ang^3
#
#
#
# Elastic Constant Matrix: (Units=GPa)
#
#
# Indices 1 2 3 4 5 6 
#
# 1 81.1970 1.3693 37.1387 0.0000 0.0000 0.0000
# 2 1.3693 73.8307 -4.2002 0.0000 0.0000 0.0000
# 3 37.1387 -4.2002 64.6767 0.0000 0.0000 0.0000
# 4 0.0000 0.0000 0.0000 43.5122 0.0000 0.0000
# 5 0.0000 0.0000 0.0000 0.0000 38.2856 0.0000
# 6 0.0000 0.0000 0.0000 0.0000 0.0000 10.7785
#
#
#
# Elastic Compliance Matrix: (Units=1/GPa)
#
#
# Indices 1 2 3 4 5 6 
#
# 1 0.016757 -0.000861 -0.009678 0.000000 0.000000 0.000000
# 2 -0.000861 0.013639 0.001380 0.000000 0.000000 0.000000
# 3 -0.009678 0.001380 0.021109 0.000000 0.000000 0.000000
# 4 0.000000 0.000000 0.000000 0.022982 0.000000 0.000000
# 5 0.000000 0.000000 0.000000 0.000000 0.026119 0.000000
# 6 0.000000 0.000000 0.000000 0.000000 0.000000 0.092777
#
#
# Mechanical properties :
#
#
# Convention : Reuss Voigt Hill
#
# Bulk Modulus (GPa) = 30.13301 32.03556 31.08428
# Shear Modulus (GPa) = 22.44534 30.87502 26.66018
#
# Velocity S-wave (km/s) = 2.98882 3.50542 3.25737
# Velocity P-wave (km/s) = 4.88910 5.39757 5.14962
#
# Compressibility (1/GPa) = 0.03318620
#
# Stress axis : x y z
#
# Youngs Moduli (GPa) = 59.67679 73.31910 47.37423
#
# Poissons Ratio (x) = 0.06315 0.45849
# Poissons Ratio (y) = 0.05140 -0.06539
# Poissons Ratio (z) = 0.57756 -0.10121
#
# Static dielectric constant tensor:
#      x y z
#    x 1.998100 0.000000 0.000000 
#    y 0.000000 2.007960 0.000000 
#    z 0.000000 0.000000 2.096600 
# 
# From -- ./inp_files/19622.got.cif
#   From: 2010.05.17/outbox.cif.g08.bks.cpg/sg64_10_cif.got.tgz:19622.got - 2010.06.03 16:29:19.
