data_PCOD9479530
_publ_section_title
;
Structure prediction by ZEFSAII (Michael W. Deem and Ramdas Pophale) SiO2 
 PCOD9479530
Probable space group: C M C A
;
_chemical_formula_sum "Si O2"
_cell_formula_units_Z 88
_cell_length_a 16.601359
_cell_length_b 19.436868
_cell_length_c 13.330219
_cell_angle_alpha 90.000000
_cell_angle_beta 90.000000
_cell_angle_gamma 90.000000
_cell_volume 4301.374052
_symmetry_space_group_name_H-M "C M C A"
_symmetry_group_IT_number 64
_symmetry_cell_setting 'orthorhombic'
loop_
_space_group_symop_operation_xyz
x,y,z
-x,1/2-y,1/2+z
x,-y,-z
-x,1/2+y,1/2-z
-x,-y,-z
x,1/2+y,1/2-z
-x,y,z
x,1/2-y,1/2+z
1/2+x,1/2+y,z
1/2-x,-y,1/2+z
1/2+x,1/2-y,-z
1/2-x,y,1/2-z
1/2-x,1/2-y,-z
1/2+x,y,1/2-z
1/2-x,1/2+y,z
1/2+x,-y,1/2+z
loop_
_atom_site_type_symbol
_atom_site_label
_atom_site_fract_x
_atom_site_fract_y
_atom_site_fract_z
Si Si1 0.407728 0.093272 0.249852
Si Si2 0.402907 0.842757 0.351726
Si Si3 0.319257 0.615868 0.048735
Si Si4 0.796670 0.000000 0.500000
Si Si5 0.405535 0.559323 0.670111
Si Si6 0.801370 0.206033 0.349483
O O1 0.500000 0.110448 0.229832
O O2 0.383401 0.113560 0.362089
O O3 0.352078 0.137977 0.177620
O O4 0.397525 0.012152 0.231381
O O5 0.500000 0.841002 0.360184
O O6 0.362966 0.885468 0.442138
O O7 0.383272 0.878504 0.244767
O O8 0.363031 0.768028 0.364615
O O9 0.262117 0.550015 0.060523
O O10 0.262078 0.682378 0.065894
O O11 0.851190 0.952739 0.427562
O O12 0.500000 0.567019 0.642313
O O13 0.750000 0.223289 0.250000
#
# Coordination Sequence:
#
# PCOD9479530 Si02
#       6
#    16  16  16   8  16  16
#     4  10  20  41  64  88 123 165 207 255 316 380
#     4  11  24  42  62  93 132 170 211 262 323 381
#     4  11  23  37  64  96 125 164 212 264 315 383
#     4  12  23  40  67  96 126 164 218 264 331 372
#     4  10  23  41  64  91 126 165 212 265 316 382
#     4  10  22  40  63  91 127 167 213 260 315 378
#
# _framework density 20.458579
#
# number of rings (size 3 to 8) (size 9 to 14) (size 15 to 20)
#    0.000    1.455    1.818    3.000    2.545    1.455 
#    0.000    3.636    0.000    0.000    0.000    0.000 
#    0.000    0.000    0.000    0.000    0.000    0.000 
#
# Total GULP energy -245742.468345 kJ/mol
# GULP energy per Si atom -5585.056099 kJ/mol
# Density = 2.041201 g / cm^3
# Si number density = 20.458579 Si / 1000 Ang^3
#
#
#
# Elastic Constant Matrix: (Units=GPa)
#
#
# Indices 1 2 3 4 5 6 
#
# 1 74.4204 11.7190 29.3839 0.0000 0.0000 0.0000
# 2 11.7190 40.0319 -10.3347 0.0000 0.0000 0.0000
# 3 29.3839 -10.3347 50.4820 0.0000 0.0000 0.0000
# 4 0.0000 0.0000 0.0000 21.7077 0.0000 0.0000
# 5 0.0000 0.0000 0.0000 0.0000 24.0111 0.0000
# 6 0.0000 0.0000 0.0000 0.0000 0.0000 21.3045
#
#
#
# Elastic Compliance Matrix: (Units=1/GPa)
#
#
# Indices 1 2 3 4 5 6 
#
# 1 0.020399 -0.009541 -0.013827 0.000000 0.000000 0.000000
# 2 -0.009541 0.030837 0.011867 0.000000 0.000000 0.000000
# 3 -0.013827 0.011867 0.030286 0.000000 0.000000 0.000000
# 4 0.000000 0.000000 0.000000 0.046067 0.000000 0.000000
# 5 0.000000 0.000000 0.000000 0.000000 0.041647 0.000000
# 6 0.000000 0.000000 0.000000 0.000000 0.000000 0.046938
#
#
# Mechanical properties :
#
#
# Convention : Reuss Voigt Hill
#
# Bulk Modulus (GPa) = 17.08845 25.16342 21.12594
# Shear Modulus (GPa) = 19.32861 22.34908 20.83884
#
# Velocity S-wave (km/s) = 3.07704 3.30874 3.19499
# Velocity P-wave (km/s) = 4.58204 5.18878 4.89482
#
# Compressibility (1/GPa) = 0.05851905
#
# Stress axis : x y z
#
# Youngs Moduli (GPa) = 49.02205 32.42894 33.01802
#
# Poissons Ratio (x) = 0.30941 0.45654
# Poissons Ratio (y) = 0.46773 -0.39181
# Poissons Ratio (z) = 0.67782 -0.38482
#
# Static dielectric constant tensor:
#      x y z
#    x 1.694580 0.000000 0.000000 
#    y 0.000000 1.732540 0.000000 
#    z 0.000000 0.000000 1.715420 
# 
# From -- ./inp_files/25408.got.cif
#   From: 2010.05.17/outbox.cif.g08.bks.cpg/sg64_13_cif.got.tgz:25408.got - 2010.06.03 16:29:19.
