data_PCOD9479776
_publ_section_title
;
Structure prediction by ZEFSAII (Michael W. Deem and Ramdas Pophale) SiO2 
 PCOD9479776
Probable space group: C M C A
;
_chemical_formula_sum "Si O2"
_cell_formula_units_Z 80
_cell_length_a 23.289567
_cell_length_b 9.759704
_cell_length_c 14.435217
_cell_angle_alpha 90.000000
_cell_angle_beta 90.000000
_cell_angle_gamma 90.000000
_cell_volume 3281.114434
_symmetry_space_group_name_H-M "C M C A"
_symmetry_group_IT_number 64
_symmetry_cell_setting 'orthorhombic'
loop_
_space_group_symop_operation_xyz
x,y,z
-x,1/2-y,1/2+z
x,-y,-z
-x,1/2+y,1/2-z
-x,-y,-z
x,1/2+y,1/2-z
-x,y,z
x,1/2-y,1/2+z
1/2+x,1/2+y,z
1/2-x,-y,1/2+z
1/2+x,1/2-y,-z
1/2-x,y,1/2-z
1/2-x,1/2-y,-z
1/2+x,y,1/2-z
1/2-x,1/2+y,z
1/2+x,-y,1/2+z
loop_
_atom_site_type_symbol
_atom_site_label
_atom_site_fract_x
_atom_site_fract_y
_atom_site_fract_z
Si Si1 0.759431 0.719035 0.138616
Si Si2 0.000000 0.548899 0.859995
Si Si3 0.000000 0.731798 0.024969
Si Si4 0.387808 0.829566 0.368748
Si Si5 0.894307 0.563050 0.247196
Si Si6 0.689025 0.463456 0.406923
O O1 0.750000 0.719446 0.250000
O O2 0.821989 0.782561 0.112209
O O3 0.709218 0.810555 0.097716
O O4 0.757905 0.568398 0.095674
O O5 0.000000 0.416423 0.926211
O O6 0.946399 0.521828 0.795594
O O7 0.000000 0.690457 0.916610
O O8 0.940401 0.800508 0.060280
O O9 0.387447 0.991775 0.346080
O O10 0.400522 0.722248 0.281161
O O11 0.841470 0.507643 0.186606
O O12 0.654190 0.500000 0.500000
#
# Coordination Sequence:
#
# PCOD9479776 Si02
#       6
#    16   8   8  16  16  16
#     4  11  22  39  60  86 116 156 197 241 293 354
#     4   9  19  34  59  85 114 149 186 242 288 345
#     4   9  19  36  59  87 115 144 194 240 290 339
#     4  10  21  36  61  85 112 152 193 241 283 346
#     4  10  21  36  60  86 114 149 193 239 288 345
#     4  11  24  38  58  87 120 154 196 243 298 355
#
# _framework density 24.381959999999999
#
# number of rings (size 3 to 8) (size 9 to 14) (size 15 to 20)
#    0.000    1.800    2.000    1.800   11.200    0.000 
#    0.000    0.000    0.000    1.200    0.000    0.000 
#    0.000    0.000    0.000    0.000    0.000    0.000 
#
# Total GULP energy -223057.497362 kJ/mol
# GULP energy per Si atom -5576.437434 kJ/mol
# Density = 2.432647 g / cm^3
# Si number density = 24.381960 Si / 1000 Ang^3
#
#
#
# Elastic Constant Matrix: (Units=GPa)
#
#
# Indices 1 2 3 4 5 6 
#
# 1 69.7384 -3.5782 2.4302 0.0000 0.0000 0.0000
# 2 -3.5782 63.2907 -13.2709 0.0000 0.0000 0.0000
# 3 2.4302 -13.2709 41.1851 0.0000 0.0000 0.0000
# 4 0.0000 0.0000 0.0000 26.1142 0.0000 0.0000
# 5 0.0000 0.0000 0.0000 0.0000 6.5091 0.0000
# 6 0.0000 0.0000 0.0000 0.0000 0.0000 20.3899
#
#
#
# Elastic Compliance Matrix: (Units=1/GPa)
#
#
# Indices 1 2 3 4 5 6 
#
# 1 0.014396 0.000682 -0.000630 0.000000 0.000000 0.000000
# 2 0.000682 0.016977 0.005430 0.000000 0.000000 0.000000
# 3 -0.000630 0.005430 0.026068 0.000000 0.000000 0.000000
# 4 0.000000 0.000000 0.000000 0.038293 0.000000 0.000000
# 5 0.000000 0.000000 0.000000 0.000000 0.153631 0.000000
# 6 0.000000 0.000000 0.000000 0.000000 0.000000 0.049044
#
#
# Mechanical properties :
#
#
# Convention : Reuss Voigt Hill
#
# Bulk Modulus (GPa) = 14.61864 16.15294 15.38579
# Shear Modulus (GPa) = 16.11622 23.17820 19.64721
#
# Velocity S-wave (km/s) = 2.57376 3.08657 2.84176
# Velocity P-wave (km/s) = 3.85240 4.39794 4.13418
#
# Compressibility (1/GPa) = 0.06840580
#
# Stress axis : x y z
#
# Youngs Moduli (GPa) = 69.46261 58.90224 38.36186
#
# Poissons Ratio (x) = -0.04016 0.02416
# Poissons Ratio (y) = -0.04736 -0.20832
# Poissons Ratio (z) = 0.04375 -0.31986
#
# Static dielectric constant tensor:
#      x y z
#    x 1.938210 0.000000 0.000000 
#    y 0.000000 1.938880 0.000000 
#    z 0.000000 0.000000 2.116590 
# 
# From -- ./inp_files/27116.got.cif
#   From: 2010.05.17/outbox.cif.g08.bks.cpg/sg64_14_cif.got.tgz:27116.got - 2010.06.03 16:29:19.
