data_PCOD9479657
_publ_section_title
;
Structure prediction by ZEFSAII (Michael W. Deem and Ramdas Pophale) SiO2 
 PCOD9479657
Probable space group: C M C A
;
_chemical_formula_sum "Si O2"
_cell_formula_units_Z 120
_cell_length_a 22.373078
_cell_length_b 22.322952
_cell_length_c 13.447941
_cell_angle_alpha 90.000000
_cell_angle_beta 90.000000
_cell_angle_gamma 90.000000
_cell_volume 6716.347485
_symmetry_space_group_name_H-M "C M C A"
_symmetry_group_IT_number 64
_symmetry_cell_setting 'orthorhombic'
loop_
_space_group_symop_operation_xyz
x,y,z
-x,1/2-y,1/2+z
x,-y,-z
-x,1/2+y,1/2-z
-x,-y,-z
x,1/2+y,1/2-z
-x,y,z
x,1/2-y,1/2+z
1/2+x,1/2+y,z
1/2-x,-y,1/2+z
1/2+x,1/2-y,-z
1/2-x,y,1/2-z
1/2-x,1/2-y,-z
1/2+x,y,1/2-z
1/2-x,1/2+y,z
1/2+x,-y,1/2+z
loop_
_atom_site_type_symbol
_atom_site_label
_atom_site_fract_x
_atom_site_fract_y
_atom_site_fract_z
Si Si1 0.068776 0.341101 0.090500
Si Si2 0.663560 0.063332 0.877849
Si Si3 0.808276 0.287413 0.408932
Si Si4 0.250000 0.632463 0.750000
Si Si5 0.622470 0.243242 0.265241
Si Si6 0.933374 0.853899 0.641840
Si Si7 0.776366 0.677858 0.385360
Si Si8 0.687270 0.577007 0.394212
O O1 0.098231 0.406111 0.113441
O O2 0.103500 0.289165 0.149372
O O3 0.000000 0.340666 0.121379
O O4 0.070991 0.329412 0.971751
O O5 0.694690 0.092605 0.782847
O O6 0.677640 0.992989 0.871906
O O7 0.689778 0.082488 0.985488
O O8 0.762483 0.326597 0.344657
O O9 0.863385 0.280282 0.334887
O O10 0.816484 0.318388 0.514743
O O11 0.779001 0.221383 0.415819
O O12 0.574463 0.195026 0.228356
O O13 0.682591 0.207986 0.300740
O O14 0.873892 0.894029 0.647096
O O15 0.000000 0.881755 0.648962
O O16 0.746108 0.614158 0.361695
#
# Coordination Sequence:
#
# PCOD9479657 Si02
#       8
#    16  16  16   8  16  16  16  16
#     4  10  21  38  56  78 106 140 183 225 266 315
#     4  10  21  35  53  76 105 145 177 220 260 314
#     4  11  20  31  52  80 110 138 170 208 266 326
#     4  12  18  34  52  78 112 138 172 208 266 326
#     4  12  20  33  56  82 109 141 172 216 271 332
#     4  10  22  37  53  76 107 138 176 226 267 309
#     4  11  21  32  53  82 111 141 171 215 269 328
#     4  10  21  36  52  76 109 138 180 219 265 316
#
# _framework density 17.866852999999999
#
# number of rings (size 3 to 8) (size 9 to 14) (size 15 to 20)
#    0.000    1.333    5.333    1.200    3.733    1.600 
#    0.000    2.667    0.000    0.000    0.000    0.000 
#    0.000    1.067    0.000    0.000    0.000    0.000 
#
# Total GULP energy -334149.397925 kJ/mol
# GULP energy per Si atom -5569.156632 kJ/mol
# Density = 1.782619 g / cm^3
# Si number density = 17.866853 Si / 1000 Ang^3
#
#
#
# Elastic Constant Matrix: (Units=GPa)
#
#
# Indices 1 2 3 4 5 6 
#
# 1 74.0967 31.9735 7.9429 0.0000 0.0000 0.0000
# 2 31.9735 87.9082 20.1622 0.0000 0.0000 0.0000
# 3 7.9429 20.1622 55.7932 0.0000 0.0000 0.0000
# 4 0.0000 0.0000 0.0000 12.2788 0.0000 0.0000
# 5 0.0000 0.0000 0.0000 0.0000 19.4081 0.0000
# 6 0.0000 0.0000 0.0000 0.0000 0.0000 15.3694
#
#
#
# Elastic Compliance Matrix: (Units=1/GPa)
#
#
# Indices 1 2 3 4 5 6 
#
# 1 0.016010 -0.005779 -0.000191 0.000000 0.000000 0.000000
# 2 -0.005779 0.014490 -0.004413 0.000000 0.000000 0.000000
# 3 -0.000191 -0.004413 0.019545 0.000000 0.000000 0.000000
# 4 0.000000 0.000000 0.000000 0.081441 0.000000 0.000000
# 5 0.000000 0.000000 0.000000 0.000000 0.051525 0.000000
# 6 0.000000 0.000000 0.000000 0.000000 0.000000 0.065064
#
#
# Mechanical properties :
#
#
# Convention : Reuss Voigt Hill
#
# Bulk Modulus (GPa) = 34.15513 37.55060 35.85287
# Shear Modulus (GPa) = 17.94671 19.92589 18.93630
#
# Velocity S-wave (km/s) = 3.17278 3.34315 3.25908
# Velocity P-wave (km/s) = 5.70789 5.99706 5.85426
#
# Compressibility (1/GPa) = 0.02927818
#
# Stress axis : x y z
#
# Youngs Moduli (GPa) = 62.46027 69.01413 51.16297
#
# Poissons Ratio (x) = 0.39886 0.00976
# Poissons Ratio (y) = 0.36098 0.22581
# Poissons Ratio (z) = 0.01191 0.30459
#
# Static dielectric constant tensor:
#      x y z
#    x 1.631220 0.000000 0.000000 
#    y 0.000000 1.648830 0.000000 
#    z 0.000000 0.000000 1.644820 
# 
# From -- ./inp_files/26733.got.cif
#   From: 2010.05.17/outbox.cif.g08.bks.cpg/sg64_14_cif.got.tgz:26733.got - 2010.06.03 16:29:19.
