data_PCOD9479462
_publ_section_title
;
Structure prediction by ZEFSAII (Michael W. Deem and Ramdas Pophale) SiO2 
 PCOD9479462
Probable space group: C M C A
;
_chemical_formula_sum "Si O2"
_cell_formula_units_Z 112
_cell_length_a 18.281030
_cell_length_b 11.673907
_cell_length_c 28.175146
_cell_angle_alpha 90.000000
_cell_angle_beta 90.000000
_cell_angle_gamma 90.000000
_cell_volume 6012.887325
_symmetry_space_group_name_H-M "C M C A"
_symmetry_group_IT_number 64
_symmetry_cell_setting 'orthorhombic'
loop_
_space_group_symop_operation_xyz
x,y,z
-x,1/2-y,1/2+z
x,-y,-z
-x,1/2+y,1/2-z
-x,-y,-z
x,1/2+y,1/2-z
-x,y,z
x,1/2-y,1/2+z
1/2+x,1/2+y,z
1/2-x,-y,1/2+z
1/2+x,1/2-y,-z
1/2-x,y,1/2-z
1/2-x,1/2-y,-z
1/2+x,y,1/2-z
1/2-x,1/2+y,z
1/2+x,-y,1/2+z
loop_
_atom_site_type_symbol
_atom_site_label
_atom_site_fract_x
_atom_site_fract_y
_atom_site_fract_z
Si Si1 0.133441 0.572628 0.665134
Si Si2 0.325636 0.706640 0.582489
Si Si3 0.082511 0.172743 0.163686
Si Si4 0.665170 0.824023 0.236927
Si Si5 0.301958 0.494545 0.345421
Si Si6 0.415074 0.363444 0.507376
Si Si7 0.161942 0.717437 0.101610
O O1 0.081934 0.464003 0.662736
O O2 0.126989 0.638952 0.714724
O O3 0.215116 0.517550 0.662322
O O4 0.129802 0.666627 0.623892
O O5 0.374910 0.783283 0.617313
O O6 0.321023 0.583608 0.608883
O O7 0.363357 0.694806 0.531830
O O8 0.243490 0.755729 0.582088
O O9 0.127289 0.220831 0.208845
O O10 0.000000 0.218601 0.164681
O O11 0.750000 0.797764 0.250000
O O12 0.664400 0.931433 0.200335
O O13 0.326980 0.622348 0.357150
O O14 0.409633 0.500000 0.500000
O O15 0.500000 0.330916 0.500592
O O16 0.387552 0.330215 0.559513
#
# Coordination Sequence:
#
# PCOD9479462 Si02
#       7
#    16  16  16  16  16  16  16
#     4  10  22  36  59  87 123 161 196 248 301 353
#     4  10  20  40  63  87 119 159 202 251 301 362
#     4  11  23  39  60  88 125 159 198 246 303 367
#     4   9  21  37  63  88 116 160 205 251 292 358
#     4   9  18  36  60  92 116 149 208 252 294 347
#     4  11  23  39  61  89 121 158 201 257 315 364
#     4  11  21  38  64  92 121 158 206 259 299 360
#
# _framework density 18.626659
#
# number of rings (size 3 to 8) (size 9 to 14) (size 15 to 20)
#    0.000    1.857    2.857    1.714    2.000    1.714 
#    0.000    0.714    0.000    1.714    0.000    0.000 
#    0.000    0.000    0.000    0.000    0.000    0.000 
#
# Total GULP energy -312653.950379 kJ/mol
# GULP energy per Si atom -5583.106257 kJ/mol
# Density = 1.858426 g / cm^3
# Si number density = 18.626659 Si / 1000 Ang^3
#
#
#
# Elastic Constant Matrix: (Units=GPa)
#
#
# Indices 1 2 3 4 5 6 
#
# 1 63.8128 32.8755 31.4484 0.0000 0.0000 0.0000
# 2 32.8755 89.1583 24.7386 0.0000 0.0000 0.0000
# 3 31.4484 24.7386 87.2668 0.0000 0.0000 0.0000
# 4 0.0000 0.0000 0.0000 19.4036 0.0000 0.0000
# 5 0.0000 0.0000 0.0000 0.0000 4.8915 0.0000
# 6 0.0000 0.0000 0.0000 0.0000 0.0000 7.8844
#
#
#
# Elastic Compliance Matrix: (Units=1/GPa)
#
#
# Indices 1 2 3 4 5 6 
#
# 1 0.021982 -0.006412 -0.006104 0.000000 0.000000 0.000000
# 2 -0.006412 0.014044 -0.001670 0.000000 0.000000 0.000000
# 3 -0.006104 -0.001670 0.014132 0.000000 0.000000 0.000000
# 4 0.000000 0.000000 0.000000 0.051537 0.000000 0.000000
# 5 0.000000 0.000000 0.000000 0.000000 0.204437 0.000000
# 6 0.000000 0.000000 0.000000 0.000000 0.000000 0.126833
#
#
# Mechanical properties :
#
#
# Convention : Reuss Voigt Hill
#
# Bulk Modulus (GPa) = 45.90205 46.48474 46.19340
# Shear Modulus (GPa) = 10.67008 16.51427 13.59218
#
# Velocity S-wave (km/s) = 2.39600 2.98080 2.70426
# Velocity P-wave (km/s) = 5.68781 6.07101 5.88253
#
# Compressibility (1/GPa) = 0.02178552
#
# Stress axis : x y z
#
# Youngs Moduli (GPa) = 45.49089 71.20592 70.75923
#
# Poissons Ratio (x) = 0.45656 0.43193
# Poissons Ratio (y) = 0.29168 0.11820
# Poissons Ratio (z) = 0.27768 0.11895
#
# Static dielectric constant tensor:
#      x y z
#    x 1.628440 0.000000 0.000000 
#    y 0.000000 1.649100 0.000000 
#    z 0.000000 0.000000 1.617340 
# 
# From -- ./inp_files/50861.got.cif
#   From: 2010.05.17/outbox.cif.g08.bks.cpg/sg64_26_cif.got.tgz:50861.got - 2010.06.03 16:29:19.
