data_PCOD9479110
_publ_section_title
;
Structure prediction by ZEFSAII (Michael W. Deem and Ramdas Pophale) SiO2 
 PCOD9479110
Probable space group: C M C A
;
_chemical_formula_sum "Si O2"
_cell_formula_units_Z 112
_cell_length_a 15.251535
_cell_length_b 14.394504
_cell_length_c 27.720893
_cell_angle_alpha 90.000000
_cell_angle_beta 90.000000
_cell_angle_gamma 90.000000
_cell_volume 6085.797213
_symmetry_space_group_name_H-M "C M C A"
_symmetry_group_IT_number 64
_symmetry_cell_setting 'orthorhombic'
loop_
_space_group_symop_operation_xyz
x,y,z
-x,1/2-y,1/2+z
x,-y,-z
-x,1/2+y,1/2-z
-x,-y,-z
x,1/2+y,1/2-z
-x,y,z
x,1/2-y,1/2+z
1/2+x,1/2+y,z
1/2-x,-y,1/2+z
1/2+x,1/2-y,-z
1/2-x,y,1/2-z
1/2-x,1/2-y,-z
1/2+x,y,1/2-z
1/2-x,1/2+y,z
1/2+x,-y,1/2+z
loop_
_atom_site_type_symbol
_atom_site_label
_atom_site_fract_x
_atom_site_fract_y
_atom_site_fract_z
Si Si1 0.750674 0.390739 0.098377
Si Si2 0.602620 0.944335 0.799657
Si Si3 0.245085 0.400538 0.874249
Si Si4 0.687673 0.734391 0.045299
Si Si5 0.602236 0.847078 0.695873
Si Si6 0.600349 0.399770 0.021809
Si Si7 0.808809 0.647222 0.797748
O O1 0.766146 0.500112 0.100719
O O2 0.826938 0.332895 0.071086
O O3 0.663331 0.376360 0.066681
O O4 0.750058 0.356870 0.153671
O O5 0.500000 0.942046 0.812283
O O6 0.663360 0.890840 0.838137
O O7 0.613805 0.896414 0.747601
O O8 0.636515 0.050938 0.797404
O O9 0.259751 0.324193 0.914837
O O10 0.333039 0.396844 0.841779
O O11 0.750000 0.750000 0.000000
O O12 0.610949 0.673599 0.022042
O O13 0.500000 0.853236 0.682101
O O14 0.632187 0.739650 0.699410
O O15 0.500000 0.404772 0.037484
O O16 0.626556 0.500000 0.000000
O O17 0.750000 0.651161 0.750000
#
# Coordination Sequence:
#
# PCOD9479110 Si02
#       7
#    16  16  16  16  16  16  16
#     4  10  21  37  59  89 116 162 198 246 304 372
#     4  10  22  39  58  86 122 163 204 251 300 356
#     4  11  20  38  61  86 121 159 201 249 308 365
#     4  10  21  37  58  85 117 152 198 239 308 371
#     4  11  23  38  60  90 124 160 206 254 303 365
#     4  10  20  37  61  91 123 153 198 261 315 360
#     4  11  21  38  64  89 123 162 207 243 306 372
#
# _framework density 18.403507000000001
#
# number of rings (size 3 to 8) (size 9 to 14) (size 15 to 20)
#    0.000    1.571    2.857    3.429    0.000    1.143 
#    0.000    5.000    0.000    0.000    0.000    8.000 
#    0.000    0.000    0.000    0.000    0.000    0.000 
#
# Total GULP energy -312332.099006 kJ/mol
# GULP energy per Si atom -5577.358911 kJ/mol
# Density = 1.836162 g / cm^3
# Si number density = 18.403507 Si / 1000 Ang^3
#
#
#
# Elastic Constant Matrix: (Units=GPa)
#
#
# Indices 1 2 3 4 5 6 
#
# 1 90.2617 38.1673 61.1756 0.0000 0.0000 0.0000
# 2 38.1673 86.1672 37.2632 0.0000 0.0000 0.0000
# 3 61.1756 37.2632 115.1568 0.0000 0.0000 0.0000
# 4 0.0000 0.0000 0.0000 37.0216 0.0000 0.0000
# 5 0.0000 0.0000 0.0000 0.0000 23.2240 0.0000
# 6 0.0000 0.0000 0.0000 0.0000 0.0000 -322.3366
#
#
#
# Elastic Compliance Matrix: (Units=1/GPa)
#
#
# Indices 1 2 3 4 5 6 
#
# 1 0.018794 -0.004659 -0.008476 0.000000 0.000000 0.000000
# 2 -0.004659 0.014649 -0.002265 0.000000 0.000000 0.000000
# 3 -0.008476 -0.002265 0.013920 0.000000 0.000000 0.000000
# 4 0.000000 0.000000 0.000000 0.027011 0.000000 0.000000
# 5 0.000000 0.000000 0.000000 0.000000 0.043059 0.000000
# 6 0.000000 0.000000 0.000000 0.000000 0.000000 -0.003102
#
#
# Mechanical properties :
#
#
# Convention : Reuss Voigt Hill
#
# Bulk Modulus (GPa) = 60.38191 62.75533 61.56862
# Shear Modulus (GPa) = 33.18919 -42.08622 -4.44852
#
# Velocity S-wave (km/s) = 4.25127 -4.78730 -1.55643
# Velocity P-wave (km/s) = 7.54844 1.90159 5.50432
#
# Compressibility (1/GPa) = 0.01656125
#
# Stress axis : x y z
#
# Youngs Moduli (GPa) = 53.20863 68.26618 71.84040
#
# Poissons Ratio (x) = 0.31805 0.60895
# Poissons Ratio (y) = 0.24790 0.16272
# Poissons Ratio (z) = 0.45102 0.15462
#
# Static dielectric constant tensor:
#      x y z
#    x 1.638060 0.000000 0.000000 
#    y 0.000000 1.677230 0.000000 
#    z 0.000000 0.000000 1.629320 
# 
# From -- ./inp_files/50089.got.cif
#   From: 2010.05.17/outbox.cif.g08.bks.cpg/sg64_26_cif.got.tgz:50089.got - 2010.06.03 16:29:19.
