data_PCOD9479402
_publ_section_title
;
Structure prediction by ZEFSAII (Michael W. Deem and Ramdas Pophale) SiO2 
 PCOD9479402
Probable space group: C M C A
;
_chemical_formula_sum "Si O2"
_cell_formula_units_Z 80
_cell_length_a 26.485853
_cell_length_b 13.894867
_cell_length_c 12.739462
_cell_angle_alpha 90.000000
_cell_angle_beta 90.000000
_cell_angle_gamma 90.000000
_cell_volume 4688.343744
_symmetry_space_group_name_H-M "C M C A"
_symmetry_group_IT_number 64
_symmetry_cell_setting 'orthorhombic'
loop_
_space_group_symop_operation_xyz
x,y,z
-x,1/2-y,1/2+z
x,-y,-z
-x,1/2+y,1/2-z
-x,-y,-z
x,1/2+y,1/2-z
-x,y,z
x,1/2-y,1/2+z
1/2+x,1/2+y,z
1/2-x,-y,1/2+z
1/2+x,1/2-y,-z
1/2-x,y,1/2-z
1/2-x,1/2-y,-z
1/2+x,y,1/2-z
1/2-x,1/2+y,z
1/2+x,-y,1/2+z
loop_
_atom_site_type_symbol
_atom_site_label
_atom_site_fract_x
_atom_site_fract_y
_atom_site_fract_z
Si Si1 0.808969 0.433746 0.767615
Si Si2 0.859300 0.130524 0.792174
Si Si3 0.301642 0.232042 0.063147
Si Si4 0.056214 0.611190 0.528613
Si Si5 0.628479 0.288415 0.876847
O O1 0.750000 0.455115 0.750000
O O2 0.840135 0.533067 0.763030
O O3 0.807960 0.366765 0.871776
O O4 0.834310 0.367927 0.675912
O O5 0.812748 0.182042 0.853825
O O6 0.903025 0.116220 0.878035
O O7 0.879769 0.207768 0.709776
O O8 0.250000 0.250000 0.000000
O O9 0.343755 0.239195 0.974372
O O10 0.052729 0.500000 0.500000
O O11 0.079124 0.664080 0.426753
O O12 0.000000 0.647042 0.556062
#
# Coordination Sequence:
#
# PCOD9479402 Si02
#       5
#    16  16  16  16  16
#     4  11  21  34  55  81 119 159 193 232 283 337
#     4  10  23  36  57  85 118 147 195 239 289 352
#     4  10  21  36  53  79 116 157 197 231 281 346
#     4  10  20  39  65  85 108 149 195 245 297 343
#     4  10  21  39  55  84 116 148 194 242 279 353
#
# _framework density 17.063594999999999
#
# number of rings (size 3 to 8) (size 9 to 14) (size 15 to 20)
#    0.000    1.800    4.000    0.000    2.800    1.600 
#    0.000    0.000    0.000    0.000    0.000    5.600 
#    0.000    0.000    0.000    0.000    0.000    0.000 
#
# Total GULP energy -222875.342235 kJ/mol
# GULP energy per Si atom -5571.883556 kJ/mol
# Density = 1.702476 g / cm^3
# Si number density = 17.063595 Si / 1000 Ang^3
#
#
#
# Elastic Constant Matrix: (Units=GPa)
#
#
# Indices 1 2 3 4 5 6 
#
# 1 103.2398 56.7854 33.7142 0.0000 0.0000 0.0000
# 2 56.7854 108.4346 56.9272 0.0000 0.0000 0.0000
# 3 33.7142 56.9272 80.2921 0.0000 0.0000 0.0000
# 4 0.0000 0.0000 0.0000 27.1822 0.0000 0.0000
# 5 0.0000 0.0000 0.0000 0.0000 14.7577 0.0000
# 6 0.0000 0.0000 0.0000 0.0000 0.0000 10.3761
#
#
#
# Elastic Compliance Matrix: (Units=1/GPa)
#
#
# Indices 1 2 3 4 5 6 
#
# 1 0.013661 -0.006599 -0.001058 0.000000 0.000000 0.000000
# 2 -0.006599 0.017878 -0.009904 0.000000 0.000000 0.000000
# 3 -0.001058 -0.009904 0.019921 0.000000 0.000000 0.000000
# 4 0.000000 0.000000 0.000000 0.036789 0.000000 0.000000
# 5 0.000000 0.000000 0.000000 0.000000 0.067761 0.000000
# 6 0.000000 0.000000 0.000000 0.000000 0.000000 0.096375
#
#
# Mechanical properties :
#
#
# Convention : Reuss Voigt Hill
#
# Bulk Modulus (GPa) = 61.20780 65.20223 63.20501
# Shear Modulus (GPa) = 17.06763 20.09919 18.58341
#
# Velocity S-wave (km/s) = 3.16608 3.43578 3.30368
# Velocity P-wave (km/s) = 7.02237 7.35076 7.18844
#
# Compressibility (1/GPa) = 0.01633779
#
# Stress axis : x y z
#
# Youngs Moduli (GPa) = 73.20014 55.93587 50.19863
#
# Poissons Ratio (x) = 0.36911 0.05309
# Poissons Ratio (y) = 0.48304 0.49719
# Poissons Ratio (z) = 0.07742 0.55401
#
# Static dielectric constant tensor:
#      x y z
#    x 1.585760 0.000000 0.000000 
#    y 0.000000 1.586800 0.000000 
#    z 0.000000 0.000000 1.579180 
# 
# From -- ./inp_files/18035.got.cif
#   From: 2010.05.17/outbox.cif.g08.bks.cpg/sg64_10_cif.got.tgz:18035.got - 2010.06.03 16:29:19.
