data_PCOD9479476
_publ_section_title
;
Structure prediction by ZEFSAII (Michael W. Deem and Ramdas Pophale) SiO2 
 PCOD9479476
Probable space group: C M C A
;
_chemical_formula_sum "Si O2"
_cell_formula_units_Z 96
_cell_length_a 24.412280
_cell_length_b 11.468237
_cell_length_c 14.366135
_cell_angle_alpha 90.000000
_cell_angle_beta 90.000000
_cell_angle_gamma 90.000000
_cell_volume 4022.026661
_symmetry_space_group_name_H-M "C M C A"
_symmetry_group_IT_number 64
_symmetry_cell_setting 'orthorhombic'
loop_
_space_group_symop_operation_xyz
x,y,z
-x,1/2-y,1/2+z
x,-y,-z
-x,1/2+y,1/2-z
-x,-y,-z
x,1/2+y,1/2-z
-x,y,z
x,1/2-y,1/2+z
1/2+x,1/2+y,z
1/2-x,-y,1/2+z
1/2+x,1/2-y,-z
1/2-x,y,1/2-z
1/2-x,1/2-y,-z
1/2+x,y,1/2-z
1/2-x,1/2+y,z
1/2+x,-y,1/2+z
loop_
_atom_site_type_symbol
_atom_site_label
_atom_site_fract_x
_atom_site_fract_y
_atom_site_fract_z
Si Si1 0.347824 0.823410 0.138428
Si Si2 0.868991 0.716138 0.157612
Si Si3 0.937277 0.060460 0.859801
Si Si4 0.160686 0.415214 0.585909
Si Si5 0.223163 0.036738 0.390062
Si Si6 0.939406 0.514644 0.858201
O O1 0.359470 0.755596 0.234986
O O2 0.331499 0.721140 0.068953
O O3 0.305121 0.925617 0.157562
O O4 0.399305 0.892451 0.095158
O O5 0.898740 0.829733 0.113243
O O6 0.812697 0.653926 0.124741
O O7 0.912448 0.611677 0.147325
O O8 0.941751 0.059999 0.748266
O O9 0.000000 0.062363 0.896278
O O10 0.900619 0.946530 0.881183
O O11 0.167133 0.500000 0.500000
O O12 0.214720 0.447290 0.645202
O O13 0.221249 0.000000 0.500000
O O14 0.000000 0.511793 0.896102
#
# Coordination Sequence:
#
# PCOD9479476 Si02
#       6
#    16  16  16  16  16  16
#     4  10  22  41  60  97 122 162 217 267 318 375
#     4  10  20  40  64  94 123 162 213 264 310 376
#     4  10  21  37  60  89 122 159 205 261 313 372
#     4  11  25  41  62  89 126 170 210 257 326 383
#     4  10  25  43  65  90 130 176 209 259 328 394
#     4   9  18  37  63  89 122 162 206 258 319 376
#
# _framework density 23.868563999999999
#
# number of rings (size 3 to 8) (size 9 to 14) (size 15 to 20)
#    0.000    2.000    1.667    0.500    4.667    3.667 
#    3.000    0.000    0.000    2.500    0.000    0.000 
#    0.000    0.000    0.000    0.000    0.000    0.000 
#
# Total GULP energy -267902.356791 kJ/mol
# GULP energy per Si atom -5581.299100 kJ/mol
# Density = 2.381424 g / cm^3
# Si number density = 23.868564 Si / 1000 Ang^3
#
#
#
# Elastic Constant Matrix: (Units=GPa)
#
#
# Indices 1 2 3 4 5 6 
#
# 1 157.5341 56.4182 14.2347 0.0000 0.0000 0.0000
# 2 56.4182 149.3709 26.1002 0.0000 0.0000 0.0000
# 3 14.2347 26.1002 48.5526 0.0000 0.0000 0.0000
# 4 0.0000 0.0000 0.0000 29.5394 0.0000 0.0000
# 5 0.0000 0.0000 0.0000 0.0000 8.7225 0.0000
# 6 0.0000 0.0000 0.0000 0.0000 0.0000 19.5668
#
#
#
# Elastic Compliance Matrix: (Units=1/GPa)
#
#
# Indices 1 2 3 4 5 6 
#
# 1 0.007364 -0.002654 -0.000733 0.000000 0.000000 0.000000
# 2 -0.002654 0.008345 -0.003708 0.000000 0.000000 0.000000
# 3 -0.000733 -0.003708 0.022804 0.000000 0.000000 0.000000
# 4 0.000000 0.000000 0.000000 0.033853 0.000000 0.000000
# 5 0.000000 0.000000 0.000000 0.000000 0.114646 0.000000
# 6 0.000000 0.000000 0.000000 0.000000 0.000000 0.051107
#
#
# Mechanical properties :
#
#
# Convention : Reuss Voigt Hill
#
# Bulk Modulus (GPa) = 41.10952 60.99597 51.05275
# Shear Modulus (GPa) = 19.20004 28.81270 24.00637
#
# Velocity S-wave (km/s) = 2.83928 3.47816 3.17483
# Velocity P-wave (km/s) = 5.29239 6.46069 5.90550
#
# Compressibility (1/GPa) = 0.02432527
#
# Stress axis : x y z
#
# Youngs Moduli (GPa) = 135.78925 119.83355 43.85139
#
# Poissons Ratio (x) = 0.31798 0.03213
# Poissons Ratio (y) = 0.36032 0.16260
# Poissons Ratio (z) = 0.09948 0.44434
#
# Static dielectric constant tensor:
#      x y z
#    x 1.953060 0.000000 0.000000 
#    y 0.000000 1.865360 0.000000 
#    z 0.000000 0.000000 2.026150 
# 
# From -- ./inp_files/34946.got.cif
#   From: 2010.05.17/outbox.cif.g08.bks.cpg/sg64_18_cif.got.tgz:34946.got - 2010.06.03 16:29:19.
