data_PCOD9479005
_publ_section_title
;
Structure prediction by ZEFSAII (Michael W. Deem and Ramdas Pophale) SiO2 
 PCOD9479005
Probable space group: C M C A
;
_chemical_formula_sum "Si O2"
_cell_formula_units_Z 88
_cell_length_a 18.295137
_cell_length_b 30.325001
_cell_length_c 7.825162
_cell_angle_alpha 90.000000
_cell_angle_beta 90.000000
_cell_angle_gamma 90.000000
_cell_volume 4341.400252
_symmetry_space_group_name_H-M "C M C A"
_symmetry_group_IT_number 64
_symmetry_cell_setting 'orthorhombic'
loop_
_space_group_symop_operation_xyz
x,y,z
-x,1/2-y,1/2+z
x,-y,-z
-x,1/2+y,1/2-z
-x,-y,-z
x,1/2+y,1/2-z
-x,y,z
x,1/2-y,1/2+z
1/2+x,1/2+y,z
1/2-x,-y,1/2+z
1/2+x,1/2-y,-z
1/2-x,y,1/2-z
1/2-x,1/2-y,-z
1/2+x,y,1/2-z
1/2-x,1/2+y,z
1/2+x,-y,1/2+z
loop_
_atom_site_type_symbol
_atom_site_label
_atom_site_fract_x
_atom_site_fract_y
_atom_site_fract_z
Si Si1 0.801499 0.435010 0.529309
Si Si2 0.583797 0.607851 0.796060
Si Si3 0.793694 0.641105 0.928270
Si Si4 0.250000 0.002544 0.750000
Si Si5 0.328172 0.779534 0.827486
Si Si6 0.415582 0.700377 0.998330
O O1 0.873985 0.425907 0.420540
O O2 0.759105 0.388854 0.546285
O O3 0.747567 0.463395 0.406293
O O4 0.811318 0.466706 0.692209
O O5 0.500000 0.596103 0.762450
O O6 0.632754 0.615743 0.628080
O O7 0.585345 0.654669 0.895978
O O8 0.750000 0.647576 0.750000
O O9 0.813160 0.686217 0.020565
O O10 0.250000 0.766546 0.750000
O O11 0.375359 0.802882 0.679705
O O12 0.372283 0.737512 0.893779
O O13 0.500000 0.713712 0.022152
#
# Coordination Sequence:
#
# PCOD9479005 Si02
#       6
#    16  16  16   8  16  16
#     4  10  20  38  62  92 114 153 193 244 300 361
#     4  10  21  40  61  86 123 161 199 243 295 362
#     4  10  21  39  60  87 123 155 200 250 303 351
#     4  10  20  36  66  86 118 144 194 238 310 358
#     4  12  24  38  62  90 120 159 213 263 292 344
#     4  11  25  41  58  85 125 166 203 243 306 363
#
# _framework density 20.269959
#
# number of rings (size 3 to 8) (size 9 to 14) (size 15 to 20)
#    0.000    1.455    2.727    4.364    3.818    5.818 
#    0.000    1.818    0.000    2.182    0.000    0.000 
#    0.000    0.000    0.000    0.000    0.000    0.000 
#
# Total GULP energy -245563.134647 kJ/mol
# GULP energy per Si atom -5580.980333 kJ/mol
# Density = 2.022382 g / cm^3
# Si number density = 20.269959 Si / 1000 Ang^3
#
#
#
# Elastic Constant Matrix: (Units=GPa)
#
#
# Indices 1 2 3 4 5 6 
#
# 1 153.2035 31.0875 35.7328 0.0000 0.0000 0.0000
# 2 31.0875 73.2296 13.2318 0.0000 0.0000 0.0000
# 3 35.7328 13.2318 39.0001 0.0000 0.0000 0.0000
# 4 0.0000 0.0000 0.0000 24.1527 0.0000 0.0000
# 5 0.0000 0.0000 0.0000 0.0000 20.1851 0.0000
# 6 0.0000 0.0000 0.0000 0.0000 0.0000 -5.3390
#
#
#
# Elastic Compliance Matrix: (Units=1/GPa)
#
#
# Indices 1 2 3 4 5 6 
#
# 1 0.008678 -0.002394 -0.007139 0.000000 0.000000 0.000000
# 2 -0.002394 0.015208 -0.002966 0.000000 0.000000 0.000000
# 3 -0.007139 -0.002966 0.033188 0.000000 0.000000 0.000000
# 4 0.000000 0.000000 0.000000 0.041403 0.000000 0.000000
# 5 0.000000 0.000000 0.000000 0.000000 0.049542 0.000000
# 6 0.000000 0.000000 0.000000 0.000000 0.000000 -0.187301
#
#
# Mechanical properties :
#
#
# Convention : Reuss Voigt Hill
#
# Bulk Modulus (GPa) = 31.17599 47.28195 39.22897
# Shear Modulus (GPa) = -1392.07917 20.15850 -685.96034
#
# Velocity S-wave (km/s) = -26.23472 3.15699 -18.41594
# Velocity P-wave (km/s) = 30.03776 6.05521 20.80386
#
# Compressibility (1/GPa) = 0.03207596
#
# Stress axis : x y z
#
# Youngs Moduli (GPa) = 115.23234 65.75494 30.13134
#
# Poissons Ratio (x) = 0.15743 0.21510
# Poissons Ratio (y) = 0.27588 0.08937
# Poissons Ratio (z) = 0.82262 0.19504
#
# Static dielectric constant tensor:
#      x y z
#    x 1.717880 0.000000 0.000000 
#    y 0.000000 1.741690 0.000000 
#    z 0.000000 0.000000 1.811430 
# 
# From -- ./inp_files/7343.got.cif
#   From: 2010.05.17/outbox.cif.g08.bks.cpg/sg64_4_cif.got.tgz:7343.got - 2010.06.03 16:29:19.
