data_PCOD9479198
_publ_section_title
;
Structure prediction by ZEFSAII (Michael W. Deem and Ramdas Pophale) SiO2 
 PCOD9479198
Probable space group: C M C A
;
_chemical_formula_sum "Si O2"
_cell_formula_units_Z 112
_cell_length_a 24.944771
_cell_length_b 17.052628
_cell_length_c 14.647247
_cell_angle_alpha 90.000000
_cell_angle_beta 90.000000
_cell_angle_gamma 90.000000
_cell_volume 6230.556587
_symmetry_space_group_name_H-M "C M C A"
_symmetry_group_IT_number 64
_symmetry_cell_setting 'orthorhombic'
loop_
_space_group_symop_operation_xyz
x,y,z
-x,1/2-y,1/2+z
x,-y,-z
-x,1/2+y,1/2-z
-x,-y,-z
x,1/2+y,1/2-z
-x,y,z
x,1/2-y,1/2+z
1/2+x,1/2+y,z
1/2-x,-y,1/2+z
1/2+x,1/2-y,-z
1/2-x,y,1/2-z
1/2-x,1/2-y,-z
1/2+x,y,1/2-z
1/2-x,1/2+y,z
1/2+x,-y,1/2+z
loop_
_atom_site_type_symbol
_atom_site_label
_atom_site_fract_x
_atom_site_fract_y
_atom_site_fract_z
Si Si1 0.638819 0.919628 0.280048
Si Si2 0.561543 0.024075 0.394090
Si Si3 0.188072 0.250237 0.776408
Si Si4 0.767653 0.034319 0.152829
Si Si5 0.849991 0.844863 0.899134
Si Si6 0.690807 0.284068 0.519447
Si Si7 0.163836 0.552638 0.922796
O O1 0.589303 0.955165 0.335510
O O2 0.654650 0.829374 0.290502
O O3 0.690265 0.967741 0.317314
O O4 0.633091 0.936367 0.172199
O O5 0.500000 0.036692 0.367140
O O6 0.563275 0.000000 0.500000
O O7 0.597854 0.101933 0.386694
O O8 0.250000 0.231116 0.750000
O O9 0.162614 0.297663 0.693172
O O10 0.186579 0.295746 0.872337
O O11 0.750000 0.072035 0.250000
O O12 0.717405 0.995362 0.104485
O O13 0.799912 0.095101 0.090788
O O14 0.849016 0.783265 0.981442
O O15 0.750000 0.250000 0.500000
O O16 0.679777 0.363309 0.464125
O O17 0.135774 0.500000 0.000000
#
# Coordination Sequence:
#
# PCOD9479198 Si02
#       7
#    16  16  16  16  16  16  16
#     4  10  20  38  58  84 118 156 196 247 300 352
#     4  10  23  44  69  89 107 143 206 268 311 352
#     4  12  22  35  54  88 133 164 195 235 290 370
#     4   9  19  32  51  76 116 159 199 232 275 348
#     4  11  22  37  58  86 119 158 196 250 303 348
#     4  12  22  33  54  83 124 168 198 235 290 359
#     4  11  22  33  51  83 121 167 202 230 281 368
#
# _framework density 17.975922000000001
#
# number of rings (size 3 to 8) (size 9 to 14) (size 15 to 20)
#    0.000    1.286    2.857    4.286    6.000    3.429 
#    0.000    0.714    0.000    1.286    0.000    0.000 
#    0.000    0.000    0.000    0.000    0.000    0.000 
#
# Total GULP energy -312977.881120 kJ/mol
# GULP energy per Si atom -5588.890734 kJ/mol
# Density = 1.793501 g / cm^3
# Si number density = 17.975922 Si / 1000 Ang^3
#
#
#
# Elastic Constant Matrix: (Units=GPa)
#
#
# Indices 1 2 3 4 5 6 
#
# 1 95.2547 37.9704 28.0530 0.0000 0.0000 0.0000
# 2 37.9704 98.6976 26.7987 0.0000 0.0000 0.0000
# 3 28.0530 26.7987 108.4937 0.0000 0.0000 0.0000
# 4 0.0000 0.0000 0.0000 32.1142 0.0000 0.0000
# 5 0.0000 0.0000 0.0000 0.0000 13.8196 0.0000
# 6 0.0000 0.0000 0.0000 0.0000 0.0000 13.1470
#
#
#
# Elastic Compliance Matrix: (Units=1/GPa)
#
#
# Indices 1 2 3 4 5 6 
#
# 1 0.012897 -0.004348 -0.002261 0.000000 0.000000 0.000000
# 2 -0.004348 0.012326 -0.001920 0.000000 0.000000 0.000000
# 3 -0.002261 -0.001920 0.010276 0.000000 0.000000 0.000000
# 4 0.000000 0.000000 0.000000 0.031139 0.000000 0.000000
# 5 0.000000 0.000000 0.000000 0.000000 0.072361 0.000000
# 6 0.000000 0.000000 0.000000 0.000000 0.000000 0.076063
#
#
# Mechanical properties :
#
#
# Convention : Reuss Voigt Hill
#
# Bulk Modulus (GPa) = 54.22676 54.23224 54.22950
# Shear Modulus (GPa) = 20.98485 25.79109 23.38797
#
# Velocity S-wave (km/s) = 3.42041 3.79193 3.61095
# Velocity P-wave (km/s) = 6.76984 7.02898 6.90063
#
# Compressibility (1/GPa) = 0.01844108
#
# Stress axis : x y z
#
# Youngs Moduli (GPa) = 77.53664 81.12882 97.31361
#
# Poissons Ratio (x) = 0.35274 0.22001
# Poissons Ratio (y) = 0.33712 0.18688
# Poissons Ratio (z) = 0.17530 0.15580
#
# Static dielectric constant tensor:
#      x y z
#    x 1.578420 0.000000 0.000000 
#    y 0.000000 1.639730 0.000000 
#    z 0.000000 0.000000 1.653180 
# 
# From -- ./inp_files/28085.got.cif
#   From: 2010.05.17/outbox.cif.g08.bks.cpg/sg64_15_cif.got.tgz:28085.got - 2010.06.03 16:29:19.
