data_PCOD9479634
_publ_section_title
;
Structure prediction by ZEFSAII (Michael W. Deem and Ramdas Pophale) SiO2 
 PCOD9479634
Probable space group: C M C A
;
_chemical_formula_sum "Si O2"
_cell_formula_units_Z 96
_cell_length_a 23.251283
_cell_length_b 13.816318
_cell_length_c 15.762650
_cell_angle_alpha 90.000000
_cell_angle_beta 90.000000
_cell_angle_gamma 90.000000
_cell_volume 5063.705913
_symmetry_space_group_name_H-M "C M C A"
_symmetry_group_IT_number 64
_symmetry_cell_setting 'orthorhombic'
loop_
_space_group_symop_operation_xyz
x,y,z
-x,1/2-y,1/2+z
x,-y,-z
-x,1/2+y,1/2-z
-x,-y,-z
x,1/2+y,1/2-z
-x,y,z
x,1/2-y,1/2+z
1/2+x,1/2+y,z
1/2-x,-y,1/2+z
1/2+x,1/2-y,-z
1/2-x,y,1/2-z
1/2-x,1/2-y,-z
1/2+x,y,1/2-z
1/2-x,1/2+y,z
1/2+x,-y,1/2+z
loop_
_atom_site_type_symbol
_atom_site_label
_atom_site_fract_x
_atom_site_fract_y
_atom_site_fract_z
Si Si1 0.274663 0.140844 0.845286
Si Si2 0.166997 0.672030 0.302009
Si Si3 0.433206 0.438258 0.874065
Si Si4 0.567856 0.147110 0.564030
Si Si5 0.675301 0.726553 0.394276
Si Si6 0.755184 0.446375 0.919671
O O1 0.250000 0.133416 0.750000
O O2 0.324194 0.221840 0.843202
O O3 0.221681 0.186992 0.898156
O O4 0.288740 0.033530 0.874110
O O5 0.105680 0.623577 0.312367
O O6 0.178867 0.687404 0.202744
O O7 0.210080 0.602380 0.355050
O O8 0.500000 0.434115 0.851997
O O9 0.417161 0.551592 0.880545
O O10 0.426542 0.390234 0.967275
O O11 0.500000 0.170648 0.577595
O O12 0.613192 0.231511 0.583061
O O13 0.700396 0.637137 0.447524
O O14 0.726583 0.500000 0.000000
#
# Coordination Sequence:
#
# PCOD9479634 Si02
#       6
#    16  16  16  16  16  16
#     4   9  19  35  51  74 110 145 174 218 276 331
#     4  10  21  34  56  81 110 148 181 232 279 332
#     4   9  19  35  58  86 111 139 183 235 279 325
#     4   9  19  35  58  83 109 142 182 233 283 325
#     4  10  21  36  55  79 112 147 184 227 281 332
#     4  11  23  33  53  83 111 147 185 229 274 334
#
# _framework density 18.958448000000001
#
# number of rings (size 3 to 8) (size 9 to 14) (size 15 to 20)
#    0.000    2.333    0.000    4.500    7.000    3.333 
#    0.000    0.000    0.000    1.500    0.000    0.000 
#    0.000    0.000    0.000    0.000    0.000    0.000 
#
# Total GULP energy -267763.640737 kJ/mol
# GULP energy per Si atom -5578.409182 kJ/mol
# Density = 1.891530 g / cm^3
# Si number density = 18.958448 Si / 1000 Ang^3
#
#
#
# Elastic Constant Matrix: (Units=GPa)
#
#
# Indices 1 2 3 4 5 6 
#
# 1 69.1235 48.3739 20.8305 0.0000 0.0000 0.0000
# 2 48.3739 120.6953 33.5958 0.0000 0.0000 0.0000
# 3 20.8305 33.5958 45.0006 0.0000 0.0000 0.0000
# 4 0.0000 0.0000 0.0000 24.9056 0.0000 0.0000
# 5 0.0000 0.0000 0.0000 0.0000 24.2942 0.0000
# 6 0.0000 0.0000 0.0000 0.0000 0.0000 31.9966
#
#
#
# Elastic Compliance Matrix: (Units=1/GPa)
#
#
# Indices 1 2 3 4 5 6 
#
# 1 0.020741 -0.007120 -0.004285 0.000000 0.000000 0.000000
# 2 -0.007120 0.012903 -0.006337 0.000000 0.000000 0.000000
# 3 -0.004285 -0.006337 0.028937 0.000000 0.000000 0.000000
# 4 0.000000 0.000000 0.000000 0.040152 0.000000 0.000000
# 5 0.000000 0.000000 0.000000 0.000000 0.041162 0.000000
# 6 0.000000 0.000000 0.000000 0.000000 0.000000 0.031253
#
#
# Mechanical properties :
#
#
# Convention : Reuss Voigt Hill
#
# Bulk Modulus (GPa) = 36.90620 48.93553 42.92087
# Shear Modulus (GPa) = 22.76204 25.04057 23.90130
#
# Velocity S-wave (km/s) = 3.46877 3.63824 3.55451
# Velocity P-wave (km/s) = 5.96257 6.59675 6.28766
#
# Compressibility (1/GPa) = 0.02709572
#
# Stress axis : x y z
#
# Youngs Moduli (GPa) = 48.21373 77.50185 34.55838
#
# Poissons Ratio (x) = 0.55182 0.14809
# Poissons Ratio (y) = 0.34328 0.21900
# Poissons Ratio (z) = 0.20661 0.49113
#
# Static dielectric constant tensor:
#      x y z
#    x 1.649760 0.000000 0.000000 
#    y 0.000000 1.694270 0.000000 
#    z 0.000000 0.000000 1.727170 
# 
# From -- ./inp_files/34936.got.cif
#   From: 2010.05.17/outbox.cif.g08.bks.cpg/sg64_18_cif.got.tgz:34936.got - 2010.06.03 16:29:19.
