data_PCOD9479955
_publ_section_title
;
Structure prediction by ZEFSAII (Michael W. Deem and Ramdas Pophale) SiO2 
 PCOD9479955
Probable space group: C M C A
;
_chemical_formula_sum "Si O2"
_cell_formula_units_Z 112
_cell_length_a 14.358612
_cell_length_b 23.566977
_cell_length_c 14.621737
_cell_angle_alpha 90.000000
_cell_angle_beta 90.000000
_cell_angle_gamma 90.000000
_cell_volume 4947.836113
_symmetry_space_group_name_H-M "C M C A"
_symmetry_group_IT_number 64
_symmetry_cell_setting 'orthorhombic'
loop_
_space_group_symop_operation_xyz
x,y,z
-x,1/2-y,1/2+z
x,-y,-z
-x,1/2+y,1/2-z
-x,-y,-z
x,1/2+y,1/2-z
-x,y,z
x,1/2-y,1/2+z
1/2+x,1/2+y,z
1/2-x,-y,1/2+z
1/2+x,1/2-y,-z
1/2-x,y,1/2-z
1/2-x,1/2-y,-z
1/2+x,y,1/2-z
1/2-x,1/2+y,z
1/2+x,-y,1/2+z
loop_
_atom_site_type_symbol
_atom_site_label
_atom_site_fract_x
_atom_site_fract_y
_atom_site_fract_z
Si Si1 0.608517 0.230236 0.207220
Si Si2 0.703210 0.075121 0.928349
Si Si3 0.113222 0.954204 0.611337
Si Si4 0.892566 0.889340 0.997353
Si Si5 0.894230 0.175495 0.669239
Si Si6 0.639639 0.254287 0.002960
Si Si7 0.112737 0.385418 0.709742
O O1 0.500000 0.232410 0.232354
O O2 0.644020 0.290215 0.243714
O O3 0.612776 0.225542 0.098762
O O4 0.647761 0.176932 0.262051
O O5 0.668276 0.123660 0.861329
O O6 0.664629 0.014385 0.897188
O O7 0.652057 0.083200 0.027060
O O8 0.813939 0.081198 0.941335
O O9 0.137835 0.926757 0.708128
O O10 0.000000 0.959612 0.603516
O O11 0.862908 0.902242 0.892633
O O12 0.000000 0.906697 0.013799
O O13 0.888612 0.820516 0.004959
O O14 0.896099 0.220834 0.585470
O O15 0.000000 0.155209 0.685657
O O16 0.750000 0.250000 0.000000
O O17 0.000000 0.382861 0.709694
#
# Coordination Sequence:
#
# PCOD9479955 Si02
#       7
#    16  16  16  16  16  16  16
#     4  10  21  37  64  98 135 182 223 271 343 412
#     4  11  22  39  65 101 130 172 231 277 353 407
#     4  10  21  41  70  99 132 167 221 295 349 400
#     4  11  23  42  64  93 141 185 227 282 341 415
#     4  11  21  38  64  99 140 176 222 281 341 411
#     4  12  23  39  60  95 138 186 227 272 338 405
#     4   9  19  38  66  98 129 175 226 273 337 405
#
# _framework density 22.636157000000001
#
# number of rings (size 3 to 8) (size 9 to 14) (size 15 to 20)
#    0.000    1.429    2.857    3.857    0.000    2.286 
#    0.000    1.429   12.571    0.000    0.000    1.000 
#    0.000    0.000    0.000    0.000    0.000    0.000 
#
# Total GULP energy -313278.607192 kJ/mol
# GULP energy per Si atom -5594.260843 kJ/mol
# Density = 2.258464 g / cm^3
# Si number density = 22.636157 Si / 1000 Ang^3
#
#
#
# Elastic Constant Matrix: (Units=GPa)
#
#
# Indices 1 2 3 4 5 6 
#
# 1 131.1572 15.7152 -7.4709 0.0000 0.0000 0.0000
# 2 15.7152 59.9981 5.2807 0.0000 0.0000 0.0000
# 3 -7.4709 5.2807 29.2574 0.0000 0.0000 0.0000
# 4 0.0000 0.0000 0.0000 37.2858 0.0000 0.0000
# 5 0.0000 0.0000 0.0000 0.0000 -14.5324 0.0000
# 6 0.0000 0.0000 0.0000 0.0000 0.0000 31.7528
#
#
#
# Elastic Compliance Matrix: (Units=1/GPa)
#
#
# Indices 1 2 3 4 5 6 
#
# 1 0.008044 -0.002325 0.002474 0.000000 0.000000 0.000000
# 2 -0.002325 0.017608 -0.003772 0.000000 0.000000 0.000000
# 3 0.002474 -0.003772 0.035492 0.000000 0.000000 0.000000
# 4 0.000000 0.000000 0.000000 0.026820 0.000000 0.000000
# 5 0.000000 0.000000 0.000000 0.000000 -0.068812 0.000000
# 6 0.000000 0.000000 0.000000 0.000000 0.000000 0.031493
#
#
# Mechanical properties :
#
#
# Convention : Reuss Voigt Hill
#
# Bulk Modulus (GPa) = 18.55351 27.49586 23.02469
# Shear Modulus (GPa) = 65.91380 24.69375 45.30377
#
# Velocity S-wave (km/s) = 5.40204 3.30646 4.47854
# Velocity P-wave (km/s) = 6.86466 5.17205 6.07757
#
# Compressibility (1/GPa) = 0.05389815
#
# Stress axis : x y z
#
# Youngs Moduli (GPa) = 124.31820 56.79221 28.17559
#
# Poissons Ratio (x) = 0.13202 -0.06969
# Poissons Ratio (y) = 0.28899 0.10627
# Poissons Ratio (z) = -0.30751 0.21420
#
# Static dielectric constant tensor:
#      x y z
#    x 1.840710 0.000000 0.000000 
#    y 0.000000 1.832550 0.000000 
#    z 0.000000 0.000000 1.849710 
# 
# From -- ./inp_files/24262.got.cif
#   From: 2010.05.17/outbox.cif.g08.bks.cpg/sg64_13_cif.got.tgz:24262.got - 2010.06.03 16:29:19.
