data_PCOD9479347
_publ_section_title
;
Structure prediction by ZEFSAII (Michael W. Deem and Ramdas Pophale) SiO2 
 PCOD9479347
Probable space group: C M C A
;
_chemical_formula_sum "Si O2"
_cell_formula_units_Z 96
_cell_length_a 17.538728
_cell_length_b 20.190739
_cell_length_c 14.332350
_cell_angle_alpha 90.000000
_cell_angle_beta 90.000000
_cell_angle_gamma 90.000000
_cell_volume 5075.370054
_symmetry_space_group_name_H-M "C M C A"
_symmetry_group_IT_number 64
_symmetry_cell_setting 'orthorhombic'
loop_
_space_group_symop_operation_xyz
x,y,z
-x,1/2-y,1/2+z
x,-y,-z
-x,1/2+y,1/2-z
-x,-y,-z
x,1/2+y,1/2-z
-x,y,z
x,1/2-y,1/2+z
1/2+x,1/2+y,z
1/2-x,-y,1/2+z
1/2+x,1/2-y,-z
1/2-x,y,1/2-z
1/2-x,1/2-y,-z
1/2+x,y,1/2-z
1/2-x,1/2+y,z
1/2+x,-y,1/2+z
loop_
_atom_site_type_symbol
_atom_site_label
_atom_site_fract_x
_atom_site_fract_y
_atom_site_fract_z
Si Si1 0.090290 0.172660 0.167835
Si Si2 0.161534 0.557420 0.225068
Si Si3 0.089740 0.774398 0.037114
Si Si4 0.589998 0.616268 0.459511
Si Si5 0.090451 0.577933 0.831294
Si Si6 0.661052 0.703116 0.769423
O O1 0.115560 0.100037 0.198751
O O2 0.133921 0.225541 0.232020
O O3 0.000000 0.181273 0.182920
O O4 0.107069 0.190561 0.060725
O O5 0.250000 0.561816 0.250000
O O6 0.140363 0.590020 0.125252
O O7 0.134209 0.482023 0.217305
O O8 0.099923 0.695175 0.027523
O O9 0.140642 0.799949 0.121710
O O10 0.000000 0.785366 0.059068
O O11 0.500000 0.604613 0.437407
O O12 0.607154 0.581569 0.557990
O O13 0.114783 0.647130 0.785834
O O14 0.000000 0.568491 0.821506
O O15 0.750000 0.694556 0.750000
#
# Coordination Sequence:
#
# PCOD9479347 Si02
#       6
#    16  16  16  16  16  16
#     4  11  22  40  63  89 122 166 210 251 303 371
#     4  12  25  40  60  93 131 162 200 259 323 372
#     4  10  21  38  63  94 124 159 211 258 299 365
#     4  10  20  38  67  95 119 158 214 268 303 351
#     4  11  23  43  67  91 121 166 215 259 306 368
#     4  12  24  38  62  94 131 164 199 257 318 370
#
# _framework density 18.914877000000001
#
# number of rings (size 3 to 8) (size 9 to 14) (size 15 to 20)
#    0.000    1.000    3.333    4.500    0.000    3.333 
#    0.000    2.500    0.000    3.000    0.000    0.000 
#    0.000    0.000    0.000    0.000    0.000    0.000 
#
# Total GULP energy -268490.611001 kJ/mol
# GULP energy per Si atom -5593.554396 kJ/mol
# Density = 1.887183 g / cm^3
# Si number density = 18.914877 Si / 1000 Ang^3
#
#
#
# Elastic Constant Matrix: (Units=GPa)
#
#
# Indices 1 2 3 4 5 6 
#
# 1 57.1280 16.1322 44.7324 0.0000 0.0000 0.0000
# 2 16.1322 62.5520 22.9911 0.0000 0.0000 0.0000
# 3 44.7324 22.9911 75.4985 0.0000 0.0000 0.0000
# 4 0.0000 0.0000 0.0000 29.9243 0.0000 0.0000
# 5 0.0000 0.0000 0.0000 0.0000 816.6283 0.0000
# 6 0.0000 0.0000 0.0000 0.0000 0.0000 114.3958
#
#
#
# Elastic Compliance Matrix: (Units=1/GPa)
#
#
# Indices 1 2 3 4 5 6 
#
# 1 0.032775 -0.001481 -0.018968 0.000000 0.000000 0.000000
# 2 -0.001481 0.018069 -0.004625 0.000000 0.000000 0.000000
# 3 -0.018968 -0.004625 0.025892 0.000000 0.000000 0.000000
# 4 0.000000 0.000000 0.000000 0.033418 0.000000 0.000000
# 5 0.000000 0.000000 0.000000 0.000000 0.001225 0.000000
# 6 0.000000 0.000000 0.000000 0.000000 0.000000 0.008742
#
#
# Mechanical properties :
#
#
# Convention : Reuss Voigt Hill
#
# Bulk Modulus (GPa) = 37.61091 40.32111 38.96601
# Shear Modulus (GPa) = 27.91268 199.61120 113.76194
#
# Velocity S-wave (km/s) = 3.84565 10.28399 7.76368
# Velocity P-wave (km/s) = 6.29652 12.74274 10.05046
#
# Compressibility (1/GPa) = 0.02658803
#
# Stress axis : x y z
#
# Youngs Moduli (GPa) = 30.51091 55.34493 38.62172
#
# Poissons Ratio (x) = 0.08196 0.73258
# Poissons Ratio (y) = 0.04519 0.17862
# Poissons Ratio (z) = 0.57873 0.25596
#
# Static dielectric constant tensor:
#      x y z
#    x 1.631230 0.000000 0.000000 
#    y 0.000000 1.638320 0.000000 
#    z 0.000000 0.000000 1.642870 
# 
# From -- ./inp_files/23845.got.cif
#   From: 2010.05.17/outbox.cif.g08.bks.cpg/sg64_12_cif.got.tgz:23845.got - 2010.06.03 16:29:19.
