data_PCOD9479943
_publ_section_title
;
Structure prediction by ZEFSAII (Michael W. Deem and Ramdas Pophale) SiO2 
 PCOD9479943
Probable space group: C M C A
;
_chemical_formula_sum "Si O2"
_cell_formula_units_Z 112
_cell_length_a 14.103003
_cell_length_b 12.178682
_cell_length_c 28.036104
_cell_angle_alpha 90.000000
_cell_angle_beta 90.000000
_cell_angle_gamma 90.000000
_cell_volume 4815.368764
_symmetry_space_group_name_H-M "C M C A"
_symmetry_group_IT_number 64
_symmetry_cell_setting 'orthorhombic'
loop_
_space_group_symop_operation_xyz
x,y,z
-x,1/2-y,1/2+z
x,-y,-z
-x,1/2+y,1/2-z
-x,-y,-z
x,1/2+y,1/2-z
-x,y,z
x,1/2-y,1/2+z
1/2+x,1/2+y,z
1/2-x,-y,1/2+z
1/2+x,1/2-y,-z
1/2-x,y,1/2-z
1/2-x,1/2-y,-z
1/2+x,y,1/2-z
1/2-x,1/2+y,z
1/2+x,-y,1/2+z
loop_
_atom_site_type_symbol
_atom_site_label
_atom_site_fract_x
_atom_site_fract_y
_atom_site_fract_z
Si Si1 0.604921 0.687710 0.163286
Si Si2 0.113241 0.178609 0.833175
Si Si3 0.782002 0.396591 0.803808
Si Si4 0.802057 0.119357 0.501397
Si Si5 0.389782 0.897206 0.230415
Si Si6 0.390789 0.430700 0.063595
Si Si7 0.347079 0.314325 0.938575
O O1 0.500000 0.640988 0.167108
O O2 0.683579 0.595882 0.168663
O O3 0.624157 0.736847 0.111571
O O4 0.616211 0.782622 0.202255
O O5 0.161399 0.297888 0.828613
O O6 0.128348 0.118180 0.883585
O O7 0.000000 0.191987 0.828042
O O8 0.146767 0.118642 0.784300
O O9 0.750000 0.367084 0.750000
O O10 0.839919 0.507084 0.798667
O O11 0.701820 0.102665 0.531616
O O12 0.762995 0.156421 0.449793
O O13 0.863574 0.216050 0.523949
O O14 0.847521 0.000000 0.500000
O O15 0.500000 0.927515 0.233906
O O16 0.500000 0.395916 0.049972
O O17 0.393133 0.564345 0.061106
#
# Coordination Sequence:
#
# PCOD9479943 Si02
#       7
#    16  16  16  16  16  16  16
#     4  11  25  43  63  93 133 174 220 273 323 389
#     4  10  22  42  64  93 129 168 220 276 330 390
#     4  12  25  38  66  89 124 169 222 268 328 384
#     4   9  20  39  64  97 131 162 206 272 332 393
#     4  10  24  43  61  88 129 169 215 275 330 388
#     4  10  21  37  63  93 124 163 209 264 319 386
#     4  10  21  39  64  93 126 167 212 259 330 388
#
# _framework density 23.258862000000001
#
# number of rings (size 3 to 8) (size 9 to 14) (size 15 to 20)
#    0.000    1.714    1.429    1.714    4.000    6.000 
#    0.000    0.000    0.000    1.714    0.000    3.000 
#    0.000    0.000    0.000    0.000    0.000    0.000 
#
# Total GULP energy -312697.549972 kJ/mol
# GULP energy per Si atom -5583.884821 kJ/mol
# Density = 2.320592 g / cm^3
# Si number density = 23.258862 Si / 1000 Ang^3
#
#
#
# Elastic Constant Matrix: (Units=GPa)
#
#
# Indices 1 2 3 4 5 6 
#
# 1 72.6226 29.3619 27.1601 0.0000 0.0000 0.0000
# 2 29.3619 97.2293 10.8287 0.0000 0.0000 0.0000
# 3 27.1601 10.8287 68.6452 0.0000 0.0000 0.0000
# 4 0.0000 0.0000 0.0000 29.9020 0.0000 0.0000
# 5 0.0000 0.0000 0.0000 0.0000 20.9357 0.0000
# 6 0.0000 0.0000 0.0000 0.0000 0.0000 17.7662
#
#
#
# Elastic Compliance Matrix: (Units=1/GPa)
#
#
# Indices 1 2 3 4 5 6 
#
# 1 0.018086 -0.004748 -0.006407 0.000000 0.000000 0.000000
# 2 -0.004748 0.011715 0.000031 0.000000 0.000000 0.000000
# 3 -0.006407 0.000031 0.017098 0.000000 0.000000 0.000000
# 4 0.000000 0.000000 0.000000 0.033443 0.000000 0.000000
# 5 0.000000 0.000000 0.000000 0.000000 0.047765 0.000000
# 6 0.000000 0.000000 0.000000 0.000000 0.000000 0.056287
#
#
# Mechanical properties :
#
#
# Convention : Reuss Voigt Hill
#
# Bulk Modulus (GPa) = 40.56765 41.46650 41.01708
# Shear Modulus (GPa) = 23.27113 25.13053 24.20083
#
# Velocity S-wave (km/s) = 3.16654 3.29062 3.22918
# Velocity P-wave (km/s) = 5.55419 5.68371 5.61932
#
# Compressibility (1/GPa) = 0.02465018
#
# Stress axis : x y z
#
# Youngs Moduli (GPa) = 55.29282 85.35763 58.48737
#
# Poissons Ratio (x) = 0.40528 0.37471
# Poissons Ratio (y) = 0.26253 -0.00178
# Poissons Ratio (z) = 0.35424 -0.00260
#
# Static dielectric constant tensor:
#      x y z
#    x 1.903010 0.000000 0.000000 
#    y 0.000000 1.885180 0.000000 
#    z 0.000000 0.000000 1.999760 
# 
# From -- ./inp_files/53250.got.cif
#   From: 2010.05.17/outbox.cif.g08.bks.cpg/sg64_27_cif.got.tgz:53250.got - 2010.06.03 16:29:19.
