data_PCOD9479415
_publ_section_title
;
Structure prediction by ZEFSAII (Michael W. Deem and Ramdas Pophale) SiO2 
 PCOD9479415
Probable space group: C M C A
;
_chemical_formula_sum "Si O2"
_cell_formula_units_Z 88
_cell_length_a 14.674023
_cell_length_b 20.603558
_cell_length_c 12.781167
_cell_angle_alpha 90.000000
_cell_angle_beta 90.000000
_cell_angle_gamma 90.000000
_cell_volume 3864.220761
_symmetry_space_group_name_H-M "C M C A"
_symmetry_group_IT_number 64
_symmetry_cell_setting 'orthorhombic'
loop_
_space_group_symop_operation_xyz
x,y,z
-x,1/2-y,1/2+z
x,-y,-z
-x,1/2+y,1/2-z
-x,-y,-z
x,1/2+y,1/2-z
-x,y,z
x,1/2-y,1/2+z
1/2+x,1/2+y,z
1/2-x,-y,1/2+z
1/2+x,1/2-y,-z
1/2-x,y,1/2-z
1/2-x,1/2-y,-z
1/2+x,y,1/2-z
1/2-x,1/2+y,z
1/2+x,-y,1/2+z
loop_
_atom_site_type_symbol
_atom_site_label
_atom_site_fract_x
_atom_site_fract_y
_atom_site_fract_z
Si Si1 0.179405 0.000000 0.000000
Si Si2 0.309373 0.316253 0.890747
Si Si3 0.000000 0.352574 0.054712
Si Si4 0.500000 0.612273 0.315080
Si Si5 0.793191 0.125998 0.559492
Si Si6 0.750000 0.795912 0.250000
Si Si7 0.000000 0.203568 0.105359
Si Si8 0.158303 0.546518 0.288342
O O1 0.123577 0.012265 0.106288
O O2 0.245723 0.939162 0.020632
O O3 0.313611 0.256489 0.810103
O O4 0.405922 0.315982 0.950213
O O5 0.310659 0.382785 0.828102
O O6 0.222549 0.320820 0.966269
O O7 0.099554 0.381982 0.084285
O O8 0.000000 0.281144 0.104674
O O9 0.000000 0.354210 0.927471
O O10 0.500000 0.664238 0.217535
O O11 0.414193 0.564240 0.299333
O O12 0.734483 0.155164 0.654718
O O13 0.250000 0.511674 0.250000
#
# Coordination Sequence:
#
# PCOD9479415 Si02
#       8
#     8  16   8   8  16   8   8  16
#     4  10  24  44  66  86 130 174 230 276 324 394
#     4  10  21  40  63  95 131 172 209 272 330 395
#     4  12  24  39  63 101 132 177 222 269 340 395
#     4  10  22  37  65  97 126 171 220 263 327 401
#     4  11  26  42  65  96 133 179 218 275 331 393
#     4  12  22  38  64  92 130 172 220 270 330 402
#     4  10  22  36  60 100 138 164 220 267 327 408
#     4  10  20  39  66  91 122 171 217 262 332 387
#
# _framework density 22.773026000000002
#
# number of rings (size 3 to 8) (size 9 to 14) (size 15 to 20)
#    0.000    1.455    2.727    2.727    3.818    0.727 
#    0.000    1.818    0.000    0.000    0.000    0.000 
#    0.000    0.000    0.000    0.000    0.000    0.000 
#
# Total GULP energy -244956.461924 kJ/mol
# GULP energy per Si atom -5567.192316 kJ/mol
# Density = 2.272119 g / cm^3
# Si number density = 22.773026 Si / 1000 Ang^3
#
#
#
# Elastic Constant Matrix: (Units=GPa)
#
#
# Indices 1 2 3 4 5 6 
#
# 1 90.9759 4.9446 24.8117 0.0000 0.0000 0.0000
# 2 4.9446 72.0480 16.4075 0.0000 0.0000 0.0000
# 3 24.8117 16.4075 76.1409 0.0000 0.0000 0.0000
# 4 0.0000 0.0000 0.0000 18.4712 0.0000 0.0000
# 5 0.0000 0.0000 0.0000 0.0000 16.5559 0.0000
# 6 0.0000 0.0000 0.0000 0.0000 0.0000 -12.3140
#
#
#
# Elastic Compliance Matrix: (Units=1/GPa)
#
#
# Indices 1 2 3 4 5 6 
#
# 1 0.012064 0.000071 -0.003947 0.000000 0.000000 0.000000
# 2 0.000071 0.014596 -0.003168 0.000000 0.000000 0.000000
# 3 -0.003947 -0.003168 0.015102 0.000000 0.000000 0.000000
# 4 0.000000 0.000000 0.000000 0.054138 0.000000 0.000000
# 5 0.000000 0.000000 0.000000 0.000000 0.060401 0.000000
# 6 0.000000 0.000000 0.000000 0.000000 0.000000 -0.081208
#
#
# Mechanical properties :
#
#
# Convention : Reuss Voigt Hill
#
# Bulk Modulus (GPa) = 36.13420 36.83250 36.48335
# Shear Modulus (GPa) = 50.80888 17.40935 34.10911
#
# Velocity S-wave (km/s) = 4.72858 2.76791 3.87432
# Velocity P-wave (km/s) = 6.76122 5.14042 6.00575
#
# Compressibility (1/GPa) = 0.02767461
#
# Stress axis : x y z
#
# Youngs Moduli (GPa) = 82.88826 68.51045 66.21473
#
# Poissons Ratio (x) = -0.00485 0.26133
# Poissons Ratio (y) = -0.00587 0.20980
# Poissons Ratio (z) = 0.32713 0.21707
#
# Static dielectric constant tensor:
#      x y z
#    x 1.937060 0.000000 0.000000 
#    y 0.000000 1.865880 0.000000 
#    z 0.000000 0.000000 1.923820 
# 
# From -- ./inp_files/14659.got.cif
#   From: 2010.05.17/outbox.cif.g08.bks.cpg/sg64_8_cif.got.tgz:14659.got - 2010.06.03 16:29:19.
