data_PCOD9479724
_publ_section_title
;
Structure prediction by ZEFSAII (Michael W. Deem and Ramdas Pophale) SiO2 
 PCOD9479724
Probable space group: C M C A
;
_chemical_formula_sum "Si O2"
_cell_formula_units_Z 80
_cell_length_a 17.478987
_cell_length_b 24.427323
_cell_length_c 8.882230
_cell_angle_alpha 90.000000
_cell_angle_beta 90.000000
_cell_angle_gamma 90.000000
_cell_volume 3792.400099
_symmetry_space_group_name_H-M "C M C A"
_symmetry_group_IT_number 64
_symmetry_cell_setting 'orthorhombic'
loop_
_space_group_symop_operation_xyz
x,y,z
-x,1/2-y,1/2+z
x,-y,-z
-x,1/2+y,1/2-z
-x,-y,-z
x,1/2+y,1/2-z
-x,y,z
x,1/2-y,1/2+z
1/2+x,1/2+y,z
1/2-x,-y,1/2+z
1/2+x,1/2-y,-z
1/2-x,y,1/2-z
1/2-x,1/2-y,-z
1/2+x,y,1/2-z
1/2-x,1/2+y,z
1/2+x,-y,1/2+z
loop_
_atom_site_type_symbol
_atom_site_label
_atom_site_fract_x
_atom_site_fract_y
_atom_site_fract_z
Si Si1 0.684896 0.353320 0.635721
Si Si2 0.804214 0.552969 0.900190
Si Si3 0.912171 0.145674 0.095950
Si Si4 0.658204 0.858111 0.284296
Si Si5 0.411936 0.723604 0.576466
O O1 0.750000 0.332866 0.750000
O O2 0.716010 0.401737 0.529658
O O3 0.619629 0.375977 0.746667
O O4 0.647800 0.304673 0.537853
O O5 0.750000 0.540740 0.750000
O O6 0.867650 0.589864 0.816036
O O7 0.819641 0.500000 0.000000
O O8 0.000000 0.131139 0.073961
O O9 0.862715 0.128620 0.953442
O O10 0.905105 0.211849 0.097749
O O11 0.750000 0.848745 0.250000
O O12 0.609981 0.805930 0.232631
O O13 0.500000 0.711567 0.533074
#
# Coordination Sequence:
#
# PCOD9479724 Si02
#       5
#    16  16  16  16  16
#     4  11  22  36  59  90 120 151 200 253 292 339
#     4  10  21  39  63  88 115 146 189 245 306 361
#     4  11  22  37  58  85 123 169 202 233 290 354
#     4  10  21  36  57  88 118 149 200 252 294 339
#     4  10  21  36  55  82 121 168 205 234 282 347
#
# _framework density 21.094819999999999
#
# number of rings (size 3 to 8) (size 9 to 14) (size 15 to 20)
#    0.000    1.600    0.000    6.600    0.000    8.000 
#    0.000    0.000    0.000   22.800    0.000    0.000 
#    0.000    0.000    0.000    0.000    0.000    0.000 
#
# Total GULP energy -222686.837870 kJ/mol
# GULP energy per Si atom -5567.170947 kJ/mol
# Density = 2.104681 g / cm^3
# Si number density = 21.094820 Si / 1000 Ang^3
#
#
#
# Elastic Constant Matrix: (Units=GPa)
#
#
# Indices 1 2 3 4 5 6 
#
# 1 103.9431 34.2496 35.6602 0.0000 0.0000 0.0000
# 2 34.2496 67.3985 31.7737 0.0000 0.0000 0.0000
# 3 35.6602 31.7737 132.7887 0.0000 0.0000 0.0000
# 4 0.0000 0.0000 0.0000 13.3493 0.0000 0.0000
# 5 0.0000 0.0000 0.0000 0.0000 19.9827 0.0000
# 6 0.0000 0.0000 0.0000 0.0000 0.0000 3.5188
#
#
#
# Elastic Compliance Matrix: (Units=1/GPa)
#
#
# Indices 1 2 3 4 5 6 
#
# 1 0.012004 -0.005163 -0.001988 0.000000 0.000000 0.000000
# 2 -0.005163 0.018944 -0.003146 0.000000 0.000000 0.000000
# 3 -0.001988 -0.003146 0.008818 0.000000 0.000000 0.000000
# 4 0.000000 0.000000 0.000000 0.074910 0.000000 0.000000
# 5 0.000000 0.000000 0.000000 0.000000 0.050043 0.000000
# 6 0.000000 0.000000 0.000000 0.000000 0.000000 0.284190
#
#
# Mechanical properties :
#
#
# Convention : Reuss Voigt Hill
#
# Bulk Modulus (GPa) = 52.16321 56.38858 54.27590
# Shear Modulus (GPa) = 10.50655 20.86662 15.68659
#
# Velocity S-wave (km/s) = 2.23415 3.14854 2.72990
# Velocity P-wave (km/s) = 5.60686 6.32509 5.97678
#
# Compressibility (1/GPa) = 0.01917060
#
# Stress axis : x y z
#
# Youngs Moduli (GPa) = 83.30639 52.78738 113.40934
#
# Poissons Ratio (x) = 0.27252 0.22549
# Poissons Ratio (y) = 0.43008 0.35684
# Poissons Ratio (z) = 0.16564 0.16610
#
# Static dielectric constant tensor:
#      x y z
#    x 1.819780 0.000000 0.000000 
#    y 0.000000 1.766770 0.000000 
#    z 0.000000 0.000000 1.856420 
# 
# From -- ./inp_files/7043.got.cif
#   From: 2010.05.17/outbox.cif.g08.bks.cpg/sg64_4_cif.got.tgz:7043.got - 2010.06.03 16:29:19.
