data_PCOD9479048
_publ_section_title
;
Structure prediction by ZEFSAII (Michael W. Deem and Ramdas Pophale) SiO2 
 PCOD9479048
Probable space group: C M C A
;
_chemical_formula_sum "Si O2"
_cell_formula_units_Z 96
_cell_length_a 22.195510
_cell_length_b 22.308565
_cell_length_c 7.686738
_cell_angle_alpha 90.000000
_cell_angle_beta 90.000000
_cell_angle_gamma 90.000000
_cell_volume 3806.088148
_symmetry_space_group_name_H-M "C M C A"
_symmetry_group_IT_number 64
_symmetry_cell_setting 'orthorhombic'
loop_
_space_group_symop_operation_xyz
x,y,z
-x,1/2-y,1/2+z
x,-y,-z
-x,1/2+y,1/2-z
-x,-y,-z
x,1/2+y,1/2-z
-x,y,z
x,1/2-y,1/2+z
1/2+x,1/2+y,z
1/2-x,-y,1/2+z
1/2+x,1/2-y,-z
1/2-x,y,1/2-z
1/2-x,1/2-y,-z
1/2+x,y,1/2-z
1/2-x,1/2+y,z
1/2+x,-y,1/2+z
loop_
_atom_site_type_symbol
_atom_site_label
_atom_site_fract_x
_atom_site_fract_y
_atom_site_fract_z
Si Si1 0.931517 0.283080 0.770508
Si Si2 0.838951 0.594764 0.646047
Si Si3 0.193099 0.156956 0.159300
Si Si4 0.433272 0.344924 0.352617
Si Si5 0.563984 0.056608 0.376843
Si Si6 0.830734 0.526146 0.183031
O O1 0.869123 0.306215 0.684830
O O2 0.927123 0.211212 0.778762
O O3 0.000000 0.291159 0.693525
O O4 0.931954 0.315695 0.956860
O O5 0.794661 0.639194 0.543961
O O6 0.874922 0.614866 0.816773
O O7 0.891725 0.593714 0.499268
O O8 0.816011 0.527559 0.680910
O O9 0.250000 0.188834 0.250000
O O10 0.189811 0.092310 0.262014
O O11 0.500000 0.373221 0.326018
O O12 0.500000 0.084100 0.338855
O O13 0.597206 0.035138 0.204021
O O14 0.556596 0.000000 0.500000
O O15 0.812419 0.500000 0.000000
#
# Coordination Sequence:
#
# PCOD9479048 Si02
#       6
#    16  16  16  16  16  16
#     4  10  22  41  65  93 124 161 207 258 314 376
#     4  10  20  37  58  86 120 159 205 254 309 367
#     4  11  24  42  63  89 123 165 212 260 312 370
#     4  10  20  38  66  96 126 162 205 255 312 375
#     4   8  15  28  47  74 111 151 190 237 294 353
#     4  10  21  36  56  84 118 158 205 254 307 371
#
# _framework density 25.222747999999999
#
# number of rings (size 3 to 8) (size 9 to 14) (size 15 to 20)
#    0.000    2.167    0.000    4.000    0.000    7.000 
#    0.000    5.833    0.000    0.000    0.000    0.000 
#    0.000    0.000    0.000    0.000    0.000    0.000 
#
# Total GULP energy -267627.305570 kJ/mol
# GULP energy per Si atom -5575.568866 kJ/mol
# Density = 2.516534 g / cm^3
# Si number density = 25.222748 Si / 1000 Ang^3
#
#
#
# Elastic Constant Matrix: (Units=GPa)
#
#
# Indices 1 2 3 4 5 6 
#
# 1 122.3180 17.9077 19.6427 0.0000 0.0000 0.0000
# 2 17.9077 61.2557 -9.0138 0.0000 0.0000 0.0000
# 3 19.6427 -9.0138 63.1483 0.0000 0.0000 0.0000
# 4 0.0000 0.0000 0.0000 34.0435 0.0000 0.0000
# 5 0.0000 0.0000 0.0000 0.0000 22.5373 0.0000
# 6 0.0000 0.0000 0.0000 0.0000 0.0000 -0.9472
#
#
#
# Elastic Compliance Matrix: (Units=1/GPa)
#
#
# Indices 1 2 3 4 5 6 
#
# 1 0.009170 -0.003167 -0.003304 0.000000 0.000000 0.000000
# 2 -0.003167 0.017769 0.003521 0.000000 0.000000 0.000000
# 3 -0.003304 0.003521 0.017366 0.000000 0.000000 0.000000
# 4 0.000000 0.000000 0.000000 0.029374 0.000000 0.000000
# 5 0.000000 0.000000 0.000000 0.000000 0.044371 0.000000
# 6 0.000000 0.000000 0.000000 0.000000 0.000000 -1.055795
#
#
# Mechanical properties :
#
#
# Convention : Reuss Voigt Hill
#
# Bulk Modulus (GPa) = 26.03808 33.75501 29.89654
# Shear Modulus (GPa) = -5.44044 25.67242 10.11599
#
# Velocity S-wave (km/s) = -1.47025 3.19380 2.00484
# Velocity P-wave (km/s) = 2.73194 5.19734 4.15185
#
# Compressibility (1/GPa) = 0.03840530
#
# Stress axis : x y z
#
# Youngs Moduli (GPa) = 109.05493 56.27773 57.58301
#
# Poissons Ratio (x) = 0.17823 0.19027
# Poissons Ratio (y) = 0.34537 -0.20278
# Poissons Ratio (z) = 0.36035 -0.19818
#
# Static dielectric constant tensor:
#      x y z
#    x 2.205270 0.000000 0.000000 
#    y 0.000000 2.011830 0.000000 
#    z 0.000000 0.000000 2.039340 
# 
# From -- ./inp_files/9494.got.cif
#   From: 2010.05.17/outbox.cif.g08.bks.cpg/sg64_5_cif.got.tgz:9494.got - 2010.06.03 16:29:19.
