data_PCOD9479801
_publ_section_title
;
Structure prediction by ZEFSAII (Michael W. Deem and Ramdas Pophale) SiO2 
 PCOD9479801
Probable space group: C M C A
;
_chemical_formula_sum "Si O2"
_cell_formula_units_Z 80
_cell_length_a 18.153078
_cell_length_b 14.898193
_cell_length_c 14.949770
_cell_angle_alpha 90.000000
_cell_angle_beta 90.000000
_cell_angle_gamma 90.000000
_cell_volume 4043.136288
_symmetry_space_group_name_H-M "C M C A"
_symmetry_group_IT_number 64
_symmetry_cell_setting 'orthorhombic'
loop_
_space_group_symop_operation_xyz
x,y,z
-x,1/2-y,1/2+z
x,-y,-z
-x,1/2+y,1/2-z
-x,-y,-z
x,1/2+y,1/2-z
-x,y,z
x,1/2-y,1/2+z
1/2+x,1/2+y,z
1/2-x,-y,1/2+z
1/2+x,1/2-y,-z
1/2-x,y,1/2-z
1/2-x,1/2-y,-z
1/2+x,y,1/2-z
1/2-x,1/2+y,z
1/2+x,-y,1/2+z
loop_
_atom_site_type_symbol
_atom_site_label
_atom_site_fract_x
_atom_site_fract_y
_atom_site_fract_z
Si Si1 0.836662 0.258508 0.976926
Si Si2 0.086924 0.510591 0.267192
Si Si3 0.833491 0.690481 0.228349
Si Si4 0.660477 0.634850 0.646671
Si Si5 0.318073 0.929083 0.425043
O O1 0.868643 0.321946 0.053818
O O2 0.750000 0.250000 0.000000
O O3 0.842956 0.295862 0.877328
O O4 0.859186 0.154566 0.972374
O O5 0.110909 0.613635 0.257746
O O6 0.117610 0.450386 0.185008
O O7 0.127824 0.472939 0.354269
O O8 0.000000 0.500992 0.273228
O O9 0.750000 0.659541 0.250000
O O10 0.842586 0.784156 0.281357
O O11 0.745099 0.605547 0.627110
O O12 0.294296 0.000000 0.500000
#
# Coordination Sequence:
#
# PCOD9479801 Si02
#       5
#    16  16  16  16  16
#     4  10  21  36  67 104 126 163 219 285 343 381
#     4  12  28  43  63  97 143 189 220 267 339 414
#     4  12  21  42  69 100 132 169 226 282 335 388
#     4  11  23  44  70 105 131 168 228 287 340 389
#     4  11  22  42  73 105 130 168 230 292 339 398
#
# _framework density 19.786619000000002
#
# number of rings (size 3 to 8) (size 9 to 14) (size 15 to 20)
#    0.000    0.800    6.000    3.000    8.400    1.200 
#    0.000    3.000    0.000    0.000    0.000    0.000 
#    0.000    0.000    0.000    0.000    0.000    0.000 
#
# Total GULP energy -223507.498886 kJ/mol
# GULP energy per Si atom -5587.687472 kJ/mol
# Density = 1.974158 g / cm^3
# Si number density = 19.786619 Si / 1000 Ang^3
#
#
#
# Elastic Constant Matrix: (Units=GPa)
#
#
# Indices 1 2 3 4 5 6 
#
# 1 71.4196 51.4026 33.3962 0.0000 0.0000 0.0000
# 2 51.4026 107.8015 44.0197 0.0000 0.0000 0.0000
# 3 33.3962 44.0197 119.3828 0.0000 0.0000 0.0000
# 4 0.0000 0.0000 0.0000 49.0201 0.0000 0.0000
# 5 0.0000 0.0000 0.0000 0.0000 0.8464 0.0000
# 6 0.0000 0.0000 0.0000 0.0000 0.0000 -4.1025
#
#
#
# Elastic Compliance Matrix: (Units=1/GPa)
#
#
# Indices 1 2 3 4 5 6 
#
# 1 0.022030 -0.009404 -0.002695 0.000000 0.000000 0.000000
# 2 -0.009404 0.014935 -0.002876 0.000000 0.000000 0.000000
# 3 -0.002695 -0.002876 0.010191 0.000000 0.000000 0.000000
# 4 0.000000 0.000000 0.000000 0.020400 0.000000 0.000000
# 5 0.000000 0.000000 0.000000 0.000000 1.181490 0.000000
# 6 0.000000 0.000000 0.000000 0.000000 0.000000 -0.243752
#
#
# Mechanical properties :
#
#
# Convention : Reuss Voigt Hill
#
# Bulk Modulus (GPa) = 58.12216 61.80455 59.96335
# Shear Modulus (GPa) = 4.80316 20.47182 12.63749
#
# Velocity S-wave (km/s) = 1.55973 3.22006 2.52997
# Velocity P-wave (km/s) = 5.71681 6.71776 6.23740
#
# Compressibility (1/GPa) = 0.01720514
#
# Stress axis : x y z
#
# Youngs Moduli (GPa) = 45.39169 66.95726 98.12653
#
# Poissons Ratio (x) = 0.62967 0.26448
# Poissons Ratio (y) = 0.42687 0.28223
# Poissons Ratio (z) = 0.12234 0.19258
#
# Static dielectric constant tensor:
#      x y z
#    x 1.645650 0.000000 0.000000 
#    y 0.000000 1.740960 0.000000 
#    z 0.000000 0.000000 1.731310 
# 
# From -- ./inp_files/25301.got.cif
#   From: 2010.05.17/outbox.cif.g08.bks.cpg/sg64_13_cif.got.tgz:25301.got - 2010.06.03 16:29:19.
