data_PCOD9479077
_publ_section_title
;
Structure prediction by ZEFSAII (Michael W. Deem and Ramdas Pophale) SiO2 
 PCOD9479077
Probable space group: C M C A
;
_chemical_formula_sum "Si O2"
_cell_formula_units_Z 116
_cell_length_a 9.728510
_cell_length_b 21.893875
_cell_length_c 23.117014
_cell_angle_alpha 90.000000
_cell_angle_beta 90.000000
_cell_angle_gamma 90.000000
_cell_volume 4923.803355
_symmetry_space_group_name_H-M "C M C A"
_symmetry_group_IT_number 64
_symmetry_cell_setting 'orthorhombic'
loop_
_space_group_symop_operation_xyz
x,y,z
-x,1/2-y,1/2+z
x,-y,-z
-x,1/2+y,1/2-z
-x,-y,-z
x,1/2+y,1/2-z
-x,y,z
x,1/2-y,1/2+z
1/2+x,1/2+y,z
1/2-x,-y,1/2+z
1/2+x,1/2-y,-z
1/2-x,y,1/2-z
1/2-x,1/2-y,-z
1/2+x,y,1/2-z
1/2-x,1/2+y,z
1/2+x,-y,1/2+z
loop_
_atom_site_type_symbol
_atom_site_label
_atom_site_fract_x
_atom_site_fract_y
_atom_site_fract_z
Si Si1 0.152959 0.771233 0.299227
Si Si2 0.759718 0.537333 0.421250
Si Si3 0.158601 0.218823 0.389173
Si Si4 0.651989 0.586222 0.701476
Si Si5 0.000000 0.000000 0.500000
Si Si6 0.346389 0.161271 0.477839
Si Si7 0.650580 0.407137 0.095011
Si Si8 0.839455 0.596985 0.191655
O O1 0.250000 0.743318 0.250000
O O2 0.238905 0.765289 0.357760
O O3 0.135725 0.841996 0.283262
O O4 0.000000 0.743548 0.302699
O O5 0.620521 0.529801 0.458129
O O6 0.837606 0.597339 0.442979
O O7 0.844830 0.475603 0.430130
O O8 0.720374 0.547405 0.353771
O O9 0.224939 0.200987 0.450345
O O10 0.164429 0.159072 0.347335
O O11 0.000000 0.238187 0.392867
O O12 0.500000 0.559269 0.698635
O O13 0.750000 0.557751 0.750000
O O14 0.727785 0.590126 0.640614
O O15 0.500000 0.187548 0.470121
O O16 0.327656 0.141410 0.544143
O O17 0.500000 0.396048 0.122018
O O18 0.750000 0.600064 0.250000
O O19 0.000000 0.586405 0.205371
#
# Coordination Sequence:
#
# PCOD9479077 Si02
#       8
#    16  16  16  16   4  16  16  16
#     4  10  20  37  60  86 113 146 188 234 284 342
#     4  11  22  36  61  83 113 153 201 244 288 338
#     4  10  21  35  58  86 114 149 191 231 281 344
#     4  10  23  41  63  86 113 148 191 238 288 344
#     4  12  20  36  62  88 108 152 206 262 280 344
#     4  10  21  37  57  85 118 150 187 238 288 339
#     4  11  23  38  59  85 114 149 191 240 291 341
#     4  10  22  36  51  80 116 149 185 226 282 342
#
# _framework density 23.559021999999999
#
# number of rings (size 3 to 8) (size 9 to 14) (size 15 to 20)
#    0.000    1.655    2.069    2.069    1.931    8.276 
#    0.000    0.690    0.000    0.000    0.000    0.000 
#    0.000    0.000    0.000    0.000    0.000    0.000 
#
# Total GULP energy -323816.386333 kJ/mol
# GULP energy per Si atom -5583.041144 kJ/mol
# Density = 2.350540 g / cm^3
# Si number density = 23.559022 Si / 1000 Ang^3
#
#
#
# Elastic Constant Matrix: (Units=GPa)
#
#
# Indices 1 2 3 4 5 6 
#
# 1 207.6441 11.3712 72.3726 0.0000 0.0000 0.0000
# 2 11.3712 47.0533 4.0439 0.0000 0.0000 0.0000
# 3 72.3726 4.0439 112.3083 0.0000 0.0000 0.0000
# 4 0.0000 0.0000 0.0000 35.4765 0.0000 0.0000
# 5 0.0000 0.0000 0.0000 0.0000 36.8966 0.0000
# 6 0.0000 0.0000 0.0000 0.0000 0.0000 13.9725
#
#
#
# Elastic Compliance Matrix: (Units=1/GPa)
#
#
# Indices 1 2 3 4 5 6 
#
# 1 0.006275 -0.001173 -0.004001 0.000000 0.000000 0.000000
# 2 -0.001173 0.021538 -0.000020 0.000000 0.000000 0.000000
# 3 -0.004001 -0.000020 0.011483 0.000000 0.000000 0.000000
# 4 0.000000 0.000000 0.000000 0.028188 0.000000 0.000000
# 5 0.000000 0.000000 0.000000 0.000000 0.027103 0.000000
# 6 0.000000 0.000000 0.000000 0.000000 0.000000 0.071569
#
#
# Mechanical properties :
#
#
# Convention : Reuss Voigt Hill
#
# Bulk Modulus (GPa) = 34.59238 60.28680 47.43959
# Shear Modulus (GPa) = 26.85588 35.88363 31.36975
#
# Velocity S-wave (km/s) = 3.37996 3.90697 3.65298
# Velocity P-wave (km/s) = 5.47242 6.78217 6.16219
#
# Compressibility (1/GPa) = 0.02890810
#
# Stress axis : x y z
#
# Youngs Moduli (GPa) = 159.36857 46.43047 87.08324
#
# Poissons Ratio (x) = 0.05444 0.34845
# Poissons Ratio (y) = 0.18686 0.00174
# Poissons Ratio (z) = 0.63768 0.00093
#
# Static dielectric constant tensor:
#      x y z
#    x 1.868990 0.000000 0.000000 
#    y 0.000000 1.974430 0.000000 
#    z 0.000000 0.000000 1.885820 
# 
# From -- ./inp_files/43362.got.cif
#   From: 2010.05.17/outbox.cif.g08.bks.cpg/sg64_22_cif.got.tgz:43362.got - 2010.06.03 16:29:19.
