data_PCOD9479392
_publ_section_title
;
Structure prediction by ZEFSAII (Michael W. Deem and Ramdas Pophale) SiO2 
 PCOD9479392
Probable space group: C M C A
;
_chemical_formula_sum "Si O2"
_cell_formula_units_Z 96
_cell_length_a 15.582521
_cell_length_b 19.257830
_cell_length_c 15.990914
_cell_angle_alpha 90.000000
_cell_angle_beta 90.000000
_cell_angle_gamma 90.000000
_cell_volume 4798.642069
_symmetry_space_group_name_H-M "C M C A"
_symmetry_group_IT_number 64
_symmetry_cell_setting 'orthorhombic'
loop_
_space_group_symop_operation_xyz
x,y,z
-x,1/2-y,1/2+z
x,-y,-z
-x,1/2+y,1/2-z
-x,-y,-z
x,1/2+y,1/2-z
-x,y,z
x,1/2-y,1/2+z
1/2+x,1/2+y,z
1/2-x,-y,1/2+z
1/2+x,1/2-y,-z
1/2-x,y,1/2-z
1/2-x,1/2-y,-z
1/2+x,y,1/2-z
1/2-x,1/2+y,z
1/2+x,-y,1/2+z
loop_
_atom_site_type_symbol
_atom_site_label
_atom_site_fract_x
_atom_site_fract_y
_atom_site_fract_z
Si Si1 0.803383 0.996767 0.172691
Si Si2 0.349007 0.724494 0.277992
Si Si3 0.728869 0.682503 0.446904
Si Si4 0.903020 0.880456 0.265124
Si Si5 0.156095 0.058490 0.558362
Si Si6 0.095956 0.372799 0.636821
O O1 0.750000 0.030554 0.250000
O O2 0.880658 0.046726 0.148498
O O3 0.838768 0.924680 0.208235
O O4 0.737606 0.981821 0.098614
O O5 0.250000 0.725786 0.250000
O O6 0.338518 0.704491 0.374724
O O7 0.385929 0.799398 0.251961
O O8 0.398509 0.666204 0.225831
O O9 0.750000 0.750000 0.500000
O O10 0.688114 0.621662 0.501719
O O11 0.821505 0.657062 0.412309
O O12 0.889696 0.907089 0.360665
O O13 0.000000 0.896348 0.241049
O O14 0.111255 0.000000 0.500000
O O15 0.000000 0.362735 0.601709
#
# Coordination Sequence:
#
# PCOD9479392 Si02
#       6
#    16  16  16  16  16  16
#     4  10  20  39  64  87 120 167 214 244 302 386
#     4  10  21  39  63  85 115 163 214 252 301 380
#     4  11  22  40  64  89 121 165 207 251 316 383
#     4  11  23  40  63  92 125 163 211 266 313 364
#     4  11  22  39  65  92 126 166 208 257 313 387
#     4  11  22  38  60  89 121 158 208 263 307 361
#
# _framework density 20.005659999999999
#
# number of rings (size 3 to 8) (size 9 to 14) (size 15 to 20)
#    0.000    1.333    1.667    7.000    2.333    0.333 
#    0.000    7.500    0.000    0.000    0.000    0.000 
#    0.000    0.000    0.000    0.000    0.000    0.000 
#
# Total GULP energy -267897.907302 kJ/mol
# GULP energy per Si atom -5581.206402 kJ/mol
# Density = 1.996013 g / cm^3
# Si number density = 20.005660 Si / 1000 Ang^3
#
#
#
# Elastic Constant Matrix: (Units=GPa)
#
#
# Indices 1 2 3 4 5 6 
#
# 1 67.0212 -2.4793 -11.3634 0.0000 0.0000 0.0000
# 2 -2.4793 96.5095 18.3465 0.0000 0.0000 0.0000
# 3 -11.3634 18.3465 57.1588 0.0000 0.0000 0.0000
# 4 0.0000 0.0000 0.0000 26.9053 0.0000 0.0000
# 5 0.0000 0.0000 0.0000 0.0000 16.7712 0.0000
# 6 0.0000 0.0000 0.0000 0.0000 0.0000 3.9185
#
#
#
# Elastic Compliance Matrix: (Units=1/GPa)
#
#
# Indices 1 2 3 4 5 6 
#
# 1 0.015445 -0.000199 0.003134 0.000000 0.000000 0.000000
# 2 -0.000199 0.011038 -0.003582 0.000000 0.000000 0.000000
# 3 0.003134 -0.003582 0.019268 0.000000 0.000000 0.000000
# 4 0.000000 0.000000 0.000000 0.037167 0.000000 0.000000
# 5 0.000000 0.000000 0.000000 0.000000 0.059626 0.000000
# 6 0.000000 0.000000 0.000000 0.000000 0.000000 0.255198
#
#
# Mechanical properties :
#
#
# Convention : Reuss Voigt Hill
#
# Bulk Modulus (GPa) = 22.49403 25.52191 24.00797
# Shear Modulus (GPa) = 12.08154 23.93138 18.00646
#
# Velocity S-wave (km/s) = 2.46012 3.46241 3.00337
# Velocity P-wave (km/s) = 4.39748 5.36371 4.90445
#
# Compressibility (1/GPa) = 0.04445625
#
# Stress axis : x y z
#
# Youngs Moduli (GPa) = 64.74706 90.59966 51.89925
#
# Poissons Ratio (x) = 0.01804 -0.16267
# Poissons Ratio (y) = 0.01289 0.18592
# Poissons Ratio (z) = -0.20294 0.32456
#
# Static dielectric constant tensor:
#      x y z
#    x 1.699700 0.000000 0.000000 
#    y 0.000000 1.718540 0.000000 
#    z 0.000000 0.000000 1.734820 
# 
# From -- ./inp_files/23948.got.cif
#   From: 2010.05.17/outbox.cif.g08.bks.cpg/sg64_12_cif.got.tgz:23948.got - 2010.06.03 16:29:19.
