data_PCOD9479215
_publ_section_title
;
Structure prediction by ZEFSAII (Michael W. Deem and Ramdas Pophale) SiO2 
 PCOD9479215
Probable space group: C M C A
;
_chemical_formula_sum "Si O2"
_cell_formula_units_Z 96
_cell_length_a 15.333260
_cell_length_b 28.852069
_cell_length_c 10.066365
_cell_angle_alpha 90.000000
_cell_angle_beta 90.000000
_cell_angle_gamma 90.000000
_cell_volume 4453.322384
_symmetry_space_group_name_H-M "C M C A"
_symmetry_group_IT_number 64
_symmetry_cell_setting 'orthorhombic'
loop_
_space_group_symop_operation_xyz
x,y,z
-x,1/2-y,1/2+z
x,-y,-z
-x,1/2+y,1/2-z
-x,-y,-z
x,1/2+y,1/2-z
-x,y,z
x,1/2-y,1/2+z
1/2+x,1/2+y,z
1/2-x,-y,1/2+z
1/2+x,1/2-y,-z
1/2-x,y,1/2-z
1/2-x,1/2-y,-z
1/2+x,y,1/2-z
1/2-x,1/2+y,z
1/2+x,-y,1/2+z
loop_
_atom_site_type_symbol
_atom_site_label
_atom_site_fract_x
_atom_site_fract_y
_atom_site_fract_z
Si Si1 0.354852 0.390651 0.268814
Si Si2 0.128600 0.948065 0.020670
Si Si3 0.892606 0.207747 0.144852
Si Si4 0.663070 0.052758 0.019527
Si Si5 0.603172 0.289602 0.161742
Si Si6 0.598540 0.108489 0.261896
O O1 0.250000 0.390351 0.250000
O O2 0.375185 0.410748 0.413548
O O3 0.384786 0.339460 0.230204
O O4 0.392544 0.426755 0.162544
O O5 0.233652 0.949071 0.007704
O O6 0.096031 0.914547 0.906180
O O7 0.097388 0.000000 0.000000
O O8 0.863471 0.250275 0.237373
O O9 0.864548 0.159764 0.214319
O O10 0.000000 0.206700 0.141308
O O11 0.862499 0.210534 0.990616
O O12 0.648350 0.073992 0.164212
O O13 0.629814 0.000000 0.000000
O O14 0.500000 0.280888 0.149005
O O15 0.500000 0.112879 0.209478
#
# Coordination Sequence:
#
# PCOD9479215 Si02
#       6
#    16  16  16  16  16  16
#     4  10  21  37  58  86 116 146 194 245 283 332
#     4  10  20  39  63  82 111 156 199 232 280 346
#     4   9  20  36  58  84 110 148 190 231 283 348
#     4  10  22  39  59  84 116 159 196 229 281 346
#     4  10  20  38  60  81 110 150 193 232 285 348
#     4  11  22  37  58  89 120 145 190 243 287 335
#
# _framework density 21.556940000000001
#
# number of rings (size 3 to 8) (size 9 to 14) (size 15 to 20)
#    0.000    2.000    1.667    1.500    2.333    4.000 
#    0.000    4.167    0.000    0.000    0.000    0.000 
#    0.000    0.000    0.000    0.000    0.000    0.000 
#
# Total GULP energy -268119.897273 kJ/mol
# GULP energy per Si atom -5585.831193 kJ/mol
# Density = 2.150787 g / cm^3
# Si number density = 21.556940 Si / 1000 Ang^3
#
#
#
# Elastic Constant Matrix: (Units=GPa)
#
#
# Indices 1 2 3 4 5 6 
#
# 1 21.1789 5.0018 9.5334 0.0000 0.0000 0.0000
# 2 5.0018 150.0794 24.9292 0.0000 0.0000 0.0000
# 3 9.5334 24.9292 80.5369 0.0000 0.0000 0.0000
# 4 0.0000 0.0000 0.0000 32.4981 0.0000 0.0000
# 5 0.0000 0.0000 0.0000 0.0000 12.1903 0.0000
# 6 0.0000 0.0000 0.0000 0.0000 0.0000 2.4809
#
#
#
# Elastic Compliance Matrix: (Units=1/GPa)
#
#
# Indices 1 2 3 4 5 6 
#
# 1 0.049948 -0.000720 -0.005690 0.000000 0.000000 0.000000
# 2 -0.000720 0.007035 -0.002092 0.000000 0.000000 0.000000
# 3 -0.005690 -0.002092 0.013738 0.000000 0.000000 0.000000
# 4 0.000000 0.000000 0.000000 0.030771 0.000000 0.000000
# 5 0.000000 0.000000 0.000000 0.000000 0.082032 0.000000
# 6 0.000000 0.000000 0.000000 0.000000 0.000000 0.403074
#
#
# Mechanical properties :
#
#
# Convention : Reuss Voigt Hill
#
# Bulk Modulus (GPa) = 18.61604 36.74708 27.68156
# Shear Modulus (GPa) = 8.04497 23.58926 15.81712
#
# Velocity S-wave (km/s) = 1.93393 3.31157 2.71170
# Velocity P-wave (km/s) = 3.69341 5.63077 4.76166
#
# Compressibility (1/GPa) = 0.05371712
#
# Stress axis : x y z
#
# Youngs Moduli (GPa) = 20.02090 142.15308 72.79164
#
# Poissons Ratio (x) = 0.10228 0.41417
# Poissons Ratio (y) = 0.01441 0.15230
# Poissons Ratio (z) = 0.11391 0.29743
#
# Static dielectric constant tensor:
#      x y z
#    x 1.842250 0.000000 0.000000 
#    y 0.000000 1.755290 0.000000 
#    z 0.000000 0.000000 1.736620 
# 
# From -- ./inp_files/8367.got.cif
#   From: 2010.05.17/outbox.cif.g08.bks.cpg/sg64_5_cif.got.tgz:8367.got - 2010.06.03 16:29:19.
