data_PCOD9479366
_publ_section_title
;
Structure prediction by ZEFSAII (Michael W. Deem and Ramdas Pophale) SiO2 
 PCOD9479366
Probable space group: C M C A
;
_chemical_formula_sum "Si O2"
_cell_formula_units_Z 88
_cell_length_a 24.279146
_cell_length_b 16.557617
_cell_length_c 11.020941
_cell_angle_alpha 90.000000
_cell_angle_beta 90.000000
_cell_angle_gamma 90.000000
_cell_volume 4430.471189
_symmetry_space_group_name_H-M "C M C A"
_symmetry_group_IT_number 64
_symmetry_cell_setting 'orthorhombic'
loop_
_space_group_symop_operation_xyz
x,y,z
-x,1/2-y,1/2+z
x,-y,-z
-x,1/2+y,1/2-z
-x,-y,-z
x,1/2+y,1/2-z
-x,y,z
x,1/2-y,1/2+z
1/2+x,1/2+y,z
1/2-x,-y,1/2+z
1/2+x,1/2-y,-z
1/2-x,y,1/2-z
1/2-x,1/2-y,-z
1/2+x,y,1/2-z
1/2-x,1/2+y,z
1/2+x,-y,1/2+z
loop_
_atom_site_type_symbol
_atom_site_label
_atom_site_fract_x
_atom_site_fract_y
_atom_site_fract_z
Si Si1 0.689471 0.328980 0.098323
Si Si2 0.000000 0.568527 0.353722
Si Si3 0.891792 0.926377 0.436041
Si Si4 0.314809 0.784900 0.129039
Si Si5 0.500000 0.316958 0.071903
Si Si6 0.591369 0.562974 0.843593
Si Si7 0.500000 0.624306 0.421686
O O1 0.674360 0.278404 0.224482
O O2 0.755609 0.329168 0.113367
O O3 0.651455 0.409481 0.106904
O O4 0.682303 0.290801 0.963410
O O5 0.000000 0.647878 0.435864
O O6 0.945638 0.514418 0.380917
O O7 0.000000 0.593081 0.214774
O O8 0.858808 0.844624 0.427487
O O9 0.902967 0.950162 0.298833
O O10 0.947017 0.908993 0.509170
O O11 0.860868 0.000000 0.500000
O O12 0.553011 0.358634 0.133118
O O13 0.500000 0.221456 0.077192
#
# Coordination Sequence:
#
# PCOD9479366 Si02
#       7
#    16   8  16  16   8  16   8
#     4   9  18  37  62  89 122 165 198 259 307 363
#     4  11  23  41  59  86 124 159 202 251 311 378
#     4  11  21  37  58  85 115 156 203 251 297 366
#     4   9  19  36  61  90 123 157 211 254 304 364
#     4  11  25  38  58  87 118 154 202 253 302 371
#     4  10  20  39  60  85 122 159 196 245 314 362
#     4  12  23  38  59  86 116 161 204 255 304 367
#
# _framework density 19.862448000000001
#
# number of rings (size 3 to 8) (size 9 to 14) (size 15 to 20)
#    0.000    1.818    1.818    3.545    2.545    0.000 
#    3.273    1.818    0.000   15.273    0.000    0.000 
#    0.000    0.000    0.000    0.000    0.000    0.000 
#
# Total GULP energy -245022.598120 kJ/mol
# GULP energy per Si atom -5568.695412 kJ/mol
# Density = 1.981724 g / cm^3
# Si number density = 19.862448 Si / 1000 Ang^3
#
#
#
# Elastic Constant Matrix: (Units=GPa)
#
#
# Indices 1 2 3 4 5 6 
#
# 1 67.3268 22.7589 45.8842 0.0000 0.0000 0.0000
# 2 22.7589 52.8115 3.1750 0.0000 0.0000 0.0000
# 3 45.8842 3.1750 94.7136 0.0000 0.0000 0.0000
# 4 0.0000 0.0000 0.0000 26.8952 0.0000 0.0000
# 5 0.0000 0.0000 0.0000 0.0000 14.0991 0.0000
# 6 0.0000 0.0000 0.0000 0.0000 0.0000 137.4729
#
#
#
# Elastic Compliance Matrix: (Units=1/GPa)
#
#
# Indices 1 2 3 4 5 6 
#
# 1 0.027357 -0.011015 -0.012884 0.000000 0.000000 0.000000
# 2 -0.011015 0.023408 0.004551 0.000000 0.000000 0.000000
# 3 -0.012884 0.004551 0.016647 0.000000 0.000000 0.000000
# 4 0.000000 0.000000 0.000000 0.037181 0.000000 0.000000
# 5 0.000000 0.000000 0.000000 0.000000 0.070926 0.000000
# 6 0.000000 0.000000 0.000000 0.000000 0.000000 0.007274
#
#
# Mechanical properties :
#
#
# Convention : Reuss Voigt Hill
#
# Bulk Modulus (GPa) = 34.82129 39.83202 37.32666
# Shear Modulus (GPa) = 21.63928 45.22901 33.43414
#
# Velocity S-wave (km/s) = 3.30427 4.77709 4.10724
# Velocity P-wave (km/s) = 5.66806 7.10808 6.42852
#
# Compressibility (1/GPa) = 0.02871806
#
# Stress axis : x y z
#
# Youngs Moduli (GPa) = 36.55399 42.71975 60.07034
#
# Poissons Ratio (x) = 0.47055 0.77393
# Poissons Ratio (y) = 0.40263 -0.27340
# Poissons Ratio (z) = 0.47095 -0.19443
#
# Static dielectric constant tensor:
#      x y z
#    x 1.728300 0.000000 0.000000 
#    y 0.000000 1.697560 0.000000 
#    z 0.000000 0.000000 1.736790 
# 
# From -- ./inp_files/19086.got.cif
#   From: 2010.05.17/outbox.cif.g08.bks.cpg/sg64_10_cif.got.tgz:19086.got - 2010.06.03 16:29:19.
