data_PCOD9479820
_publ_section_title
;
Structure prediction by ZEFSAII (Michael W. Deem and Ramdas Pophale) SiO2 
 PCOD9479820
Probable space group: C M C A
;
_chemical_formula_sum "Si O2"
_cell_formula_units_Z 112
_cell_length_a 14.382294
_cell_length_b 24.956931
_cell_length_c 15.464585
_cell_angle_alpha 90.000000
_cell_angle_beta 90.000000
_cell_angle_gamma 90.000000
_cell_volume 5550.825958
_symmetry_space_group_name_H-M "C M C A"
_symmetry_group_IT_number 64
_symmetry_cell_setting 'orthorhombic'
loop_
_space_group_symop_operation_xyz
x,y,z
-x,1/2-y,1/2+z
x,-y,-z
-x,1/2+y,1/2-z
-x,-y,-z
x,1/2+y,1/2-z
-x,y,z
x,1/2-y,1/2+z
1/2+x,1/2+y,z
1/2-x,-y,1/2+z
1/2+x,1/2-y,-z
1/2-x,y,1/2-z
1/2-x,1/2-y,-z
1/2+x,y,1/2-z
1/2-x,1/2+y,z
1/2+x,-y,1/2+z
loop_
_atom_site_type_symbol
_atom_site_label
_atom_site_fract_x
_atom_site_fract_y
_atom_site_fract_z
Si Si1 0.109991 0.393169 0.197450
Si Si2 0.238852 0.967098 0.568560
Si Si3 0.895489 0.579855 0.204818
Si Si4 0.895080 0.011128 0.830848
Si Si5 0.390472 0.688353 0.383191
Si Si6 0.390393 0.189178 0.648200
Si Si7 0.233656 0.637841 0.967584
O O1 0.129733 0.446456 0.255205
O O2 0.126399 0.343547 0.263265
O O3 0.170535 0.384594 0.111709
O O4 0.000000 0.395015 0.175822
O O5 0.178819 0.952249 0.650346
O O6 0.267171 0.911147 0.526811
O O7 0.177791 0.000000 0.500000
O O8 0.319939 0.007920 0.594785
O O9 0.894359 0.550240 0.296130
O O10 0.875704 0.642331 0.189683
O O11 0.000000 0.570735 0.170330
O O12 0.000000 0.024956 0.858187
O O13 0.500000 0.685953 0.407635
O O14 0.372847 0.747326 0.346241
O O15 0.328456 0.674069 0.467110
O O16 0.500000 0.181116 0.626944
O O17 0.321087 0.166778 0.575761
#
# Coordination Sequence:
#
# PCOD9479820 Si02
#       7
#    16  16  16  16  16  16  16
#     4  10  21  38  61  85 110 149 198 243 288 341
#     4  11  22  33  52  80 112 144 177 225 281 333
#     4   9  19  36  57  79 105 141 182 226 276 329
#     4  10  21  38  58  80 111 148 187 229 275 339
#     4   9  19  37  58  82 113 145 184 235 287 337
#     4  10  21  37  56  79 112 151 188 230 283 345
#     4  11  21  35  57  85 114 147 189 238 288 338
#
# _framework density 20.177178000000001
#
# number of rings (size 3 to 8) (size 9 to 14) (size 15 to 20)
#    0.000    2.000    0.000    3.429    0.000    2.857 
#    0.000    7.143    0.000    3.429    0.000    0.000 
#    0.000    0.000    0.000    0.000    0.000    0.000 
#
# Total GULP energy -312374.912048 kJ/mol
# GULP energy per Si atom -5578.123429 kJ/mol
# Density = 2.013125 g / cm^3
# Si number density = 20.177178 Si / 1000 Ang^3
#
#
#
# Elastic Constant Matrix: (Units=GPa)
#
#
# Indices 1 2 3 4 5 6 
#
# 1 64.6517 40.5798 25.5609 0.0000 0.0000 0.0000
# 2 40.5798 99.1151 39.4220 0.0000 0.0000 0.0000
# 3 25.5609 39.4220 53.4759 0.0000 0.0000 0.0000
# 4 0.0000 0.0000 0.0000 34.7766 0.0000 0.0000
# 5 0.0000 0.0000 0.0000 0.0000 3.3099 0.0000
# 6 0.0000 0.0000 0.0000 0.0000 0.0000 31.8120
#
#
#
# Elastic Compliance Matrix: (Units=1/GPa)
#
#
# Indices 1 2 3 4 5 6 
#
# 1 0.021887 -0.006791 -0.005455 0.000000 0.000000 0.000000
# 2 -0.006791 0.016382 -0.008831 0.000000 0.000000 0.000000
# 3 -0.005455 -0.008831 0.027817 0.000000 0.000000 0.000000
# 4 0.000000 0.000000 0.000000 0.028755 0.000000 0.000000
# 5 0.000000 0.000000 0.000000 0.000000 0.302128 0.000000
# 6 0.000000 0.000000 0.000000 0.000000 0.000000 0.031435
#
#
# Mechanical properties :
#
#
# Convention : Reuss Voigt Hill
#
# Bulk Modulus (GPa) = 41.78465 47.59644 44.69055
# Shear Modulus (GPa) = 10.44855 21.42505 15.93680
#
# Velocity S-wave (km/s) = 2.27808 3.26213 2.81346
# Velocity P-wave (km/s) = 5.26055 6.15054 5.72287
#
# Compressibility (1/GPa) = 0.02393223
#
# Stress axis : x y z
#
# Youngs Moduli (GPa) = 45.68944 61.04275 35.94871
#
# Poissons Ratio (x) = 0.41455 0.19611
# Poissons Ratio (y) = 0.31028 0.31745
# Poissons Ratio (z) = 0.24925 0.53904
#
# Static dielectric constant tensor:
#      x y z
#    x 1.753690 0.000000 0.000000 
#    y 0.000000 1.738290 0.000000 
#    z 0.000000 0.000000 1.716800 
# 
# From -- ./inp_files/24225.got.cif
#   From: 2010.05.17/outbox.cif.g08.bks.cpg/sg64_13_cif.got.tgz:24225.got - 2010.06.03 16:29:19.
