data_PCOD9479521
_publ_section_title
;
Structure prediction by ZEFSAII (Michael W. Deem and Ramdas Pophale) SiO2 
 PCOD9479521
Probable space group: C M C A
;
_chemical_formula_sum "Si O2"
_cell_formula_units_Z 84
_cell_length_a 19.897024
_cell_length_b 10.006405
_cell_length_c 18.185759
_cell_angle_alpha 90.000000
_cell_angle_beta 90.000000
_cell_angle_gamma 90.000000
_cell_volume 3620.742434
_symmetry_space_group_name_H-M "C M C A"
_symmetry_group_IT_number 64
_symmetry_cell_setting 'orthorhombic'
loop_
_space_group_symop_operation_xyz
x,y,z
-x,1/2-y,1/2+z
x,-y,-z
-x,1/2+y,1/2-z
-x,-y,-z
x,1/2+y,1/2-z
-x,y,z
x,1/2-y,1/2+z
1/2+x,1/2+y,z
1/2-x,-y,1/2+z
1/2+x,1/2-y,-z
1/2-x,y,1/2-z
1/2-x,1/2-y,-z
1/2+x,y,1/2-z
1/2-x,1/2+y,z
1/2+x,-y,1/2+z
loop_
_atom_site_type_symbol
_atom_site_label
_atom_site_fract_x
_atom_site_fract_y
_atom_site_fract_z
Si Si1 0.611297 0.007750 0.379340
Si Si2 0.213786 0.628993 0.042081
Si Si3 0.366485 0.193459 0.922263
Si Si4 0.265472 0.184606 0.664170
Si Si5 0.000000 0.110945 0.232677
Si Si6 0.000000 0.614051 0.839099
Si Si7 0.000000 0.000000 0.000000
O O1 0.638633 0.146995 0.413004
O O2 0.565548 0.056187 0.310697
O O3 0.671591 0.911133 0.354967
O O4 0.559108 0.956064 0.440252
O O5 0.217711 0.671606 0.126363
O O6 0.242042 0.500000 0.000000
O O7 0.250000 0.750000 0.000000
O O8 0.139941 0.646726 0.006346
O O9 0.304156 0.136377 0.874243
O O10 0.435174 0.147168 0.886967
O O11 0.250000 0.195621 0.750000
O O12 0.000000 0.271901 0.225849
O O13 0.000000 0.035649 0.309544
#
# Coordination Sequence:
#
# PCOD9479521 Si02
#       7
#    16  16  16  16   8   8   4
#     4  10  21  40  67 107 137 188 255 304 377 463
#     4  10  24  44  66  98 135 187 241 300 379 453
#     4  10  23  40  69  95 141 189 239 305 379 447
#     4  11  24  40  67 106 146 188 242 315 382 460
#     4   9  20  39  66  94 139 182 247 311 385 447
#     4  10  20  44  65  98 137 195 247 313 381 460
#     4  10  20  40  76 100 132 194 244 316 352 462
#
# _framework density 23.199660000000002
#
# number of rings (size 3 to 8) (size 9 to 14) (size 15 to 20)
#    0.000    1.905    0.000    2.857   10.667    0.762 
#   10.286    0.476    0.000    0.000    0.000    0.000 
#    0.000    0.000    0.000    0.000    0.000    0.000 
#
# Total GULP energy -233802.174631 kJ/mol
# GULP energy per Si atom -5566.718444 kJ/mol
# Density = 2.314686 g / cm^3
# Si number density = 23.199660 Si / 1000 Ang^3
#
#
#
# Elastic Constant Matrix: (Units=GPa)
#
#
# Indices 1 2 3 4 5 6 
#
# 1 146.8966 30.5575 46.2501 0.0000 0.0000 0.0000
# 2 30.5575 63.0424 -9.7005 0.0000 0.0000 0.0000
# 3 46.2501 -9.7005 117.2915 0.0000 0.0000 0.0000
# 4 0.0000 0.0000 0.0000 17.1257 0.0000 0.0000
# 5 0.0000 0.0000 0.0000 0.0000 18.8284 0.0000
# 6 0.0000 0.0000 0.0000 0.0000 0.0000 7.6901
#
#
#
# Elastic Compliance Matrix: (Units=1/GPa)
#
#
# Indices 1 2 3 4 5 6 
#
# 1 0.009119 -0.005037 -0.004012 0.000000 0.000000 0.000000
# 2 -0.005037 0.018850 0.003545 0.000000 0.000000 0.000000
# 3 -0.004012 0.003545 0.010401 0.000000 0.000000 0.000000
# 4 0.000000 0.000000 0.000000 0.058392 0.000000 0.000000
# 5 0.000000 0.000000 0.000000 0.000000 0.053111 0.000000
# 6 0.000000 0.000000 0.000000 0.000000 0.000000 0.130038
#
#
# Mechanical properties :
#
#
# Convention : Reuss Voigt Hill
#
# Bulk Modulus (GPa) = 36.54893 51.27163 43.91028
# Shear Modulus (GPa) = 16.66451 26.07039 21.36745
#
# Velocity S-wave (km/s) = 2.68303 3.35586 3.03813
# Velocity P-wave (km/s) = 5.03850 6.09622 5.59242
#
# Compressibility (1/GPa) = 0.02736058
#
# Stress axis : x y z
#
# Youngs Moduli (GPa) = 109.66577 53.05179 96.14396
#
# Poissons Ratio (x) = 0.26724 0.38575
# Poissons Ratio (y) = 0.55242 -0.34085
# Poissons Ratio (z) = 0.44000 -0.18808
#
# Static dielectric constant tensor:
#      x y z
#    x 1.946340 0.000000 0.000000 
#    y 0.000000 1.974560 0.000000 
#    z 0.000000 0.000000 1.962100 
# 
# From -- ./inp_files/34095.got.cif
#   From: 2010.05.17/outbox.cif.g08.bks.cpg/sg64_18_cif.got.tgz:34095.got - 2010.06.03 16:29:19.
