data_PCOD9479877
_publ_section_title
;
Structure prediction by ZEFSAII (Michael W. Deem and Ramdas Pophale) SiO2 
 PCOD9479877
Probable space group: C M C A
;
_chemical_formula_sum "Si O2"
_cell_formula_units_Z 64
_cell_length_a 24.170471
_cell_length_b 5.054455
_cell_length_c 20.969501
_cell_angle_alpha 90.000000
_cell_angle_beta 90.000000
_cell_angle_gamma 90.000000
_cell_volume 2561.813699
_symmetry_space_group_name_H-M "C M C A"
_symmetry_group_IT_number 64
_symmetry_cell_setting 'orthorhombic'
loop_
_space_group_symop_operation_xyz
x,y,z
-x,1/2-y,1/2+z
x,-y,-z
-x,1/2+y,1/2-z
-x,-y,-z
x,1/2+y,1/2-z
-x,y,z
x,1/2-y,1/2+z
1/2+x,1/2+y,z
1/2-x,-y,1/2+z
1/2+x,1/2-y,-z
1/2-x,y,1/2-z
1/2-x,1/2-y,-z
1/2+x,y,1/2-z
1/2-x,1/2+y,z
1/2+x,-y,1/2+z
loop_
_atom_site_type_symbol
_atom_site_label
_atom_site_fract_x
_atom_site_fract_y
_atom_site_fract_z
Si Si1 0.559774 0.825583 0.934406
Si Si2 0.783528 0.658342 0.177370
Si Si3 0.409787 0.519622 0.293110
Si Si4 0.322277 0.262253 0.040480
O O1 0.500000 0.686504 0.931967
O O2 0.615494 0.651609 0.937678
O O3 0.567067 0.974296 0.865774
O O4 0.558662 0.000000 0.000000
O O5 0.733398 0.459467 0.192710
O O6 0.842901 0.550604 0.199512
O O7 0.789149 0.677783 0.101679
O O8 0.425738 0.266257 0.251617
O O9 0.298023 0.500000 0.000000
O O10 0.329335 0.000000 0.000000
#
# Coordination Sequence:
#
# PCOD9479877 Si02
#       4
#    16  16  16  16
#     4   9  21  43  70  98 130 171 218 269 328 394
#     4  11  23  38  60  90 124 167 216 263 314 376
#     4  11  25  44  66  96 133 171 216 271 329 391
#     4  10  21  37  58  89 128 166 208 260 318 380
#
# _framework density 24.982303000000002
#
# number of rings (size 3 to 8) (size 9 to 14) (size 15 to 20)
#    0.000    1.750    0.000    3.000    0.000   17.500 
#    0.000    5.000    0.000    0.000    0.000    0.000 
#    0.000    0.000    0.000    0.000    0.000    0.000 
#
# Total GULP energy -178830.812459 kJ/mol
# GULP energy per Si atom -5588.462889 kJ/mol
# Density = 2.492544 g / cm^3
# Si number density = 24.982303 Si / 1000 Ang^3
#
#
#
# Elastic Constant Matrix: (Units=GPa)
#
#
# Indices 1 2 3 4 5 6 
#
# 1 120.6503 -10.8993 14.9338 0.0000 0.0000 0.0000
# 2 -10.8993 99.5799 22.9108 0.0000 0.0000 0.0000
# 3 14.9338 22.9108 199.7364 0.0000 0.0000 0.0000
# 4 0.0000 0.0000 0.0000 212.7002 0.0000 0.0000
# 5 0.0000 0.0000 0.0000 0.0000 -12.0875 0.0000
# 6 0.0000 0.0000 0.0000 0.0000 0.0000 3.4333
#
#
#
# Elastic Compliance Matrix: (Units=1/GPa)
#
#
# Indices 1 2 3 4 5 6 
#
# 1 0.008482 0.001103 -0.000761 0.000000 0.000000 0.000000
# 2 0.001103 0.010458 -0.001282 0.000000 0.000000 0.000000
# 3 -0.000761 -0.001282 0.005211 0.000000 0.000000 0.000000
# 4 0.000000 0.000000 0.000000 0.004701 0.000000 0.000000
# 5 0.000000 0.000000 0.000000 0.000000 -0.082730 0.000000
# 6 0.000000 0.000000 0.000000 0.000000 0.000000 0.291262
#
#
# Mechanical properties :
#
#
# Convention : Reuss Voigt Hill
#
# Bulk Modulus (GPa) = 44.89959 52.65081 48.77520
# Shear Modulus (GPa) = 20.26857 67.01062 43.63960
#
# Velocity S-wave (km/s) = 2.85145 5.18473 4.18403
# Velocity P-wave (km/s) = 5.37146 7.54738 6.55040
#
# Compressibility (1/GPa) = 0.02227192
#
# Stress axis : x y z
#
# Youngs Moduli (GPa) = 117.89303 95.62118 191.91869
#
# Poissons Ratio (x) = -0.10551 0.14601
# Poissons Ratio (y) = -0.13009 0.24606
# Poissons Ratio (z) = 0.08969 0.12259
#
# Static dielectric constant tensor:
#      x y z
#    x 2.044280 0.000000 0.000000 
#    y 0.000000 1.919080 0.000000 
#    z 0.000000 0.000000 1.966750 
# 
# From -- ./inp_files/41246.got.cif
#   From: 2010.05.17/outbox.cif.g08.bks.cpg/sg64_21_cif.got.tgz:41246.got - 2010.06.03 16:29:19.
