data_PCOD9479263
_publ_section_title
;
Structure prediction by ZEFSAII (Michael W. Deem and Ramdas Pophale) SiO2 
 PCOD9479263
Probable space group: C M C A
;
_chemical_formula_sum "Si O2"
_cell_formula_units_Z 112
_cell_length_a 24.798530
_cell_length_b 14.672001
_cell_length_c 12.894053
_cell_angle_alpha 90.000000
_cell_angle_beta 90.000000
_cell_angle_gamma 90.000000
_cell_volume 4691.424554
_symmetry_space_group_name_H-M "C M C A"
_symmetry_group_IT_number 64
_symmetry_cell_setting 'orthorhombic'
loop_
_space_group_symop_operation_xyz
x,y,z
-x,1/2-y,1/2+z
x,-y,-z
-x,1/2+y,1/2-z
-x,-y,-z
x,1/2+y,1/2-z
-x,y,z
x,1/2-y,1/2+z
1/2+x,1/2+y,z
1/2-x,-y,1/2+z
1/2+x,1/2-y,-z
1/2-x,y,1/2-z
1/2-x,1/2-y,-z
1/2+x,y,1/2-z
1/2-x,1/2+y,z
1/2+x,-y,1/2+z
loop_
_atom_site_type_symbol
_atom_site_label
_atom_site_fract_x
_atom_site_fract_y
_atom_site_fract_z
Si Si1 0.173807 0.662093 0.264166
Si Si2 0.823767 0.011473 0.619590
Si Si3 0.941527 0.312953 0.722147
Si Si4 0.941609 0.996335 0.671701
Si Si5 0.782308 0.307944 0.103096
Si Si6 0.662952 0.713389 0.933961
Si Si7 0.440377 0.369699 0.144158
O O1 0.185896 0.569373 0.202728
O O2 0.116536 0.662057 0.326579
O O3 0.216827 0.711218 0.337827
O O4 0.162602 0.735222 0.175008
O O5 0.888208 0.022945 0.612731
O O6 0.800091 0.104425 0.666447
O O7 0.803331 0.000000 0.500000
O O8 0.942368 0.387322 0.815337
O O9 0.940979 0.211920 0.770071
O O10 0.000000 0.324098 0.667674
O O11 0.935464 0.039097 0.787295
O O12 0.000000 0.027145 0.631274
O O13 0.722977 0.329575 0.060124
O O14 0.829605 0.293036 0.018586
O O15 0.610438 0.650311 0.929772
O O16 0.500000 0.369032 0.094394
#
# Coordination Sequence:
#
# PCOD9479263 Si02
#       7
#    16  16  16  16  16  16  16
#     4  10  20  38  62  89 124 167 210 263 324 372
#     4  11  21  38  63  93 126 165 219 273 316 386
#     4   8  15  29  52  80 115 155 198 251 307 366
#     4   9  18  32  55  88 123 160 203 260 327 376
#     4  11  23  40  64  90 131 169 207 265 325 380
#     4  10  21  40  62  88 125 167 208 257 323 379
#     4   9  17  34  60  87 121 161 204 257 314 381
#
# _framework density 23.873346000000002
#
# number of rings (size 3 to 8) (size 9 to 14) (size 15 to 20)
#    0.000    2.286    1.429    2.143    0.000    0.286 
#    0.000   11.429    0.000    0.000    0.000    9.000 
#    0.000    0.000    0.000    0.000    0.000    0.000 
#
# Total GULP energy -311870.377148 kJ/mol
# GULP energy per Si atom -5569.113878 kJ/mol
# Density = 2.381901 g / cm^3
# Si number density = 23.873346 Si / 1000 Ang^3
#
#
#
# Elastic Constant Matrix: (Units=GPa)
#
#
# Indices 1 2 3 4 5 6 
#
# 1 147.6030 26.8494 22.5834 0.0000 0.0000 0.0000
# 2 26.8494 86.6324 19.4166 0.0000 0.0000 0.0000
# 3 22.5834 19.4166 72.2860 0.0000 0.0000 0.0000
# 4 0.0000 0.0000 0.0000 19.7405 0.0000 0.0000
# 5 0.0000 0.0000 0.0000 0.0000 21.1965 0.0000
# 6 0.0000 0.0000 0.0000 0.0000 0.0000 18.2041
#
#
#
# Elastic Compliance Matrix: (Units=1/GPa)
#
#
# Indices 1 2 3 4 5 6 
#
# 1 0.007394 -0.001888 -0.001803 0.000000 0.000000 0.000000
# 2 -0.001888 0.012764 -0.002839 0.000000 0.000000 0.000000
# 3 -0.001803 -0.002839 0.015160 0.000000 0.000000 0.000000
# 4 0.000000 0.000000 0.000000 0.050657 0.000000 0.000000
# 5 0.000000 0.000000 0.000000 0.000000 0.047178 0.000000
# 6 0.000000 0.000000 0.000000 0.000000 0.000000 0.054933
#
#
# Mechanical properties :
#
#
# Convention : Reuss Voigt Hill
#
# Bulk Modulus (GPa) = 44.92504 49.35778 47.14141
# Shear Modulus (GPa) = 23.97343 27.67304 25.82324
#
# Velocity S-wave (km/s) = 3.17234 3.40834 3.29245
# Velocity P-wave (km/s) = 5.68130 6.01737 5.85175
#
# Compressibility (1/GPa) = 0.02225930
#
# Stress axis : x y z
#
# Youngs Moduli (GPa) = 135.24220 78.34365 65.96401
#
# Poissons Ratio (x) = 0.14787 0.11894
# Poissons Ratio (y) = 0.25527 0.18726
# Poissons Ratio (z) = 0.24385 0.22241
#
# Static dielectric constant tensor:
#      x y z
#    x 2.053980 0.000000 0.000000 
#    y 0.000000 1.923550 0.000000 
#    z 0.000000 0.000000 1.935960 
# 
# From -- ./inp_files/28060.got.cif
#   From: 2010.05.17/outbox.cif.g08.bks.cpg/sg64_15_cif.got.tgz:28060.got - 2010.06.03 16:29:19.
