data_PCOD9479331
_publ_section_title
;
Structure prediction by ZEFSAII (Michael W. Deem and Ramdas Pophale) SiO2 
 PCOD9479331
Probable space group: C M C A
;
_chemical_formula_sum "Si O2"
_cell_formula_units_Z 104
_cell_length_a 20.191942
_cell_length_b 9.101481
_cell_length_c 29.710233
_cell_angle_alpha 90.000000
_cell_angle_beta 90.000000
_cell_angle_gamma 90.000000
_cell_volume 5460.044907
_symmetry_space_group_name_H-M "C M C A"
_symmetry_group_IT_number 64
_symmetry_cell_setting 'orthorhombic'
loop_
_space_group_symop_operation_xyz
x,y,z
-x,1/2-y,1/2+z
x,-y,-z
-x,1/2+y,1/2-z
-x,-y,-z
x,1/2+y,1/2-z
-x,y,z
x,1/2-y,1/2+z
1/2+x,1/2+y,z
1/2-x,-y,1/2+z
1/2+x,1/2-y,-z
1/2-x,y,1/2-z
1/2-x,1/2-y,-z
1/2+x,y,1/2-z
1/2-x,1/2+y,z
1/2+x,-y,1/2+z
loop_
_atom_site_type_symbol
_atom_site_label
_atom_site_fract_x
_atom_site_fract_y
_atom_site_fract_z
Si Si1 0.655617 0.078142 0.103499
Si Si2 0.873177 0.622820 0.967989
Si Si3 0.500000 0.989278 0.414522
Si Si4 0.361611 0.910753 0.374689
Si Si5 0.500000 0.781583 0.501745
Si Si6 0.231561 0.451219 0.184492
Si Si7 0.750000 0.798361 0.750000
Si Si8 0.287695 0.585982 0.047169
O O1 0.631047 0.234179 0.121590
O O2 0.686925 0.974170 0.141392
O O3 0.717755 0.117263 0.071055
O O4 0.607593 0.970954 0.075897
O O5 0.824457 0.757223 0.957484
O O6 0.934468 0.687545 0.994468
O O7 0.842596 0.500000 0.000000
O O8 0.435278 0.978341 0.382361
O O9 0.500000 0.862523 0.453475
O O10 0.500000 0.123611 0.451093
O O11 0.308937 0.943694 0.333415
O O12 0.324818 0.979495 0.417849
O O13 0.215203 0.589378 0.216262
O O14 0.215124 0.310502 0.214818
O O15 0.291081 0.500000 0.000000
#
# Coordination Sequence:
#
# PCOD9479331 Si02
#       8
#    16  16   8  16   8  16   8  16
#     4  11  23  36  55  87 123 148 188 249 300 353
#     4  12  24  36  55  79 116 161 209 256 286 333
#     4  11  22  38  62  76 116 165 211 253 284 331
#     4  11  22  38  58  84 118 156 200 242 286 352
#     4  11  23  40  54  80 108 169 227 249 278 329
#     4  10  21  38  63  95 120 146 185 235 303 373
#     4  10  20  38  66  94 120 146 176 236 308 372
#     4  11  21  35  54  78 115 157 196 240 301 346
#
# _framework density 19.047460999999998
#
# number of rings (size 3 to 8) (size 9 to 14) (size 15 to 20)
#    0.000    1.077    3.077    5.308    2.154    2.462 
#    0.000    0.000    0.000    0.923    0.000    0.000 
#    0.000    0.000    0.000    0.000    0.000    0.000 
#
# Total GULP energy -289534.168470 kJ/mol
# GULP energy per Si atom -5567.964778 kJ/mol
# Density = 1.900411 g / cm^3
# Si number density = 19.047461 Si / 1000 Ang^3
#
#
#
# Elastic Constant Matrix: (Units=GPa)
#
#
# Indices 1 2 3 4 5 6 
#
# 1 44.6923 -6.9071 9.9266 0.0000 0.0000 0.0000
# 2 -6.9071 98.9479 19.9470 0.0000 0.0000 0.0000
# 3 9.9266 19.9470 79.4875 0.0000 0.0000 0.0000
# 4 0.0000 0.0000 0.0000 -6.7882 0.0000 0.0000
# 5 0.0000 0.0000 0.0000 0.0000 -0.8019 0.0000
# 6 0.0000 0.0000 0.0000 0.0000 0.0000 62.0445
#
#
#
# Elastic Compliance Matrix: (Units=1/GPa)
#
#
# Indices 1 2 3 4 5 6 
#
# 1 0.023523 0.002353 -0.003528 0.000000 0.000000 0.000000
# 2 0.002353 0.010880 -0.003024 0.000000 0.000000 0.000000
# 3 -0.003528 -0.003024 0.013780 0.000000 0.000000 0.000000
# 4 0.000000 0.000000 0.000000 -0.147315 0.000000 0.000000
# 5 0.000000 0.000000 0.000000 0.000000 -1.247044 0.000000
# 6 0.000000 0.000000 0.000000 0.000000 0.000000 0.016117
#
#
# Mechanical properties :
#
#
# Convention : Reuss Voigt Hill
#
# Bulk Modulus (GPa) = 25.13528 29.89563 27.51545
# Shear Modulus (GPa) = -3.82146 24.23497 10.20675
#
# Velocity S-wave (km/s) = -1.41797 3.57087 2.31737
# Velocity P-wave (km/s) = 3.24714 5.72109 4.65160
#
# Compressibility (1/GPa) = 0.03978472
#
# Stress axis : x y z
#
# Youngs Moduli (GPa) = 42.51247 91.90959 72.56842
#
# Poissons Ratio (x) = -0.21628 0.25603
# Poissons Ratio (y) = -0.10004 0.21946
# Poissons Ratio (z) = 0.14999 0.27796
#
# Static dielectric constant tensor:
#      x y z
#    x 1.680340 0.000000 0.000000 
#    y 0.000000 1.730860 0.000000 
#    z 0.000000 0.000000 1.124710 
# 
# From -- ./inp_files/53785.got.cif
#   From: 2010.05.17/outbox.cif.g08.bks.cpg/sg64_27_cif.got.tgz:53785.got - 2010.06.03 16:29:19.
