data_PCOD9479663
_publ_section_title
;
Structure prediction by ZEFSAII (Michael W. Deem and Ramdas Pophale) SiO2 
 PCOD9479663
Probable space group: C M C A
;
_chemical_formula_sum "Si O2"
_cell_formula_units_Z 96
_cell_length_a 8.656983
_cell_length_b 25.625531
_cell_length_c 24.167293
_cell_angle_alpha 90.000000
_cell_angle_beta 90.000000
_cell_angle_gamma 90.000000
_cell_volume 5361.267113
_symmetry_space_group_name_H-M "C M C A"
_symmetry_group_IT_number 64
_symmetry_cell_setting 'orthorhombic'
loop_
_space_group_symop_operation_xyz
x,y,z
-x,1/2-y,1/2+z
x,-y,-z
-x,1/2+y,1/2-z
-x,-y,-z
x,1/2+y,1/2-z
-x,y,z
x,1/2-y,1/2+z
1/2+x,1/2+y,z
1/2-x,-y,1/2+z
1/2+x,1/2-y,-z
1/2-x,y,1/2-z
1/2-x,1/2-y,-z
1/2+x,y,1/2-z
1/2-x,1/2+y,z
1/2+x,-y,1/2+z
loop_
_atom_site_type_symbol
_atom_site_label
_atom_site_fract_x
_atom_site_fract_y
_atom_site_fract_z
Si Si1 0.315319 0.060423 0.310109
Si Si2 0.814510 0.308934 0.500083
Si Si3 0.686447 0.148133 0.620538
Si Si4 0.685862 0.250677 0.688545
Si Si5 0.685802 0.150175 0.113897
Si Si6 0.684185 0.444437 0.309634
O O1 0.500000 0.060400 0.308017
O O2 0.250000 0.077285 0.250000
O O3 0.254549 0.099336 0.356847
O O4 0.254143 0.001803 0.319621
O O5 0.750000 0.250000 0.500000
O O6 0.773814 0.336988 0.442352
O O7 0.747459 0.339456 0.552522
O O8 0.000000 0.306422 0.503528
O O9 0.500000 0.142799 0.623988
O O10 0.733798 0.197058 0.658897
O O11 0.763968 0.096313 0.644004
O O12 0.500000 0.250726 0.690810
O O13 0.750000 0.254698 0.750000
O O14 0.732671 0.299794 0.651035
O O15 0.500000 0.147257 0.113269
O O16 0.500000 0.448086 0.306195
O O17 0.750000 0.426450 0.250000
#
# Coordination Sequence:
#
# PCOD9479663 Si02
#       6
#    16  16  16  16  16  16
#     4  11  22  39  62  89 119 157 196 241 296 352
#     4  11  22  39  61  85 117 158 200 243 295 351
#     4  10  21  39  58  83 117 154 195 241 291 347
#     4  10  21  35  53  81 116 151 186 234 290 344
#     4  11  22  39  59  85 119 155 198 245 291 350
#     4  11  22  38  61  89 118 155 195 241 294 350
#
# _framework density 17.906213999999999
#
# number of rings (size 3 to 8) (size 9 to 14) (size 15 to 20)
#    0.000    1.333    1.667    6.000    0.000    6.000 
#    0.000    0.833    0.000    5.000    0.000    0.000 
#    0.000    0.000    0.000    0.000    0.000    0.000 
#
# Total GULP energy -268351.772283 kJ/mol
# GULP energy per Si atom -5590.661923 kJ/mol
# Density = 1.786546 g / cm^3
# Si number density = 17.906214 Si / 1000 Ang^3
#
#
#
# Elastic Constant Matrix: (Units=GPa)
#
#
# Indices 1 2 3 4 5 6 
#
# 1 94.6167 47.7481 57.6319 0.0000 0.0000 0.0000
# 2 47.7481 93.3844 72.4510 0.0000 0.0000 0.0000
# 3 57.6319 72.4510 144.7179 0.0000 0.0000 0.0000
# 4 0.0000 0.0000 0.0000 24.3207 0.0000 0.0000
# 5 0.0000 0.0000 0.0000 0.0000 34.0642 0.0000
# 6 0.0000 0.0000 0.0000 0.0000 0.0000 30.0528
#
#
#
# Elastic Compliance Matrix: (Units=1/GPa)
#
#
# Indices 1 2 3 4 5 6 
#
# 1 0.015287 -0.005058 -0.003556 0.000000 0.000000 0.000000
# 2 -0.005058 0.019183 -0.007589 0.000000 0.000000 0.000000
# 3 -0.003556 -0.007589 0.012126 0.000000 0.000000 0.000000
# 4 0.000000 0.000000 0.000000 0.041117 0.000000 0.000000
# 5 0.000000 0.000000 0.000000 0.000000 0.029356 0.000000
# 6 0.000000 0.000000 0.000000 0.000000 0.000000 0.033275
#
#
# Mechanical properties :
#
#
# Convention : Reuss Voigt Hill
#
# Bulk Modulus (GPa) = 70.47434 76.48678 73.48056
# Shear Modulus (GPa) = 26.66964 28.01343 27.34153
#
# Velocity S-wave (km/s) = 3.86347 3.95961 3.91183
# Velocity P-wave (km/s) = 7.70356 7.98202 7.84402
#
# Compressibility (1/GPa) = 0.01418956
#
# Stress axis : x y z
#
# Youngs Moduli (GPa) = 65.41411 52.13080 82.47052
#
# Poissons Ratio (x) = 0.26366 0.29325
# Poissons Ratio (y) = 0.33085 0.62589
# Poissons Ratio (z) = 0.23260 0.39564
#
# Static dielectric constant tensor:
#      x y z
#    x 1.602280 0.000000 0.000000 
#    y 0.000000 1.592160 0.000000 
#    z 0.000000 0.000000 1.588790 
# 
# From -- ./inp_files/36985.got.cif
#   From: 2010.05.17/outbox.cif.g08.bks.cpg/sg64_19_cif.got.tgz:36985.got - 2010.06.03 16:29:19.
