data_PCOD9479717
_publ_section_title
;
Structure prediction by ZEFSAII (Michael W. Deem and Ramdas Pophale) SiO2 
 PCOD9479717
Probable space group: C M C A
;
_chemical_formula_sum "Si O2"
_cell_formula_units_Z 72
_cell_length_a 10.819740
_cell_length_b 19.849177
_cell_length_c 15.062657
_cell_angle_alpha 90.000000
_cell_angle_beta 90.000000
_cell_angle_gamma 90.000000
_cell_volume 3234.900416
_symmetry_space_group_name_H-M "C M C A"
_symmetry_group_IT_number 64
_symmetry_cell_setting 'orthorhombic'
loop_
_space_group_symop_operation_xyz
x,y,z
-x,1/2-y,1/2+z
x,-y,-z
-x,1/2+y,1/2-z
-x,-y,-z
x,1/2+y,1/2-z
-x,y,z
x,1/2-y,1/2+z
1/2+x,1/2+y,z
1/2-x,-y,1/2+z
1/2+x,1/2-y,-z
1/2-x,y,1/2-z
1/2-x,1/2-y,-z
1/2+x,y,1/2-z
1/2-x,1/2+y,z
1/2+x,-y,1/2+z
loop_
_atom_site_type_symbol
_atom_site_label
_atom_site_fract_x
_atom_site_fract_y
_atom_site_fract_z
Si Si1 0.864408 0.672282 0.131160
Si Si2 0.137972 0.645259 0.489289
Si Si3 0.639043 0.017499 0.185365
Si Si4 0.253883 0.000000 0.500000
Si Si5 0.134322 0.183217 0.803957
O O1 0.857291 0.599273 0.176599
O O2 0.863888 0.735328 0.196798
O O3 0.000000 0.674613 0.084820
O O4 0.748994 0.678379 0.065383
O O5 0.163301 0.565435 0.483215
O O6 0.144008 0.664419 0.592597
O O7 0.000000 0.661723 0.456240
O O8 0.500000 0.999294 0.213962
O O9 0.750000 0.997552 0.250000
O O10 0.669599 0.990344 0.086996
O O11 0.250000 0.157000 0.750000
O O12 0.000000 0.160429 0.770715
#
# Coordination Sequence:
#
# PCOD9479717 Si02
#       5
#    16  16  16   8  16
#     4   9  19  36  57  81 110 142 179 225 280 339
#     4  10  21  36  56  81 108 143 188 232 275 326
#     4  10  21  37  59  85 112 147 190 236 286 340
#     4  10  22  40  58  80 116 156 194 236 282 336
#     4  10  21  36  54  81 113 143 178 223 277 336
#
# _framework density 22.257254
#
# number of rings (size 3 to 8) (size 9 to 14) (size 15 to 20)
#    0.000    2.222    0.000    2.000    0.000    8.000 
#    0.000    2.222    0.000    0.000    0.000    0.000 
#    0.000    0.000    0.000    0.000    0.000    0.000 
#
# Total GULP energy -201173.246620 kJ/mol
# GULP energy per Si atom -5588.145739 kJ/mol
# Density = 2.220660 g / cm^3
# Si number density = 22.257254 Si / 1000 Ang^3
#
#
#
# Elastic Constant Matrix: (Units=GPa)
#
#
# Indices 1 2 3 4 5 6 
#
# 1 274.6239 13.0648 88.0026 0.0000 0.0000 0.0000
# 2 13.0648 59.3465 -2.8237 0.0000 0.0000 0.0000
# 3 88.0026 -2.8237 63.7371 0.0000 0.0000 0.0000
# 4 0.0000 0.0000 0.0000 13.9885 0.0000 0.0000
# 5 0.0000 0.0000 0.0000 0.0000 32.4095 0.0000
# 6 0.0000 0.0000 0.0000 0.0000 0.0000 -10.2023
#
#
#
# Elastic Compliance Matrix: (Units=1/GPa)
#
#
# Indices 1 2 3 4 5 6 
#
# 1 0.006745 -0.001932 -0.009398 0.000000 0.000000 0.000000
# 2 -0.001932 0.017439 0.003440 0.000000 0.000000 0.000000
# 3 -0.009398 0.003440 0.028818 0.000000 0.000000 0.000000
# 4 0.000000 0.000000 0.000000 0.071487 0.000000 0.000000
# 5 0.000000 0.000000 0.000000 0.000000 0.030855 0.000000
# 6 0.000000 0.000000 0.000000 0.000000 0.000000 -0.098017
#
#
# Mechanical properties :
#
#
# Convention : Reuss Voigt Hill
#
# Bulk Modulus (GPa) = 26.86588 66.02166 46.44377
# Shear Modulus (GPa) = 58.46866 27.20339 42.83603
#
# Velocity S-wave (km/s) = 5.13094 3.49983 4.39177
# Velocity P-wave (km/s) = 6.87014 6.78669 6.82854
#
# Compressibility (1/GPa) = 0.03722194
#
# Stress axis : x y z
#
# Youngs Moduli (GPa) = 148.25857 57.34209 34.70003
#
# Poissons Ratio (x) = 0.11079 0.32613
# Poissons Ratio (y) = 0.28644 -0.11937
# Poissons Ratio (z) = 1.39340 -0.19727
#
# Static dielectric constant tensor:
#      x y z
#    x 1.833890 0.000000 0.000000 
#    y 0.000000 1.833950 0.000000 
#    z 0.000000 0.000000 1.787820 
# 
# From -- ./inp_files/21135.got.cif
#   From: 2010.05.17/outbox.cif.g08.bks.cpg/sg64_11_cif.got.tgz:21135.got - 2010.06.03 16:29:19.
