data_PCOD9479447
_publ_section_title
;
Structure prediction by ZEFSAII (Michael W. Deem and Ramdas Pophale) SiO2 
 PCOD9479447
Probable space group: C M C A
;
_chemical_formula_sum "Si O2"
_cell_formula_units_Z 80
_cell_length_a 20.738053
_cell_length_b 16.153773
_cell_length_c 9.904195
_cell_angle_alpha 90.000000
_cell_angle_beta 90.000000
_cell_angle_gamma 90.000000
_cell_volume 3317.883542
_symmetry_space_group_name_H-M "C M C A"
_symmetry_group_IT_number 64
_symmetry_cell_setting 'orthorhombic'
loop_
_space_group_symop_operation_xyz
x,y,z
-x,1/2-y,1/2+z
x,-y,-z
-x,1/2+y,1/2-z
-x,-y,-z
x,1/2+y,1/2-z
-x,y,z
x,1/2-y,1/2+z
1/2+x,1/2+y,z
1/2-x,-y,1/2+z
1/2+x,1/2-y,-z
1/2-x,y,1/2-z
1/2-x,1/2-y,-z
1/2+x,y,1/2-z
1/2-x,1/2+y,z
1/2+x,-y,1/2+z
loop_
_atom_site_type_symbol
_atom_site_label
_atom_site_fract_x
_atom_site_fract_y
_atom_site_fract_z
Si Si1 0.000000 0.382806 0.606250
Si Si2 0.328057 0.500000 0.500000
Si Si3 0.577536 0.824504 0.249954
Si Si4 0.225193 0.878474 0.897873
Si Si5 0.615881 0.238563 0.496224
Si Si6 0.616854 0.497412 0.792976
O O1 0.056578 0.318446 0.555079
O O2 0.055587 0.447282 0.658578
O O3 0.281373 0.419262 0.512640
O O4 0.370810 0.505194 0.366533
O O5 0.500000 0.827062 0.246652
O O6 0.602111 0.749406 0.345109
O O7 0.606474 0.816211 0.101549
O O8 0.604270 0.906398 0.322243
O O9 0.250000 0.849398 0.750000
O O10 0.183182 0.807087 0.967749
O O11 0.178272 0.955441 0.861343
#
# Coordination Sequence:
#
# PCOD9479447 Si02
#       6
#     8   8  16  16  16  16
#     4  10  20  40  60  94 118 163 206 260 334 379
#     4  10  20  41  62  97 126 168 216 276 318 372
#     4  12  23  42  60  97 130 168 210 261 326 388
#     4   9  20  41  64  89 124 167 216 263 314 382
#     4  11  24  41  65  91 130 172 211 262 321 389
#     4  10  22  37  66  95 129 162 218 270 326 389
#
# _framework density 24.111756
#
# number of rings (size 3 to 8) (size 9 to 14) (size 15 to 20)
#    0.000    1.600    3.000    1.200    0.000    8.400 
#    3.600    7.000    0.000    0.000    0.000    0.000 
#    0.000    0.000    0.000    0.000    0.000    0.000 
#
# Total GULP energy -222903.114820 kJ/mol
# GULP energy per Si atom -5572.577871 kJ/mol
# Density = 2.405688 g / cm^3
# Si number density = 24.111756 Si / 1000 Ang^3
#
#
#
# Elastic Constant Matrix: (Units=GPa)
#
#
# Indices 1 2 3 4 5 6 
#
# 1 95.7643 22.8382 28.8497 0.0000 0.0000 0.0000
# 2 22.8382 41.1853 -1.7641 0.0000 0.0000 0.0000
# 3 28.8497 -1.7641 68.6826 0.0000 0.0000 0.0000
# 4 0.0000 0.0000 0.0000 19.9729 0.0000 0.0000
# 5 0.0000 0.0000 0.0000 0.0000 17.4591 0.0000
# 6 0.0000 0.0000 0.0000 0.0000 0.0000 32.3162
#
#
#
# Elastic Compliance Matrix: (Units=1/GPa)
#
#
# Indices 1 2 3 4 5 6 
#
# 1 0.014259 -0.008172 -0.006199 0.000000 0.000000 0.000000
# 2 -0.008172 0.028991 0.004177 0.000000 0.000000 0.000000
# 3 -0.006199 0.004177 0.017271 0.000000 0.000000 0.000000
# 4 0.000000 0.000000 0.000000 0.050068 0.000000 0.000000
# 5 0.000000 0.000000 0.000000 0.000000 0.057277 0.000000
# 6 0.000000 0.000000 0.000000 0.000000 0.000000 0.030944
#
#
# Mechanical properties :
#
#
# Convention : Reuss Voigt Hill
#
# Bulk Modulus (GPa) = 24.91743 33.94221 29.42982
# Shear Modulus (GPa) = 21.49836 24.33020 22.91428
#
# Velocity S-wave (km/s) = 2.98923 3.18002 3.08610
# Velocity P-wave (km/s) = 4.71917 5.25271 4.99307
#
# Compressibility (1/GPa) = 0.04013255
#
# Stress axis : x y z
#
# Youngs Moduli (GPa) = 70.13184 34.49319 57.90062
#
# Poissons Ratio (x) = 0.28189 0.35894
# Poissons Ratio (y) = 0.57315 -0.24187
# Poissons Ratio (z) = 0.43476 -0.14409
#
# Static dielectric constant tensor:
#      x y z
#    x 1.840130 0.000000 0.000000 
#    y 0.000000 1.988970 0.000000 
#    z 0.000000 0.000000 2.024740 
# 
# From -- ./inp_files/17069.got.cif
#   From: 2010.05.17/outbox.cif.g08.bks.cpg/sg64_9_cif.got.tgz:17069.got - 2010.06.03 16:29:19.
