data_PCOD9479478
_publ_section_title
;
Structure prediction by ZEFSAII (Michael W. Deem and Ramdas Pophale) SiO2 
 PCOD9479478
Probable space group: C M C A
;
_chemical_formula_sum "Si O2"
_cell_formula_units_Z 116
_cell_length_a 18.864962
_cell_length_b 18.781516
_cell_length_c 17.072996
_cell_angle_alpha 90.000000
_cell_angle_beta 90.000000
_cell_angle_gamma 90.000000
_cell_volume 6049.177357
_symmetry_space_group_name_H-M "C M C A"
_symmetry_group_IT_number 64
_symmetry_cell_setting 'orthorhombic'
loop_
_space_group_symop_operation_xyz
x,y,z
-x,1/2-y,1/2+z
x,-y,-z
-x,1/2+y,1/2-z
-x,-y,-z
x,1/2+y,1/2-z
-x,y,z
x,1/2-y,1/2+z
1/2+x,1/2+y,z
1/2-x,-y,1/2+z
1/2+x,1/2-y,-z
1/2-x,y,1/2-z
1/2-x,1/2-y,-z
1/2+x,y,1/2-z
1/2-x,1/2+y,z
1/2+x,-y,1/2+z
loop_
_atom_site_type_symbol
_atom_site_label
_atom_site_fract_x
_atom_site_fract_y
_atom_site_fract_z
Si Si1 0.812448 0.204487 0.186629
Si Si2 0.338491 0.861943 0.128506
Si Si3 0.415745 0.120137 0.209411
Si Si4 0.187139 0.563848 0.615323
Si Si5 0.083412 0.954894 0.253883
Si Si6 0.500000 0.500000 0.500000
Si Si7 0.711882 0.410451 0.941967
Si Si8 0.372047 0.106809 0.042034
O O1 0.750000 0.195622 0.250000
O O2 0.825036 0.286624 0.168368
O O3 0.881103 0.168039 0.224240
O O4 0.794237 0.160555 0.108367
O O5 0.265706 0.907744 0.136364
O O6 0.399410 0.907754 0.170135
O O7 0.361745 0.850083 0.038468
O O8 0.500000 0.125267 0.209386
O O9 0.385819 0.144074 0.124970
O O10 0.396924 0.036846 0.225328
O O11 0.130915 0.577419 0.683808
O O12 0.182532 0.478796 0.603200
O O13 0.176615 0.595232 0.527712
O O14 0.000000 0.953467 0.235403
O O15 0.562598 0.446248 0.532165
O O16 0.794943 0.429092 0.951355
#
# Coordination Sequence:
#
# PCOD9479478 Si02
#       8
#    16  16  16  16  16   4  16  16
#     4  12  24  43  67  93 129 176 217 268 332 398
#     4  11  26  40  63  99 131 164 213 274 336 390
#     4  11  23  41  65  95 129 171 218 263 328 400
#     4  10  20  40  64  96 127 163 218 270 316 380
#     4  11  23  39  65  95 128 172 216 272 325 385
#     4  12  20  36  68 100 132 160 212 258 340 384
#     4  10  21  40  67  96 124 167 223 272 315 385
#     4  11  22  37  62  96 128 164 205 272 326 385
#
# _framework density 19.176161
#
# number of rings (size 3 to 8) (size 9 to 14) (size 15 to 20)
#    0.000    1.103    3.448    4.552    2.897    2.759 
#    2.483    2.069    0.000    0.000    0.000    0.000 
#    0.000    0.000    0.000    0.000    0.000    0.000 
#
# Total GULP energy -323259.664277 kJ/mol
# GULP energy per Si atom -5573.442488 kJ/mol
# Density = 1.913251 g / cm^3
# Si number density = 19.176161 Si / 1000 Ang^3
#
#
#
# Elastic Constant Matrix: (Units=GPa)
#
#
# Indices 1 2 3 4 5 6 
#
# 1 60.3391 0.4161 47.0139 0.0000 0.0000 0.0000
# 2 0.4161 52.6211 27.5400 0.0000 0.0000 0.0000
# 3 47.0139 27.5400 93.4154 0.0000 0.0000 0.0000
# 4 0.0000 0.0000 0.0000 17.7665 0.0000 0.0000
# 5 0.0000 0.0000 0.0000 0.0000 22.5912 0.0000
# 6 0.0000 0.0000 0.0000 0.0000 0.0000 6.2961
#
#
#
# Elastic Compliance Matrix: (Units=1/GPa)
#
#
# Indices 1 2 3 4 5 6 
#
# 1 0.030659 0.009262 -0.018161 0.000000 0.000000 0.000000
# 2 0.009262 0.025269 -0.012111 0.000000 0.000000 0.000000
# 3 -0.018161 -0.012111 0.023415 0.000000 0.000000 0.000000
# 4 0.000000 0.000000 0.000000 0.056286 0.000000 0.000000
# 5 0.000000 0.000000 0.000000 0.000000 0.044265 0.000000
# 6 0.000000 0.000000 0.000000 0.000000 0.000000 0.158828
#
#
# Mechanical properties :
#
#
# Convention : Reuss Voigt Hill
#
# Bulk Modulus (GPa) = 26.79212 39.59062 33.19137
# Shear Modulus (GPa) = 12.71671 18.09113 15.40392
#
# Velocity S-wave (km/s) = 2.57797 3.07484 2.83730
# Velocity P-wave (km/s) = 4.78154 5.77034 5.29905
#
# Compressibility (1/GPa) = 0.03732441
#
# Stress axis : x y z
#
# Youngs Moduli (GPa) = 32.61652 39.57403 42.70709
#
# Poissons Ratio (x) = -0.36655 0.77559
# Poissons Ratio (y) = -0.30210 0.51723
# Poissons Ratio (z) = 0.59234 0.47929
#
# Static dielectric constant tensor:
#      x y z
#    x 1.645550 0.000000 0.000000 
#    y 0.000000 1.652970 0.000000 
#    z 0.000000 0.000000 1.717030 
# 
# From -- ./inp_files/33457.got.cif
#   From: 2010.05.17/outbox.cif.g08.bks.cpg/sg64_17_cif.got.tgz:33457.got - 2010.06.03 16:29:19.
