data_PCOD9479985
_publ_section_title
;
Structure prediction by ZEFSAII (Michael W. Deem and Ramdas Pophale) SiO2 
 PCOD9479985
Probable space group: C M C A
;
_chemical_formula_sum "Si O2"
_cell_formula_units_Z 112
_cell_length_a 28.822614
_cell_length_b 11.660512
_cell_length_c 17.023764
_cell_angle_alpha 90.000000
_cell_angle_beta 90.000000
_cell_angle_gamma 90.000000
_cell_volume 5721.456177
_symmetry_space_group_name_H-M "C M C A"
_symmetry_group_IT_number 64
_symmetry_cell_setting 'orthorhombic'
loop_
_space_group_symop_operation_xyz
x,y,z
-x,1/2-y,1/2+z
x,-y,-z
-x,1/2+y,1/2-z
-x,-y,-z
x,1/2+y,1/2-z
-x,y,z
x,1/2-y,1/2+z
1/2+x,1/2+y,z
1/2-x,-y,1/2+z
1/2+x,1/2-y,-z
1/2-x,y,1/2-z
1/2-x,1/2-y,-z
1/2+x,y,1/2-z
1/2-x,1/2+y,z
1/2+x,-y,1/2+z
loop_
_atom_site_type_symbol
_atom_site_label
_atom_site_fract_x
_atom_site_fract_y
_atom_site_fract_z
Si Si1 0.949765 0.873143 0.031993
Si Si2 0.555017 0.214797 0.698021
Si Si3 0.131153 0.629731 0.813634
Si Si4 0.206682 0.703934 0.696526
Si Si5 0.860878 0.241615 0.030328
Si Si6 0.866704 0.375334 0.873731
Si Si7 0.227451 0.373481 0.473460
O O1 0.940811 0.874352 0.125377
O O2 0.000000 0.816803 0.022185
O O3 0.911755 0.806205 0.983879
O O4 0.950950 0.000000 0.000000
O O5 0.500000 0.238010 0.711181
O O6 0.582787 0.167576 0.773187
O O7 0.586292 0.318182 0.662175
O O8 0.169978 0.630106 0.746151
O O9 0.145923 0.718027 0.881455
O O10 0.129820 0.507672 0.855151
O O11 0.250000 0.736360 0.750000
O O12 0.176747 0.813317 0.668557
O O13 0.224588 0.635507 0.620471
O O14 0.858483 0.342491 0.964877
O O15 0.824364 0.143583 0.007122
O O16 0.245576 0.500000 0.500000
O O17 0.250000 0.250000 0.500000
#
# Coordination Sequence:
#
# PCOD9479985 Si02
#       7
#    16  16  16  16  16  16  16
#     4   9  18  35  59  82 108 147 190 233 284 345
#     4   9  20  37  54  81 117 149 191 245 298 350
#     4  11  22  36  59  88 115 151 197 244 295 351
#     4  10  23  40  59  87 118 150 190 242 297 349
#     4  10  21  38  58  83 118 153 192 237 289 354
#     4   9  21  39  58  82 116 156 193 237 295 358
#     4  11  25  43  64  89 119 160 203 243 294 358
#
# _framework density 19.575436
#
# number of rings (size 3 to 8) (size 9 to 14) (size 15 to 20)
#    0.000    2.143    0.000    2.571    0.000   12.000 
#    0.000    1.429    0.000    4.286    0.000    0.000 
#    0.000    0.000    0.000    0.000    0.000    0.000 
#
# Total GULP energy -312227.265535 kJ/mol
# GULP energy per Si atom -5575.486885 kJ/mol
# Density = 1.953088 g / cm^3
# Si number density = 19.575436 Si / 1000 Ang^3
#
#
#
# Elastic Constant Matrix: (Units=GPa)
#
#
# Indices 1 2 3 4 5 6 
#
# 1 91.0015 11.8633 30.2689 0.0000 0.0000 0.0000
# 2 11.8633 55.1542 32.8990 0.0000 0.0000 0.0000
# 3 30.2689 32.8990 103.0593 0.0000 0.0000 0.0000
# 4 0.0000 0.0000 0.0000 16.1753 0.0000 0.0000
# 5 0.0000 0.0000 0.0000 0.0000 24.6161 0.0000
# 6 0.0000 0.0000 0.0000 0.0000 0.0000 0.9117
#
#
#
# Elastic Compliance Matrix: (Units=1/GPa)
#
#
# Indices 1 2 3 4 5 6 
#
# 1 0.012195 -0.000601 -0.003390 0.000000 0.000000 0.000000
# 2 -0.000601 0.022425 -0.006982 0.000000 0.000000 0.000000
# 3 -0.003390 -0.006982 0.012928 0.000000 0.000000 0.000000
# 4 0.000000 0.000000 0.000000 0.061823 0.000000 0.000000
# 5 0.000000 0.000000 0.000000 0.000000 0.040624 0.000000
# 6 0.000000 0.000000 0.000000 0.000000 0.000000 1.096800
#
#
# Mechanical properties :
#
#
# Convention : Reuss Voigt Hill
#
# Bulk Modulus (GPa) = 39.06014 44.36415 41.71214
# Shear Modulus (GPa) = 3.91459 19.95287 11.93373
#
# Velocity S-wave (km/s) = 1.41566 3.19608 2.47174
# Velocity P-wave (km/s) = 4.76121 6.02763 5.43145
#
# Compressibility (1/GPa) = 0.02560155
#
# Stress axis : x y z
#
# Youngs Moduli (GPa) = 82.00297 44.59303 77.35400
#
# Poissons Ratio (x) = 0.02680 0.26221
# Poissons Ratio (y) = 0.04929 0.54009
# Poissons Ratio (z) = 0.27797 0.31135
#
# Static dielectric constant tensor:
#      x y z
#    x 1.731180 0.000000 0.000000 
#    y 0.000000 1.658070 0.000000 
#    z 0.000000 0.000000 1.698080 
# 
# From -- ./inp_files/28373.got.cif
#   From: 2010.05.17/outbox.cif.g08.bks.cpg/sg64_15_cif.got.tgz:28373.got - 2010.06.03 16:29:19.
