data_PCOD9479749
_publ_section_title
;
Structure prediction by ZEFSAII (Michael W. Deem and Ramdas Pophale) SiO2 
 PCOD9479749
Probable space group: C M C A
;
_chemical_formula_sum "Si O2"
_cell_formula_units_Z 104
_cell_length_a 21.547009
_cell_length_b 24.398424
_cell_length_c 9.688329
_cell_angle_alpha 90.000000
_cell_angle_beta 90.000000
_cell_angle_gamma 90.000000
_cell_volume 5093.281100
_symmetry_space_group_name_H-M "C M C A"
_symmetry_group_IT_number 64
_symmetry_cell_setting 'orthorhombic'
loop_
_space_group_symop_operation_xyz
x,y,z
-x,1/2-y,1/2+z
x,-y,-z
-x,1/2+y,1/2-z
-x,-y,-z
x,1/2+y,1/2-z
-x,y,z
x,1/2-y,1/2+z
1/2+x,1/2+y,z
1/2-x,-y,1/2+z
1/2+x,1/2-y,-z
1/2-x,y,1/2-z
1/2-x,1/2-y,-z
1/2+x,y,1/2-z
1/2-x,1/2+y,z
1/2+x,-y,1/2+z
loop_
_atom_site_type_symbol
_atom_site_label
_atom_site_fract_x
_atom_site_fract_y
_atom_site_fract_z
Si Si1 0.000000 0.368608 0.917464
Si Si2 0.500000 0.741179 0.599261
Si Si3 0.633946 0.378423 0.476131
Si Si4 0.629575 0.131063 0.495295
Si Si5 0.122377 0.204952 0.757059
Si Si6 0.179899 0.684197 0.230816
Si Si7 0.244468 0.944946 0.084228
Si Si8 0.500000 0.870378 0.583382
O O1 0.000000 0.373288 0.751141
O O2 0.000000 0.305318 0.977697
O O3 0.064157 0.394123 0.977519
O O4 0.559398 0.729891 0.695899
O O5 0.500000 0.804421 0.554313
O O6 0.632523 0.350540 0.327189
O O7 0.654431 0.330296 0.581072
O O8 0.689462 0.421978 0.472340
O O9 0.623429 0.186061 0.585884
O O10 0.641506 0.149288 0.339366
O O11 0.687769 0.096487 0.550294
O O12 0.561426 0.104690 0.487142
O O13 0.172894 0.251897 0.737551
O O14 0.250000 0.666791 0.250000
O O15 0.250000 0.952633 0.250000
O O16 0.231002 0.000000 0.000000
#
# Coordination Sequence:
#
# PCOD9479749 Si02
#       8
#     8   8  16  16  16  16  16   8
#     4  10  22  38  63  95 139 180 229 264 330 404
#     4  10  21  36  57  93 140 200 223 258 315 400
#     4  11  23  44  65  97 137 180 226 278 333 413
#     4  12  25  42  66 101 139 182 230 286 336 397
#     4  11  23  38  60  94 143 184 229 266 323 407
#     4  12  24  34  61  97 142 188 225 266 333 405
#     4  12  29  52  77  99 126 172 234 298 362 411
#     4  12  23  36  64 100 144 182 232 267 322 397
#
# _framework density 20.419059000000001
#
# number of rings (size 3 to 8) (size 9 to 14) (size 15 to 20)
#    0.000    0.615    6.154    1.385    8.615    1.231 
#    0.000    0.769    0.000    0.000    0.000    0.000 
#    0.000    0.000    0.000    0.000    0.000    0.000 
#
# Total GULP energy -290409.595277 kJ/mol
# GULP energy per Si atom -5584.799909 kJ/mol
# Density = 2.037258 g / cm^3
# Si number density = 20.419059 Si / 1000 Ang^3
#
#
#
# Elastic Constant Matrix: (Units=GPa)
#
#
# Indices 1 2 3 4 5 6 
#
# 1 144.5932 21.2168 19.9099 0.0000 0.0000 0.0000
# 2 21.2168 39.3950 13.6826 0.0000 0.0000 0.0000
# 3 19.9099 13.6826 55.9051 0.0000 0.0000 0.0000
# 4 0.0000 0.0000 0.0000 22.4617 0.0000 0.0000
# 5 0.0000 0.0000 0.0000 0.0000 26.4494 0.0000
# 6 0.0000 0.0000 0.0000 0.0000 0.0000 29.7910
#
#
#
# Elastic Compliance Matrix: (Units=1/GPa)
#
#
# Indices 1 2 3 4 5 6 
#
# 1 0.007687 -0.003485 -0.001885 0.000000 0.000000 0.000000
# 2 -0.003485 0.029322 -0.005935 0.000000 0.000000 0.000000
# 3 -0.001885 -0.005935 0.020011 0.000000 0.000000 0.000000
# 4 0.000000 0.000000 0.000000 0.044520 0.000000 0.000000
# 5 0.000000 0.000000 0.000000 0.000000 0.037808 0.000000
# 6 0.000000 0.000000 0.000000 0.000000 0.000000 0.033567
#
#
# Mechanical properties :
#
#
# Convention : Reuss Voigt Hill
#
# Bulk Modulus (GPa) = 29.06118 38.83464 33.94791
# Shear Modulus (GPa) = 24.15499 28.07936 26.11718
#
# Velocity S-wave (km/s) = 3.44315 3.71233 3.58027
# Velocity P-wave (km/s) = 5.48364 6.11844 5.80972
#
# Compressibility (1/GPa) = 0.03441017
#
# Stress axis : x y z
#
# Youngs Moduli (GPa) = 130.09197 34.10353 49.97190
#
# Poissons Ratio (x) = 0.11886 0.09417
# Poissons Ratio (y) = 0.45341 0.29660
# Poissons Ratio (z) = 0.24516 0.20242
#
# Static dielectric constant tensor:
#      x y z
#    x 1.774830 0.000000 0.000000 
#    y 0.000000 1.683940 0.000000 
#    z 0.000000 0.000000 1.714550 
# 
# From -- ./inp_files/8597.got.cif
#   From: 2010.05.17/outbox.cif.g08.bks.cpg/sg64_5_cif.got.tgz:8597.got - 2010.06.03 16:29:19.
