data_PCOD9479330
_publ_section_title
;
Structure prediction by ZEFSAII (Michael W. Deem and Ramdas Pophale) SiO2 
 PCOD9479330
Probable space group: C M C A
;
_chemical_formula_sum "Si O2"
_cell_formula_units_Z 96
_cell_length_a 13.893469
_cell_length_b 24.082032
_cell_length_c 11.982956
_cell_angle_alpha 90.000000
_cell_angle_beta 90.000000
_cell_angle_gamma 90.000000
_cell_volume 4009.292949
_symmetry_space_group_name_H-M "C M C A"
_symmetry_group_IT_number 64
_symmetry_cell_setting 'orthorhombic'
loop_
_space_group_symop_operation_xyz
x,y,z
-x,1/2-y,1/2+z
x,-y,-z
-x,1/2+y,1/2-z
-x,-y,-z
x,1/2+y,1/2-z
-x,y,z
x,1/2-y,1/2+z
1/2+x,1/2+y,z
1/2-x,-y,1/2+z
1/2+x,1/2-y,-z
1/2-x,y,1/2-z
1/2-x,1/2-y,-z
1/2+x,y,1/2-z
1/2-x,1/2+y,z
1/2+x,-y,1/2+z
loop_
_atom_site_type_symbol
_atom_site_label
_atom_site_fract_x
_atom_site_fract_y
_atom_site_fract_z
Si Si1 0.611036 0.946923 0.435011
Si Si2 0.383560 0.959776 0.840024
Si Si3 0.608745 0.124617 0.351404
Si Si4 0.243276 0.724526 0.126906
Si Si5 0.881755 0.584592 0.805948
Si Si6 0.385365 0.641139 0.483782
O O1 0.500000 0.965080 0.405817
O O2 0.606266 0.898585 0.524327
O O3 0.651216 0.920550 0.321844
O O4 0.653756 0.000000 0.500000
O O5 0.500000 0.961555 0.847056
O O6 0.359579 0.927517 0.725411
O O7 0.349963 0.917172 0.933118
O O8 0.353560 0.023096 0.849441
O O9 0.500000 0.138472 0.315299
O O10 0.674654 0.178137 0.355050
O O11 0.250000 0.754422 0.250000
O O12 0.148447 0.687815 0.102164
O O13 0.250000 0.750000 0.000000
O O14 0.000000 0.587309 0.805626
O O15 0.852382 0.635177 0.887302
O O16 0.500000 0.642851 0.484890
#
# Coordination Sequence:
#
# PCOD9479330 Si02
#       6
#    16  16  16  16  16  16
#     4   9  15  27  52  89 131 172 207 242 296 371
#     4   9  15  29  59  92 123 163 201 235 294 377
#     4  10  20  38  66  93 123 166 210 255 318 389
#     4  12  28  48  69  91 121 164 221 286 342 390
#     4   9  16  28  55  97 136 170 206 246 300 377
#     4  10  21  39  64  93 128 168 209 260 323 389
#
# _framework density 23.944372000000001
#
# number of rings (size 3 to 8) (size 9 to 14) (size 15 to 20)
#    0.000    2.167    3.333    0.500    0.000    4.000 
#    0.000    1.667    3.667    0.000    0.000    0.000 
#    0.000    0.000    0.000    0.000    0.000    0.000 
#
# Total GULP energy -267540.344512 kJ/mol
# GULP energy per Si atom -5573.757177 kJ/mol
# Density = 2.388987 g / cm^3
# Si number density = 23.944372 Si / 1000 Ang^3
#
#
#
# Elastic Constant Matrix: (Units=GPa)
#
#
# Indices 1 2 3 4 5 6 
#
# 1 66.2947 4.5023 17.5584 0.0000 0.0000 0.0000
# 2 4.5023 21.4962 36.3248 0.0000 0.0000 0.0000
# 3 17.5584 36.3248 207.8782 0.0000 0.0000 0.0000
# 4 0.0000 0.0000 0.0000 41.8469 0.0000 0.0000
# 5 0.0000 0.0000 0.0000 0.0000 22.3718 0.0000
# 6 0.0000 0.0000 0.0000 0.0000 0.0000 -13.2935
#
#
#
# Elastic Compliance Matrix: (Units=1/GPa)
#
#
# Indices 1 2 3 4 5 6 
#
# 1 0.015462 -0.001464 -0.001050 0.000000 0.000000 0.000000
# 2 -0.001464 0.066151 -0.011436 0.000000 0.000000 0.000000
# 3 -0.001050 -0.011436 0.006897 0.000000 0.000000 0.000000
# 4 0.000000 0.000000 0.000000 0.023897 0.000000 0.000000
# 5 0.000000 0.000000 0.000000 0.000000 0.044699 0.000000
# 6 0.000000 0.000000 0.000000 0.000000 0.000000 -0.075225
#
#
# Mechanical properties :
#
#
# Convention : Reuss Voigt Hill
#
# Bulk Modulus (GPa) = 16.49872 45.82667 31.16269
# Shear Modulus (GPa) = 38.46653 26.00395 32.23524
#
# Velocity S-wave (km/s) = 4.01246 3.29905 3.67312
# Velocity P-wave (km/s) = 5.32652 5.80448 5.57063
#
# Compressibility (1/GPa) = 0.06061076
#
# Stress axis : x y z
#
# Youngs Moduli (GPa) = 64.67584 15.11704 144.98050
#
# Poissons Ratio (x) = 0.02213 0.15226
# Poissons Ratio (y) = 0.09467 1.65794
# Poissons Ratio (z) = 0.06792 0.17287
#
# Static dielectric constant tensor:
#      x y z
#    x 2.037830 0.000000 0.000000 
#    y 0.000000 1.946090 0.000000 
#    z 0.000000 0.000000 2.023860 
# 
# From -- ./inp_files/16219.got.cif
#   From: 2010.05.17/outbox.cif.g08.bks.cpg/sg64_9_cif.got.tgz:16219.got - 2010.06.03 16:29:19.
