data_PCOD9479808
_publ_section_title
;
Structure prediction by ZEFSAII (Michael W. Deem and Ramdas Pophale) SiO2 
 PCOD9479808
Probable space group: C M C A
;
_chemical_formula_sum "Si O2"
_cell_formula_units_Z 64
_cell_length_a 14.472875
_cell_length_b 14.504221
_cell_length_c 16.637194
_cell_angle_alpha 90.000000
_cell_angle_beta 90.000000
_cell_angle_gamma 90.000000
_cell_volume 3492.442788
_symmetry_space_group_name_H-M "C M C A"
_symmetry_group_IT_number 64
_symmetry_cell_setting 'orthorhombic'
loop_
_space_group_symop_operation_xyz
x,y,z
-x,1/2-y,1/2+z
x,-y,-z
-x,1/2+y,1/2-z
-x,-y,-z
x,1/2+y,1/2-z
-x,y,z
x,1/2-y,1/2+z
1/2+x,1/2+y,z
1/2-x,-y,1/2+z
1/2+x,1/2-y,-z
1/2-x,y,1/2-z
1/2-x,1/2-y,-z
1/2+x,y,1/2-z
1/2-x,1/2+y,z
1/2+x,-y,1/2+z
loop_
_atom_site_type_symbol
_atom_site_label
_atom_site_fract_x
_atom_site_fract_y
_atom_site_fract_z
Si Si1 0.393976 0.938742 0.918353
Si Si2 0.774047 0.908917 0.342354
Si Si3 0.889713 0.213566 0.538823
Si Si4 0.895789 0.099547 0.959645
O O1 0.500000 0.934316 0.888173
O O2 0.326266 0.993324 0.859050
O O3 0.365006 0.840351 0.955498
O O4 0.394720 0.000000 0.000000
O O5 0.750000 0.894251 0.250000
O O6 0.838155 0.832545 0.386340
O O7 0.678614 0.904580 0.390320
O O8 0.870727 0.320534 0.523165
O O9 0.000000 0.200179 0.549486
O O10 0.000000 0.120853 0.931198
O O11 0.895968 0.000000 0.000000
#
# Coordination Sequence:
#
# PCOD9479808 Si02
#       4
#    16  16  16  16
#     4   8  15  31  55  77  97 130 177 217 250 302
#     4  11  21  32  52  82 112 137 165 219 279 322
#     4   9  18  36  60  78  98 139 189 224 253 308
#     4  10  21  37  55  75 104 144 185 221 260 312
#
# _framework density 18.325281
#
# number of rings (size 3 to 8) (size 9 to 14) (size 15 to 20)
#    0.000    2.500    0.000    5.250    0.000    2.000 
#    0.000    5.000    0.000    9.000    0.000    0.000 
#    0.000    0.000    0.000    0.000    0.000    0.000 
#
# Total GULP energy -178392.851152 kJ/mol
# GULP energy per Si atom -5574.776598 kJ/mol
# Density = 1.828357 g / cm^3
# Si number density = 18.325281 Si / 1000 Ang^3
#
#
#
# Elastic Constant Matrix: (Units=GPa)
#
#
# Indices 1 2 3 4 5 6 
#
# 1 120.0596 33.2448 75.9341 0.0000 0.0000 0.0000
# 2 33.2448 121.7361 41.6228 0.0000 0.0000 0.0000
# 3 75.9341 41.6228 113.2445 0.0000 0.0000 0.0000
# 4 0.0000 0.0000 0.0000 3.9435 0.0000 0.0000
# 5 0.0000 0.0000 0.0000 0.0000 -5.3823 0.0000
# 6 0.0000 0.0000 0.0000 0.0000 0.0000 38.5083
#
#
#
# Elastic Compliance Matrix: (Units=1/GPa)
#
#
# Indices 1 2 3 4 5 6 
#
# 1 0.014519 -0.000728 -0.009468 0.000000 0.000000 0.000000
# 2 -0.000728 0.009432 -0.002979 0.000000 0.000000 0.000000
# 3 -0.009468 -0.002979 0.016274 0.000000 0.000000 0.000000
# 4 0.000000 0.000000 0.000000 0.253585 0.000000 0.000000
# 5 0.000000 0.000000 0.000000 0.000000 -0.185795 0.000000
# 6 0.000000 0.000000 0.000000 0.000000 0.000000 0.025968
#
#
# Mechanical properties :
#
#
# Convention : Reuss Voigt Hill
#
# Bulk Modulus (GPa) = 72.06804 72.96040 72.51422
# Shear Modulus (GPa) = 30.31111 21.02980 25.67046
#
# Velocity S-wave (km/s) = 4.07143 3.39128 3.74682
# Velocity P-wave (km/s) = 7.84312 7.43201 7.64033
#
# Compressibility (1/GPa) = 0.01387578
#
# Stress axis : x y z
#
# Youngs Moduli (GPa) = 68.87581 106.02608 61.44865
#
# Poissons Ratio (x) = 0.07716 0.58179
# Poissons Ratio (y) = 0.05013 0.18303
# Poissons Ratio (z) = 0.65211 0.31581
#
# Static dielectric constant tensor:
#      x y z
#    x 1.681780 0.000000 0.000000 
#    y 0.000000 1.703030 0.000000 
#    z 0.000000 0.000000 1.579950 
# 
# From -- ./inp_files/23215.got.cif
#   From: 2010.05.17/outbox.cif.g08.bks.cpg/sg64_12_cif.got.tgz:23215.got - 2010.06.03 16:29:19.
