data_PCOD9479320
_publ_section_title
;
Structure prediction by ZEFSAII (Michael W. Deem and Ramdas Pophale) SiO2 
 PCOD9479320
Probable space group: C M C A
;
_chemical_formula_sum "Si O2"
_cell_formula_units_Z 116
_cell_length_a 8.086795
_cell_length_b 25.157861
_cell_length_c 27.707238
_cell_angle_alpha 90.000000
_cell_angle_beta 90.000000
_cell_angle_gamma 90.000000
_cell_volume 5636.939613
_symmetry_space_group_name_H-M "C M C A"
_symmetry_group_IT_number 64
_symmetry_cell_setting 'orthorhombic'
loop_
_space_group_symop_operation_xyz
x,y,z
-x,1/2-y,1/2+z
x,-y,-z
-x,1/2+y,1/2-z
-x,-y,-z
x,1/2+y,1/2-z
-x,y,z
x,1/2-y,1/2+z
1/2+x,1/2+y,z
1/2-x,-y,1/2+z
1/2+x,1/2-y,-z
1/2-x,y,1/2-z
1/2-x,1/2-y,-z
1/2+x,y,1/2-z
1/2-x,1/2+y,z
1/2+x,-y,1/2+z
loop_
_atom_site_type_symbol
_atom_site_label
_atom_site_fract_x
_atom_site_fract_y
_atom_site_fract_z
Si Si1 0.000000 0.500000 0.000000
Si Si2 0.805727 0.852608 0.423079
Si Si3 0.799481 0.543784 0.305088
Si Si4 0.688955 0.965010 0.383560
Si Si5 0.802690 0.336633 0.694686
Si Si6 0.798963 0.666511 0.032109
Si Si7 0.803670 0.755123 0.612370
Si Si8 0.186334 0.942746 0.963705
O O1 0.149355 0.544989 0.005107
O O2 0.764850 0.910883 0.403146
O O3 0.737172 0.839907 0.476914
O O4 0.751997 0.805671 0.387376
O O5 0.000000 0.849240 0.428102
O O6 0.750000 0.535187 0.250000
O O7 0.733079 0.496186 0.338400
O O8 0.740753 0.603552 0.318169
O O9 0.000000 0.543621 0.309838
O O10 0.500000 0.951579 0.371772
O O11 0.688550 0.010895 0.424187
O O12 0.750000 0.325738 0.750000
O O13 0.747687 0.291962 0.657050
O O14 0.000000 0.338650 0.693766
O O15 0.742597 0.717524 0.062371
O O16 0.000000 0.665116 0.033273
O O17 0.721955 0.614856 0.058116
O O18 0.000000 0.755342 0.610776
O O19 0.000000 0.942636 0.985858
#
# Coordination Sequence:
#
# PCOD9479320 Si02
#       8
#     4  16  16  16  16  16  16  16
#     4  12  22  36  52  82 128 148 206 244 296 364
#     4  11  24  39  58  83 117 165 212 256 305 359
#     4   9  19  37  61  92 124 153 192 244 304 372
#     4  10  22  39  58  86 122 161 207 253 306 373
#     4  10  20  38  65  95 124 153 193 247 307 369
#     4  10  22  40  61  88 122 161 210 264 309 365
#     4  11  23  40  62  88 121 160 205 257 312 363
#     4  11  23  37  60  88 120 164 203 253 315 364
#
# _framework density 20.578541999999999
#
# number of rings (size 3 to 8) (size 9 to 14) (size 15 to 20)
#    0.000    1.655    0.690    3.517    2.897    5.517 
#    0.000    0.690    0.000    1.655    0.000    0.000 
#    0.000    0.000    0.000    0.000    0.000    0.000 
#
# Total GULP energy -323231.709584 kJ/mol
# GULP energy per Si atom -5572.960510 kJ/mol
# Density = 2.053170 g / cm^3
# Si number density = 20.578542 Si / 1000 Ang^3
#
#
#
# Elastic Constant Matrix: (Units=GPa)
#
#
# Indices 1 2 3 4 5 6 
#
# 1 71.5982 22.8961 17.6704 0.0000 0.0000 0.0000
# 2 22.8961 149.6551 71.4529 0.0000 0.0000 0.0000
# 3 17.6704 71.4529 103.5396 0.0000 0.0000 0.0000
# 4 0.0000 0.0000 0.0000 28.7958 0.0000 0.0000
# 5 0.0000 0.0000 0.0000 0.0000 21.4376 0.0000
# 6 0.0000 0.0000 0.0000 0.0000 0.0000 18.2092
#
#
#
# Elastic Compliance Matrix: (Units=1/GPa)
#
#
# Indices 1 2 3 4 5 6 
#
# 1 0.014828 -0.001581 -0.001439 0.000000 0.000000 0.000000
# 2 -0.001581 0.010134 -0.006724 0.000000 0.000000 0.000000
# 3 -0.001439 -0.006724 0.014544 0.000000 0.000000 0.000000
# 4 0.000000 0.000000 0.000000 0.034727 0.000000 0.000000
# 5 0.000000 0.000000 0.000000 0.000000 0.046647 0.000000
# 6 0.000000 0.000000 0.000000 0.000000 0.000000 0.054917
#
#
# Mechanical properties :
#
#
# Convention : Reuss Voigt Hill
#
# Bulk Modulus (GPa) = 49.95740 60.98131 55.46935
# Shear Modulus (GPa) = 24.75755 27.87341 26.31548
#
# Velocity S-wave (km/s) = 3.47230 3.68433 3.57989
# Velocity P-wave (km/s) = 6.35649 6.91353 6.64085
#
# Compressibility (1/GPa) = 0.02001706
#
# Stress axis : x y z
#
# Youngs Moduli (GPa) = 67.44114 98.67543 68.75754
#
# Poissons Ratio (x) = 0.15604 0.09896
# Poissons Ratio (y) = 0.10665 0.46231
# Poissons Ratio (z) = 0.09707 0.66347
#
# Static dielectric constant tensor:
#      x y z
#    x 1.734280 0.000000 0.000000 
#    y 0.000000 1.795890 0.000000 
#    z 0.000000 0.000000 1.772040 
# 
# From -- ./inp_files/43415.got.cif
#   From: 2010.05.17/outbox.cif.g08.bks.cpg/sg64_22_cif.got.tgz:43415.got - 2010.06.03 16:29:19.
