data_PCOD9479377
_publ_section_title
;
Structure prediction by ZEFSAII (Michael W. Deem and Ramdas Pophale) SiO2 
 PCOD9479377
Probable space group: C M C A
;
_chemical_formula_sum "Si O2"
_cell_formula_units_Z 120
_cell_length_a 10.989635
_cell_length_b 21.772380
_cell_length_c 24.523995
_cell_angle_alpha 90.000000
_cell_angle_beta 90.000000
_cell_angle_gamma 90.000000
_cell_volume 5867.868773
_symmetry_space_group_name_H-M "C M C A"
_symmetry_group_IT_number 64
_symmetry_cell_setting 'orthorhombic'
loop_
_space_group_symop_operation_xyz
x,y,z
-x,1/2-y,1/2+z
x,-y,-z
-x,1/2+y,1/2-z
-x,-y,-z
x,1/2+y,1/2-z
-x,y,z
x,1/2-y,1/2+z
1/2+x,1/2+y,z
1/2-x,-y,1/2+z
1/2+x,1/2-y,-z
1/2-x,y,1/2-z
1/2-x,1/2-y,-z
1/2+x,y,1/2-z
1/2-x,1/2+y,z
1/2+x,-y,1/2+z
loop_
_atom_site_type_symbol
_atom_site_label
_atom_site_fract_x
_atom_site_fract_y
_atom_site_fract_z
Si Si1 0.224336 0.133651 0.578855
Si Si2 0.797867 0.861976 0.894692
Si Si3 0.136872 0.565380 0.288071
Si Si4 0.138861 0.243060 0.652700
Si Si5 0.860357 0.572351 0.670696
Si Si6 0.130773 0.293039 0.498509
Si Si7 0.250000 0.672205 0.750000
Si Si8 0.139383 0.437064 0.976128
O O1 0.153703 0.187000 0.610570
O O2 0.265845 0.081811 0.621320
O O3 0.345545 0.164110 0.553486
O O4 0.151036 0.108796 0.527330
O O5 0.857826 0.901432 0.846816
O O6 0.769404 0.797417 0.864433
O O7 0.868159 0.835548 0.947689
O O8 0.699522 0.905371 0.923853
O O9 0.250000 0.585743 0.250000
O O10 0.153409 0.492971 0.300015
O O11 0.000000 0.575155 0.264903
O O12 0.170537 0.214841 0.710855
O O13 0.000000 0.266282 0.651184
O O14 0.831098 0.627500 0.712437
O O15 0.000000 0.576258 0.651868
O O16 0.250000 0.250000 0.500000
O O17 0.000000 0.260857 0.495124
O O18 0.000000 0.450169 0.962689
O O19 0.197006 0.500000 0.000000
#
# Coordination Sequence:
#
# PCOD9479377 Si02
#       8
#    16  16  16  16  16  16   8  16
#     4  10  21  37  61  92 121 166 204 257 311 386
#     4  11  24  41  62  92 126 167 209 256 317 386
#     4  11  24  43  67  92 125 167 213 266 319 377
#     4  11  22  39  60  87 124 166 210 262 322 381
#     4  10  20  39  62  90 123 159 209 266 315 372
#     4  11  22  38  60  89 125 166 208 256 310 380
#     4  10  22  38  60  92 118 166 212 270 314 382
#     4  10  22  41  64  94 130 166 211 264 318 380
#
# _framework density 20.450354000000001
#
# number of rings (size 3 to 8) (size 9 to 14) (size 15 to 20)
#    0.000    1.467    2.000    3.200    0.933    2.667 
#    0.000    2.000    0.000    8.400    0.000    0.000 
#    0.000    0.000    0.000    0.000    0.000    0.000 
#
# Total GULP energy -334603.758643 kJ/mol
# GULP energy per Si atom -5576.729311 kJ/mol
# Density = 2.040381 g / cm^3
# Si number density = 20.450354 Si / 1000 Ang^3
#
#
#
# Elastic Constant Matrix: (Units=GPa)
#
#
# Indices 1 2 3 4 5 6 
#
# 1 103.1535 24.9846 31.2992 0.0000 0.0000 0.0000
# 2 24.9846 73.0153 20.1703 0.0000 0.0000 0.0000
# 3 31.2992 20.1703 94.0388 0.0000 0.0000 0.0000
# 4 0.0000 0.0000 0.0000 31.8859 0.0000 0.0000
# 5 0.0000 0.0000 0.0000 0.0000 9.7303 0.0000
# 6 0.0000 0.0000 0.0000 0.0000 0.0000 18.8147
#
#
#
# Elastic Compliance Matrix: (Units=1/GPa)
#
#
# Indices 1 2 3 4 5 6 
#
# 1 0.011380 -0.003027 -0.003138 0.000000 0.000000 0.000000
# 2 -0.003027 0.015364 -0.002288 0.000000 0.000000 0.000000
# 3 -0.003138 -0.002288 0.012169 0.000000 0.000000 0.000000
# 4 0.000000 0.000000 0.000000 0.031362 0.000000 0.000000
# 5 0.000000 0.000000 0.000000 0.000000 0.102772 0.000000
# 6 0.000000 0.000000 0.000000 0.000000 0.000000 0.053150
#
#
# Mechanical properties :
#
#
# Convention : Reuss Voigt Hill
#
# Bulk Modulus (GPa) = 45.44179 47.01288 46.22734
# Shear Modulus (GPa) = 19.96506 25.00306 22.48406
#
# Velocity S-wave (km/s) = 3.12792 3.50040 3.31939
# Velocity P-wave (km/s) = 5.94256 6.27501 6.11104
#
# Compressibility (1/GPa) = 0.02200617
#
# Stress axis : x y z
#
# Youngs Moduli (GPa) = 87.87600 65.08911 82.17499
#
# Poissons Ratio (x) = 0.19702 0.25789
# Poissons Ratio (y) = 0.26600 0.18800
# Poissons Ratio (z) = 0.27578 0.14891
#
# Static dielectric constant tensor:
#      x y z
#    x 1.737440 0.000000 0.000000 
#    y 0.000000 1.759570 0.000000 
#    z 0.000000 0.000000 1.731570 
# 
# From -- ./inp_files/44473.got.cif
#   From: 2010.05.17/outbox.cif.g08.bks.cpg/sg64_23_cif.got.tgz:44473.got - 2010.06.03 16:29:19.
