data_PCOD9479975
_publ_section_title
;
Structure prediction by ZEFSAII (Michael W. Deem and Ramdas Pophale) SiO2 
 PCOD9479975
Probable space group: C M C A
;
_chemical_formula_sum "Si O2"
_cell_formula_units_Z 100
_cell_length_a 26.062329
_cell_length_b 12.858904
_cell_length_c 13.139665
_cell_angle_alpha 90.000000
_cell_angle_beta 90.000000
_cell_angle_gamma 90.000000
_cell_volume 4403.535175
_symmetry_space_group_name_H-M "C M C A"
_symmetry_group_IT_number 64
_symmetry_cell_setting 'orthorhombic'
loop_
_space_group_symop_operation_xyz
x,y,z
-x,1/2-y,1/2+z
x,-y,-z
-x,1/2+y,1/2-z
-x,-y,-z
x,1/2+y,1/2-z
-x,y,z
x,1/2-y,1/2+z
1/2+x,1/2+y,z
1/2-x,-y,1/2+z
1/2+x,1/2-y,-z
1/2-x,y,1/2-z
1/2-x,1/2-y,-z
1/2+x,y,1/2-z
1/2-x,1/2+y,z
1/2+x,-y,1/2+z
loop_
_atom_site_type_symbol
_atom_site_label
_atom_site_fract_x
_atom_site_fract_y
_atom_site_fract_z
Si Si1 0.826124 0.166074 0.565121
Si Si2 0.775137 0.595140 0.637289
Si Si3 0.000000 0.290783 0.625494
Si Si4 0.000000 0.500000 0.500000
Si Si5 0.082999 0.359701 0.204472
Si Si6 0.361406 0.270979 0.643432
Si Si7 0.500000 0.487200 0.763708
Si Si8 0.802852 0.872706 0.814708
O O1 0.772482 0.105726 0.560126
O O2 0.862039 0.121482 0.653987
O O3 0.860010 0.171526 0.463924
O O4 0.809676 0.280882 0.604214
O O5 0.750000 0.601279 0.750000
O O6 0.813967 0.690284 0.630128
O O7 0.803431 0.484769 0.633288
O O8 0.000000 0.373532 0.534679
O O9 0.949973 0.218987 0.634465
O O10 0.000000 0.364055 0.726406
O O11 0.000000 0.472711 0.379882
O O12 0.093455 0.300813 0.311788
O O13 0.050213 0.463300 0.214641
O O14 0.347226 0.351862 0.732507
O O15 0.750000 0.864187 0.750000
#
# Coordination Sequence:
#
# PCOD9479975 Si02
#       8
#    16  16   8   4  16  16   8  16
#     4  11  22  40  61  93 122 161 217 249 302 367
#     4  11  20  40  58  82 127 168 203 257 303 344
#     4   9  21  42  66  96 124 150 200 252 313 375
#     4   8  20  40  76  96 112 156 216 244 304 392
#     4  10  22  40  64  94 129 161 187 267 320 355
#     4  11  22  39  63  90 122 164 214 248 300 370
#     4   9  21  42  66  94 124 152 200 250 315 373
#     4  10  21  38  57  80 123 167 203 258 303 339
#
# _framework density 22.709026999999999
#
# number of rings (size 3 to 8) (size 9 to 14) (size 15 to 20)
#    0.480    1.280    4.800    0.480    2.240    3.200 
#    2.880    0.000    0.000    0.960    0.000    0.000 
#    0.000    0.000    0.000    0.000    0.000    0.000 
#
# Total GULP energy -278822.480460 kJ/mol
# GULP energy per Si atom -5576.449609 kJ/mol
# Density = 2.265734 g / cm^3
# Si number density = 22.709027 Si / 1000 Ang^3
#
#
#
# Elastic Constant Matrix: (Units=GPa)
#
#
# Indices 1 2 3 4 5 6 
#
# 1 73.3934 15.7692 -5.9638 0.0000 0.0000 0.0000
# 2 15.7692 82.9820 5.5739 0.0000 0.0000 0.0000
# 3 -5.9638 5.5739 70.7670 0.0000 0.0000 0.0000
# 4 0.0000 0.0000 0.0000 19.4650 0.0000 0.0000
# 5 0.0000 0.0000 0.0000 0.0000 6.2529 0.0000
# 6 0.0000 0.0000 0.0000 0.0000 0.0000 14.7650
#
#
#
# Elastic Compliance Matrix: (Units=1/GPa)
#
#
# Indices 1 2 3 4 5 6 
#
# 1 0.014348 -0.002823 0.001431 0.000000 0.000000 0.000000
# 2 -0.002823 0.012670 -0.001236 0.000000 0.000000 0.000000
# 3 0.001431 -0.001236 0.014349 0.000000 0.000000 0.000000
# 4 0.000000 0.000000 0.000000 0.051374 0.000000 0.000000
# 5 0.000000 0.000000 0.000000 0.000000 0.159927 0.000000
# 6 0.000000 0.000000 0.000000 0.000000 0.000000 0.067728
#
#
# Mechanical properties :
#
#
# Convention : Reuss Voigt Hill
#
# Bulk Modulus (GPa) = 27.69092 28.65567 28.17329
# Shear Modulus (GPa) = 14.80659 22.21412 18.51035
#
# Velocity S-wave (km/s) = 2.55623 3.13102 2.85811
# Velocity P-wave (km/s) = 4.57522 5.07120 4.82958
#
# Compressibility (1/GPa) = 0.03611293
#
# Stress axis : x y z
#
# Youngs Moduli (GPa) = 69.69610 78.92517 69.69193
#
# Poissons Ratio (x) = 0.22278 -0.09976
# Poissons Ratio (y) = 0.19673 0.08613
# Poissons Ratio (z) = -0.09977 0.09754
#
# Static dielectric constant tensor:
#      x y z
#    x 1.847910 0.000000 0.000000 
#    y 0.000000 1.856570 0.000000 
#    z 0.000000 0.000000 1.879760 
# 
# From -- ./inp_files/28038.got.cif
#   From: 2010.05.17/outbox.cif.g08.bks.cpg/sg64_15_cif.got.tgz:28038.got - 2010.06.03 16:29:19.
