data_PCOD9479487
_publ_section_title
;
Structure prediction by ZEFSAII (Michael W. Deem and Ramdas Pophale) SiO2 
 PCOD9479487
Probable space group: C M C A
;
_chemical_formula_sum "Si O2"
_cell_formula_units_Z 80
_cell_length_a 26.856176
_cell_length_b 9.015471
_cell_length_c 16.156691
_cell_angle_alpha 90.000000
_cell_angle_beta 90.000000
_cell_angle_gamma 90.000000
_cell_volume 3911.875408
_symmetry_space_group_name_H-M "C M C A"
_symmetry_group_IT_number 64
_symmetry_cell_setting 'orthorhombic'
loop_
_space_group_symop_operation_xyz
x,y,z
-x,1/2-y,1/2+z
x,-y,-z
-x,1/2+y,1/2-z
-x,-y,-z
x,1/2+y,1/2-z
-x,y,z
x,1/2-y,1/2+z
1/2+x,1/2+y,z
1/2-x,-y,1/2+z
1/2+x,1/2-y,-z
1/2-x,y,1/2-z
1/2-x,1/2-y,-z
1/2+x,y,1/2-z
1/2-x,1/2+y,z
1/2+x,-y,1/2+z
loop_
_atom_site_type_symbol
_atom_site_label
_atom_site_fract_x
_atom_site_fract_y
_atom_site_fract_z
Si Si1 0.830117 0.815538 0.853959
Si Si2 0.372302 0.673452 0.478799
Si Si3 0.441155 0.692210 0.343308
Si Si4 0.770128 0.865739 0.564776
Si Si5 0.618513 0.435992 0.256401
O O1 0.772620 0.865716 0.866630
O O2 0.839427 0.665049 0.801246
O O3 0.857816 0.951770 0.810122
O O4 0.854569 0.770204 0.942694
O O5 0.379266 0.500000 0.500000
O O6 0.421787 0.729446 0.435247
O O7 0.326297 0.677732 0.412232
O O8 0.500000 0.678886 0.337232
O O9 0.419395 0.820016 0.284676
O O10 0.413477 0.539498 0.317865
O O11 0.750000 0.750000 0.500000
O O12 0.774807 0.000000 0.500000
#
# Coordination Sequence:
#
# PCOD9479487 Si02
#       5
#    16  16  16  16  16
#     4  10  21  41  63  92 125 167 199 254 309 374
#     4  10  20  40  65  92 122 158 217 250 301 371
#     4  11  23  42  63  88 121 164 208 263 313 363
#     4   9  20  36  64  87 122 161 196 242 307 352
#     4  10  23  41  62  89 128 163 204 251 317 383
#
# _framework density 20.450548000000001
#
# number of rings (size 3 to 8) (size 9 to 14) (size 15 to 20)
#    0.000    2.000    2.000    0.600    5.600    0.400 
#    0.000    9.000    0.000    0.000    0.000    0.000 
#    0.000    0.000    0.000    0.000    0.000    0.000 
#
# Total GULP energy -222981.384414 kJ/mol
# GULP energy per Si atom -5574.534610 kJ/mol
# Density = 2.040400 g / cm^3
# Si number density = 20.450548 Si / 1000 Ang^3
#
#
#
# Elastic Constant Matrix: (Units=GPa)
#
#
# Indices 1 2 3 4 5 6 
#
# 1 121.2309 25.2476 49.7833 0.0000 0.0000 0.0000
# 2 25.2476 77.8887 23.1054 0.0000 0.0000 0.0000
# 3 49.7833 23.1054 75.8793 0.0000 0.0000 0.0000
# 4 0.0000 0.0000 0.0000 27.4791 0.0000 0.0000
# 5 0.0000 0.0000 0.0000 0.0000 22.0513 0.0000
# 6 0.0000 0.0000 0.0000 0.0000 0.0000 13.2631
#
#
#
# Elastic Compliance Matrix: (Units=1/GPa)
#
#
# Indices 1 2 3 4 5 6 
#
# 1 0.011477 -0.001634 -0.007032 0.000000 0.000000 0.000000
# 2 -0.001634 0.014346 -0.003296 0.000000 0.000000 0.000000
# 3 -0.007032 -0.003296 0.018796 0.000000 0.000000 0.000000
# 4 0.000000 0.000000 0.000000 0.036391 0.000000 0.000000
# 5 0.000000 0.000000 0.000000 0.000000 0.045349 0.000000
# 6 0.000000 0.000000 0.000000 0.000000 0.000000 0.075397
#
#
# Mechanical properties :
#
#
# Convention : Reuss Voigt Hill
#
# Bulk Modulus (GPa) = 48.32288 52.36349 50.34319
# Shear Modulus (GPa) = 21.49797 24.34955 22.92376
#
# Velocity S-wave (km/s) = 3.24577 3.45433 3.35167
# Velocity P-wave (km/s) = 6.14224 6.44751 6.29672
#
# Compressibility (1/GPa) = 0.02069413
#
# Stress axis : x y z
#
# Youngs Moduli (GPa) = 87.13232 69.70387 53.20206
#
# Poissons Ratio (x) = 0.11391 0.37413
# Poissons Ratio (y) = 0.14239 0.17537
# Poissons Ratio (z) = 0.61273 0.22977
#
# Static dielectric constant tensor:
#      x y z
#    x 1.751430 0.000000 0.000000 
#    y 0.000000 1.738670 0.000000 
#    z 0.000000 0.000000 1.791080 
# 
# From -- ./inp_files/35356.got.cif
#   From: 2010.05.17/outbox.cif.g08.bks.cpg/sg64_18_cif.got.tgz:35356.got - 2010.06.03 16:29:19.
