data_PCOD9479296
_publ_section_title
;
Structure prediction by ZEFSAII (Michael W. Deem and Ramdas Pophale) SiO2 
 PCOD9479296
Probable space group: C M C A
;
_chemical_formula_sum "Si O2"
_cell_formula_units_Z 64
_cell_length_a 11.999207
_cell_length_b 14.926162
_cell_length_c 17.706603
_cell_angle_alpha 90.000000
_cell_angle_beta 90.000000
_cell_angle_gamma 90.000000
_cell_volume 3171.289915
_symmetry_space_group_name_H-M "C M C A"
_symmetry_group_IT_number 64
_symmetry_cell_setting 'orthorhombic'
loop_
_space_group_symop_operation_xyz
x,y,z
-x,1/2-y,1/2+z
x,-y,-z
-x,1/2+y,1/2-z
-x,-y,-z
x,1/2+y,1/2-z
-x,y,z
x,1/2-y,1/2+z
1/2+x,1/2+y,z
1/2-x,-y,1/2+z
1/2+x,1/2-y,-z
1/2-x,y,1/2-z
1/2-x,1/2-y,-z
1/2+x,y,1/2-z
1/2-x,1/2+y,z
1/2+x,-y,1/2+z
loop_
_atom_site_type_symbol
_atom_site_label
_atom_site_fract_x
_atom_site_fract_y
_atom_site_fract_z
Si Si1 0.815930 0.053392 0.378116
Si Si2 0.000000 0.068472 0.655931
Si Si3 0.000000 0.733260 0.286297
Si Si4 0.750000 0.324006 0.750000
Si Si5 0.000000 0.358512 0.984830
Si Si6 0.500000 0.156101 0.455931
Si Si7 0.333312 0.500000 0.000000
O O1 0.746370 0.118175 0.325939
O O2 0.893736 0.109872 0.435702
O O3 0.742219 0.986500 0.427041
O O4 0.894989 0.993108 0.326532
O O5 0.000000 0.161933 0.695913
O O6 0.000000 0.089637 0.565313
O O7 0.877485 0.717184 0.247355
O O8 0.000000 0.679785 0.366699
O O9 0.000000 0.252492 0.002402
O O10 0.600534 0.090666 0.480970
#
# Coordination Sequence:
#
# PCOD9479296 Si02
#       7
#    16   8   8   8   8   8   8
#     4  11  21  40  65  93 129 171 214 269 328 393
#     4  10  21  39  66  96 125 167 225 268 319 388
#     4  11  24  43  65  93 134 173 214 267 329 396
#     4  12  26  44  64  92 138 180 210 268 340 390
#     4  10  20  38  63  95 124 163 217 272 325 380
#     4  10  23  38  62  98 123 162 218 282 322 371
#     4  11  20  39  64  94 126 165 222 275 320 381
#
# _framework density 20.181063999999999
#
# number of rings (size 3 to 8) (size 9 to 14) (size 15 to 20)
#    0.000    1.250    5.000    2.250    0.000    4.000 
#    0.000    2.500    0.000    0.000    0.000    0.000 
#    0.000    0.000    0.000    0.000    0.000    0.000 
#
# Total GULP energy -178243.421275 kJ/mol
# GULP energy per Si atom -5570.106915 kJ/mol
# Density = 2.013513 g / cm^3
# Si number density = 20.181064 Si / 1000 Ang^3
#
#
#
# Elastic Constant Matrix: (Units=GPa)
#
#
# Indices 1 2 3 4 5 6 
#
# 1 116.0044 31.3394 15.2406 0.0000 0.0000 0.0000
# 2 31.3394 94.0347 5.5392 0.0000 0.0000 0.0000
# 3 15.2406 5.5392 39.1712 0.0000 0.0000 0.0000
# 4 0.0000 0.0000 0.0000 23.4663 0.0000 0.0000
# 5 0.0000 0.0000 0.0000 0.0000 -12.2309 0.0000
# 6 0.0000 0.0000 0.0000 0.0000 0.0000 -42.3643
#
#
#
# Elastic Compliance Matrix: (Units=1/GPa)
#
#
# Indices 1 2 3 4 5 6 
#
# 1 0.009907 -0.003100 -0.003416 0.000000 0.000000 0.000000
# 2 -0.003100 0.011694 -0.000447 0.000000 0.000000 0.000000
# 3 -0.003416 -0.000447 0.026921 0.000000 0.000000 0.000000
# 4 0.000000 0.000000 0.000000 0.042614 0.000000 0.000000
# 5 0.000000 0.000000 0.000000 0.000000 -0.081760 0.000000
# 6 0.000000 0.000000 0.000000 0.000000 0.000000 -0.023605
#
#
# Mechanical properties :
#
#
# Convention : Reuss Voigt Hill
#
# Bulk Modulus (GPa) = 28.90638 39.27208 34.08923
# Shear Modulus (GPa) = 445.20729 6.91364 226.06046
#
# Velocity S-wave (km/s) = 14.86894 1.85290 10.59525
# Velocity P-wave (km/s) = 17.58224 4.90711 12.90765
#
# Compressibility (1/GPa) = 0.03459444
#
# Stress axis : x y z
#
# Youngs Moduli (GPa) = 100.94110 85.51380 37.14525
#
# Poissons Ratio (x) = 0.26513 0.12689
# Poissons Ratio (y) = 0.31296 0.01662
# Poissons Ratio (z) = 0.34482 0.03825
#
# Static dielectric constant tensor:
#      x y z
#    x 1.836670 0.000000 0.000000 
#    y 0.000000 1.669270 0.000000 
#    z 0.000000 0.000000 1.707040 
# 
# From -- ./inp_files/30535.got.cif
#   From: 2010.05.17/outbox.cif.g08.bks.cpg/sg64_16_cif.got.tgz:30535.got - 2010.06.03 16:29:19.
