data_PCOD9479293
_publ_section_title
;
Structure prediction by ZEFSAII (Michael W. Deem and Ramdas Pophale) SiO2 
 PCOD9479293
Probable space group: C M C A
;
_chemical_formula_sum "Si O2"
_cell_formula_units_Z 112
_cell_length_a 15.857794
_cell_length_b 12.131712
_cell_length_c 26.649300
_cell_angle_alpha 90.000000
_cell_angle_beta 90.000000
_cell_angle_gamma 90.000000
_cell_volume 5126.850690
_symmetry_space_group_name_H-M "C M C A"
_symmetry_group_IT_number 64
_symmetry_cell_setting 'orthorhombic'
loop_
_space_group_symop_operation_xyz
x,y,z
-x,1/2-y,1/2+z
x,-y,-z
-x,1/2+y,1/2-z
-x,-y,-z
x,1/2+y,1/2-z
-x,y,z
x,1/2-y,1/2+z
1/2+x,1/2+y,z
1/2-x,-y,1/2+z
1/2+x,1/2-y,-z
1/2-x,y,1/2-z
1/2-x,1/2-y,-z
1/2+x,y,1/2-z
1/2-x,1/2+y,z
1/2+x,-y,1/2+z
loop_
_atom_site_type_symbol
_atom_site_label
_atom_site_fract_x
_atom_site_fract_y
_atom_site_fract_z
Si Si1 0.905630 0.665690 0.827321
Si Si2 0.780684 0.854814 0.804232
Si Si3 0.655066 0.867825 0.381331
Si Si4 0.678618 0.987515 0.882754
Si Si5 0.234236 0.184184 0.448701
Si Si6 0.405799 0.439729 0.946627
Si Si7 0.597577 0.061850 0.717530
O O1 0.836205 0.761194 0.830795
O O2 0.897521 0.565169 0.866665
O O3 0.891118 0.610573 0.772750
O O4 0.000000 0.712698 0.829029
O O5 0.750000 0.814339 0.750000
O O6 0.705517 0.898051 0.840120
O O7 0.841290 0.958848 0.792249
O O8 0.675436 0.765811 0.416398
O O9 0.620587 0.849563 0.325612
O O10 0.744528 0.927766 0.379022
O O11 0.596991 0.960573 0.406974
O O12 0.684359 0.930469 0.937224
O O13 0.250000 0.250000 0.500000
O O14 0.330125 0.144911 0.435164
O O15 0.500000 0.390972 0.948045
O O16 0.388415 0.500000 0.000000
O O17 0.500000 0.029205 0.712387
#
# Coordination Sequence:
#
# PCOD9479293 Si02
#       7
#    16  16  16  16  16  16  16
#     4  11  24  41  61  92 133 174 216 274 337 397
#     4  11  22  37  65  90 126 174 227 262 324 402
#     4  10  21  37  62  91 126 168 216 266 330 395
#     4  10  23  40  61  92 123 171 215 271 326 396
#     4  11  22  40  65  97 128 171 223 279 341 408
#     4  10  20  38  63  94 128 163 213 277 338 399
#     4  10  22  39  61  95 133 171 219 277 334 398
#
# _framework density 21.845770000000002
#
# number of rings (size 3 to 8) (size 9 to 14) (size 15 to 20)
#    0.000    1.571    2.857    1.714    6.000    0.000 
#    0.000    7.857    0.000    0.000    0.000    6.000 
#    0.000    0.000    0.000    0.000    0.000    0.000 
#
# Total GULP energy -312331.107750 kJ/mol
# GULP energy per Si atom -5577.341210 kJ/mol
# Density = 2.179605 g / cm^3
# Si number density = 21.845770 Si / 1000 Ang^3
#
#
#
# Elastic Constant Matrix: (Units=GPa)
#
#
# Indices 1 2 3 4 5 6 
#
# 1 63.8371 33.7412 5.8834 0.0000 0.0000 0.0000
# 2 33.7412 46.8625 -0.9783 0.0000 0.0000 0.0000
# 3 5.8834 -0.9783 58.8306 0.0000 0.0000 0.0000
# 4 0.0000 0.0000 0.0000 24.9225 0.0000 0.0000
# 5 0.0000 0.0000 0.0000 0.0000 16.2259 0.0000
# 6 0.0000 0.0000 0.0000 0.0000 0.0000 23.9764
#
#
#
# Elastic Compliance Matrix: (Units=1/GPa)
#
#
# Indices 1 2 3 4 5 6 
#
# 1 0.025770 -0.018614 -0.002887 0.000000 0.000000 0.000000
# 2 -0.018614 0.034792 0.002440 0.000000 0.000000 0.000000
# 3 -0.002887 0.002440 0.017327 0.000000 0.000000 0.000000
# 4 0.000000 0.000000 0.000000 0.040124 0.000000 0.000000
# 5 0.000000 0.000000 0.000000 0.000000 0.061630 0.000000
# 6 0.000000 0.000000 0.000000 0.000000 0.000000 0.041708
#
#
# Mechanical properties :
#
#
# Convention : Reuss Voigt Hill
#
# Bulk Modulus (GPa) = 25.14632 27.42476 26.28554
# Shear Modulus (GPa) = 18.33321 21.75053 20.04187
#
# Velocity S-wave (km/s) = 2.90006 3.15880 3.03219
# Velocity P-wave (km/s) = 4.76965 5.08774 4.93126
#
# Compressibility (1/GPa) = 0.03976725
#
# Stress axis : x y z
#
# Youngs Moduli (GPa) = 38.80539 28.74190 57.71269
#
# Poissons Ratio (x) = 0.53501 0.16660
# Poissons Ratio (y) = 0.72234 -0.14083
# Poissons Ratio (z) = 0.11202 -0.07013
#
# Static dielectric constant tensor:
#      x y z
#    x 1.800440 0.000000 0.000000 
#    y 0.000000 1.878540 0.000000 
#    z 0.000000 0.000000 1.880960 
# 
# From -- ./inp_files/53296.got.cif
#   From: 2010.05.17/outbox.cif.g08.bks.cpg/sg64_27_cif.got.tgz:53296.got - 2010.06.03 16:29:19.
