data_PCOD9479613
_publ_section_title
;
Structure prediction by ZEFSAII (Michael W. Deem and Ramdas Pophale) SiO2 
 PCOD9479613
Probable space group: C M C A
;
_chemical_formula_sum "Si O2"
_cell_formula_units_Z 104
_cell_length_a 21.272487
_cell_length_b 28.749893
_cell_length_c 7.784602
_cell_angle_alpha 90.000000
_cell_angle_beta 90.000000
_cell_angle_gamma 90.000000
_cell_volume 4760.920320
_symmetry_space_group_name_H-M "C M C A"
_symmetry_group_IT_number 64
_symmetry_cell_setting 'orthorhombic'
loop_
_space_group_symop_operation_xyz
x,y,z
-x,1/2-y,1/2+z
x,-y,-z
-x,1/2+y,1/2-z
-x,-y,-z
x,1/2+y,1/2-z
-x,y,z
x,1/2-y,1/2+z
1/2+x,1/2+y,z
1/2-x,-y,1/2+z
1/2+x,1/2-y,-z
1/2-x,y,1/2-z
1/2-x,1/2-y,-z
1/2+x,y,1/2-z
1/2-x,1/2+y,z
1/2+x,-y,1/2+z
loop_
_atom_site_type_symbol
_atom_site_label
_atom_site_fract_x
_atom_site_fract_y
_atom_site_fract_z
Si Si1 0.740663 0.553178 0.955493
Si Si2 0.500000 0.627035 0.466295
Si Si3 0.135349 0.395499 0.026367
Si Si4 0.866161 0.375816 0.437403
Si Si5 0.364619 0.706043 0.451708
Si Si6 0.000000 0.344053 0.569470
Si Si7 0.684920 0.789982 0.317644
Si Si8 0.000000 0.267895 0.980791
O O1 0.750000 0.556592 0.750000
O O2 0.808845 0.570038 0.024090
O O3 0.682327 0.586110 0.011079
O O4 0.727887 0.500000 0.000000
O O5 0.438391 0.596288 0.497634
O O6 0.500000 0.644781 0.271231
O O7 0.500000 0.677997 0.569357
O O8 0.138369 0.385028 0.231249
O O9 0.144671 0.347793 0.920006
O O10 0.938019 0.369645 0.493692
O O11 0.838848 0.324028 0.464111
O O12 0.362082 0.711177 0.657235
O O13 0.309800 0.737921 0.381630
O O14 0.431527 0.726824 0.393950
O O15 0.000000 0.287136 0.540658
O O16 0.750000 0.809651 0.250000
#
# Coordination Sequence:
#
# PCOD9479613 Si02
#       8
#    16   8  16  16  16   8  16   8
#     4  10  22  43  69  92 118 154 198 252 317 381
#     4  10  23  36  60  91 125 161 211 255 291 350
#     4   9  20  40  60  86 125 161 197 247 310 366
#     4  10  21  39  61  87 119 164 200 245 309 369
#     4  10  21  33  54  78 115 159 198 235 283 347
#     4  12  23  36  60  87 123 161 213 257 291 348
#     4  11  21  34  52  80 116 157 197 240 287 350
#     4  10  22  34  50  78 122 162 200 238 292 326
#
# _framework density 21.844518000000001
#
# number of rings (size 3 to 8) (size 9 to 14) (size 15 to 20)
#    0.000    1.846    1.538    3.231    4.308    4.308 
#    0.000    1.538    0.000    0.000    0.000    0.000 
#    0.000    0.000    0.000    0.000    0.000    0.000 
#
# Total GULP energy -289653.657947 kJ/mol
# GULP energy per Si atom -5570.262653 kJ/mol
# Density = 2.179480 g / cm^3
# Si number density = 21.844518 Si / 1000 Ang^3
#
#
#
# Elastic Constant Matrix: (Units=GPa)
#
#
# Indices 1 2 3 4 5 6 
#
# 1 182.4037 74.6067 19.5040 0.0000 0.0000 0.0000
# 2 74.6067 93.0777 17.3930 0.0000 0.0000 0.0000
# 3 19.5040 17.3930 26.2737 0.0000 0.0000 0.0000
# 4 0.0000 0.0000 0.0000 11.9715 0.0000 0.0000
# 5 0.0000 0.0000 0.0000 0.0000 11.2406 0.0000
# 6 0.0000 0.0000 0.0000 0.0000 0.0000 22.2407
#
#
#
# Elastic Compliance Matrix: (Units=1/GPa)
#
#
# Indices 1 2 3 4 5 6 
#
# 1 0.008247 -0.006238 -0.001992 0.000000 0.000000 0.000000
# 2 -0.006238 0.016979 -0.006609 0.000000 0.000000 0.000000
# 3 -0.001992 -0.006609 0.043915 0.000000 0.000000 0.000000
# 4 0.000000 0.000000 0.000000 0.083532 0.000000 0.000000
# 5 0.000000 0.000000 0.000000 0.000000 0.088963 0.000000
# 6 0.000000 0.000000 0.000000 0.000000 0.000000 0.044963
#
#
# Mechanical properties :
#
#
# Convention : Reuss Voigt Hill
#
# Bulk Modulus (GPa) = 25.34106 58.30694 41.82400
# Shear Modulus (GPa) = 15.17769 21.77400 18.47584
#
# Velocity S-wave (km/s) = 2.63878 3.16059 2.91140
# Velocity P-wave (km/s) = 4.57275 6.33000 5.52173
#
# Compressibility (1/GPa) = 0.03946165
#
# Stress axis : x y z
#
# Youngs Moduli (GPa) = 121.25853 58.89700 22.77116
#
# Poissons Ratio (x) = 0.36740 0.04537
# Poissons Ratio (y) = 0.75641 0.15050
# Poissons Ratio (z) = 0.24160 0.38926
#
# Static dielectric constant tensor:
#      x y z
#    x 1.854920 0.000000 0.000000 
#    y 0.000000 1.800470 0.000000 
#    z 0.000000 0.000000 1.887230 
# 
# From -- ./inp_files/8595.got.cif
#   From: 2010.05.17/outbox.cif.g08.bks.cpg/sg64_5_cif.got.tgz:8595.got - 2010.06.03 16:29:19.
