data_PCOD9479741
_publ_section_title
;
Structure prediction by ZEFSAII (Michael W. Deem and Ramdas Pophale) SiO2 
 PCOD9479741
Probable space group: C M C A
;
_chemical_formula_sum "Si O2"
_cell_formula_units_Z 88
_cell_length_a 24.444519
_cell_length_b 5.015386
_cell_length_c 32.251660
_cell_angle_alpha 90.000000
_cell_angle_beta 90.000000
_cell_angle_gamma 90.000000
_cell_volume 3954.011536
_symmetry_space_group_name_H-M "C M C A"
_symmetry_group_IT_number 64
_symmetry_cell_setting 'orthorhombic'
loop_
_space_group_symop_operation_xyz
x,y,z
-x,1/2-y,1/2+z
x,-y,-z
-x,1/2+y,1/2-z
-x,-y,-z
x,1/2+y,1/2-z
-x,y,z
x,1/2-y,1/2+z
1/2+x,1/2+y,z
1/2-x,-y,1/2+z
1/2+x,1/2-y,-z
1/2-x,y,1/2-z
1/2-x,1/2-y,-z
1/2+x,y,1/2-z
1/2-x,1/2+y,z
1/2+x,-y,1/2+z
loop_
_atom_site_type_symbol
_atom_site_label
_atom_site_fract_x
_atom_site_fract_y
_atom_site_fract_z
Si Si1 0.098805 0.124846 0.335958
Si Si2 0.500000 0.336918 0.723616
Si Si3 0.784056 0.456658 0.166125
Si Si4 0.894805 0.763170 0.472918
Si Si5 0.783792 0.014041 0.566072
Si Si6 0.937325 0.600049 0.385002
O O1 0.054541 0.216890 0.302501
O O2 0.157585 0.051422 0.317388
O O3 0.101885 0.361662 0.369803
O O4 0.075678 0.861144 0.358129
O O5 0.500000 0.644080 0.737065
O O6 0.763636 0.164114 0.177299
O O7 0.791050 0.465316 0.115876
O O8 0.885720 0.500000 0.500000
O O9 0.838288 0.888097 0.455855
O O10 0.928115 0.675916 0.432517
O O11 0.921251 0.000000 0.500000
O O12 0.734670 0.216786 0.555328
O O13 0.000000 0.514562 0.378789
#
# Coordination Sequence:
#
# PCOD9479741 Si02
#       6
#    16   8  16  16  16  16
#     4  12  23  44  73 101 136 178 216 272 328 398
#     4  12  26  46  74 114 144 166 208 264 336 396
#     4  10  21  37  65  99 130 170 228 278 319 384
#     4  12  26  39  57  85 126 176 225 286 342 392
#     4  10  21  36  57  84 120 165 219 283 334 386
#     4  12  24  43  67  94 124 175 235 273 334 403
#
# _framework density 22.255880000000001
#
# number of rings (size 3 to 8) (size 9 to 14) (size 15 to 20)
#    0.000    0.727    3.636    4.364    5.091    2.909 
#    0.000    0.000    0.000    3.273    0.000    0.000 
#    0.000    0.000    0.000    0.000    0.000    0.000 
#
# Total GULP energy -246424.535986 kJ/mol
# GULP energy per Si atom -5600.557636 kJ/mol
# Density = 2.220522 g / cm^3
# Si number density = 22.255880 Si / 1000 Ang^3
#
#
#
# Elastic Constant Matrix: (Units=GPa)
#
#
# Indices 1 2 3 4 5 6 
#
# 1 69.4662 -5.0244 20.5692 0.0000 0.0000 0.0000
# 2 -5.0244 89.5109 5.9016 0.0000 0.0000 0.0000
# 3 20.5692 5.9016 27.1114 0.0000 0.0000 0.0000
# 4 0.0000 0.0000 0.0000 32.4661 0.0000 0.0000
# 5 0.0000 0.0000 0.0000 0.0000 9.3617 0.0000
# 6 0.0000 0.0000 0.0000 0.0000 0.0000 10.1836
#
#
#
# Elastic Compliance Matrix: (Units=1/GPa)
#
#
# Indices 1 2 3 4 5 6 
#
# 1 0.018926 0.002038 -0.014803 0.000000 0.000000 0.000000
# 2 0.002038 0.011554 -0.004062 0.000000 0.000000 0.000000
# 3 -0.014803 -0.004062 0.049000 0.000000 0.000000 0.000000
# 4 0.000000 0.000000 0.000000 0.030801 0.000000 0.000000
# 5 0.000000 0.000000 0.000000 0.000000 0.106818 0.000000
# 6 0.000000 0.000000 0.000000 0.000000 0.000000 0.098197
#
#
# Mechanical properties :
#
#
# Convention : Reuss Voigt Hill
#
# Bulk Modulus (GPa) = 21.82079 25.44237 23.63158
# Shear Modulus (GPa) = 13.72780 21.37842 17.55311
#
# Velocity S-wave (km/s) = 2.48627 3.10268 2.81142
# Velocity P-wave (km/s) = 4.25063 4.92869 4.60217
#
# Compressibility (1/GPa) = 0.04582786
#
# Stress axis : x y z
#
# Youngs Moduli (GPa) = 52.83713 86.54998 20.40826
#
# Poissons Ratio (x) = -0.17642 0.30210
# Poissons Ratio (y) = -0.10770 0.08289
# Poissons Ratio (z) = 0.78214 0.35153
#
# Static dielectric constant tensor:
#      x y z
#    x 1.814190 0.000000 0.000000 
#    y 0.000000 1.794840 0.000000 
#    z 0.000000 0.000000 1.833600 
# 
# From -- ./inp_files/53868.got.cif
#   From: 2010.05.17/outbox.cif.g08.bks.cpg/sg64_27_cif.got.tgz:53868.got - 2010.06.03 16:29:19.
