data_PCOD9479277
_publ_section_title
;
Structure prediction by ZEFSAII (Michael W. Deem and Ramdas Pophale) SiO2 
 PCOD9479277
Probable space group: C M C A
;
_chemical_formula_sum "Si O2"
_cell_formula_units_Z 112
_cell_length_a 31.619100
_cell_length_b 16.001601
_cell_length_c 11.074542
_cell_angle_alpha 90.000000
_cell_angle_beta 90.000000
_cell_angle_gamma 90.000000
_cell_volume 5603.233433
_symmetry_space_group_name_H-M "C M C A"
_symmetry_group_IT_number 64
_symmetry_cell_setting 'orthorhombic'
loop_
_space_group_symop_operation_xyz
x,y,z
-x,1/2-y,1/2+z
x,-y,-z
-x,1/2+y,1/2-z
-x,-y,-z
x,1/2+y,1/2-z
-x,y,z
x,1/2-y,1/2+z
1/2+x,1/2+y,z
1/2-x,-y,1/2+z
1/2+x,1/2-y,-z
1/2-x,y,1/2-z
1/2-x,1/2-y,-z
1/2+x,y,1/2-z
1/2-x,1/2+y,z
1/2+x,-y,1/2+z
loop_
_atom_site_type_symbol
_atom_site_label
_atom_site_fract_x
_atom_site_fract_y
_atom_site_fract_z
Si Si1 0.580350 0.276416 0.982070
Si Si2 0.157446 0.900893 0.022246
Si Si3 0.878235 0.550065 0.182271
Si Si4 0.297048 0.133981 0.290958
Si Si5 0.299019 0.328382 0.254279
Si Si6 0.866254 0.882575 0.416279
Si Si7 0.548238 0.180579 0.224702
O O1 0.608349 0.202234 0.925604
O O2 0.549823 0.291881 0.866474
O O3 0.612889 0.353465 0.000654
O O4 0.562514 0.244066 0.113553
O O5 0.174511 0.874949 0.152339
O O6 0.194268 0.865760 0.933532
O O7 0.152914 0.000000 0.000000
O O8 0.835235 0.574524 0.249566
O O9 0.885600 0.451225 0.174700
O O10 0.918350 0.604267 0.221580
O O11 0.868493 0.579388 0.047539
O O12 0.250000 0.108160 0.250000
O O13 0.304395 0.228187 0.242734
O O14 0.250000 0.347782 0.250000
O O15 0.319077 0.359999 0.378356
O O16 0.500000 0.156653 0.196099
#
# Coordination Sequence:
#
# PCOD9479277 Si02
#       7
#    16  16  16  16  16  16  16
#     4  11  22  44  68  94 130 173 216 268 332 404
#     4  12  25  41  65  95 130 177 221 275 331 392
#     4  10  21  38  62  91 122 166 205 268 322 387
#     4  11  24  40  63  92 132 170 219 268 323 389
#     4  11  24  38  60  90 129 172 222 269 323 387
#     4  10  20  38  63  86 122 166 210 257 328 385
#     4  11  23  42  69  98 131 167 217 271 333 400
#
# _framework density 19.988458999999999
#
# number of rings (size 3 to 8) (size 9 to 14) (size 15 to 20)
#    0.000    1.143    2.857    3.857    2.000    3.429 
#    0.000    6.429    0.000    0.857    0.000    0.000 
#    0.000    0.000    0.000    0.000    0.000    0.000 
#
# Total GULP energy -312192.058397 kJ/mol
# GULP energy per Si atom -5574.858186 kJ/mol
# Density = 1.994296 g / cm^3
# Si number density = 19.988459 Si / 1000 Ang^3
#
#
#
# Elastic Constant Matrix: (Units=GPa)
#
#
# Indices 1 2 3 4 5 6 
#
# 1 116.5453 39.6550 41.6882 0.0000 0.0000 0.0000
# 2 39.6550 109.4889 25.4338 0.0000 0.0000 0.0000
# 3 41.6882 25.4338 70.6184 0.0000 0.0000 0.0000
# 4 0.0000 0.0000 0.0000 4.6091 0.0000 0.0000
# 5 0.0000 0.0000 0.0000 0.0000 27.2638 0.0000
# 6 0.0000 0.0000 0.0000 0.0000 0.0000 -1.4597
#
#
#
# Elastic Compliance Matrix: (Units=1/GPa)
#
#
# Indices 1 2 3 4 5 6 
#
# 1 0.011644 -0.002860 -0.005844 0.000000 0.000000 0.000000
# 2 -0.002860 0.010670 -0.002155 0.000000 0.000000 0.000000
# 3 -0.005844 -0.002155 0.018386 0.000000 0.000000 0.000000
# 4 0.000000 0.000000 0.000000 0.216960 0.000000 0.000000
# 5 0.000000 0.000000 0.000000 0.000000 0.036679 0.000000
# 6 0.000000 0.000000 0.000000 0.000000 0.000000 -0.685053
#
#
# Mechanical properties :
#
#
# Convention : Reuss Voigt Hill
#
# Bulk Modulus (GPa) = 52.67682 56.68962 54.68322
# Shear Modulus (GPa) = -13.78660 18.74102 2.47721
#
# Velocity S-wave (km/s) = -2.62912 3.06533 1.11445
# Velocity P-wave (km/s) = 4.14662 6.39931 5.39192
#
# Compressibility (1/GPa) = 0.01898368
#
# Stress axis : x y z
#
# Youngs Moduli (GPa) = 85.88377 93.72443 54.38832
#
# Poissons Ratio (x) = 0.26802 0.31783
# Poissons Ratio (y) = 0.24560 0.11718
# Poissons Ratio (z) = 0.50188 0.20194
#
# Static dielectric constant tensor:
#      x y z
#    x 1.687740 0.000000 0.000000 
#    y 0.000000 1.644120 0.000000 
#    z 0.000000 0.000000 2.982440 
# 
# From -- ./inp_files/19873.got.cif
#   From: 2010.05.17/outbox.cif.g08.bks.cpg/sg64_10_cif.got.tgz:19873.got - 2010.06.03 16:29:19.
