data_PCOD9479394
_publ_section_title
;
Structure prediction by ZEFSAII (Michael W. Deem and Ramdas Pophale) SiO2 
 PCOD9479394
Probable space group: C M C A
;
_chemical_formula_sum "Si O2"
_cell_formula_units_Z 72
_cell_length_a 7.724567
_cell_length_b 24.857905
_cell_length_c 14.859742
_cell_angle_alpha 90.000000
_cell_angle_beta 90.000000
_cell_angle_gamma 90.000000
_cell_volume 2853.316432
_symmetry_space_group_name_H-M "C M C A"
_symmetry_group_IT_number 64
_symmetry_cell_setting 'orthorhombic'
loop_
_space_group_symop_operation_xyz
x,y,z
-x,1/2-y,1/2+z
x,-y,-z
-x,1/2+y,1/2-z
-x,-y,-z
x,1/2+y,1/2-z
-x,y,z
x,1/2-y,1/2+z
1/2+x,1/2+y,z
1/2-x,-y,1/2+z
1/2+x,1/2-y,-z
1/2-x,y,1/2-z
1/2-x,1/2-y,-z
1/2+x,y,1/2-z
1/2-x,1/2+y,z
1/2+x,-y,1/2+z
loop_
_atom_site_type_symbol
_atom_site_label
_atom_site_fract_x
_atom_site_fract_y
_atom_site_fract_z
Si Si1 0.698978 0.952701 0.642921
Si Si2 0.800656 0.203108 0.128302
Si Si3 0.500000 0.627790 0.363949
Si Si4 0.295736 0.930748 0.144644
Si Si5 0.203494 0.813103 0.079349
O O1 0.500000 0.934551 0.634732
O O2 0.750000 0.953366 0.750000
O O3 0.845313 0.914403 0.602935
O O4 0.711107 0.014182 0.610038
O O5 0.651725 0.168882 0.174167
O O6 0.791203 0.267517 0.140584
O O7 0.000000 0.186239 0.134488
O O8 0.738995 0.195186 0.023553
O O9 0.500000 0.936909 0.134887
O O10 0.250000 0.927512 0.250000
O O11 0.238809 0.874318 0.104069
O O12 0.000000 0.802653 0.083736
#
# Coordination Sequence:
#
# PCOD9479394 Si02
#       5
#    16  16   8  16  16
#     4  11  21  40  64  89 121 166 209 253 313 370
#     4  10  22  39  63  92 122 168 208 248 311 374
#     4  12  22  40  63  92 126 158 216 250 294 392
#     4  11  21  37  63  93 121 159 208 260 312 364
#     4  10  20  39  64  90 125 160 207 259 309 371
#
# _framework density 25.233792999999999
#
# number of rings (size 3 to 8) (size 9 to 14) (size 15 to 20)
#    0.000    1.333    3.333    4.667    3.111    0.000 
#    0.000    3.333    0.000    4.000    0.000    0.000 
#    0.000    0.000    0.000    0.000    0.000    0.000 
#
# Total GULP energy -200557.872218 kJ/mol
# GULP energy per Si atom -5571.052006 kJ/mol
# Density = 2.517636 g / cm^3
# Si number density = 25.233793 Si / 1000 Ang^3
#
#
#
# Elastic Constant Matrix: (Units=GPa)
#
#
# Indices 1 2 3 4 5 6 
#
# 1 225.6335 63.2752 8.3295 0.0000 0.0000 0.0000
# 2 63.2752 197.6094 20.1186 0.0000 0.0000 0.0000
# 3 8.3295 20.1186 49.9734 0.0000 0.0000 0.0000
# 4 0.0000 0.0000 0.0000 35.7406 0.0000 0.0000
# 5 0.0000 0.0000 0.0000 0.0000 7.9942 0.0000
# 6 0.0000 0.0000 0.0000 0.0000 0.0000 70.5344
#
#
#
# Elastic Compliance Matrix: (Units=1/GPa)
#
#
# Indices 1 2 3 4 5 6 
#
# 1 0.004871 -0.001540 -0.000192 0.000000 0.000000 0.000000
# 2 -0.001540 0.005764 -0.002064 0.000000 0.000000 0.000000
# 3 -0.000192 -0.002064 0.020873 0.000000 0.000000 0.000000
# 4 0.000000 0.000000 0.000000 0.027979 0.000000 0.000000
# 5 0.000000 0.000000 0.000000 0.000000 0.125091 0.000000
# 6 0.000000 0.000000 0.000000 0.000000 0.000000 0.014177
#
#
# Mechanical properties :
#
#
# Convention : Reuss Voigt Hill
#
# Bulk Modulus (GPa) = 41.81170 72.96255 57.38712
# Shear Modulus (GPa) = 23.32968 48.28672 35.80820
#
# Velocity S-wave (km/s) = 3.04393 4.37919 3.77112
# Velocity P-wave (km/s) = 5.38142 7.38560 6.46169
#
# Compressibility (1/GPa) = 0.02391675
#
# Stress axis : x y z
#
# Youngs Moduli (GPa) = 205.29827 173.49787 47.90780
#
# Poissons Ratio (x) = 0.26722 0.00919
# Poissons Ratio (y) = 0.31619 0.09887
# Poissons Ratio (z) = 0.03938 0.35805
#
# Static dielectric constant tensor:
#      x y z
#    x 1.910310 0.000000 0.000000 
#    y 0.000000 2.046800 0.000000 
#    z 0.000000 0.000000 2.043940 
# 
# From -- ./inp_files/29509.got.cif
#   From: 2010.05.17/outbox.cif.g08.bks.cpg/sg64_15_cif.got.tgz:29509.got - 2010.06.03 16:29:19.
