data_PCOD9479928
_publ_section_title
;
Structure prediction by ZEFSAII (Michael W. Deem and Ramdas Pophale) SiO2 
 PCOD9479928
Probable space group: C M C A
;
_chemical_formula_sum "Si O2"
_cell_formula_units_Z 104
_cell_length_a 19.708922
_cell_length_b 8.867674
_cell_length_c 29.511267
_cell_angle_alpha 90.000000
_cell_angle_beta 90.000000
_cell_angle_gamma 90.000000
_cell_volume 5157.751867
_symmetry_space_group_name_H-M "C M C A"
_symmetry_group_IT_number 64
_symmetry_cell_setting 'orthorhombic'
loop_
_space_group_symop_operation_xyz
x,y,z
-x,1/2-y,1/2+z
x,-y,-z
-x,1/2+y,1/2-z
-x,-y,-z
x,1/2+y,1/2-z
-x,y,z
x,1/2-y,1/2+z
1/2+x,1/2+y,z
1/2-x,-y,1/2+z
1/2+x,1/2-y,-z
1/2-x,y,1/2-z
1/2-x,1/2-y,-z
1/2+x,y,1/2-z
1/2-x,1/2+y,z
1/2+x,-y,1/2+z
loop_
_atom_site_type_symbol
_atom_site_label
_atom_site_fract_x
_atom_site_fract_y
_atom_site_fract_z
Si Si1 0.185685 0.354642 0.943556
Si Si2 0.500000 0.327810 0.802162
Si Si3 0.883038 0.831641 0.873415
Si Si4 0.220428 0.204017 0.687569
Si Si5 0.750000 0.954057 0.750000
Si Si6 0.000000 0.310849 0.298120
Si Si7 0.833688 0.789081 0.456802
Si Si8 0.865694 0.813557 0.145165
O O1 0.179820 0.535405 0.944993
O O2 0.264757 0.306350 0.947681
O O3 0.151579 0.287254 0.898587
O O4 0.152562 0.288012 0.989465
O O5 0.437039 0.290090 0.834947
O O6 0.500000 0.507665 0.795007
O O7 0.500000 0.252962 0.752840
O O8 0.817841 0.733938 0.858280
O O9 0.892232 0.780299 0.925031
O O10 0.871822 0.011140 0.870076
O O11 0.205055 0.346681 0.719070
O O12 0.300421 0.198239 0.677799
O O13 0.205842 0.056688 0.716663
O O14 0.932952 0.268973 0.327131
#
# Coordination Sequence:
#
# PCOD9479928 Si02
#       8
#    16   8  16  16   8   8  16  16
#     4  10  21  37  61  93 125 156 197 250 307 364
#     4  10  26  44  61  86 125 165 208 249 303 360
#     4  11  23  40  61  89 121 160 202 251 301 365
#     4  11  22  36  57  84 114 150 201 246 299 352
#     4  10  24  34  52  84 118 150 192 256 296 350
#     4  10  26  44  61  86 125 165 208 249 303 360
#     4  10  21  37  61  93 125 156 197 250 307 364
#     4  11  23  40  61  89 121 160 202 251 301 365
#
# _framework density 20.163824000000002
#
# number of rings (size 3 to 8) (size 9 to 14) (size 15 to 20)
#    0.000    1.538    3.077    0.923    6.462    3.077 
#    0.000    0.769    0.000    4.615    0.000    0.000 
#    0.000    0.000    0.000    0.000    0.000    0.000 
#
# Total GULP energy -290257.769730 kJ/mol
# GULP energy per Si atom -5581.880187 kJ/mol
# Density = 2.011793 g / cm^3
# Si number density = 20.163824 Si / 1000 Ang^3
#
#
#
# Elastic Constant Matrix: (Units=GPa)
#
#
# Indices 1 2 3 4 5 6 
#
# 1 75.3477 7.2897 32.2443 0.0000 0.0000 0.0000
# 2 7.2897 62.6693 34.5078 0.0000 0.0000 0.0000
# 3 32.2443 34.5078 146.6235 0.0000 0.0000 0.0000
# 4 0.0000 0.0000 0.0000 40.7046 0.0000 0.0000
# 5 0.0000 0.0000 0.0000 0.0000 27.8664 0.0000
# 6 0.0000 0.0000 0.0000 0.0000 0.0000 13.8259
#
#
#
# Elastic Compliance Matrix: (Units=1/GPa)
#
#
# Indices 1 2 3 4 5 6 
#
# 1 0.014651 0.000080 -0.003241 0.000000 0.000000 0.000000
# 2 0.000080 0.018333 -0.004332 0.000000 0.000000 0.000000
# 3 -0.003241 -0.004332 0.008552 0.000000 0.000000 0.000000
# 4 0.000000 0.000000 0.000000 0.024567 0.000000 0.000000
# 5 0.000000 0.000000 0.000000 0.000000 0.035885 0.000000
# 6 0.000000 0.000000 0.000000 0.000000 0.000000 0.072328
#
#
# Mechanical properties :
#
#
# Convention : Reuss Voigt Hill
#
# Bulk Modulus (GPa) = 37.66377 48.08045 42.87211
# Shear Modulus (GPa) = 25.23302 30.51931 27.87617
#
# Velocity S-wave (km/s) = 3.54135 3.89468 3.72221
# Velocity P-wave (km/s) = 5.95323 6.64239 6.30723
#
# Compressibility (1/GPa) = 0.02655071
#
# Stress axis : x y z
#
# Youngs Moduli (GPa) = 68.25519 54.54663 116.92504
#
# Poissons Ratio (x) = -0.00438 0.37893
# Poissons Ratio (y) = -0.00548 0.50656
# Poissons Ratio (z) = 0.22120 0.23631
#
# Static dielectric constant tensor:
#      x y z
#    x 1.806220 0.000000 0.000000 
#    y 0.000000 1.714750 0.000000 
#    z 0.000000 0.000000 1.758370 
# 
# From -- ./inp_files/53799.got.cif
#   From: 2010.05.17/outbox.cif.g08.bks.cpg/sg64_27_cif.got.tgz:53799.got - 2010.06.03 16:29:19.
