data_PCOD9479424
_publ_section_title
;
Structure prediction by ZEFSAII (Michael W. Deem and Ramdas Pophale) SiO2 
 PCOD9479424
Probable space group: C M C A
;
_chemical_formula_sum "Si O2"
_cell_formula_units_Z 104
_cell_length_a 9.174062
_cell_length_b 20.366833
_cell_length_c 28.620822
_cell_angle_alpha 90.000000
_cell_angle_beta 90.000000
_cell_angle_gamma 90.000000
_cell_volume 5347.702956
_symmetry_space_group_name_H-M "C M C A"
_symmetry_group_IT_number 64
_symmetry_cell_setting 'orthorhombic'
loop_
_space_group_symop_operation_xyz
x,y,z
-x,1/2-y,1/2+z
x,-y,-z
-x,1/2+y,1/2-z
-x,-y,-z
x,1/2+y,1/2-z
-x,y,z
x,1/2-y,1/2+z
1/2+x,1/2+y,z
1/2-x,-y,1/2+z
1/2+x,1/2-y,-z
1/2-x,y,1/2-z
1/2-x,1/2-y,-z
1/2+x,y,1/2-z
1/2-x,1/2+y,z
1/2+x,-y,1/2+z
loop_
_atom_site_type_symbol
_atom_site_label
_atom_site_fract_x
_atom_site_fract_y
_atom_site_fract_z
Si Si1 0.173581 0.831010 0.299764
Si Si2 0.332508 0.205944 0.155527
Si Si3 0.000000 0.766316 0.481803
Si Si4 0.174906 0.970344 0.549926
Si Si5 0.328726 0.033393 0.852974
Si Si6 0.674135 0.082247 0.300240
Si Si7 0.267272 0.677525 0.448546
O O1 0.250000 0.844841 0.250000
O O2 0.252422 0.768649 0.322643
O O3 0.190208 0.893117 0.334264
O O4 0.000000 0.819298 0.293403
O O5 0.500000 0.201864 0.172194
O O6 0.241661 0.142410 0.170897
O O7 0.332608 0.206532 0.099425
O O8 0.124762 0.718524 0.459203
O O9 0.125655 0.810879 0.508102
O O10 0.251223 0.900556 0.558144
O O11 0.000000 0.957815 0.549750
O O12 0.215924 0.000000 0.500000
O O13 0.201425 0.020742 0.592385
O O14 0.500000 0.015584 0.844883
O O15 0.225671 0.984767 0.824499
O O16 0.500000 0.086510 0.296936
O O17 0.750000 0.084984 0.250000
#
# Coordination Sequence:
#
# PCOD9479424 Si02
#       7
#    16  16   8  16  16  16  16
#     4  11  25  44  67  98 134 174 223 280 336 407
#     4  12  24  42  68  94 136 175 218 281 340 395
#     4  10  24  38  66  94 134 176 226 268 332 378
#     4  10  20  39  67  96 132 175 220 267 321 385
#     4  10  22  42  68  97 134 177 220 269 331 397
#     4  12  25  41  68  99 130 171 219 273 336 405
#     4  11  22  43  65  98 134 177 220 279 320 400
#
# _framework density 19.447603000000001
#
# number of rings (size 3 to 8) (size 9 to 14) (size 15 to 20)
#    0.000    1.077    3.077    3.231    2.154    4.923 
#    2.769    0.385    0.000    0.000    0.000    0.000 
#    0.000    0.000    0.000    0.000    0.000    0.000 
#
# Total GULP energy -289504.973607 kJ/mol
# GULP energy per Si atom -5567.403339 kJ/mol
# Density = 1.940334 g / cm^3
# Si number density = 19.447603 Si / 1000 Ang^3
#
#
#
# Elastic Constant Matrix: (Units=GPa)
#
#
# Indices 1 2 3 4 5 6 
#
# 1 118.2914 25.7042 6.9489 0.0000 0.0000 0.0000
# 2 25.7042 52.5182 23.5628 0.0000 0.0000 0.0000
# 3 6.9489 23.5628 48.5278 0.0000 0.0000 0.0000
# 4 0.0000 0.0000 0.0000 35.5153 0.0000 0.0000
# 5 0.0000 0.0000 0.0000 0.0000 -523.0963 0.0000
# 6 0.0000 0.0000 0.0000 0.0000 0.0000 -1.0848
#
#
#
# Elastic Compliance Matrix: (Units=1/GPa)
#
#
# Indices 1 2 3 4 5 6 
#
# 1 0.009510 -0.005169 0.001148 0.000000 0.000000 0.000000
# 2 -0.005169 0.027155 -0.012445 0.000000 0.000000 0.000000
# 3 0.001148 -0.012445 0.026485 0.000000 0.000000 0.000000
# 4 0.000000 0.000000 0.000000 0.028157 0.000000 0.000000
# 5 0.000000 0.000000 0.000000 0.000000 -0.001912 0.000000
# 6 0.000000 0.000000 0.000000 0.000000 0.000000 -0.921812
#
#
# Mechanical properties :
#
#
# Convention : Reuss Voigt Hill
#
# Bulk Modulus (GPa) = 33.09370 36.86325 34.97847
# Shear Modulus (GPa) = -6.33381 -86.85838 -46.59610
#
# Velocity S-wave (km/s) = -1.80664 -6.69027 -4.90019
# Velocity P-wave (km/s) = 3.56397 6.37835 3.74042
#
# Compressibility (1/GPa) = 0.03021723
#
# Stress axis : x y z
#
# Youngs Moduli (GPa) = 105.15749 36.82623 37.75747
#
# Poissons Ratio (x) = 0.19037 -0.04336
# Poissons Ratio (y) = 0.54361 0.46988
# Poissons Ratio (z) = -0.12076 0.45829
#
# Static dielectric constant tensor:
#      x y z
#    x 1.654710 0.000000 0.000000 
#    y 0.000000 1.650820 0.000000 
#    z 0.000000 0.000000 1.698350 
# 
# From -- ./inp_files/48241.got.cif
#   From: 2010.05.17/outbox.cif.g08.bks.cpg/sg64_25_cif.got.tgz:48241.got - 2010.06.03 16:29:19.
