data_PCOD9479562
_publ_section_title
;
Structure prediction by ZEFSAII (Michael W. Deem and Ramdas Pophale) SiO2 
 PCOD9479562
Probable space group: C M C A
;
_chemical_formula_sum "Si O2"
_cell_formula_units_Z 64
_cell_length_a 18.051861
_cell_length_b 12.243225
_cell_length_c 14.223979
_cell_angle_alpha 90.000000
_cell_angle_beta 90.000000
_cell_angle_gamma 90.000000
_cell_volume 3143.684212
_symmetry_space_group_name_H-M "C M C A"
_symmetry_group_IT_number 64
_symmetry_cell_setting 'orthorhombic'
loop_
_space_group_symop_operation_xyz
x,y,z
-x,1/2-y,1/2+z
x,-y,-z
-x,1/2+y,1/2-z
-x,-y,-z
x,1/2+y,1/2-z
-x,y,z
x,1/2-y,1/2+z
1/2+x,1/2+y,z
1/2-x,-y,1/2+z
1/2+x,1/2-y,-z
1/2-x,y,1/2-z
1/2-x,1/2-y,-z
1/2+x,y,1/2-z
1/2-x,1/2+y,z
1/2+x,-y,1/2+z
loop_
_atom_site_type_symbol
_atom_site_label
_atom_site_fract_x
_atom_site_fract_y
_atom_site_fract_z
Si Si1 0.836705 0.629862 0.725284
Si Si2 0.834806 0.934582 0.902328
Si Si3 0.806130 0.811494 0.572925
Si Si4 0.412609 0.298376 0.415804
O O1 0.750000 0.622388 0.750000
O O2 0.861410 0.518548 0.675969
O O3 0.838988 0.728733 0.649557
O O4 0.882141 0.653221 0.818753
O O5 0.750143 0.897139 0.880855
O O6 0.886101 0.828619 0.913221
O O7 0.832067 0.000000 0.000000
O O8 0.750000 0.750000 0.500000
O O9 0.870822 0.852091 0.504863
O O10 0.500000 0.306765 0.423551
#
# Coordination Sequence:
#
# PCOD9479562 Si02
#       4
#    16  16  16  16
#     4  12  22  39  69  95 129 168 222 275 318 386
#     4  11  21  40  70  94 121 171 230 266 322 388
#     4  10  20  42  63  97 122 164 219 273 320 372
#     4  11  25  43  62  98 140 168 212 270 335 392
#
# _framework density 20.358280000000001
#
# number of rings (size 3 to 8) (size 9 to 14) (size 15 to 20)
#    0.000    1.000   10.000    0.000    3.500    2.500 
#    0.000    0.000    0.000    2.250    0.000    0.000 
#    0.000    0.000    0.000    0.000    0.000    0.000 
#
# Total GULP energy -178828.060082 kJ/mol
# GULP energy per Si atom -5588.376878 kJ/mol
# Density = 2.031194 g / cm^3
# Si number density = 20.358280 Si / 1000 Ang^3
#
#
#
# Elastic Constant Matrix: (Units=GPa)
#
#
# Indices 1 2 3 4 5 6 
#
# 1 123.9521 -7.3357 6.6805 0.0000 0.0000 0.0000
# 2 -7.3357 44.5486 -5.5987 0.0000 0.0000 0.0000
# 3 6.6805 -5.5987 43.9703 0.0000 0.0000 0.0000
# 4 0.0000 0.0000 0.0000 40.0230 0.0000 0.0000
# 5 0.0000 0.0000 0.0000 0.0000 21.5938 0.0000
# 6 0.0000 0.0000 0.0000 0.0000 0.0000 3.9737
#
#
#
# Elastic Compliance Matrix: (Units=1/GPa)
#
#
# Indices 1 2 3 4 5 6 
#
# 1 0.008198 0.001213 -0.001091 0.000000 0.000000 0.000000
# 2 0.001213 0.022992 0.002743 0.000000 0.000000 0.000000
# 3 -0.001091 0.002743 0.023258 0.000000 0.000000 0.000000
# 4 0.000000 0.000000 0.000000 0.024986 0.000000 0.000000
# 5 0.000000 0.000000 0.000000 0.000000 0.046310 0.000000
# 6 0.000000 0.000000 0.000000 0.000000 0.000000 0.251657
#
#
# Mechanical properties :
#
#
# Convention : Reuss Voigt Hill
#
# Bulk Modulus (GPa) = 16.61743 22.21813 19.41778
# Shear Modulus (GPa) = 12.76392 27.69976 20.23184
#
# Velocity S-wave (km/s) = 2.50664 3.69265 3.15586
# Velocity P-wave (km/s) = 4.06914 5.39612 4.77891
#
# Compressibility (1/GPa) = 0.06017777
#
# Stress axis : x y z
#
# Youngs Moduli (GPa) = 121.97770 43.49359 42.99653
#
# Poissons Ratio (x) = -0.05275 0.04692
# Poissons Ratio (y) = -0.14794 -0.11795
# Poissons Ratio (z) = 0.13310 -0.11932
#
# Static dielectric constant tensor:
#      x y z
#    x 1.697020 0.000000 0.000000 
#    y 0.000000 1.775790 0.000000 
#    z 0.000000 0.000000 1.756540 
# 
# From -- ./inp_files/24854.got.cif
#   From: 2010.05.17/outbox.cif.g08.bks.cpg/sg64_13_cif.got.tgz:24854.got - 2010.06.03 16:29:19.
