data_PCOD9479760
_publ_section_title
;
Structure prediction by ZEFSAII (Michael W. Deem and Ramdas Pophale) SiO2 
 PCOD9479760
Probable space group: C M C A
;
_chemical_formula_sum "Si O2"
_cell_formula_units_Z 96
_cell_length_a 8.741274
_cell_length_b 20.767144
_cell_length_c 25.069186
_cell_angle_alpha 90.000000
_cell_angle_beta 90.000000
_cell_angle_gamma 90.000000
_cell_volume 4550.841822
_symmetry_space_group_name_H-M "C M C A"
_symmetry_group_IT_number 64
_symmetry_cell_setting 'orthorhombic'
loop_
_space_group_symop_operation_xyz
x,y,z
-x,1/2-y,1/2+z
x,-y,-z
-x,1/2+y,1/2-z
-x,-y,-z
x,1/2+y,1/2-z
-x,y,z
x,1/2-y,1/2+z
1/2+x,1/2+y,z
1/2-x,-y,1/2+z
1/2+x,1/2-y,-z
1/2-x,y,1/2-z
1/2-x,1/2-y,-z
1/2+x,y,1/2-z
1/2-x,1/2+y,z
1/2+x,-y,1/2+z
loop_
_atom_site_type_symbol
_atom_site_label
_atom_site_fract_x
_atom_site_fract_y
_atom_site_fract_z
Si Si1 0.177592 0.751977 0.308341
Si Si2 0.185646 0.822687 0.500130
Si Si3 0.816829 0.431243 0.917816
Si Si4 0.180172 0.619526 0.690415
Si Si5 0.178178 0.604260 0.309130
Si Si6 0.315637 0.428861 0.414001
O O1 0.250000 0.746690 0.250000
O O2 0.275705 0.809352 0.332109
O O3 0.184395 0.679340 0.327606
O O4 0.000000 0.772213 0.306557
O O5 0.250000 0.750000 0.500000
O O6 0.237311 0.868468 0.549544
O O7 0.230083 0.867113 0.449293
O O8 0.000000 0.817773 0.500831
O O9 0.768224 0.429589 0.856221
O O10 0.768839 0.501994 0.938221
O O11 0.000000 0.428965 0.921748
O O12 0.250000 0.612357 0.750000
O O13 0.251027 0.574516 0.645665
O O14 0.000000 0.612113 0.694442
O O15 0.250000 0.597463 0.250000
O O16 0.000000 0.585310 0.306626
O O17 0.500000 0.427476 0.411716
#
# Coordination Sequence:
#
# PCOD9479760 Si02
#       6
#    16  16  16  16  16  16
#     4   9  17  31  51  78 114 157 201 246 299 353
#     4  10  23  43  68  96 123 157 205 257 312 369
#     4  10  22  41  65  91 123 166 210 254 304 366
#     4  11  22  36  58  89 125 164 208 255 307 366
#     4  10  21  36  58  89 126 166 207 254 307 366
#     4  10  22  42  65  89 124 167 209 253 305 366
#
# _framework density 21.094996999999999
#
# number of rings (size 3 to 8) (size 9 to 14) (size 15 to 20)
#    0.000    2.000    0.000    4.000    2.333    6.667 
#    0.000    0.000    0.000    3.000    0.000    0.000 
#    0.000    0.000    0.000    0.000    0.000    0.000 
#
# Total GULP energy -267620.521674 kJ/mol
# GULP energy per Si atom -5575.427535 kJ/mol
# Density = 2.104698 g / cm^3
# Si number density = 21.094997 Si / 1000 Ang^3
#
#
#
# Elastic Constant Matrix: (Units=GPa)
#
#
# Indices 1 2 3 4 5 6 
#
# 1 25.4971 38.1676 23.6882 0.0000 0.0000 0.0000
# 2 38.1676 159.3951 63.0816 0.0000 0.0000 0.0000
# 3 23.6882 63.0816 126.2828 0.0000 0.0000 0.0000
# 4 0.0000 0.0000 0.0000 -32.1057 0.0000 0.0000
# 5 0.0000 0.0000 0.0000 0.0000 22.7463 0.0000
# 6 0.0000 0.0000 0.0000 0.0000 0.0000 9.6675
#
#
#
# Elastic Compliance Matrix: (Units=1/GPa)
#
#
# Indices 1 2 3 4 5 6 
#
# 1 0.063977 -0.013174 -0.005420 0.000000 0.000000 0.000000
# 2 -0.013174 0.010533 -0.002790 0.000000 0.000000 0.000000
# 3 -0.005420 -0.002790 0.010329 0.000000 0.000000 0.000000
# 4 0.000000 0.000000 0.000000 -0.031147 0.000000 0.000000
# 5 0.000000 0.000000 0.000000 0.000000 0.043963 0.000000
# 6 0.000000 0.000000 0.000000 0.000000 0.000000 0.103439
#
#
# Mechanical properties :
#
#
# Convention : Reuss Voigt Hill
#
# Bulk Modulus (GPa) = 23.77000 62.33886 43.05443
# Shear Modulus (GPa) = 19.38842 12.47745 15.93294
#
# Velocity S-wave (km/s) = 3.03496 2.43469 2.75124
# Velocity P-wave (km/s) = 4.85529 6.12530 5.52689
#
# Compressibility (1/GPa) = 0.04206983
#
# Stress axis : x y z
#
# Youngs Moduli (GPa) = 15.63065 94.94383 96.81412
#
# Poissons Ratio (x) = 1.25084 0.52472
# Poissons Ratio (y) = 0.20593 0.27011
# Poissons Ratio (z) = 0.08472 0.26489
#
# Static dielectric constant tensor:
#      x y z
#    x 1.713570 0.000000 0.000000 
#    y 0.000000 1.861910 0.000000 
#    z 0.000000 0.000000 1.766130 
# 
# From -- ./inp_files/48121.got.cif
#   From: 2010.05.17/outbox.cif.g08.bks.cpg/sg64_25_cif.got.tgz:48121.got - 2010.06.03 16:29:19.
