data_PCOD9479852
_publ_section_title
;
Structure prediction by ZEFSAII (Michael W. Deem and Ramdas Pophale) SiO2 
 PCOD9479852
Probable space group: C M C A
;
_chemical_formula_sum "Si O2"
_cell_formula_units_Z 64
_cell_length_a 8.640269
_cell_length_b 20.411557
_cell_length_c 20.411785
_cell_angle_alpha 90.000000
_cell_angle_beta 90.000000
_cell_angle_gamma 90.000000
_cell_volume 3599.849819
_symmetry_space_group_name_H-M "C M C A"
_symmetry_group_IT_number 64
_symmetry_cell_setting 'orthorhombic'
loop_
_space_group_symop_operation_xyz
x,y,z
-x,1/2-y,1/2+z
x,-y,-z
-x,1/2+y,1/2-z
-x,-y,-z
x,1/2+y,1/2-z
-x,y,z
x,1/2-y,1/2+z
1/2+x,1/2+y,z
1/2-x,-y,1/2+z
1/2+x,1/2-y,-z
1/2-x,y,1/2-z
1/2-x,1/2-y,-z
1/2+x,y,1/2-z
1/2-x,1/2+y,z
1/2+x,-y,1/2+z
loop_
_atom_site_type_symbol
_atom_site_label
_atom_site_fract_x
_atom_site_fract_y
_atom_site_fract_z
Si Si1 0.814120 0.429110 0.429270
Si Si2 0.685756 0.819966 0.321631
Si Si3 0.685129 0.926820 0.926554
Si Si4 0.814910 0.176007 0.177494
O O1 0.775741 0.374569 0.375391
O O2 0.746936 0.411403 0.500495
O O3 0.745500 0.499992 0.411210
O O4 0.000000 0.434459 0.434050
O O5 0.500000 0.813461 0.317928
O O6 0.750000 0.838189 0.250000
O O7 0.757253 0.749372 0.338782
O O8 0.500000 0.926253 0.926521
O O9 0.750430 0.875364 0.874679
O O10 0.750000 0.161046 0.250000
O O11 0.000000 0.174491 0.178789
#
# Coordination Sequence:
#
# PCOD9479852 Si02
#       4
#    16  16  16  16
#     4  10  21  38  58  82 113 147 185 229 277 327
#     4  10  21  37  58  83 112 145 182 226 274 327
#     4  11  22  37  58  83 112 146 186 229 276 329
#     4  11  22  38  59  82 112 146 183 228 275 327
#
# _framework density 17.77852
#
# number of rings (size 3 to 8) (size 9 to 14) (size 15 to 20)
#    0.000    1.500    0.000    9.000    0.000    6.000 
#    0.000    2.500    0.000    0.000    0.000    0.000 
#    0.000    0.000    0.000    0.000    0.000    0.000 
#
# Total GULP energy -178852.517219 kJ/mol
# GULP energy per Si atom -5589.141163 kJ/mol
# Density = 1.773806 g / cm^3
# Si number density = 17.778520 Si / 1000 Ang^3
#
#
#
# Elastic Constant Matrix: (Units=GPa)
#
#
# Indices 1 2 3 4 5 6 
#
# 1 152.5686 91.5550 91.0914 0.0000 0.0000 0.0000
# 2 91.5550 156.0859 151.0818 0.0000 0.0000 0.0000
# 3 91.0914 151.0818 155.3760 0.0000 0.0000 0.0000
# 4 0.0000 0.0000 0.0000 44.5271 0.0000 0.0000
# 5 0.0000 0.0000 0.0000 0.0000 34.5900 0.0000
# 6 0.0000 0.0000 0.0000 0.0000 0.0000 33.7877
#
#
#
# Elastic Compliance Matrix: (Units=1/GPa)
#
#
# Indices 1 2 3 4 5 6 
#
# 1 0.010184 -0.003307 -0.002754 0.000000 0.000000 0.000000
# 2 -0.003307 0.110012 -0.105032 0.000000 0.000000 0.000000
# 3 -0.002754 -0.105032 0.110181 0.000000 0.000000 0.000000
# 4 0.000000 0.000000 0.000000 0.022458 0.000000 0.000000
# 5 0.000000 0.000000 0.000000 0.000000 0.028910 0.000000
# 6 0.000000 0.000000 0.000000 0.000000 0.000000 0.029597
#
#
# Mechanical properties :
#
#
# Convention : Reuss Voigt Hill
#
# Bulk Modulus (GPa) = 122.13585 125.72075 123.92830
# Shear Modulus (GPa) = 9.32386 31.26780 20.29583
#
# Velocity S-wave (km/s) = 2.29256 4.19828 3.38241
# Velocity P-wave (km/s) = 8.70950 9.71438 9.22564
#
# Compressibility (1/GPa) = 0.00818760
#
# Stress axis : x y z
#
# Youngs Moduli (GPa) = 98.19683 9.08993 9.07601
#
# Poissons Ratio (x) = 0.03006 0.02500
# Poissons Ratio (y) = 0.32476 0.95328
# Poissons Ratio (z) = 0.27048 0.95474
#
# Static dielectric constant tensor:
#      x y z
#    x 1.594560 0.000000 0.000000 
#    y 0.000000 1.582000 0.000000 
#    z 0.000000 0.000000 1.581510 
# 
# From -- ./inp_files/29258.got.cif
#   From: 2010.05.17/outbox.cif.g08.bks.cpg/sg64_15_cif.got.tgz:29258.got - 2010.06.03 16:29:19.
