data_PCOD9479771
_publ_section_title
;
Structure prediction by ZEFSAII (Michael W. Deem and Ramdas Pophale) SiO2 
 PCOD9479771
Probable space group: C M C A
;
_chemical_formula_sum "Si O2"
_cell_formula_units_Z 128
_cell_length_a 20.659272
_cell_length_b 15.312291
_cell_length_c 20.061247
_cell_angle_alpha 90.000000
_cell_angle_beta 90.000000
_cell_angle_gamma 90.000000
_cell_volume 6346.190618
_symmetry_space_group_name_H-M "C M C A"
_symmetry_group_IT_number 64
_symmetry_cell_setting 'orthorhombic'
loop_
_space_group_symop_operation_xyz
x,y,z
-x,1/2-y,1/2+z
x,-y,-z
-x,1/2+y,1/2-z
-x,-y,-z
x,1/2+y,1/2-z
-x,y,z
x,1/2-y,1/2+z
1/2+x,1/2+y,z
1/2-x,-y,1/2+z
1/2+x,1/2-y,-z
1/2-x,y,1/2-z
1/2-x,1/2-y,-z
1/2+x,y,1/2-z
1/2-x,1/2+y,z
1/2+x,-y,1/2+z
loop_
_atom_site_type_symbol
_atom_site_label
_atom_site_fract_x
_atom_site_fract_y
_atom_site_fract_z
Si Si1 0.196064 0.925731 0.295504
Si Si2 0.927430 0.576731 0.106109
Si Si3 0.680785 0.225122 0.091401
Si Si4 0.424256 0.335479 0.838535
Si Si5 0.569482 0.496132 0.753032
Si Si6 0.666128 0.441963 0.439724
Si Si7 0.183184 0.760051 0.744778
Si Si8 0.671926 0.769206 0.550484
O O1 0.250000 0.967121 0.250000
O O2 0.201092 0.959550 0.369788
O O3 0.201158 0.821738 0.292074
O O4 0.128193 0.941447 0.260342
O O5 0.870954 0.645329 0.088475
O O6 0.929085 0.563918 0.186029
O O7 0.904865 0.483835 0.074959
O O8 0.000000 0.601086 0.084377
O O9 0.672917 0.259765 0.166746
O O10 0.756955 0.202933 0.077966
O O11 0.666482 0.288494 0.028628
O O12 0.500000 0.308024 0.839952
O O13 0.424008 0.437516 0.818503
O O14 0.381324 0.295856 0.778439
O O15 0.384723 0.309644 0.904628
O O16 0.500000 0.541314 0.753528
O O17 0.693098 0.500000 0.500000
O O18 0.667438 0.337598 0.447613
O O19 0.250000 0.816472 0.750000
#
# Coordination Sequence:
#
# PCOD9479771 Si02
#       8
#    16  16  16  16  16  16  16  16
#     4  10  21  37  60  88 117 155 202 246 304 362
#     4  10  21  36  59  92 124 158 198 251 313 376
#     4  11  22  38  62  86 124 162 206 249 304 373
#     4  11  22  37  60  89 120 161 205 251 307 370
#     4   9  20  37  56  84 116 148 200 250 295 360
#     4  11  21  39  59  89 127 158 194 252 316 383
#     4  11  20  38  63  87 121 158 202 260 305 365
#     4  11  23  40  57  90 125 166 204 248 312 382
#
# _framework density 20.169581000000001
#
# number of rings (size 3 to 8) (size 9 to 14) (size 15 to 20)
#    0.000    1.500    5.000    0.750    0.000    4.250 
#    0.000    0.000    0.000    0.000    0.000    1.750 
#    0.000    0.000    0.000    0.000    0.000    0.000 
#
# Total GULP energy -356340.274086 kJ/mol
# GULP energy per Si atom -5567.816783 kJ/mol
# Density = 2.012367 g / cm^3
# Si number density = 20.169581 Si / 1000 Ang^3
#
#
#
# Elastic Constant Matrix: (Units=GPa)
#
#
# Indices 1 2 3 4 5 6 
#
# 1 141.4388 24.6500 30.2816 0.0000 0.0000 0.0000
# 2 24.6500 34.5486 -7.0839 0.0000 0.0000 0.0000
# 3 30.2816 -7.0839 127.1755 0.0000 0.0000 0.0000
# 4 0.0000 0.0000 0.0000 20.0841 0.0000 0.0000
# 5 0.0000 0.0000 0.0000 0.0000 21.3088 0.0000
# 6 0.0000 0.0000 0.0000 0.0000 0.0000 19.7498
#
#
#
# Elastic Compliance Matrix: (Units=1/GPa)
#
#
# Indices 1 2 3 4 5 6 
#
# 1 0.008778 -0.006769 -0.002467 0.000000 0.000000 0.000000
# 2 -0.006769 0.034499 0.003533 0.000000 0.000000 0.000000
# 3 -0.002467 0.003533 0.008647 0.000000 0.000000 0.000000
# 4 0.000000 0.000000 0.000000 0.049791 0.000000 0.000000
# 5 0.000000 0.000000 0.000000 0.000000 0.046929 0.000000
# 6 0.000000 0.000000 0.000000 0.000000 0.000000 0.050633
#
#
# Mechanical properties :
#
#
# Convention : Reuss Voigt Hill
#
# Bulk Modulus (GPa) = 24.67986 44.31760 34.49873
# Shear Modulus (GPa) = 22.30259 29.24955 25.77607
#
# Velocity S-wave (km/s) = 3.32890 3.81226 3.57875
# Velocity P-wave (km/s) = 5.19982 6.43412 5.84962
#
# Compressibility (1/GPa) = 0.04051888
#
# Stress axis : x y z
#
# Youngs Moduli (GPa) = 113.91969 28.98648 115.64132
#
# Poissons Ratio (x) = 0.19621 0.28531
# Poissons Ratio (y) = 0.77112 -0.40861
# Poissons Ratio (z) = 0.28106 -0.10242
#
# Static dielectric constant tensor:
#      x y z
#    x 1.774950 0.000000 0.000000 
#    y 0.000000 1.740110 0.000000 
#    z 0.000000 0.000000 1.777980 
# 
# From -- ./inp_files/41154.got.cif
#   From: 2010.05.17/outbox.cif.g08.bks.cpg/sg64_21_cif.got.tgz:41154.got - 2010.06.03 16:29:19.
