data_PCOD9479192
_publ_section_title
;
Structure prediction by ZEFSAII (Michael W. Deem and Ramdas Pophale) SiO2 
 PCOD9479192
Probable space group: C M C A
;
_chemical_formula_sum "Si O2"
_cell_formula_units_Z 96
_cell_length_a 23.981895
_cell_length_b 9.293859
_cell_length_c 22.700765
_cell_angle_alpha 90.000000
_cell_angle_beta 90.000000
_cell_angle_gamma 90.000000
_cell_volume 5059.645267
_symmetry_space_group_name_H-M "C M C A"
_symmetry_group_IT_number 64
_symmetry_cell_setting 'orthorhombic'
loop_
_space_group_symop_operation_xyz
x,y,z
-x,1/2-y,1/2+z
x,-y,-z
-x,1/2+y,1/2-z
-x,-y,-z
x,1/2+y,1/2-z
-x,y,z
x,1/2-y,1/2+z
1/2+x,1/2+y,z
1/2-x,-y,1/2+z
1/2+x,1/2-y,-z
1/2-x,y,1/2-z
1/2-x,1/2-y,-z
1/2+x,y,1/2-z
1/2-x,1/2+y,z
1/2+x,-y,1/2+z
loop_
_atom_site_type_symbol
_atom_site_label
_atom_site_fract_x
_atom_site_fract_y
_atom_site_fract_z
Si Si1 0.185584 0.602993 0.797701
Si Si2 0.123814 0.889119 0.173293
Si Si3 0.000000 0.225690 0.168408
Si Si4 0.713063 0.357470 0.962098
Si Si5 0.281703 0.694766 0.345898
Si Si6 0.381715 0.793846 0.617484
Si Si7 0.000000 0.400673 0.287862
O O1 0.152553 0.623462 0.737280
O O2 0.240444 0.696602 0.812054
O O3 0.200736 0.436995 0.804922
O O4 0.144873 0.660306 0.848183
O O5 0.162736 0.782188 0.135398
O O6 0.058308 0.852575 0.181451
O O7 0.129489 0.052157 0.149904
O O8 0.053023 0.227540 0.125720
O O9 0.000000 0.345775 0.220156
O O10 0.000000 0.074115 0.204620
O O11 0.747370 0.370309 0.900749
O O12 0.651444 0.304422 0.943625
O O13 0.708514 0.500000 0.000000
O O14 0.750000 0.250000 0.000000
#
# Coordination Sequence:
#
# PCOD9479192 Si02
#       7
#    16  16   8  16  16  16   8
#     4  11  21  35  53  83 119 154 180 227 284 353
#     4  11  21  36  54  85 121 153 185 221 277 350
#     4  10  20  38  57  88 120 154 195 224 278 345
#     4  11  22  40  59  79 108 147 196 252 301 334
#     4  11  23  35  56  83 112 150 193 237 291 344
#     4  10  21  37  59  85 114 151 193 237 281 345
#     4  10  22  34  58  82 124 165 184 219 272 345
#
# _framework density 18.973662999999998
#
# number of rings (size 3 to 8) (size 9 to 14) (size 15 to 20)
#    0.000    1.333    1.667    6.500    2.333    2.667 
#    0.000    0.417    0.000    1.000    0.000    2.333 
#    0.000    0.000    0.000    0.000    0.000    0.000 
#
# Total GULP energy -267850.069855 kJ/mol
# GULP energy per Si atom -5580.209789 kJ/mol
# Density = 1.893048 g / cm^3
# Si number density = 18.973663 Si / 1000 Ang^3
#
#
#
# Elastic Constant Matrix: (Units=GPa)
#
#
# Indices 1 2 3 4 5 6 
#
# 1 179.6019 46.3604 32.7935 0.0000 0.0000 0.0000
# 2 46.3604 67.3379 -0.8727 0.0000 0.0000 0.0000
# 3 32.7935 -0.8727 46.8319 0.0000 0.0000 0.0000
# 4 0.0000 0.0000 0.0000 29.0182 0.0000 0.0000
# 5 0.0000 0.0000 0.0000 0.0000 27.3413 0.0000
# 6 0.0000 0.0000 0.0000 0.0000 0.0000 25.7552
#
#
#
# Elastic Compliance Matrix: (Units=1/GPa)
#
#
# Indices 1 2 3 4 5 6 
#
# 1 0.008073 -0.005633 -0.005758 0.000000 0.000000 0.000000
# 2 -0.005633 0.018784 0.004294 0.000000 0.000000 0.000000
# 3 -0.005758 0.004294 0.025465 0.000000 0.000000 0.000000
# 4 0.000000 0.000000 0.000000 0.034461 0.000000 0.000000
# 5 0.000000 0.000000 0.000000 0.000000 0.036575 0.000000
# 6 0.000000 0.000000 0.000000 0.000000 0.000000 0.038827
#
#
# Mechanical properties :
#
#
# Convention : Reuss Voigt Hill
#
# Bulk Modulus (GPa) = 26.22658 50.03712 38.13185
# Shear Modulus (GPa) = 26.44264 30.78897 28.61580
#
# Velocity S-wave (km/s) = 3.73721 4.03267 3.88775
# Velocity P-wave (km/s) = 5.69868 6.93631 6.34773
#
# Compressibility (1/GPa) = 0.03812926
#
# Stress axis : x y z
#
# Youngs Moduli (GPa) = 123.86580 53.23619 39.26944
#
# Poissons Ratio (x) = 0.29987 0.22612
# Poissons Ratio (y) = 0.69772 -0.16864
# Poissons Ratio (z) = 0.71324 -0.22862
#
# Static dielectric constant tensor:
#      x y z
#    x 1.712320 0.000000 0.000000 
#    y 0.000000 1.637260 0.000000 
#    z 0.000000 0.000000 1.679500 
# 
# From -- ./inp_files/46648.got.cif
#   From: 2010.05.17/outbox.cif.g08.bks.cpg/sg64_24_cif.got.tgz:46648.got - 2010.06.03 16:29:19.
