data_PCOD9479514
_publ_section_title
;
Structure prediction by ZEFSAII (Michael W. Deem and Ramdas Pophale) SiO2 
 PCOD9479514
Probable space group: C M C A
;
_chemical_formula_sum "Si O2"
_cell_formula_units_Z 64
_cell_length_a 17.721881
_cell_length_b 11.739994
_cell_length_c 14.352435
_cell_angle_alpha 90.000000
_cell_angle_beta 90.000000
_cell_angle_gamma 90.000000
_cell_volume 2986.092658
_symmetry_space_group_name_H-M "C M C A"
_symmetry_group_IT_number 64
_symmetry_cell_setting 'orthorhombic'
loop_
_space_group_symop_operation_xyz
x,y,z
-x,1/2-y,1/2+z
x,-y,-z
-x,1/2+y,1/2-z
-x,-y,-z
x,1/2+y,1/2-z
-x,y,z
x,1/2-y,1/2+z
1/2+x,1/2+y,z
1/2-x,-y,1/2+z
1/2+x,1/2-y,-z
1/2-x,y,1/2-z
1/2-x,1/2-y,-z
1/2+x,y,1/2-z
1/2-x,1/2+y,z
1/2+x,-y,1/2+z
loop_
_atom_site_type_symbol
_atom_site_label
_atom_site_fract_x
_atom_site_fract_y
_atom_site_fract_z
Si Si1 0.178871 0.703080 0.874104
Si Si2 0.417989 0.488313 0.610397
Si Si3 0.839009 0.371877 0.458510
Si Si4 0.086963 0.245062 0.802531
O O1 0.143305 0.578326 0.860897
O O2 0.263456 0.675608 0.907313
O O3 0.150835 0.755626 0.776902
O O4 0.146338 0.785110 0.955499
O O5 0.420957 0.500000 0.500000
O O6 0.500000 0.520334 0.649502
O O7 0.403449 0.359711 0.637498
O O8 0.830930 0.500000 0.500000
O O9 0.899640 0.357766 0.375619
O O10 0.000000 0.243714 0.767414
#
# Coordination Sequence:
#
# PCOD9479514 Si02
#       4
#    16  16  16  16
#     4  11  24  44  68  96 140 182 233 283 337 406
#     4  10  20  40  69  96 134 182 228 278 341 411
#     4  11  26  45  68 101 140 185 226 282 343 406
#     4  11  25  44  70 104 136 179 231 285 345 407
#
# _framework density 21.432690000000001
#
# number of rings (size 3 to 8) (size 9 to 14) (size 15 to 20)
#    0.000    1.250    2.500    2.250    7.000    1.500 
#    0.000    0.000    0.000    0.000    0.000    0.000 
#    0.000    0.000    0.000    0.000    0.000    0.000 
#
# Total GULP energy -178375.323799 kJ/mol
# GULP energy per Si atom -5574.228869 kJ/mol
# Density = 2.138391 g / cm^3
# Si number density = 21.432690 Si / 1000 Ang^3
#
#
#
# Elastic Constant Matrix: (Units=GPa)
#
#
# Indices 1 2 3 4 5 6 
#
# 1 59.3952 24.5159 37.7784 0.0000 0.0000 0.0000
# 2 24.5159 84.1057 49.8281 0.0000 0.0000 0.0000
# 3 37.7784 49.8281 133.9056 0.0000 0.0000 0.0000
# 4 0.0000 0.0000 0.0000 41.7041 0.0000 0.0000
# 5 0.0000 0.0000 0.0000 0.0000 32.0918 0.0000
# 6 0.0000 0.0000 0.0000 0.0000 0.0000 30.3355
#
#
#
# Elastic Compliance Matrix: (Units=1/GPa)
#
#
# Indices 1 2 3 4 5 6 
#
# 1 0.021245 -0.003389 -0.004733 0.000000 0.000000 0.000000
# 2 -0.003389 0.015793 -0.004921 0.000000 0.000000 0.000000
# 3 -0.004733 -0.004921 0.010634 0.000000 0.000000 0.000000
# 4 0.000000 0.000000 0.000000 0.023978 0.000000 0.000000
# 5 0.000000 0.000000 0.000000 0.000000 0.031161 0.000000
# 6 0.000000 0.000000 0.000000 0.000000 0.000000 0.032965
#
#
# Mechanical properties :
#
#
# Convention : Reuss Voigt Hill
#
# Bulk Modulus (GPa) = 46.32238 55.73903 51.03071
# Shear Modulus (GPa) = 29.57581 31.84522 30.71051
#
# Velocity S-wave (km/s) = 3.71878 3.85882 3.78945
# Velocity P-wave (km/s) = 6.33238 6.77621 6.55805
#
# Compressibility (1/GPa) = 0.02158784
#
# Stress axis : x y z
#
# Youngs Moduli (GPa) = 47.06880 63.31983 94.03565
#
# Poissons Ratio (x) = 0.21458 0.44506
# Poissons Ratio (y) = 0.15951 0.46272
# Poissons Ratio (z) = 0.22277 0.31157
#
# Static dielectric constant tensor:
#      x y z
#    x 1.874040 0.000000 0.000000 
#    y 0.000000 1.683290 0.000000 
#    z 0.000000 0.000000 1.813620 
# 
# From -- ./inp_files/24861.got.cif
#   From: 2010.05.17/outbox.cif.g08.bks.cpg/sg64_13_cif.got.tgz:24861.got - 2010.06.03 16:29:19.
