data_PCOD9479445
_publ_section_title
;
Structure prediction by ZEFSAII (Michael W. Deem and Ramdas Pophale) SiO2 
 PCOD9479445
Probable space group: C M C A
;
_chemical_formula_sum "Si O2"
_cell_formula_units_Z 72
_cell_length_a 9.614828
_cell_length_b 13.398821
_cell_length_c 25.539706
_cell_angle_alpha 90.000000
_cell_angle_beta 90.000000
_cell_angle_gamma 90.000000
_cell_volume 3290.212882
_symmetry_space_group_name_H-M "C M C A"
_symmetry_group_IT_number 64
_symmetry_cell_setting 'orthorhombic'
loop_
_space_group_symop_operation_xyz
x,y,z
-x,1/2-y,1/2+z
x,-y,-z
-x,1/2+y,1/2-z
-x,-y,-z
x,1/2+y,1/2-z
-x,y,z
x,1/2-y,1/2+z
1/2+x,1/2+y,z
1/2-x,-y,1/2+z
1/2+x,1/2-y,-z
1/2-x,y,1/2-z
1/2-x,1/2-y,-z
1/2+x,y,1/2-z
1/2-x,1/2+y,z
1/2+x,-y,1/2+z
loop_
_atom_site_type_symbol
_atom_site_label
_atom_site_fract_x
_atom_site_fract_y
_atom_site_fract_z
Si Si1 0.000000 0.642222 0.659827
Si Si2 0.000000 0.587832 0.777629
Si Si3 0.500000 0.905191 0.676143
Si Si4 0.000000 0.705053 0.883458
Si Si5 0.159768 0.897321 0.977033
Si Si6 0.250000 0.448397 0.750000
Si Si7 0.788195 0.273151 0.422196
O O1 0.000000 0.650304 0.722978
O O2 0.127695 0.694284 0.629337
O O3 0.000000 0.520392 0.655346
O O4 0.138454 0.519848 0.778631
O O5 0.000000 0.652792 0.828251
O O6 0.642644 0.893128 0.710696
O O7 0.500000 0.820636 0.633300
O O8 0.864435 0.681592 0.915864
O O9 0.257795 0.843413 0.934349
O O10 0.000000 0.917601 0.960261
O O11 0.149086 0.821436 0.025928
O O12 0.217175 0.000000 0.000000
#
# Coordination Sequence:
#
# PCOD9479445 Si02
#       7
#     8   8   8   8  16   8  16
#     4  10  22  41  65  85 134 172 206 257 315 378
#     4  10  20  40  60  88 128 172 202 262 311 358
#     4  10  22  36  64  89 122 168 218 253 306 364
#     4  12  24  37  63  93 128 164 220 255 313 374
#     4  10  22  43  70  91 123 164 209 265 326 383
#     4   8  18  40  60  82 118 170 212 254 304 356
#     4  11  23  39  65  97 123 163 213 262 315 386
#
# _framework density 21.883081000000001
#
# number of rings (size 3 to 8) (size 9 to 14) (size 15 to 20)
#    0.000    2.000    2.222    2.667    3.111    2.667 
#    0.000    3.333    0.000    0.000    0.000    0.000 
#    0.000    0.000    0.000    0.000    0.000    0.000 
#
# Total GULP energy -200711.877695 kJ/mol
# GULP energy per Si atom -5575.329936 kJ/mol
# Density = 2.183327 g / cm^3
# Si number density = 21.883081 Si / 1000 Ang^3
#
#
#
# Elastic Constant Matrix: (Units=GPa)
#
#
# Indices 1 2 3 4 5 6 
#
# 1 141.7918 -5.1338 10.9152 0.0000 0.0000 0.0000
# 2 -5.1338 33.0684 -20.5018 0.0000 0.0000 0.0000
# 3 10.9152 -20.5018 49.8808 0.0000 0.0000 0.0000
# 4 0.0000 0.0000 0.0000 33.4026 0.0000 0.0000
# 5 0.0000 0.0000 0.0000 0.0000 34.9252 0.0000
# 6 0.0000 0.0000 0.0000 0.0000 0.0000 13.4442
#
#
#
# Elastic Compliance Matrix: (Units=1/GPa)
#
#
# Indices 1 2 3 4 5 6 
#
# 1 0.007174 0.000188 -0.001492 0.000000 0.000000 0.000000
# 2 0.000188 0.040586 0.016640 0.000000 0.000000 0.000000
# 3 -0.001492 0.016640 0.027214 0.000000 0.000000 0.000000
# 4 0.000000 0.000000 0.000000 0.029938 0.000000 0.000000
# 5 0.000000 0.000000 0.000000 0.000000 0.028633 0.000000
# 6 0.000000 0.000000 0.000000 0.000000 0.000000 0.074381
#
#
# Mechanical properties :
#
#
# Convention : Reuss Voigt Hill
#
# Bulk Modulus (GPa) = 9.46547 21.70004 15.58276
# Shear Modulus (GPa) = 23.53284 32.31850 27.92567
#
# Velocity S-wave (km/s) = 3.28287 3.84718 3.57617
# Velocity P-wave (km/s) = 4.32487 5.44722 4.91817
#
# Compressibility (1/GPa) = 0.10564715
#
# Stress axis : x y z
#
# Youngs Moduli (GPa) = 139.38621 24.63886 36.74605
#
# Poissons Ratio (x) = -0.00464 0.05484
# Poissons Ratio (y) = -0.02627 -0.61147
# Poissons Ratio (z) = 0.20803 -0.41000
#
# Static dielectric constant tensor:
#      x y z
#    x 1.839390 0.000000 0.000000 
#    y 0.000000 1.826320 0.000000 
#    z 0.000000 0.000000 1.812130 
# 
# From -- ./inp_files/47667.got.cif
#   From: 2010.05.17/outbox.cif.g08.bks.cpg/sg64_24_cif.got.tgz:47667.got - 2010.06.03 16:29:19.
