data_PCOD9479974
_publ_section_title
;
Structure prediction by ZEFSAII (Michael W. Deem and Ramdas Pophale) SiO2 
 PCOD9479974
Probable space group: C M C A
;
_chemical_formula_sum "Si O2"
_cell_formula_units_Z 64
_cell_length_a 8.711481
_cell_length_b 28.991264
_cell_length_c 14.500078
_cell_angle_alpha 90.000000
_cell_angle_beta 90.000000
_cell_angle_gamma 90.000000
_cell_volume 3662.093959
_symmetry_space_group_name_H-M "C M C A"
_symmetry_group_IT_number 64
_symmetry_cell_setting 'orthorhombic'
loop_
_space_group_symop_operation_xyz
x,y,z
-x,1/2-y,1/2+z
x,-y,-z
-x,1/2+y,1/2-z
-x,-y,-z
x,1/2+y,1/2-z
-x,y,z
x,1/2-y,1/2+z
1/2+x,1/2+y,z
1/2-x,-y,1/2+z
1/2+x,1/2-y,-z
1/2-x,y,1/2-z
1/2-x,1/2-y,-z
1/2+x,y,1/2-z
1/2-x,1/2+y,z
1/2+x,-y,1/2+z
loop_
_atom_site_type_symbol
_atom_site_label
_atom_site_fract_x
_atom_site_fract_y
_atom_site_fract_z
Si Si1 0.816537 0.126004 0.352703
Si Si2 0.814404 0.553510 0.493582
Si Si3 0.316155 0.874619 0.351749
Si Si4 0.315241 0.198769 0.495492
O O1 0.750000 0.125695 0.250000
O O2 0.760770 0.080939 0.409055
O O3 0.751459 0.169524 0.410218
O O4 0.000000 0.127793 0.350619
O O5 0.772337 0.500000 0.500000
O O6 0.770705 0.581233 0.586388
O O7 0.000000 0.556808 0.483822
O O8 0.500000 0.874873 0.345320
O O9 0.250000 0.874737 0.250000
O O10 0.271858 0.830058 0.412597
O O11 0.500000 0.199350 0.488945
O O12 0.250000 0.250000 0.500000
#
# Coordination Sequence:
#
# PCOD9479974 Si02
#       4
#    16  16  16  16
#     4  11  22  37  57  81 110 145 185 229 276 327
#     4   9  19  37  57  79 110 144 179 225 276 323
#     4   9  19  34  53  77 106 139 174 214 262 316
#     4  10  21  38  57  80 109 142 181 225 275 326
#
# _framework density 17.476341000000001
#
# number of rings (size 3 to 8) (size 9 to 14) (size 15 to 20)
#    0.000    2.250    0.000    4.500    0.000    7.500 
#    0.000    5.000    0.000    0.000    0.000    0.000 
#    0.000    0.000    0.000    0.000    0.000    0.000 
#
# Total GULP energy -178623.647057 kJ/mol
# GULP energy per Si atom -5581.988971 kJ/mol
# Density = 1.743656 g / cm^3
# Si number density = 17.476341 Si / 1000 Ang^3
#
#
#
# Elastic Constant Matrix: (Units=GPa)
#
#
# Indices 1 2 3 4 5 6 
#
# 1 74.7168 66.6951 64.5837 0.0000 0.0000 0.0000
# 2 66.6951 197.7981 109.0704 0.0000 0.0000 0.0000
# 3 64.5837 109.0704 203.0243 0.0000 0.0000 0.0000
# 4 0.0000 0.0000 0.0000 5.3579 0.0000 0.0000
# 5 0.0000 0.0000 0.0000 0.0000 37.4211 0.0000
# 6 0.0000 0.0000 0.0000 0.0000 0.0000 11.4583
#
#
#
# Elastic Compliance Matrix: (Units=1/GPa)
#
#
# Indices 1 2 3 4 5 6 
#
# 1 0.021360 -0.004910 -0.004157 0.000000 0.000000 0.000000
# 2 -0.004910 0.008312 -0.002904 0.000000 0.000000 0.000000
# 3 -0.004157 -0.002904 0.007808 0.000000 0.000000 0.000000
# 4 0.000000 0.000000 0.000000 0.186640 0.000000 0.000000
# 5 0.000000 0.000000 0.000000 0.000000 0.026723 0.000000
# 6 0.000000 0.000000 0.000000 0.000000 0.000000 0.087273
#
#
# Mechanical properties :
#
#
# Convention : Reuss Voigt Hill
#
# Bulk Modulus (GPa) = 73.86216 106.24862 90.05539
# Shear Modulus (GPa) = 13.63994 26.52679 20.08337
#
# Velocity S-wave (km/s) = 2.79674 3.90021 3.39363
# Velocity P-wave (km/s) = 7.26532 9.01165 8.18519
#
# Compressibility (1/GPa) = 0.01353873
#
# Stress axis : x y z
#
# Youngs Moduli (GPa) = 46.81649 120.30103 128.07605
#
# Poissons Ratio (x) = 0.59069 0.53241
# Poissons Ratio (y) = 0.22987 0.37190
# Poissons Ratio (z) = 0.19461 0.34933
#
# Static dielectric constant tensor:
#      x y z
#    x 1.584160 0.000000 0.000000 
#    y 0.000000 1.578890 0.000000 
#    z 0.000000 0.000000 1.566700 
# 
# From -- ./inp_files/12115.got.cif
#   From: 2010.05.17/outbox.cif.g08.bks.cpg/sg64_7_cif.got.tgz:12115.got - 2010.06.03 16:29:19.
