data_PCOD9479719
_publ_section_title
;
Structure prediction by ZEFSAII (Michael W. Deem and Ramdas Pophale) SiO2 
 PCOD9479719
Probable space group: C M C A
;
_chemical_formula_sum "Si O2"
_cell_formula_units_Z 56
_cell_length_a 19.029677
_cell_length_b 13.367729
_cell_length_c 10.382366
_cell_angle_alpha 90.000000
_cell_angle_beta 90.000000
_cell_angle_gamma 90.000000
_cell_volume 2641.103277
_symmetry_space_group_name_H-M "C M C A"
_symmetry_group_IT_number 64
_symmetry_cell_setting 'orthorhombic'
loop_
_space_group_symop_operation_xyz
x,y,z
-x,1/2-y,1/2+z
x,-y,-z
-x,1/2+y,1/2-z
-x,-y,-z
x,1/2+y,1/2-z
-x,y,z
x,1/2-y,1/2+z
1/2+x,1/2+y,z
1/2-x,-y,1/2+z
1/2+x,1/2-y,-z
1/2-x,y,1/2-z
1/2-x,1/2-y,-z
1/2+x,y,1/2-z
1/2-x,1/2+y,z
1/2+x,-y,1/2+z
loop_
_atom_site_type_symbol
_atom_site_label
_atom_site_fract_x
_atom_site_fract_y
_atom_site_fract_z
Si Si1 0.117104 0.968816 0.328387
Si Si2 0.245404 0.000000 0.500000
Si Si3 0.187721 0.171700 0.858253
Si Si4 0.576678 0.662717 0.424644
O O1 0.130691 0.901620 0.206873
O O2 0.086356 0.897446 0.440637
O O3 0.194019 0.003600 0.377861
O O4 0.076989 0.072744 0.320413
O O5 0.284351 0.104795 0.522747
O O6 0.250000 0.190636 0.750000
O O7 0.143619 0.267197 0.902580
O O8 0.500000 0.712715 0.423296
#
# Coordination Sequence:
#
# PCOD9479719 Si02
#       4
#    16   8  16  16
#     4   9  20  36  56  79 112 150 187 235 284 336
#     4   8  18  36  54  80 108 138 184 234 276 328
#     4  10  21  36  60  86 111 146 190 239 286 333
#     4  10  21  36  55  80 113 152 191 231 281 343
#
# _framework density 21.203261000000001
#
# number of rings (size 3 to 8) (size 9 to 14) (size 15 to 20)
#    0.000    2.857    0.000    1.714    0.000   20.571 
#    0.000    0.714    0.000    0.000    0.000    0.000 
#    0.000    0.000    0.000    0.000    0.000    0.000 
#
# Total GULP energy -155910.460360 kJ/mol
# GULP energy per Si atom -5568.230727 kJ/mol
# Density = 2.115500 g / cm^3
# Si number density = 21.203261 Si / 1000 Ang^3
#
#
#
# Elastic Constant Matrix: (Units=GPa)
#
#
# Indices 1 2 3 4 5 6 
#
# 1 120.2658 68.3946 15.4830 0.0000 0.0000 0.0000
# 2 68.3946 121.3886 18.8376 0.0000 0.0000 0.0000
# 3 15.4830 18.8376 25.3677 0.0000 0.0000 0.0000
# 4 0.0000 0.0000 0.0000 20.4104 0.0000 0.0000
# 5 0.0000 0.0000 0.0000 0.0000 -175.9827 0.0000
# 6 0.0000 0.0000 0.0000 0.0000 0.0000 25.5570
#
#
#
# Elastic Compliance Matrix: (Units=1/GPa)
#
#
# Indices 1 2 3 4 5 6 
#
# 1 0.012396 -0.006567 -0.002689 0.000000 0.000000 0.000000
# 2 -0.006567 0.012790 -0.005490 0.000000 0.000000 0.000000
# 3 -0.002689 -0.005490 0.045138 0.000000 0.000000 0.000000
# 4 0.000000 0.000000 0.000000 0.048995 0.000000 0.000000
# 5 0.000000 0.000000 0.000000 0.000000 -0.005682 0.000000
# 6 0.000000 0.000000 0.000000 0.000000 0.000000 0.039128
#
#
# Mechanical properties :
#
#
# Convention : Reuss Voigt Hill
#
# Bulk Modulus (GPa) = 24.49032 52.49472 38.49252
# Shear Modulus (GPa) = 25.52769 -15.04925 5.23922
#
# Velocity S-wave (km/s) = 3.47356 -2.66702 1.57363
# Velocity P-wave (km/s) = 5.25955 3.91504 4.63629
#
# Compressibility (1/GPa) = 0.04083247
#
# Stress axis : x y z
#
# Youngs Moduli (GPa) = 80.67347 78.18679 22.15427
#
# Poissons Ratio (x) = 0.51344 0.05958
# Poissons Ratio (y) = 0.52977 0.12162
# Poissons Ratio (z) = 0.21694 0.42921
#
# Static dielectric constant tensor:
#      x y z
#    x 1.835960 0.000000 0.000000 
#    y 0.000000 1.804470 0.000000 
#    z 0.000000 0.000000 1.801740 
# 
# From -- ./inp_files/17848.got.cif
#   From: 2010.05.17/outbox.cif.g08.bks.cpg/sg64_9_cif.got.tgz:17848.got - 2010.06.03 16:29:19.
