data_PCOD9479896
_publ_section_title
;
Structure prediction by ZEFSAII (Michael W. Deem and Ramdas Pophale) SiO2 
 PCOD9479896
Probable space group: C M C A
;
_chemical_formula_sum "Si O2"
_cell_formula_units_Z 112
_cell_length_a 29.444102
_cell_length_b 13.533487
_cell_length_c 13.598194
_cell_angle_alpha 90.000000
_cell_angle_beta 90.000000
_cell_angle_gamma 90.000000
_cell_volume 5418.626997
_symmetry_space_group_name_H-M "C M C A"
_symmetry_group_IT_number 64
_symmetry_cell_setting 'orthorhombic'
loop_
_space_group_symop_operation_xyz
x,y,z
-x,1/2-y,1/2+z
x,-y,-z
-x,1/2+y,1/2-z
-x,-y,-z
x,1/2+y,1/2-z
-x,y,z
x,1/2-y,1/2+z
1/2+x,1/2+y,z
1/2-x,-y,1/2+z
1/2+x,1/2-y,-z
1/2-x,y,1/2-z
1/2-x,1/2-y,-z
1/2+x,y,1/2-z
1/2-x,1/2+y,z
1/2+x,-y,1/2+z
loop_
_atom_site_type_symbol
_atom_site_label
_atom_site_fract_x
_atom_site_fract_y
_atom_site_fract_z
Si Si1 0.086669 0.483326 0.115312
Si Si2 0.122190 0.991019 0.882492
Si Si3 0.051332 0.129636 0.235698
Si Si4 0.778769 0.974867 0.115561
Si Si5 0.704725 0.756748 0.312078
Si Si6 0.185292 0.051020 0.393255
Si Si7 0.892062 0.817347 0.249193
O O1 0.051975 0.545869 0.179947
O O2 0.135747 0.527857 0.147451
O O3 0.091013 0.370472 0.150814
O O4 0.079756 0.500000 0.000000
O O5 0.086078 0.910693 0.846642
O O6 0.174850 0.970946 0.851693
O O7 0.108871 0.095380 0.831934
O O8 0.121649 0.000000 0.000000
O O9 0.073647 0.229874 0.276035
O O10 0.000000 0.144736 0.200871
O O11 0.786267 0.859096 0.131930
O O12 0.729243 0.002375 0.156846
O O13 0.775591 0.000000 0.000000
O O14 0.750000 0.733552 0.250000
O O15 0.694002 0.667514 0.386512
O O16 0.659495 0.775990 0.246918
O O17 0.182651 0.000000 0.500000
#
# Coordination Sequence:
#
# PCOD9479896 Si02
#       7
#    16  16  16  16  16  16  16
#     4  10  22  43  66  91 127 168 206 258 315 375
#     4   9  21  42  65  91 126 166 204 255 314 377
#     4  11  24  42  64  92 123 158 211 268 321 374
#     4   9  20  38  58  91 129 163 205 251 298 363
#     4  11  22  35  61  89 122 171 210 247 306 370
#     4  10  21  37  59  91 128 163 205 250 300 366
#     4  10  22  40  61  92 127 159 210 257 315 370
#
# _framework density 20.669443000000001
#
# number of rings (size 3 to 8) (size 9 to 14) (size 15 to 20)
#    0.000    2.000    1.429    0.857    2.000    8.000 
#    7.714    1.429    0.000    0.000    0.000    0.000 
#    0.000    0.000    0.000    0.000    0.000    0.000 
#
# Total GULP energy -312546.094782 kJ/mol
# GULP energy per Si atom -5581.180264 kJ/mol
# Density = 2.062240 g / cm^3
# Si number density = 20.669443 Si / 1000 Ang^3
#
#
#
# Elastic Constant Matrix: (Units=GPa)
#
#
# Indices 1 2 3 4 5 6 
#
# 1 133.2490 28.8972 1.6486 0.0000 0.0000 0.0000
# 2 28.8972 93.2076 -0.2381 0.0000 0.0000 0.0000
# 3 1.6486 -0.2381 75.2771 0.0000 0.0000 0.0000
# 4 0.0000 0.0000 0.0000 22.3347 0.0000 0.0000
# 5 0.0000 0.0000 0.0000 0.0000 -0.3661 0.0000
# 6 0.0000 0.0000 0.0000 0.0000 0.0000 23.3661
#
#
#
# Elastic Compliance Matrix: (Units=1/GPa)
#
#
# Indices 1 2 3 4 5 6 
#
# 1 0.008048 -0.002496 -0.000184 0.000000 0.000000 0.000000
# 2 -0.002496 0.011503 0.000091 0.000000 0.000000 0.000000
# 3 -0.000184 0.000091 0.013289 0.000000 0.000000 0.000000
# 4 0.000000 0.000000 0.000000 0.044773 0.000000 0.000000
# 5 0.000000 0.000000 0.000000 0.000000 -2.731857 0.000000
# 6 0.000000 0.000000 0.000000 0.000000 0.000000 0.042797
#
#
# Mechanical properties :
#
#
# Convention : Reuss Voigt Hill
#
# Bulk Modulus (GPa) = 36.15075 40.26103 38.20589
# Shear Modulus (GPa) = -1.92526 27.16201 12.61837
#
# Velocity S-wave (km/s) = -0.96617 3.62900 2.47348
# Velocity P-wave (km/s) = 4.03526 6.08937 5.16545
#
# Compressibility (1/GPa) = 0.02766194
#
# Stress axis : x y z
#
# Youngs Moduli (GPa) = 124.25061 86.93606 75.25261
#
# Poissons Ratio (x) = 0.21696 0.01386
# Poissons Ratio (y) = 0.31009 -0.00685
# Poissons Ratio (z) = 0.02288 -0.00791
#
# Static dielectric constant tensor:
#      x y z
#    x 1.755760 0.000000 0.000000 
#    y 0.000000 1.744920 0.000000 
#    z 0.000000 0.000000 1.887240 
# 
# From -- ./inp_files/28433.got.cif
#   From: 2010.05.17/outbox.cif.g08.bks.cpg/sg64_15_cif.got.tgz:28433.got - 2010.06.03 16:29:19.
