data_PCOD9479497
_publ_section_title
;
Structure prediction by ZEFSAII (Michael W. Deem and Ramdas Pophale) SiO2 
 PCOD9479497
Probable space group: C M C A
;
_chemical_formula_sum "Si O2"
_cell_formula_units_Z 104
_cell_length_a 9.216306
_cell_length_b 19.543332
_cell_length_c 29.458613
_cell_angle_alpha 90.000000
_cell_angle_beta 90.000000
_cell_angle_gamma 90.000000
_cell_volume 5306.006659
_symmetry_space_group_name_H-M "C M C A"
_symmetry_group_IT_number 64
_symmetry_cell_setting 'orthorhombic'
loop_
_space_group_symop_operation_xyz
x,y,z
-x,1/2-y,1/2+z
x,-y,-z
-x,1/2+y,1/2-z
-x,-y,-z
x,1/2+y,1/2-z
-x,y,z
x,1/2-y,1/2+z
1/2+x,1/2+y,z
1/2-x,-y,1/2+z
1/2+x,1/2-y,-z
1/2-x,y,1/2-z
1/2-x,1/2-y,-z
1/2+x,y,1/2-z
1/2-x,1/2+y,z
1/2+x,-y,1/2+z
loop_
_atom_site_type_symbol
_atom_site_label
_atom_site_fract_x
_atom_site_fract_y
_atom_site_fract_z
Si Si1 0.328547 0.099890 0.701987
Si Si2 0.671203 0.554936 0.540993
Si Si3 0.000000 0.278556 0.736376
Si Si4 0.324365 0.322785 0.990202
Si Si5 0.331707 0.853179 0.896147
Si Si6 0.776055 0.748508 0.181290
Si Si7 0.826958 0.014567 0.126796
O O1 0.500000 0.109904 0.710261
O O2 0.250000 0.092224 0.750000
O O3 0.271188 0.169071 0.678606
O O4 0.309252 0.034716 0.670031
O O5 0.677262 0.500000 0.500000
O O6 0.500000 0.568591 0.550149
O O7 0.757550 0.622012 0.524951
O O8 0.753098 0.522566 0.583877
O O9 0.120586 0.269417 0.776875
O O10 0.124027 0.280369 0.697039
O O11 0.500000 0.320180 0.992271
O O12 0.266368 0.345102 0.940687
O O13 0.250000 0.250000 0.000000
O O14 0.500000 0.868222 0.908389
O O15 0.326510 0.785890 0.865185
O O16 0.261059 0.915190 0.867886
O O17 0.000000 0.025371 0.119644
#
# Coordination Sequence:
#
# PCOD9479497 Si02
#       7
#    16  16   8  16  16  16  16
#     4  11  22  43  65  95 129 170 218 271 322 387
#     4  11  23  45  73  97 132 176 219 267 329 399
#     4  10  20  40  66  96 122 168 222 268 334 392
#     4  12  27  46  71 101 136 172 218 273 331 390
#     4  12  25  44  65  97 136 172 216 275 328 396
#     4  11  21  41  68  94 126 169 219 275 329 387
#     4  11  26  43  65  97 133 175 223 267 329 395
#
# _framework density 19.600427
#
# number of rings (size 3 to 8) (size 9 to 14) (size 15 to 20)
#    0.000    0.769    4.615    2.769    4.308    1.846 
#    2.769    0.000    0.000    0.000    0.000    0.000 
#    0.000    0.000    0.000    0.000    0.000    0.000 
#
# Total GULP energy -289511.770135 kJ/mol
# GULP energy per Si atom -5567.534041 kJ/mol
# Density = 1.955582 g / cm^3
# Si number density = 19.600427 Si / 1000 Ang^3
#
#
#
# Elastic Constant Matrix: (Units=GPa)
#
#
# Indices 1 2 3 4 5 6 
#
# 1 166.8279 42.5661 23.0493 0.0000 0.0000 0.0000
# 2 42.5661 82.4502 31.9402 0.0000 0.0000 0.0000
# 3 23.0493 31.9402 48.4598 0.0000 0.0000 0.0000
# 4 0.0000 0.0000 0.0000 -22.4647 0.0000 0.0000
# 5 0.0000 0.0000 0.0000 0.0000 44.3451 0.0000
# 6 0.0000 0.0000 0.0000 0.0000 0.0000 45.2441
#
#
#
# Elastic Compliance Matrix: (Units=1/GPa)
#
#
# Indices 1 2 3 4 5 6 
#
# 1 0.006961 -0.003103 -0.001265 0.000000 0.000000 0.000000
# 2 -0.003103 0.017671 -0.010171 0.000000 0.000000 0.000000
# 3 -0.001265 -0.010171 0.027941 0.000000 0.000000 0.000000
# 4 0.000000 0.000000 0.000000 -0.044514 0.000000 0.000000
# 5 0.000000 0.000000 0.000000 0.000000 0.022550 0.000000
# 6 0.000000 0.000000 0.000000 0.000000 0.000000 0.022102
#
#
# Mechanical properties :
#
#
# Convention : Reuss Voigt Hill
#
# Bulk Modulus (GPa) = 42.56484 54.76101 48.66293
# Shear Modulus (GPa) = 55.79006 26.77038 41.28022
#
# Velocity S-wave (km/s) = 5.34093 3.69969 4.59419
# Velocity P-wave (km/s) = 7.73288 6.80071 7.28172
#
# Compressibility (1/GPa) = 0.02349357
#
# Stress axis : x y z
#
# Youngs Moduli (GPa) = 143.66013 56.59057 35.78953
#
# Poissons Ratio (x) = 0.17563 0.04529
# Poissons Ratio (y) = 0.44585 0.36401
# Poissons Ratio (z) = 0.18178 0.57557
#
# Static dielectric constant tensor:
#      x y z
#    x 1.663720 0.000000 0.000000 
#    y 0.000000 1.720270 0.000000 
#    z 0.000000 0.000000 1.654110 
# 
# From -- ./inp_files/48275.got.cif
#   From: 2010.05.17/outbox.cif.g08.bks.cpg/sg64_25_cif.got.tgz:48275.got - 2010.06.03 16:29:19.
