data_PCOD9479121
_publ_section_title
;
Structure prediction by ZEFSAII (Michael W. Deem and Ramdas Pophale) SiO2 
 PCOD9479121
Probable space group: C M C A
;
_chemical_formula_sum "Si O2"
_cell_formula_units_Z 112
_cell_length_a 11.591828
_cell_length_b 22.559425
_cell_length_c 21.150736
_cell_angle_alpha 90.000000
_cell_angle_beta 90.000000
_cell_angle_gamma 90.000000
_cell_volume 5531.022676
_symmetry_space_group_name_H-M "C M C A"
_symmetry_group_IT_number 64
_symmetry_cell_setting 'orthorhombic'
loop_
_space_group_symop_operation_xyz
x,y,z
-x,1/2-y,1/2+z
x,-y,-z
-x,1/2+y,1/2-z
-x,-y,-z
x,1/2+y,1/2-z
-x,y,z
x,1/2-y,1/2+z
1/2+x,1/2+y,z
1/2-x,-y,1/2+z
1/2+x,1/2-y,-z
1/2-x,y,1/2-z
1/2-x,1/2-y,-z
1/2+x,y,1/2-z
1/2-x,1/2+y,z
1/2+x,-y,1/2+z
loop_
_atom_site_type_symbol
_atom_site_label
_atom_site_fract_x
_atom_site_fract_y
_atom_site_fract_z
Si Si1 0.730863 0.064232 0.524356
Si Si2 0.370024 0.426528 0.348045
Si Si3 0.869113 0.050304 0.284954
Si Si4 0.370529 0.796426 0.213390
Si Si5 0.879650 0.815880 0.036678
Si Si6 0.869655 0.124869 0.413596
Si Si7 0.697296 0.265679 0.907350
O O1 0.782845 0.062504 0.594629
O O2 0.634121 0.114712 0.524292
O O3 0.825163 0.089365 0.474726
O O4 0.694172 0.000000 0.500000
O O5 0.500000 0.429063 0.375134
O O6 0.361096 0.480043 0.298302
O O7 0.358518 0.363078 0.314453
O O8 0.750000 0.068398 0.250000
O O9 0.867744 0.082390 0.352919
O O10 0.000000 0.062113 0.257595
O O11 0.500000 0.793003 0.244089
O O12 0.250000 0.784654 0.250000
O O13 0.370010 0.749979 0.155472
O O14 0.771944 0.792359 0.075759
O O15 0.000000 0.802935 0.069497
O O16 0.873858 0.781957 0.969800
O O17 0.786098 0.180063 0.400762
O O18 0.000000 0.145627 0.424433
#
# Coordination Sequence:
#
# PCOD9479121 Si02
#       7
#    16  16  16  16  16  16  16
#     4  11  20  35  60  91 122 151 196 248 312 366
#     4  10  20  37  62  89 120 151 196 250 305 361
#     4  10  21  39  60  85 117 155 200 250 302 361
#     4  11  24  42  64  92 123 162 208 254 301 358
#     4  10  21  37  58  86 123 161 197 245 308 368
#     4  10  21  35  59  91 120 152 199 252 304 362
#     4  10  21  39  60  86 117 160 202 251 295 365
#
# _framework density 20.249420000000001
#
# number of rings (size 3 to 8) (size 9 to 14) (size 15 to 20)
#    0.000    1.714    2.857    1.714    0.000    2.571 
#    0.000    5.714    0.000    0.000    0.000    0.000 
#    0.000    0.000    0.000    0.000    0.000    0.000 
#
# Total GULP energy -312329.757110 kJ/mol
# GULP energy per Si atom -5577.317091 kJ/mol
# Density = 2.020333 g / cm^3
# Si number density = 20.249420 Si / 1000 Ang^3
#
#
#
# Elastic Constant Matrix: (Units=GPa)
#
#
# Indices 1 2 3 4 5 6 
#
# 1 134.4244 11.3710 32.2574 0.0000 0.0000 0.0000
# 2 11.3710 66.9608 -13.3818 0.0000 0.0000 0.0000
# 3 32.2574 -13.3818 37.7896 0.0000 0.0000 0.0000
# 4 0.0000 0.0000 0.0000 12.5590 0.0000 0.0000
# 5 0.0000 0.0000 0.0000 0.0000 14.1624 0.0000
# 6 0.0000 0.0000 0.0000 0.0000 0.0000 -11.2328
#
#
#
# Elastic Compliance Matrix: (Units=1/GPa)
#
#
# Indices 1 2 3 4 5 6 
#
# 1 0.010148 -0.003718 -0.009979 0.000000 0.000000 0.000000
# 2 -0.003718 0.017433 0.009347 0.000000 0.000000 0.000000
# 3 -0.009979 0.009347 0.038290 0.000000 0.000000 0.000000
# 4 0.000000 0.000000 0.000000 0.079624 0.000000 0.000000
# 5 0.000000 0.000000 0.000000 0.000000 0.070609 0.000000
# 6 0.000000 0.000000 0.000000 0.000000 0.000000 -0.089025
#
#
# Mechanical properties :
#
#
# Convention : Reuss Voigt Hill
#
# Bulk Modulus (GPa) = 17.49106 33.29645 25.39376
# Shear Modulus (GPa) = 32.29187 17.02626 24.65906
#
# Velocity S-wave (km/s) = 3.99771 2.90285 3.49344
# Velocity P-wave (km/s) = 5.47407 5.26443 5.37027
#
# Compressibility (1/GPa) = 0.05717206
#
# Stress axis : x y z
#
# Youngs Moduli (GPa) = 98.53920 57.36139 26.11626
#
# Poissons Ratio (x) = 0.21325 0.26062
# Poissons Ratio (y) = 0.36633 -0.24410
# Poissons Ratio (z) = 0.98333 -0.53614
#
# Static dielectric constant tensor:
#      x y z
#    x 1.749570 0.000000 0.000000 
#    y 0.000000 1.718070 0.000000 
#    z 0.000000 0.000000 1.698680 
# 
# From -- ./inp_files/38468.got.cif
#   From: 2010.05.17/outbox.cif.g08.bks.cpg/sg64_20_cif.got.tgz:38468.got - 2010.06.03 16:29:19.
