data_PCOD9479455
_publ_section_title
;
Structure prediction by ZEFSAII (Michael W. Deem and Ramdas Pophale) SiO2 
 PCOD9479455
Probable space group: C M C A
;
_chemical_formula_sum "Si O2"
_cell_formula_units_Z 64
_cell_length_a 14.135020
_cell_length_b 16.651044
_cell_length_c 10.214508
_cell_angle_alpha 90.000000
_cell_angle_beta 90.000000
_cell_angle_gamma 90.000000
_cell_volume 2404.115612
_symmetry_space_group_name_H-M "C M C A"
_symmetry_group_IT_number 64
_symmetry_cell_setting 'orthorhombic'
loop_
_space_group_symop_operation_xyz
x,y,z
-x,1/2-y,1/2+z
x,-y,-z
-x,1/2+y,1/2-z
-x,-y,-z
x,1/2+y,1/2-z
-x,y,z
x,1/2-y,1/2+z
1/2+x,1/2+y,z
1/2-x,-y,1/2+z
1/2+x,1/2-y,-z
1/2-x,y,1/2-z
1/2-x,1/2-y,-z
1/2+x,y,1/2-z
1/2-x,1/2+y,z
1/2+x,-y,1/2+z
loop_
_atom_site_type_symbol
_atom_site_label
_atom_site_fract_x
_atom_site_fract_y
_atom_site_fract_z
Si Si1 0.352781 0.983343 0.358938
Si Si2 0.884230 0.162659 0.179178
Si Si3 0.638705 0.927864 0.092802
Si Si4 0.889526 0.261919 0.942070
O O1 0.349115 0.072810 0.298526
O O2 0.398968 0.000000 0.500000
O O3 0.397040 0.931379 0.242574
O O4 0.250669 0.945645 0.390410
O O5 0.849158 0.194878 0.039043
O O6 0.852880 0.220252 0.297425
O O7 0.000000 0.160875 0.180398
O O8 0.617645 0.844912 0.022454
O O9 0.603432 0.000000 0.000000
O O10 0.000000 0.241709 0.926598
#
# Coordination Sequence:
#
# PCOD9479455 Si02
#       4
#    16  16  16  16
#     4  10  22  38  61  88 125 162 204 257 302 361
#     4  10  22  41  62  91 127 162 203 251 306 368
#     4  10  20  40  62  85 123 161 207 253 303 362
#     4  10  22  40  64  91 124 163 204 251 307 368
#
# _framework density 26.621016999999998
#
# number of rings (size 3 to 8) (size 9 to 14) (size 15 to 20)
#    0.000    2.000    2.500    0.000    3.500    2.000 
#    0.000   10.000    0.000    0.000    0.000    0.000 
#    0.000    0.000    0.000    0.000    0.000    0.000 
#
# Total GULP energy -179202.716157 kJ/mol
# GULP energy per Si atom -5600.084880 kJ/mol
# Density = 2.656043 g / cm^3
# Si number density = 26.621017 Si / 1000 Ang^3
#
#
#
# Elastic Constant Matrix: (Units=GPa)
#
#
# Indices 1 2 3 4 5 6 
#
# 1 120.4591 6.1366 39.6251 0.0000 0.0000 0.0000
# 2 6.1366 75.8162 -1.6962 0.0000 0.0000 0.0000
# 3 39.6251 -1.6962 176.9161 0.0000 0.0000 0.0000
# 4 0.0000 0.0000 0.0000 56.1041 0.0000 0.0000
# 5 0.0000 0.0000 0.0000 0.0000 8.5786 0.0000
# 6 0.0000 0.0000 0.0000 0.0000 0.0000 31.6742
#
#
#
# Elastic Compliance Matrix: (Units=1/GPa)
#
#
# Indices 1 2 3 4 5 6 
#
# 1 0.009007 -0.000774 -0.002025 0.000000 0.000000 0.000000
# 2 -0.000774 0.013259 0.000301 0.000000 0.000000 0.000000
# 3 -0.002025 0.000301 0.006109 0.000000 0.000000 0.000000
# 4 0.000000 0.000000 0.000000 0.017824 0.000000 0.000000
# 5 0.000000 0.000000 0.000000 0.000000 0.116569 0.000000
# 6 0.000000 0.000000 0.000000 0.000000 0.000000 0.031571
#
#
# Mechanical properties :
#
#
# Convention : Reuss Voigt Hill
#
# Bulk Modulus (GPa) = 42.77543 51.25802 47.01672
# Shear Modulus (GPa) = 24.13955 41.21311 32.67633
#
# Velocity S-wave (km/s) = 3.01455 3.93891 3.50732
# Velocity P-wave (km/s) = 5.31224 6.32323 5.83965
#
# Compressibility (1/GPa) = 0.02337791
#
# Stress axis : x y z
#
# Youngs Moduli (GPa) = 111.02377 75.41936 163.69859
#
# Poissons Ratio (x) = 0.05840 0.33146
# Poissons Ratio (y) = 0.08597 -0.04920
# Poissons Ratio (z) = 0.22480 -0.02267
#
# Static dielectric constant tensor:
#      x y z
#    x 2.048960 0.000000 0.000000 
#    y 0.000000 1.999150 0.000000 
#    z 0.000000 0.000000 2.114760 
# 
# From -- ./inp_files/15474.got.cif
#   From: 2010.05.17/outbox.cif.g08.bks.cpg/sg64_8_cif.got.tgz:15474.got - 2010.06.03 16:29:19.
