data_PCOD9479799
_publ_section_title
;
Structure prediction by ZEFSAII (Michael W. Deem and Ramdas Pophale) SiO2 
 PCOD9479799
Probable space group: C M C A
;
_chemical_formula_sum "Si O2"
_cell_formula_units_Z 88
_cell_length_a 27.552218
_cell_length_b 10.943708
_cell_length_c 12.761981
_cell_angle_alpha 90.000000
_cell_angle_beta 90.000000
_cell_angle_gamma 90.000000
_cell_volume 3848.036266
_symmetry_space_group_name_H-M "C M C A"
_symmetry_group_IT_number 64
_symmetry_cell_setting 'orthorhombic'
loop_
_space_group_symop_operation_xyz
x,y,z
-x,1/2-y,1/2+z
x,-y,-z
-x,1/2+y,1/2-z
-x,-y,-z
x,1/2+y,1/2-z
-x,y,z
x,1/2-y,1/2+z
1/2+x,1/2+y,z
1/2-x,-y,1/2+z
1/2+x,1/2-y,-z
1/2-x,y,1/2-z
1/2-x,1/2-y,-z
1/2+x,y,1/2-z
1/2-x,1/2+y,z
1/2+x,-y,1/2+z
loop_
_atom_site_type_symbol
_atom_site_label
_atom_site_fract_x
_atom_site_fract_y
_atom_site_fract_z
Si Si1 0.697499 0.500000 0.500000
Si Si2 0.877327 0.312596 0.632152
Si Si3 0.884681 0.656217 0.113843
Si Si4 0.943538 0.919400 0.360415
Si Si5 0.705497 0.342749 0.315717
Si Si6 0.117482 0.419176 0.340883
O O1 0.661900 0.405881 0.560929
O O2 0.724434 0.434626 0.404980
O O3 0.882228 0.329408 0.759918
O O4 0.912730 0.199149 0.601298
O O5 0.823130 0.261781 0.622812
O O6 0.882506 0.452141 0.601635
O O7 0.926185 0.553081 0.099262
O O8 0.886138 0.799725 0.086390
O O9 0.928810 0.920042 0.237454
O O10 0.000000 0.901956 0.377712
O O11 0.750000 0.294704 0.250000
O O12 0.664928 0.404233 0.237522
#
# Coordination Sequence:
#
# PCOD9479799 Si02
#       6
#     8  16  16  16  16  16
#     4  12  18  40  63  92 120 168 209 262 318 372
#     4   9  17  37  54  84 119 163 197 259 321 354
#     4   9  18  33  58  84 121 156 210 252 309 368
#     4   9  16  30  56  89 120 160 211 253 306 375
#     4  10  21  36  64  87 119 164 208 261 311 375
#     4   9  19  36  55  83 120 162 199 265 315 357
#
# _framework density 22.868808000000001
#
# number of rings (size 3 to 8) (size 9 to 14) (size 15 to 20)
#    0.000    2.909    5.455    0.000    0.000    7.273 
#    0.000    5.000    0.000    0.000    0.000    1.273 
#    0.000    0.000    0.000    0.000    0.000    0.000 
#
# Total GULP energy -245197.880893 kJ/mol
# GULP energy per Si atom -5572.679111 kJ/mol
# Density = 2.281676 g / cm^3
# Si number density = 22.868808 Si / 1000 Ang^3
#
#
#
# Elastic Constant Matrix: (Units=GPa)
#
#
# Indices 1 2 3 4 5 6 
#
# 1 56.3320 10.8154 10.8183 0.0000 0.0000 0.0000
# 2 10.8154 211.0470 43.9279 0.0000 0.0000 0.0000
# 3 10.8183 43.9279 60.4559 0.0000 0.0000 0.0000
# 4 0.0000 0.0000 0.0000 44.3221 0.0000 0.0000
# 5 0.0000 0.0000 0.0000 0.0000 6.5747 0.0000
# 6 0.0000 0.0000 0.0000 0.0000 0.0000 -1.0990
#
#
#
# Elastic Compliance Matrix: (Units=1/GPa)
#
#
# Indices 1 2 3 4 5 6 
#
# 1 0.018400 -0.000304 -0.003072 0.000000 0.000000 0.000000
# 2 -0.000304 0.005588 -0.004006 0.000000 0.000000 0.000000
# 3 -0.003072 -0.004006 0.020001 0.000000 0.000000 0.000000
# 4 0.000000 0.000000 0.000000 0.022562 0.000000 0.000000
# 5 0.000000 0.000000 0.000000 0.000000 0.152099 0.000000
# 6 0.000000 0.000000 0.000000 0.000000 0.000000 -0.909904
#
#
# Mechanical properties :
#
#
# Convention : Reuss Voigt Hill
#
# Bulk Modulus (GPa) = 34.21555 50.99535 42.60545
# Shear Modulus (GPa) = -7.49907 27.44444 9.97269
#
# Velocity S-wave (km/s) = -1.81281 3.46798 2.09052
# Velocity P-wave (km/s) = 3.25767 6.19543 4.94953
#
# Compressibility (1/GPa) = 0.02922648
#
# Stress axis : x y z
#
# Youngs Moduli (GPa) = 54.34735 178.96798 49.99680
#
# Poissons Ratio (x) = 0.05432 0.15359
# Poissons Ratio (y) = 0.01650 0.20027
# Poissons Ratio (z) = 0.16696 0.71689
#
# Static dielectric constant tensor:
#      x y z
#    x 1.779200 0.000000 0.000000 
#    y 0.000000 1.954840 0.000000 
#    z 0.000000 0.000000 1.966220 
# 
# From -- ./inp_files/27956.got.cif
#   From: 2010.05.17/outbox.cif.g08.bks.cpg/sg64_14_cif.got.tgz:27956.got - 2010.06.03 16:29:19.
