data_PCOD9479241
_publ_section_title
;
Structure prediction by ZEFSAII (Michael W. Deem and Ramdas Pophale) SiO2 
 PCOD9479241
Probable space group: C M C A
;
_chemical_formula_sum "Si O2"
_cell_formula_units_Z 68
_cell_length_a 23.429737
_cell_length_b 7.661295
_cell_length_c 16.125220
_cell_angle_alpha 90.000000
_cell_angle_beta 90.000000
_cell_angle_gamma 90.000000
_cell_volume 2894.511287
_symmetry_space_group_name_H-M "C M C A"
_symmetry_group_IT_number 64
_symmetry_cell_setting 'orthorhombic'
loop_
_space_group_symop_operation_xyz
x,y,z
-x,1/2-y,1/2+z
x,-y,-z
-x,1/2+y,1/2-z
-x,-y,-z
x,1/2+y,1/2-z
-x,y,z
x,1/2-y,1/2+z
1/2+x,1/2+y,z
1/2-x,-y,1/2+z
1/2+x,1/2-y,-z
1/2-x,y,1/2-z
1/2-x,1/2-y,-z
1/2+x,y,1/2-z
1/2-x,1/2+y,z
1/2+x,-y,1/2+z
loop_
_atom_site_type_symbol
_atom_site_label
_atom_site_fract_x
_atom_site_fract_y
_atom_site_fract_z
Si Si1 0.000000 0.000000 0.500000
Si Si2 0.328595 0.452852 0.903988
Si Si3 0.937258 0.352792 0.681390
Si Si4 0.792178 0.947402 0.404167
Si Si5 0.586508 0.551278 0.363128
O O1 0.949340 0.901978 0.555680
O O2 0.386571 0.472040 0.853430
O O3 0.271565 0.542342 0.868063
O O4 0.312647 0.249642 0.900244
O O5 0.338150 0.500000 0.000000
O O6 0.932771 0.352969 0.780368
O O7 0.930022 0.154331 0.649470
O O8 0.000000 0.413722 0.655951
O O9 0.844923 0.062029 0.371230
O O10 0.784829 0.000000 0.500000
#
# Coordination Sequence:
#
# PCOD9479241 Si02
#       5
#     4  16  16  16  16
#     4  12  20  44  68  94 118 176 210 246 322 382
#     4  10  22  38  61  91 127 164 211 257 315 371
#     4  11  23  43  60  94 129 161 209 266 312 377
#     4  10  20  38  61  91 123 165 213 257 306 375
#     4  11  24  41  68  91 129 165 213 257 318 377
#
# _framework density 23.492742
#
# number of rings (size 3 to 8) (size 9 to 14) (size 15 to 20)
#    0.000    1.412    3.529    2.824    0.000    5.176 
#    0.000    4.706    0.000    0.000    0.000    0.000 
#    0.000    0.000    0.000    0.000    0.000    0.000 
#
# Total GULP energy -189630.144563 kJ/mol
# GULP energy per Si atom -5577.357193 kJ/mol
# Density = 2.343927 g / cm^3
# Si number density = 23.492742 Si / 1000 Ang^3
#
#
#
# Elastic Constant Matrix: (Units=GPa)
#
#
# Indices 1 2 3 4 5 6 
#
# 1 224.3895 29.4024 39.7878 0.0000 0.0000 0.0000
# 2 29.4024 27.6512 -6.4682 0.0000 0.0000 0.0000
# 3 39.7878 -6.4682 44.9431 0.0000 0.0000 0.0000
# 4 0.0000 0.0000 0.0000 22.2396 0.0000 0.0000
# 5 0.0000 0.0000 0.0000 0.0000 131.0963 0.0000
# 6 0.0000 0.0000 0.0000 0.0000 0.0000 18.7861
#
#
#
# Elastic Compliance Matrix: (Units=1/GPa)
#
#
# Indices 1 2 3 4 5 6 
#
# 1 0.006994 -0.009195 -0.007515 0.000000 0.000000 0.000000
# 2 -0.009195 0.049513 0.015266 0.000000 0.000000 0.000000
# 3 -0.007515 0.015266 0.031100 0.000000 0.000000 0.000000
# 4 0.000000 0.000000 0.000000 0.044965 0.000000 0.000000
# 5 0.000000 0.000000 0.000000 0.000000 0.007628 0.000000
# 6 0.000000 0.000000 0.000000 0.000000 0.000000 0.053231
#
#
# Mechanical properties :
#
#
# Convention : Reuss Voigt Hill
#
# Bulk Modulus (GPa) = 11.80369 46.93644 29.37006
# Shear Modulus (GPa) = 22.26599 50.04185 36.15392
#
# Velocity S-wave (km/s) = 3.08195 4.62031 3.92719
# Velocity P-wave (km/s) = 4.20712 6.96315 5.75262
#
# Compressibility (1/GPa) = 0.08471928
#
# Stress axis : x y z
#
# Youngs Moduli (GPa) = 142.98280 20.19683 32.15407
#
# Poissons Ratio (x) = 0.18570 0.24163
# Poissons Ratio (y) = 1.31468 -0.49086
# Poissons Ratio (z) = 1.07450 -0.30832
#
# Static dielectric constant tensor:
#      x y z
#    x 1.975970 0.000000 0.000000 
#    y 0.000000 1.920780 0.000000 
#    z 0.000000 0.000000 1.877400 
# 
# From -- ./inp_files/33948.got.cif
#   From: 2010.05.17/outbox.cif.g08.bks.cpg/sg64_17_cif.got.tgz:33948.got - 2010.06.03 16:29:19.
