data_PCOD9479932
_publ_section_title
;
Structure prediction by ZEFSAII (Michael W. Deem and Ramdas Pophale) SiO2 
 PCOD9479932
Probable space group: C M C A
;
_chemical_formula_sum "Si O2"
_cell_formula_units_Z 64
_cell_length_a 18.872620
_cell_length_b 12.431827
_cell_length_c 10.728854
_cell_angle_alpha 90.000000
_cell_angle_beta 90.000000
_cell_angle_gamma 90.000000
_cell_volume 2517.216030
_symmetry_space_group_name_H-M "C M C A"
_symmetry_group_IT_number 64
_symmetry_cell_setting 'orthorhombic'
loop_
_space_group_symop_operation_xyz
x,y,z
-x,1/2-y,1/2+z
x,-y,-z
-x,1/2+y,1/2-z
-x,-y,-z
x,1/2+y,1/2-z
-x,y,z
x,1/2-y,1/2+z
1/2+x,1/2+y,z
1/2-x,-y,1/2+z
1/2+x,1/2-y,-z
1/2-x,y,1/2-z
1/2-x,1/2-y,-z
1/2+x,y,1/2-z
1/2-x,1/2+y,z
1/2+x,-y,1/2+z
loop_
_atom_site_type_symbol
_atom_site_label
_atom_site_fract_x
_atom_site_fract_y
_atom_site_fract_z
Si Si1 0.917266 0.846615 0.474540
Si Si2 0.297898 0.733144 0.374902
Si Si3 0.925051 0.095900 0.101917
Si Si4 0.165777 0.052716 0.756137
O O1 0.858798 0.850220 0.584194
O O2 0.918546 0.719708 0.436587
O O3 0.881079 0.913637 0.362860
O O4 0.000000 0.874940 0.498289
O O5 0.250000 0.716880 0.250000
O O6 0.250000 0.750000 0.500000
O O7 0.340044 0.843294 0.345898
O O8 0.000000 0.088572 0.173072
O O9 0.860880 0.054872 0.181435
O O10 0.929179 0.000000 0.000000
O O11 0.250000 0.042512 0.750000
#
# Coordination Sequence:
#
# PCOD9479932 Si02
#       4
#    16  16  16  16
#     4  11  23  40  68 102 139 188 236 294 357 420
#     4  11  21  40  64  95 139 177 228 290 350 421
#     4  10  21  37  61  96 131 173 234 287 339 412
#     4  11  22  39  66  97 143 179 230 287 354 412
#
# _framework density 25.424911999999999
#
# number of rings (size 3 to 8) (size 9 to 14) (size 15 to 20)
#    0.000    1.250    7.500    0.750    0.000    2.000 
#    0.000    0.000    0.000    0.000    0.000    5.250 
#    0.000    0.000    0.000    0.000    0.000    0.000 
#
# Total GULP energy -178773.462588 kJ/mol
# GULP energy per Si atom -5586.670706 kJ/mol
# Density = 2.536704 g / cm^3
# Si number density = 25.424912 Si / 1000 Ang^3
#
#
#
# Elastic Constant Matrix: (Units=GPa)
#
#
# Indices 1 2 3 4 5 6 
#
# 1 214.8345 29.2551 84.0933 0.0000 0.0000 0.0000
# 2 29.2551 136.6447 30.9718 0.0000 0.0000 0.0000
# 3 84.0933 30.9718 138.6467 0.0000 0.0000 0.0000
# 4 0.0000 0.0000 0.0000 23.0746 0.0000 0.0000
# 5 0.0000 0.0000 0.0000 0.0000 18.5236 0.0000
# 6 0.0000 0.0000 0.0000 0.0000 0.0000 -73.4425
#
#
#
# Elastic Compliance Matrix: (Units=1/GPa)
#
#
# Indices 1 2 3 4 5 6 
#
# 1 0.006136 -0.000495 -0.003611 0.000000 0.000000 0.000000
# 2 -0.000495 0.007749 -0.001431 0.000000 0.000000 0.000000
# 3 -0.003611 -0.001431 0.009722 0.000000 0.000000 0.000000
# 4 0.000000 0.000000 0.000000 0.043338 0.000000 0.000000
# 5 0.000000 0.000000 0.000000 0.000000 0.053985 0.000000
# 6 0.000000 0.000000 0.000000 0.000000 0.000000 -0.013616
#
#
# Mechanical properties :
#
#
# Convention : Reuss Voigt Hill
#
# Bulk Modulus (GPa) = 79.78809 86.52961 83.15885
# Shear Modulus (GPa) = 40.79505 16.68484 28.73995
#
# Velocity S-wave (km/s) = 4.01000 2.56450 3.36577
# Velocity P-wave (km/s) = 7.27256 6.54799 6.91977
#
# Compressibility (1/GPa) = 0.01253320
#
# Stress axis : x y z
#
# Youngs Moduli (GPa) = 162.98440 129.05695 102.85742
#
# Poissons Ratio (x) = 0.06391 0.37140
# Poissons Ratio (y) = 0.08071 0.14714
# Poissons Ratio (z) = 0.58850 0.18463
#
# Static dielectric constant tensor:
#      x y z
#    x 2.033630 0.000000 0.000000 
#    y 0.000000 1.999590 0.000000 
#    z 0.000000 0.000000 2.094300 
# 
# From -- ./inp_files/15483.got.cif
#   From: 2010.05.17/outbox.cif.g08.bks.cpg/sg64_8_cif.got.tgz:15483.got - 2010.06.03 16:29:19.
