data_PCOD9479947
_publ_section_title
;
Structure prediction by ZEFSAII (Michael W. Deem and Ramdas Pophale) SiO2 
 PCOD9479947
Probable space group: C M C A
;
_chemical_formula_sum "Si O2"
_cell_formula_units_Z 112
_cell_length_a 14.840978
_cell_length_b 15.157418
_cell_length_c 23.797150
_cell_angle_alpha 90.000000
_cell_angle_beta 90.000000
_cell_angle_gamma 90.000000
_cell_volume 5353.190478
_symmetry_space_group_name_H-M "C M C A"
_symmetry_group_IT_number 64
_symmetry_cell_setting 'orthorhombic'
loop_
_space_group_symop_operation_xyz
x,y,z
-x,1/2-y,1/2+z
x,-y,-z
-x,1/2+y,1/2-z
-x,-y,-z
x,1/2+y,1/2-z
-x,y,z
x,1/2-y,1/2+z
1/2+x,1/2+y,z
1/2-x,-y,1/2+z
1/2+x,1/2-y,-z
1/2-x,y,1/2-z
1/2-x,1/2-y,-z
1/2+x,y,1/2-z
1/2-x,1/2+y,z
1/2+x,-y,1/2+z
loop_
_atom_site_type_symbol
_atom_site_label
_atom_site_fract_x
_atom_site_fract_y
_atom_site_fract_z
Si Si1 0.276388 0.280234 0.562247
Si Si2 0.891411 0.464629 0.263909
Si Si3 0.891893 0.050638 0.443608
Si Si4 0.399149 0.219123 0.378346
Si Si5 0.105132 0.688489 0.653148
Si Si6 0.644287 0.674018 0.248135
Si Si7 0.891944 0.085439 0.645202
O O1 0.250000 0.250000 0.500000
O O2 0.352005 0.353726 0.556322
O O3 0.187235 0.321862 0.591692
O O4 0.323902 0.210388 0.604131
O O5 0.866097 0.403271 0.316571
O O6 0.868051 0.567586 0.254539
O O7 0.856314 0.414973 0.208224
O O8 0.000000 0.462306 0.265667
O O9 0.000000 0.053670 0.441104
O O10 0.866227 0.000000 0.500000
O O11 0.856879 0.995850 0.390422
O O12 0.500000 0.194640 0.397707
O O13 0.395300 0.206093 0.311298
O O14 0.382813 0.323375 0.387434
O O15 0.106974 0.769111 0.699309
O O16 0.000000 0.681486 0.634555
O O17 0.750000 0.691603 0.250000
O O18 0.000000 0.073782 0.650501
#
# Coordination Sequence:
#
# PCOD9479947 Si02
#       7
#    16  16  16  16  16  16  16
#     4  12  26  43  64  98 132 173 230 279 337 405
#     4  10  21  37  63  96 132 174 214 264 335 411
#     4  10  21  41  69 100 130 167 226 288 337 387
#     4  11  23  42  65  91 132 175 216 273 343 408
#     4  11  23  44  70  98 138 178 222 282 345 413
#     4  12  23  39  64 101 138 177 221 273 338 411
#     4   9  18  35  63  94 124 166 216 270 330 388
#
# _framework density 20.922103
#
# number of rings (size 3 to 8) (size 9 to 14) (size 15 to 20)
#    0.000    1.286    2.857    3.429    0.000    5.143 
#    2.571    0.000    0.000    0.429    0.000    0.000 
#    0.000    0.000    0.000    0.000    0.000    0.000 
#
# Total GULP energy -312603.196995 kJ/mol
# GULP energy per Si atom -5582.199946 kJ/mol
# Density = 2.087448 g / cm^3
# Si number density = 20.922103 Si / 1000 Ang^3
#
#
#
# Elastic Constant Matrix: (Units=GPa)
#
#
# Indices 1 2 3 4 5 6 
#
# 1 74.6993 -20.8552 24.5008 0.0000 0.0000 0.0000
# 2 -20.8552 57.3284 6.2579 0.0000 0.0000 0.0000
# 3 24.5008 6.2579 94.4267 0.0000 0.0000 0.0000
# 4 0.0000 0.0000 0.0000 32.7908 0.0000 0.0000
# 5 0.0000 0.0000 0.0000 0.0000 23.0263 0.0000
# 6 0.0000 0.0000 0.0000 0.0000 0.0000 -32.0490
#
#
#
# Elastic Compliance Matrix: (Units=1/GPa)
#
#
# Indices 1 2 3 4 5 6 
#
# 1 0.016817 0.006642 -0.004804 0.000000 0.000000 0.000000
# 2 0.006642 0.020194 -0.003062 0.000000 0.000000 0.000000
# 3 -0.004804 -0.003062 0.012040 0.000000 0.000000 0.000000
# 4 0.000000 0.000000 0.000000 0.030496 0.000000 0.000000
# 5 0.000000 0.000000 0.000000 0.000000 0.043429 0.000000
# 6 0.000000 0.000000 0.000000 0.000000 0.000000 -0.031202
#
#
# Mechanical properties :
#
#
# Convention : Reuss Voigt Hill
#
# Bulk Modulus (GPa) = 21.45746 27.36238 24.40992
# Shear Modulus (GPa) = 45.55630 19.19034 32.37332
#
# Velocity S-wave (km/s) = 4.67135 3.03186 3.93787
# Velocity P-wave (km/s) = 6.27483 5.03616 5.68930
#
# Compressibility (1/GPa) = 0.04660383
#
# Stress axis : x y z
#
# Youngs Moduli (GPa) = 59.46375 49.51996 83.05968
#
# Poissons Ratio (x) = -0.32892 0.39899
# Poissons Ratio (y) = -0.39497 0.25431
# Poissons Ratio (z) = 0.28564 0.15162
#
# Static dielectric constant tensor:
#      x y z
#    x 1.762240 0.000000 0.000000 
#    y 0.000000 1.773600 0.000000 
#    z 0.000000 0.000000 1.808610 
# 
# From -- ./inp_files/45270.got.cif
#   From: 2010.05.17/outbox.cif.g08.bks.cpg/sg64_23_cif.got.tgz:45270.got - 2010.06.03 16:29:19.
