data_PCOD9479742
_publ_section_title
;
Structure prediction by ZEFSAII (Michael W. Deem and Ramdas Pophale) SiO2 
 PCOD9479742
Probable space group: C M C A
;
_chemical_formula_sum "Si O2"
_cell_formula_units_Z 96
_cell_length_a 14.667727
_cell_length_b 15.390736
_cell_length_c 22.217844
_cell_angle_alpha 90.000000
_cell_angle_beta 90.000000
_cell_angle_gamma 90.000000
_cell_volume 5015.614162
_symmetry_space_group_name_H-M "C M C A"
_symmetry_group_IT_number 64
_symmetry_cell_setting 'orthorhombic'
loop_
_space_group_symop_operation_xyz
x,y,z
-x,1/2-y,1/2+z
x,-y,-z
-x,1/2+y,1/2-z
-x,-y,-z
x,1/2+y,1/2-z
-x,y,z
x,1/2-y,1/2+z
1/2+x,1/2+y,z
1/2-x,-y,1/2+z
1/2+x,1/2-y,-z
1/2-x,y,1/2-z
1/2-x,1/2-y,-z
1/2+x,y,1/2-z
1/2-x,1/2+y,z
1/2+x,-y,1/2+z
loop_
_atom_site_type_symbol
_atom_site_label
_atom_site_fract_x
_atom_site_fract_y
_atom_site_fract_z
Si Si1 0.749725 0.865864 0.885175
Si Si2 0.670960 0.511181 0.200207
Si Si3 0.395867 0.897076 0.988417
Si Si4 0.900475 0.156813 0.282096
Si Si5 0.602776 0.646797 0.737102
Si Si6 0.390681 0.293471 0.387154
O O1 0.798158 0.955917 0.864815
O O2 0.684126 0.871840 0.942480
O O3 0.681401 0.849474 0.829156
O O4 0.826372 0.791239 0.889686
O O5 0.750000 0.512866 0.250000
O O6 0.606737 0.585707 0.229051
O O7 0.637683 0.413429 0.209248
O O8 0.500000 0.878373 0.966554
O O9 0.384077 0.846300 0.051100
O O10 0.390932 0.000000 0.000000
O O11 0.894644 0.252744 0.254691
O O12 0.000000 0.145968 0.311254
O O13 0.500000 0.615694 0.728511
O O14 0.642552 0.647141 0.669504
O O15 0.500000 0.273054 0.377901
#
# Coordination Sequence:
#
# PCOD9479742 Si02
#       6
#    16  16  16  16  16  16
#     4  11  22  38  61  88 120 162 203 254 302 363
#     4  10  22  32  54  85 117 158 193 241 300 357
#     4  10  23  41  61  89 119 157 209 259 309 365
#     4  10  21  37  56  86 123 158 196 242 302 368
#     4  10  21  36  57  85 120 158 194 244 306 369
#     4  10  22  39  61  85 117 161 203 252 307 361
#
# _framework density 19.140228
#
# number of rings (size 3 to 8) (size 9 to 14) (size 15 to 20)
#    0.000    1.833    1.667    1.500    7.000    0.667 
#    0.000    0.000    0.000    0.500    0.000    0.000 
#    0.000    0.000    0.000    0.000    0.000    0.000 
#
# Total GULP energy -267440.430643 kJ/mol
# GULP energy per Si atom -5571.675638 kJ/mol
# Density = 1.909666 g / cm^3
# Si number density = 19.140228 Si / 1000 Ang^3
#
#
#
# Elastic Constant Matrix: (Units=GPa)
#
#
# Indices 1 2 3 4 5 6 
#
# 1 81.2141 18.6149 21.2709 0.0000 0.0000 0.0000
# 2 18.6149 51.6750 1.2075 0.0000 0.0000 0.0000
# 3 21.2709 1.2075 62.4830 0.0000 0.0000 0.0000
# 4 0.0000 0.0000 0.0000 25.0410 0.0000 0.0000
# 5 0.0000 0.0000 0.0000 0.0000 55.0617 0.0000
# 6 0.0000 0.0000 0.0000 0.0000 0.0000 24.4240
#
#
#
# Elastic Compliance Matrix: (Units=1/GPa)
#
#
# Indices 1 2 3 4 5 6 
#
# 1 0.014802 -0.005217 -0.004938 0.000000 0.000000 0.000000
# 2 -0.005217 0.021199 0.001366 0.000000 0.000000 0.000000
# 3 -0.004938 0.001366 0.017659 0.000000 0.000000 0.000000
# 4 0.000000 0.000000 0.000000 0.039934 0.000000 0.000000
# 5 0.000000 0.000000 0.000000 0.000000 0.018161 0.000000
# 6 0.000000 0.000000 0.000000 0.000000 0.000000 0.040943
#
#
# Mechanical properties :
#
#
# Convention : Reuss Voigt Hill
#
# Bulk Modulus (GPa) = 27.71410 30.83986 29.27698
# Shear Modulus (GPa) = 27.42657 31.19059 29.30858
#
# Velocity S-wave (km/s) = 3.78951 4.04119 3.91737
# Velocity P-wave (km/s) = 5.80156 6.15813 5.98250
#
# Compressibility (1/GPa) = 0.03608272
#
# Stress axis : x y z
#
# Youngs Moduli (GPa) = 67.55726 47.17188 56.62812
#
# Poissons Ratio (x) = 0.24609 0.27965
# Poissons Ratio (y) = 0.35243 -0.07737
# Poissons Ratio (z) = 0.33362 -0.06445
#
# Static dielectric constant tensor:
#      x y z
#    x 1.649830 0.000000 0.000000 
#    y 0.000000 1.714100 0.000000 
#    z 0.000000 0.000000 1.659450 
# 
# From -- ./inp_files/39164.got.cif
#   From: 2010.05.17/outbox.cif.g08.bks.cpg/sg64_20_cif.got.tgz:39164.got - 2010.06.03 16:29:19.
