data_PCOD9479503
_publ_section_title
;
Structure prediction by ZEFSAII (Michael W. Deem and Ramdas Pophale) SiO2 
 PCOD9479503
Probable space group: C M C A
;
_chemical_formula_sum "Si O2"
_cell_formula_units_Z 64
_cell_length_a 11.146828
_cell_length_b 13.335543
_cell_length_c 19.068548
_cell_angle_alpha 90.000000
_cell_angle_beta 90.000000
_cell_angle_gamma 90.000000
_cell_volume 2834.520670
_symmetry_space_group_name_H-M "C M C A"
_symmetry_group_IT_number 64
_symmetry_cell_setting 'orthorhombic'
loop_
_space_group_symop_operation_xyz
x,y,z
-x,1/2-y,1/2+z
x,-y,-z
-x,1/2+y,1/2-z
-x,-y,-z
x,1/2+y,1/2-z
-x,y,z
x,1/2-y,1/2+z
1/2+x,1/2+y,z
1/2-x,-y,1/2+z
1/2+x,1/2-y,-z
1/2-x,y,1/2-z
1/2-x,1/2-y,-z
1/2+x,y,1/2-z
1/2-x,1/2+y,z
1/2+x,-y,1/2+z
loop_
_atom_site_type_symbol
_atom_site_label
_atom_site_fract_x
_atom_site_fract_y
_atom_site_fract_z
Si Si1 0.810666 0.893742 0.324323
Si Si2 0.500000 0.426798 0.667576
Si Si3 0.261130 0.364639 0.026091
Si Si4 0.000000 0.857383 0.512969
Si Si5 0.000000 0.285494 0.694913
Si Si6 0.000000 0.632608 0.452261
O O1 0.750000 0.906364 0.250000
O O2 0.722953 0.877106 0.390539
O O3 0.889618 0.791822 0.316744
O O4 0.889018 0.994861 0.333875
O O5 0.500000 0.362563 0.596542
O O6 0.500000 0.349744 0.733349
O O7 0.250000 0.250000 0.000000
O O8 0.125141 0.402001 0.013967
O O9 0.372758 0.405143 0.981539
O O10 0.000000 0.746489 0.481087
O O11 0.000000 0.364139 0.631178
#
# Coordination Sequence:
#
# PCOD9479503 Si02
#       6
#    16   8  16   8   8   8
#     4  11  25  44  66 103 145 184 240 300 352 436
#     4  11  28  43  69 105 141 190 243 297 360 432
#     4  10  20  40  68 105 134 181 234 291 353 421
#     4  10  20  41  68 101 134 185 235 286 356 425
#     4  11  23  45  69  98 142 190 240 290 359 434
#     4  10  21  39  70 110 131 183 244 288 353 434
#
# _framework density 22.578773999999999
#
# number of rings (size 3 to 8) (size 9 to 14) (size 15 to 20)
#    0.000    1.500    5.000    0.750    7.000    6.000 
#    0.000    0.000    0.000    4.500    0.000    0.000 
#    0.000    0.000    0.000    0.000    0.000    0.000 
#
# Total GULP energy -178552.197800 kJ/mol
# GULP energy per Si atom -5579.756181 kJ/mol
# Density = 2.252738 g / cm^3
# Si number density = 22.578774 Si / 1000 Ang^3
#
#
#
# Elastic Constant Matrix: (Units=GPa)
#
#
# Indices 1 2 3 4 5 6 
#
# 1 92.0744 -41.2515 3.2256 0.0000 0.0000 0.0000
# 2 -41.2515 89.3854 -8.0198 0.0000 0.0000 0.0000
# 3 3.2256 -8.0198 191.6915 0.0000 0.0000 0.0000
# 4 0.0000 0.0000 0.0000 6.5330 0.0000 0.0000
# 5 0.0000 0.0000 0.0000 0.0000 38.3999 0.0000
# 6 0.0000 0.0000 0.0000 0.0000 0.0000 -59.5784
#
#
#
# Elastic Compliance Matrix: (Units=1/GPa)
#
#
# Indices 1 2 3 4 5 6 
#
# 1 0.013692 0.006322 0.000034 0.000000 0.000000 0.000000
# 2 0.006322 0.014149 0.000486 0.000000 0.000000 0.000000
# 3 0.000034 0.000486 0.005236 0.000000 0.000000 0.000000
# 4 0.000000 0.000000 0.000000 0.153069 0.000000 0.000000
# 5 0.000000 0.000000 0.000000 0.000000 0.026042 0.000000
# 6 0.000000 0.000000 0.000000 0.000000 0.000000 -0.016785
#
#
# Mechanical properties :
#
#
# Convention : Reuss Voigt Hill
#
# Bulk Modulus (GPa) = 21.38569 31.22886 26.30727
# Shear Modulus (GPa) = 25.34130 25.01737 25.17933
#
# Velocity S-wave (km/s) = 3.35378 3.33228 3.34305
# Velocity P-wave (km/s) = 4.94867 5.35412 5.15538
#
# Compressibility (1/GPa) = 0.04676024
#
# Stress axis : x y z
#
# Youngs Moduli (GPa) = 73.03553 70.67810 190.96885
#
# Poissons Ratio (x) = -0.44682 -0.00651
# Poissons Ratio (y) = -0.46173 -0.09273
# Poissons Ratio (z) = -0.00249 -0.03432
#
# Static dielectric constant tensor:
#      x y z
#    x 1.903790 0.000000 0.000000 
#    y 0.000000 1.819750 0.000000 
#    z 0.000000 0.000000 1.793760 
# 
# From -- ./inp_files/30515.got.cif
#   From: 2010.05.17/outbox.cif.g08.bks.cpg/sg64_16_cif.got.tgz:30515.got - 2010.06.03 16:29:19.
