data_PCOD9479565
_publ_section_title
;
Structure prediction by ZEFSAII (Michael W. Deem and Ramdas Pophale) SiO2 
 PCOD9479565
Probable space group: C M C A
;
_chemical_formula_sum "Si O2"
_cell_formula_units_Z 80
_cell_length_a 26.322616
_cell_length_b 9.540835
_cell_length_c 16.051714
_cell_angle_alpha 90.000000
_cell_angle_beta 90.000000
_cell_angle_gamma 90.000000
_cell_volume 4031.223217
_symmetry_space_group_name_H-M "C M C A"
_symmetry_group_IT_number 64
_symmetry_cell_setting 'orthorhombic'
loop_
_space_group_symop_operation_xyz
x,y,z
-x,1/2-y,1/2+z
x,-y,-z
-x,1/2+y,1/2-z
-x,-y,-z
x,1/2+y,1/2-z
-x,y,z
x,1/2-y,1/2+z
1/2+x,1/2+y,z
1/2-x,-y,1/2+z
1/2+x,1/2-y,-z
1/2-x,y,1/2-z
1/2-x,1/2-y,-z
1/2+x,y,1/2-z
1/2-x,1/2+y,z
1/2+x,-y,1/2+z
loop_
_atom_site_type_symbol
_atom_site_label
_atom_site_fract_x
_atom_site_fract_y
_atom_site_fract_z
Si Si1 0.726297 0.420830 0.331162
Si Si2 0.897120 0.168779 0.488655
Si Si3 0.390978 0.666543 0.675854
Si Si4 0.440877 0.641152 0.315688
Si Si5 0.785615 0.299001 0.925890
O O1 0.750000 0.492509 0.250000
O O2 0.669837 0.357661 0.322246
O O3 0.767011 0.301059 0.352200
O O4 0.722149 0.540153 0.400970
O O5 0.905663 0.222105 0.582845
O O6 0.934872 0.193967 0.411549
O O7 0.843145 0.220532 0.454344
O O8 0.894072 0.000000 0.500000
O O9 0.417501 0.515024 0.686093
O O10 0.409877 0.765527 0.749907
O O11 0.500000 0.639287 0.293201
O O12 0.750000 0.250000 0.000000
#
# Coordination Sequence:
#
# PCOD9479565 Si02
#       5
#    16  16  16  16  16
#     4  12  25  37  63  95 136 178 216 264 324 391
#     4  10  20  42  65  91 133 174 216 263 328 398
#     4  11  24  44  67  94 134 173 220 276 333 401
#     4  11  24  43  70  97 125 167 227 283 334 395
#     4  12  21  40  62  93 133 177 214 263 317 392
#
# _framework density 19.845094
#
# number of rings (size 3 to 8) (size 9 to 14) (size 15 to 20)
#    0.000    0.800    6.000    3.000    2.800    4.400 
#    0.000    1.000    0.000    2.400    0.000    0.000 
#    0.000    0.000    0.000    0.000    0.000    0.000 
#
# Total GULP energy -223366.952499 kJ/mol
# GULP energy per Si atom -5584.173812 kJ/mol
# Density = 1.979993 g / cm^3
# Si number density = 19.845094 Si / 1000 Ang^3
#
#
#
# Elastic Constant Matrix: (Units=GPa)
#
#
# Indices 1 2 3 4 5 6 
#
# 1 81.7041 37.8829 48.7270 0.0000 0.0000 0.0000
# 2 37.8829 69.4449 50.6880 0.0000 0.0000 0.0000
# 3 48.7270 50.6880 141.9156 0.0000 0.0000 0.0000
# 4 0.0000 0.0000 0.0000 34.3605 0.0000 0.0000
# 5 0.0000 0.0000 0.0000 0.0000 31.3564 0.0000
# 6 0.0000 0.0000 0.0000 0.0000 0.0000 17.7301
#
#
#
# Elastic Compliance Matrix: (Units=1/GPa)
#
#
# Indices 1 2 3 4 5 6 
#
# 1 0.017604 -0.007022 -0.003536 0.000000 0.000000 0.000000
# 2 -0.007022 0.022279 -0.005546 0.000000 0.000000 0.000000
# 3 -0.003536 -0.005546 0.010242 0.000000 0.000000 0.000000
# 4 0.000000 0.000000 0.000000 0.029103 0.000000 0.000000
# 5 0.000000 0.000000 0.000000 0.000000 0.031891 0.000000
# 6 0.000000 0.000000 0.000000 0.000000 0.000000 0.056401
#
#
# Mechanical properties :
#
#
# Convention : Reuss Voigt Hill
#
# Bulk Modulus (GPa) = 55.81865 63.07341 59.44603
# Shear Modulus (GPa) = 24.30706 27.07384 25.69045
#
# Velocity S-wave (km/s) = 3.50357 3.69759 3.60189
# Velocity P-wave (km/s) = 6.67495 7.07683 6.87882
#
# Compressibility (1/GPa) = 0.01791516
#
# Stress axis : x y z
#
# Youngs Moduli (GPa) = 56.80476 44.88585 97.64089
#
# Poissons Ratio (x) = 0.31519 0.34529
# Poissons Ratio (y) = 0.39889 0.54154
# Poissons Ratio (z) = 0.20088 0.24895
#
# Static dielectric constant tensor:
#      x y z
#    x 1.680070 0.000000 0.000000 
#    y 0.000000 1.722280 0.000000 
#    z 0.000000 0.000000 3.115010 
# 
# From -- ./inp_files/35353.got.cif
#   From: 2010.05.17/outbox.cif.g08.bks.cpg/sg64_18_cif.got.tgz:35353.got - 2010.06.03 16:29:19.
