data_PCOD9479403
_publ_section_title
;
Structure prediction by ZEFSAII (Michael W. Deem and Ramdas Pophale) SiO2 
 PCOD9479403
Probable space group: C M C A
;
_chemical_formula_sum "Si O2"
_cell_formula_units_Z 64
_cell_length_a 25.391212
_cell_length_b 14.307593
_cell_length_c 8.686890
_cell_angle_alpha 90.000000
_cell_angle_beta 90.000000
_cell_angle_gamma 90.000000
_cell_volume 3155.835311
_symmetry_space_group_name_H-M "C M C A"
_symmetry_group_IT_number 64
_symmetry_cell_setting 'orthorhombic'
loop_
_space_group_symop_operation_xyz
x,y,z
-x,1/2-y,1/2+z
x,-y,-z
-x,1/2+y,1/2-z
-x,-y,-z
x,1/2+y,1/2-z
-x,y,z
x,1/2-y,1/2+z
1/2+x,1/2+y,z
1/2-x,-y,1/2+z
1/2+x,1/2-y,-z
1/2-x,y,1/2-z
1/2-x,1/2-y,-z
1/2+x,y,1/2-z
1/2-x,1/2+y,z
1/2+x,-y,1/2+z
loop_
_atom_site_type_symbol
_atom_site_label
_atom_site_fract_x
_atom_site_fract_y
_atom_site_fract_z
Si Si1 0.562183 0.191790 0.258528
Si Si2 0.621537 0.666773 0.922557
Si Si3 0.152260 0.865798 0.573573
Si Si4 0.311400 0.535209 0.737635
O O1 0.500000 0.183709 0.262989
O O2 0.581275 0.296328 0.210206
O O3 0.589041 0.164289 0.419587
O O4 0.590770 0.131425 0.124733
O O5 0.662002 0.754929 0.931268
O O6 0.653654 0.576281 0.874695
O O7 0.166121 0.912086 0.412931
O O8 0.181746 0.925338 0.703951
O O9 0.250000 0.556650 0.750000
#
# Coordination Sequence:
#
# PCOD9479403 Si02
#       4
#    16  16  16  16
#     4  10  20  39  65  88 122 161 196 255 313 358
#     4  10  20  40  62  90 124 153 211 249 299 378
#     4   9  22  42  57  90 127 152 210 251 294 379
#     4  11  23  40  63  88 122 168 203 252 312 356
#
# _framework density 20.279892
#
# number of rings (size 3 to 8) (size 9 to 14) (size 15 to 20)
#    1.500    0.500    2.500    0.750    0.000    7.000 
#    0.000    6.250    0.000    0.000    0.000    0.000 
#    0.000    0.000    0.000    0.000    0.000    0.000 
#
# Total GULP energy -178156.318975 kJ/mol
# GULP energy per Si atom -5567.384968 kJ/mol
# Density = 2.023373 g / cm^3
# Si number density = 20.279892 Si / 1000 Ang^3
#
#
#
# Elastic Constant Matrix: (Units=GPa)
#
#
# Indices 1 2 3 4 5 6 
#
# 1 156.0846 38.2104 72.5152 0.0000 0.0000 0.0000
# 2 38.2104 58.9430 31.8851 0.0000 0.0000 0.0000
# 3 72.5152 31.8851 93.3678 0.0000 0.0000 0.0000
# 4 0.0000 0.0000 0.0000 30.9974 0.0000 0.0000
# 5 0.0000 0.0000 0.0000 0.0000 11.3146 0.0000
# 6 0.0000 0.0000 0.0000 0.0000 0.0000 20.4708
#
#
#
# Elastic Compliance Matrix: (Units=1/GPa)
#
#
# Indices 1 2 3 4 5 6 
#
# 1 0.010416 -0.002915 -0.007095 0.000000 0.000000 0.000000
# 2 -0.002915 0.021625 -0.005121 0.000000 0.000000 0.000000
# 3 -0.007095 -0.005121 0.017969 0.000000 0.000000 0.000000
# 4 0.000000 0.000000 0.000000 0.032261 0.000000 0.000000
# 5 0.000000 0.000000 0.000000 0.000000 0.088381 0.000000
# 6 0.000000 0.000000 0.000000 0.000000 0.000000 0.048850
#
#
# Mechanical properties :
#
#
# Convention : Reuss Voigt Hill
#
# Bulk Modulus (GPa) = 50.63333 65.95740 58.29537
# Shear Modulus (GPa) = 19.50475 23.60889 21.55682
#
# Velocity S-wave (km/s) = 3.10462 3.41567 3.26385
# Velocity P-wave (km/s) = 6.15410 6.93901 6.55831
#
# Compressibility (1/GPa) = 0.01974984
#
# Stress axis : x y z
#
# Youngs Moduli (GPa) = 96.00236 46.24192 55.65010
#
# Poissons Ratio (x) = 0.13478 0.39482
# Poissons Ratio (y) = 0.27982 0.28500
# Poissons Ratio (z) = 0.68110 0.23682
#
# Static dielectric constant tensor:
#      x y z
#    x 1.659190 0.000000 0.000000 
#    y 0.000000 1.787400 0.000000 
#    z 0.000000 0.000000 1.779460 
# 
# From -- ./inp_files/8956.got.cif
#   From: 2010.05.17/outbox.cif.g08.bks.cpg/sg64_5_cif.got.tgz:8956.got - 2010.06.03 16:29:19.
