data_PCOD9479290
_publ_section_title
;
Structure prediction by ZEFSAII (Michael W. Deem and Ramdas Pophale) SiO2 
 PCOD9479290
Probable space group: C M C A
;
_chemical_formula_sum "Si O2"
_cell_formula_units_Z 104
_cell_length_a 15.924886
_cell_length_b 19.101846
_cell_length_c 14.318115
_cell_angle_alpha 90.000000
_cell_angle_beta 90.000000
_cell_angle_gamma 90.000000
_cell_volume 4355.494982
_symmetry_space_group_name_H-M "C M C A"
_symmetry_group_IT_number 64
_symmetry_cell_setting 'orthorhombic'
loop_
_space_group_symop_operation_xyz
x,y,z
-x,1/2-y,1/2+z
x,-y,-z
-x,1/2+y,1/2-z
-x,-y,-z
x,1/2+y,1/2-z
-x,y,z
x,1/2-y,1/2+z
1/2+x,1/2+y,z
1/2-x,-y,1/2+z
1/2+x,1/2-y,-z
1/2-x,y,1/2-z
1/2-x,1/2-y,-z
1/2+x,y,1/2-z
1/2-x,1/2+y,z
1/2+x,-y,1/2+z
loop_
_atom_site_type_symbol
_atom_site_label
_atom_site_fract_x
_atom_site_fract_y
_atom_site_fract_z
Si Si1 0.621969 0.136137 0.590894
Si Si2 0.179452 0.347351 0.064995
Si Si3 0.906609 0.209372 0.393043
Si Si4 0.352602 0.000000 0.500000
Si Si5 0.599850 0.280341 0.822898
Si Si6 0.851213 0.062056 0.727276
Si Si7 0.326346 0.072671 0.317627
O O1 0.721455 0.143269 0.572456
O O2 0.587833 0.211810 0.566523
O O3 0.608875 0.116774 0.699754
O O4 0.595978 0.066449 0.536541
O O5 0.151442 0.277458 0.120687
O O6 0.137777 0.410852 0.122825
O O7 0.151599 0.336549 0.958992
O O8 0.877470 0.220303 0.287280
O O9 0.000000 0.178777 0.390861
O O10 0.301594 0.028899 0.410612
O O11 0.500000 0.267755 0.832614
O O12 0.624298 0.359209 0.850245
O O13 0.750000 0.063468 0.750000
O O14 0.878157 0.984081 0.756057
O O15 0.250000 0.093030 0.250000
#
# Coordination Sequence:
#
# PCOD9479290 Si02
#       7
#    16  16  16   8  16  16  16
#     4  10  20  38  63  93 122 157 211 264 314 372
#     4  11  21  38  66  87 123 166 215 257 315 379
#     4  11  24  39  58  92 131 165 212 263 319 384
#     4  10  22  40  65 102 125 158 216 276 316 376
#     4  11  25  42  61  93 132 168 214 271 320 377
#     4   8  17  36  57  87 117 153 205 260 307 368
#     4  10  22  39  65  93 128 166 208 263 325 380
#
# _framework density 23.877882
#
# number of rings (size 3 to 8) (size 9 to 14) (size 15 to 20)
#    0.000    1.846    1.538    2.769    4.308    0.000 
#    0.000    5.385    0.000    1.846    0.000    0.000 
#    0.000    0.000    0.000    0.000    0.000    0.000 
#
# Total GULP energy -290685.783305 kJ/mol
# GULP energy per Si atom -5590.111217 kJ/mol
# Density = 2.382354 g / cm^3
# Si number density = 23.877882 Si / 1000 Ang^3
#
#
#
# Elastic Constant Matrix: (Units=GPa)
#
#
# Indices 1 2 3 4 5 6 
#
# 1 60.9893 16.9106 27.8701 0.0000 0.0000 0.0000
# 2 16.9106 113.0588 14.3080 0.0000 0.0000 0.0000
# 3 27.8701 14.3080 100.1046 0.0000 0.0000 0.0000
# 4 0.0000 0.0000 0.0000 46.7063 0.0000 0.0000
# 5 0.0000 0.0000 0.0000 0.0000 5.0701 0.0000
# 6 0.0000 0.0000 0.0000 0.0000 0.0000 -54.3959
#
#
#
# Elastic Compliance Matrix: (Units=1/GPa)
#
#
# Indices 1 2 3 4 5 6 
#
# 1 0.019333 -0.002251 -0.005061 0.000000 0.000000 0.000000
# 2 -0.002251 0.009270 -0.000698 0.000000 0.000000 0.000000
# 3 -0.005061 -0.000698 0.011498 0.000000 0.000000 0.000000
# 4 0.000000 0.000000 0.000000 0.021410 0.000000 0.000000
# 5 0.000000 0.000000 0.000000 0.000000 0.197237 0.000000
# 6 0.000000 0.000000 0.000000 0.000000 0.000000 -0.018384
#
#
# Mechanical properties :
#
#
# Convention : Reuss Voigt Hill
#
# Bulk Modulus (GPa) = 41.52645 43.59223 42.55934
# Shear Modulus (GPa) = 18.90987 13.81369 16.36178
#
# Velocity S-wave (km/s) = 2.81720 2.40784 2.62052
# Velocity P-wave (km/s) = 5.29255 5.10159 5.19795
#
# Compressibility (1/GPa) = 0.02408104
#
# Stress axis : x y z
#
# Youngs Moduli (GPa) = 51.72471 107.87437 86.96934
#
# Poissons Ratio (x) = 0.24285 0.44013
# Poissons Ratio (y) = 0.11645 0.06072
# Poissons Ratio (z) = 0.26177 0.07532
#
# Static dielectric constant tensor:
#      x y z
#    x 1.886980 0.000000 0.000000 
#    y 0.000000 1.930520 0.000000 
#    z 0.000000 0.000000 1.969110 
# 
# From -- ./inp_files/25636.got.cif
#   From: 2010.05.17/outbox.cif.g08.bks.cpg/sg64_13_cif.got.tgz:25636.got - 2010.06.03 16:29:19.
