data_PCOD9479484
_publ_section_title
;
Structure prediction by ZEFSAII (Michael W. Deem and Ramdas Pophale) SiO2 
 PCOD9479484
Probable space group: C M C A
;
_chemical_formula_sum "Si O2"
_cell_formula_units_Z 64
_cell_length_a 14.718358
_cell_length_b 22.052608
_cell_length_c 7.920188
_cell_angle_alpha 90.000000
_cell_angle_beta 90.000000
_cell_angle_gamma 90.000000
_cell_volume 2570.720201
_symmetry_space_group_name_H-M "C M C A"
_symmetry_group_IT_number 64
_symmetry_cell_setting 'orthorhombic'
loop_
_space_group_symop_operation_xyz
x,y,z
-x,1/2-y,1/2+z
x,-y,-z
-x,1/2+y,1/2-z
-x,-y,-z
x,1/2+y,1/2-z
-x,y,z
x,1/2-y,1/2+z
1/2+x,1/2+y,z
1/2-x,-y,1/2+z
1/2+x,1/2-y,-z
1/2-x,y,1/2-z
1/2-x,1/2-y,-z
1/2+x,y,1/2-z
1/2-x,1/2+y,z
1/2+x,-y,1/2+z
loop_
_atom_site_type_symbol
_atom_site_label
_atom_site_fract_x
_atom_site_fract_y
_atom_site_fract_z
Si Si1 0.688109 0.802647 0.411449
Si Si2 0.000000 0.654349 0.088762
Si Si3 0.653357 0.932546 0.441332
Si Si4 0.369699 0.563930 0.565128
Si Si5 0.500000 0.237019 0.759070
O O1 0.750000 0.822272 0.250000
O O2 0.750000 0.750000 0.500000
O O3 0.657620 0.863276 0.515094
O O4 0.594277 0.777951 0.335128
O O5 0.911527 0.613964 0.056303
O O6 0.000000 0.702043 0.934202
O O7 0.000000 0.690258 0.261792
O O8 0.606628 0.923850 0.259261
O O9 0.761757 0.941146 0.434560
O O10 0.619698 0.000000 0.500000
O O11 0.404145 0.500000 0.500000
#
# Coordination Sequence:
#
# PCOD9479484 Si02
#       5
#    16   8  16  16   8
#     4  12  24  46  68 100 140 180 226 283 343 401
#     4  12  23  44  62  94 135 170 230 277 341 395
#     4  10  20  41  65  94 129 171 222 274 334 397
#     4  10  20  40  65  90 125 173 217 275 333 400
#     4  12  24  42  70  96 135 185 224 277 341 415
#
# _framework density 24.895747
#
# number of rings (size 3 to 8) (size 9 to 14) (size 15 to 20)
#    0.000    1.000    5.000    3.375    0.000    0.000 
#   18.000    2.500    0.000    0.000    0.000    0.000 
#    0.000    0.000    0.000    0.000    0.000    0.000 
#
# Total GULP energy -178362.124872 kJ/mol
# GULP energy per Si atom -5573.816402 kJ/mol
# Density = 2.483908 g / cm^3
# Si number density = 24.895747 Si / 1000 Ang^3
#
#
#
# Elastic Constant Matrix: (Units=GPa)
#
#
# Indices 1 2 3 4 5 6 
#
# 1 140.8557 20.0539 22.2755 0.0000 0.0000 0.0000
# 2 20.0539 205.4633 53.9068 0.0000 0.0000 0.0000
# 3 22.2755 53.9068 26.5382 0.0000 0.0000 0.0000
# 4 0.0000 0.0000 0.0000 44.8225 0.0000 0.0000
# 5 0.0000 0.0000 0.0000 0.0000 32.0304 0.0000
# 6 0.0000 0.0000 0.0000 0.0000 0.0000 -11.0192
#
#
#
# Elastic Compliance Matrix: (Units=1/GPa)
#
#
# Indices 1 2 3 4 5 6 
#
# 1 0.008655 0.002272 -0.011880 0.000000 0.000000 0.000000
# 2 0.002272 0.011017 -0.024286 0.000000 0.000000 0.000000
# 3 -0.011880 -0.024286 0.096986 0.000000 0.000000 0.000000
# 4 0.000000 0.000000 0.000000 0.022310 0.000000 0.000000
# 5 0.000000 0.000000 0.000000 0.000000 0.031220 0.000000
# 6 0.000000 0.000000 0.000000 0.000000 0.000000 -0.090751
#
#
# Mechanical properties :
#
#
# Convention : Reuss Voigt Hill
#
# Bulk Modulus (GPa) = 20.46266 62.81438 41.63852
# Shear Modulus (GPa) = 30.57801 31.60815 31.09308
#
# Velocity S-wave (km/s) = 3.50843 3.56704 3.53786
# Velocity P-wave (km/s) = 4.96481 6.50006 5.78360
#
# Compressibility (1/GPa) = 0.04886951
#
# Stress axis : x y z
#
# Youngs Moduli (GPa) = 115.54388 90.76692 10.31076
#
# Poissons Ratio (x) = -0.20624 0.12249
# Poissons Ratio (y) = -0.26254 0.25041
# Poissons Ratio (z) = 1.37267 2.20440
#
# Static dielectric constant tensor:
#      x y z
#    x 1.941070 0.000000 0.000000 
#    y 0.000000 2.114640 0.000000 
#    z 0.000000 0.000000 2.016660 
# 
# From -- ./inp_files/6636.got.cif
#   From: 2010.05.17/outbox.cif.g08.bks.cpg/sg64_4_cif.got.tgz:6636.got - 2010.06.03 16:29:19.
