data_PCOD9479124
_publ_section_title
;
Structure prediction by ZEFSAII (Michael W. Deem and Ramdas Pophale) SiO2 
 PCOD9479124
Probable space group: C M C A
;
_chemical_formula_sum "Si O2"
_cell_formula_units_Z 96
_cell_length_a 14.724026
_cell_length_b 14.105254
_cell_length_c 19.666213
_cell_angle_alpha 90.000000
_cell_angle_beta 90.000000
_cell_angle_gamma 90.000000
_cell_volume 4084.399604
_symmetry_space_group_name_H-M "C M C A"
_symmetry_group_IT_number 64
_symmetry_cell_setting 'orthorhombic'
loop_
_space_group_symop_operation_xyz
x,y,z
-x,1/2-y,1/2+z
x,-y,-z
-x,1/2+y,1/2-z
-x,-y,-z
x,1/2+y,1/2-z
-x,y,z
x,1/2-y,1/2+z
1/2+x,1/2+y,z
1/2-x,-y,1/2+z
1/2+x,1/2-y,-z
1/2-x,y,1/2-z
1/2-x,1/2-y,-z
1/2+x,y,1/2-z
1/2-x,1/2+y,z
1/2+x,-y,1/2+z
loop_
_atom_site_type_symbol
_atom_site_label
_atom_site_fract_x
_atom_site_fract_y
_atom_site_fract_z
Si Si1 0.173911 0.041804 0.399769
Si Si2 0.894778 0.819192 0.155169
Si Si3 0.603249 0.135927 0.978691
Si Si4 0.727024 0.268642 0.905684
Si Si5 0.894801 0.505933 0.751893
Si Si6 0.899666 0.795919 0.787694
O O1 0.100253 0.104107 0.442492
O O2 0.254895 0.118090 0.408679
O O3 0.158483 0.015105 0.321427
O O4 0.164134 0.942745 0.439469
O O5 0.819411 0.791893 0.100726
O O6 0.892739 0.733240 0.209337
O O7 0.000000 0.831359 0.132054
O O8 0.867778 0.909347 0.201812
O O9 0.500000 0.137028 0.953310
O O10 0.658124 0.230970 0.962411
O O11 0.675738 0.250206 0.834255
O O12 0.892708 0.408590 0.710277
O O13 0.000000 0.525108 0.771804
O O14 0.000000 0.765986 0.810925
#
# Coordination Sequence:
#
# PCOD9479124 Si02
#       6
#    16  16  16  16  16  16
#     4  11  23  41  68  94 129 171 225 272 325 386
#     4  10  22  38  60  94 133 170 210 262 333 400
#     4  11  25  45  69  97 128 177 230 278 325 385
#     4  12  24  40  65 100 133 167 216 278 331 390
#     4  10  20  37  62  89 123 166 207 256 323 397
#     4  10  21  38  58  89 129 168 204 253 325 399
#
# _framework density 23.504066999999999
#
# number of rings (size 3 to 8) (size 9 to 14) (size 15 to 20)
#    0.000    1.333    1.667    4.500    2.333    2.667 
#    0.000    0.000    0.000    0.000    0.000    4.667 
#    0.000    0.000    0.000    0.000    0.000    0.000 
#
# Total GULP energy -268029.225169 kJ/mol
# GULP energy per Si atom -5583.942191 kJ/mol
# Density = 2.345057 g / cm^3
# Si number density = 23.504067 Si / 1000 Ang^3
#
#
#
# Elastic Constant Matrix: (Units=GPa)
#
#
# Indices 1 2 3 4 5 6 
#
# 1 110.5321 45.5787 44.5255 0.0000 0.0000 0.0000
# 2 45.5787 112.8159 17.9272 0.0000 0.0000 0.0000
# 3 44.5255 17.9272 81.6553 0.0000 0.0000 0.0000
# 4 0.0000 0.0000 0.0000 34.5236 0.0000 0.0000
# 5 0.0000 0.0000 0.0000 0.0000 29.2836 0.0000
# 6 0.0000 0.0000 0.0000 0.0000 0.0000 16.3677
#
#
#
# Elastic Compliance Matrix: (Units=1/GPa)
#
#
# Indices 1 2 3 4 5 6 
#
# 1 0.013426 -0.004415 -0.006352 0.000000 0.000000 0.000000
# 2 -0.004415 0.010636 0.000072 0.000000 0.000000 0.000000
# 3 -0.006352 0.000072 0.015694 0.000000 0.000000 0.000000
# 4 0.000000 0.000000 0.000000 0.028966 0.000000 0.000000
# 5 0.000000 0.000000 0.000000 0.000000 0.034149 0.000000
# 6 0.000000 0.000000 0.000000 0.000000 0.000000 0.061096
#
#
# Mechanical properties :
#
#
# Convention : Reuss Voigt Hill
#
# Bulk Modulus (GPa) = 54.44348 57.89622 56.16985
# Shear Modulus (GPa) = 26.11245 29.16643 27.63944
#
# Velocity S-wave (km/s) = 3.33675 3.52648 3.43292
# Velocity P-wave (km/s) = 6.16919 6.42396 6.29786
#
# Compressibility (1/GPa) = 0.01836767
#
# Stress axis : x y z
#
# Youngs Moduli (GPa) = 74.47967 94.01828 63.71707
#
# Poissons Ratio (x) = 0.41510 0.40473
# Poissons Ratio (y) = 0.32883 -0.00461
# Poissons Ratio (z) = 0.47309 -0.00680
#
# Static dielectric constant tensor:
#      x y z
#    x 1.947260 0.000000 0.000000 
#    y 0.000000 1.911110 0.000000 
#    z 0.000000 0.000000 1.934730 
# 
# From -- ./inp_files/39238.got.cif
#   From: 2010.05.17/outbox.cif.g08.bks.cpg/sg64_20_cif.got.tgz:39238.got - 2010.06.03 16:29:19.
