data_PCOD9479269
_publ_section_title
;
Structure prediction by ZEFSAII (Michael W. Deem and Ramdas Pophale) SiO2 
 PCOD9479269
Probable space group: C M C A
;
_chemical_formula_sum "Si O2"
_cell_formula_units_Z 64
_cell_length_a 9.645069
_cell_length_b 27.318086
_cell_length_c 11.813899
_cell_angle_alpha 90.000000
_cell_angle_beta 90.000000
_cell_angle_gamma 90.000000
_cell_volume 3112.783104
_symmetry_space_group_name_H-M "C M C A"
_symmetry_group_IT_number 64
_symmetry_cell_setting 'orthorhombic'
loop_
_space_group_symop_operation_xyz
x,y,z
-x,1/2-y,1/2+z
x,-y,-z
-x,1/2+y,1/2-z
-x,-y,-z
x,1/2+y,1/2-z
-x,y,z
x,1/2-y,1/2+z
1/2+x,1/2+y,z
1/2-x,-y,1/2+z
1/2+x,1/2-y,-z
1/2-x,y,1/2-z
1/2-x,1/2-y,-z
1/2+x,y,1/2-z
1/2-x,1/2+y,z
1/2+x,-y,1/2+z
loop_
_atom_site_type_symbol
_atom_site_label
_atom_site_fract_x
_atom_site_fract_y
_atom_site_fract_z
Si Si1 0.500000 0.034446 0.638082
Si Si2 0.000000 0.294471 0.456602
Si Si3 0.000000 0.315456 0.974268
Si Si4 0.500000 0.842500 0.208947
Si Si5 0.280609 0.158692 0.376486
Si Si6 0.000000 0.573189 0.381011
Si Si7 0.250000 0.908889 0.250000
O O1 0.500000 0.051200 0.507491
O O2 0.356497 0.058126 0.680476
O O3 0.500000 0.978483 0.682400
O O4 0.000000 0.238250 0.419627
O O5 0.870463 0.308144 0.537245
O O6 0.000000 0.325589 0.339782
O O7 0.132614 0.345496 0.934772
O O8 0.000000 0.303787 0.108306
O O9 0.360397 0.873676 0.188505
O O10 0.250000 0.178604 0.250000
O O11 0.368304 0.108611 0.363444
#
# Coordination Sequence:
#
# PCOD9479269 Si02
#       7
#     8   8   8   8  16   8   8
#     4  10  21  38  66  90 126 156 217 261 316 381
#     4  11  25  43  63  95 130 171 218 260 328 373
#     4  12  24  40  67  96 123 169 224 265 307 393
#     4  11  22  39  67  90 129 167 208 276 317 376
#     4  11  24  42  64  90 135 172 211 258 324 384
#     4  10  22  42  61  90 127 172 198 264 326 376
#     4  10  20  38  62  92 120 158 210 254 322 372
#
# _framework density 20.560379000000001
#
# number of rings (size 3 to 8) (size 9 to 14) (size 15 to 20)
#    0.000    1.250    0.000    8.250    5.250    0.000 
#    0.000    0.000    0.000    6.000    0.000    0.000 
#    0.000    0.000    0.000    0.000    0.000    0.000 
#
# Total GULP energy -178342.356497 kJ/mol
# GULP energy per Si atom -5573.198641 kJ/mol
# Density = 2.051358 g / cm^3
# Si number density = 20.560379 Si / 1000 Ang^3
#
#
#
# Elastic Constant Matrix: (Units=GPa)
#
#
# Indices 1 2 3 4 5 6 
#
# 1 184.8637 37.2400 35.6615 0.0000 0.0000 0.0000
# 2 37.2400 89.1289 6.1870 0.0000 0.0000 0.0000
# 3 35.6615 6.1870 111.9457 0.0000 0.0000 0.0000
# 4 0.0000 0.0000 0.0000 16.0031 0.0000 0.0000
# 5 0.0000 0.0000 0.0000 0.0000 3.8669 0.0000
# 6 0.0000 0.0000 0.0000 0.0000 0.0000 -99.0091
#
#
#
# Elastic Compliance Matrix: (Units=1/GPa)
#
#
# Indices 1 2 3 4 5 6 
#
# 1 0.006270 -0.002491 -0.001860 0.000000 0.000000 0.000000
# 2 -0.002491 0.012252 0.000116 0.000000 0.000000 0.000000
# 3 -0.001860 0.000116 0.009519 0.000000 0.000000 0.000000
# 4 0.000000 0.000000 0.000000 0.062488 0.000000 0.000000
# 5 0.000000 0.000000 0.000000 0.000000 0.258605 0.000000
# 6 0.000000 0.000000 0.000000 0.000000 0.000000 -0.010100
#
#
# Mechanical properties :
#
#
# Convention : Reuss Voigt Hill
#
# Bulk Modulus (GPa) = 51.09087 60.45724 55.77405
# Shear Modulus (GPa) = 14.12326 4.62884 9.37605
#
# Velocity S-wave (km/s) = 2.62375 1.50207 2.13779
# Velocity P-wave (km/s) = 5.83797 5.69885 5.76883
#
# Compressibility (1/GPa) = 0.01957297
#
# Stress axis : x y z
#
# Youngs Moduli (GPa) = 159.49339 81.61765 105.05424
#
# Poissons Ratio (x) = 0.20328 0.19537
# Poissons Ratio (y) = 0.39723 -0.01221
# Poissons Ratio (z) = 0.29661 -0.00949
#
# Static dielectric constant tensor:
#      x y z
#    x 1.687930 0.000000 0.000000 
#    y 0.000000 1.774080 0.000000 
#    z 0.000000 0.000000 1.829740 
# 
# From -- ./inp_files/12213.got.cif
#   From: 2010.05.17/outbox.cif.g08.bks.cpg/sg64_7_cif.got.tgz:12213.got - 2010.06.03 16:29:19.
