data_PCOD9479089
_publ_section_title
;
Structure prediction by ZEFSAII (Michael W. Deem and Ramdas Pophale) SiO2 
 PCOD9479089
Probable space group: C M C A
;
_chemical_formula_sum "Si O2"
_cell_formula_units_Z 80
_cell_length_a 13.581698
_cell_length_b 15.152377
_cell_length_c 17.725965
_cell_angle_alpha 90.000000
_cell_angle_beta 90.000000
_cell_angle_gamma 90.000000
_cell_volume 3647.915116
_symmetry_space_group_name_H-M "C M C A"
_symmetry_group_IT_number 64
_symmetry_cell_setting 'orthorhombic'
loop_
_space_group_symop_operation_xyz
x,y,z
-x,1/2-y,1/2+z
x,-y,-z
-x,1/2+y,1/2-z
-x,-y,-z
x,1/2+y,1/2-z
-x,y,z
x,1/2-y,1/2+z
1/2+x,1/2+y,z
1/2-x,-y,1/2+z
1/2+x,1/2-y,-z
1/2-x,y,1/2-z
1/2-x,1/2-y,-z
1/2+x,y,1/2-z
1/2-x,1/2+y,z
1/2+x,-y,1/2+z
loop_
_atom_site_type_symbol
_atom_site_label
_atom_site_fract_x
_atom_site_fract_y
_atom_site_fract_z
Si Si1 0.270405 0.853681 0.430356
Si Si2 0.610644 0.288163 0.310196
Si Si3 0.650131 0.943222 0.296965
Si Si4 0.609016 0.124599 0.226147
Si Si5 0.379540 0.667138 0.441881
O O1 0.187984 0.824006 0.369767
O O2 0.330728 0.928875 0.385360
O O3 0.344148 0.770417 0.443862
O O4 0.199852 0.876264 0.500715
O O5 0.500000 0.281450 0.342836
O O6 0.606145 0.354238 0.238864
O O7 0.653534 0.195542 0.282317
O O8 0.750000 0.951833 0.250000
O O9 0.601281 0.032614 0.268927
O O10 0.500000 0.163618 0.216520
O O11 0.643613 0.124427 0.140146
O O12 0.500000 0.658762 0.456488
#
# Coordination Sequence:
#
# PCOD9479089 Si02
#       5
#    16  16  16  16  16
#     4  10  21  38  62  93 127 172 209 266 333 388
#     4  10  20  37  60  90 127 164 215 271 321 387
#     4  10  21  34  58  90 124 168 211 264 315 380
#     4  10  21  36  62  92 123 165 212 271 324 378
#     4  10  21  38  63  95 128 167 216 270 332 392
#
# _framework density 21.930333999999998
#
# number of rings (size 3 to 8) (size 9 to 14) (size 15 to 20)
#    0.000    2.000    2.000    1.200    2.800    0.800 
#    0.000    4.000    0.000   10.800    0.000    7.000 
#    0.000    0.000    0.000    0.000    0.000    0.000 
#
# Total GULP energy -222674.000971 kJ/mol
# GULP energy per Si atom -5566.850024 kJ/mol
# Density = 2.188042 g / cm^3
# Si number density = 21.930334 Si / 1000 Ang^3
#
#
#
# Elastic Constant Matrix: (Units=GPa)
#
#
# Indices 1 2 3 4 5 6 
#
# 1 104.3071 8.3639 13.2181 0.0000 0.0000 0.0000
# 2 8.3639 93.0995 29.7246 0.0000 0.0000 0.0000
# 3 13.2181 29.7246 106.8412 0.0000 0.0000 0.0000
# 4 0.0000 0.0000 0.0000 26.8302 0.0000 0.0000
# 5 0.0000 0.0000 0.0000 0.0000 27.0578 0.0000
# 6 0.0000 0.0000 0.0000 0.0000 0.0000 19.0536
#
#
#
# Elastic Compliance Matrix: (Units=1/GPa)
#
#
# Indices 1 2 3 4 5 6 
#
# 1 0.009764 -0.000539 -0.001058 0.000000 0.000000 0.000000
# 2 -0.000539 0.011818 -0.003221 0.000000 0.000000 0.000000
# 3 -0.001058 -0.003221 0.010387 0.000000 0.000000 0.000000
# 4 0.000000 0.000000 0.000000 0.037271 0.000000 0.000000
# 5 0.000000 0.000000 0.000000 0.000000 0.036958 0.000000
# 6 0.000000 0.000000 0.000000 0.000000 0.000000 0.052483
#
#
# Mechanical properties :
#
#
# Convention : Reuss Voigt Hill
#
# Bulk Modulus (GPa) = 44.77863 45.20676 44.99269
# Shear Modulus (GPa) = 28.44736 31.45108 29.94922
#
# Velocity S-wave (km/s) = 3.60553 3.79111 3.69948
# Velocity P-wave (km/s) = 6.14785 6.31046 6.22968
#
# Compressibility (1/GPa) = 0.02233208
#
# Stress axis : x y z
#
# Youngs Moduli (GPa) = 102.41286 84.61583 96.27653
#
# Poissons Ratio (x) = 0.04565 0.10185
# Poissons Ratio (y) = 0.05525 0.31013
# Poissons Ratio (z) = 0.10835 0.27257
#
# Static dielectric constant tensor:
#      x y z
#    x 1.884670 0.000000 0.000000 
#    y 0.000000 1.874400 0.000000 
#    z 0.000000 0.000000 1.860320 
# 
# From -- ./inp_files/32074.got.cif
#   From: 2010.05.17/outbox.cif.g08.bks.cpg/sg64_17_cif.got.tgz:32074.got - 2010.06.03 16:29:19.
