data_PCOD9479177
_publ_section_title
;
Structure prediction by ZEFSAII (Michael W. Deem and Ramdas Pophale) SiO2 
 PCOD9479177
Probable space group: C M C A
;
_chemical_formula_sum "Si O2"
_cell_formula_units_Z 80
_cell_length_a 16.668034
_cell_length_b 12.822436
_cell_length_c 18.234681
_cell_angle_alpha 90.000000
_cell_angle_beta 90.000000
_cell_angle_gamma 90.000000
_cell_volume 3897.203535
_symmetry_space_group_name_H-M "C M C A"
_symmetry_group_IT_number 64
_symmetry_cell_setting 'orthorhombic'
loop_
_space_group_symop_operation_xyz
x,y,z
-x,1/2-y,1/2+z
x,-y,-z
-x,1/2+y,1/2-z
-x,-y,-z
x,1/2+y,1/2-z
-x,y,z
x,1/2-y,1/2+z
1/2+x,1/2+y,z
1/2-x,-y,1/2+z
1/2+x,1/2-y,-z
1/2-x,y,1/2-z
1/2-x,1/2-y,-z
1/2+x,y,1/2-z
1/2-x,1/2+y,z
1/2+x,-y,1/2+z
loop_
_atom_site_type_symbol
_atom_site_label
_atom_site_fract_x
_atom_site_fract_y
_atom_site_fract_z
Si Si1 0.310931 0.438175 0.180325
Si Si2 0.666094 0.373778 0.417995
Si Si3 0.089412 0.758172 0.712721
Si Si4 0.650987 0.108896 0.092236
Si Si5 0.328983 0.341837 0.849408
O O1 0.250000 0.459860 0.250000
O O2 0.255031 0.385910 0.117574
O O3 0.377103 0.357536 0.206423
O O4 0.355873 0.538163 0.146585
O O5 0.629836 0.486587 0.394123
O O6 0.660049 0.374904 0.505531
O O7 0.637013 0.260323 0.390752
O O8 0.091560 0.815587 0.634636
O O9 0.152592 0.814633 0.765613
O O10 0.000000 0.762778 0.743612
O O11 0.737569 0.140444 0.125329
#
# Coordination Sequence:
#
# PCOD9479177 Si02
#       5
#    16  16  16  16  16
#     4  11  21  37  63  89 115 154 206 253 293 346
#     4  10  20  37  69  94 116 148 202 257 301 343
#     4  12  25  40  58  84 125 165 196 242 302 361
#     4  10  21  40  65  96 118 152 204 249 302 352
#     4  11  21  38  63  90 115 151 201 251 295 352
#
# _framework density 20.527539999999998
#
# number of rings (size 3 to 8) (size 9 to 14) (size 15 to 20)
#    0.000    1.200    4.000    3.600    0.000    0.800 
#    0.000    3.000    0.000    1.200    0.000    0.000 
#    0.000    0.000    0.000    0.000    0.000    0.000 
#
# Total GULP energy -222700.680121 kJ/mol
# GULP energy per Si atom -5567.517003 kJ/mol
# Density = 2.048082 g / cm^3
# Si number density = 20.527540 Si / 1000 Ang^3
#
#
#
# Elastic Constant Matrix: (Units=GPa)
#
#
# Indices 1 2 3 4 5 6 
#
# 1 31.2433 25.0345 18.1317 0.0000 0.0000 0.0000
# 2 25.0345 146.9639 37.3035 0.0000 0.0000 0.0000
# 3 18.1317 37.3035 91.9259 0.0000 0.0000 0.0000
# 4 0.0000 0.0000 0.0000 36.4103 0.0000 0.0000
# 5 0.0000 0.0000 0.0000 0.0000 4.3622 0.0000
# 6 0.0000 0.0000 0.0000 0.0000 0.0000 -22.0175
#
#
#
# Elastic Compliance Matrix: (Units=1/GPa)
#
#
# Indices 1 2 3 4 5 6 
#
# 1 0.039531 -0.005301 -0.005646 0.000000 0.000000 0.000000
# 2 -0.005301 0.008297 -0.002321 0.000000 0.000000 0.000000
# 3 -0.005646 -0.002321 0.012934 0.000000 0.000000 0.000000
# 4 0.000000 0.000000 0.000000 0.027465 0.000000 0.000000
# 5 0.000000 0.000000 0.000000 0.000000 0.229244 0.000000
# 6 0.000000 0.000000 0.000000 0.000000 0.000000 -0.045418
#
#
# Mechanical properties :
#
#
# Convention : Reuss Voigt Hill
#
# Bulk Modulus (GPa) = 29.21823 47.89694 38.55758
# Shear Modulus (GPa) = 16.12923 16.39522 16.26223
#
# Velocity S-wave (km/s) = 2.80614 2.82918 2.81768
# Velocity P-wave (km/s) = 4.97632 5.83576 5.42309
#
# Compressibility (1/GPa) = 0.03422521
#
# Stress axis : x y z
#
# Youngs Moduli (GPa) = 25.29669 120.53240 77.31599
#
# Poissons Ratio (x) = 0.63891 0.43654
# Poissons Ratio (y) = 0.13409 0.17947
# Poissons Ratio (z) = 0.14283 0.27978
#
# Static dielectric constant tensor:
#      x y z
#    x 1.752570 0.000000 0.000000 
#    y 0.000000 1.809360 0.000000 
#    z 0.000000 0.000000 1.766500 
# 
# From -- ./inp_files/34209.got.cif
#   From: 2010.05.17/outbox.cif.g08.bks.cpg/sg64_18_cif.got.tgz:34209.got - 2010.06.03 16:29:19.
