data_PCOD9479961
_publ_section_title
;
Structure prediction by ZEFSAII (Michael W. Deem and Ramdas Pophale) SiO2 
 PCOD9479961
Probable space group: C M C A
;
_chemical_formula_sum "Si O2"
_cell_formula_units_Z 64
_cell_length_a 17.238028
_cell_length_b 15.498737
_cell_length_c 9.554134
_cell_angle_alpha 90.000000
_cell_angle_beta 90.000000
_cell_angle_gamma 90.000000
_cell_volume 2552.555647
_symmetry_space_group_name_H-M "C M C A"
_symmetry_group_IT_number 64
_symmetry_cell_setting 'orthorhombic'
loop_
_space_group_symop_operation_xyz
x,y,z
-x,1/2-y,1/2+z
x,-y,-z
-x,1/2+y,1/2-z
-x,-y,-z
x,1/2+y,1/2-z
-x,y,z
x,1/2-y,1/2+z
1/2+x,1/2+y,z
1/2-x,-y,1/2+z
1/2+x,1/2-y,-z
1/2-x,y,1/2-z
1/2-x,1/2-y,-z
1/2+x,y,1/2-z
1/2-x,1/2+y,z
1/2+x,-y,1/2+z
loop_
_atom_site_type_symbol
_atom_site_label
_atom_site_fract_x
_atom_site_fract_y
_atom_site_fract_z
Si Si1 0.909530 0.885554 0.719396
Si Si2 0.500000 0.747619 0.117030
Si Si3 0.182592 0.095780 0.539892
Si Si4 0.347971 0.437835 0.154739
Si Si5 0.000000 0.147180 0.866398
O O1 0.926617 0.806154 0.822878
O O2 0.858446 0.853794 0.585698
O O3 0.000000 0.915830 0.686332
O O4 0.861323 0.963552 0.792968
O O5 0.500000 0.836460 0.200196
O O6 0.500000 0.737134 0.951070
O O7 0.275177 0.085121 0.557547
O O8 0.160488 0.114216 0.699192
O O9 0.152693 0.000000 0.500000
O O10 0.426522 0.406575 0.088134
#
# Coordination Sequence:
#
# PCOD9479961 Si02
#       5
#    16   8  16  16   8
#     4   9  20  40  66  96 128 169 213 270 327 381
#     4  10  27  41  64  92 128 173 220 263 315 389
#     4   9  20  35  63 100 130 160 203 274 324 387
#     4  10  21  37  67  98 128 162 217 266 327 377
#     4  12  25  43  66  90 128 177 218 267 313 397
#
# _framework density 25.07291
#
# number of rings (size 3 to 8) (size 9 to 14) (size 15 to 20)
#    0.750    1.500    1.250    0.000    8.750    2.500 
#    0.000    1.250    0.000    0.000    0.000    0.000 
#    0.000    0.000    0.000    0.000    0.000    0.000 
#
# Total GULP energy -178346.741720 kJ/mol
# GULP energy per Si atom -5573.335679 kJ/mol
# Density = 2.501584 g / cm^3
# Si number density = 25.072910 Si / 1000 Ang^3
#
#
#
# Elastic Constant Matrix: (Units=GPa)
#
#
# Indices 1 2 3 4 5 6 
#
# 1 176.1986 16.6593 43.5394 0.0000 0.0000 0.0000
# 2 16.6593 34.7942 -4.3109 0.0000 0.0000 0.0000
# 3 43.5394 -4.3109 118.7254 0.0000 0.0000 0.0000
# 4 0.0000 0.0000 0.0000 31.7808 0.0000 0.0000
# 5 0.0000 0.0000 0.0000 0.0000 16.4702 0.0000
# 6 0.0000 0.0000 0.0000 0.0000 0.0000 -19.7291
#
#
#
# Elastic Compliance Matrix: (Units=1/GPa)
#
#
# Indices 1 2 3 4 5 6 
#
# 1 0.006639 -0.003496 -0.002562 0.000000 0.000000 0.000000
# 2 -0.003496 0.030711 0.002397 0.000000 0.000000 0.000000
# 3 -0.002562 0.002397 0.009449 0.000000 0.000000 0.000000
# 4 0.000000 0.000000 0.000000 0.031466 0.000000 0.000000
# 5 0.000000 0.000000 0.000000 0.000000 0.060716 0.000000
# 6 0.000000 0.000000 0.000000 0.000000 0.000000 -0.050687
#
#
# Mechanical properties :
#
#
# Convention : Reuss Voigt Hill
#
# Bulk Modulus (GPa) = 25.33019 49.05486 37.19252
# Shear Modulus (GPa) = 45.96674 23.95977 34.96325
#
# Velocity S-wave (km/s) = 4.28638 3.09464 3.73830
# Velocity P-wave (km/s) = 5.88404 5.69003 5.78785
#
# Compressibility (1/GPa) = 0.03947859
#
# Stress axis : x y z
#
# Youngs Moduli (GPa) = 150.62647 32.56132 105.82864
#
# Poissons Ratio (x) = 0.11384 0.27109
# Poissons Ratio (y) = 0.52660 -0.25369
# Poissons Ratio (z) = 0.38584 -0.07806
#
# Static dielectric constant tensor:
#      x y z
#    x 2.003030 0.000000 0.000000 
#    y 0.000000 2.006070 0.000000 
#    z 0.000000 0.000000 2.093820 
# 
# From -- ./inp_files/6661.got.cif
#   From: 2010.05.17/outbox.cif.g08.bks.cpg/sg64_4_cif.got.tgz:6661.got - 2010.06.03 16:29:19.
