data_PCOD9479207
_publ_section_title
;
Structure prediction by ZEFSAII (Michael W. Deem and Ramdas Pophale) SiO2 
 PCOD9479207
Probable space group: C M C A
;
_chemical_formula_sum "Si O2"
_cell_formula_units_Z 104
_cell_length_a 28.998730
_cell_length_b 10.097747
_cell_length_c 19.105944
_cell_angle_alpha 90.000000
_cell_angle_beta 90.000000
_cell_angle_gamma 90.000000
_cell_volume 5594.637655
_symmetry_space_group_name_H-M "C M C A"
_symmetry_group_IT_number 64
_symmetry_cell_setting 'orthorhombic'
loop_
_space_group_symop_operation_xyz
x,y,z
-x,1/2-y,1/2+z
x,-y,-z
-x,1/2+y,1/2-z
-x,-y,-z
x,1/2+y,1/2-z
-x,y,z
x,1/2-y,1/2+z
1/2+x,1/2+y,z
1/2-x,-y,1/2+z
1/2+x,1/2-y,-z
1/2-x,y,1/2-z
1/2-x,1/2-y,-z
1/2+x,y,1/2-z
1/2-x,1/2+y,z
1/2+x,-y,1/2+z
loop_
_atom_site_type_symbol
_atom_site_label
_atom_site_fract_x
_atom_site_fract_y
_atom_site_fract_z
Si Si1 0.945619 0.646748 0.966988
Si Si2 0.172069 0.678816 0.644088
Si Si3 0.947937 0.409771 0.197591
Si Si4 0.330447 0.373587 0.844049
Si Si5 0.598192 0.682965 0.268493
Si Si6 0.250000 0.275483 0.750000
Si Si7 0.139528 0.841496 0.995472
O O1 0.940346 0.633807 0.882882
O O2 0.907147 0.752120 0.993660
O O3 0.000000 0.682509 0.981207
O O4 0.938108 0.500000 0.000000
O O5 0.157836 0.527760 0.655660
O O6 0.130651 0.772156 0.668610
O O7 0.215984 0.702011 0.694753
O O8 0.173106 0.693837 0.560334
O O9 0.916767 0.533443 0.219296
O O10 0.941294 0.288027 0.250992
O O11 0.000000 0.459122 0.201244
O O12 0.369292 0.302356 0.799141
O O13 0.283294 0.355762 0.801764
O O14 0.332964 0.322540 0.922914
O O15 0.128095 0.000000 0.000000
#
# Coordination Sequence:
#
# PCOD9479207 Si02
#       7
#    16  16  16  16  16   8  16
#     4  10  21  38  57  85 123 159 204 250 297 353
#     4  10  21  38  60  86 117 153 200 241 306 360
#     4  11  22  36  58  87 120 160 205 252 297 351
#     4  10  20  38  59  83 120 152 197 251 299 362
#     4  11  20  37  59  84 119 158 199 248 301 355
#     4  10  22  36  62  90 116 156 196 252 306 360
#     4  10  21  38  61  86 118 162 198 247 299 361
#
# _framework density 18.589227999999999
#
# number of rings (size 3 to 8) (size 9 to 14) (size 15 to 20)
#    0.000    1.692    3.077    1.846    0.000    0.923 
#    0.000    0.769    0.000    0.000    0.000    0.000 
#    0.000    0.000    0.000    0.000    0.000    0.000 
#
# Total GULP energy -289564.951099 kJ/mol
# GULP energy per Si atom -5568.556752 kJ/mol
# Density = 1.854692 g / cm^3
# Si number density = 18.589228 Si / 1000 Ang^3
#
#
#
# Elastic Constant Matrix: (Units=GPa)
#
#
# Indices 1 2 3 4 5 6 
#
# 1 71.7491 15.5406 42.1220 0.0000 0.0000 0.0000
# 2 15.5406 51.2405 22.3089 0.0000 0.0000 0.0000
# 3 42.1220 22.3089 116.3371 0.0000 0.0000 0.0000
# 4 0.0000 0.0000 0.0000 25.6142 0.0000 0.0000
# 5 0.0000 0.0000 0.0000 0.0000 27.9187 0.0000
# 6 0.0000 0.0000 0.0000 0.0000 0.0000 27.4907
#
#
#
# Elastic Compliance Matrix: (Units=1/GPa)
#
#
# Indices 1 2 3 4 5 6 
#
# 1 0.018079 -0.002873 -0.005995 0.000000 0.000000 0.000000
# 2 -0.002873 0.021750 -0.003131 0.000000 0.000000 0.000000
# 3 -0.005995 -0.003131 0.011367 0.000000 0.000000 0.000000
# 4 0.000000 0.000000 0.000000 0.039041 0.000000 0.000000
# 5 0.000000 0.000000 0.000000 0.000000 0.035818 0.000000
# 6 0.000000 0.000000 0.000000 0.000000 0.000000 0.036376
#
#
# Mechanical properties :
#
#
# Convention : Reuss Voigt Hill
#
# Bulk Modulus (GPa) = 36.76645 44.36328 40.56487
# Shear Modulus (GPa) = 25.57614 26.82839 26.20227
#
# Velocity S-wave (km/s) = 3.71328 3.80310 3.75846
# Velocity P-wave (km/s) = 6.18109 6.57279 6.37995
#
# Compressibility (1/GPa) = 0.02719871
#
# Stress axis : x y z
#
# Youngs Moduli (GPa) = 55.31204 45.97671 87.97692
#
# Poissons Ratio (x) = 0.13210 0.52742
# Poissons Ratio (y) = 0.15892 0.27542
# Poissons Ratio (z) = 0.33159 0.14393
#
# Static dielectric constant tensor:
#      x y z
#    x 1.656500 0.000000 0.000000 
#    y 0.000000 1.625610 0.000000 
#    z 0.000000 0.000000 1.680050 
# 
# From -- ./inp_files/41873.got.cif
#   From: 2010.05.17/outbox.cif.g08.bks.cpg/sg64_21_cif.got.tgz:41873.got - 2010.06.03 16:29:19.
