data_PCOD9479221
_publ_section_title
;
Structure prediction by ZEFSAII (Michael W. Deem and Ramdas Pophale) SiO2 
 PCOD9479221
Probable space group: C M C A
;
_chemical_formula_sum "Si O2"
_cell_formula_units_Z 88
_cell_length_a 21.955081
_cell_length_b 22.017550
_cell_length_c 9.118582
_cell_angle_alpha 90.000000
_cell_angle_beta 90.000000
_cell_angle_gamma 90.000000
_cell_volume 4407.896037
_symmetry_space_group_name_H-M "C M C A"
_symmetry_group_IT_number 64
_symmetry_cell_setting 'orthorhombic'
loop_
_space_group_symop_operation_xyz
x,y,z
-x,1/2-y,1/2+z
x,-y,-z
-x,1/2+y,1/2-z
-x,-y,-z
x,1/2+y,1/2-z
-x,y,z
x,1/2-y,1/2+z
1/2+x,1/2+y,z
1/2-x,-y,1/2+z
1/2+x,1/2-y,-z
1/2-x,y,1/2-z
1/2-x,1/2-y,-z
1/2+x,y,1/2-z
1/2-x,1/2+y,z
1/2+x,-y,1/2+z
loop_
_atom_site_type_symbol
_atom_site_label
_atom_site_fract_x
_atom_site_fract_y
_atom_site_fract_z
Si Si1 0.930672 0.376857 0.225879
Si Si2 0.147852 0.832663 0.045956
Si Si3 0.180469 0.396620 0.751692
Si Si4 0.071900 0.011473 0.176262
Si Si5 0.840542 0.695751 0.985913
Si Si6 0.250000 0.673539 0.750000
O O1 0.915411 0.357237 0.392903
O O2 0.920274 0.449018 0.232324
O O3 0.000000 0.365896 0.189485
O O4 0.891402 0.335841 0.115652
O O5 0.144127 0.760031 0.057221
O O6 0.197749 0.860370 0.159678
O O7 0.168480 0.853267 0.887649
O O8 0.250000 0.422065 0.750000
O O9 0.124485 0.443839 0.736216
O O10 0.176324 0.354360 0.894535
O O11 0.000000 0.030531 0.192428
O O12 0.081312 0.000000 0.000000
O O13 0.784942 0.709669 0.875288
#
# Coordination Sequence:
#
# PCOD9479221 Si02
#       6
#    16  16  16  16  16   8
#     4  10  23  45  66  88 126 173 218 265 317 381
#     4  11  22  39  66  95 130 171 209 256 325 391
#     4  12  24  40  65 103 134 162 216 278 320 376
#     4  10  22  46  71  89 123 179 225 257 317 392
#     4  11  24  38  63  98 130 167 210 258 326 389
#     4  10  20  38  60  84 130 178 204 238 308 400
#
# _framework density 19.964172000000001
#
# number of rings (size 3 to 8) (size 9 to 14) (size 15 to 20)
#    0.000    1.273    3.636    2.727    2.545    2.182 
#    9.818    3.636    0.000    0.000    0.000    0.000 
#    0.000    0.000    0.000    0.000    0.000    0.000 
#
# Total GULP energy -245202.248621 kJ/mol
# GULP energy per Si atom -5572.778378 kJ/mol
# Density = 1.991873 g / cm^3
# Si number density = 19.964172 Si / 1000 Ang^3
#
#
#
# Elastic Constant Matrix: (Units=GPa)
#
#
# Indices 1 2 3 4 5 6 
#
# 1 122.9779 85.9002 38.3815 0.0000 0.0000 0.0000
# 2 85.9002 80.8786 24.4499 0.0000 0.0000 0.0000
# 3 38.3815 24.4499 86.5596 0.0000 0.0000 0.0000
# 4 0.0000 0.0000 0.0000 21.3596 0.0000 0.0000
# 5 0.0000 0.0000 0.0000 0.0000 29.0009 0.0000
# 6 0.0000 0.0000 0.0000 0.0000 0.0000 21.5502
#
#
#
# Elastic Compliance Matrix: (Units=1/GPa)
#
#
# Indices 1 2 3 4 5 6 
#
# 1 0.033559 -0.034052 -0.005262 0.000000 0.000000 0.000000
# 2 -0.034052 0.048071 0.001521 0.000000 0.000000 0.000000
# 3 -0.005262 0.001521 0.013456 0.000000 0.000000 0.000000
# 4 0.000000 0.000000 0.000000 0.046817 0.000000 0.000000
# 5 0.000000 0.000000 0.000000 0.000000 0.034482 0.000000
# 6 0.000000 0.000000 0.000000 0.000000 0.000000 0.046403
#
#
# Mechanical properties :
#
#
# Convention : Reuss Voigt Hill
#
# Bulk Modulus (GPa) = 51.28258 65.31990 58.30124
# Shear Modulus (GPa) = 16.40011 23.82778 20.11394
#
# Velocity S-wave (km/s) = 2.86925 3.45849 3.17756
# Velocity P-wave (km/s) = 6.05969 6.98125 6.53673
#
# Compressibility (1/GPa) = 0.01949980
#
# Stress axis : x y z
#
# Youngs Moduli (GPa) = 29.79786 20.80257 74.31397
#
# Poissons Ratio (x) = 0.70838 0.39105
# Poissons Ratio (y) = 1.01469 -0.11303
# Poissons Ratio (z) = 0.15680 -0.03164
#
# Static dielectric constant tensor:
#      x y z
#    x 1.767830 0.000000 0.000000 
#    y 0.000000 1.678100 0.000000 
#    z 0.000000 0.000000 1.727740 
# 
# From -- ./inp_files/8187.got.cif
#   From: 2010.05.17/outbox.cif.g08.bks.cpg/sg64_5_cif.got.tgz:8187.got - 2010.06.03 16:29:19.
