data_PCOD9479139
_publ_section_title
;
Structure prediction by ZEFSAII (Michael W. Deem and Ramdas Pophale) SiO2 
 PCOD9479139
Probable space group: C M C A
;
_chemical_formula_sum "Si O2"
_cell_formula_units_Z 96
_cell_length_a 19.160802
_cell_length_b 15.360729
_cell_length_c 16.527998
_cell_angle_alpha 90.000000
_cell_angle_beta 90.000000
_cell_angle_gamma 90.000000
_cell_volume 4864.584615
_symmetry_space_group_name_H-M "C M C A"
_symmetry_group_IT_number 64
_symmetry_cell_setting 'orthorhombic'
loop_
_space_group_symop_operation_xyz
x,y,z
-x,1/2-y,1/2+z
x,-y,-z
-x,1/2+y,1/2-z
-x,-y,-z
x,1/2+y,1/2-z
-x,y,z
x,1/2-y,1/2+z
1/2+x,1/2+y,z
1/2-x,-y,1/2+z
1/2+x,1/2-y,-z
1/2-x,y,1/2-z
1/2-x,1/2-y,-z
1/2+x,y,1/2-z
1/2-x,1/2+y,z
1/2+x,-y,1/2+z
loop_
_atom_site_type_symbol
_atom_site_label
_atom_site_fract_x
_atom_site_fract_y
_atom_site_fract_z
Si Si1 0.417940 0.590054 0.169521
Si Si2 0.419820 0.822276 0.836162
Si Si3 0.841803 0.516872 0.091378
Si Si4 0.797196 0.799918 0.116574
Si Si5 0.322779 0.947359 0.252059
Si Si6 0.290426 0.638313 0.066321
O O1 0.500000 0.580626 0.151483
O O2 0.410338 0.663294 0.239856
O O3 0.384376 0.501774 0.206475
O O4 0.367232 0.614772 0.096455
O O5 0.500000 0.803378 0.852174
O O6 0.395810 0.914047 0.872693
O O7 0.369303 0.752519 0.875721
O O8 0.839937 0.438248 0.156481
O O9 0.766045 0.563324 0.085223
O O10 0.862630 0.500000 0.000000
O O11 0.802635 0.866328 0.191417
O O12 0.737681 0.725019 0.112640
O O13 0.790428 0.846731 0.030042
O O14 0.250000 0.002092 0.250000
#
# Coordination Sequence:
#
# PCOD9479139 Si02
#       6
#    16  16  16  16  16  16
#     4  10  22  40  61  85 120 165 203 245 311 377
#     4   9  21  40  58  84 126 165 199 251 313 371
#     4  10  20  37  63  90 120 155 208 259 301 367
#     4  10  23  36  62  90 121 160 206 254 311 375
#     4  11  21  36  62  89 114 155 204 253 304 359
#     4  10  21  40  58  89 126 156 199 259 313 366
#
# _framework density 19.734469000000001
#
# number of rings (size 3 to 8) (size 9 to 14) (size 15 to 20)
#    0.000    2.000    1.667    1.000    2.333    1.667 
#    0.000    0.833    0.000    0.000    0.000    0.000 
#    0.000    0.000    0.000    0.000    0.000    0.000 
#
# Total GULP energy -267589.610503 kJ/mol
# GULP energy per Si atom -5574.783552 kJ/mol
# Density = 1.968955 g / cm^3
# Si number density = 19.734469 Si / 1000 Ang^3
#
#
#
# Elastic Constant Matrix: (Units=GPa)
#
#
# Indices 1 2 3 4 5 6 
#
# 1 90.2198 12.3061 16.7682 0.0000 0.0000 0.0000
# 2 12.3061 58.8798 48.6884 0.0000 0.0000 0.0000
# 3 16.7682 48.6884 114.9423 0.0000 0.0000 0.0000
# 4 0.0000 0.0000 0.0000 35.6429 0.0000 0.0000
# 5 0.0000 0.0000 0.0000 0.0000 27.3659 0.0000
# 6 0.0000 0.0000 0.0000 0.0000 0.0000 -0.9095
#
#
#
# Elastic Compliance Matrix: (Units=1/GPa)
#
#
# Indices 1 2 3 4 5 6 
#
# 1 0.011486 -0.001562 -0.001014 0.000000 0.000000 0.000000
# 2 -0.001562 0.026352 -0.010935 0.000000 0.000000 0.000000
# 3 -0.001014 -0.010935 0.013480 0.000000 0.000000 0.000000
# 4 0.000000 0.000000 0.000000 0.028056 0.000000 0.000000
# 5 0.000000 0.000000 0.000000 0.000000 0.036542 0.000000
# 6 0.000000 0.000000 0.000000 0.000000 0.000000 -1.099448
#
#
# Mechanical properties :
#
#
# Convention : Reuss Voigt Hill
#
# Bulk Modulus (GPa) = 41.15871 46.61861 43.88866
# Shear Modulus (GPa) = -5.27197 24.83846 9.78325
#
# Velocity S-wave (km/s) = -1.63623 3.55157 2.22895
# Velocity P-wave (km/s) = 4.16316 6.36337 5.37700
#
# Compressibility (1/GPa) = 0.02429620
#
# Stress axis : x y z
#
# Youngs Moduli (GPa) = 87.06591 37.94743 74.18541
#
# Poissons Ratio (x) = 0.05928 0.07521
# Poissons Ratio (y) = 0.13601 0.81119
# Poissons Ratio (z) = 0.08827 0.41494
#
# Static dielectric constant tensor:
#      x y z
#    x 1.674310 0.000000 0.000000 
#    y 0.000000 1.733310 0.000000 
#    z 0.000000 0.000000 1.770030 
# 
# From -- ./inp_files/26307.got.cif
#   From: 2010.05.17/outbox.cif.g08.bks.cpg/sg64_14_cif.got.tgz:26307.got - 2010.06.03 16:29:19.
