data_PCOD9479721
_publ_section_title
;
Structure prediction by ZEFSAII (Michael W. Deem and Ramdas Pophale) SiO2 
 PCOD9479721
Probable space group: C M C A
;
_chemical_formula_sum "Si O2"
_cell_formula_units_Z 64
_cell_length_a 23.382400
_cell_length_b 15.667037
_cell_length_c 8.386816
_cell_angle_alpha 90.000000
_cell_angle_beta 90.000000
_cell_angle_gamma 90.000000
_cell_volume 3072.366845
_symmetry_space_group_name_H-M "C M C A"
_symmetry_group_IT_number 64
_symmetry_cell_setting 'orthorhombic'
loop_
_space_group_symop_operation_xyz
x,y,z
-x,1/2-y,1/2+z
x,-y,-z
-x,1/2+y,1/2-z
-x,-y,-z
x,1/2+y,1/2-z
-x,y,z
x,1/2-y,1/2+z
1/2+x,1/2+y,z
1/2-x,-y,1/2+z
1/2+x,1/2-y,-z
1/2-x,y,1/2-z
1/2-x,1/2-y,-z
1/2+x,y,1/2-z
1/2-x,1/2+y,z
1/2+x,-y,1/2+z
loop_
_atom_site_type_symbol
_atom_site_label
_atom_site_fract_x
_atom_site_fract_y
_atom_site_fract_z
Si Si1 0.627776 0.443114 0.846005
Si Si2 0.670224 0.896766 0.150127
Si Si3 0.937380 0.400506 0.945886
Si Si4 0.782243 0.162252 0.968749
O O1 0.656082 0.511983 0.727139
O O2 0.578100 0.401016 0.741137
O O3 0.609868 0.500000 0.000000
O O4 0.673854 0.373902 0.902822
O O5 0.728922 0.901643 0.053237
O O6 0.683983 0.836275 0.300899
O O7 0.616661 0.865666 0.045468
O O8 0.000000 0.362333 0.977251
O O9 0.940535 0.500000 0.000000
O O10 0.750000 0.250000 0.000000
#
# Coordination Sequence:
#
# PCOD9479721 Si02
#       4
#    16  16  16  16
#     4   9  19  34  55  82 115 148 185 231 280 339
#     4   9  20  35  53  80 111 146 184 227 284 342
#     4   9  18  33  54  80 110 146 189 235 278 327
#     4  10  21  36  55  82 114 144 181 232 286 342
#
# _framework density 20.830846999999999
#
# number of rings (size 3 to 8) (size 9 to 14) (size 15 to 20)
#    0.000    2.750    0.000    0.000    0.000   22.500 
#    0.000    3.750    0.000    6.000    0.000    0.000 
#    0.000    0.000    0.000    0.000    0.000    1.750 
#
# Total GULP energy -178490.885537 kJ/mol
# GULP energy per Si atom -5577.840173 kJ/mol
# Density = 2.078343 g / cm^3
# Si number density = 20.830847 Si / 1000 Ang^3
#
#
#
# Elastic Constant Matrix: (Units=GPa)
#
#
# Indices 1 2 3 4 5 6 
#
# 1 146.3958 7.3933 77.9581 0.0000 0.0000 0.0000
# 2 7.3933 42.1783 27.1427 0.0000 0.0000 0.0000
# 3 77.9581 27.1427 97.3055 0.0000 0.0000 0.0000
# 4 0.0000 0.0000 0.0000 17.1577 0.0000 0.0000
# 5 0.0000 0.0000 0.0000 0.0000 25.5659 0.0000
# 6 0.0000 0.0000 0.0000 0.0000 0.0000 -8.7033
#
#
#
# Elastic Compliance Matrix: (Units=1/GPa)
#
#
# Indices 1 2 3 4 5 6 
#
# 1 0.012823 0.005318 -0.011757 0.000000 0.000000 0.000000
# 2 0.005318 0.031101 -0.012936 0.000000 0.000000 0.000000
# 3 -0.011757 -0.012936 0.023304 0.000000 0.000000 0.000000
# 4 0.000000 0.000000 0.000000 0.058283 0.000000 0.000000
# 5 0.000000 0.000000 0.000000 0.000000 0.039115 0.000000
# 6 0.000000 0.000000 0.000000 0.000000 0.000000 -0.114899
#
#
# Mechanical properties :
#
#
# Convention : Reuss Voigt Hill
#
# Bulk Modulus (GPa) = 35.11355 56.76309 45.93832
# Shear Modulus (GPa) = 51.03607 18.36308 34.69958
#
# Velocity S-wave (km/s) = 4.95514 2.97228 4.08582
# Velocity P-wave (km/s) = 7.04493 6.25204 6.66029
#
# Compressibility (1/GPa) = 0.02847904
#
# Stress axis : x y z
#
# Youngs Moduli (GPa) = 77.98577 32.15295 42.91026
#
# Poissons Ratio (x) = -0.17099 0.50448
# Poissons Ratio (y) = -0.41473 0.55509
# Poissons Ratio (z) = 0.91685 0.41593
#
# Static dielectric constant tensor:
#      x y z
#    x 1.752180 0.000000 0.000000 
#    y 0.000000 1.801200 0.000000 
#    z 0.000000 0.000000 1.792490 
# 
# From -- ./inp_files/7751.got.cif
#   From: 2010.05.17/outbox.cif.g08.bks.cpg/sg64_4_cif.got.tgz:7751.got - 2010.06.03 16:29:19.
