data_PCOD9479427
_publ_section_title
;
Structure prediction by ZEFSAII (Michael W. Deem and Ramdas Pophale) SiO2 
 PCOD9479427
Probable space group: C M C A
;
_chemical_formula_sum "Si O2"
_cell_formula_units_Z 112
_cell_length_a 14.667510
_cell_length_b 23.459352
_cell_length_c 15.393857
_cell_angle_alpha 90.000000
_cell_angle_beta 90.000000
_cell_angle_gamma 90.000000
_cell_volume 5296.876566
_symmetry_space_group_name_H-M "C M C A"
_symmetry_group_IT_number 64
_symmetry_cell_setting 'orthorhombic'
loop_
_space_group_symop_operation_xyz
x,y,z
-x,1/2-y,1/2+z
x,-y,-z
-x,1/2+y,1/2-z
-x,-y,-z
x,1/2+y,1/2-z
-x,y,z
x,1/2-y,1/2+z
1/2+x,1/2+y,z
1/2-x,-y,1/2+z
1/2+x,1/2-y,-z
1/2-x,y,1/2-z
1/2-x,1/2-y,-z
1/2+x,y,1/2-z
1/2-x,1/2+y,z
1/2+x,-y,1/2+z
loop_
_atom_site_type_symbol
_atom_site_label
_atom_site_fract_x
_atom_site_fract_y
_atom_site_fract_z
Si Si1 0.241523 0.651002 0.384087
Si Si2 0.142666 0.311765 0.260234
Si Si3 0.604704 0.313671 0.737713
Si Si4 0.403391 0.030898 0.601125
Si Si5 0.396028 0.842688 0.462110
Si Si6 0.212833 0.978055 0.590785
Si Si7 0.599604 0.565948 0.699080
O O1 0.326602 0.687246 0.345696
O O2 0.162082 0.651045 0.309876
O O3 0.186495 0.670776 0.470778
O O4 0.289717 0.589280 0.395473
O O5 0.250000 0.306066 0.250000
O O6 0.100706 0.251936 0.231783
O O7 0.118385 0.322171 0.362181
O O8 0.117626 0.366383 0.200969
O O9 0.500000 0.333474 0.723168
O O10 0.500000 0.001632 0.588088
O O11 0.395372 0.088566 0.545988
O O12 0.402090 0.051814 0.699641
O O13 0.319662 0.990491 0.589326
O O14 0.500000 0.825627 0.489131
O O15 0.172867 0.000000 0.500000
O O16 0.170655 0.022007 0.659153
O O17 0.500000 0.554942 0.660271
#
# Coordination Sequence:
#
# PCOD9479427 Si02
#       7
#    16  16  16  16  16  16  16
#     4  11  25  43  64  97 135 187 223 266 340 403
#     4  11  21  43  75 101 130 171 223 293 339 397
#     4  11  25  47  68  98 139 181 226 277 339 415
#     4   9  19  36  61  93 119 158 215 272 322 371
#     4  10  20  39  68 102 135 167 224 289 333 385
#     4  12  24  40  61  92 136 173 217 274 324 397
#     4  10  22  39  66  97 124 166 217 270 338 394
#
# _framework density 21.144538000000001
#
# number of rings (size 3 to 8) (size 9 to 14) (size 15 to 20)
#    0.000    1.429    2.857    4.714    4.000    2.857 
#    0.000    0.000    0.000    0.000    0.000    0.000 
#    0.000    0.000    0.000    0.000    0.000    0.000 
#
# Total GULP energy -312177.085583 kJ/mol
# GULP energy per Si atom -5574.590814 kJ/mol
# Density = 2.109641 g / cm^3
# Si number density = 21.144538 Si / 1000 Ang^3
#
#
#
# Elastic Constant Matrix: (Units=GPa)
#
#
# Indices 1 2 3 4 5 6 
#
# 1 133.0120 14.8339 24.8336 0.0000 0.0000 0.0000
# 2 14.8339 91.2792 15.7437 0.0000 0.0000 0.0000
# 3 24.8336 15.7437 57.1386 0.0000 0.0000 0.0000
# 4 0.0000 0.0000 0.0000 22.8051 0.0000 0.0000
# 5 0.0000 0.0000 0.0000 0.0000 38.8779 0.0000
# 6 0.0000 0.0000 0.0000 0.0000 0.0000 63.1016
#
#
#
# Elastic Compliance Matrix: (Units=1/GPa)
#
#
# Indices 1 2 3 4 5 6 
#
# 1 0.008232 -0.000757 -0.003369 0.000000 0.000000 0.000000
# 2 -0.000757 0.011572 -0.002860 0.000000 0.000000 0.000000
# 3 -0.003369 -0.002860 0.019754 0.000000 0.000000 0.000000
# 4 0.000000 0.000000 0.000000 0.043850 0.000000 0.000000
# 5 0.000000 0.000000 0.000000 0.000000 0.025722 0.000000
# 6 0.000000 0.000000 0.000000 0.000000 0.000000 0.015847
#
#
# Mechanical properties :
#
#
# Convention : Reuss Voigt Hill
#
# Bulk Modulus (GPa) = 39.08378 43.58356 41.33367
# Shear Modulus (GPa) = 33.90411 40.02482 36.96446
#
# Velocity S-wave (km/s) = 4.00865 4.35548 4.18566
# Velocity P-wave (km/s) = 6.32059 6.77869 6.55365
#
# Compressibility (1/GPa) = 0.02558606
#
# Stress axis : x y z
#
# Youngs Moduli (GPa) = 121.48422 86.41874 50.62393
#
# Poissons Ratio (x) = 0.06539 0.17056
# Poissons Ratio (y) = 0.09192 0.14476
# Poissons Ratio (z) = 0.40929 0.24712
#
# Static dielectric constant tensor:
#      x y z
#    x 1.829410 0.000000 0.000000 
#    y 0.000000 1.784530 0.000000 
#    z 0.000000 0.000000 1.977130 
# 
# From -- ./inp_files/24239.got.cif
#   From: 2010.05.17/outbox.cif.g08.bks.cpg/sg64_13_cif.got.tgz:24239.got - 2010.06.03 16:29:19.
