data_PCOD9479345
_publ_section_title
;
Structure prediction by ZEFSAII (Michael W. Deem and Ramdas Pophale) SiO2 
 PCOD9479345
Probable space group: C M C A
;
_chemical_formula_sum "Si O2"
_cell_formula_units_Z 112
_cell_length_a 17.208680
_cell_length_b 29.037515
_cell_length_c 11.709595
_cell_angle_alpha 90.000000
_cell_angle_beta 90.000000
_cell_angle_gamma 90.000000
_cell_volume 5851.253048
_symmetry_space_group_name_H-M "C M C A"
_symmetry_group_IT_number 64
_symmetry_cell_setting 'orthorhombic'
loop_
_space_group_symop_operation_xyz
x,y,z
-x,1/2-y,1/2+z
x,-y,-z
-x,1/2+y,1/2-z
-x,-y,-z
x,1/2+y,1/2-z
-x,y,z
x,1/2-y,1/2+z
1/2+x,1/2+y,z
1/2-x,-y,1/2+z
1/2+x,1/2-y,-z
1/2-x,y,1/2-z
1/2-x,1/2-y,-z
1/2+x,y,1/2-z
1/2-x,1/2+y,z
1/2+x,-y,1/2+z
loop_
_atom_site_type_symbol
_atom_site_label
_atom_site_fract_x
_atom_site_fract_y
_atom_site_fract_z
Si Si1 0.091288 0.916804 0.765889
Si Si2 0.671688 0.158260 0.117164
Si Si3 0.406854 0.486350 0.131007
Si Si4 0.849866 0.652123 0.449571
Si Si5 0.836168 0.389380 0.302550
Si Si6 0.590920 0.325887 0.376244
Si Si7 0.091438 0.773966 0.795121
O O1 0.140168 0.889353 0.671535
O O2 0.106550 0.889199 0.883731
O O3 0.000000 0.913335 0.738000
O O4 0.111488 0.969757 0.789063
O O5 0.763987 0.156321 0.104323
O O6 0.640108 0.198601 0.199934
O O7 0.636832 0.166441 0.992553
O O8 0.500000 0.478070 0.137388
O O9 0.361019 0.441083 0.167020
O O10 0.389354 0.500000 0.000000
O O11 0.842497 0.640545 0.581883
O O12 0.894582 0.698358 0.413412
O O13 0.750000 0.387565 0.250000
O O14 0.893029 0.367581 0.209126
O O15 0.500000 0.321430 0.402535
O O16 0.615639 0.278513 0.314223
O O17 0.000000 0.776178 0.765608
#
# Coordination Sequence:
#
# PCOD9479345 Si02
#       7
#    16  16  16  16  16  16  16
#     4  10  20  38  67  94 117 156 207 255 303 360
#     4  11  22  41  61  91 129 161 201 253 307 374
#     4  10  21  40  66  93 120 156 205 257 303 356
#     4  11  22  39  63  90 124 161 203 254 309 360
#     4  12  25  42  59  92 129 162 205 251 308 370
#     4  11  25  42  62  87 125 169 203 253 311 362
#     4  10  23  40  64  93 118 161 215 254 301 363
#
# _framework density 19.141199
#
# number of rings (size 3 to 8) (size 9 to 14) (size 15 to 20)
#    0.000    1.286    2.857    4.714    2.000    4.571 
#    0.000    0.714    0.000    2.571    0.000    0.000 
#    0.000    0.000    0.000    0.000    0.000    0.000 
#
# Total GULP energy -312988.229810 kJ/mol
# GULP energy per Si atom -5589.075532 kJ/mol
# Density = 1.909763 g / cm^3
# Si number density = 19.141199 Si / 1000 Ang^3
#
#
#
# Elastic Constant Matrix: (Units=GPa)
#
#
# Indices 1 2 3 4 5 6 
#
# 1 32.7614 4.5683 10.5246 0.0000 0.0000 0.0000
# 2 4.5683 75.2483 25.2453 0.0000 0.0000 0.0000
# 3 10.5246 25.2453 82.5423 0.0000 0.0000 0.0000
# 4 0.0000 0.0000 0.0000 23.1575 0.0000 0.0000
# 5 0.0000 0.0000 0.0000 0.0000 13.4536 0.0000
# 6 0.0000 0.0000 0.0000 0.0000 0.0000 -414.7526
#
#
#
# Elastic Compliance Matrix: (Units=1/GPa)
#
#
# Indices 1 2 3 4 5 6 
#
# 1 0.031855 -0.000637 -0.003867 0.000000 0.000000 0.000000
# 2 -0.000637 0.014822 -0.004452 0.000000 0.000000 0.000000
# 3 -0.003867 -0.004452 0.013970 0.000000 0.000000 0.000000
# 4 0.000000 0.000000 0.000000 0.043183 0.000000 0.000000
# 5 0.000000 0.000000 0.000000 0.000000 0.074330 0.000000
# 6 0.000000 0.000000 0.000000 0.000000 0.000000 -0.002411
#
#
# Mechanical properties :
#
#
# Convention : Reuss Voigt Hill
#
# Bulk Modulus (GPa) = 23.39999 30.13648 26.76824
# Shear Modulus (GPa) = 24.04966 -65.61406 -20.78220
#
# Velocity S-wave (km/s) = 3.54847 -5.86118 -3.29862
# Velocity P-wave (km/s) = 5.38891 5.47960 0.70205
#
# Compressibility (1/GPa) = 0.04273506
#
# Stress axis : x y z
#
# Youngs Moduli (GPa) = 31.39246 67.46920 71.58357
#
# Poissons Ratio (x) = 0.04295 0.27681
# Poissons Ratio (y) = 0.01998 0.31869
# Poissons Ratio (z) = 0.12139 0.30037
#
# Static dielectric constant tensor:
#      x y z
#    x 1.654640 0.000000 0.000000 
#    y 0.000000 1.658190 0.000000 
#    z 0.000000 0.000000 1.655580 
# 
# From -- ./inp_files/15000.got.cif
#   From: 2010.05.17/outbox.cif.g08.bks.cpg/sg64_8_cif.got.tgz:15000.got - 2010.06.03 16:29:19.
