data_PCOD9479038
_publ_section_title
;
Structure prediction by ZEFSAII (Michael W. Deem and Ramdas Pophale) SiO2 
 PCOD9479038
Probable space group: C M C A
;
_chemical_formula_sum "Si O2"
_cell_formula_units_Z 112
_cell_length_a 21.474626
_cell_length_b 24.217723
_cell_length_c 11.227729
_cell_angle_alpha 90.000000
_cell_angle_beta 90.000000
_cell_angle_gamma 90.000000
_cell_volume 5839.166218
_symmetry_space_group_name_H-M "C M C A"
_symmetry_group_IT_number 64
_symmetry_cell_setting 'orthorhombic'
loop_
_space_group_symop_operation_xyz
x,y,z
-x,1/2-y,1/2+z
x,-y,-z
-x,1/2+y,1/2-z
-x,-y,-z
x,1/2+y,1/2-z
-x,y,z
x,1/2-y,1/2+z
1/2+x,1/2+y,z
1/2-x,-y,1/2+z
1/2+x,1/2-y,-z
1/2-x,y,1/2-z
1/2-x,1/2-y,-z
1/2+x,y,1/2-z
1/2-x,1/2+y,z
1/2+x,-y,1/2+z
loop_
_atom_site_type_symbol
_atom_site_label
_atom_site_fract_x
_atom_site_fract_y
_atom_site_fract_z
Si Si1 0.750673 0.793333 0.110867
Si Si2 0.387926 0.812819 0.357106
Si Si3 0.570880 0.082287 0.539340
Si Si4 0.072775 0.687941 0.138329
Si Si5 0.424057 0.082644 0.278052
Si Si6 0.622253 0.858728 0.102152
Si Si7 0.924360 0.464649 0.205336
O O1 0.750000 0.770637 0.250000
O O2 0.816357 0.824847 0.109665
O O3 0.692182 0.834364 0.094704
O O4 0.750000 0.750000 0.000000
O O5 0.427670 0.851534 0.442868
O O6 0.396020 0.747575 0.361942
O O7 0.403393 0.832022 0.223966
O O8 0.500000 0.062715 0.533071
O O9 0.599770 0.070785 0.411248
O O10 0.594895 0.055188 0.660896
O O11 0.097908 0.641568 0.229058
O O12 0.000000 0.696535 0.162630
O O13 0.083415 0.662169 0.009115
O O14 0.500000 0.085877 0.282929
O O15 0.410488 0.029526 0.196906
O O16 0.612096 0.923966 0.117816
O O17 0.000000 0.456798 0.193011
#
# Coordination Sequence:
#
# PCOD9479038 Si02
#       7
#    16  16  16  16  16  16  16
#     4  10  20  37  58  81 104 143 192 231 276 332
#     4  10  21  35  54  79 108 146 182 232 277 334
#     4   9  17  31  53  81 109 144 184 227 280 331
#     4  11  22  32  49  80 117 149 177 219 279 335
#     4   9  19  32  50  81 115 148 184 224 271 332
#     4  10  21  36  54  78 103 144 185 230 279 334
#     4   9  17  33  55  80 110 144 186 230 278 335
#
# _framework density 19.180820000000001
#
# number of rings (size 3 to 8) (size 9 to 14) (size 15 to 20)
#    0.000    2.286    1.429    1.286    2.000    4.000 
#    0.000    2.143    0.000    0.000   33.429    0.000 
#    0.000    0.000    0.000    0.000    0.000    0.000 
#
# Total GULP energy -311875.231031 kJ/mol
# GULP energy per Si atom -5569.200554 kJ/mol
# Density = 1.913716 g / cm^3
# Si number density = 19.180820 Si / 1000 Ang^3
#
#
#
# Elastic Constant Matrix: (Units=GPa)
#
#
# Indices 1 2 3 4 5 6 
#
# 1 34.4222 16.3869 3.0069 0.0000 0.0000 0.0000
# 2 16.3869 109.5399 4.5152 0.0000 0.0000 0.0000
# 3 3.0069 4.5152 41.4960 0.0000 0.0000 0.0000
# 4 0.0000 0.0000 0.0000 26.2583 0.0000 0.0000
# 5 0.0000 0.0000 0.0000 0.0000 17.0382 0.0000
# 6 0.0000 0.0000 0.0000 0.0000 0.0000 13.7641
#
#
#
# Elastic Compliance Matrix: (Units=1/GPa)
#
#
# Indices 1 2 3 4 5 6 
#
# 1 0.031408 -0.004625 -0.001773 0.000000 0.000000 0.000000
# 2 -0.004625 0.009851 -0.000737 0.000000 0.000000 0.000000
# 3 -0.001773 -0.000737 0.024307 0.000000 0.000000 0.000000
# 4 0.000000 0.000000 0.000000 0.038083 0.000000 0.000000
# 5 0.000000 0.000000 0.000000 0.000000 0.058692 0.000000
# 6 0.000000 0.000000 0.000000 0.000000 0.000000 0.072653
#
#
# Mechanical properties :
#
#
# Convention : Reuss Voigt Hill
#
# Bulk Modulus (GPa) = 19.49431 25.91956 22.70694
# Shear Modulus (GPa) = 18.77139 22.18206 20.47672
#
# Velocity S-wave (km/s) = 3.13174 3.40438 3.27090
# Velocity P-wave (km/s) = 4.82313 5.38476 5.11167
#
# Compressibility (1/GPa) = 0.05129701
#
# Stress axis : x y z
#
# Youngs Moduli (GPa) = 31.83913 101.50815 41.13989
#
# Poissons Ratio (x) = 0.46953 0.07292
# Poissons Ratio (y) = 0.14727 0.03031
# Poissons Ratio (z) = 0.05644 0.07479
#
# Static dielectric constant tensor:
#      x y z
#    x 1.671620 0.000000 0.000000 
#    y 0.000000 1.706760 0.000000 
#    z 0.000000 0.000000 1.711500 
# 
# From -- ./inp_files/17548.got.cif
#   From: 2010.05.17/outbox.cif.g08.bks.cpg/sg64_9_cif.got.tgz:17548.got - 2010.06.03 16:29:19.
