data_PCOD9479793
_publ_section_title
;
Structure prediction by ZEFSAII (Michael W. Deem and Ramdas Pophale) SiO2 
 PCOD9479793
Probable space group: C M C A
;
_chemical_formula_sum "Si O2"
_cell_formula_units_Z 80
_cell_length_a 22.128732
_cell_length_b 11.253871
_cell_length_c 15.752990
_cell_angle_alpha 90.000000
_cell_angle_beta 90.000000
_cell_angle_gamma 90.000000
_cell_volume 3923.028463
_symmetry_space_group_name_H-M "C M C A"
_symmetry_group_IT_number 64
_symmetry_cell_setting 'orthorhombic'
loop_
_space_group_symop_operation_xyz
x,y,z
-x,1/2-y,1/2+z
x,-y,-z
-x,1/2+y,1/2-z
-x,-y,-z
x,1/2+y,1/2-z
-x,y,z
x,1/2-y,1/2+z
1/2+x,1/2+y,z
1/2-x,-y,1/2+z
1/2+x,1/2-y,-z
1/2-x,y,1/2-z
1/2-x,1/2-y,-z
1/2+x,y,1/2-z
1/2-x,1/2+y,z
1/2+x,-y,1/2+z
loop_
_atom_site_type_symbol
_atom_site_label
_atom_site_fract_x
_atom_site_fract_y
_atom_site_fract_z
Si Si1 0.786612 0.265718 0.391730
Si Si2 0.682261 0.473139 0.213947
Si Si3 0.069824 0.669267 0.974254
Si Si4 0.830519 0.664545 0.427750
Si Si5 0.126854 0.445276 0.881632
O O1 0.818197 0.335915 0.315449
O O2 0.800860 0.335421 0.478669
O O3 0.714798 0.256911 0.380117
O O4 0.812762 0.132092 0.401148
O O5 0.750000 0.495616 0.250000
O O6 0.671600 0.549288 0.129361
O O7 0.634889 0.517497 0.284263
O O8 0.102251 0.788605 0.944347
O O9 0.110059 0.567360 0.928977
O O10 0.000000 0.659123 0.951590
O O11 0.078215 0.644463 0.075248
#
# Coordination Sequence:
#
# PCOD9479793 Si02
#       5
#    16  16  16  16  16
#     4  10  22  38  58  93 130 164 196 250 323 383
#     4  12  23  34  59  95 137 159 196 257 324 377
#     4  10  22  44  68  87 120 171 220 255 296 370
#     4  10  22  39  62  89 126 168 207 249 312 377
#     4  10  21  36  63  89 121 161 205 259 306 365
#
# _framework density 20.392408
#
# number of rings (size 3 to 8) (size 9 to 14) (size 15 to 20)
#    0.000    1.600    2.000    3.000    5.600    1.600 
#    0.000    2.000    0.000   12.000    0.000    0.000 
#    0.000    0.000    0.000    0.000    0.000    0.000 
#
# Total GULP energy -222706.321647 kJ/mol
# GULP energy per Si atom -5567.658041 kJ/mol
# Density = 2.034599 g / cm^3
# Si number density = 20.392408 Si / 1000 Ang^3
#
#
#
# Elastic Constant Matrix: (Units=GPa)
#
#
# Indices 1 2 3 4 5 6 
#
# 1 94.1147 46.7491 24.0845 0.0000 0.0000 0.0000
# 2 46.7491 54.5786 37.3706 0.0000 0.0000 0.0000
# 3 24.0845 37.3706 92.0775 0.0000 0.0000 0.0000
# 4 0.0000 0.0000 0.0000 27.4747 0.0000 0.0000
# 5 0.0000 0.0000 0.0000 0.0000 16.4624 0.0000
# 6 0.0000 0.0000 0.0000 0.0000 0.0000 5.7202
#
#
#
# Elastic Compliance Matrix: (Units=1/GPa)
#
#
# Indices 1 2 3 4 5 6 
#
# 1 0.018823 -0.017659 0.002244 0.000000 0.000000 0.000000
# 2 -0.017659 0.041940 -0.012403 0.000000 0.000000 0.000000
# 3 0.002244 -0.012403 0.015307 0.000000 0.000000 0.000000
# 4 0.000000 0.000000 0.000000 0.036397 0.000000 0.000000
# 5 0.000000 0.000000 0.000000 0.000000 0.060745 0.000000
# 6 0.000000 0.000000 0.000000 0.000000 0.000000 0.174819
#
#
# Mechanical properties :
#
#
# Convention : Reuss Voigt Hill
#
# Bulk Modulus (GPa) = 48.93768 50.79771 49.86769
# Shear Modulus (GPa) = 12.18091 18.76924 15.47507
#
# Velocity S-wave (km/s) = 2.44668 3.03711 2.75774
# Velocity P-wave (km/s) = 5.65966 6.10433 5.88620
#
# Compressibility (1/GPa) = 0.02043415
#
# Stress axis : x y z
#
# Youngs Moduli (GPa) = 53.12737 23.84355 65.32786
#
# Poissons Ratio (x) = 0.42105 -0.14657
# Poissons Ratio (y) = 0.93816 0.81025
# Poissons Ratio (z) = -0.11919 0.29573
#
# Static dielectric constant tensor:
#      x y z
#    x 1.715700 0.000000 0.000000 
#    y 0.000000 1.786730 0.000000 
#    z 0.000000 0.000000 1.795620 
# 
# From -- ./inp_files/27083.got.cif
#   From: 2010.05.17/outbox.cif.g08.bks.cpg/sg64_14_cif.got.tgz:27083.got - 2010.06.03 16:29:19.
