data_PCOD9479797
_publ_section_title
;
Structure prediction by ZEFSAII (Michael W. Deem and Ramdas Pophale) SiO2 
 PCOD9479797
Probable space group: C M C A
;
_chemical_formula_sum "Si O2"
_cell_formula_units_Z 64
_cell_length_a 17.518442
_cell_length_b 9.320449
_cell_length_c 17.690833
_cell_angle_alpha 90.000000
_cell_angle_beta 90.000000
_cell_angle_gamma 90.000000
_cell_volume 2888.554705
_symmetry_space_group_name_H-M "C M C A"
_symmetry_group_IT_number 64
_symmetry_cell_setting 'orthorhombic'
loop_
_space_group_symop_operation_xyz
x,y,z
-x,1/2-y,1/2+z
x,-y,-z
-x,1/2+y,1/2-z
-x,-y,-z
x,1/2+y,1/2-z
-x,y,z
x,1/2-y,1/2+z
1/2+x,1/2+y,z
1/2-x,-y,1/2+z
1/2+x,1/2-y,-z
1/2-x,y,1/2-z
1/2-x,1/2-y,-z
1/2+x,y,1/2-z
1/2-x,1/2+y,z
1/2+x,-y,1/2+z
loop_
_atom_site_type_symbol
_atom_site_label
_atom_site_fract_x
_atom_site_fract_y
_atom_site_fract_z
Si Si1 0.280738 0.263446 0.085349
Si Si2 0.324191 0.516561 0.805007
Si Si3 0.083060 0.039345 0.411795
Si Si4 0.369465 0.731619 0.683929
O O1 0.304177 0.424574 0.111318
O O2 0.210806 0.235574 0.141909
O O3 0.347714 0.149136 0.099278
O O4 0.250000 0.250000 0.000000
O O5 0.250000 0.483050 0.750000
O O6 0.356718 0.656724 0.763208
O O7 0.390418 0.396480 0.803659
O O8 0.091614 0.889128 0.367068
O O9 0.000000 0.103006 0.393511
O O10 0.084730 0.000000 0.500000
#
# Coordination Sequence:
#
# PCOD9479797 Si02
#       4
#    16  16  16  16
#     4  11  21  38  64  99 129 174 226 271 333 403
#     4  10  21  36  63  98 134 169 224 288 331 390
#     4  11  24  43  64  95 138 177 216 278 349 411
#     4  11  21  39  64  93 131 175 222 274 332 399
#
# _framework density 22.156409
#
# number of rings (size 3 to 8) (size 9 to 14) (size 15 to 20)
#    0.000    1.250    2.500    6.750    0.000    0.000 
#    0.000    6.250    0.000    3.000    0.000    0.000 
#    0.000    0.000    0.000    0.000    0.000    0.000 
#
# Total GULP energy -178467.720955 kJ/mol
# GULP energy per Si atom -5577.116280 kJ/mol
# Density = 2.210598 g / cm^3
# Si number density = 22.156409 Si / 1000 Ang^3
#
#
#
# Elastic Constant Matrix: (Units=GPa)
#
#
# Indices 1 2 3 4 5 6 
#
# 1 99.9613 34.2694 16.0540 0.0000 0.0000 0.0000
# 2 34.2694 129.5618 44.4897 0.0000 0.0000 0.0000
# 3 16.0540 44.4897 124.2801 0.0000 0.0000 0.0000
# 4 0.0000 0.0000 0.0000 41.1414 0.0000 0.0000
# 5 0.0000 0.0000 0.0000 0.0000 -17.9247 0.0000
# 6 0.0000 0.0000 0.0000 0.0000 0.0000 19.3269
#
#
#
# Elastic Compliance Matrix: (Units=1/GPa)
#
#
# Indices 1 2 3 4 5 6 
#
# 1 0.011022 -0.002766 -0.000433 0.000000 0.000000 0.000000
# 2 -0.002766 0.009494 -0.003041 0.000000 0.000000 0.000000
# 3 -0.000433 -0.003041 0.009191 0.000000 0.000000 0.000000
# 4 0.000000 0.000000 0.000000 0.024306 0.000000 0.000000
# 5 0.000000 0.000000 0.000000 0.000000 -0.055789 0.000000
# 6 0.000000 0.000000 0.000000 0.000000 0.000000 0.051741
#
#
# Mechanical properties :
#
#
# Convention : Reuss Voigt Hill
#
# Bulk Modulus (GPa) = 58.05603 60.38105 59.21854
# Shear Modulus (GPa) = 73.32390 25.77472 49.54931
#
# Velocity S-wave (km/s) = 5.75896 3.41443 4.73413
# Velocity P-wave (km/s) = 8.39527 6.54643 7.52783
#
# Compressibility (1/GPa) = 0.01722474
#
# Stress axis : x y z
#
# Youngs Moduli (GPa) = 90.72841 105.32450 108.80078
#
# Poissons Ratio (x) = 0.29138 0.04716
# Poissons Ratio (y) = 0.25100 0.33091
# Poissons Ratio (z) = 0.03932 0.32034
#
# Static dielectric constant tensor:
#      x y z
#    x 0.644120 0.000000 0.000000 
#    y 0.000000 2.052210 0.000000 
#    z 0.000000 0.000000 1.831320 
# 
# From -- ./inp_files/39808.got.cif
#   From: 2010.05.17/outbox.cif.g08.bks.cpg/sg64_20_cif.got.tgz:39808.got - 2010.06.03 16:29:19.
