data_PCOD9479123
_publ_section_title
;
Structure prediction by ZEFSAII (Michael W. Deem and Ramdas Pophale) SiO2 
 PCOD9479123
Probable space group: C M C A
;
_chemical_formula_sum "Si O2"
_cell_formula_units_Z 56
_cell_length_a 15.398105
_cell_length_b 9.915782
_cell_length_c 17.170620
_cell_angle_alpha 90.000000
_cell_angle_beta 90.000000
_cell_angle_gamma 90.000000
_cell_volume 2621.683278
_symmetry_space_group_name_H-M "C M C A"
_symmetry_group_IT_number 64
_symmetry_cell_setting 'orthorhombic'
loop_
_space_group_symop_operation_xyz
x,y,z
-x,1/2-y,1/2+z
x,-y,-z
-x,1/2+y,1/2-z
-x,-y,-z
x,1/2+y,1/2-z
-x,y,z
x,1/2-y,1/2+z
1/2+x,1/2+y,z
1/2-x,-y,1/2+z
1/2+x,1/2-y,-z
1/2-x,y,1/2-z
1/2-x,1/2-y,-z
1/2+x,y,1/2-z
1/2-x,1/2+y,z
1/2+x,-y,1/2+z
loop_
_atom_site_type_symbol
_atom_site_label
_atom_site_fract_x
_atom_site_fract_y
_atom_site_fract_z
Si Si1 0.367190 0.353978 0.979592
Si Si2 0.403453 0.135687 0.852172
Si Si3 0.678002 0.132041 0.094703
Si Si4 0.750000 0.758149 0.250000
O O1 0.403533 0.266703 0.907999
O O2 0.267145 0.379685 0.953775
O O3 0.403888 0.500000 0.000000
O O4 0.370610 0.256799 0.054381
O O5 0.500000 0.117084 0.819147
O O6 0.327057 0.156776 0.789725
O O7 0.376040 0.005189 0.902370
O O8 0.706425 0.170804 0.181900
#
# Coordination Sequence:
#
# PCOD9479123 Si02
#       4
#    16  16  16   8
#     4  10  20  37  62  91 125 166 206 250 307 367
#     4  11  24  41  63  92 125 164 211 261 313 372
#     4  10  20  37  62  89 122 166 211 253 303 366
#     4  10  22  40  62  90 126 166 208 258 312 372
#
# _framework density 21.360323000000001
#
# number of rings (size 3 to 8) (size 9 to 14) (size 15 to 20)
#    0.000    1.714    0.000    6.857    0.000    6.286 
#    0.000    0.000    0.000    0.000    0.000    0.000 
#    0.000    0.000    0.000    0.000    0.000    0.000 
#
# Total GULP energy -156439.672570 kJ/mol
# GULP energy per Si atom -5587.131163 kJ/mol
# Density = 2.131171 g / cm^3
# Si number density = 21.360323 Si / 1000 Ang^3
#
#
#
# Elastic Constant Matrix: (Units=GPa)
#
#
# Indices 1 2 3 4 5 6 
#
# 1 130.5342 59.8964 22.4303 0.0000 0.0000 0.0000
# 2 59.8964 163.4104 48.9304 0.0000 0.0000 0.0000
# 3 22.4303 48.9304 101.7506 0.0000 0.0000 0.0000
# 4 0.0000 0.0000 0.0000 22.1772 0.0000 0.0000
# 5 0.0000 0.0000 0.0000 0.0000 -6.8303 0.0000
# 6 0.0000 0.0000 0.0000 0.0000 0.0000 20.2072
#
#
#
# Elastic Compliance Matrix: (Units=1/GPa)
#
#
# Indices 1 2 3 4 5 6 
#
# 1 0.009230 -0.003240 -0.000476 0.000000 0.000000 0.000000
# 2 -0.003240 0.008287 -0.003271 0.000000 0.000000 0.000000
# 3 -0.000476 -0.003271 0.011506 0.000000 0.000000 0.000000
# 4 0.000000 0.000000 0.000000 0.045091 0.000000 0.000000
# 5 0.000000 0.000000 0.000000 0.000000 -0.146406 0.000000
# 6 0.000000 0.000000 0.000000 0.000000 0.000000 0.049487
#
#
# Mechanical properties :
#
#
# Convention : Reuss Voigt Hill
#
# Bulk Modulus (GPa) = 66.45719 73.13437 69.79578
# Shear Modulus (GPa) = -1310.63775 24.74002 -642.94886
#
# Velocity S-wave (km/s) = -24.79752 3.40696 -17.36822
# Velocity P-wave (km/s) = 28.08397 7.05615 19.22135
#
# Compressibility (1/GPa) = 0.01504728
#
# Stress axis : x y z
#
# Youngs Moduli (GPa) = 108.34777 120.67679 86.91321
#
# Poissons Ratio (x) = 0.39104 0.04140
# Poissons Ratio (y) = 0.35109 0.28426
# Poissons Ratio (z) = 0.05161 0.39468
#
# Static dielectric constant tensor:
#      x y z
#    x 1.825310 0.000000 0.000000 
#    y 0.000000 1.776220 0.000000 
#    z 0.000000 0.000000 1.760850 
# 
# From -- ./inp_files/32680.got.cif
#   From: 2010.05.17/outbox.cif.g08.bks.cpg/sg64_17_cif.got.tgz:32680.got - 2010.06.03 16:29:19.
