data_PCOD9479349
_publ_section_title
;
Structure prediction by ZEFSAII (Michael W. Deem and Ramdas Pophale) SiO2 
 PCOD9479349
Probable space group: C M C A
;
_chemical_formula_sum "Si O2"
_cell_formula_units_Z 88
_cell_length_a 7.435959
_cell_length_b 21.454169
_cell_length_c 23.129863
_cell_angle_alpha 90.000000
_cell_angle_beta 90.000000
_cell_angle_gamma 90.000000
_cell_volume 3689.960730
_symmetry_space_group_name_H-M "C M C A"
_symmetry_group_IT_number 64
_symmetry_cell_setting 'orthorhombic'
loop_
_space_group_symop_operation_xyz
x,y,z
-x,1/2-y,1/2+z
x,-y,-z
-x,1/2+y,1/2-z
-x,-y,-z
x,1/2+y,1/2-z
-x,y,z
x,1/2-y,1/2+z
1/2+x,1/2+y,z
1/2-x,-y,1/2+z
1/2+x,1/2-y,-z
1/2-x,y,1/2-z
1/2-x,1/2-y,-z
1/2+x,y,1/2-z
1/2-x,1/2+y,z
1/2+x,-y,1/2+z
loop_
_atom_site_type_symbol
_atom_site_label
_atom_site_fract_x
_atom_site_fract_y
_atom_site_fract_z
Si Si1 0.792524 0.578881 0.934210
Si Si2 0.285500 0.152077 0.683293
Si Si3 0.211924 0.574679 0.187369
Si Si4 0.000000 0.016040 0.098976
Si Si5 0.217459 0.791339 0.653288
Si Si6 0.713246 0.317432 0.525602
O O1 0.785551 0.609802 0.869429
O O2 0.657832 0.522289 0.935380
O O3 0.000000 0.563088 0.946114
O O4 0.725373 0.630075 0.981041
O O5 0.500000 0.150380 0.675861
O O6 0.250000 0.133405 0.750000
O O7 0.218544 0.223501 0.673822
O O8 0.250000 0.545665 0.250000
O O9 0.342178 0.546273 0.140369
O O10 0.256692 0.648309 0.190680
O O11 0.000000 0.568177 0.172889
O O12 0.286225 0.812171 0.590194
O O13 0.000000 0.785181 0.650177
O O14 0.500000 0.326970 0.530402
O O15 0.750000 0.250000 0.500000
#
# Coordination Sequence:
#
# PCOD9479349 Si02
#       6
#    16  16  16   8  16  16
#     4  11  24  43  65  99 137 177 225 276 338 409
#     4  11  21  38  60  95 138 173 212 276 345 403
#     4  11  23  46  70  98 131 181 234 284 341 398
#     4  12  26  46  69  92 136 176 231 275 328 409
#     4   9  20  39  68  97 135 173 221 285 342 403
#     4  10  20  38  67  99 136 179 220 275 344 414
#
# _framework density 23.848492
#
# number of rings (size 3 to 8) (size 9 to 14) (size 15 to 20)
#    0.000    1.455    3.636    1.636    1.273    0.727 
#    8.182    1.818    0.000    4.364    0.000    0.000 
#    0.000    0.000    0.000    0.000    0.000    0.000 
#
# Total GULP energy -245052.140495 kJ/mol
# GULP energy per Si atom -5569.366829 kJ/mol
# Density = 2.379421 g / cm^3
# Si number density = 23.848492 Si / 1000 Ang^3
#
#
#
# Elastic Constant Matrix: (Units=GPa)
#
#
# Indices 1 2 3 4 5 6 
#
# 1 133.6970 28.5614 -2.0960 0.0000 0.0000 0.0000
# 2 28.5614 37.3730 34.5630 0.0000 0.0000 0.0000
# 3 -2.0960 34.5630 131.2015 0.0000 0.0000 0.0000
# 4 0.0000 0.0000 0.0000 -90.5911 0.0000 0.0000
# 5 0.0000 0.0000 0.0000 0.0000 -9.9043 0.0000
# 6 0.0000 0.0000 0.0000 0.0000 0.0000 28.2616
#
#
#
# Elastic Compliance Matrix: (Units=1/GPa)
#
#
# Indices 1 2 3 4 5 6 
#
# 1 0.009645 -0.009934 0.002771 0.000000 0.000000 0.000000
# 2 -0.009934 0.045607 -0.012173 0.000000 0.000000 0.000000
# 3 0.002771 -0.012173 0.010873 0.000000 0.000000 0.000000
# 4 0.000000 0.000000 0.000000 -0.011039 0.000000 0.000000
# 5 0.000000 0.000000 0.000000 0.000000 -0.100966 0.000000
# 6 0.000000 0.000000 0.000000 0.000000 0.000000 0.035384
#
#
# Mechanical properties :
#
#
# Convention : Reuss Voigt Hill
#
# Bulk Modulus (GPa) = 36.42563 47.14755 41.78659
# Shear Modulus (GPa) = 133.95298 1.63611 67.79454
#
# Velocity S-wave (km/s) = 7.50268 0.82918 5.33750
# Velocity P-wave (km/s) = 9.50582 4.55294 7.45285
#
# Compressibility (1/GPa) = 0.02745320
#
# Stress axis : x y z
#
# Youngs Moduli (GPa) = 103.67902 21.92661 91.97148
#
# Poissons Ratio (x) = 0.21781 -0.25485
# Poissons Ratio (y) = 1.02992 1.11957
# Poissons Ratio (z) = -0.28729 0.26691
#
# Static dielectric constant tensor:
#      x y z
#    x 1.874760 0.000000 0.000000 
#    y 0.000000 1.934010 0.000000 
#    z 0.000000 0.000000 2.027930 
# 
# From -- ./inp_files/36782.got.cif
#   From: 2010.05.17/outbox.cif.g08.bks.cpg/sg64_19_cif.got.tgz:36782.got - 2010.06.03 16:29:19.
