data_PCOD9479236
_publ_section_title
;
Structure prediction by ZEFSAII (Michael W. Deem and Ramdas Pophale) SiO2 
 PCOD9479236
Probable space group: C M C A
;
_chemical_formula_sum "Si O2"
_cell_formula_units_Z 92
_cell_length_a 15.924833
_cell_length_b 18.547396
_cell_length_c 16.663602
_cell_angle_alpha 90.000000
_cell_angle_beta 90.000000
_cell_angle_gamma 90.000000
_cell_volume 4921.831205
_symmetry_space_group_name_H-M "C M C A"
_symmetry_group_IT_number 64
_symmetry_cell_setting 'orthorhombic'
loop_
_space_group_symop_operation_xyz
x,y,z
-x,1/2-y,1/2+z
x,-y,-z
-x,1/2+y,1/2-z
-x,-y,-z
x,1/2+y,1/2-z
-x,y,z
x,1/2-y,1/2+z
1/2+x,1/2+y,z
1/2-x,-y,1/2+z
1/2+x,1/2-y,-z
1/2-x,y,1/2-z
1/2-x,1/2-y,-z
1/2+x,y,1/2-z
1/2-x,1/2+y,z
1/2+x,-y,1/2+z
loop_
_atom_site_type_symbol
_atom_site_label
_atom_site_fract_x
_atom_site_fract_y
_atom_site_fract_z
Si Si1 0.000000 0.500000 0.500000
Si Si2 0.101062 0.572607 0.952237
Si Si3 0.340034 0.745184 0.721732
Si Si4 0.157309 0.730275 0.971342
Si Si5 0.000000 0.334612 0.715846
Si Si6 0.655238 0.078483 0.767820
Si Si7 0.000000 0.997268 0.808203
Si Si8 0.000000 0.827534 0.979639
O O1 0.000000 0.590803 0.510556
O O2 0.000000 0.510486 0.403365
O O3 0.135436 0.646954 0.989678
O O4 0.135661 0.568931 0.861861
O O5 0.000000 0.578153 0.948339
O O6 0.123396 0.500000 0.000000
O O7 0.250000 0.773447 0.750000
O O8 0.342128 0.738426 0.625320
O O9 0.417059 0.794948 0.746895
O O10 0.349686 0.663518 0.752874
O O11 0.083971 0.783049 0.003290
O O12 0.250000 0.750000 0.000000
O O13 0.000000 0.327234 0.618377
O O14 0.000000 0.418855 0.732993
O O15 0.750000 0.053978 0.750000
O O16 0.583716 0.037786 0.719330
#
# Coordination Sequence:
#
# PCOD9479236 Si02
#       8
#     4  16  16  16   8  16   8   8
#     4  10  24  38  62  84 122 172 200 234 314 374
#     4  10  20  40  67  90 120 164 208 255 311 371
#     4   9  19  37  60  84 109 151 199 238 294 359
#     4  10  20  38  61  85 119 154 193 248 303 352
#     4   9  19  36  57  80 112 156 185 234 306 342
#     4  10  21  39  64  87 117 159 205 252 307 360
#     4  11  22  41  58  86 126 157 200 254 303 372
#     4   9  19  39  56  78 115 159 191 232 294 357
#
# _framework density 18.692229999999999
#
# number of rings (size 3 to 8) (size 9 to 14) (size 15 to 20)
#    0.000    2.261    1.739    0.522    2.435    4.870 
#   15.652    0.870    0.000    0.000    0.000    0.000 
#    0.000    0.000    0.000    0.000    0.000    0.000 
#
# Total GULP energy -256169.601360 kJ/mol
# GULP energy per Si atom -5568.904377 kJ/mol
# Density = 1.864969 g / cm^3
# Si number density = 18.692230 Si / 1000 Ang^3
#
#
#
# Elastic Constant Matrix: (Units=GPa)
#
#
# Indices 1 2 3 4 5 6 
#
# 1 180.9878 101.7735 28.2914 0.0000 0.0000 0.0000
# 2 101.7735 146.6843 32.7749 0.0000 0.0000 0.0000
# 3 28.2914 32.7749 24.6379 0.0000 0.0000 0.0000
# 4 0.0000 0.0000 0.0000 25.6084 0.0000 0.0000
# 5 0.0000 0.0000 0.0000 0.0000 25.4871 0.0000
# 6 0.0000 0.0000 0.0000 0.0000 0.0000 65.1557
#
#
#
# Elastic Compliance Matrix: (Units=1/GPa)
#
#
# Indices 1 2 3 4 5 6 
#
# 1 0.009209 -0.005729 -0.002952 0.000000 0.000000 0.000000
# 2 -0.005729 0.013266 -0.011068 0.000000 0.000000 0.000000
# 3 -0.002952 -0.011068 0.058701 0.000000 0.000000 0.000000
# 4 0.000000 0.000000 0.000000 0.039050 0.000000 0.000000
# 5 0.000000 0.000000 0.000000 0.000000 0.039236 0.000000
# 6 0.000000 0.000000 0.000000 0.000000 0.000000 0.015348
#
#
# Mechanical properties :
#
#
# Convention : Reuss Voigt Hill
#
# Bulk Modulus (GPa) = 23.99456 75.33218 49.66337
# Shear Modulus (GPa) = 21.91070 35.88159 28.89615
#
# Velocity S-wave (km/s) = 3.42743 4.38608 3.93605
# Velocity P-wave (km/s) = 5.34112 8.12644 6.87628
#
# Compressibility (1/GPa) = 0.04167612
#
# Stress axis : x y z
#
# Youngs Moduli (GPa) = 108.59490 75.38328 17.03551
#
# Poissons Ratio (x) = 0.43190 0.05029
# Poissons Ratio (y) = 0.62219 0.18854
# Poissons Ratio (z) = 0.32061 0.83431
#
# Static dielectric constant tensor:
#      x y z
#    x 1.627560 0.000000 0.000000 
#    y 0.000000 1.650180 0.000000 
#    z 0.000000 0.000000 1.638590 
# 
# From -- ./inp_files/39440.got.cif
#   From: 2010.05.17/outbox.cif.g08.bks.cpg/sg64_20_cif.got.tgz:39440.got - 2010.06.03 16:29:19.
