data_PCOD9479141
_publ_section_title
;
Structure prediction by ZEFSAII (Michael W. Deem and Ramdas Pophale) SiO2 
 PCOD9479141
Probable space group: C M C A
;
_chemical_formula_sum "Si O2"
_cell_formula_units_Z 64
_cell_length_a 16.986915
_cell_length_b 14.574359
_cell_length_c 12.503806
_cell_angle_alpha 90.000000
_cell_angle_beta 90.000000
_cell_angle_gamma 90.000000
_cell_volume 3095.609733
_symmetry_space_group_name_H-M "C M C A"
_symmetry_group_IT_number 64
_symmetry_cell_setting 'orthorhombic'
loop_
_space_group_symop_operation_xyz
x,y,z
-x,1/2-y,1/2+z
x,-y,-z
-x,1/2+y,1/2-z
-x,-y,-z
x,1/2+y,1/2-z
-x,y,z
x,1/2-y,1/2+z
1/2+x,1/2+y,z
1/2-x,-y,1/2+z
1/2+x,1/2-y,-z
1/2-x,y,1/2-z
1/2-x,1/2-y,-z
1/2+x,y,1/2-z
1/2-x,1/2+y,z
1/2+x,-y,1/2+z
loop_
_atom_site_type_symbol
_atom_site_label
_atom_site_fract_x
_atom_site_fract_y
_atom_site_fract_z
Si Si1 0.644206 0.500000 0.000000
Si Si2 0.248329 0.857792 0.627886
Si Si3 0.415350 0.427426 0.596016
Si Si4 0.750000 0.316519 0.250000
Si Si5 0.586922 0.925367 0.283585
O O1 0.698703 0.420050 0.948123
O O2 0.593200 0.540433 0.904531
O O3 0.250000 0.897919 0.750000
O O4 0.158662 0.862279 0.590444
O O5 0.267798 0.751892 0.650165
O O6 0.410524 0.500000 0.500000
O O7 0.500000 0.379892 0.590910
O O8 0.411620 0.488199 0.703193
O O9 0.668826 0.371098 0.234556
O O10 0.500000 0.880300 0.265789
#
# Coordination Sequence:
#
# PCOD9479141 Si02
#       5
#     8  16  16   8  16
#     4  12  21  40  71  90 120 164 221 252 312 370
#     4  10  21  39  62  90 123 166 202 256 314 373
#     4  10  20  37  63  91 121 167 221 261 303 373
#     4  10  24  42  58  92 132 168 198 258 330 380
#     4  11  23  41  63  93 129 164 209 262 314 378
#
# _framework density 20.674441000000002
#
# number of rings (size 3 to 8) (size 9 to 14) (size 15 to 20)
#    0.750    0.750    3.750    1.875    0.000    2.000 
#    0.000    2.500    0.000    0.000    0.000    0.000 
#    0.000    0.000    0.000    0.000    0.000    0.000 
#
# Total GULP energy -178414.903092 kJ/mol
# GULP energy per Si atom -5575.465722 kJ/mol
# Density = 2.062738 g / cm^3
# Si number density = 20.674441 Si / 1000 Ang^3
#
#
#
# Elastic Constant Matrix: (Units=GPa)
#
#
# Indices 1 2 3 4 5 6 
#
# 1 169.2342 42.1621 19.5975 0.0000 0.0000 0.0000
# 2 42.1621 45.3010 2.8825 0.0000 0.0000 0.0000
# 3 19.5975 2.8825 84.5309 0.0000 0.0000 0.0000
# 4 0.0000 0.0000 0.0000 33.2629 0.0000 0.0000
# 5 0.0000 0.0000 0.0000 0.0000 44.6040 0.0000
# 6 0.0000 0.0000 0.0000 0.0000 0.0000 -15.6205
#
#
#
# Elastic Compliance Matrix: (Units=1/GPa)
#
#
# Indices 1 2 3 4 5 6 
#
# 1 0.007899 -0.007251 -0.001584 0.000000 0.000000 0.000000
# 2 -0.007251 0.028778 0.000700 0.000000 0.000000 0.000000
# 3 -0.001584 0.000700 0.012173 0.000000 0.000000 0.000000
# 4 0.000000 0.000000 0.000000 0.030064 0.000000 0.000000
# 5 0.000000 0.000000 0.000000 0.000000 0.022419 0.000000
# 6 0.000000 0.000000 0.000000 0.000000 0.000000 -0.064018
#
#
# Mechanical properties :
#
#
# Convention : Reuss Voigt Hill
#
# Bulk Modulus (GPa) = 30.69327 47.59449 39.14388
# Shear Modulus (GPa) = 77.58481 28.07754 52.83117
#
# Velocity S-wave (km/s) = 6.13257 3.68921 5.06057
# Velocity P-wave (km/s) = 8.06367 6.42012 7.28837
#
# Compressibility (1/GPa) = 0.03258043
#
# Stress axis : x y z
#
# Youngs Moduli (GPa) = 126.60140 34.74831 82.14657
#
# Poissons Ratio (x) = 0.25195 0.13012
# Poissons Ratio (y) = 0.91795 -0.05747
# Poissons Ratio (z) = 0.20054 -0.02431
#
# Static dielectric constant tensor:
#      x y z
#    x 1.760000 0.000000 0.000000 
#    y 0.000000 1.762620 0.000000 
#    z 0.000000 0.000000 1.874910 
# 
# From -- ./inp_files/14059.got.cif
#   From: 2010.05.17/outbox.cif.g08.bks.cpg/sg64_8_cif.got.tgz:14059.got - 2010.06.03 16:29:19.
