data_PCOD9479456
_publ_section_title
;
Structure prediction by ZEFSAII (Michael W. Deem and Ramdas Pophale) SiO2 
 PCOD9479456
Probable space group: C M C A
;
_chemical_formula_sum "Si O2"
_cell_formula_units_Z 108
_cell_length_a 17.070800
_cell_length_b 9.934488
_cell_length_c 32.360652
_cell_angle_alpha 90.000000
_cell_angle_beta 90.000000
_cell_angle_gamma 90.000000
_cell_volume 5488.031897
_symmetry_space_group_name_H-M "C M C A"
_symmetry_group_IT_number 64
_symmetry_cell_setting 'orthorhombic'
loop_
_space_group_symop_operation_xyz
x,y,z
-x,1/2-y,1/2+z
x,-y,-z
-x,1/2+y,1/2-z
-x,-y,-z
x,1/2+y,1/2-z
-x,y,z
x,1/2-y,1/2+z
1/2+x,1/2+y,z
1/2-x,-y,1/2+z
1/2+x,1/2-y,-z
1/2-x,y,1/2-z
1/2-x,1/2-y,-z
1/2+x,y,1/2-z
1/2-x,1/2+y,z
1/2+x,-y,1/2+z
loop_
_atom_site_type_symbol
_atom_site_label
_atom_site_fract_x
_atom_site_fract_y
_atom_site_fract_z
Si Si1 0.721233 0.000000 0.500000
Si Si2 0.832003 0.867638 0.732808
Si Si3 0.655634 0.098690 0.625887
Si Si4 0.299032 0.595584 0.362237
Si Si5 0.911723 0.903224 0.216052
Si Si6 0.500000 0.000000 0.000000
Si Si7 0.631260 0.966855 0.942937
Si Si8 0.588908 0.661269 0.960562
O O1 0.781690 0.978330 0.537718
O O2 0.660215 0.880168 0.490488
O O3 0.750000 0.812139 0.750000
O O4 0.821653 0.915202 0.685592
O O5 0.892745 0.745565 0.732412
O O6 0.856125 0.989711 0.761945
O O7 0.699335 0.245148 0.626284
O O8 0.603205 0.098824 0.666943
O O9 0.607822 0.090824 0.583326
O O10 0.716962 0.977966 0.630401
O O11 0.359272 0.523820 0.393866
O O12 0.000000 0.941307 0.225366
O O13 0.569721 0.055600 0.967999
O O14 0.594896 0.819615 0.951731
O O15 0.500000 0.632661 0.974348
#
# Coordination Sequence:
#
# PCOD9479456 Si02
#       8
#     8  16  16  16  16   4  16  16
#     4  11  21  35  61  86 114 152 193 243 299 361
#     4  11  22  38  64  88 120 162 208 248 296 360
#     4  10  21  38  61  87 118 161 202 246 304 359
#     4  10  21  38  61  89 119 157 209 250 295 364
#     4  11  23  39  59  91 122 159 200 254 306 358
#     4  10  20  40  62  86 118 152 198 252 308 356
#     4  10  21  39  60  86 117 156 200 245 304 361
#     4  11  21  37  58  88 119 154 195 248 297 363
#
# _framework density 19.679186000000001
#
# number of rings (size 3 to 8) (size 9 to 14) (size 15 to 20)
#    0.000    1.481    3.704    2.000    2.074    0.000 
#    2.667    0.000    0.000    0.000    1.926    0.000 
#    0.000    0.000    0.000    0.000    0.000    0.000 
#
# Total GULP energy -300747.890184 kJ/mol
# GULP energy per Si atom -5569.405374 kJ/mol
# Density = 1.963440 g / cm^3
# Si number density = 19.679186 Si / 1000 Ang^3
#
#
#
# Elastic Constant Matrix: (Units=GPa)
#
#
# Indices 1 2 3 4 5 6 
#
# 1 116.9234 11.7959 12.6077 0.0000 0.0000 0.0000
# 2 11.7959 20.8985 -12.0468 0.0000 0.0000 0.0000
# 3 12.6077 -12.0468 63.0350 0.0000 0.0000 0.0000
# 4 0.0000 0.0000 0.0000 17.7223 0.0000 0.0000
# 5 0.0000 0.0000 0.0000 0.0000 69.3931 0.0000
# 6 0.0000 0.0000 0.0000 0.0000 0.0000 51.3964
#
#
#
# Elastic Compliance Matrix: (Units=1/GPa)
#
#
# Indices 1 2 3 4 5 6 
#
# 1 0.009657 -0.007377 -0.003341 0.000000 0.000000 0.000000
# 2 -0.007377 0.059410 0.012829 0.000000 0.000000 0.000000
# 3 -0.003341 0.012829 0.018984 0.000000 0.000000 0.000000
# 4 0.000000 0.000000 0.000000 0.056426 0.000000 0.000000
# 5 0.000000 0.000000 0.000000 0.000000 0.014411 0.000000
# 6 0.000000 0.000000 0.000000 0.000000 0.000000 0.019457
#
#
# Mechanical properties :
#
#
# Convention : Reuss Voigt Hill
#
# Bulk Modulus (GPa) = 10.83739 25.06341 17.95040
# Shear Modulus (GPa) = 24.40452 40.26902 32.33677
#
# Velocity S-wave (km/s) = 3.52535 4.52848 4.05803
# Velocity P-wave (km/s) = 4.69998 6.33297 5.57657
#
# Compressibility (1/GPa) = 0.09227317
#
# Stress axis : x y z
#
# Youngs Moduli (GPa) = 103.55038 16.83230 52.67494
#
# Poissons Ratio (x) = 0.12417 0.17601
# Poissons Ratio (y) = 0.76389 -0.67579
# Poissons Ratio (z) = 0.34600 -0.21595
#
# Static dielectric constant tensor:
#      x y z
#    x 1.681080 0.000000 0.000000 
#    y 0.000000 1.725660 0.000000 
#    z 0.000000 0.000000 1.862140 
# 
# From -- ./inp_files/53311.got.cif
#   From: 2010.05.17/outbox.cif.g08.bks.cpg/sg64_27_cif.got.tgz:53311.got - 2010.06.03 16:29:19.
