data_PCOD9479667
_publ_section_title
;
Structure prediction by ZEFSAII (Michael W. Deem and Ramdas Pophale) SiO2 
 PCOD9479667
Probable space group: C M C A
;
_chemical_formula_sum "Si O2"
_cell_formula_units_Z 104
_cell_length_a 25.668608
_cell_length_b 26.546601
_cell_length_c 8.351309
_cell_angle_alpha 90.000000
_cell_angle_beta 90.000000
_cell_angle_gamma 90.000000
_cell_volume 5690.701333
_symmetry_space_group_name_H-M "C M C A"
_symmetry_group_IT_number 64
_symmetry_cell_setting 'orthorhombic'
loop_
_space_group_symop_operation_xyz
x,y,z
-x,1/2-y,1/2+z
x,-y,-z
-x,1/2+y,1/2-z
-x,-y,-z
x,1/2+y,1/2-z
-x,y,z
x,1/2-y,1/2+z
1/2+x,1/2+y,z
1/2-x,-y,1/2+z
1/2+x,1/2-y,-z
1/2-x,y,1/2-z
1/2-x,1/2-y,-z
1/2+x,y,1/2-z
1/2-x,1/2+y,z
1/2+x,-y,1/2+z
loop_
_atom_site_type_symbol
_atom_site_label
_atom_site_fract_x
_atom_site_fract_y
_atom_site_fract_z
Si Si1 0.400421 0.414987 0.843696
Si Si2 0.112888 0.104076 0.508094
Si Si3 0.843245 0.500000 0.500000
Si Si4 0.439209 0.811676 0.512744
Si Si5 0.500000 0.984105 0.678338
Si Si6 0.000000 0.056634 0.569638
Si Si7 0.199120 0.533788 0.835023
Si Si8 0.062157 0.700802 0.868351
O O1 0.371336 0.405706 0.675701
O O2 0.374761 0.448345 0.982363
O O3 0.412584 0.360479 0.914082
O O4 0.450202 0.448951 0.792180
O O5 0.154206 0.073443 0.615668
O O6 0.101821 0.162406 0.546561
O O7 0.054219 0.082772 0.533533
O O8 0.817940 0.498319 0.322092
O O9 0.500000 0.818049 0.551151
O O10 0.423986 0.758096 0.588177
O O11 0.434019 0.808491 0.321339
O O12 0.500000 0.000000 0.500000
O O13 0.500000 0.040286 0.748866
O O14 0.000000 0.000000 0.500000
O O15 0.250000 0.558789 0.750000
O O16 0.208346 0.500000 0.000000
O O17 0.000000 0.693217 0.913475
#
# Coordination Sequence:
#
# PCOD9479667 Si02
#       8
#    16  16   8  16   8   8  16  16
#     4  12  22  35  55  87 125 169 214 253 308 376
#     4  12  23  38  61  88 122 166 209 257 318 376
#     4  12  24  39  62  90 124 161 212 264 316 374
#     4  10  21  35  54  80 122 170 217 261 308 373
#     4  12  24  30  47  76 123 172 205 240 291 367
#     4  12  22  36  51  84 127 162 197 243 306 376
#     4  12  25  45  66  92 124 165 212 264 316 379
#     4  10  21  37  56  84 121 168 217 263 315 373
#
# _framework density 18.275427000000001
#
# number of rings (size 3 to 8) (size 9 to 14) (size 15 to 20)
#    0.000    0.615    6.154    3.231    2.154    1.231 
#    0.000    0.000    0.000    0.000    0.000   10.769 
#    0.000    0.000    0.000    0.000    0.000    0.000 
#
# Total GULP energy -289503.090067 kJ/mol
# GULP energy per Si atom -5567.367117 kJ/mol
# Density = 1.823383 g / cm^3
# Si number density = 18.275427 Si / 1000 Ang^3
#
#
#
# Elastic Constant Matrix: (Units=GPa)
#
#
# Indices 1 2 3 4 5 6 
#
# 1 57.4090 33.7630 24.1645 0.0000 0.0000 0.0000
# 2 33.7630 113.1254 40.7650 0.0000 0.0000 0.0000
# 3 24.1645 40.7650 110.8784 0.0000 0.0000 0.0000
# 4 0.0000 0.0000 0.0000 35.9198 0.0000 0.0000
# 5 0.0000 0.0000 0.0000 0.0000 26.7355 0.0000
# 6 0.0000 0.0000 0.0000 0.0000 0.0000 7.1914
#
#
#
# Elastic Compliance Matrix: (Units=1/GPa)
#
#
# Indices 1 2 3 4 5 6 
#
# 1 0.021817 -0.005531 -0.002721 0.000000 0.000000 0.000000
# 2 -0.005531 0.011592 -0.003056 0.000000 0.000000 0.000000
# 3 -0.002721 -0.003056 0.010736 0.000000 0.000000 0.000000
# 4 0.000000 0.000000 0.000000 0.027840 0.000000 0.000000
# 5 0.000000 0.000000 0.000000 0.000000 0.037404 0.000000
# 6 0.000000 0.000000 0.000000 0.000000 0.000000 0.139055
#
#
# Mechanical properties :
#
#
# Convention : Reuss Voigt Hill
#
# Bulk Modulus (GPa) = 46.45228 53.19975 49.82601
# Shear Modulus (GPa) = 17.97036 26.15069 22.06052
#
# Velocity S-wave (km/s) = 3.13917 3.78686 3.47812
# Velocity P-wave (km/s) = 6.21388 6.94936 6.59188
#
# Compressibility (1/GPa) = 0.02152747
#
# Stress axis : x y z
#
# Youngs Moduli (GPa) = 45.83570 86.26754 93.14736
#
# Poissons Ratio (x) = 0.47713 0.25348
# Poissons Ratio (y) = 0.25351 0.28470
# Poissons Ratio (z) = 0.12473 0.26367
#
# Static dielectric constant tensor:
#      x y z
#    x 1.714370 0.000000 0.000000 
#    y 0.000000 1.600580 0.000000 
#    z 0.000000 0.000000 1.636680 
# 
# From -- ./inp_files/10615.got.cif
#   From: 2010.05.17/outbox.cif.g08.bks.cpg/sg64_6_cif.got.tgz:10615.got - 2010.06.03 16:29:19.
