data_PCOD9479410
_publ_section_title
;
Structure prediction by ZEFSAII (Michael W. Deem and Ramdas Pophale) SiO2 
 PCOD9479410
Probable space group: C M C A
;
_chemical_formula_sum "Si O2"
_cell_formula_units_Z 112
_cell_length_a 15.020377
_cell_length_b 14.472827
_cell_length_c 23.851984
_cell_angle_alpha 90.000000
_cell_angle_beta 90.000000
_cell_angle_gamma 90.000000
_cell_volume 5185.118826
_symmetry_space_group_name_H-M "C M C A"
_symmetry_group_IT_number 64
_symmetry_cell_setting 'orthorhombic'
loop_
_space_group_symop_operation_xyz
x,y,z
-x,1/2-y,1/2+z
x,-y,-z
-x,1/2+y,1/2-z
-x,-y,-z
x,1/2+y,1/2-z
-x,y,z
x,1/2-y,1/2+z
1/2+x,1/2+y,z
1/2-x,-y,1/2+z
1/2+x,1/2-y,-z
1/2-x,y,1/2-z
1/2-x,1/2-y,-z
1/2+x,y,1/2-z
1/2-x,1/2+y,z
1/2+x,-y,1/2+z
loop_
_atom_site_type_symbol
_atom_site_label
_atom_site_fract_x
_atom_site_fract_y
_atom_site_fract_z
Si Si1 0.398254 0.183019 0.147940
Si Si2 0.224246 0.763947 0.914706
Si Si3 0.898199 0.556075 0.613803
Si Si4 0.729527 0.901275 0.483085
Si Si5 0.840763 0.158444 0.778050
Si Si6 0.897694 0.639832 0.332298
Si Si7 0.606531 0.971527 0.775373
O O1 0.500000 0.179077 0.127874
O O2 0.326798 0.221506 0.104307
O O3 0.395010 0.251759 0.202099
O O4 0.366452 0.081642 0.168442
O O5 0.212027 0.664281 0.942801
O O6 0.163418 0.783715 0.860910
O O7 0.207927 0.839607 0.962952
O O8 0.857801 0.576846 0.553722
O O9 0.838872 0.601527 0.663169
O O10 0.900275 0.447289 0.625377
O O11 0.000000 0.590369 0.620936
O O12 0.769458 0.000000 0.500000
O O13 0.750000 0.190685 0.750000
O O14 0.873711 0.078621 0.735444
O O15 0.859736 0.590862 0.276528
O O16 0.000000 0.671043 0.323680
O O17 0.500000 0.963220 0.772481
#
# Coordination Sequence:
#
# PCOD9479410 Si02
#       7
#    16  16  16  16  16  16  16
#     4  11  24  42  63  90 129 172 220 263 311 388
#     4  11  24  38  65  91 124 170 211 265 332 383
#     4  10  20  39  65  93 127 165 207 263 326 376
#     4  11  23  40  59  94 125 160 213 275 320 384
#     4  11  23  35  61  96 127 165 202 254 316 377
#     4   9  19  37  62  95 128 159 206 262 317 382
#     4   9  21  38  60  90 126 165 203 250 309 381
#
# _framework density 21.600275
#
# number of rings (size 3 to 8) (size 9 to 14) (size 15 to 20)
#    0.000    1.714    2.857    2.143    6.000    0.857 
#    0.000    2.143    0.000    1.714    0.000    0.000 
#    0.000    0.000    0.000    0.000    0.000    0.000 
#
# Total GULP energy -312453.398444 kJ/mol
# GULP energy per Si atom -5579.524972 kJ/mol
# Density = 2.155111 g / cm^3
# Si number density = 21.600275 Si / 1000 Ang^3
#
#
#
# Elastic Constant Matrix: (Units=GPa)
#
#
# Indices 1 2 3 4 5 6 
#
# 1 64.0830 -5.3383 29.8842 0.0000 0.0000 0.0000
# 2 -5.3383 91.2550 26.8883 0.0000 0.0000 0.0000
# 3 29.8842 26.8883 51.1080 0.0000 0.0000 0.0000
# 4 0.0000 0.0000 0.0000 50.6390 0.0000 0.0000
# 5 0.0000 0.0000 0.0000 0.0000 24.0799 0.0000
# 6 0.0000 0.0000 0.0000 0.0000 0.0000 22.3556
#
#
#
# Elastic Compliance Matrix: (Units=1/GPa)
#
#
# Indices 1 2 3 4 5 6 
#
# 1 0.024476 0.006685 -0.017829 0.000000 0.000000 0.000000
# 2 0.006685 0.014795 -0.011692 0.000000 0.000000 0.000000
# 3 -0.017829 -0.011692 0.036143 0.000000 0.000000 0.000000
# 4 0.000000 0.000000 0.000000 0.019748 0.000000 0.000000
# 5 0.000000 0.000000 0.000000 0.000000 0.041528 0.000000
# 6 0.000000 0.000000 0.000000 0.000000 0.000000 0.044732
#
#
# Mechanical properties :
#
#
# Convention : Reuss Voigt Hill
#
# Bulk Modulus (GPa) = 33.62367 34.36826 33.99596
# Shear Modulus (GPa) = 21.09644 29.74902 25.42273
#
# Velocity S-wave (km/s) = 3.12857 3.71516 3.43441
# Velocity P-wave (km/s) = 5.35264 5.86078 5.61246
#
# Compressibility (1/GPa) = 0.02974096
#
# Stress axis : x y z
#
# Youngs Moduli (GPa) = 40.85662 67.59240 27.66799
#
# Poissons Ratio (x) = -0.45186 0.49329
# Poissons Ratio (y) = -0.27313 0.32351
# Poissons Ratio (z) = 0.72842 0.79032
#
# Static dielectric constant tensor:
#      x y z
#    x 1.785470 0.000000 0.000000 
#    y 0.000000 1.858440 0.000000 
#    z 0.000000 0.000000 1.796060 
# 
# From -- ./inp_files/45221.got.cif
#   From: 2010.05.17/outbox.cif.g08.bks.cpg/sg64_23_cif.got.tgz:45221.got - 2010.06.03 16:29:19.
