data_PCOD9479901
_publ_section_title
;
Structure prediction by ZEFSAII (Michael W. Deem and Ramdas Pophale) SiO2 
 PCOD9479901
Probable space group: C M C A
;
_chemical_formula_sum "Si O2"
_cell_formula_units_Z 96
_cell_length_a 13.334535
_cell_length_b 19.302594
_cell_length_c 16.604100
_cell_angle_alpha 90.000000
_cell_angle_beta 90.000000
_cell_angle_gamma 90.000000
_cell_volume 4273.747817
_symmetry_space_group_name_H-M "C M C A"
_symmetry_group_IT_number 64
_symmetry_cell_setting 'orthorhombic'
loop_
_space_group_symop_operation_xyz
x,y,z
-x,1/2-y,1/2+z
x,-y,-z
-x,1/2+y,1/2-z
-x,-y,-z
x,1/2+y,1/2-z
-x,y,z
x,1/2-y,1/2+z
1/2+x,1/2+y,z
1/2-x,-y,1/2+z
1/2+x,1/2-y,-z
1/2-x,y,1/2-z
1/2-x,1/2-y,-z
1/2+x,y,1/2-z
1/2-x,1/2+y,z
1/2+x,-y,1/2+z
loop_
_atom_site_type_symbol
_atom_site_label
_atom_site_fract_x
_atom_site_fract_y
_atom_site_fract_z
Si Si1 0.384146 0.779944 0.365471
Si Si2 0.613681 0.073684 0.384327
Si Si3 0.199882 0.574884 0.991626
Si Si4 0.379613 0.782925 0.700951
Si Si5 0.317248 0.929349 0.328449
Si Si6 0.118674 0.277261 0.030915
O O1 0.500000 0.758786 0.373871
O O2 0.341645 0.735330 0.290649
O O3 0.378982 0.858788 0.335464
O O4 0.343483 0.771261 0.457056
O O5 0.500000 0.082213 0.418230
O O6 0.701943 0.075569 0.450482
O O7 0.632772 0.137080 0.323772
O O8 0.621036 0.999713 0.340671
O O9 0.137512 0.644819 0.999822
O O10 0.147374 0.500000 0.000000
O O11 0.240868 0.575184 0.901969
O O12 0.500000 0.770196 0.706224
O O13 0.344403 0.739034 0.622135
O O14 0.250000 0.931621 0.250000
O O15 0.000000 0.264809 0.038318
#
# Coordination Sequence:
#
# PCOD9479901 Si02
#       6
#    16  16  16  16  16  16
#     4  10  21  37  60  87 113 151 200 243 296 361
#     4  10  22  41  63  85 118 161 202 250 300 352
#     4  10  23  39  58  87 117 152 201 245 295 361
#     4   9  19  36  58  86 116 149 195 245 295 354
#     4  11  23  37  56  86 121 154 196 246 301 358
#     4  10  21  39  61  86 119 156 196 246 302 360
#
# _framework density 22.462720999999998
#
# number of rings (size 3 to 8) (size 9 to 14) (size 15 to 20)
#    0.000    2.000    0.000    2.500    0.000   12.000 
#    0.000    0.833    0.000    1.000    0.000    0.000 
#    0.000    0.000    0.000    0.000    0.000    0.000 
#
# Total GULP energy -268105.190087 kJ/mol
# GULP energy per Si atom -5585.524793 kJ/mol
# Density = 2.241159 g / cm^3
# Si number density = 22.462721 Si / 1000 Ang^3
#
#
#
# Elastic Constant Matrix: (Units=GPa)
#
#
# Indices 1 2 3 4 5 6 
#
# 1 37.9917 -7.5598 34.3774 0.0000 0.0000 0.0000
# 2 -7.5598 130.0248 38.5784 0.0000 0.0000 0.0000
# 3 34.3774 38.5784 164.8107 0.0000 0.0000 0.0000
# 4 0.0000 0.0000 0.0000 30.8372 0.0000 0.0000
# 5 0.0000 0.0000 0.0000 0.0000 27.3431 0.0000
# 6 0.0000 0.0000 0.0000 0.0000 0.0000 30.1049
#
#
#
# Elastic Compliance Matrix: (Units=1/GPa)
#
#
# Indices 1 2 3 4 5 6 
#
# 1 0.034713 0.004477 -0.008289 0.000000 0.000000 0.000000
# 2 0.004477 0.008842 -0.003004 0.000000 0.000000 0.000000
# 3 -0.008289 -0.003004 0.008500 0.000000 0.000000 0.000000
# 4 0.000000 0.000000 0.000000 0.032428 0.000000 0.000000
# 5 0.000000 0.000000 0.000000 0.000000 0.036572 0.000000
# 6 0.000000 0.000000 0.000000 0.000000 0.000000 0.033217
#
#
# Mechanical properties :
#
#
# Convention : Reuss Voigt Hill
#
# Bulk Modulus (GPa) = 26.02492 51.51324 38.76908
# Shear Modulus (GPa) = 27.66853 35.48577 31.57715
#
# Velocity S-wave (km/s) = 3.51344 3.97893 3.75341
# Velocity P-wave (km/s) = 5.29811 6.64016 6.00674
#
# Compressibility (1/GPa) = 0.03842471
#
# Stress axis : x y z
#
# Youngs Moduli (GPa) = 28.80795 113.09175 117.65270
#
# Poissons Ratio (x) = -0.50637 0.97519
# Poissons Ratio (y) = -0.12899 0.35340
# Poissons Ratio (z) = 0.23878 0.33970
#
# Static dielectric constant tensor:
#      x y z
#    x 1.761070 0.000000 0.000000 
#    y 0.000000 1.873020 0.000000 
#    z 0.000000 0.000000 1.837160 
# 
# From -- ./inp_files/23919.got.cif
#   From: 2010.05.17/outbox.cif.g08.bks.cpg/sg64_12_cif.got.tgz:23919.got - 2010.06.03 16:29:19.
