data_PCOD9479981
_publ_section_title
;
Structure prediction by ZEFSAII (Michael W. Deem and Ramdas Pophale) SiO2 
 PCOD9479981
Probable space group: C M C A
;
_chemical_formula_sum "Si O2"
_cell_formula_units_Z 64
_cell_length_a 10.702299
_cell_length_b 33.559720
_cell_length_c 9.344381
_cell_angle_alpha 90.000000
_cell_angle_beta 90.000000
_cell_angle_gamma 90.000000
_cell_volume 3356.185421
_symmetry_space_group_name_H-M "C M C A"
_symmetry_group_IT_number 64
_symmetry_cell_setting 'orthorhombic'
loop_
_space_group_symop_operation_xyz
x,y,z
-x,1/2-y,1/2+z
x,-y,-z
-x,1/2+y,1/2-z
-x,-y,-z
x,1/2+y,1/2-z
-x,y,z
x,1/2-y,1/2+z
1/2+x,1/2+y,z
1/2-x,-y,1/2+z
1/2+x,1/2-y,-z
1/2-x,y,1/2-z
1/2-x,1/2-y,-z
1/2+x,y,1/2-z
1/2-x,1/2+y,z
1/2+x,-y,1/2+z
loop_
_atom_site_type_symbol
_atom_site_label
_atom_site_fract_x
_atom_site_fract_y
_atom_site_fract_z
Si Si1 0.359643 0.878465 0.636254
Si Si2 0.279811 0.185489 0.587982
Si Si3 0.358026 0.471625 0.863963
Si Si4 0.634999 0.226953 0.141763
O O1 0.500000 0.873479 0.696575
O O2 0.250000 0.870052 0.750000
O O3 0.342963 0.849235 0.502439
O O4 0.346773 0.924952 0.594690
O O5 0.250000 0.173627 0.750000
O O6 0.357344 0.226710 0.596723
O O7 0.159143 0.199877 0.496999
O O8 0.500000 0.477043 0.806600
O O9 0.250000 0.480148 0.750000
O O10 0.344421 0.500000 0.000000
O O11 0.500000 0.218931 0.207550
O O12 0.750000 0.220764 0.250000
#
# Coordination Sequence:
#
# PCOD9479981 Si02
#       4
#    16  16  16  16
#     4  10  21  38  58  80 110 146 181 219 266 321
#     4  10  22  35  54  81 109 139 181 229 273 318
#     4   9  19  36  58  84 112 143 179 218 264 319
#     4  10  22  39  57  77 105 143 184 226 274 326
#
# _framework density 19.069268999999998
#
# number of rings (size 3 to 8) (size 9 to 14) (size 15 to 20)
#    0.000    2.250    0.000    1.500    0.000   16.500 
#    0.000    0.000    0.000    0.000    0.000    0.000 
#    0.000    0.000    0.000    0.000    0.000    0.000 
#
# Total GULP energy -178605.183239 kJ/mol
# GULP energy per Si atom -5581.411976 kJ/mol
# Density = 1.902587 g / cm^3
# Si number density = 19.069269 Si / 1000 Ang^3
#
#
#
# Elastic Constant Matrix: (Units=GPa)
#
#
# Indices 1 2 3 4 5 6 
#
# 1 174.2039 55.4158 76.6994 0.0000 0.0000 0.0000
# 2 55.4158 98.9548 54.3737 0.0000 0.0000 0.0000
# 3 76.6994 54.3737 113.7064 0.0000 0.0000 0.0000
# 4 0.0000 0.0000 0.0000 33.8485 0.0000 0.0000
# 5 0.0000 0.0000 0.0000 0.0000 25.1807 0.0000
# 6 0.0000 0.0000 0.0000 0.0000 0.0000 2385.2797
#
#
#
# Elastic Compliance Matrix: (Units=1/GPa)
#
#
# Indices 1 2 3 4 5 6 
#
# 1 0.008500 -0.002183 -0.004689 0.000000 0.000000 0.000000
# 2 -0.002183 0.014268 -0.005350 0.000000 0.000000 0.000000
# 3 -0.004689 -0.005350 0.014516 0.000000 0.000000 0.000000
# 4 0.000000 0.000000 0.000000 0.029543 0.000000 0.000000
# 5 0.000000 0.000000 0.000000 0.000000 0.039713 0.000000
# 6 0.000000 0.000000 0.000000 0.000000 0.000000 0.000419
#
#
# Mechanical properties :
#
#
# Convention : Reuss Voigt Hill
#
# Bulk Modulus (GPa) = 77.89190 84.42700 81.15945
# Shear Modulus (GPa) = 36.85028 502.22019 269.53524
#
# Velocity S-wave (km/s) = 4.40073 16.24617 11.90177
# Velocity P-wave (km/s) = 8.17052 19.90697 15.21586
#
# Compressibility (1/GPa) = 0.01283831
#
# Stress axis : x y z
#
# Youngs Moduli (GPa) = 117.65397 70.08647 68.88872
#
# Poissons Ratio (x) = 0.15301 0.32304
# Poissons Ratio (y) = 0.25686 0.36858
# Poissons Ratio (z) = 0.55171 0.37498
#
# Static dielectric constant tensor:
#      x y z
#    x 1.695530 0.000000 0.000000 
#    y 0.000000 1.666590 0.000000 
#    z 0.000000 0.000000 1.652080 
# 
# From -- ./inp_files/4602.got.cif
#   From: 2010.05.17/outbox.cif.g08.bks.cpg/sg64_3_cif.got.tgz:4602.got - 2010.06.03 16:29:19.
