data_PCOD9479233
_publ_section_title
;
Structure prediction by ZEFSAII (Michael W. Deem and Ramdas Pophale) SiO2 
 PCOD9479233
Probable space group: C M C A
;
_chemical_formula_sum "Si O2"
_cell_formula_units_Z 116
_cell_length_a 9.338166
_cell_length_b 22.033117
_cell_length_c 23.645168
_cell_angle_alpha 90.000000
_cell_angle_beta 90.000000
_cell_angle_gamma 90.000000
_cell_volume 4864.967402
_symmetry_space_group_name_H-M "C M C A"
_symmetry_group_IT_number 64
_symmetry_cell_setting 'orthorhombic'
loop_
_space_group_symop_operation_xyz
x,y,z
-x,1/2-y,1/2+z
x,-y,-z
-x,1/2+y,1/2-z
-x,-y,-z
x,1/2+y,1/2-z
-x,y,z
x,1/2-y,1/2+z
1/2+x,1/2+y,z
1/2-x,-y,1/2+z
1/2+x,1/2-y,-z
1/2-x,y,1/2-z
1/2-x,1/2-y,-z
1/2+x,y,1/2-z
1/2-x,1/2+y,z
1/2+x,-y,1/2+z
loop_
_atom_site_type_symbol
_atom_site_label
_atom_site_fract_x
_atom_site_fract_y
_atom_site_fract_z
Si Si1 0.159775 0.777948 0.301149
Si Si2 0.775625 0.533655 0.424382
Si Si3 0.170959 0.208848 0.380657
Si Si4 0.655840 0.579899 0.699806
Si Si5 0.000000 0.000000 0.500000
Si Si6 0.339395 0.160991 0.479236
Si Si7 0.656386 0.403595 0.091613
Si Si8 0.824252 0.598824 0.311555
O O1 0.250000 0.749647 0.250000
O O2 0.259381 0.769564 0.355486
O O3 0.140407 0.848346 0.286726
O O4 0.000000 0.752106 0.308296
O O5 0.624207 0.525131 0.455608
O O6 0.842096 0.595154 0.448996
O O7 0.852414 0.470253 0.436098
O O8 0.781582 0.545801 0.356375
O O9 0.222646 0.198554 0.444688
O O10 0.252382 0.157660 0.342629
O O11 0.000000 0.206191 0.375030
O O12 0.500000 0.551029 0.697622
O O13 0.750000 0.552957 0.750000
O O14 0.727908 0.584772 0.639207
O O15 0.500000 0.187336 0.475634
O O16 0.304519 0.144551 0.543625
O O17 0.500000 0.387834 0.115745
O O18 0.750000 0.592771 0.250000
O O19 0.000000 0.601968 0.308049
#
# Coordination Sequence:
#
# PCOD9479233 Si02
#       8
#    16  16  16  16   4  16  16  16
#     4  10  20  38  61  85 113 148 190 236 288 347
#     4  11  23  38  61  87 122 156 205 247 292 346
#     4  11  22  35  59  88 119 152 192 236 288 351
#     4  10  23  41  63  87 115 149 192 242 292 349
#     4  12  24  36  62  96 116 164 202 266 284 356
#     4  10  21  38  59  86 119 155 194 240 286 342
#     4  11  22  38  61  86 115 152 195 242 292 342
#     4  11  24  40  58  85 124 162 197 244 300 360
#
# _framework density 23.843941999999998
#
# number of rings (size 3 to 8) (size 9 to 14) (size 15 to 20)
#    0.000    1.379    1.379    4.966    5.793    3.862 
#    0.000    2.069    0.000    0.000    0.000    0.000 
#    0.000    0.000    0.000    0.000    0.000    0.000 
#
# Total GULP energy -323440.631107 kJ/mol
# GULP energy per Si atom -5576.562605 kJ/mol
# Density = 2.378967 g / cm^3
# Si number density = 23.843942 Si / 1000 Ang^3
#
#
#
# Elastic Constant Matrix: (Units=GPa)
#
#
# Indices 1 2 3 4 5 6 
#
# 1 224.2755 4.6749 80.6230 0.0000 0.0000 0.0000
# 2 4.6749 32.4113 0.9119 0.0000 0.0000 0.0000
# 3 80.6230 0.9119 127.8717 0.0000 0.0000 0.0000
# 4 0.0000 0.0000 0.0000 33.6478 0.0000 0.0000
# 5 0.0000 0.0000 0.0000 0.0000 38.8397 0.0000
# 6 0.0000 0.0000 0.0000 0.0000 0.0000 76.1077
#
#
#
# Elastic Compliance Matrix: (Units=1/GPa)
#
#
# Indices 1 2 3 4 5 6 
#
# 1 0.005783 -0.000732 -0.003641 0.000000 0.000000 0.000000
# 2 -0.000732 0.030952 0.000241 0.000000 0.000000 0.000000
# 3 -0.003641 0.000241 0.010114 0.000000 0.000000 0.000000
# 4 0.000000 0.000000 0.000000 0.029720 0.000000 0.000000
# 5 0.000000 0.000000 0.000000 0.000000 0.025747 0.000000
# 6 0.000000 0.000000 0.000000 0.000000 0.000000 0.013139
#
#
# Mechanical properties :
#
#
# Convention : Reuss Voigt Hill
#
# Bulk Modulus (GPa) = 25.91660 61.88645 43.90153
# Shear Modulus (GPa) = 36.60838 49.60895 43.10866
#
# Velocity S-wave (km/s) = 3.92258 4.56627 4.25661
# Velocity P-wave (km/s) = 5.60432 7.33568 6.52766
#
# Compressibility (1/GPa) = 0.03858531
#
# Stress axis : x y z
#
# Youngs Moduli (GPa) = 172.92403 32.30790 98.87090
#
# Poissons Ratio (x) = 0.02364 0.35998
# Poissons Ratio (y) = 0.12652 -0.02379
# Poissons Ratio (z) = 0.62960 -0.00777
#
# Static dielectric constant tensor:
#      x y z
#    x 1.901650 0.000000 0.000000 
#    y 0.000000 2.023790 0.000000 
#    z 0.000000 0.000000 1.956360 
# 
# From -- ./inp_files/43361.got.cif
#   From: 2010.05.17/outbox.cif.g08.bks.cpg/sg64_22_cif.got.tgz:43361.got - 2010.06.03 16:29:19.
