data_PCOD9479694
_publ_section_title
;
Structure prediction by ZEFSAII (Michael W. Deem and Ramdas Pophale) SiO2 
 PCOD9479694
Probable space group: C M C A
;
_chemical_formula_sum "Si O2"
_cell_formula_units_Z 112
_cell_length_a 14.295176
_cell_length_b 13.838871
_cell_length_c 24.877219
_cell_angle_alpha 90.000000
_cell_angle_beta 90.000000
_cell_angle_gamma 90.000000
_cell_volume 4921.437760
_symmetry_space_group_name_H-M "C M C A"
_symmetry_group_IT_number 64
_symmetry_cell_setting 'orthorhombic'
loop_
_space_group_symop_operation_xyz
x,y,z
-x,1/2-y,1/2+z
x,-y,-z
-x,1/2+y,1/2-z
-x,-y,-z
x,1/2+y,1/2-z
-x,y,z
x,1/2-y,1/2+z
1/2+x,1/2+y,z
1/2-x,-y,1/2+z
1/2+x,1/2-y,-z
1/2-x,y,1/2-z
1/2-x,1/2-y,-z
1/2+x,y,1/2-z
1/2-x,1/2+y,z
1/2+x,-y,1/2+z
loop_
_atom_site_type_symbol
_atom_site_label
_atom_site_fract_x
_atom_site_fract_y
_atom_site_fract_z
Si Si1 0.855267 0.645477 0.268229
Si Si2 0.741768 0.404242 0.970842
Si Si3 0.308347 0.191083 0.841698
Si Si4 0.399260 0.065972 0.107789
Si Si5 0.599529 0.541828 0.722066
Si Si6 0.387048 0.284290 0.455270
Si Si7 0.598556 0.234373 0.662432
O O1 0.750000 0.628774 0.250000
O O2 0.846386 0.704291 0.322814
O O3 0.894791 0.537597 0.268305
O O4 0.897515 0.711766 0.220594
O O5 0.801180 0.447758 0.921208
O O6 0.664128 0.321810 0.958457
O O7 0.702915 0.500000 0.000000
O O8 0.825744 0.350855 0.004345
O O9 0.364733 0.171435 0.896098
O O10 0.197269 0.185289 0.848825
O O11 0.327271 0.123405 0.790576
O O12 0.500000 0.036434 0.082229
O O13 0.397229 0.019515 0.166859
O O14 0.403621 0.180229 0.118820
O O15 0.500000 0.592389 0.724956
O O16 0.500000 0.281578 0.464541
O O17 0.500000 0.179644 0.658733
#
# Coordination Sequence:
#
# PCOD9479694 Si02
#       7
#    16  16  16  16  16  16  16
#     4   9  20  36  58  86 121 161 196 250 312 370
#     4  11  23  41  66  94 128 171 212 270 324 388
#     4  11  21  39  62  91 128 168 204 263 318 370
#     4   9  17  35  62  88 118 156 203 264 315 363
#     4  10  21  35  59  91 119 158 211 256 307 374
#     4  11  25  42  64  99 130 167 219 268 328 391
#     4   9  18  35  60  87 117 160 207 248 309 370
#
# _framework density 22.757579
#
# number of rings (size 3 to 8) (size 9 to 14) (size 15 to 20)
#    0.000    2.000    1.429    3.000    0.000    6.571 
#    0.000    0.000    0.000    6.000    0.000    0.000 
#    0.000    0.000    0.000    0.000    0.000    0.000 
#
# Total GULP energy -312191.740023 kJ/mol
# GULP energy per Si atom -5574.852500 kJ/mol
# Density = 2.270578 g / cm^3
# Si number density = 22.757579 Si / 1000 Ang^3
#
#
#
# Elastic Constant Matrix: (Units=GPa)
#
#
# Indices 1 2 3 4 5 6 
#
# 1 147.3906 27.9558 11.9064 0.0000 0.0000 0.0000
# 2 27.9558 77.7214 7.6090 0.0000 0.0000 0.0000
# 3 11.9064 7.6090 45.9351 0.0000 0.0000 0.0000
# 4 0.0000 0.0000 0.0000 33.6876 0.0000 0.0000
# 5 0.0000 0.0000 0.0000 0.0000 23.3837 0.0000
# 6 0.0000 0.0000 0.0000 0.0000 0.0000 16.1835
#
#
#
# Elastic Compliance Matrix: (Units=1/GPa)
#
#
# Indices 1 2 3 4 5 6 
#
# 1 0.007381 -0.002508 -0.001498 0.000000 0.000000 0.000000
# 2 -0.002508 0.013931 -0.001657 0.000000 0.000000 0.000000
# 3 -0.001498 -0.001657 0.022433 0.000000 0.000000 0.000000
# 4 0.000000 0.000000 0.000000 0.029685 0.000000 0.000000
# 5 0.000000 0.000000 0.000000 0.000000 0.042765 0.000000
# 6 0.000000 0.000000 0.000000 0.000000 0.000000 0.061792
#
#
# Mechanical properties :
#
#
# Convention : Reuss Voigt Hill
#
# Bulk Modulus (GPa) = 30.84721 40.66547 35.75634
# Shear Modulus (GPa) = 24.98512 29.55601 27.27056
#
# Velocity S-wave (km/s) = 3.31702 3.60770 3.46541
# Velocity P-wave (km/s) = 5.31548 5.93816 5.63543
#
# Compressibility (1/GPa) = 0.03241784
#
# Stress axis : x y z
#
# Youngs Moduli (GPa) = 135.47456 71.78236 44.57791
#
# Poissons Ratio (x) = 0.18006 0.06677
# Poissons Ratio (y) = 0.33983 0.07389
# Poissons Ratio (z) = 0.20291 0.11898
#
# Static dielectric constant tensor:
#      x y z
#    x 1.865860 0.000000 0.000000 
#    y 0.000000 1.936260 0.000000 
#    z 0.000000 0.000000 1.883770 
# 
# From -- ./inp_files/45276.got.cif
#   From: 2010.05.17/outbox.cif.g08.bks.cpg/sg64_23_cif.got.tgz:45276.got - 2010.06.03 16:29:19.
