data_PCOD9479711
_publ_section_title
;
Structure prediction by ZEFSAII (Michael W. Deem and Ramdas Pophale) SiO2 
 PCOD9479711
Probable space group: C M C A
;
_chemical_formula_sum "Si O2"
_cell_formula_units_Z 64
_cell_length_a 19.598522
_cell_length_b 29.900756
_cell_length_c 5.227835
_cell_angle_alpha 90.000000
_cell_angle_beta 90.000000
_cell_angle_gamma 90.000000
_cell_volume 3063.566852
_symmetry_space_group_name_H-M "C M C A"
_symmetry_group_IT_number 64
_symmetry_cell_setting 'orthorhombic'
loop_
_space_group_symop_operation_xyz
x,y,z
-x,1/2-y,1/2+z
x,-y,-z
-x,1/2+y,1/2-z
-x,-y,-z
x,1/2+y,1/2-z
-x,y,z
x,1/2-y,1/2+z
1/2+x,1/2+y,z
1/2-x,-y,1/2+z
1/2+x,1/2-y,-z
1/2-x,y,1/2-z
1/2-x,1/2-y,-z
1/2+x,y,1/2-z
1/2-x,1/2+y,z
1/2+x,-y,1/2+z
loop_
_atom_site_type_symbol
_atom_site_label
_atom_site_fract_x
_atom_site_fract_y
_atom_site_fract_z
Si Si1 0.076481 0.115092 0.336401
Si Si2 0.831036 0.529376 0.247631
Si Si3 0.719238 0.299654 0.006019
Si Si4 0.576227 0.824439 0.333628
O O1 0.128395 0.075121 0.291153
O O2 0.092316 0.149851 0.567666
O O3 0.000000 0.097904 0.396423
O O4 0.073245 0.140708 0.067081
O O5 0.847995 0.500000 0.500000
O O6 0.750000 0.538403 0.250000
O O7 0.846438 0.500000 0.000000
O O8 0.750000 0.321351 0.750000
O O9 0.750000 0.324791 0.250000
O O10 0.750000 0.250000 0.000000
O O11 0.639298 0.294555 0.069352
O O12 0.500000 0.803860 0.308069
#
# Coordination Sequence:
#
# PCOD9479711 Si02
#       4
#    16  16  16  16
#     4  10  21  36  57  84 111 148 195 237 285 343
#     4  10  21  36  53  78 113 150 190 236 289 345
#     4  10  21  38  58  85 115 146 189 237 287 351
#     4  10  21  38  58  83 116 150 190 240 291 343
#
# _framework density 20.890684
#
# number of rings (size 3 to 8) (size 9 to 14) (size 15 to 20)
#    0.000    2.000    0.000    3.000    0.000    4.000 
#    0.000    5.000    0.000    0.000    0.000    0.000 
#    0.000    0.000    0.000    0.000    0.000    0.000 
#
# Total GULP energy -178357.092476 kJ/mol
# GULP energy per Si atom -5573.659140 kJ/mol
# Density = 2.084314 g / cm^3
# Si number density = 20.890684 Si / 1000 Ang^3
#
#
#
# Elastic Constant Matrix: (Units=GPa)
#
#
# Indices 1 2 3 4 5 6 
#
# 1 105.7371 35.2754 2.8324 0.0000 0.0000 0.0000
# 2 35.2754 37.5568 -1.0779 0.0000 0.0000 0.0000
# 3 2.8324 -1.0779 148.1936 0.0000 0.0000 0.0000
# 4 0.0000 0.0000 0.0000 13.6560 0.0000 0.0000
# 5 0.0000 0.0000 0.0000 0.0000 11.2861 0.0000
# 6 0.0000 0.0000 0.0000 0.0000 0.0000 -1.4580
#
#
#
# Elastic Compliance Matrix: (Units=1/GPa)
#
#
# Indices 1 2 3 4 5 6 
#
# 1 0.013792 -0.012965 -0.000358 0.000000 0.000000 0.000000
# 2 -0.012965 0.038819 0.000530 0.000000 0.000000 0.000000
# 3 -0.000358 0.000530 0.006759 0.000000 0.000000 0.000000
# 4 0.000000 0.000000 0.000000 0.073228 0.000000 0.000000
# 5 0.000000 0.000000 0.000000 0.000000 0.088605 0.000000
# 6 0.000000 0.000000 0.000000 0.000000 0.000000 -0.685865
#
#
# Mechanical properties :
#
#
# Convention : Reuss Voigt Hill
#
# Bulk Modulus (GPa) = 29.59926 40.61637 35.10782
# Shear Modulus (GPa) = -11.68727 21.66065 4.98669
#
# Velocity S-wave (km/s) = -2.36783 3.22352 1.54668
# Velocity P-wave (km/s) = 2.59305 5.77402 4.47567
#
# Compressibility (1/GPa) = 0.03378463
#
# Stress axis : x y z
#
# Youngs Moduli (GPa) = 72.50484 25.76086 147.95907
#
# Poissons Ratio (x) = 0.33398 0.05296
# Poissons Ratio (y) = 0.94000 -0.07844
# Poissons Ratio (z) = 0.02595 -0.01366
#
# Static dielectric constant tensor:
#      x y z
#    x 1.878810 0.000000 0.000000 
#    y 0.000000 1.685740 0.000000 
#    z 0.000000 0.000000 1.889820 
# 
# From -- ./inp_files/1337.got.cif
#   From: 2010.05.17/outbox.cif.g08.bks.cpg/sg64_1_cif.got.tgz:1337.got - 2010.06.03 16:29:19.
