data_PCOD9480286
_publ_section_title
;
Structure prediction by ZEFSAII (Michael W. Deem and Ramdas Pophale) SiO2 
 PCOD9480286
Probable space group: C M C A
;
_chemical_formula_sum "Si O2"
_cell_formula_units_Z 104
_cell_length_a 21.388511
_cell_length_b 8.465233
_cell_length_c 25.100345
_cell_angle_alpha 90.000000
_cell_angle_beta 90.000000
_cell_angle_gamma 90.000000
_cell_volume 4544.636567
_symmetry_space_group_name_H-M "C M C A"
_symmetry_group_IT_number 64
_symmetry_cell_setting 'orthorhombic'
loop_
_space_group_symop_operation_xyz
x,y,z
-x,1/2-y,1/2+z
x,-y,-z
-x,1/2+y,1/2-z
-x,-y,-z
x,1/2+y,1/2-z
-x,y,z
x,1/2-y,1/2+z
1/2+x,1/2+y,z
1/2-x,-y,1/2+z
1/2+x,1/2-y,-z
1/2-x,y,1/2-z
1/2-x,1/2-y,-z
1/2+x,y,1/2-z
1/2-x,1/2+y,z
1/2+x,-y,1/2+z
loop_
_atom_site_type_symbol
_atom_site_label
_atom_site_fract_x
_atom_site_fract_y
_atom_site_fract_z
Si Si1 0.783939 0.393509 0.696270
Si Si2 0.188642 0.638963 0.539717
Si Si3 0.000000 0.673169 0.221961
Si Si4 0.413478 0.533063 0.797676
Si Si5 0.887276 0.861246 0.466405
Si Si6 0.432660 0.039779 0.417301
Si Si7 0.204037 0.391406 0.123557
O O1 0.750000 0.344193 0.750000
O O2 0.838762 0.520022 0.707126
O O3 0.812805 0.246671 0.664600
O O4 0.732715 0.468329 0.657358
O O5 0.210830 0.500000 0.500000
O O6 0.166436 0.786771 0.504786
O O7 0.125671 0.567343 0.565864
O O8 0.240423 0.667329 0.584177
O O9 0.946131 0.558406 0.249308
O O10 0.944917 0.795524 0.200625
O O11 0.429969 0.447773 0.853593
O O12 0.924967 0.709058 0.445882
O O13 0.853967 0.930692 0.414012
O O14 0.919159 0.000000 0.500000
O O15 0.500000 0.970470 0.432452
#
# Coordination Sequence:
#
# PCOD9480286 Si02
#       7
#    16  16   8  16  16  16  16
#     4  12  27  40  66  99 138 175 225 273 348 400
#     4  10  21  39  68  97 126 180 226 270 334 414
#     4  10  24  42  78  90 124 176 241 270 335 390
#     4  11  23  47  67 101 127 179 222 286 329 403
#     4  11  23  39  66 101 132 170 221 280 340 404
#     4  11  22  44  68  89 137 174 222 271 344 396
#     4  12  22  43  63  95 137 182 211 286 332 404
#
# _framework density 22.884118000000001
#
# number of rings (size 3 to 8) (size 9 to 14) (size 15 to 20)
#    0.000    0.923    4.615    3.231    4.308    3.077 
#    0.000    3.077    0.000    0.000    0.000    0.000 
#    0.000    0.000    0.000    0.000    0.000    0.000 
#
# Total GULP energy -289843.117245 kJ/mol
# GULP energy per Si atom -5573.906101 kJ/mol
# Density = 2.283203 g / cm^3
# Si number density = 22.884118 Si / 1000 Ang^3
#
#
#
# Elastic Constant Matrix: (Units=GPa)
#
#
# Indices 1 2 3 4 5 6 
#
# 1 90.4992 -11.8602 12.8117 0.0000 0.0000 0.0000
# 2 -11.8602 29.9601 2.8103 0.0000 0.0000 0.0000
# 3 12.8117 2.8103 54.3055 0.0000 0.0000 0.0000
# 4 0.0000 0.0000 0.0000 14.1378 0.0000 0.0000
# 5 0.0000 0.0000 0.0000 0.0000 8.2542 0.0000
# 6 0.0000 0.0000 0.0000 0.0000 0.0000 18.5576
#
#
#
# Elastic Compliance Matrix: (Units=1/GPa)
#
#
# Indices 1 2 3 4 5 6 
#
# 1 0.012163 0.005109 -0.003134 0.000000 0.000000 0.000000
# 2 0.005109 0.035686 -0.003052 0.000000 0.000000 0.000000
# 3 -0.003134 -0.003052 0.019312 0.000000 0.000000 0.000000
# 4 0.000000 0.000000 0.000000 0.070733 0.000000 0.000000
# 5 0.000000 0.000000 0.000000 0.000000 0.121150 0.000000
# 6 0.000000 0.000000 0.000000 0.000000 0.000000 0.053886
#
#
# Mechanical properties :
#
#
# Convention : Reuss Voigt Hill
#
# Bulk Modulus (GPa) = 15.38298 20.25428 17.81863
# Shear Modulus (GPa) = 14.84768 19.59011 17.21889
#
# Velocity S-wave (km/s) = 2.54996 2.92902 2.74604
# Velocity P-wave (km/s) = 3.92510 4.50654 4.22583
#
# Compressibility (1/GPa) = 0.06500690
#
# Stress axis : x y z
#
# Youngs Moduli (GPa) = 82.21652 28.02190 51.78226
#
# Poissons Ratio (x) = -0.14316 0.16228
# Poissons Ratio (y) = -0.42003 0.15804
# Poissons Ratio (z) = 0.25766 0.08552
#
# Static dielectric constant tensor:
#      x y z
#    x 1.871530 0.000000 0.000000 
#    y 0.000000 1.840900 0.000000 
#    z 0.000000 0.000000 1.859210 
# 
# From -- ./inp_files/50783.got.cif
#   From: 2010.05.17/outbox.cif.g08.bks.cpg/sg64_26_cif.got.tgz:50783.got - 2010.06.03 16:29:19.
