data_PCOD9480444
_publ_section_title
;
Structure prediction by ZEFSAII (Michael W. Deem and Ramdas Pophale) SiO2 
 PCOD9480444
Probable space group: C M C A
;
_chemical_formula_sum "Si O2"
_cell_formula_units_Z 112
_cell_length_a 13.461990
_cell_length_b 14.353783
_cell_length_c 23.144547
_cell_angle_alpha 90.000000
_cell_angle_beta 90.000000
_cell_angle_gamma 90.000000
_cell_volume 4472.232000
_symmetry_space_group_name_H-M "C M C A"
_symmetry_group_IT_number 64
_symmetry_cell_setting 'orthorhombic'
loop_
_space_group_symop_operation_xyz
x,y,z
-x,1/2-y,1/2+z
x,-y,-z
-x,1/2+y,1/2-z
-x,-y,-z
x,1/2+y,1/2-z
-x,y,z
x,1/2-y,1/2+z
1/2+x,1/2+y,z
1/2-x,-y,1/2+z
1/2+x,1/2-y,-z
1/2-x,y,1/2-z
1/2-x,1/2-y,-z
1/2+x,y,1/2-z
1/2-x,1/2+y,z
1/2+x,-y,1/2+z
loop_
_atom_site_type_symbol
_atom_site_label
_atom_site_fract_x
_atom_site_fract_y
_atom_site_fract_z
Si Si1 0.366576 0.818396 0.245217
Si Si2 0.388159 0.008051 0.674400
Si Si3 0.882543 0.700380 0.112362
Si Si4 0.609876 0.606211 0.277575
Si Si5 0.884658 0.593962 0.432798
Si Si6 0.187258 0.605761 0.998080
Si Si7 0.673298 0.710381 0.619936
O O1 0.250000 0.818052 0.250000
O O2 0.398461 0.714442 0.260155
O O3 0.379060 0.832977 0.176483
O O4 0.397173 0.894634 0.292092
O O5 0.500000 0.971831 0.665189
O O6 0.339245 0.943281 0.723329
O O7 0.349052 0.991054 0.609721
O O8 0.857502 0.614788 0.156288
O O9 0.865098 0.667021 0.047458
O O10 0.793096 0.772294 0.126338
O O11 0.000000 0.726197 0.119999
O O12 0.500000 0.562640 0.280693
O O13 0.804761 0.605742 0.484084
O O14 0.872117 0.687812 0.394283
O O15 0.000000 0.584495 0.451806
O O16 0.152616 0.500000 0.000000
O O17 0.163983 0.648636 0.936500
#
# Coordination Sequence:
#
# PCOD9480444 Si02
#       7
#    16  16  16  16  16  16  16
#     4  12  24  37  65  98 133 175 218 272 349 403
#     4  10  23  40  63  99 135 171 222 274 333 411
#     4  10  22  43  68  91 127 177 226 279 334 399
#     4  10  21  41  65  93 130 172 218 271 332 407
#     4  10  22  44  71  96 133 182 228 283 344 408
#     4  11  27  43  64  98 138 171 232 289 341 417
#     4  11  24  43  66  98 129 179 231 278 342 416
#
# _framework density 25.043424000000002
#
# number of rings (size 3 to 8) (size 9 to 14) (size 15 to 20)
#    0.000    1.429    2.857    2.143    4.000    5.143 
#    0.000    0.000    0.000    0.000    0.000    0.000 
#    0.000    0.000    0.000    0.000    0.000    0.000 
#
# Total GULP energy -312646.793231 kJ/mol
# GULP energy per Si atom -5582.978451 kJ/mol
# Density = 2.498642 g / cm^3
# Si number density = 25.043424 Si / 1000 Ang^3
#
#
#
# Elastic Constant Matrix: (Units=GPa)
#
#
# Indices 1 2 3 4 5 6 
#
# 1 113.0961 -0.6177 5.3980 0.0000 0.0000 0.0000
# 2 -0.6177 97.1487 27.6090 0.0000 0.0000 0.0000
# 3 5.3980 27.6090 141.4038 0.0000 0.0000 0.0000
# 4 0.0000 0.0000 0.0000 48.5495 0.0000 0.0000
# 5 0.0000 0.0000 0.0000 0.0000 12.2284 0.0000
# 6 0.0000 0.0000 0.0000 0.0000 0.0000 14.2065
#
#
#
# Elastic Compliance Matrix: (Units=1/GPa)
#
#
# Indices 1 2 3 4 5 6 
#
# 1 0.008861 0.000161 -0.000370 0.000000 0.000000 0.000000
# 2 0.000161 0.010901 -0.002135 0.000000 0.000000 0.000000
# 3 -0.000370 -0.002135 0.007503 0.000000 0.000000 0.000000
# 4 0.000000 0.000000 0.000000 0.020598 0.000000 0.000000
# 5 0.000000 0.000000 0.000000 0.000000 0.081777 0.000000
# 6 0.000000 0.000000 0.000000 0.000000 0.000000 0.070391
#
#
# Mechanical properties :
#
#
# Convention : Reuss Voigt Hill
#
# Bulk Modulus (GPa) = 44.28956 46.26968 45.27962
# Shear Modulus (GPa) = 23.55804 36.28081 29.91942
#
# Velocity S-wave (km/s) = 3.07039 3.81033 3.46020
# Velocity P-wave (km/s) = 5.50393 6.15419 5.83812
#
# Compressibility (1/GPa) = 0.02257869
#
# Stress axis : x y z
#
# Youngs Moduli (GPa) = 112.85955 91.73331 133.28283
#
# Poissons Ratio (x) = -0.01481 0.04928
# Poissons Ratio (y) = -0.01822 0.28451
# Poissons Ratio (z) = 0.04173 0.19581
#
# Static dielectric constant tensor:
#      x y z
#    x 1.990810 0.000000 0.000000 
#    y 0.000000 1.995980 0.000000 
#    z 0.000000 0.000000 2.045420 
# 
# From -- ./inp_files/45230.got.cif
#   From: 2010.05.17/outbox.cif.g08.bks.cpg/sg64_23_cif.got.tgz:45230.got - 2010.06.03 16:29:19.
