data_PCOD9480490
_publ_section_title
;
Structure prediction by ZEFSAII (Michael W. Deem and Ramdas Pophale) SiO2 
 PCOD9480490
Probable space group: C M C A
;
_chemical_formula_sum "Si O2"
_cell_formula_units_Z 96
_cell_length_a 14.984771
_cell_length_b 16.452641
_cell_length_c 18.891721
_cell_angle_alpha 90.000000
_cell_angle_beta 90.000000
_cell_angle_gamma 90.000000
_cell_volume 4657.547094
_symmetry_space_group_name_H-M "C M C A"
_symmetry_group_IT_number 64
_symmetry_cell_setting 'orthorhombic'
loop_
_space_group_symop_operation_xyz
x,y,z
-x,1/2-y,1/2+z
x,-y,-z
-x,1/2+y,1/2-z
-x,-y,-z
x,1/2+y,1/2-z
-x,y,z
x,1/2-y,1/2+z
1/2+x,1/2+y,z
1/2-x,-y,1/2+z
1/2+x,1/2-y,-z
1/2-x,y,1/2-z
1/2-x,1/2-y,-z
1/2+x,y,1/2-z
1/2-x,1/2+y,z
1/2+x,-y,1/2+z
loop_
_atom_site_type_symbol
_atom_site_label
_atom_site_fract_x
_atom_site_fract_y
_atom_site_fract_z
Si Si1 0.241624 0.925895 0.544144
Si Si2 0.898966 0.641116 0.931995
Si Si3 0.102434 0.926053 0.663428
Si Si4 0.606446 0.239811 0.235097
Si Si5 0.650036 0.416957 0.272471
Si Si6 0.102397 0.178019 0.111736
O O1 0.174648 0.882451 0.489142
O O2 0.174953 0.953857 0.606386
O O3 0.323672 0.877160 0.576060
O O4 0.280432 0.000000 0.500000
O O5 0.872423 0.614678 0.851987
O O6 0.903653 0.738240 0.931137
O O7 0.000000 0.609470 0.946070
O O8 0.129680 0.833107 0.681870
O O9 0.000000 0.924170 0.637633
O O10 0.104696 0.993296 0.726672
O O11 0.500000 0.239720 0.238900
O O12 0.629911 0.334947 0.226223
O O13 0.637069 0.205488 0.310895
O O14 0.750000 0.435341 0.250000
O O15 0.000000 0.145497 0.117596
#
# Coordination Sequence:
#
# PCOD9480490 Si02
#       6
#    16  16  16  16  16  16
#     4  12  24  36  64  94 125 162 212 255 312 374
#     4  10  21  42  65  89 124 167 207 253 314 374
#     4  11  24  40  63  93 129 165 211 268 309 368
#     4   9  21  41  64  88 118 166 207 255 320 368
#     4  11  23  36  63  92 124 160 205 254 318 371
#     4   9  21  41  64  86 122 168 207 254 316 374
#
# _framework density 20.611708
#
# number of rings (size 3 to 8) (size 9 to 14) (size 15 to 20)
#    0.000    1.667    1.667    3.500    7.000    1.000 
#    0.000    0.000    0.000    2.000    0.000    0.000 
#    0.000    0.000    0.000    0.000    0.000    0.000 
#
# Total GULP energy -267343.076479 kJ/mol
# GULP energy per Si atom -5569.647427 kJ/mol
# Density = 2.056479 g / cm^3
# Si number density = 20.611708 Si / 1000 Ang^3
#
#
#
# Elastic Constant Matrix: (Units=GPa)
#
#
# Indices 1 2 3 4 5 6 
#
# 1 87.1216 7.1488 0.9976 0.0000 0.0000 0.0000
# 2 7.1488 80.4233 0.1977 0.0000 0.0000 0.0000
# 3 0.9976 0.1977 5.2842 0.0000 0.0000 0.0000
# 4 0.0000 0.0000 0.0000 28.7268 0.0000 0.0000
# 5 0.0000 0.0000 0.0000 0.0000 -26.4540 0.0000
# 6 0.0000 0.0000 0.0000 0.0000 0.0000 33.9503
#
#
#
# Elastic Compliance Matrix: (Units=1/GPa)
#
#
# Indices 1 2 3 4 5 6 
#
# 1 0.011587 -0.001025 -0.002149 0.000000 0.000000 0.000000
# 2 -0.001025 0.012526 -0.000275 0.000000 0.000000 0.000000
# 3 -0.002149 -0.000275 0.189659 0.000000 0.000000 0.000000
# 4 0.000000 0.000000 0.000000 0.034811 0.000000 0.000000
# 5 0.000000 0.000000 0.000000 0.000000 -0.037801 0.000000
# 6 0.000000 0.000000 0.000000 0.000000 0.000000 0.029455
#
#
# Mechanical properties :
#
#
# Convention : Reuss Voigt Hill
#
# Bulk Modulus (GPa) = 4.83387 21.05749 12.94568
# Shear Modulus (GPa) = 15.81818 18.21029 17.01424
#
# Velocity S-wave (km/s) = 2.77327 2.97558 2.87621
# Velocity P-wave (km/s) = 3.55035 4.69510 4.16227
#
# Compressibility (1/GPa) = 0.20687345
#
# Stress axis : x y z
#
# Youngs Moduli (GPa) = 86.30441 79.83415 5.27262
#
# Poissons Ratio (x) = 0.08180 0.01133
# Poissons Ratio (y) = 0.08843 0.00145
# Poissons Ratio (z) = 0.18549 0.02198
#
# Static dielectric constant tensor:
#      x y z
#    x 1.723770 0.000000 0.000000 
#    y 0.000000 1.843420 0.000000 
#    z 0.000000 0.000000 1.762090 
# 
# From -- ./inp_files/39149.got.cif
#   From: 2010.05.17/outbox.cif.g08.bks.cpg/sg64_20_cif.got.tgz:39149.got - 2010.06.03 16:29:19.
