data_PCOD9480048
_publ_section_title
;
Structure prediction by ZEFSAII (Michael W. Deem and Ramdas Pophale) SiO2 
 PCOD9480048
Probable space group: C M C A
;
_chemical_formula_sum "Si O2"
_cell_formula_units_Z 116
_cell_length_a 22.970858
_cell_length_b 8.654371
_cell_length_c 25.864164
_cell_angle_alpha 90.000000
_cell_angle_beta 90.000000
_cell_angle_gamma 90.000000
_cell_volume 5141.752541
_symmetry_space_group_name_H-M "C M C A"
_symmetry_group_IT_number 64
_symmetry_cell_setting 'orthorhombic'
loop_
_space_group_symop_operation_xyz
x,y,z
-x,1/2-y,1/2+z
x,-y,-z
-x,1/2+y,1/2-z
-x,-y,-z
x,1/2+y,1/2-z
-x,y,z
x,1/2-y,1/2+z
1/2+x,1/2+y,z
1/2-x,-y,1/2+z
1/2+x,1/2-y,-z
1/2-x,y,1/2-z
1/2-x,1/2-y,-z
1/2+x,y,1/2-z
1/2-x,1/2+y,z
1/2+x,-y,1/2+z
loop_
_atom_site_type_symbol
_atom_site_label
_atom_site_fract_x
_atom_site_fract_y
_atom_site_fract_z
Si Si1 0.800847 0.734619 0.209602
Si Si2 0.284308 0.563702 0.945392
Si Si3 0.000000 0.000000 0.000000
Si Si4 0.407253 0.213678 0.822502
Si Si5 0.211873 0.779456 0.875908
Si Si6 0.115898 0.503179 0.730581
Si Si7 0.933913 0.432109 0.069533
Si Si8 0.898984 0.249430 0.973104
O O1 0.750000 0.779438 0.250000
O O2 0.767578 0.677413 0.159154
O O3 0.841364 0.606393 0.235780
O O4 0.842026 0.881424 0.199218
O O5 0.233731 0.647852 0.914266
O O6 0.306981 0.424191 0.909923
O O7 0.337789 0.676428 0.957535
O O8 0.262246 0.500000 0.000000
O O9 0.051497 0.881493 0.022419
O O10 0.338857 0.223481 0.837944
O O11 0.421065 0.389182 0.805541
O O12 0.433379 0.140817 0.873758
O O13 0.417277 0.106556 0.772695
O O14 0.914992 0.610049 0.065649
O O15 0.000000 0.419810 0.050163
O O16 0.896719 0.330513 0.029602
#
# Coordination Sequence:
#
# PCOD9480048 Si02
#       8
#    16  16   4  16  16  16  16  16
#     4  11  20  35  61  89 130 174 233 282 319 383
#     4  12  27  43  58  97 144 189 225 272 341 415
#     4  12  20  46  76 104 124 170 228 304 334 390
#     4  11  24  41  66  97 135 179 232 279 343 408
#     4  12  25  39  63  95 141 191 229 271 333 413
#     4  10  21  38  60  94 132 177 226 285 329 393
#     4  11  24  49  75 104 126 179 224 295 354 425
#     4  11  24  45  76 101 139 167 233 291 349 403
#
# _framework density 22.560400000000001
#
# number of rings (size 3 to 8) (size 9 to 14) (size 15 to 20)
#    0.000    0.828    4.828    3.724    3.862    0.000 
#    0.000    0.690    0.000    0.000    0.000    0.000 
#    0.000    0.000    0.000    0.000    0.000    0.000 
#
# Total GULP energy -324036.261922 kJ/mol
# GULP energy per Si atom -5586.832102 kJ/mol
# Density = 2.250905 g / cm^3
# Si number density = 22.560400 Si / 1000 Ang^3
#
#
#
# Elastic Constant Matrix: (Units=GPa)
#
#
# Indices 1 2 3 4 5 6 
#
# 1 34.3523 23.4038 8.8658 0.0000 0.0000 0.0000
# 2 23.4038 117.3418 33.0356 0.0000 0.0000 0.0000
# 3 8.8658 33.0356 95.6548 0.0000 0.0000 0.0000
# 4 0.0000 0.0000 0.0000 44.5373 0.0000 0.0000
# 5 0.0000 0.0000 0.0000 0.0000 17.3382 0.0000
# 6 0.0000 0.0000 0.0000 0.0000 0.0000 31.6325
#
#
#
# Elastic Compliance Matrix: (Units=1/GPa)
#
#
# Indices 1 2 3 4 5 6 
#
# 1 0.033756 -0.006482 -0.000890 0.000000 0.000000 0.000000
# 2 -0.006482 0.010685 -0.003089 0.000000 0.000000 0.000000
# 3 -0.000890 -0.003089 0.011604 0.000000 0.000000 0.000000
# 4 0.000000 0.000000 0.000000 0.022453 0.000000 0.000000
# 5 0.000000 0.000000 0.000000 0.000000 0.057676 0.000000
# 6 0.000000 0.000000 0.000000 0.000000 0.000000 0.031613
#
#
# Mechanical properties :
#
#
# Convention : Reuss Voigt Hill
#
# Bulk Modulus (GPa) = 28.47251 41.99548 35.23399
# Shear Modulus (GPa) = 24.94805 30.83785 27.89295
#
# Velocity S-wave (km/s) = 3.32902 3.70117 3.52002
# Velocity P-wave (km/s) = 5.23683 6.07618 5.67206
#
# Compressibility (1/GPa) = 0.03512160
#
# Stress axis : x y z
#
# Youngs Moduli (GPa) = 29.62437 93.59176 86.17960
#
# Poissons Ratio (x) = 0.60667 0.07670
# Poissons Ratio (y) = 0.19203 0.26623
# Poissons Ratio (z) = 0.02637 0.28913
#
# Static dielectric constant tensor:
#      x y z
#    x 1.809230 0.000000 0.000000 
#    y 0.000000 1.863860 0.000000 
#    z 0.000000 0.000000 1.838900 
# 
# From -- ./inp_files/51091.got.cif
#   From: 2010.05.17/outbox.cif.g08.bks.cpg/sg64_26_cif.got.tgz:51091.got - 2010.06.03 16:29:19.
