data_PCOD9480345
_publ_section_title
;
Structure prediction by ZEFSAII (Michael W. Deem and Ramdas Pophale) SiO2 
 PCOD9480345
Probable space group: C M C A
;
_chemical_formula_sum "Si O2"
_cell_formula_units_Z 80
_cell_length_a 13.506039
_cell_length_b 22.922551
_cell_length_c 12.195292
_cell_angle_alpha 90.000000
_cell_angle_beta 90.000000
_cell_angle_gamma 90.000000
_cell_volume 3775.575424
_symmetry_space_group_name_H-M "C M C A"
_symmetry_group_IT_number 64
_symmetry_cell_setting 'orthorhombic'
loop_
_space_group_symop_operation_xyz
x,y,z
-x,1/2-y,1/2+z
x,-y,-z
-x,1/2+y,1/2-z
-x,-y,-z
x,1/2+y,1/2-z
-x,y,z
x,1/2-y,1/2+z
1/2+x,1/2+y,z
1/2-x,-y,1/2+z
1/2+x,1/2-y,-z
1/2-x,y,1/2-z
1/2-x,1/2-y,-z
1/2+x,y,1/2-z
1/2-x,1/2+y,z
1/2+x,-y,1/2+z
loop_
_atom_site_type_symbol
_atom_site_label
_atom_site_fract_x
_atom_site_fract_y
_atom_site_fract_z
Si Si1 0.884500 0.714239 0.222470
Si Si2 0.762996 0.157279 0.079487
Si Si3 0.115020 0.162303 0.855166
Si Si4 0.807023 0.524649 0.105236
Si Si5 0.110837 0.030296 0.817005
O O1 0.837016 0.679582 0.324378
O O2 0.833881 0.695108 0.108047
O O3 0.866872 0.783799 0.226207
O O4 0.000000 0.702569 0.220387
O O5 0.727730 0.091066 0.098783
O O6 0.813589 0.163389 0.961137
O O7 0.121623 0.099477 0.796905
O O8 0.000000 0.168102 0.893459
O O9 0.871862 0.509240 0.210516
O O10 0.705548 0.487125 0.112328
O O11 0.862124 0.500000 0.000000
O O12 0.000000 0.020571 0.862020
#
# Coordination Sequence:
#
# PCOD9480345 Si02
#       5
#    16  16  16  16  16
#     4  10  22  39  61  92 126 159 208 262 309 369
#     4  11  22  39  63  90 122 170 204 255 315 368
#     4  10  21  40  64  92 122 164 214 254 308 377
#     4  11  23  40  62  92 125 159 209 258 303 375
#     4  10  22  40  64  90 123 164 206 256 310 367
#
# _framework density 21.188824
#
# number of rings (size 3 to 8) (size 9 to 14) (size 15 to 20)
#    0.000    1.600    2.000    3.600    0.000    8.000 
#    3.600    0.000    0.000    0.000    0.000    0.000 
#    0.000    0.000    0.000    0.000    0.000    0.000 
#
# Total GULP energy -223206.403392 kJ/mol
# GULP energy per Si atom -5580.160085 kJ/mol
# Density = 2.114060 g / cm^3
# Si number density = 21.188824 Si / 1000 Ang^3
#
#
#
# Elastic Constant Matrix: (Units=GPa)
#
#
# Indices 1 2 3 4 5 6 
#
# 1 91.5695 8.4820 -6.5664 0.0000 0.0000 0.0000
# 2 8.4820 129.8085 5.2663 0.0000 0.0000 0.0000
# 3 -6.5664 5.2663 65.5041 0.0000 0.0000 0.0000
# 4 0.0000 0.0000 0.0000 29.8353 0.0000 0.0000
# 5 0.0000 0.0000 0.0000 0.0000 4.8550 0.0000
# 6 0.0000 0.0000 0.0000 0.0000 0.0000 25.9717
#
#
#
# Elastic Compliance Matrix: (Units=1/GPa)
#
#
# Indices 1 2 3 4 5 6 
#
# 1 0.011076 -0.000771 0.001172 0.000000 0.000000 0.000000
# 2 -0.000771 0.007783 -0.000703 0.000000 0.000000 0.000000
# 3 0.001172 -0.000703 0.015440 0.000000 0.000000 0.000000
# 4 0.000000 0.000000 0.000000 0.033517 0.000000 0.000000
# 5 0.000000 0.000000 0.000000 0.000000 0.205972 0.000000
# 6 0.000000 0.000000 0.000000 0.000000 0.000000 0.038503
#
#
# Mechanical properties :
#
#
# Convention : Reuss Voigt Hill
#
# Bulk Modulus (GPa) = 29.67795 33.47176 31.57485
# Shear Modulus (GPa) = 15.42604 30.77909 23.10256
#
# Velocity S-wave (km/s) = 2.70112 3.81545 3.30558
# Velocity P-wave (km/s) = 4.87493 5.93644 5.43168
#
# Compressibility (1/GPa) = 0.03369505
#
# Stress axis : x y z
#
# Youngs Moduli (GPa) = 90.28387 128.49212 64.76575
#
# Poissons Ratio (x) = 0.09911 -0.07593
# Poissons Ratio (y) = 0.06964 0.04553
# Poissons Ratio (z) = -0.10584 0.09033
#
# Static dielectric constant tensor:
#      x y z
#    x 1.771630 0.000000 0.000000 
#    y 0.000000 1.783800 0.000000 
#    z 0.000000 0.000000 1.785660 
# 
# From -- ./inp_files/14447.got.cif
#   From: 2010.05.17/outbox.cif.g08.bks.cpg/sg64_8_cif.got.tgz:14447.got - 2010.06.03 16:29:19.
