data_PCOD9480023
_publ_section_title
;
Structure prediction by ZEFSAII (Michael W. Deem and Ramdas Pophale) SiO2 
 PCOD9480023
Probable space group: C M C A
;
_chemical_formula_sum "Si O2"
_cell_formula_units_Z 80
_cell_length_a 26.035796
_cell_length_b 11.623279
_cell_length_c 13.393711
_cell_angle_alpha 90.000000
_cell_angle_beta 90.000000
_cell_angle_gamma 90.000000
_cell_volume 4053.222515
_symmetry_space_group_name_H-M "C M C A"
_symmetry_group_IT_number 64
_symmetry_cell_setting 'orthorhombic'
loop_
_space_group_symop_operation_xyz
x,y,z
-x,1/2-y,1/2+z
x,-y,-z
-x,1/2+y,1/2-z
-x,-y,-z
x,1/2+y,1/2-z
-x,y,z
x,1/2-y,1/2+z
1/2+x,1/2+y,z
1/2-x,-y,1/2+z
1/2+x,1/2-y,-z
1/2-x,y,1/2-z
1/2-x,1/2-y,-z
1/2+x,y,1/2-z
1/2-x,1/2+y,z
1/2+x,-y,1/2+z
loop_
_atom_site_type_symbol
_atom_site_label
_atom_site_fract_x
_atom_site_fract_y
_atom_site_fract_z
Si Si1 0.605993 0.397569 0.776988
Si Si2 0.130287 0.543357 0.897970
Si Si3 0.441109 0.255416 0.936712
Si Si4 0.633683 0.593481 0.924700
Si Si5 0.810524 0.710697 0.750800
O O1 0.604567 0.439658 0.663897
O O2 0.564502 0.314503 0.827007
O O3 0.605939 0.512909 0.843059
O O4 0.659036 0.325092 0.784535
O O5 0.085969 0.632926 0.926976
O O6 0.170275 0.610329 0.826358
O O7 0.155202 0.500000 0.000000
O O8 0.500000 0.250911 0.967292
O O9 0.406578 0.332559 0.011304
O O10 0.670556 0.674008 0.859859
O O11 0.658815 0.500000 0.000000
O O12 0.750000 0.725316 0.750000
#
# Coordination Sequence:
#
# PCOD9480023 Si02
#       5
#    16  16  16  16  16
#     4   9  20  37  56  83 118 149 185 235 282 336
#     4  10  21  39  58  84 119 149 187 240 287 337
#     4  10  21  38  61  86 112 149 193 235 285 341
#     4   9  19  37  58  84 117 147 187 238 283 335
#     4  10  21  38  60  85 115 153 194 235 283 339
#
# _framework density 19.737382
#
# number of rings (size 3 to 8) (size 9 to 14) (size 15 to 20)
#    0.000    2.400    0.000    1.200    0.000    8.800 
#    0.000   28.000    0.000    0.000    0.000    0.000 
#    0.000    0.000    0.000    0.000    0.000    0.000 
#
# Total GULP energy -222997.147453 kJ/mol
# GULP energy per Si atom -5574.928686 kJ/mol
# Density = 1.969246 g / cm^3
# Si number density = 19.737382 Si / 1000 Ang^3
#
#
#
# Elastic Constant Matrix: (Units=GPa)
#
#
# Indices 1 2 3 4 5 6 
#
# 1 123.4394 34.8848 28.6825 0.0000 0.0000 0.0000
# 2 34.8848 64.7763 24.5287 0.0000 0.0000 0.0000
# 3 28.6825 24.5287 107.4748 0.0000 0.0000 0.0000
# 4 0.0000 0.0000 0.0000 38.1297 0.0000 0.0000
# 5 0.0000 0.0000 0.0000 0.0000 14.9090 0.0000
# 6 0.0000 0.0000 0.0000 0.0000 0.0000 0.3707
#
#
#
# Elastic Compliance Matrix: (Units=1/GPa)
#
#
# Indices 1 2 3 4 5 6 
#
# 1 0.009783 -0.004685 -0.001542 0.000000 0.000000 0.000000
# 2 -0.004685 0.019142 -0.003118 0.000000 0.000000 0.000000
# 3 -0.001542 -0.003118 0.010428 0.000000 0.000000 0.000000
# 4 0.000000 0.000000 0.000000 0.026226 0.000000 0.000000
# 5 0.000000 0.000000 0.000000 0.000000 0.067074 0.000000
# 6 0.000000 0.000000 0.000000 0.000000 0.000000 2.697633
#
#
# Mechanical properties :
#
#
# Convention : Reuss Voigt Hill
#
# Bulk Modulus (GPa) = 48.39662 52.43140 50.41401
# Shear Modulus (GPa) = 1.75078 24.52150 13.13614
#
# Velocity S-wave (km/s) = 0.94285 3.52858 2.58262
# Velocity P-wave (km/s) = 5.07531 6.57445 5.87291
#
# Compressibility (1/GPa) = 0.02066260
#
# Stress axis : x y z
#
# Youngs Moduli (GPa) = 102.21409 52.24216 95.89896
#
# Poissons Ratio (x) = 0.24475 0.14785
# Poissons Ratio (y) = 0.47887 0.29904
# Poissons Ratio (z) = 0.15759 0.16291
#
# Static dielectric constant tensor:
#      x y z
#    x 1.631870 0.000000 0.000000 
#    y 0.000000 1.717760 0.000000 
#    z 0.000000 0.000000 1.753530 
# 
# From -- ./inp_files/27080.got.cif
#   From: 2010.05.17/outbox.cif.g08.bks.cpg/sg64_14_cif.got.tgz:27080.got - 2010.06.03 16:29:19.
