data_PCOD9480957
_publ_section_title
;
Structure prediction by ZEFSAII (Michael W. Deem and Ramdas Pophale) SiO2 
 PCOD9480957
Probable space group: C M C A
;
_chemical_formula_sum "Si O2"
_cell_formula_units_Z 80
_cell_length_a 18.125200
_cell_length_b 9.563554
_cell_length_c 22.558778
_cell_angle_alpha 90.000000
_cell_angle_beta 90.000000
_cell_angle_gamma 90.000000
_cell_volume 3910.368558
_symmetry_space_group_name_H-M "C M C A"
_symmetry_group_IT_number 64
_symmetry_cell_setting 'orthorhombic'
loop_
_space_group_symop_operation_xyz
x,y,z
-x,1/2-y,1/2+z
x,-y,-z
-x,1/2+y,1/2-z
-x,-y,-z
x,1/2+y,1/2-z
-x,y,z
x,1/2-y,1/2+z
1/2+x,1/2+y,z
1/2-x,-y,1/2+z
1/2+x,1/2-y,-z
1/2-x,y,1/2-z
1/2-x,1/2-y,-z
1/2+x,y,1/2-z
1/2-x,1/2+y,z
1/2+x,-y,1/2+z
loop_
_atom_site_type_symbol
_atom_site_label
_atom_site_fract_x
_atom_site_fract_y
_atom_site_fract_z
Si Si1 0.205829 0.444159 0.634581
Si Si2 0.786323 0.284839 0.437115
Si Si3 0.586734 0.570341 0.436215
Si Si4 0.587561 0.167112 0.282406
Si Si5 0.646165 0.533685 0.684819
O O1 0.206526 0.554118 0.580658
O O2 0.236190 0.296595 0.610937
O O3 0.128273 0.422282 0.666371
O O4 0.266878 0.502967 0.680252
O O5 0.750000 0.250000 0.500000
O O6 0.865646 0.210886 0.433922
O O7 0.600250 0.500000 0.500000
O O8 0.500000 0.593717 0.429384
O O9 0.615902 0.474058 0.382613
O O10 0.500000 0.175853 0.290295
O O11 0.623382 0.320680 0.285926
O O12 0.607644 0.090568 0.221319
#
# Coordination Sequence:
#
# PCOD9480957 Si02
#       5
#    16  16  16  16  16
#     4  11  24  42  68  95 133 176 224 277 326 405
#     4  11  22  42  66  96 130 176 227 274 332 401
#     4  10  22  41  69  98 131 174 225 282 341 400
#     4  12  26  43  68 100 138 175 219 282 341 398
#     4  11  25  46  67  97 134 179 224 273 334 410
#
# _framework density 20.458428999999999
#
# number of rings (size 3 to 8) (size 9 to 14) (size 15 to 20)
#    0.000    1.000    2.000    5.400    5.600    2.400 
#    0.000    0.000    0.000    2.400    0.000    0.000 
#    0.000    0.000    0.000    0.000    0.000    0.000 
#
# Total GULP energy -223758.058921 kJ/mol
# GULP energy per Si atom -5593.951473 kJ/mol
# Density = 2.041186 g / cm^3
# Si number density = 20.458429 Si / 1000 Ang^3
#
#
#
# Elastic Constant Matrix: (Units=GPa)
#
#
# Indices 1 2 3 4 5 6 
#
# 1 77.2010 21.1625 3.8274 0.0000 0.0000 0.0000
# 2 21.1625 101.9923 29.5873 0.0000 0.0000 0.0000
# 3 3.8274 29.5873 84.9496 0.0000 0.0000 0.0000
# 4 0.0000 0.0000 0.0000 29.1941 0.0000 0.0000
# 5 0.0000 0.0000 0.0000 0.0000 32.5457 0.0000
# 6 0.0000 0.0000 0.0000 0.0000 0.0000 20.6991
#
#
#
# Elastic Compliance Matrix: (Units=1/GPa)
#
#
# Indices 1 2 3 4 5 6 
#
# 1 0.013748 -0.002973 0.000416 0.000000 0.000000 0.000000
# 2 -0.002973 0.011550 -0.003889 0.000000 0.000000 0.000000
# 3 0.000416 -0.003889 0.013107 0.000000 0.000000 0.000000
# 4 0.000000 0.000000 0.000000 0.034253 0.000000 0.000000
# 5 0.000000 0.000000 0.000000 0.000000 0.030726 0.000000
# 6 0.000000 0.000000 0.000000 0.000000 0.000000 0.048311
#
#
# Mechanical properties :
#
#
# Convention : Reuss Voigt Hill
#
# Bulk Modulus (GPa) = 39.19563 41.47749 40.33656
# Shear Modulus (GPa) = 28.88651 30.45885 29.67268
#
# Velocity S-wave (km/s) = 3.76168 3.86270 3.81253
# Velocity P-wave (km/s) = 6.16987 6.34130 6.25617
#
# Compressibility (1/GPa) = 0.02551305
#
# Stress axis : x y z
#
# Youngs Moduli (GPa) = 72.73999 86.58260 76.29312
#
# Poissons Ratio (x) = 0.25743 -0.03175
# Poissons Ratio (y) = 0.21627 0.29668
# Poissons Ratio (z) = -0.03027 0.33669
#
# Static dielectric constant tensor:
#      x y z
#    x 1.703530 0.000000 0.000000 
#    y 0.000000 1.724100 0.000000 
#    z 0.000000 0.000000 1.748820 
# 
# From -- ./inp_files/50276.got.cif
#   From: 2010.05.17/outbox.cif.g08.bks.cpg/sg64_26_cif.got.tgz:50276.got - 2010.06.03 16:29:19.
