data_PCOD9480394
_publ_section_title
;
Structure prediction by ZEFSAII (Michael W. Deem and Ramdas Pophale) SiO2 
 PCOD9480394
Probable space group: C M C A
;
_chemical_formula_sum "Si O2"
_cell_formula_units_Z 80
_cell_length_a 21.623670
_cell_length_b 10.617919
_cell_length_c 14.080856
_cell_angle_alpha 90.000000
_cell_angle_beta 90.000000
_cell_angle_gamma 90.000000
_cell_volume 3232.941678
_symmetry_space_group_name_H-M "C M C A"
_symmetry_group_IT_number 64
_symmetry_cell_setting 'orthorhombic'
loop_
_space_group_symop_operation_xyz
x,y,z
-x,1/2-y,1/2+z
x,-y,-z
-x,1/2+y,1/2-z
-x,-y,-z
x,1/2+y,1/2-z
-x,y,z
x,1/2-y,1/2+z
1/2+x,1/2+y,z
1/2-x,-y,1/2+z
1/2+x,1/2-y,-z
1/2-x,y,1/2-z
1/2-x,1/2-y,-z
1/2+x,y,1/2-z
1/2-x,1/2+y,z
1/2+x,-y,1/2+z
loop_
_atom_site_type_symbol
_atom_site_label
_atom_site_fract_x
_atom_site_fract_y
_atom_site_fract_z
Si Si1 0.108261 0.606344 0.431847
Si Si2 0.185858 0.867472 0.255792
Si Si3 0.932045 0.466131 0.773692
Si Si4 0.738456 0.336017 0.907266
Si Si5 0.133332 0.699066 0.088629
O O1 0.079962 0.500000 0.500000
O O2 0.077955 0.601140 0.328662
O O3 0.180773 0.572181 0.417199
O O4 0.111938 0.736962 0.490805
O O5 0.250000 0.947461 0.250000
O O6 0.209853 0.756158 0.325776
O O7 0.163178 0.806325 0.156645
O O8 0.123824 0.936449 0.286720
O O9 0.922575 0.364481 0.856404
O O10 0.000000 0.523689 0.776260
O O11 0.807112 0.394575 0.906074
O O12 0.750000 0.250000 0.000000
#
# Coordination Sequence:
#
# PCOD9480394 Si02
#       5
#    16  16  16  16  16
#     4  11  22  41  66 100 131 173 227 282 340 409
#     4  10  21  40  69  96 131 176 219 285 336 398
#     4  12  27  42  66  98 137 187 226 276 347 416
#     4   9  20  38  67 101 133 166 221 281 345 393
#     4  10  22  41  66  98 135 173 224 286 343 399
#
# _framework density 24.745266000000001
#
# number of rings (size 3 to 8) (size 9 to 14) (size 15 to 20)
#    0.000    1.600    4.000    0.000    2.800    2.000 
#    0.000    3.000    0.000    4.800    0.000    0.000 
#    0.000    0.000    0.000    0.000    0.000    0.000 
#
# Total GULP energy -223097.958888 kJ/mol
# GULP energy per Si atom -5577.448972 kJ/mol
# Density = 2.468894 g / cm^3
# Si number density = 24.745266 Si / 1000 Ang^3
#
#
#
# Elastic Constant Matrix: (Units=GPa)
#
#
# Indices 1 2 3 4 5 6 
#
# 1 158.5653 26.5764 10.4049 0.0000 0.0000 0.0000
# 2 26.5764 31.2137 21.6706 0.0000 0.0000 0.0000
# 3 10.4049 21.6706 99.4766 0.0000 0.0000 0.0000
# 4 0.0000 0.0000 0.0000 48.4964 0.0000 0.0000
# 5 0.0000 0.0000 0.0000 0.0000 9.0140 0.0000
# 6 0.0000 0.0000 0.0000 0.0000 0.0000 19.2236
#
#
#
# Elastic Compliance Matrix: (Units=1/GPa)
#
#
# Indices 1 2 3 4 5 6 
#
# 1 0.007398 -0.006788 0.000705 0.000000 0.000000 0.000000
# 2 -0.006788 0.043975 -0.008870 0.000000 0.000000 0.000000
# 3 0.000705 -0.008870 0.011911 0.000000 0.000000 0.000000
# 4 0.000000 0.000000 0.000000 0.020620 0.000000 0.000000
# 5 0.000000 0.000000 0.000000 0.000000 0.110939 0.000000
# 6 0.000000 0.000000 0.000000 0.000000 0.000000 0.052019
#
#
# Mechanical properties :
#
#
# Convention : Reuss Voigt Hill
#
# Bulk Modulus (GPa) = 29.95993 45.17326 37.56659
# Shear Modulus (GPa) = 17.36745 30.72038 24.04391
#
# Velocity S-wave (km/s) = 2.65212 3.52727 3.12052
# Velocity P-wave (km/s) = 4.63810 5.90625 5.31016
#
# Compressibility (1/GPa) = 0.03337792
#
# Stress axis : x y z
#
# Youngs Moduli (GPa) = 135.17052 22.74018 83.95522
#
# Poissons Ratio (x) = 0.15437 -0.05919
# Poissons Ratio (y) = 0.91759 0.74466
# Poissons Ratio (z) = -0.09530 0.20170
#
# Static dielectric constant tensor:
#      x y z
#    x 2.054390 0.000000 0.000000 
#    y 0.000000 2.046290 0.000000 
#    z 0.000000 0.000000 2.136620 
# 
# From -- ./inp_files/27091.got.cif
#   From: 2010.05.17/outbox.cif.g08.bks.cpg/sg64_14_cif.got.tgz:27091.got - 2010.06.03 16:29:19.
