data_PCOD9480600
_publ_section_title
;
Structure prediction by ZEFSAII (Michael W. Deem and Ramdas Pophale) SiO2 
 PCOD9480600
Probable space group: C M C A
;
_chemical_formula_sum "Si O2"
_cell_formula_units_Z 64
_cell_length_a 12.006272
_cell_length_b 10.026420
_cell_length_c 19.953077
_cell_angle_alpha 90.000000
_cell_angle_beta 90.000000
_cell_angle_gamma 90.000000
_cell_volume 2401.949927
_symmetry_space_group_name_H-M "C M C A"
_symmetry_group_IT_number 64
_symmetry_cell_setting 'orthorhombic'
loop_
_space_group_symop_operation_xyz
x,y,z
-x,1/2-y,1/2+z
x,-y,-z
-x,1/2+y,1/2-z
-x,-y,-z
x,1/2+y,1/2-z
-x,y,z
x,1/2-y,1/2+z
1/2+x,1/2+y,z
1/2-x,-y,1/2+z
1/2+x,1/2-y,-z
1/2-x,y,1/2-z
1/2-x,1/2-y,-z
1/2+x,y,1/2-z
1/2-x,1/2+y,z
1/2+x,-y,1/2+z
loop_
_atom_site_type_symbol
_atom_site_label
_atom_site_fract_x
_atom_site_fract_y
_atom_site_fract_z
Si Si1 0.310476 0.229942 0.814242
Si Si2 0.500000 0.131474 0.123156
Si Si3 0.309628 0.563646 0.566988
Si Si4 0.500000 0.582891 0.128313
Si Si5 0.500000 0.258556 0.989973
Si Si6 0.500000 0.151090 0.727799
O O1 0.250000 0.290933 0.750000
O O2 0.249448 0.146469 0.873248
O O3 0.389730 0.338148 0.847790
O O4 0.394656 0.130956 0.775565
O O5 0.500000 0.199464 0.195891
O O6 0.609874 0.044763 0.103689
O O7 0.500000 0.250110 0.068695
O O8 0.253694 0.500000 0.500000
O O9 0.394635 0.671234 0.535068
O O10 0.500000 0.604326 0.049401
O O11 0.500000 0.448751 0.167649
#
# Coordination Sequence:
#
# PCOD9480600 Si02
#       6
#    16   8  16   8   8   8
#     4  10  22  37  59  85 113 149 197 242 290 342
#     4   9  16  30  56  86 115 144 189 239 283 345
#     4   8  15  32  60  85 108 149 200 240 281 343
#     4   9  20  38  56  79 116 153 191 232 282 356
#     4   7  13  30  57  81 106 152 195 230 277 335
#     4  11  23  34  54  88 118 152 186 234 301 341
#
# _framework density 26.645019000000001
#
# number of rings (size 3 to 8) (size 9 to 14) (size 15 to 20)
#    0.000    3.000    0.000    3.750    7.000    1.500 
#    0.000    0.000    5.500    4.500    0.000    0.000 
#    0.000    0.000    0.000    0.000    0.000    0.000 
#
# Total GULP energy -178755.854303 kJ/mol
# GULP energy per Si atom -5586.120447 kJ/mol
# Density = 2.658437 g / cm^3
# Si number density = 26.645019 Si / 1000 Ang^3
#
#
#
# Elastic Constant Matrix: (Units=GPa)
#
#
# Indices 1 2 3 4 5 6 
#
# 1 60.6625 7.0735 24.9707 0.0000 0.0000 0.0000
# 2 7.0735 88.8854 63.9035 0.0000 0.0000 0.0000
# 3 24.9707 63.9035 173.1767 0.0000 0.0000 0.0000
# 4 0.0000 0.0000 0.0000 58.2488 0.0000 0.0000
# 5 0.0000 0.0000 0.0000 0.0000 86.8427 0.0000
# 6 0.0000 0.0000 0.0000 0.0000 0.0000 17.7372
#
#
#
# Elastic Compliance Matrix: (Units=1/GPa)
#
#
# Indices 1 2 3 4 5 6 
#
# 1 0.017546 0.000575 -0.002742 0.000000 0.000000 0.000000
# 2 0.000575 0.015332 -0.005740 0.000000 0.000000 0.000000
# 3 -0.002742 -0.005740 0.008288 0.000000 0.000000 0.000000
# 4 0.000000 0.000000 0.000000 0.017168 0.000000 0.000000
# 5 0.000000 0.000000 0.000000 0.000000 0.011515 0.000000
# 6 0.000000 0.000000 0.000000 0.000000 0.000000 0.056379
#
#
# Mechanical properties :
#
#
# Convention : Reuss Voigt Hill
#
# Bulk Modulus (GPa) = 39.44591 57.17999 48.31295
# Shear Modulus (GPa) = 33.22405 47.68420 40.45412
#
# Velocity S-wave (km/s) = 3.53500 4.23497 3.90072
# Velocity P-wave (km/s) = 5.61231 6.73942 6.20152
#
# Compressibility (1/GPa) = 0.02535117
#
# Stress axis : x y z
#
# Youngs Moduli (GPa) = 56.99175 65.22419 120.65426
#
# Poissons Ratio (x) = -0.03752 0.33087
# Poissons Ratio (y) = -0.03278 0.69261
# Poissons Ratio (z) = 0.15629 0.37442
#
# Static dielectric constant tensor:
#      x y z
#    x 2.011640 0.000000 0.000000 
#    y 0.000000 2.070560 0.000000 
#    z 0.000000 0.000000 2.029010 
# 
# From -- ./inp_files/32813.got.cif
#   From: 2010.05.17/outbox.cif.g08.bks.cpg/sg64_17_cif.got.tgz:32813.got - 2010.06.03 16:29:19.
