data_PCOD9480026
_publ_section_title
;
Structure prediction by ZEFSAII (Michael W. Deem and Ramdas Pophale) SiO2 
 PCOD9480026
Probable space group: C M C A
;
_chemical_formula_sum "Si O2"
_cell_formula_units_Z 64
_cell_length_a 16.058473
_cell_length_b 13.852443
_cell_length_c 12.576812
_cell_angle_alpha 90.000000
_cell_angle_beta 90.000000
_cell_angle_gamma 90.000000
_cell_volume 2797.700283
_symmetry_space_group_name_H-M "C M C A"
_symmetry_group_IT_number 64
_symmetry_cell_setting 'orthorhombic'
loop_
_space_group_symop_operation_xyz
x,y,z
-x,1/2-y,1/2+z
x,-y,-z
-x,1/2+y,1/2-z
-x,-y,-z
x,1/2+y,1/2-z
-x,y,z
x,1/2-y,1/2+z
1/2+x,1/2+y,z
1/2-x,-y,1/2+z
1/2+x,1/2-y,-z
1/2-x,y,1/2-z
1/2-x,1/2-y,-z
1/2+x,y,1/2-z
1/2-x,1/2+y,z
1/2+x,-y,1/2+z
loop_
_atom_site_type_symbol
_atom_site_label
_atom_site_fract_x
_atom_site_fract_y
_atom_site_fract_z
Si Si1 0.000000 0.834486 0.003506
Si Si2 0.000000 0.013897 0.167748
Si Si3 0.655598 0.258842 0.119113
Si Si4 0.846474 0.921444 0.280743
Si Si5 0.715761 0.601187 0.504592
O O1 0.000000 0.881082 0.886872
O O2 0.000000 0.928881 0.079486
O O3 0.920904 0.773300 0.039209
O O4 0.915437 0.991866 0.231772
O O5 0.639118 0.313435 0.230089
O O6 0.686260 0.149188 0.104958
O O7 0.727160 0.323790 0.066537
O O8 0.750000 0.947179 0.250000
O O9 0.854951 0.920183 0.407921
O O10 0.763822 0.500000 0.500000
#
# Coordination Sequence:
#
# PCOD9480026 Si02
#       5
#     8   8  16  16  16
#     4   9  18  33  62  85 115 151 201 262 299 352
#     4   9  18  33  58  91 117 155 203 250 302 366
#     4   9  20  38  57  89 119 156 209 249 304 368
#     4   9  19  36  57  86 124 155 200 253 302 366
#     4  10  21  38  60  85 123 164 199 251 310 369
#
# _framework density 22.875931000000001
#
# number of rings (size 3 to 8) (size 9 to 14) (size 15 to 20)
#    0.000    2.750    0.000    0.000   10.500    1.000 
#    4.500    8.750    0.000    0.000    0.000    0.000 
#    0.000    0.000    0.000    0.000    0.000    0.000 
#
# Total GULP energy -178265.997288 kJ/mol
# GULP energy per Si atom -5570.812415 kJ/mol
# Density = 2.282386 g / cm^3
# Si number density = 22.875931 Si / 1000 Ang^3
#
#
#
# Elastic Constant Matrix: (Units=GPa)
#
#
# Indices 1 2 3 4 5 6 
#
# 1 89.8240 6.4141 11.6778 0.0000 0.0000 0.0000
# 2 6.4141 69.2286 -5.2541 0.0000 0.0000 0.0000
# 3 11.6778 -5.2541 50.9475 0.0000 0.0000 0.0000
# 4 0.0000 0.0000 0.0000 21.3414 0.0000 0.0000
# 5 0.0000 0.0000 0.0000 0.0000 44.7549 0.0000
# 6 0.0000 0.0000 0.0000 0.0000 0.0000 10.6936
#
#
#
# Elastic Compliance Matrix: (Units=1/GPa)
#
#
# Indices 1 2 3 4 5 6 
#
# 1 0.011587 -0.001285 -0.002788 0.000000 0.000000 0.000000
# 2 -0.001285 0.014701 0.001811 0.000000 0.000000 0.000000
# 3 -0.002788 0.001811 0.020454 0.000000 0.000000 0.000000
# 4 0.000000 0.000000 0.000000 0.046857 0.000000 0.000000
# 5 0.000000 0.000000 0.000000 0.000000 0.022344 0.000000
# 6 0.000000 0.000000 0.000000 0.000000 0.000000 0.093514
#
#
# Mechanical properties :
#
#
# Convention : Reuss Voigt Hill
#
# Bulk Modulus (GPa) = 23.68736 26.18618 24.93677
# Shear Modulus (GPa) = 21.92447 28.50215 25.21331
#
# Velocity S-wave (km/s) = 3.09917 3.53362 3.32351
# Velocity P-wave (km/s) = 4.81495 5.30288 5.06479
#
# Compressibility (1/GPa) = 0.04221661
#
# Stress axis : x y z
#
# Youngs Moduli (GPa) = 86.30232 68.02079 48.89031
#
# Poissons Ratio (x) = 0.08742 0.13633
# Poissons Ratio (y) = 0.11091 -0.08853
# Poissons Ratio (z) = 0.24065 -0.12317
#
# Static dielectric constant tensor:
#      x y z
#    x 1.893120 0.000000 0.000000 
#    y 0.000000 1.986020 0.000000 
#    z 0.000000 0.000000 1.934440 
# 
# From -- ./inp_files/15534.got.cif
#   From: 2010.05.17/outbox.cif.g08.bks.cpg/sg64_8_cif.got.tgz:15534.got - 2010.06.03 16:29:19.
