data_PCOD9480502
_publ_section_title
;
Structure prediction by ZEFSAII (Michael W. Deem and Ramdas Pophale) SiO2 
 PCOD9480502
Probable space group: C M C A
;
_chemical_formula_sum "Si O2"
_cell_formula_units_Z 64
_cell_length_a 17.991928
_cell_length_b 15.842617
_cell_length_c 10.852417
_cell_angle_alpha 90.000000
_cell_angle_beta 90.000000
_cell_angle_gamma 90.000000
_cell_volume 3093.364524
_symmetry_space_group_name_H-M "C M C A"
_symmetry_group_IT_number 64
_symmetry_cell_setting 'orthorhombic'
loop_
_space_group_symop_operation_xyz
x,y,z
-x,1/2-y,1/2+z
x,-y,-z
-x,1/2+y,1/2-z
-x,-y,-z
x,1/2+y,1/2-z
-x,y,z
x,1/2-y,1/2+z
1/2+x,1/2+y,z
1/2-x,-y,1/2+z
1/2+x,1/2-y,-z
1/2-x,y,1/2-z
1/2-x,1/2-y,-z
1/2+x,y,1/2-z
1/2-x,1/2+y,z
1/2+x,-y,1/2+z
loop_
_atom_site_type_symbol
_atom_site_label
_atom_site_fract_x
_atom_site_fract_y
_atom_site_fract_z
Si Si1 0.084805 0.656631 0.272813
Si Si2 0.835699 0.335699 0.227672
Si Si3 0.813677 0.996083 0.856739
Si Si4 0.418714 0.900166 0.008055
O O1 0.117560 0.750430 0.271019
O O2 0.133628 0.585493 0.341045
O O3 0.000000 0.655407 0.318996
O O4 0.085127 0.632147 0.129521
O O5 0.750000 0.314425 0.250000
O O6 0.852952 0.414422 0.319460
O O7 0.851569 0.370577 0.091721
O O8 0.750000 0.988292 0.750000
O O9 0.788782 0.000000 0.000000
O O10 0.500000 0.875298 0.062045
O O11 0.417134 0.000000 0.000000
#
# Coordination Sequence:
#
# PCOD9480502 Si02
#       4
#    16  16  16  16
#     4  11  25  44  69 100 139 184 231 285 346 415
#     4  11  25  41  67 100 138 180 229 285 344 409
#     4  11  27  47  72 102 141 183 231 292 352 413
#     4  10  21  42  68  94 133 183 232 280 343 416
#
# _framework density 20.689447000000001
#
# number of rings (size 3 to 8) (size 9 to 14) (size 15 to 20)
#    0.000    1.250    2.500    1.500   10.500    2.500 
#    0.000    0.000    0.000    0.000    0.000    0.000 
#    0.000    0.000    0.000    0.000    0.000    0.000 
#
# Total GULP energy -178628.371365 kJ/mol
# GULP energy per Si atom -5582.136605 kJ/mol
# Density = 2.064236 g / cm^3
# Si number density = 20.689447 Si / 1000 Ang^3
#
#
#
# Elastic Constant Matrix: (Units=GPa)
#
#
# Indices 1 2 3 4 5 6 
#
# 1 116.9251 51.7642 52.3152 0.0000 0.0000 0.0000
# 2 51.7642 164.8779 40.2237 0.0000 0.0000 0.0000
# 3 52.3152 40.2237 105.0046 0.0000 0.0000 0.0000
# 4 0.0000 0.0000 0.0000 18.6144 0.0000 0.0000
# 5 0.0000 0.0000 0.0000 0.0000 25.1853 0.0000
# 6 0.0000 0.0000 0.0000 0.0000 0.0000 59.7430
#
#
#
# Elastic Compliance Matrix: (Units=1/GPa)
#
#
# Indices 1 2 3 4 5 6 
#
# 1 0.011887 -0.002523 -0.004956 0.000000 0.000000 0.000000
# 2 -0.002523 0.007226 -0.001511 0.000000 0.000000 0.000000
# 3 -0.004956 -0.001511 0.012571 0.000000 0.000000 0.000000
# 4 0.000000 0.000000 0.000000 0.053722 0.000000 0.000000
# 5 0.000000 0.000000 0.000000 0.000000 0.039706 0.000000
# 6 0.000000 0.000000 0.000000 0.000000 0.000000 0.016738
#
#
# Mechanical properties :
#
#
# Convention : Reuss Voigt Hill
#
# Bulk Modulus (GPa) = 72.96882 75.04596 74.00739
# Shear Modulus (GPa) = 30.41416 36.87550 33.64483
#
# Velocity S-wave (km/s) = 3.83826 4.22635 4.03697
# Velocity P-wave (km/s) = 7.41540 7.75676 7.58800
#
# Compressibility (1/GPa) = 0.01370448
#
# Stress axis : x y z
#
# Youngs Moduli (GPa) = 84.12742 138.39312 79.54652
#
# Poissons Ratio (x) = 0.34915 0.39421
# Poissons Ratio (y) = 0.21224 0.12020
# Poissons Ratio (z) = 0.41692 0.20911
#
# Static dielectric constant tensor:
#      x y z
#    x 1.724740 0.000000 0.000000 
#    y 0.000000 2.058280 0.000000 
#    z 0.000000 0.000000 1.700440 
# 
# From -- ./inp_files/15469.got.cif
#   From: 2010.05.17/outbox.cif.g08.bks.cpg/sg64_8_cif.got.tgz:15469.got - 2010.06.03 16:29:19.
