data_PCOD9480891
_publ_section_title
;
Structure prediction by ZEFSAII (Michael W. Deem and Ramdas Pophale) SiO2 
 PCOD9480891
Probable space group: C M C A
;
_chemical_formula_sum "Si O2"
_cell_formula_units_Z 56
_cell_length_a 9.941912
_cell_length_b 9.112437
_cell_length_c 28.710176
_cell_angle_alpha 90.000000
_cell_angle_beta 90.000000
_cell_angle_gamma 90.000000
_cell_volume 2600.999737
_symmetry_space_group_name_H-M "C M C A"
_symmetry_group_IT_number 64
_symmetry_cell_setting 'orthorhombic'
loop_
_space_group_symop_operation_xyz
x,y,z
-x,1/2-y,1/2+z
x,-y,-z
-x,1/2+y,1/2-z
-x,-y,-z
x,1/2+y,1/2-z
-x,y,z
x,1/2-y,1/2+z
1/2+x,1/2+y,z
1/2-x,-y,1/2+z
1/2+x,1/2-y,-z
1/2-x,y,1/2-z
1/2-x,1/2-y,-z
1/2+x,y,1/2-z
1/2-x,1/2+y,z
1/2+x,-y,1/2+z
loop_
_atom_site_type_symbol
_atom_site_label
_atom_site_fract_x
_atom_site_fract_y
_atom_site_fract_z
Si Si1 0.750000 0.014338 0.250000
Si Si2 0.647503 0.761377 0.315142
Si Si3 0.153052 0.412594 0.452157
Si Si4 0.655671 0.708289 0.100169
O O1 0.658735 0.122989 0.219536
O O2 0.670382 0.907135 0.284741
O O3 0.500000 0.764204 0.337472
O O4 0.764553 0.743207 0.352819
O O5 0.175962 0.500000 0.500000
O O6 0.264379 0.293250 0.440370
O O7 0.159450 0.536119 0.411813
O O8 0.000000 0.352934 0.454128
O O9 0.500000 0.753614 0.102494
#
# Coordination Sequence:
#
# PCOD9480891 Si02
#       4
#     8  16  16  16
#     4  10  24  40  62  90 116 152 202 248 292 350
#     4  11  23  41  63  87 119 157 197 244 297 351
#     4  10  22  41  63  88 120 158 200 246 296 351
#     4  11  24  39  60  91 122 155 198 244 294 355
#
# _framework density 21.530183000000001
#
# number of rings (size 3 to 8) (size 9 to 14) (size 15 to 20)
#    0.000    1.429    0.000    4.286    0.000   14.286 
#    0.000    0.000    0.000    0.000    0.000    0.000 
#    0.000    0.000    0.000    0.000    0.000    0.000 
#
# Total GULP energy -156650.331267 kJ/mol
# GULP energy per Si atom -5594.654688 kJ/mol
# Density = 2.148118 g / cm^3
# Si number density = 21.530183 Si / 1000 Ang^3
#
#
#
# Elastic Constant Matrix: (Units=GPa)
#
#
# Indices 1 2 3 4 5 6 
#
# 1 160.6332 42.5495 28.0631 0.0000 0.0000 0.0000
# 2 42.5495 88.9921 12.9778 0.0000 0.0000 0.0000
# 3 28.0631 12.9778 74.8586 0.0000 0.0000 0.0000
# 4 0.0000 0.0000 0.0000 27.8541 0.0000 0.0000
# 5 0.0000 0.0000 0.0000 0.0000 30.2358 0.0000
# 6 0.0000 0.0000 0.0000 0.0000 0.0000 7.8771
#
#
#
# Elastic Compliance Matrix: (Units=1/GPa)
#
#
# Indices 1 2 3 4 5 6 
#
# 1 0.007477 -0.003248 -0.002240 0.000000 0.000000 0.000000
# 2 -0.003248 0.012940 -0.001026 0.000000 0.000000 0.000000
# 3 -0.002240 -0.001026 0.014376 0.000000 0.000000 0.000000
# 4 0.000000 0.000000 0.000000 0.035901 0.000000 0.000000
# 5 0.000000 0.000000 0.000000 0.000000 0.033073 0.000000
# 6 0.000000 0.000000 0.000000 0.000000 0.000000 0.126950
#
#
# Mechanical properties :
#
#
# Convention : Reuss Voigt Hill
#
# Bulk Modulus (GPa) = 45.94486 54.62943 50.28714
# Shear Modulus (GPa) = 19.92033 29.25296 24.58665
#
# Velocity S-wave (km/s) = 3.04506 3.69005 3.38296
# Velocity P-wave (km/s) = 5.80941 6.60180 6.21824
#
# Compressibility (1/GPa) = 0.02176522
#
# Stress axis : x y z
#
# Youngs Moduli (GPa) = 133.74121 77.28186 69.56034
#
# Poissons Ratio (x) = 0.25104 0.15581
# Poissons Ratio (y) = 0.43444 0.07134
# Poissons Ratio (z) = 0.29957 0.07925
#
# Static dielectric constant tensor:
#      x y z
#    x 1.741400 0.000000 0.000000 
#    y 0.000000 1.754670 0.000000 
#    z 0.000000 0.000000 1.807040 
# 
# From -- ./inp_files/48944.got.cif
#   From: 2010.05.17/outbox.cif.g08.bks.cpg/sg64_25_cif.got.tgz:48944.got - 2010.06.03 16:29:19.
