data_PCOD9480553
_publ_section_title
;
Structure prediction by ZEFSAII (Michael W. Deem and Ramdas Pophale) SiO2 
 PCOD9480553
Probable space group: C M C A
;
_chemical_formula_sum "Si O2"
_cell_formula_units_Z 96
_cell_length_a 25.243099
_cell_length_b 9.549058
_cell_length_c 23.965105
_cell_angle_alpha 90.000000
_cell_angle_beta 90.000000
_cell_angle_gamma 90.000000
_cell_volume 5776.736231
_symmetry_space_group_name_H-M "C M C A"
_symmetry_group_IT_number 64
_symmetry_cell_setting 'orthorhombic'
loop_
_space_group_symop_operation_xyz
x,y,z
-x,1/2-y,1/2+z
x,-y,-z
-x,1/2+y,1/2-z
-x,-y,-z
x,1/2+y,1/2-z
-x,y,z
x,1/2-y,1/2+z
1/2+x,1/2+y,z
1/2-x,-y,1/2+z
1/2+x,1/2-y,-z
1/2-x,y,1/2-z
1/2-x,1/2-y,-z
1/2+x,y,1/2-z
1/2-x,1/2+y,z
1/2+x,-y,1/2+z
loop_
_atom_site_type_symbol
_atom_site_label
_atom_site_fract_x
_atom_site_fract_y
_atom_site_fract_z
Si Si1 0.307379 0.852946 0.224615
Si Si2 0.561842 0.545054 0.094044
Si Si3 0.749843 0.043763 0.618034
Si Si4 0.848332 0.065641 0.183409
Si Si5 0.386496 0.647914 0.990570
Si Si6 0.788392 0.299932 0.951145
O O1 0.250000 0.808508 0.250000
O O2 0.290929 0.934472 0.168418
O O3 0.341576 0.718098 0.209815
O O4 0.336855 0.951252 0.268891
O O5 0.500000 0.559776 0.104648
O O6 0.597928 0.547684 0.148748
O O7 0.582960 0.661005 0.049104
O O8 0.574050 0.402969 0.058383
O O9 0.726179 0.192479 0.598932
O O10 0.699905 0.954813 0.639815
O O11 0.777240 0.956104 0.569105
O O12 0.353699 0.500000 0.000000
O O13 0.347682 0.768020 0.971616
O O14 0.750000 0.250000 0.000000
#
# Coordination Sequence:
#
# PCOD9480553 Si02
#       6
#    16  16  16  16  16  16
#     4  10  22  34  53  76 107 150 173 214 262 327
#     4   9  18  34  56  77 101 138 181 235 273 304
#     4  11  21  33  52  76 119 147 174 202 265 321
#     4  11  20  36  52  77 105 137 188 220 262 317
#     4   8  17  31  50  77 107 135 176 213 259 323
#     4  12  20  31  49  83 117 148 170 211 250 322
#
# _framework density 16.618379999999998
#
# number of rings (size 3 to 8) (size 9 to 14) (size 15 to 20)
#    1.000    0.667    3.333    5.000    2.333    0.000 
#    0.000    0.833    0.000    0.000    0.000    3.500 
#    0.000    0.000    0.000    0.000    0.000    0.000 
#
# Total GULP energy -267394.765861 kJ/mol
# GULP energy per Si atom -5570.724289 kJ/mol
# Density = 1.658056 g / cm^3
# Si number density = 16.618380 Si / 1000 Ang^3
#
#
#
# Elastic Constant Matrix: (Units=GPa)
#
#
# Indices 1 2 3 4 5 6 
#
# 1 110.8538 32.3139 57.7772 0.0000 0.0000 0.0000
# 2 32.3139 33.9647 11.8440 0.0000 0.0000 0.0000
# 3 57.7772 11.8440 87.9087 0.0000 0.0000 0.0000
# 4 0.0000 0.0000 0.0000 25.5933 0.0000 0.0000
# 5 0.0000 0.0000 0.0000 0.0000 16.1735 0.0000
# 6 0.0000 0.0000 0.0000 0.0000 0.0000 14.9195
#
#
#
# Elastic Compliance Matrix: (Units=1/GPa)
#
#
# Indices 1 2 3 4 5 6 
#
# 1 0.018419 -0.013958 -0.010225 0.000000 0.000000 0.000000
# 2 -0.013958 0.041471 0.003586 0.000000 0.000000 0.000000
# 3 -0.010225 0.003586 0.017613 0.000000 0.000000 0.000000
# 4 0.000000 0.000000 0.000000 0.039073 0.000000 0.000000
# 5 0.000000 0.000000 0.000000 0.000000 0.061830 0.000000
# 6 0.000000 0.000000 0.000000 0.000000 0.000000 0.067027
#
#
# Mechanical properties :
#
#
# Convention : Reuss Voigt Hill
#
# Bulk Modulus (GPa) = 27.54116 48.51083 38.02600
# Shear Modulus (GPa) = 16.73757 20.05672 18.39715
#
# Velocity S-wave (km/s) = 3.17704 3.47782 3.33082
# Velocity P-wave (km/s) = 5.48332 6.73657 6.14199
#
# Compressibility (1/GPa) = 0.03630929
#
# Stress axis : x y z
#
# Youngs Moduli (GPa) = 54.29151 24.11299 56.77737
#
# Poissons Ratio (x) = 0.33657 0.58056
# Poissons Ratio (y) = 0.75781 -0.20363
# Poissons Ratio (z) = 0.55514 -0.08648
#
# Static dielectric constant tensor:
#      x y z
#    x 1.534600 0.000000 0.000000 
#    y 0.000000 1.589540 0.000000 
#    z 0.000000 0.000000 1.613010 
# 
# From -- ./inp_files/46587.got.cif
#   From: 2010.05.17/outbox.cif.g08.bks.cpg/sg64_24_cif.got.tgz:46587.got - 2010.06.03 16:29:19.
