data_PCOD9480763
_publ_section_title
;
Structure prediction by ZEFSAII (Michael W. Deem and Ramdas Pophale) SiO2 
 PCOD9480763
Probable space group: C M C A
;
_chemical_formula_sum "Si O2"
_cell_formula_units_Z 64
_cell_length_a 10.512596
_cell_length_b 19.476145
_cell_length_c 14.277256
_cell_angle_alpha 90.000000
_cell_angle_beta 90.000000
_cell_angle_gamma 90.000000
_cell_volume 2923.194553
_symmetry_space_group_name_H-M "C M C A"
_symmetry_group_IT_number 64
_symmetry_cell_setting 'orthorhombic'
loop_
_space_group_symop_operation_xyz
x,y,z
-x,1/2-y,1/2+z
x,-y,-z
-x,1/2+y,1/2-z
-x,-y,-z
x,1/2+y,1/2-z
-x,y,z
x,1/2-y,1/2+z
1/2+x,1/2+y,z
1/2-x,-y,1/2+z
1/2+x,1/2-y,-z
1/2-x,y,1/2-z
1/2-x,1/2-y,-z
1/2+x,y,1/2-z
1/2-x,1/2+y,z
1/2+x,-y,1/2+z
loop_
_atom_site_type_symbol
_atom_site_label
_atom_site_fract_x
_atom_site_fract_y
_atom_site_fract_z
Si Si1 0.260600 0.446331 0.586223
Si Si2 0.500000 0.126776 0.757250
Si Si3 0.500000 0.995191 0.615128
Si Si4 0.500000 0.010139 0.888144
Si Si5 0.250000 0.277778 0.250000
Si Si6 0.845164 0.794012 0.564543
O O1 0.251936 0.500000 0.500000
O O2 0.125701 0.451426 0.635127
O O3 0.373963 0.474783 0.649325
O O4 0.306070 0.372976 0.550268
O O5 0.627159 0.172424 0.759005
O O6 0.500000 0.068483 0.672430
O O7 0.500000 0.086972 0.855228
O O8 0.500000 0.000000 0.500000
O O9 0.500000 0.000000 0.000000
O O10 0.202827 0.228935 0.333390
O O11 0.750000 0.750000 0.500000
O O12 0.000000 0.784255 0.553549
#
# Coordination Sequence:
#
# PCOD9480763 Si02
#       6
#    16   8   8   8   8  16
#     4  10  23  43  73 103 147 190 253 318 392 451
#     4  12  26  46  76 112 154 212 256 326 402 482
#     4  10  24  41  72 110 151 187 257 323 394 469
#     4  10  22  39  70 102 141 189 259 317 382 459
#     4  12  30  48  76 110 166 208 268 312 410 492
#     4  12  30  49  79 114 159 211 267 329 404 485
#
# _framework density 21.893854999999999
#
# number of rings (size 3 to 8) (size 9 to 14) (size 15 to 20)
#    0.000    1.000    2.500    1.500   17.500    2.000 
#    0.000    0.000    0.000    0.000    0.000    0.000 
#    0.000    0.000    0.000    0.000    0.000    0.000 
#
# Total GULP energy -178377.572636 kJ/mol
# GULP energy per Si atom -5574.299145 kJ/mol
# Density = 2.184402 g / cm^3
# Si number density = 21.893855 Si / 1000 Ang^3
#
#
#
# Elastic Constant Matrix: (Units=GPa)
#
#
# Indices 1 2 3 4 5 6 
#
# 1 273.1436 68.8424 34.8402 0.0000 0.0000 0.0000
# 2 68.8424 150.6890 46.0185 0.0000 0.0000 0.0000
# 3 34.8402 46.0185 115.6431 0.0000 0.0000 0.0000
# 4 0.0000 0.0000 0.0000 35.0576 0.0000 0.0000
# 5 0.0000 0.0000 0.0000 0.0000 9.9770 0.0000
# 6 0.0000 0.0000 0.0000 0.0000 0.0000 54.9551
#
#
#
# Elastic Compliance Matrix: (Units=1/GPa)
#
#
# Indices 1 2 3 4 5 6 
#
# 1 0.004170 -0.001732 -0.000567 0.000000 0.000000 0.000000
# 2 -0.001732 0.008273 -0.002771 0.000000 0.000000 0.000000
# 3 -0.000567 -0.002771 0.009921 0.000000 0.000000 0.000000
# 4 0.000000 0.000000 0.000000 0.028524 0.000000 0.000000
# 5 0.000000 0.000000 0.000000 0.000000 0.100230 0.000000
# 6 0.000000 0.000000 0.000000 0.000000 0.000000 0.018197
#
#
# Mechanical properties :
#
#
# Convention : Reuss Voigt Hill
#
# Bulk Modulus (GPa) = 81.79954 93.20866 87.50410
# Shear Modulus (GPa) = 27.24360 45.98293 36.61327
#
# Velocity S-wave (km/s) = 3.53136 4.58784 4.09382
# Velocity P-wave (km/s) = 7.35325 8.41010 7.89937
#
# Compressibility (1/GPa) = 0.01222501
#
# Stress axis : x y z
#
# Youngs Moduli (GPa) = 239.81378 120.86834 100.79983
#
# Poissons Ratio (x) = 0.20932 0.05717
# Poissons Ratio (y) = 0.41532 0.27927
# Poissons Ratio (z) = 0.13600 0.33487
#
# Static dielectric constant tensor:
#      x y z
#    x 0.666040 0.000000 0.000000 
#    y 0.000000 1.891980 0.000000 
#    z 0.000000 0.000000 1.887150 
# 
# From -- ./inp_files/22031.got.cif
#   From: 2010.05.17/outbox.cif.g08.bks.cpg/sg64_12_cif.got.tgz:22031.got - 2010.06.03 16:29:19.
