data_PCOD9480328
_publ_section_title
;
Structure prediction by ZEFSAII (Michael W. Deem and Ramdas Pophale) SiO2 
 PCOD9480328
Probable space group: C M C A
;
_chemical_formula_sum "Si O2"
_cell_formula_units_Z 64
_cell_length_a 15.706913
_cell_length_b 18.088020
_cell_length_c 9.851110
_cell_angle_alpha 90.000000
_cell_angle_beta 90.000000
_cell_angle_gamma 90.000000
_cell_volume 2798.768880
_symmetry_space_group_name_H-M "C M C A"
_symmetry_group_IT_number 64
_symmetry_cell_setting 'orthorhombic'
loop_
_space_group_symop_operation_xyz
x,y,z
-x,1/2-y,1/2+z
x,-y,-z
-x,1/2+y,1/2-z
-x,-y,-z
x,1/2+y,1/2-z
-x,y,z
x,1/2-y,1/2+z
1/2+x,1/2+y,z
1/2-x,-y,1/2+z
1/2+x,1/2-y,-z
1/2-x,y,1/2-z
1/2-x,1/2-y,-z
1/2+x,y,1/2-z
1/2-x,1/2+y,z
1/2+x,-y,1/2+z
loop_
_atom_site_type_symbol
_atom_site_label
_atom_site_fract_x
_atom_site_fract_y
_atom_site_fract_z
Si Si1 0.832498 0.690952 0.346786
Si Si2 0.829583 0.481686 0.651441
Si Si3 0.407083 0.242346 0.607805
Si Si4 0.000000 0.027650 0.726423
Si Si5 0.000000 0.117957 0.462349
O O1 0.750000 0.697666 0.250000
O O2 0.855312 0.604572 0.339292
O O3 0.837383 0.709094 0.506899
O O4 0.892256 0.749775 0.268208
O O5 0.801562 0.500000 0.500000
O O6 0.750000 0.495356 0.750000
O O7 0.913454 0.528014 0.688389
O O8 0.500000 0.206833 0.580254
O O9 0.420372 0.328549 0.566892
O O10 0.000000 0.951789 0.637395
O O11 0.000000 0.090858 0.614805
#
# Coordination Sequence:
#
# PCOD9480328 Si02
#       5
#    16  16  16   8   8
#     4  11  23  41  63  96 131 170 214 270 330 387
#     4  11  26  44  68 100 135 176 223 280 334 399
#     4  10  21  40  63  90 127 169 217 265 319 392
#     4  11  21  43  67  95 134 173 228 269 336 394
#     4   9  22  35  71  93 125 175 220 268 340 387
#
# _framework density 22.867197999999998
#
# number of rings (size 3 to 8) (size 9 to 14) (size 15 to 20)
#    0.750    0.750    2.500    1.875    5.250    2.000 
#    0.000    2.500    0.000    0.000    0.000    0.000 
#    0.000    0.000    0.000    0.000    0.000    0.000 
#
# Total GULP energy -178531.392940 kJ/mol
# GULP energy per Si atom -5579.106029 kJ/mol
# Density = 2.281515 g / cm^3
# Si number density = 22.867198 Si / 1000 Ang^3
#
#
#
# Elastic Constant Matrix: (Units=GPa)
#
#
# Indices 1 2 3 4 5 6 
#
# 1 62.2591 -0.6766 25.3293 0.0000 0.0000 0.0000
# 2 -0.6766 23.8196 11.0743 0.0000 0.0000 0.0000
# 3 25.3293 11.0743 148.4190 0.0000 0.0000 0.0000
# 4 0.0000 0.0000 0.0000 30.5263 0.0000 0.0000
# 5 0.0000 0.0000 0.0000 0.0000 38.0445 0.0000
# 6 0.0000 0.0000 0.0000 0.0000 0.0000 -46.9271
#
#
#
# Elastic Compliance Matrix: (Units=1/GPa)
#
#
# Indices 1 2 3 4 5 6 
#
# 1 0.017346 0.001936 -0.003105 0.000000 0.000000 0.000000
# 2 0.001936 0.043707 -0.003592 0.000000 0.000000 0.000000
# 3 -0.003105 -0.003592 0.007536 0.000000 0.000000 0.000000
# 4 0.000000 0.000000 0.000000 0.032759 0.000000 0.000000
# 5 0.000000 0.000000 0.000000 0.000000 0.026285 0.000000
# 6 0.000000 0.000000 0.000000 0.000000 0.000000 -0.021310
#
#
# Mechanical properties :
#
#
# Convention : Reuss Voigt Hill
#
# Bulk Modulus (GPa) = 16.92953 33.99464 25.46209
# Shear Modulus (GPa) = 36.89146 17.58010 27.23578
#
# Velocity S-wave (km/s) = 4.02094 2.77572 3.45489
# Velocity P-wave (km/s) = 5.38300 5.01709 5.20326
#
# Compressibility (1/GPa) = 0.05906838
#
# Stress axis : x y z
#
# Youngs Moduli (GPa) = 57.64985 22.87955 132.70455
#
# Poissons Ratio (x) = -0.04430 0.41202
# Poissons Ratio (y) = -0.11162 0.47663
# Poissons Ratio (z) = 0.17899 0.08218
#
# Static dielectric constant tensor:
#      x y z
#    x 2.003830 0.000000 0.000000 
#    y 0.000000 1.830900 0.000000 
#    z 0.000000 0.000000 1.832520 
# 
# From -- ./inp_files/6811.got.cif
#   From: 2010.05.17/outbox.cif.g08.bks.cpg/sg64_4_cif.got.tgz:6811.got - 2010.06.03 16:29:19.
