data_PCOD9480208
_publ_section_title
;
Structure prediction by ZEFSAII (Michael W. Deem and Ramdas Pophale) SiO2 
 PCOD9480208
Probable space group: C M C A
;
_chemical_formula_sum "Si O2"
_cell_formula_units_Z 116
_cell_length_a 25.927259
_cell_length_b 12.781739
_cell_length_c 16.933515
_cell_angle_alpha 90.000000
_cell_angle_beta 90.000000
_cell_angle_gamma 90.000000
_cell_volume 5611.689951
_symmetry_space_group_name_H-M "C M C A"
_symmetry_group_IT_number 64
_symmetry_cell_setting 'orthorhombic'
loop_
_space_group_symop_operation_xyz
x,y,z
-x,1/2-y,1/2+z
x,-y,-z
-x,1/2+y,1/2-z
-x,-y,-z
x,1/2+y,1/2-z
-x,y,z
x,1/2-y,1/2+z
1/2+x,1/2+y,z
1/2-x,-y,1/2+z
1/2+x,1/2-y,-z
1/2-x,y,1/2-z
1/2-x,1/2-y,-z
1/2+x,y,1/2-z
1/2-x,1/2+y,z
1/2+x,-y,1/2+z
loop_
_atom_site_type_symbol
_atom_site_label
_atom_site_fract_x
_atom_site_fract_y
_atom_site_fract_z
Si Si1 0.378478 0.605932 0.957572
Si Si2 0.306058 0.449743 0.356011
Si Si3 0.000000 0.500000 0.000000
Si Si4 0.842186 0.778357 0.892838
Si Si5 0.090130 0.952123 0.604809
Si Si6 0.189898 0.504752 0.327522
Si Si7 0.558275 0.672285 0.672058
Si Si8 0.439958 0.741303 0.845046
O O1 0.344585 0.565217 0.884865
O O2 0.422932 0.676037 0.920632
O O3 0.397168 0.500000 0.000000
O O4 0.344908 0.673695 0.019323
O O5 0.309683 0.327626 0.380043
O O6 0.350752 0.510097 0.405410
O O7 0.248211 0.492218 0.359935
O O8 0.317461 0.465634 0.262256
O O9 0.952008 0.573378 0.036389
O O10 0.900115 0.742396 0.871901
O O11 0.824917 0.873577 0.837006
O O12 0.091383 0.849022 0.657263
O O13 0.063387 0.052852 0.644319
O O14 0.500000 0.707090 0.656341
O O15 0.569298 0.678120 0.764769
O O16 0.500000 0.766481 0.845505
#
# Coordination Sequence:
#
# PCOD9480208 Si02
#       8
#    16  16   4  16  16  16  16  16
#     4  10  23  41  59  85 128 164 197 259 308 367
#     4  10  23  39  69  92 115 168 212 253 313 375
#     4  12  24  40  60  88 146 160 194 288 310 376
#     4  10  22  39  62  88 122 163 202 248 320 373
#     4  11  23  40  61  93 126 160 206 261 320 369
#     4  10  22  44  61  90 127 154 210 266 301 364
#     4  10  21  39  63  89 120 161 209 260 305 375
#     4  11  23  38  63  91 122 164 210 255 315 374
#
# _framework density 20.671135
#
# number of rings (size 3 to 8) (size 9 to 14) (size 15 to 20)
#    0.000    1.655    1.379    2.483    3.862    5.793 
#    3.724    3.448    0.000    0.000    0.000    0.000 
#    0.000    0.000    0.000    0.000    0.000    0.000 
#
# Total GULP energy -323132.343359 kJ/mol
# GULP energy per Si atom -5571.247299 kJ/mol
# Density = 2.062409 g / cm^3
# Si number density = 20.671135 Si / 1000 Ang^3
#
#
#
# Elastic Constant Matrix: (Units=GPa)
#
#
# Indices 1 2 3 4 5 6 
#
# 1 70.4838 31.4192 -8.0536 0.0000 0.0000 0.0000
# 2 31.4192 124.9371 26.3589 0.0000 0.0000 0.0000
# 3 -8.0536 26.3589 45.8563 0.0000 0.0000 0.0000
# 4 0.0000 0.0000 0.0000 6.2997 0.0000 0.0000
# 5 0.0000 0.0000 0.0000 0.0000 0.9464 0.0000
# 6 0.0000 0.0000 0.0000 0.0000 0.0000 13.9003
#
#
#
# Elastic Compliance Matrix: (Units=1/GPa)
#
#
# Indices 1 2 3 4 5 6 
#
# 1 0.017473 -0.005737 0.006366 0.000000 0.000000 0.000000
# 2 -0.005737 0.010992 -0.007326 0.000000 0.000000 0.000000
# 3 0.006366 -0.007326 0.027137 0.000000 0.000000 0.000000
# 4 0.000000 0.000000 0.000000 0.158738 0.000000 0.000000
# 5 0.000000 0.000000 0.000000 0.000000 1.056607 0.000000
# 6 0.000000 0.000000 0.000000 0.000000 0.000000 0.071941
#
#
# Mechanical properties :
#
#
# Convention : Reuss Voigt Hill
#
# Bulk Modulus (GPa) = 23.69239 37.85850 30.77544
# Shear Modulus (GPa) = 3.64870 16.99946 10.32408
#
# Velocity S-wave (km/s) = 1.33002 2.87082 2.23725
# Velocity P-wave (km/s) = 3.72090 5.41694 4.64695
#
# Compressibility (1/GPa) = 0.04220764
#
# Stress axis : x y z
#
# Youngs Moduli (GPa) = 57.23272 90.97127 36.85063
#
# Poissons Ratio (x) = 0.52192 -0.23461
# Poissons Ratio (y) = 0.32835 0.26998
# Poissons Ratio (z) = -0.36437 0.66648
#
# Static dielectric constant tensor:
#      x y z
#    x 1.744040 0.000000 0.000000 
#    y 0.000000 1.739270 0.000000 
#    z 0.000000 0.000000 1.828650 
# 
# From -- ./inp_files/35509.got.cif
#   From: 2010.05.17/outbox.cif.g08.bks.cpg/sg64_18_cif.got.tgz:35509.got - 2010.06.03 16:29:19.
