data_PCOD9480924
_publ_section_title
;
Structure prediction by ZEFSAII (Michael W. Deem and Ramdas Pophale) SiO2 
 PCOD9480924
Probable space group: C M C A
;
_chemical_formula_sum "Si O2"
_cell_formula_units_Z 116
_cell_length_a 22.048214
_cell_length_b 14.640856
_cell_length_c 14.182381
_cell_angle_alpha 90.000000
_cell_angle_beta 90.000000
_cell_angle_gamma 90.000000
_cell_volume 4578.139616
_symmetry_space_group_name_H-M "C M C A"
_symmetry_group_IT_number 64
_symmetry_cell_setting 'orthorhombic'
loop_
_space_group_symop_operation_xyz
x,y,z
-x,1/2-y,1/2+z
x,-y,-z
-x,1/2+y,1/2-z
-x,-y,-z
x,1/2+y,1/2-z
-x,y,z
x,1/2-y,1/2+z
1/2+x,1/2+y,z
1/2-x,-y,1/2+z
1/2+x,1/2-y,-z
1/2-x,y,1/2-z
1/2-x,1/2-y,-z
1/2+x,y,1/2-z
1/2-x,1/2+y,z
1/2+x,-y,1/2+z
loop_
_atom_site_type_symbol
_atom_site_label
_atom_site_fract_x
_atom_site_fract_y
_atom_site_fract_z
Si Si1 0.371451 0.772362 0.690509
Si Si2 0.743920 0.362308 0.865367
Si Si3 0.569066 0.533033 0.230523
Si Si4 0.571044 0.588431 0.934178
Si Si5 0.000000 0.000000 0.500000
Si Si6 0.333091 0.780436 0.399481
Si Si7 0.903580 0.905813 0.399084
Si Si8 0.260519 0.067300 0.864028
O O1 0.314139 0.797486 0.624570
O O2 0.398928 0.870672 0.717695
O O3 0.350436 0.727911 0.788822
O O4 0.412473 0.695774 0.642231
O O5 0.750000 0.363287 0.750000
O O6 0.802255 0.317485 0.914536
O O7 0.737944 0.466836 0.892530
O O8 0.500000 0.547605 0.199334
O O9 0.595161 0.454038 0.163745
O O10 0.569415 0.485783 0.331496
O O11 0.500000 0.611121 0.929036
O O12 0.609520 0.678584 0.953590
O O13 0.578117 0.500000 0.000000
O O14 0.945210 0.921426 0.489212
O O15 0.280592 0.855280 0.409466
O O16 0.831135 0.922748 0.392150
O O17 0.250000 0.074569 0.750000
#
# Coordination Sequence:
#
# PCOD9480924 Si02
#       8
#    16  16  16  16   4  16  16  16
#     4  11  21  36  69 103 135 177 231 294 346 423
#     4   9  18  30  56 101 135 154 219 287 344 405
#     4  11  23  40  69  98 126 182 238 290 342 415
#     4  10  22  41  65  95 136 179 226 290 359 421
#     4  12  32  48  68 100 142 214 234 276 356 436
#     4  11  18  35  60 103 126 169 224 270 353 406
#     4  12  23  47  71  94 148 189 242 285 348 437
#     4  11  18  36  68 100 131 173 222 294 341 402
#
# _framework density 25.337802
#
# number of rings (size 3 to 8) (size 9 to 14) (size 15 to 20)
#    0.000    1.241    4.828    3.724    0.966    0.552 
#    1.241    2.759    6.069    2.483    0.000    0.000 
#    0.000    0.000    0.000    0.000    0.000    0.000 
#
# Total GULP energy -324063.950936 kJ/mol
# GULP energy per Si atom -5587.309499 kJ/mol
# Density = 2.528013 g / cm^3
# Si number density = 25.337802 Si / 1000 Ang^3
#
#
#
# Elastic Constant Matrix: (Units=GPa)
#
#
# Indices 1 2 3 4 5 6 
#
# 1 140.9648 45.4536 15.5016 0.0000 0.0000 0.0000
# 2 45.4536 137.7483 27.2695 0.0000 0.0000 0.0000
# 3 15.5016 27.2695 75.5986 0.0000 0.0000 0.0000
# 4 0.0000 0.0000 0.0000 38.0792 0.0000 0.0000
# 5 0.0000 0.0000 0.0000 0.0000 -215.1654 0.0000
# 6 0.0000 0.0000 0.0000 0.0000 0.0000 3178.0525
#
#
#
# Elastic Compliance Matrix: (Units=1/GPa)
#
#
# Indices 1 2 3 4 5 6 
#
# 1 0.007977 -0.002486 -0.000739 0.000000 0.000000 0.000000
# 2 -0.002486 0.008593 -0.002590 0.000000 0.000000 0.000000
# 3 -0.000739 -0.002590 0.014313 0.000000 0.000000 0.000000
# 4 0.000000 0.000000 0.000000 0.026261 0.000000 0.000000
# 5 0.000000 0.000000 0.000000 0.000000 -0.004648 0.000000
# 6 0.000000 0.000000 0.000000 0.000000 0.000000 0.000315
#
#
# Mechanical properties :
#
#
# Convention : Reuss Voigt Hill
#
# Bulk Modulus (GPa) = 51.93815 58.97347 55.45581
# Shear Modulus (GPa) = 70.56372 617.93237 344.24804
#
# Velocity S-wave (km/s) = 5.28296 15.63352 11.66869
# Velocity P-wave (km/s) = 7.59971 18.68694 14.26459
#
# Compressibility (1/GPa) = 0.01925367
#
# Stress axis : x y z
#
# Youngs Moduli (GPa) = 125.36376 116.37960 69.86446
#
# Poissons Ratio (x) = 0.28930 0.05163
# Poissons Ratio (y) = 0.31164 0.18093
# Poissons Ratio (z) = 0.09264 0.30139
#
# Static dielectric constant tensor:
#      x y z
#    x 1.848830 0.000000 0.000000 
#    y 0.000000 1.941240 0.000000 
#    z 0.000000 0.000000 2.240310 
# 
# From -- ./inp_files/35107.got.cif
#   From: 2010.05.17/outbox.cif.g08.bks.cpg/sg64_18_cif.got.tgz:35107.got - 2010.06.03 16:29:19.
