data_PCOD9480374
_publ_section_title
;
Structure prediction by ZEFSAII (Michael W. Deem and Ramdas Pophale) SiO2 
 PCOD9480374
Probable space group: C M C A
;
_chemical_formula_sum "Si O2"
_cell_formula_units_Z 96
_cell_length_a 13.662372
_cell_length_b 15.060585
_cell_length_c 21.938608
_cell_angle_alpha 90.000000
_cell_angle_beta 90.000000
_cell_angle_gamma 90.000000
_cell_volume 4514.160704
_symmetry_space_group_name_H-M "C M C A"
_symmetry_group_IT_number 64
_symmetry_cell_setting 'orthorhombic'
loop_
_space_group_symop_operation_xyz
x,y,z
-x,1/2-y,1/2+z
x,-y,-z
-x,1/2+y,1/2-z
-x,-y,-z
x,1/2+y,1/2-z
-x,y,z
x,1/2-y,1/2+z
1/2+x,1/2+y,z
1/2-x,-y,1/2+z
1/2+x,1/2-y,-z
1/2-x,y,1/2-z
1/2-x,1/2-y,-z
1/2+x,y,1/2-z
1/2-x,1/2+y,z
1/2+x,-y,1/2+z
loop_
_atom_site_type_symbol
_atom_site_label
_atom_site_fract_x
_atom_site_fract_y
_atom_site_fract_z
Si Si1 0.387327 0.901712 0.492787
Si Si2 0.737973 0.994987 0.677421
Si Si3 0.617418 0.046459 0.065561
Si Si4 0.385202 0.258595 0.580648
Si Si5 0.110924 0.666336 0.370879
Si Si6 0.268790 0.704940 0.819796
O O1 0.500000 0.917718 0.470872
O O2 0.340090 0.830586 0.447654
O O3 0.391235 0.853099 0.557259
O O4 0.343842 0.000000 0.500000
O O5 0.750000 0.976568 0.750000
O O6 0.714992 0.099780 0.674742
O O7 0.824900 0.984191 0.626624
O O8 0.657066 0.923615 0.656727
O O9 0.500000 0.044168 0.078171
O O10 0.651636 0.148296 0.055957
O O11 0.630848 0.000000 0.000000
O O12 0.500000 0.256432 0.567758
O O13 0.362195 0.254356 0.651969
O O14 0.177992 0.751018 0.355810
O O15 0.000000 0.680086 0.349535
O O16 0.250000 0.726399 0.750000
#
# Coordination Sequence:
#
# PCOD9480374 Si02
#       6
#    16  16  16  16  16  16
#     4   9  19  36  59  92 127 159 205 261 321 392
#     4  11  25  45  67  96 137 180 228 280 340 410
#     4  10  23  42  68 100 134 175 226 282 341 406
#     4  10  21  40  67  94 126 167 212 268 333 394
#     4  11  24  42  66  95 131 174 219 273 333 400
#     4  11  25  43  63  94 130 169 222 276 330 400
#
# _framework density 21.266411999999999
#
# number of rings (size 3 to 8) (size 9 to 14) (size 15 to 20)
#    0.000    1.667    1.667    1.500    2.333    6.667 
#    0.000    3.333    0.000    0.000    0.000    0.000 
#    0.000    0.000    0.000    0.000    0.000    0.000 
#
# Total GULP energy -267713.712991 kJ/mol
# GULP energy per Si atom -5577.369021 kJ/mol
# Density = 2.121801 g / cm^3
# Si number density = 21.266412 Si / 1000 Ang^3
#
#
#
# Elastic Constant Matrix: (Units=GPa)
#
#
# Indices 1 2 3 4 5 6 
#
# 1 48.4353 -2.8424 -3.4549 0.0000 0.0000 0.0000
# 2 -2.8424 107.7091 29.8335 0.0000 0.0000 0.0000
# 3 -3.4549 29.8335 116.6192 0.0000 0.0000 0.0000
# 4 0.0000 0.0000 0.0000 16.8235 0.0000 0.0000
# 5 0.0000 0.0000 0.0000 0.0000 18.6065 0.0000
# 6 0.0000 0.0000 0.0000 0.0000 0.0000 79.7672
#
#
#
# Elastic Compliance Matrix: (Units=1/GPa)
#
#
# Indices 1 2 3 4 5 6 
#
# 1 0.020706 0.000405 0.000510 0.000000 0.000000 0.000000
# 2 0.000405 0.010000 -0.002546 0.000000 0.000000 0.000000
# 3 0.000510 -0.002546 0.009241 0.000000 0.000000 0.000000
# 4 0.000000 0.000000 0.000000 0.059441 0.000000 0.000000
# 5 0.000000 0.000000 0.000000 0.000000 0.053745 0.000000
# 6 0.000000 0.000000 0.000000 0.000000 0.000000 0.012536
#
#
# Mechanical properties :
#
#
# Convention : Reuss Voigt Hill
#
# Bulk Modulus (GPa) = 27.25881 35.53732 31.39806
# Shear Modulus (GPa) = 27.59982 39.65460 33.62721
#
# Velocity S-wave (km/s) = 3.60642 4.32285 3.98079
# Velocity P-wave (km/s) = 5.49430 6.45468 5.99376
#
# Compressibility (1/GPa) = 0.03668539
#
# Stress axis : x y z
#
# Youngs Moduli (GPa) = 48.29458 99.99778 108.20872
#
# Poissons Ratio (x) = -0.04052 -0.05516
# Poissons Ratio (y) = -0.01957 0.27553
# Poissons Ratio (z) = -0.02462 0.25462
#
# Static dielectric constant tensor:
#      x y z
#    x 1.794430 0.000000 0.000000 
#    y 0.000000 2.648250 0.000000 
#    z 0.000000 0.000000 1.780060 
# 
# From -- ./inp_files/39156.got.cif
#   From: 2010.05.17/outbox.cif.g08.bks.cpg/sg64_20_cif.got.tgz:39156.got - 2010.06.03 16:29:19.
