data_PCOD9480326
_publ_section_title
;
Structure prediction by ZEFSAII (Michael W. Deem and Ramdas Pophale) SiO2 
 PCOD9480326
Probable space group: C M C A
;
_chemical_formula_sum "Si O2"
_cell_formula_units_Z 64
_cell_length_a 14.429614
_cell_length_b 14.507638
_cell_length_c 13.856799
_cell_angle_alpha 90.000000
_cell_angle_beta 90.000000
_cell_angle_gamma 90.000000
_cell_volume 2900.776987
_symmetry_space_group_name_H-M "C M C A"
_symmetry_group_IT_number 64
_symmetry_cell_setting 'orthorhombic'
loop_
_space_group_symop_operation_xyz
x,y,z
-x,1/2-y,1/2+z
x,-y,-z
-x,1/2+y,1/2-z
-x,-y,-z
x,1/2+y,1/2-z
-x,y,z
x,1/2-y,1/2+z
1/2+x,1/2+y,z
1/2-x,-y,1/2+z
1/2+x,1/2-y,-z
1/2-x,y,1/2-z
1/2-x,1/2-y,-z
1/2+x,y,1/2-z
1/2-x,1/2+y,z
1/2+x,-y,1/2+z
loop_
_atom_site_type_symbol
_atom_site_label
_atom_site_fract_x
_atom_site_fract_y
_atom_site_fract_z
Si Si1 0.392805 0.346178 0.714143
Si Si2 0.701544 0.805893 0.413807
Si Si3 0.207144 0.991312 0.392424
Si Si4 0.102767 0.899602 0.921960
O O1 0.500000 0.345036 0.683607
O O2 0.336352 0.266101 0.662411
O O3 0.348930 0.445028 0.682002
O O4 0.390330 0.332913 0.829307
O O5 0.750000 0.750000 0.500000
O O6 0.770698 0.884380 0.373250
O O7 0.618354 0.854519 0.473897
O O8 0.163454 0.000000 0.500000
O O9 0.309034 0.036007 0.404164
O O10 0.000000 0.941118 0.914049
#
# Coordination Sequence:
#
# PCOD9480326 Si02
#       4
#    16  16  16  16
#     4  11  23  43  66  96 134 172 214 270 320 378
#     4  11  22  41  66  94 125 173 215 261 323 381
#     4  10  21  40  63  90 123 165 213 262 323 376
#     4  10  22  41  64  93 131 169 213 266 321 381
#
# _framework density 22.063054000000001
#
# number of rings (size 3 to 8) (size 9 to 14) (size 15 to 20)
#    0.000    1.500    5.000    1.500    0.000    6.000 
#    9.000    0.000    0.000    0.000    0.000    0.000 
#    0.000    0.000    0.000    0.000    0.000    0.000 
#
# Total GULP energy -178660.600925 kJ/mol
# GULP energy per Si atom -5583.143779 kJ/mol
# Density = 2.201284 g / cm^3
# Si number density = 22.063054 Si / 1000 Ang^3
#
#
#
# Elastic Constant Matrix: (Units=GPa)
#
#
# Indices 1 2 3 4 5 6 
#
# 1 77.0312 21.6649 -7.4571 0.0000 0.0000 0.0000
# 2 21.6649 127.8976 33.5820 0.0000 0.0000 0.0000
# 3 -7.4571 33.5820 108.3070 0.0000 0.0000 0.0000
# 4 0.0000 0.0000 0.0000 35.4104 0.0000 0.0000
# 5 0.0000 0.0000 0.0000 0.0000 31.7263 0.0000
# 6 0.0000 0.0000 0.0000 0.0000 0.0000 10.3676
#
#
#
# Elastic Compliance Matrix: (Units=1/GPa)
#
#
# Indices 1 2 3 4 5 6 
#
# 1 0.013962 -0.002849 0.001845 0.000000 0.000000 0.000000
# 2 -0.002849 0.009093 -0.003016 0.000000 0.000000 0.000000
# 3 0.001845 -0.003016 0.010295 0.000000 0.000000 0.000000
# 4 0.000000 0.000000 0.000000 0.028240 0.000000 0.000000
# 5 0.000000 0.000000 0.000000 0.000000 0.031520 0.000000
# 6 0.000000 0.000000 0.000000 0.000000 0.000000 0.096454
#
#
# Mechanical properties :
#
#
# Convention : Reuss Voigt Hill
#
# Bulk Modulus (GPa) = 39.51089 45.42393 42.46741
# Shear Modulus (GPa) = 24.26697 33.19726 28.73211
#
# Velocity S-wave (km/s) = 3.32006 3.88319 3.61262
# Velocity P-wave (km/s) = 5.71350 6.38267 6.05734
#
# Compressibility (1/GPa) = 0.02530948
#
# Stress axis : x y z
#
# Youngs Moduli (GPa) = 71.62442 109.97181 97.13387
#
# Poissons Ratio (x) = 0.31335 -0.17919
# Poissons Ratio (y) = 0.20409 0.29292
# Poissons Ratio (z) = -0.13213 0.33164
#
# Static dielectric constant tensor:
#      x y z
#    x 1.808510 0.000000 0.000000 
#    y 0.000000 1.894880 0.000000 
#    z 0.000000 0.000000 1.860380 
# 
# From -- ./inp_files/23232.got.cif
#   From: 2010.05.17/outbox.cif.g08.bks.cpg/sg64_12_cif.got.tgz:23232.got - 2010.06.03 16:29:19.
