data_PCOD9480363
_publ_section_title
;
Structure prediction by ZEFSAII (Michael W. Deem and Ramdas Pophale) SiO2 
 PCOD9480363
Probable space group: C M C A
;
_chemical_formula_sum "Si O2"
_cell_formula_units_Z 72
_cell_length_a 13.446076
_cell_length_b 19.188862
_cell_length_c 13.795781
_cell_angle_alpha 90.000000
_cell_angle_beta 90.000000
_cell_angle_gamma 90.000000
_cell_volume 3559.517011
_symmetry_space_group_name_H-M "C M C A"
_symmetry_group_IT_number 64
_symmetry_cell_setting 'orthorhombic'
loop_
_space_group_symop_operation_xyz
x,y,z
-x,1/2-y,1/2+z
x,-y,-z
-x,1/2+y,1/2-z
-x,-y,-z
x,1/2+y,1/2-z
-x,y,z
x,1/2-y,1/2+z
1/2+x,1/2+y,z
1/2-x,-y,1/2+z
1/2+x,1/2-y,-z
1/2-x,y,1/2-z
1/2-x,1/2-y,-z
1/2+x,y,1/2-z
1/2-x,1/2+y,z
1/2+x,-y,1/2+z
loop_
_atom_site_type_symbol
_atom_site_label
_atom_site_fract_x
_atom_site_fract_y
_atom_site_fract_z
Si Si1 0.801610 0.028707 0.397448
Si Si2 0.118860 0.170243 0.308633
Si Si3 0.619457 0.820148 0.387068
Si Si4 0.617857 0.118132 0.402135
Si Si5 0.750000 0.918461 0.250000
O O1 0.849986 0.101168 0.365921
O O2 0.684446 0.048764 0.403584
O O3 0.836231 0.000000 0.500000
O O4 0.814627 0.969692 0.317304
O O5 0.151240 0.241951 0.358461
O O6 0.147179 0.159898 0.195607
O O7 0.000000 0.172966 0.309003
O O8 0.500000 0.827118 0.371339
O O9 0.638057 0.839322 0.499422
O O10 0.681021 0.871993 0.318893
O O11 0.500000 0.103282 0.397849
#
# Coordination Sequence:
#
# PCOD9480363 Si02
#       5
#    16  16  16  16   8
#     4  12  24  40  61  98 128 165 211 258 323 375
#     4  10  23  43  66  91 129 171 208 258 319 379
#     4  10  24  43  66  96 124 166 218 261 311 375
#     4  10  21  40  66  90 124 170 216 257 304 377
#     4  12  24  38  64  98 128 158 208 272 312 362
#
# _framework density 20.227463
#
# number of rings (size 3 to 8) (size 9 to 14) (size 15 to 20)
#    0.000    1.333    4.444    0.000    3.111    5.333 
#    0.000    2.222    0.000    0.000    0.000    0.000 
#    0.000    0.000    0.000    0.000    0.000    0.000 
#
# Total GULP energy -201190.677381 kJ/mol
# GULP energy per Si atom -5588.629927 kJ/mol
# Density = 2.018142 g / cm^3
# Si number density = 20.227463 Si / 1000 Ang^3
#
#
#
# Elastic Constant Matrix: (Units=GPa)
#
#
# Indices 1 2 3 4 5 6 
#
# 1 21.3645 16.0279 12.6544 0.0000 0.0000 0.0000
# 2 16.0279 146.1576 71.7209 0.0000 0.0000 0.0000
# 3 12.6544 71.7209 150.4113 0.0000 0.0000 0.0000
# 4 0.0000 0.0000 0.0000 31.3420 0.0000 0.0000
# 5 0.0000 0.0000 0.0000 0.0000 29.7376 0.0000
# 6 0.0000 0.0000 0.0000 0.0000 0.0000 25.0338
#
#
#
# Elastic Compliance Matrix: (Units=1/GPa)
#
#
# Indices 1 2 3 4 5 6 
#
# 1 0.051526 -0.004599 -0.002142 0.000000 0.000000 0.000000
# 2 -0.004599 0.009342 -0.004068 0.000000 0.000000 0.000000
# 3 -0.002142 -0.004068 0.008768 0.000000 0.000000 0.000000
# 4 0.000000 0.000000 0.000000 0.031906 0.000000 0.000000
# 5 0.000000 0.000000 0.000000 0.000000 0.033627 0.000000
# 6 0.000000 0.000000 0.000000 0.000000 0.000000 0.039946
#
#
# Mechanical properties :
#
#
# Convention : Reuss Voigt Hill
#
# Bulk Modulus (GPa) = 20.82532 57.63776 39.23154
# Shear Modulus (GPa) = 23.50284 31.72470 27.61377
#
# Velocity S-wave (km/s) = 3.41240 3.96460 3.69882
# Velocity P-wave (km/s) = 5.08369 7.03662 6.13832
#
# Compressibility (1/GPa) = 0.04801847
#
# Stress axis : x y z
#
# Youngs Moduli (GPa) = 19.40774 107.03861 114.04729
#
# Poissons Ratio (x) = 0.49231 0.24427
# Poissons Ratio (y) = 0.08926 0.46392
# Poissons Ratio (z) = 0.04157 0.43541
#
# Static dielectric constant tensor:
#      x y z
#    x 1.749080 0.000000 0.000000 
#    y 0.000000 1.675090 0.000000 
#    z 0.000000 0.000000 1.718800 
# 
# From -- ./inp_files/23497.got.cif
#   From: 2010.05.17/outbox.cif.g08.bks.cpg/sg64_12_cif.got.tgz:23497.got - 2010.06.03 16:29:19.
