data_PCOD9480277
_publ_section_title
;
Structure prediction by ZEFSAII (Michael W. Deem and Ramdas Pophale) SiO2 
 PCOD9480277
Probable space group: C M C A
;
_chemical_formula_sum "Si O2"
_cell_formula_units_Z 112
_cell_length_a 16.777942
_cell_length_b 14.837549
_cell_length_c 21.206946
_cell_angle_alpha 90.000000
_cell_angle_beta 90.000000
_cell_angle_gamma 90.000000
_cell_volume 5279.332137
_symmetry_space_group_name_H-M "C M C A"
_symmetry_group_IT_number 64
_symmetry_cell_setting 'orthorhombic'
loop_
_space_group_symop_operation_xyz
x,y,z
-x,1/2-y,1/2+z
x,-y,-z
-x,1/2+y,1/2-z
-x,-y,-z
x,1/2+y,1/2-z
-x,y,z
x,1/2-y,1/2+z
1/2+x,1/2+y,z
1/2-x,-y,1/2+z
1/2+x,1/2-y,-z
1/2-x,y,1/2-z
1/2-x,1/2-y,-z
1/2+x,y,1/2-z
1/2-x,1/2+y,z
1/2+x,-y,1/2+z
loop_
_atom_site_type_symbol
_atom_site_label
_atom_site_fract_x
_atom_site_fract_y
_atom_site_fract_z
Si Si1 0.592619 0.397938 0.170389
Si Si2 0.908623 0.372044 0.112898
Si Si3 0.840135 0.230916 0.726636
Si Si4 0.594713 0.584015 0.245699
Si Si5 0.696717 0.536542 0.938355
Si Si6 0.317437 0.325628 0.500517
Si Si7 0.664435 0.065294 0.118101
O O1 0.500000 0.397299 0.154212
O O2 0.612917 0.314889 0.215547
O O3 0.608911 0.490075 0.209880
O O4 0.645151 0.402723 0.107722
O O5 0.850337 0.335950 0.167505
O O6 0.888248 0.316658 0.049704
O O7 0.891202 0.478327 0.103516
O O8 0.000000 0.360025 0.132805
O O9 0.750000 0.239749 0.750000
O O10 0.878004 0.326863 0.708786
O O11 0.500000 0.588505 0.259162
O O12 0.644893 0.587639 0.310232
O O13 0.767653 0.591003 0.971730
O O14 0.744036 0.464462 0.895116
O O15 0.650348 0.500000 0.000000
O O16 0.250000 0.250000 0.500000
O O17 0.348789 0.353728 0.569040
#
# Coordination Sequence:
#
# PCOD9480277 Si02
#       7
#    16  16  16  16  16  16  16
#     4  11  24  43  65  94 134 171 216 276 328 388
#     4  11  22  42  66  93 130 170 221 278 329 386
#     4  12  26  40  65  95 131 173 217 275 335 398
#     4  11  25  41  65 100 132 170 217 272 336 397
#     4   9  21  40  62  90 123 170 217 260 313 390
#     4  10  23  40  62  95 131 166 220 269 322 393
#     4  10  21  39  67  91 125 169 216 270 323 394
#
# _framework density 21.214804000000001
#
# number of rings (size 3 to 8) (size 9 to 14) (size 15 to 20)
#    0.000    1.429    1.429    4.714    6.000    3.143 
#    0.000    0.714    0.000    0.000    0.000    0.000 
#    0.000    0.000    0.000    0.000    0.000    0.000 
#
# Total GULP energy -312728.365860 kJ/mol
# GULP energy per Si atom -5584.435105 kJ/mol
# Density = 2.116652 g / cm^3
# Si number density = 21.214804 Si / 1000 Ang^3
#
#
#
# Elastic Constant Matrix: (Units=GPa)
#
#
# Indices 1 2 3 4 5 6 
#
# 1 59.1590 7.8073 14.1004 0.0000 0.0000 0.0000
# 2 7.8073 62.1957 -14.8775 0.0000 0.0000 0.0000
# 3 14.1004 -14.8775 29.5105 0.0000 0.0000 0.0000
# 4 0.0000 0.0000 0.0000 19.6027 0.0000 0.0000
# 5 0.0000 0.0000 0.0000 0.0000 15.9922 0.0000
# 6 0.0000 0.0000 0.0000 0.0000 0.0000 29.7517
#
#
#
# Elastic Compliance Matrix: (Units=1/GPa)
#
#
# Indices 1 2 3 4 5 6 
#
# 1 0.020681 -0.005640 -0.012725 0.000000 0.000000 0.000000
# 2 -0.005640 0.019821 0.012687 0.000000 0.000000 0.000000
# 3 -0.012725 0.012687 0.046363 0.000000 0.000000 0.000000
# 4 0.000000 0.000000 0.000000 0.051013 0.000000 0.000000
# 5 0.000000 0.000000 0.000000 0.000000 0.062531 0.000000
# 6 0.000000 0.000000 0.000000 0.000000 0.000000 0.033612
#
#
# Mechanical properties :
#
#
# Convention : Reuss Voigt Hill
#
# Bulk Modulus (GPa) = 13.24326 18.32508 15.78417
# Shear Modulus (GPa) = 18.48125 22.65832 20.56979
#
# Velocity S-wave (km/s) = 2.95473 3.27164 3.11721
# Velocity P-wave (km/s) = 4.23043 4.78833 4.51800
#
# Compressibility (1/GPa) = 0.07551013
#
# Stress axis : x y z
#
# Youngs Moduli (GPa) = 48.35395 50.45118 21.56913
#
# Poissons Ratio (x) = 0.28454 0.27446
# Poissons Ratio (y) = 0.27271 -0.27366
# Poissons Ratio (z) = 0.61530 -0.64010
#
# Static dielectric constant tensor:
#      x y z
#    x 1.749650 0.000000 0.000000 
#    y 0.000000 1.879790 0.000000 
#    z 0.000000 0.000000 1.819370 
# 
# From -- ./inp_files/45265.got.cif
#   From: 2010.05.17/outbox.cif.g08.bks.cpg/sg64_23_cif.got.tgz:45265.got - 2010.06.03 16:29:19.
