data_PCOD9480701
_publ_section_title
;
Structure prediction by ZEFSAII (Michael W. Deem and Ramdas Pophale) SiO2 
 PCOD9480701
Probable space group: C M C A
;
_chemical_formula_sum "Si O2"
_cell_formula_units_Z 64
_cell_length_a 17.881563
_cell_length_b 14.541156
_cell_length_c 11.685516
_cell_angle_alpha 90.000000
_cell_angle_beta 90.000000
_cell_angle_gamma 90.000000
_cell_volume 3038.451477
_symmetry_space_group_name_H-M "C M C A"
_symmetry_group_IT_number 64
_symmetry_cell_setting 'orthorhombic'
loop_
_space_group_symop_operation_xyz
x,y,z
-x,1/2-y,1/2+z
x,-y,-z
-x,1/2+y,1/2-z
-x,-y,-z
x,1/2+y,1/2-z
-x,y,z
x,1/2-y,1/2+z
1/2+x,1/2+y,z
1/2-x,-y,1/2+z
1/2+x,1/2-y,-z
1/2-x,y,1/2-z
1/2-x,1/2-y,-z
1/2+x,y,1/2-z
1/2-x,1/2+y,z
1/2+x,-y,1/2+z
loop_
_atom_site_type_symbol
_atom_site_label
_atom_site_fract_x
_atom_site_fract_y
_atom_site_fract_z
Si Si1 0.915255 0.926099 0.394921
Si Si2 0.332592 0.720522 0.464243
Si Si3 0.912109 0.603069 0.223580
Si Si4 0.086696 0.601795 0.489528
O O1 0.864602 0.841647 0.431500
O O2 0.000000 0.892251 0.381713
O O3 0.913607 0.000000 0.500000
O O4 0.896812 0.993485 0.290101
O O5 0.250000 0.750000 0.500000
O O6 0.353317 0.658679 0.353528
O O7 0.375491 0.815800 0.444466
O O8 0.908619 0.627918 0.355762
O O9 0.000000 0.617102 0.185262
O O10 0.120432 0.500000 0.500000
O O11 0.000000 0.595834 0.524208
#
# Coordination Sequence:
#
# PCOD9480701 Si02
#       4
#    16  16  16  16
#     4   8  15  32  58  82 103 138 193 242 278 330
#     4  11  22  35  55  86 120 153 188 230 288 359
#     4   9  19  38  62  83 108 148 197 248 294 335
#     4  10  22  39  58  83 114 149 195 246 292 345
#
# _framework density 21.063361
#
# number of rings (size 3 to 8) (size 9 to 14) (size 15 to 20)
#    0.000    2.500    0.000    3.750    0.000    6.000 
#    0.000    5.000    0.000    0.000    0.000    0.000 
#    0.000    0.000    0.000    0.000    0.000    0.000 
#
# Total GULP energy -178451.173969 kJ/mol
# GULP energy per Si atom -5576.599187 kJ/mol
# Density = 2.101542 g / cm^3
# Si number density = 21.063361 Si / 1000 Ang^3
#
#
#
# Elastic Constant Matrix: (Units=GPa)
#
#
# Indices 1 2 3 4 5 6 
#
# 1 92.6930 66.6512 4.9452 0.0000 0.0000 0.0000
# 2 66.6512 132.3045 0.8445 0.0000 0.0000 0.0000
# 3 4.9452 0.8445 18.1952 0.0000 0.0000 0.0000
# 4 0.0000 0.0000 0.0000 25.5551 0.0000 0.0000
# 5 0.0000 0.0000 0.0000 0.0000 5.3398 0.0000
# 6 0.0000 0.0000 0.0000 0.0000 0.0000 -66.3619
#
#
#
# Elastic Compliance Matrix: (Units=1/GPa)
#
#
# Indices 1 2 3 4 5 6 
#
# 1 0.017243 -0.008659 -0.004285 0.000000 0.000000 0.000000
# 2 -0.008659 0.011909 0.001801 0.000000 0.000000 0.000000
# 3 -0.004285 0.001801 0.056040 0.000000 0.000000 0.000000
# 4 0.000000 0.000000 0.000000 0.039131 0.000000 0.000000
# 5 0.000000 0.000000 0.000000 0.000000 0.187273 0.000000
# 6 0.000000 0.000000 0.000000 0.000000 0.000000 -0.015069
#
#
# Mechanical properties :
#
#
# Convention : Reuss Voigt Hill
#
# Bulk Modulus (GPa) = 15.89662 43.11939 29.50800
# Shear Modulus (GPa) = 14.71523 4.29006 9.50264
#
# Velocity S-wave (km/s) = 2.64600 1.42869 2.12632
# Velocity P-wave (km/s) = 4.11078 4.82050 4.47972
#
# Compressibility (1/GPa) = 0.06290647
#
# Stress axis : x y z
#
# Youngs Moduli (GPa) = 57.99290 83.96865 17.84429
#
# Poissons Ratio (x) = 0.72712 0.07646
# Poissons Ratio (y) = 0.50219 -0.03213
# Poissons Ratio (z) = 0.24848 -0.15121
#
# Static dielectric constant tensor:
#      x y z
#    x 1.779740 0.000000 0.000000 
#    y 0.000000 1.805980 0.000000 
#    z 0.000000 0.000000 1.855240 
# 
# From -- ./inp_files/15454.got.cif
#   From: 2010.05.17/outbox.cif.g08.bks.cpg/sg64_8_cif.got.tgz:15454.got - 2010.06.03 16:29:19.
