data_PCOD9480230
_publ_section_title
;
Structure prediction by ZEFSAII (Michael W. Deem and Ramdas Pophale) SiO2 
 PCOD9480230
Probable space group: C M C A
;
_chemical_formula_sum "Si O2"
_cell_formula_units_Z 104
_cell_length_a 22.992252
_cell_length_b 9.049284
_cell_length_c 22.459679
_cell_angle_alpha 90.000000
_cell_angle_beta 90.000000
_cell_angle_gamma 90.000000
_cell_volume 4673.037583
_symmetry_space_group_name_H-M "C M C A"
_symmetry_group_IT_number 64
_symmetry_cell_setting 'orthorhombic'
loop_
_space_group_symop_operation_xyz
x,y,z
-x,1/2-y,1/2+z
x,-y,-z
-x,1/2+y,1/2-z
-x,-y,-z
x,1/2+y,1/2-z
-x,y,z
x,1/2-y,1/2+z
1/2+x,1/2+y,z
1/2-x,-y,1/2+z
1/2+x,1/2-y,-z
1/2-x,y,1/2-z
1/2-x,1/2-y,-z
1/2+x,y,1/2-z
1/2-x,1/2+y,z
1/2+x,-y,1/2+z
loop_
_atom_site_type_symbol
_atom_site_label
_atom_site_fract_x
_atom_site_fract_y
_atom_site_fract_z
Si Si1 0.796789 0.185476 0.624453
Si Si2 0.872849 0.045183 0.166592
Si Si3 0.500000 0.943497 0.632570
Si Si4 0.830011 0.761588 0.103547
Si Si5 0.900800 0.015731 0.421972
Si Si6 0.694666 0.555589 0.283546
Si Si7 0.500000 0.208144 0.111099
Si Si8 0.500000 0.202303 0.968786
O O1 0.826281 0.338510 0.641579
O O2 0.736940 0.202223 0.588396
O O3 0.848489 0.090298 0.596569
O O4 0.782633 0.090573 0.683279
O O5 0.865374 0.905584 0.122847
O O6 0.853945 0.017019 0.234721
O O7 0.939061 0.100868 0.162988
O O8 0.500000 0.123952 0.633685
O O9 0.500000 0.852835 0.569819
O O10 0.863749 0.659712 0.055925
O O11 0.824911 0.666189 0.164683
O O12 0.945179 0.902328 0.452979
O O13 0.943900 0.104654 0.376360
O O14 0.750000 0.620095 0.250000
O O15 0.500000 0.227259 0.039132
#
# Coordination Sequence:
#
# PCOD9480230 Si02
#       8
#    16  16   8  16  16  16   8   8
#     4  11  21  36  61  92 126 169 207 253 296 356
#     4  12  22  37  57  88 127 161 214 261 298 352
#     4  12  25  44  64  94 124 154 202 262 329 366
#     4  11  21  36  61  92 126 169 207 253 296 356
#     4  10  21  39  63  97 124 153 202 250 313 365
#     4  11  21  35  58  88 123 169 225 251 285 343
#     4  11  23  45  74  92 111 153 206 262 311 392
#     4  11  23  45  74  92 111 153 206 262 311 392
#
# _framework density 22.255331999999999
#
# number of rings (size 3 to 8) (size 9 to 14) (size 15 to 20)
#    0.000    0.923    6.154    3.000    0.000    0.000 
#    0.000    9.231    0.000    3.692    0.000    0.000 
#    0.000    0.000    0.000    0.000    0.000    0.000 
#
# Total GULP energy -289876.398058 kJ/mol
# GULP energy per Si atom -5574.546116 kJ/mol
# Density = 2.220468 g / cm^3
# Si number density = 22.255332 Si / 1000 Ang^3
#
#
#
# Elastic Constant Matrix: (Units=GPa)
#
#
# Indices 1 2 3 4 5 6 
#
# 1 173.0464 3.7751 16.9666 0.0000 0.0000 0.0000
# 2 3.7751 86.4074 0.4522 0.0000 0.0000 0.0000
# 3 16.9666 0.4522 28.8391 0.0000 0.0000 0.0000
# 4 0.0000 0.0000 0.0000 19.3562 0.0000 0.0000
# 5 0.0000 0.0000 0.0000 0.0000 27.0390 0.0000
# 6 0.0000 0.0000 0.0000 0.0000 0.0000 43.1590
#
#
#
# Elastic Compliance Matrix: (Units=1/GPa)
#
#
# Indices 1 2 3 4 5 6 
#
# 1 0.006138 -0.000249 -0.003607 0.000000 0.000000 0.000000
# 2 -0.000249 0.011584 -0.000035 0.000000 0.000000 0.000000
# 3 -0.003607 -0.000035 0.036798 0.000000 0.000000 0.000000
# 4 0.000000 0.000000 0.000000 0.051663 0.000000 0.000000
# 5 0.000000 0.000000 0.000000 0.000000 0.036984 0.000000
# 6 0.000000 0.000000 0.000000 0.000000 0.000000 0.023170
#
#
# Mechanical properties :
#
#
# Convention : Reuss Voigt Hill
#
# Bulk Modulus (GPa) = 21.39631 36.74231 29.06931
# Shear Modulus (GPa) = 26.35762 35.71744 31.03753
#
# Velocity S-wave (km/s) = 3.44514 4.01046 3.73850
# Velocity P-wave (km/s) = 5.04581 6.16363 5.63252
#
# Compressibility (1/GPa) = 0.04673703
#
# Stress axis : x y z
#
# Youngs Moduli (GPa) = 162.92218 86.32480 27.17555
#
# Poissons Ratio (x) = 0.02152 0.09803
# Poissons Ratio (y) = 0.04061 0.00095
# Poissons Ratio (z) = 0.58768 0.00302
#
# Static dielectric constant tensor:
#      x y z
#    x 1.883390 0.000000 0.000000 
#    y 0.000000 1.854270 0.000000 
#    z 0.000000 0.000000 1.902760 
# 
# From -- ./inp_files/50807.got.cif
#   From: 2010.05.17/outbox.cif.g08.bks.cpg/sg64_26_cif.got.tgz:50807.got - 2010.06.03 16:29:19.
