data_PCOD9480999
_publ_section_title
;
Structure prediction by ZEFSAII (Michael W. Deem and Ramdas Pophale) SiO2 
 PCOD9480999
Probable space group: C M C A
;
_chemical_formula_sum "Si O2"
_cell_formula_units_Z 80
_cell_length_a 13.889461
_cell_length_b 12.992350
_cell_length_c 20.764953
_cell_angle_alpha 90.000000
_cell_angle_beta 90.000000
_cell_angle_gamma 90.000000
_cell_volume 3747.175696
_symmetry_space_group_name_H-M "C M C A"
_symmetry_group_IT_number 64
_symmetry_cell_setting 'orthorhombic'
loop_
_space_group_symop_operation_xyz
x,y,z
-x,1/2-y,1/2+z
x,-y,-z
-x,1/2+y,1/2-z
-x,-y,-z
x,1/2+y,1/2-z
-x,y,z
x,1/2-y,1/2+z
1/2+x,1/2+y,z
1/2-x,-y,1/2+z
1/2+x,1/2-y,-z
1/2-x,y,1/2-z
1/2-x,1/2-y,-z
1/2+x,y,1/2-z
1/2-x,1/2+y,z
1/2+x,-y,1/2+z
loop_
_atom_site_type_symbol
_atom_site_label
_atom_site_fract_x
_atom_site_fract_y
_atom_site_fract_z
Si Si1 0.884170 0.110872 0.474909
Si Si2 0.221269 0.073082 0.823498
Si Si3 0.115150 0.864959 0.796982
Si Si4 0.616279 0.784336 0.844230
Si Si5 0.112724 0.329633 0.111393
O O1 0.848521 0.155557 0.407581
O O2 0.868733 0.186512 0.535771
O O3 0.000000 0.099904 0.467054
O O4 0.848123 0.000000 0.500000
O O5 0.250000 0.093369 0.750000
O O6 0.155677 0.168371 0.845674
O O7 0.166255 0.965849 0.823655
O O8 0.319550 0.079534 0.863526
O O9 0.144496 0.837519 0.723529
O O10 0.133339 0.767925 0.843481
O O11 0.000000 0.881986 0.796087
O O12 0.500000 0.781160 0.844691
O O13 0.000000 0.356509 0.118906
#
# Coordination Sequence:
#
# PCOD9480999 Si02
#       5
#    16  16  16  16  16
#     4   9  20  39  66  96 129 176 223 264 321 394
#     4  12  25  37  67  96 130 165 217 271 327 391
#     4  10  23  42  66  95 130 170 215 273 336 384
#     4  10  22  42  66  96 132 169 220 275 325 388
#     4  10  23  44  65  93 133 174 217 268 324 386
#
# _framework density 21.349412999999998
#
# number of rings (size 3 to 8) (size 9 to 14) (size 15 to 20)
#    0.000    1.800    2.000    0.600    5.600    1.600 
#    0.000    1.000    0.000    4.800    0.000    0.000 
#    0.000    0.000    0.000    0.000    0.000    0.000 
#
# Total GULP energy -223730.905273 kJ/mol
# GULP energy per Si atom -5593.272632 kJ/mol
# Density = 2.130082 g / cm^3
# Si number density = 21.349413 Si / 1000 Ang^3
#
#
#
# Elastic Constant Matrix: (Units=GPa)
#
#
# Indices 1 2 3 4 5 6 
#
# 1 71.9229 46.9819 54.8503 0.0000 0.0000 0.0000
# 2 46.9819 132.7860 96.2594 0.0000 0.0000 0.0000
# 3 54.8503 96.2594 178.2004 0.0000 0.0000 0.0000
# 4 0.0000 0.0000 0.0000 29.2911 0.0000 0.0000
# 5 0.0000 0.0000 0.0000 0.0000 21.1913 0.0000
# 6 0.0000 0.0000 0.0000 0.0000 0.0000 30.9226
#
#
#
# Elastic Compliance Matrix: (Units=1/GPa)
#
#
# Indices 1 2 3 4 5 6 
#
# 1 0.019488 -0.004186 -0.003737 0.000000 0.000000 0.000000
# 2 -0.004186 0.013277 -0.005883 0.000000 0.000000 0.000000
# 3 -0.003737 -0.005883 0.009940 0.000000 0.000000 0.000000
# 4 0.000000 0.000000 0.000000 0.034140 0.000000 0.000000
# 5 0.000000 0.000000 0.000000 0.000000 0.047189 0.000000
# 6 0.000000 0.000000 0.000000 0.000000 0.000000 0.032339
#
#
# Mechanical properties :
#
#
# Convention : Reuss Voigt Hill
#
# Bulk Modulus (GPa) = 66.26084 86.56585 76.41335
# Shear Modulus (GPa) = 26.45252 28.60219 27.52736
#
# Velocity S-wave (km/s) = 3.52380 3.66419 3.59468
# Velocity P-wave (km/s) = 6.90362 7.65094 7.28687
#
# Compressibility (1/GPa) = 0.01509187
#
# Stress axis : x y z
#
# Youngs Moduli (GPa) = 51.31252 75.31794 100.60224
#
# Poissons Ratio (x) = 0.31528 0.37599
# Poissons Ratio (y) = 0.21479 0.59189
# Poissons Ratio (z) = 0.19177 0.44313
#
# Static dielectric constant tensor:
#      x y z
#    x 1.789460 0.000000 0.000000 
#    y 0.000000 1.763730 0.000000 
#    z 0.000000 0.000000 1.779230 
# 
# From -- ./inp_files/39518.got.cif
#   From: 2010.05.17/outbox.cif.g08.bks.cpg/sg64_20_cif.got.tgz:39518.got - 2010.06.03 16:29:19.
