data_PCOD9480864
_publ_section_title
;
Structure prediction by ZEFSAII (Michael W. Deem and Ramdas Pophale) SiO2 
 PCOD9480864
Probable space group: C M C A
;
_chemical_formula_sum "Si O2"
_cell_formula_units_Z 64
_cell_length_a 19.970037
_cell_length_b 19.538524
_cell_length_c 7.727322
_cell_angle_alpha 90.000000
_cell_angle_beta 90.000000
_cell_angle_gamma 90.000000
_cell_volume 3015.085499
_symmetry_space_group_name_H-M "C M C A"
_symmetry_group_IT_number 64
_symmetry_cell_setting 'orthorhombic'
loop_
_space_group_symop_operation_xyz
x,y,z
-x,1/2-y,1/2+z
x,-y,-z
-x,1/2+y,1/2-z
-x,-y,-z
x,1/2+y,1/2-z
-x,y,z
x,1/2-y,1/2+z
1/2+x,1/2+y,z
1/2-x,-y,1/2+z
1/2+x,1/2-y,-z
1/2-x,y,1/2-z
1/2-x,1/2-y,-z
1/2+x,y,1/2-z
1/2-x,1/2+y,z
1/2+x,-y,1/2+z
loop_
_atom_site_type_symbol
_atom_site_label
_atom_site_fract_x
_atom_site_fract_y
_atom_site_fract_z
Si Si1 0.179444 0.722951 0.158683
Si Si2 0.076726 0.385743 0.849215
Si Si3 0.852331 0.646818 0.825621
Si Si4 0.676818 0.496438 0.794301
O O1 0.250000 0.713948 0.250000
O O2 0.119441 0.676047 0.235020
O O3 0.150852 0.800117 0.167908
O O4 0.188857 0.689867 0.969253
O O5 0.119114 0.452717 0.798689
O O6 0.000000 0.389778 0.796498
O O7 0.082665 0.369977 0.056243
O O8 0.824257 0.573709 0.775741
O O9 0.750000 0.466141 0.750000
O O10 0.667022 0.500000 0.000000
#
# Coordination Sequence:
#
# PCOD9480864 Si02
#       4
#    16  16  16  16
#     4  10  22  40  68  99 131 171 222 280 336 395
#     4  10  25  44  65  95 137 179 221 270 331 399
#     4  10  24  39  69  99 130 170 218 280 334 396
#     4  12  26  42  70 100 131 173 227 282 339 397
#
# _framework density 21.226596000000001
#
# number of rings (size 3 to 8) (size 9 to 14) (size 15 to 20)
#    1.500    0.000    0.000    4.500    7.000    3.500 
#    0.000    0.000    0.000    0.000    0.000    0.000 
#    0.000    0.000    0.000    0.000    0.000    0.000 
#
# Total GULP energy -178247.206245 kJ/mol
# GULP energy per Si atom -5570.225195 kJ/mol
# Density = 2.117828 g / cm^3
# Si number density = 21.226596 Si / 1000 Ang^3
#
#
#
# Elastic Constant Matrix: (Units=GPa)
#
#
# Indices 1 2 3 4 5 6 
#
# 1 172.4658 84.9414 32.2518 0.0000 0.0000 0.0000
# 2 84.9414 108.8859 13.4166 0.0000 0.0000 0.0000
# 3 32.2518 13.4166 77.1195 0.0000 0.0000 0.0000
# 4 0.0000 0.0000 0.0000-6037.1426 0.0000 0.0000
# 5 0.0000 0.0000 0.0000 0.0000 14.4165 0.0000
# 6 0.0000 0.0000 0.0000 0.0000 0.0000 -34.0681
#
#
#
# Elastic Compliance Matrix: (Units=1/GPa)
#
#
# Indices 1 2 3 4 5 6 
#
# 1 0.010009 -0.007452 -0.002889 0.000000 0.000000 0.000000
# 2 -0.007452 0.014933 0.000518 0.000000 0.000000 0.000000
# 3 -0.002889 0.000518 0.014085 0.000000 0.000000 0.000000
# 4 0.000000 0.000000 0.000000 -0.000166 0.000000 0.000000
# 5 0.000000 0.000000 0.000000 0.000000 0.069365 0.000000
# 6 0.000000 0.000000 0.000000 0.000000 0.000000 -0.029353
#
#
# Mechanical properties :
#
#
# Convention : Reuss Voigt Hill
#
# Bulk Modulus (GPa) = 51.59534 68.85453 60.22493
# Shear Modulus (GPa) = 47.62878 -1196.16808 -574.26965
#
# Velocity S-wave (km/s) = 4.74204 -23.76440 -16.46602
# Velocity P-wave (km/s) = 7.37172 26.84189 18.25027
#
# Compressibility (1/GPa) = 0.01938160
#
# Stress axis : x y z
#
# Youngs Moduli (GPa) = 99.91440 66.96568 70.99743
#
# Poissons Ratio (x) = 0.49900 0.20513
# Poissons Ratio (y) = 0.74452 -0.03680
# Poissons Ratio (z) = 0.28868 -0.03471
#
# Static dielectric constant tensor:
#      x y z
#    x 1.765780 0.000000 0.000000 
#    y 0.000000 1.797260 0.000000 
#    z 0.000000 0.000000 1.968990 
# 
# From -- ./inp_files/6609.got.cif
#   From: 2010.05.17/outbox.cif.g08.bks.cpg/sg64_4_cif.got.tgz:6609.got - 2010.06.03 16:29:19.
