data_PCOD9480289
_publ_section_title
;
Structure prediction by ZEFSAII (Michael W. Deem and Ramdas Pophale) SiO2 
 PCOD9480289
Probable space group: C M C A
;
_chemical_formula_sum "Si O2"
_cell_formula_units_Z 96
_cell_length_a 11.310645
_cell_length_b 14.774698
_cell_length_c 28.746853
_cell_angle_alpha 90.000000
_cell_angle_beta 90.000000
_cell_angle_gamma 90.000000
_cell_volume 4803.925817
_symmetry_space_group_name_H-M "C M C A"
_symmetry_group_IT_number 64
_symmetry_cell_setting 'orthorhombic'
loop_
_space_group_symop_operation_xyz
x,y,z
-x,1/2-y,1/2+z
x,-y,-z
-x,1/2+y,1/2-z
-x,-y,-z
x,1/2+y,1/2-z
-x,y,z
x,1/2-y,1/2+z
1/2+x,1/2+y,z
1/2-x,-y,1/2+z
1/2+x,1/2-y,-z
1/2-x,y,1/2-z
1/2-x,1/2-y,-z
1/2+x,y,1/2-z
1/2-x,1/2+y,z
1/2+x,-y,1/2+z
loop_
_atom_site_type_symbol
_atom_site_label
_atom_site_fract_x
_atom_site_fract_y
_atom_site_fract_z
Si Si1 0.136452 0.094855 0.386588
Si Si2 0.000000 0.587470 0.557718
Si Si3 0.858344 0.370953 0.283845
Si Si4 0.226662 0.735835 0.444356
Si Si5 0.134605 0.153214 0.279334
Si Si6 0.000000 0.125875 0.043782
Si Si7 0.263614 0.596039 0.887578
O O1 0.169240 0.179060 0.419635
O O2 0.152369 0.124539 0.332876
O O3 0.000000 0.071805 0.393412
O O4 0.209958 0.003214 0.394818
O O5 0.114735 0.607302 0.585801
O O6 0.000000 0.480792 0.548869
O O7 0.000000 0.643840 0.511034
O O8 0.750000 0.403504 0.250000
O O9 0.866476 0.262471 0.277148
O O10 0.800973 0.389318 0.334311
O O11 0.000000 0.402188 0.279872
O O12 0.250000 0.750000 0.500000
O O13 0.192890 0.824970 0.414386
O O14 0.116968 0.669049 0.436978
O O15 0.250000 0.122586 0.250000
O O16 0.000000 0.123003 0.265053
#
# Coordination Sequence:
#
# PCOD9480289 Si02
#       7
#    16   8  16  16  16   8  16
#     4  11  26  45  65  97 136 173 218 272 333 395
#     4  11  22  42  70  92 128 175 228 273 319 396
#     4  10  21  39  68  99 130 173 222 271 328 397
#     4  12  26  43  69  96 130 175 220 270 336 395
#     4   9  19  41  67  95 129 173 219 271 330 393
#     4  11  24  44  64  99 133 166 229 285 319 388
#     4  12  24  43  69  98 129 177 220 268 333 398
#
# _framework density 19.983657000000001
#
# number of rings (size 3 to 8) (size 9 to 14) (size 15 to 20)
#    0.000    1.167    5.833    0.000    3.500    2.000 
#    3.000    2.500    0.000    0.000    0.000    0.000 
#    0.000    0.000    0.000    0.000    0.000    0.000 
#
# Total GULP energy -267437.435764 kJ/mol
# GULP energy per Si atom -5571.613245 kJ/mol
# Density = 1.993817 g / cm^3
# Si number density = 19.983657 Si / 1000 Ang^3
#
#
#
# Elastic Constant Matrix: (Units=GPa)
#
#
# Indices 1 2 3 4 5 6 
#
# 1 65.2438 16.3012 21.8615 0.0000 0.0000 0.0000
# 2 16.3012 79.7328 18.0773 0.0000 0.0000 0.0000
# 3 21.8615 18.0773 92.5014 0.0000 0.0000 0.0000
# 4 0.0000 0.0000 0.0000 22.2387 0.0000 0.0000
# 5 0.0000 0.0000 0.0000 0.0000 51.0409 0.0000
# 6 0.0000 0.0000 0.0000 0.0000 0.0000 23.5790
#
#
#
# Elastic Compliance Matrix: (Units=1/GPa)
#
#
# Indices 1 2 3 4 5 6 
#
# 1 0.017189 -0.002713 -0.003532 0.000000 0.000000 0.000000
# 2 -0.002713 0.013552 -0.002007 0.000000 0.000000 0.000000
# 3 -0.003532 -0.002007 0.012038 0.000000 0.000000 0.000000
# 4 0.000000 0.000000 0.000000 0.044967 0.000000 0.000000
# 5 0.000000 0.000000 0.000000 0.000000 0.019592 0.000000
# 6 0.000000 0.000000 0.000000 0.000000 0.000000 0.042411
#
#
# Mechanical properties :
#
#
# Convention : Reuss Voigt Hill
#
# Bulk Modulus (GPa) = 38.06203 38.88421 38.47312
# Shear Modulus (GPa) = 28.56982 31.45426 30.01204
#
# Velocity S-wave (km/s) = 3.78519 3.97167 3.87955
# Velocity P-wave (km/s) = 6.17992 6.36651 6.27391
#
# Compressibility (1/GPa) = 0.02627290
#
# Stress axis : x y z
#
# Youngs Moduli (GPa) = 58.17824 73.79158 83.07276
#
# Poissons Ratio (x) = 0.20022 0.29341
# Poissons Ratio (y) = 0.15786 0.16674
# Poissons Ratio (z) = 0.20549 0.14811
#
# Static dielectric constant tensor:
#      x y z
#    x 1.736120 0.000000 0.000000 
#    y 0.000000 1.703340 0.000000 
#    z 0.000000 0.000000 1.787520 
# 
# From -- ./inp_files/52775.got.cif
#   From: 2010.05.17/outbox.cif.g08.bks.cpg/sg64_27_cif.got.tgz:52775.got - 2010.06.03 16:29:19.
