data_PCOD9480153
_publ_section_title
;
Structure prediction by ZEFSAII (Michael W. Deem and Ramdas Pophale) SiO2 
 PCOD9480153
Probable space group: C M C A
;
_chemical_formula_sum "Si O2"
_cell_formula_units_Z 96
_cell_length_a 8.710277
_cell_length_b 21.023308
_cell_length_c 28.760199
_cell_angle_alpha 90.000000
_cell_angle_beta 90.000000
_cell_angle_gamma 90.000000
_cell_volume 5266.534168
_symmetry_space_group_name_H-M "C M C A"
_symmetry_group_IT_number 64
_symmetry_cell_setting 'orthorhombic'
loop_
_space_group_symop_operation_xyz
x,y,z
-x,1/2-y,1/2+z
x,-y,-z
-x,1/2+y,1/2-z
-x,-y,-z
x,1/2+y,1/2-z
-x,y,z
x,1/2-y,1/2+z
1/2+x,1/2+y,z
1/2-x,-y,1/2+z
1/2+x,1/2-y,-z
1/2-x,y,1/2-z
1/2-x,1/2-y,-z
1/2+x,y,1/2-z
1/2-x,1/2+y,z
1/2+x,-y,1/2+z
loop_
_atom_site_type_symbol
_atom_site_label
_atom_site_fract_x
_atom_site_fract_y
_atom_site_fract_z
Si Si1 0.815462 0.254805 0.107895
Si Si2 0.183272 0.999191 0.108027
Si Si3 0.683335 0.117974 0.949670
Si Si4 0.315131 0.372728 0.947316
Si Si5 0.816921 0.446564 0.200408
Si Si6 0.817097 0.695396 0.700495
O O1 0.776664 0.317161 0.077565
O O2 0.772636 0.191469 0.079936
O O3 0.735263 0.261597 0.157593
O O4 0.000000 0.254381 0.114692
O O5 0.236061 0.941341 0.075181
O O6 0.263075 0.989433 0.157655
O O7 0.000000 0.996502 0.114204
O O8 0.223067 0.065447 0.083272
O O9 0.500000 0.109502 0.946789
O O10 0.735477 0.123369 0.002811
O O11 0.500000 0.372181 0.954320
O O12 0.750000 0.467993 0.250000
O O13 0.751433 0.375346 0.192203
O O14 0.000000 0.442992 0.202596
O O15 0.750000 0.717242 0.750000
O O16 0.000000 0.690888 0.703196
#
# Coordination Sequence:
#
# PCOD9480153 Si02
#       6
#    16  16  16  16  16  16
#     4  10  21  39  59  84 117 153 193 237 287 338
#     4  11  22  38  59  85 116 153 195 237 286 339
#     4  11  22  36  59  86 114 151 197 244 286 337
#     4  10  23  40  58  81 117 158 194 237 285 340
#     4  11  21  36  59  87 116 147 187 236 286 339
#     4  11  21  35  59  88 116 149 188 235 284 338
#
# _framework density 18.228307999999998
#
# number of rings (size 3 to 8) (size 9 to 14) (size 15 to 20)
#    0.000    1.333    1.667    6.000    0.000    4.667 
#    0.000    0.833    0.000    0.000    0.000    0.000 
#    0.000    0.000    0.000    0.000    0.000    0.000 
#
# Total GULP energy -268372.420533 kJ/mol
# GULP energy per Si atom -5591.092094 kJ/mol
# Density = 1.818682 g / cm^3
# Si number density = 18.228308 Si / 1000 Ang^3
#
#
#
# Elastic Constant Matrix: (Units=GPa)
#
#
# Indices 1 2 3 4 5 6 
#
# 1 87.2349 40.9066 58.1658 0.0000 0.0000 0.0000
# 2 40.9066 94.0581 45.8668 0.0000 0.0000 0.0000
# 3 58.1658 45.8668 143.5557 0.0000 0.0000 0.0000
# 4 0.0000 0.0000 0.0000 -6.6276 0.0000 0.0000
# 5 0.0000 0.0000 0.0000 0.0000 38.6601 0.0000
# 6 0.0000 0.0000 0.0000 0.0000 0.0000 13.4355
#
#
#
# Elastic Compliance Matrix: (Units=1/GPa)
#
#
# Indices 1 2 3 4 5 6 
#
# 1 0.017424 -0.004898 -0.005495 0.000000 0.000000 0.000000
# 2 -0.004898 0.013971 -0.002479 0.000000 0.000000 0.000000
# 3 -0.005495 -0.002479 0.009984 0.000000 0.000000 0.000000
# 4 0.000000 0.000000 0.000000 -0.150884 0.000000 0.000000
# 5 0.000000 0.000000 0.000000 0.000000 0.025866 0.000000
# 6 0.000000 0.000000 0.000000 0.000000 0.000000 0.074430
#
#
# Mechanical properties :
#
#
# Convention : Reuss Voigt Hill
#
# Bulk Modulus (GPa) = 63.95939 68.30300 66.13119
# Shear Modulus (GPa) = 229.90642 21.08756 125.49699
#
# Velocity S-wave (km/s) = 11.24277 3.40495 8.30643
# Velocity P-wave (km/s) = 14.27225 7.28083 11.32934
#
# Compressibility (1/GPa) = 0.01563492
#
# Stress axis : x y z
#
# Youngs Moduli (GPa) = 57.39192 71.57697 100.15618
#
# Poissons Ratio (x) = 0.35061 0.55034
# Poissons Ratio (y) = 0.28113 0.24830
# Poissons Ratio (z) = 0.31536 0.17745
#
# Static dielectric constant tensor:
#      x y z
#    x 1.614330 0.000000 0.000000 
#    y 0.000000 1.602990 0.000000 
#    z 0.000000 0.000000 1.609690 
# 
# From -- ./inp_files/48067.got.cif
#   From: 2010.05.17/outbox.cif.g08.bks.cpg/sg64_25_cif.got.tgz:48067.got - 2010.06.03 16:29:19.
