data_PCOD9480229
_publ_section_title
;
Structure prediction by ZEFSAII (Michael W. Deem and Ramdas Pophale) SiO2 
 PCOD9480229
Probable space group: C M C A
;
_chemical_formula_sum "Si O2"
_cell_formula_units_Z 68
_cell_length_a 21.042270
_cell_length_b 27.020578
_cell_length_c 5.111081
_cell_angle_alpha 90.000000
_cell_angle_beta 90.000000
_cell_angle_gamma 90.000000
_cell_volume 2906.029291
_symmetry_space_group_name_H-M "C M C A"
_symmetry_group_IT_number 64
_symmetry_cell_setting 'orthorhombic'
loop_
_space_group_symop_operation_xyz
x,y,z
-x,1/2-y,1/2+z
x,-y,-z
-x,1/2+y,1/2-z
-x,-y,-z
x,1/2+y,1/2-z
-x,y,z
x,1/2-y,1/2+z
1/2+x,1/2+y,z
1/2-x,-y,1/2+z
1/2+x,1/2-y,-z
1/2-x,y,1/2-z
1/2-x,1/2-y,-z
1/2+x,y,1/2-z
1/2-x,1/2+y,z
1/2+x,-y,1/2+z
loop_
_atom_site_type_symbol
_atom_site_label
_atom_site_fract_x
_atom_site_fract_y
_atom_site_fract_z
Si Si1 0.000000 0.500000 0.500000
Si Si2 0.350736 0.614903 0.591640
Si Si3 0.853980 0.284139 0.926763
Si Si4 0.430175 0.399939 0.918061
Si Si5 0.500000 0.784531 0.923023
Si Si6 0.750000 0.466920 0.250000
O O1 0.053831 0.544251 0.508339
O O2 0.317211 0.665125 0.489392
O O3 0.397011 0.596732 0.360654
O O4 0.304867 0.569858 0.655469
O O5 0.388301 0.625867 0.861316
O O6 0.843772 0.256064 0.654857
O O7 0.927531 0.304561 0.928899
O O8 0.500000 0.374913 0.896665
O O9 0.500000 0.749301 0.676818
O O10 0.768750 0.500000 0.500000
#
# Coordination Sequence:
#
# PCOD9480229 Si02
#       6
#     4  16  16  16   8   8
#     4   8  24  38  62 106 128 182 220 270 366 402
#     4  12  25  45  68  99 138 178 239 271 348 409
#     4  10  21  39  63  94 135 175 220 277 333 403
#     4  10  24  39  67  99 139 169 224 282 343 413
#     4   8  16  28  49  84 120 163 199 242 312 386
#     4  12  30  48  74  98 132 186 230 290 338 398
#
# _framework density 23.399623999999999
#
# number of rings (size 3 to 8) (size 9 to 14) (size 15 to 20)
#    0.706    0.941    0.000    3.529    8.235    0.941 
#    4.235    1.176    0.000    0.000    0.000    0.000 
#    0.000    0.000    0.000    0.000    0.000    0.000 
#
# Total GULP energy -189380.365157 kJ/mol
# GULP energy per Si atom -5570.010740 kJ/mol
# Density = 2.334637 g / cm^3
# Si number density = 23.399624 Si / 1000 Ang^3
#
#
#
# Elastic Constant Matrix: (Units=GPa)
#
#
# Indices 1 2 3 4 5 6 
#
# 1 28.3185 1.5651 17.6552 0.0000 0.0000 0.0000
# 2 1.5651 94.1610 -4.9463 0.0000 0.0000 0.0000
# 3 17.6552 -4.9463 107.8518 0.0000 0.0000 0.0000
# 4 0.0000 0.0000 0.0000 12.7322 0.0000 0.0000
# 5 0.0000 0.0000 0.0000 0.0000 26.2169 0.0000
# 6 0.0000 0.0000 0.0000 0.0000 0.0000 -12.6346
#
#
#
# Elastic Compliance Matrix: (Units=1/GPa)
#
#
# Indices 1 2 3 4 5 6 
#
# 1 0.039419 -0.000997 -0.006499 0.000000 0.000000 0.000000
# 2 -0.000997 0.010671 0.000653 0.000000 0.000000 0.000000
# 3 -0.006499 0.000653 0.010366 0.000000 0.000000 0.000000
# 4 0.000000 0.000000 0.000000 0.078541 0.000000 0.000000
# 5 0.000000 0.000000 0.000000 0.000000 0.038143 0.000000
# 6 0.000000 0.000000 0.000000 0.000000 0.000000 -0.079148
#
#
# Mechanical properties :
#
#
# Convention : Reuss Voigt Hill
#
# Bulk Modulus (GPa) = 21.38092 28.76436 25.07264
# Shear Modulus (GPa) = 39.28725 19.66673 29.47699
#
# Velocity S-wave (km/s) = 4.10197 2.90223 3.55310
# Velocity P-wave (km/s) = 5.62067 4.85283 5.25081
#
# Compressibility (1/GPa) = 0.04677067
#
# Stress axis : x y z
#
# Youngs Moduli (GPa) = 25.36830 93.71234 96.47181
#
# Poissons Ratio (x) = 0.09339 0.62693
# Poissons Ratio (y) = 0.02528 -0.06295
# Poissons Ratio (z) = 0.16486 -0.06115
#
# Static dielectric constant tensor:
#      x y z
#    x 2.004160 0.000000 0.000000 
#    y 0.000000 1.873690 0.000000 
#    z 0.000000 0.000000 1.841950 
# 
# From -- ./inp_files/1868.got.cif
#   From: 2010.05.17/outbox.cif.g08.bks.cpg/sg64_1_cif.got.tgz:1868.got - 2010.06.03 16:29:19.
