data_PCOD9480986
_publ_section_title
;
Structure prediction by ZEFSAII (Michael W. Deem and Ramdas Pophale) SiO2 
 PCOD9480986
Probable space group: C M C A
;
_chemical_formula_sum "Si O2"
_cell_formula_units_Z 112
_cell_length_a 14.404560
_cell_length_b 14.166171
_cell_length_c 22.498534
_cell_angle_alpha 90.000000
_cell_angle_beta 90.000000
_cell_angle_gamma 90.000000
_cell_volume 4590.993705
_symmetry_space_group_name_H-M "C M C A"
_symmetry_group_IT_number 64
_symmetry_cell_setting 'orthorhombic'
loop_
_space_group_symop_operation_xyz
x,y,z
-x,1/2-y,1/2+z
x,-y,-z
-x,1/2+y,1/2-z
-x,-y,-z
x,1/2+y,1/2-z
-x,y,z
x,1/2-y,1/2+z
1/2+x,1/2+y,z
1/2-x,-y,1/2+z
1/2+x,1/2-y,-z
1/2-x,y,1/2-z
1/2-x,1/2-y,-z
1/2+x,y,1/2-z
1/2-x,1/2+y,z
1/2+x,-y,1/2+z
loop_
_atom_site_type_symbol
_atom_site_label
_atom_site_fract_x
_atom_site_fract_y
_atom_site_fract_z
Si Si1 0.397786 0.939343 0.174434
Si Si2 0.344975 0.938291 0.726808
Si Si3 0.895156 0.733948 0.110036
Si Si4 0.602696 0.755618 0.249398
Si Si5 0.890699 0.614139 0.400701
Si Si6 0.197946 0.591210 0.036089
Si Si7 0.698749 0.683185 0.584124
O O1 0.500000 0.925449 0.147720
O O2 0.380567 0.858348 0.224283
O O3 0.326942 0.909563 0.122779
O O4 0.403088 0.032120 0.215500
O O5 0.250000 0.983786 0.750000
O O6 0.333076 0.825952 0.725717
O O7 0.379163 0.950509 0.659485
O O8 0.896834 0.751506 0.180173
O O9 0.862077 0.627982 0.091779
O O10 0.808186 0.796856 0.089776
O O11 0.000000 0.751346 0.087280
O O12 0.500000 0.726747 0.227855
O O13 0.805979 0.582645 0.444205
O O14 0.861515 0.726033 0.394161
O O15 0.000000 0.608707 0.418206
O O16 0.167850 0.500000 0.000000
O O17 0.180992 0.669451 0.985303
#
# Coordination Sequence:
#
# PCOD9480986 Si02
#       7
#    16  16  16  16  16  16  16
#     4  11  25  42  69 107 143 186 235 288 359 438
#     4  12  25  39  68 104 146 186 229 291 354 429
#     4  10  23  43  68  97 132 180 234 291 355 423
#     4  10  22  42  65  96 137 176 224 285 348 423
#     4  11  23  46  74 101 140 192 244 299 359 424
#     4  11  27  45  66 101 141 181 246 304 362 428
#     4  11  24  43  72  97 136 189 237 295 351 431
#
# _framework density 24.395589999999999
#
# number of rings (size 3 to 8) (size 9 to 14) (size 15 to 20)
#    0.000    1.143    1.429    5.143    6.000    3.429 
#    0.000    1.429    0.000    0.000    0.000    0.000 
#    0.000    0.000    0.000    0.000    0.000    0.000 
#
# Total GULP energy -312218.747003 kJ/mol
# GULP energy per Si atom -5575.334768 kJ/mol
# Density = 2.434006 g / cm^3
# Si number density = 24.395590 Si / 1000 Ang^3
#
#
#
# Elastic Constant Matrix: (Units=GPa)
#
#
# Indices 1 2 3 4 5 6 
#
# 1 151.7282 -1.5273 23.2331 0.0000 0.0000 0.0000
# 2 -1.5273 37.5231 9.4563 0.0000 0.0000 0.0000
# 3 23.2331 9.4563 119.8878 0.0000 0.0000 0.0000
# 4 0.0000 0.0000 0.0000 46.4932 0.0000 0.0000
# 5 0.0000 0.0000 0.0000 0.0000 16.7676 0.0000
# 6 0.0000 0.0000 0.0000 0.0000 0.0000 5.3168
#
#
#
# Elastic Compliance Matrix: (Units=1/GPa)
#
#
# Indices 1 2 3 4 5 6 
#
# 1 0.006806 0.000622 -0.001368 0.000000 0.000000 0.000000
# 2 0.000622 0.027248 -0.002270 0.000000 0.000000 0.000000
# 3 -0.001368 -0.002270 0.008785 0.000000 0.000000 0.000000
# 4 0.000000 0.000000 0.000000 0.021509 0.000000 0.000000
# 5 0.000000 0.000000 0.000000 0.000000 0.059639 0.000000
# 6 0.000000 0.000000 0.000000 0.000000 0.000000 0.188085
#
#
# Mechanical properties :
#
#
# Convention : Reuss Voigt Hill
#
# Bulk Modulus (GPa) = 27.16847 41.27373 34.22110
# Shear Modulus (GPa) = 15.13444 32.24731 23.69088
#
# Velocity S-wave (km/s) = 2.49344 3.63967 3.11965
# Velocity P-wave (km/s) = 4.41027 5.88372 5.19945
#
# Compressibility (1/GPa) = 0.03680737
#
# Stress axis : x y z
#
# Youngs Moduli (GPa) = 146.91890 36.70058 113.82681
#
# Poissons Ratio (x) = -0.02282 0.15572
# Poissons Ratio (y) = -0.09136 0.25835
# Poissons Ratio (z) = 0.20100 0.08330
#
# Static dielectric constant tensor:
#      x y z
#    x -3.304540 0.000000 0.000000 
#    y 0.000000 2.019390 0.000000 
#    z 0.000000 0.000000 1.965750 
# 
# From -- ./inp_files/45231.got.cif
#   From: 2010.05.17/outbox.cif.g08.bks.cpg/sg64_23_cif.got.tgz:45231.got - 2010.06.03 16:29:19.
