data_PCOD9480618
_publ_section_title
;
Structure prediction by ZEFSAII (Michael W. Deem and Ramdas Pophale) SiO2 
 PCOD9480618
Probable space group: C M C A
;
_chemical_formula_sum "Si O2"
_cell_formula_units_Z 96
_cell_length_a 36.558973
_cell_length_b 7.107923
_cell_length_c 15.642385
_cell_angle_alpha 90.000000
_cell_angle_beta 90.000000
_cell_angle_gamma 90.000000
_cell_volume 4064.804591
_symmetry_space_group_name_H-M "C M C A"
_symmetry_group_IT_number 64
_symmetry_cell_setting 'orthorhombic'
loop_
_space_group_symop_operation_xyz
x,y,z
-x,1/2-y,1/2+z
x,-y,-z
-x,1/2+y,1/2-z
-x,-y,-z
x,1/2+y,1/2-z
-x,y,z
x,1/2-y,1/2+z
1/2+x,1/2+y,z
1/2-x,-y,1/2+z
1/2+x,1/2-y,-z
1/2-x,y,1/2-z
1/2-x,1/2-y,-z
1/2+x,y,1/2-z
1/2-x,1/2+y,z
1/2+x,-y,1/2+z
loop_
_atom_site_type_symbol
_atom_site_label
_atom_site_fract_x
_atom_site_fract_y
_atom_site_fract_z
Si Si1 0.158127 0.640630 0.170722
Si Si2 0.707230 0.720878 0.482260
Si Si3 0.000000 0.230304 0.071958
Si Si4 0.000000 0.855059 0.622102
Si Si5 0.077151 0.818682 0.872853
Si Si6 0.657003 0.698734 0.128959
Si Si7 0.422370 0.617087 0.323645
O O1 0.156075 0.424029 0.142823
O O2 0.164418 0.633424 0.273355
O O3 0.116472 0.713120 0.154308
O O4 0.188350 0.743929 0.111738
O O5 0.701195 0.500000 0.500000
O O6 0.750000 0.750000 0.500000
O O7 0.686893 0.834605 0.557037
O O8 0.038461 0.127610 0.086502
O O9 0.000000 0.416560 0.132593
O O10 0.000000 0.305634 0.976667
O O11 0.038809 0.787032 0.657456
O O12 0.117408 0.862122 0.907239
O O13 0.076685 0.588991 0.866932
O O14 0.078238 0.901408 0.777882
#
# Coordination Sequence:
#
# PCOD9480618 Si02
#       7
#    16  16   8   8  16  16  16
#     4   9  19  35  55  78 105 137 172 211 256 305
#     4  10  22  38  56  79 105 135 169 210 260 312
#     4   9  17  26  43  73 100 127 166 206 240 281
#     4   9  17  26  43  73 100 127 166 206 240 281
#     4   9  17  30  49  71  97 130 166 204 244 289
#     4   9  19  35  55  78 105 137 172 211 256 305
#     4   9  17  30  49  71  97 130 166 204 244 289
#
# _framework density 23.617370000000001
#
# number of rings (size 3 to 8) (size 9 to 14) (size 15 to 20)
#    0.000    2.833    0.000    0.500    2.333    2.000 
#    0.000    3.333    0.000    2.000    0.000    0.000 
#    0.000    0.000    0.000    0.000    0.000    0.000 
#
# Total GULP energy -267712.731742 kJ/mol
# GULP energy per Si atom -5577.348578 kJ/mol
# Density = 2.356362 g / cm^3
# Si number density = 23.617370 Si / 1000 Ang^3
#
#
#
# Elastic Constant Matrix: (Units=GPa)
#
#
# Indices 1 2 3 4 5 6 
#
# 1 245.4545 2.7508 108.3584 0.0000 0.0000 0.0000
# 2 2.7508 73.8774 8.6998 0.0000 0.0000 0.0000
# 3 108.3584 8.6998 97.4212 0.0000 0.0000 0.0000
# 4 0.0000 0.0000 0.0000 37.5927 0.0000 0.0000
# 5 0.0000 0.0000 0.0000 0.0000 46.7294 0.0000
# 6 0.0000 0.0000 0.0000 0.0000 0.0000 -7.8450
#
#
#
# Elastic Compliance Matrix: (Units=1/GPa)
#
#
# Indices 1 2 3 4 5 6 
#
# 1 0.008047 0.000762 -0.009018 0.000000 0.000000 0.000000
# 2 0.000762 0.013752 -0.002076 0.000000 0.000000 0.000000
# 3 -0.009018 -0.002076 0.020481 0.000000 0.000000 0.000000
# 4 0.000000 0.000000 0.000000 0.026601 0.000000 0.000000
# 5 0.000000 0.000000 0.000000 0.000000 0.021400 0.000000
# 6 0.000000 0.000000 0.000000 0.000000 0.000000 -0.127470
#
#
# Mechanical properties :
#
#
# Convention : Reuss Voigt Hill
#
# Bulk Modulus (GPa) = 46.26245 72.93010 59.59627
# Shear Modulus (GPa) = -536.39531 35.09170 -250.65180
#
# Velocity S-wave (km/s) = -15.08682 3.85885 -10.31313
# Velocity P-wave (km/s) = 16.84790 7.12749 10.79469
#
# Compressibility (1/GPa) = 0.02161580
#
# Stress axis : x y z
#
# Youngs Moduli (GPa) = 124.27499 72.71653 48.82659
#
# Poissons Ratio (x) = -0.05544 0.44032
# Poissons Ratio (y) = -0.09474 0.10136
# Poissons Ratio (z) = 1.12073 0.15096
#
# Static dielectric constant tensor:
#      x y z
#    x 1.940140 0.000000 0.000000 
#    y 0.000000 2.044930 0.000000 
#    z 0.000000 0.000000 1.861330 
# 
# From -- ./inp_files/28332.got.cif
#   From: 2010.05.17/outbox.cif.g08.bks.cpg/sg64_15_cif.got.tgz:28332.got - 2010.06.03 16:29:19.
