data_PCOD9480006
_publ_section_title
;
Structure prediction by ZEFSAII (Michael W. Deem and Ramdas Pophale) SiO2 
 PCOD9480006
Probable space group: C M C A
;
_chemical_formula_sum "Si O2"
_cell_formula_units_Z 96
_cell_length_a 16.221935
_cell_length_b 11.536105
_cell_length_c 21.032501
_cell_angle_alpha 90.000000
_cell_angle_beta 90.000000
_cell_angle_gamma 90.000000
_cell_volume 3935.979025
_symmetry_space_group_name_H-M "C M C A"
_symmetry_group_IT_number 64
_symmetry_cell_setting 'orthorhombic'
loop_
_space_group_symop_operation_xyz
x,y,z
-x,1/2-y,1/2+z
x,-y,-z
-x,1/2+y,1/2-z
-x,-y,-z
x,1/2+y,1/2-z
-x,y,z
x,1/2-y,1/2+z
1/2+x,1/2+y,z
1/2-x,-y,1/2+z
1/2+x,1/2-y,-z
1/2-x,y,1/2-z
1/2-x,1/2-y,-z
1/2+x,y,1/2-z
1/2-x,1/2+y,z
1/2+x,-y,1/2+z
loop_
_atom_site_type_symbol
_atom_site_label
_atom_site_fract_x
_atom_site_fract_y
_atom_site_fract_z
Si Si1 0.358558 0.508282 0.586603
Si Si2 0.094564 0.563904 0.782269
Si Si3 0.780107 0.266825 0.684433
Si Si4 0.907831 0.703274 0.996574
Si Si5 0.313135 0.127481 0.576919
Si Si6 0.908809 0.055065 0.144912
O O1 0.378175 0.482276 0.659433
O O2 0.400113 0.632121 0.568909
O O3 0.392621 0.402944 0.545771
O O4 0.264271 0.540570 0.571081
O O5 0.160736 0.666075 0.787622
O O6 0.096470 0.500229 0.715228
O O7 0.000000 0.603206 0.791705
O O8 0.750000 0.325689 0.750000
O O9 0.713760 0.210641 0.636180
O O10 0.836959 0.351357 0.643564
O O11 0.840017 0.797992 0.015897
O O12 0.000000 0.749221 0.003644
O O13 0.389550 0.048637 0.597079
O O14 0.000000 0.103629 0.134986
#
# Coordination Sequence:
#
# PCOD9480006 Si02
#       6
#    16  16  16  16  16  16
#     4  10  22  38  62  89 119 157 202 249 298 348
#     4  10  21  38  59  86 119 158 195 240 299 355
#     4  11  23  37  59  85 119 154 198 234 293 352
#     4  11  22  40  63  91 120 153 204 255 295 346
#     4  11  23  40  62  89 119 161 196 246 295 361
#     4  11  24  39  58  87 123 156 194 244 296 357
#
# _framework density 24.390373
#
# number of rings (size 3 to 8) (size 9 to 14) (size 15 to 20)
#    0.000    1.333    1.667    4.500    7.000    0.000 
#    0.000    0.000    0.000    0.000    0.000   17.500 
#    0.000    0.000    0.000    0.000    0.000    0.000 
#
# Total GULP energy -268608.572297 kJ/mol
# GULP energy per Si atom -5596.011923 kJ/mol
# Density = 2.433486 g / cm^3
# Si number density = 24.390373 Si / 1000 Ang^3
#
#
#
# Elastic Constant Matrix: (Units=GPa)
#
#
# Indices 1 2 3 4 5 6 
#
# 1 99.6910 11.6522 0.9669 0.0000 0.0000 0.0000
# 2 11.6522 52.6230 11.3170 0.0000 0.0000 0.0000
# 3 0.9669 11.3170 67.4568 0.0000 0.0000 0.0000
# 4 0.0000 0.0000 0.0000 42.1431 0.0000 0.0000
# 5 0.0000 0.0000 0.0000 0.0000 67.6282 0.0000
# 6 0.0000 0.0000 0.0000 0.0000 0.0000 33.1544
#
#
#
# Elastic Compliance Matrix: (Units=1/GPa)
#
#
# Indices 1 2 3 4 5 6 
#
# 1 0.010301 -0.002333 0.000244 0.000000 0.000000 0.000000
# 2 -0.002333 0.020243 -0.003363 0.000000 0.000000 0.000000
# 3 0.000244 -0.003363 0.015385 0.000000 0.000000 0.000000
# 4 0.000000 0.000000 0.000000 0.023729 0.000000 0.000000
# 5 0.000000 0.000000 0.000000 0.000000 0.014787 0.000000
# 6 0.000000 0.000000 0.000000 0.000000 0.000000 0.030162
#
#
# Mechanical properties :
#
#
# Convention : Reuss Voigt Hill
#
# Bulk Modulus (GPa) = 28.55127 29.73812 29.14469
# Shear Modulus (GPa) = 36.44686 41.64079 39.04382
#
# Velocity S-wave (km/s) = 3.86983 4.13639 4.00533
# Velocity P-wave (km/s) = 5.63017 5.91878 5.77628
#
# Compressibility (1/GPa) = 0.03502471
#
# Stress axis : x y z
#
# Youngs Moduli (GPa) = 97.07450 49.39988 64.99861
#
# Poissons Ratio (x) = 0.11527 -0.01585
# Poissons Ratio (y) = 0.22652 0.21857
# Poissons Ratio (z) = -0.02367 0.16611
#
# Static dielectric constant tensor:
#      x y z
#    x 1.945430 0.000000 0.000000 
#    y 0.000000 1.928060 0.000000 
#    z 0.000000 0.000000 1.959570 
# 
# From -- ./inp_files/45752.got.cif
#   From: 2010.05.17/outbox.cif.g08.bks.cpg/sg64_23_cif.got.tgz:45752.got - 2010.06.03 16:29:19.
