data_PCOD9480236
_publ_section_title
;
Structure prediction by ZEFSAII (Michael W. Deem and Ramdas Pophale) SiO2 
 PCOD9480236
Probable space group: C M C A
;
_chemical_formula_sum "Si O2"
_cell_formula_units_Z 88
_cell_length_a 15.557987
_cell_length_b 33.372446
_cell_length_c 7.898741
_cell_angle_alpha 90.000000
_cell_angle_beta 90.000000
_cell_angle_gamma 90.000000
_cell_volume 4101.090157
_symmetry_space_group_name_H-M "C M C A"
_symmetry_group_IT_number 64
_symmetry_cell_setting 'orthorhombic'
loop_
_space_group_symop_operation_xyz
x,y,z
-x,1/2-y,1/2+z
x,-y,-z
-x,1/2+y,1/2-z
-x,-y,-z
x,1/2+y,1/2-z
-x,y,z
x,1/2-y,1/2+z
1/2+x,1/2+y,z
1/2-x,-y,1/2+z
1/2+x,1/2-y,-z
1/2-x,y,1/2-z
1/2-x,1/2-y,-z
1/2+x,y,1/2-z
1/2-x,1/2+y,z
1/2+x,-y,1/2+z
loop_
_atom_site_type_symbol
_atom_site_label
_atom_site_fract_x
_atom_site_fract_y
_atom_site_fract_z
Si Si1 0.595880 0.222706 0.410597
Si Si2 0.404645 0.190957 0.031127
Si Si3 0.770009 0.839640 0.057914
Si Si4 0.595263 0.037178 0.868552
Si Si5 0.859731 0.500000 0.500000
Si Si6 0.246761 0.421461 0.552731
O O1 0.500000 0.217655 0.487759
O O2 0.615790 0.269843 0.418582
O O3 0.591302 0.208890 0.218267
O O4 0.666826 0.194500 0.492993
O O5 0.500000 0.175226 0.986375
O O6 0.324103 0.161588 0.028648
O O7 0.750000 0.831766 0.250000
O O8 0.803247 0.884727 0.034649
O O9 0.500000 0.055509 0.884515
O O10 0.601158 0.018552 0.676717
O O11 0.669680 0.067249 0.936698
O O12 0.600513 0.000000 0.000000
O O13 0.804246 0.537223 0.439275
O O14 0.250000 0.409113 0.750000
#
# Coordination Sequence:
#
# PCOD9480236 Si02
#       6
#    16  16  16  16   8  16
#     4  10  21  40  63  90 121 162 209 258 315 380
#     4  10  21  39  64  89 122 163 207 260 316 376
#     4  12  25  39  60  92 126 165 212 260 319 379
#     4  11  23  41  66  97 126 161 212 263 313 377
#     4  12  21  44  69  94 124 170 212 258 319 384
#     4  12  23  43  66  89 125 169 210 261 319 380
#
# _framework density 21.457708
#
# number of rings (size 3 to 8) (size 9 to 14) (size 15 to 20)
#    0.000    0.909    2.727    5.182    0.000    2.909 
#    0.000    4.545    0.000    0.000    0.000    0.000 
#    0.000    0.000    0.000    0.000    0.000    0.000 
#
# Total GULP energy -245336.103794 kJ/mol
# GULP energy per Si atom -5575.820541 kJ/mol
# Density = 2.140887 g / cm^3
# Si number density = 21.457708 Si / 1000 Ang^3
#
#
#
# Elastic Constant Matrix: (Units=GPa)
#
#
# Indices 1 2 3 4 5 6 
#
# 1 70.2924 26.6078 17.7162 0.0000 0.0000 0.0000
# 2 26.6078 51.2629 -6.4456 0.0000 0.0000 0.0000
# 3 17.7162 -6.4456 113.2909 0.0000 0.0000 0.0000
# 4 0.0000 0.0000 0.0000 -8.3507 0.0000 0.0000
# 5 0.0000 0.0000 0.0000 0.0000 14.4758 0.0000
# 6 0.0000 0.0000 0.0000 0.0000 0.0000 -8.6203
#
#
#
# Elastic Compliance Matrix: (Units=1/GPa)
#
#
# Indices 1 2 3 4 5 6 
#
# 1 0.019034 -0.010328 -0.003564 0.000000 0.000000 0.000000
# 2 -0.010328 0.025251 0.003052 0.000000 0.000000 0.000000
# 3 -0.003564 0.003052 0.009558 0.000000 0.000000 0.000000
# 4 0.000000 0.000000 0.000000 -0.119750 0.000000 0.000000
# 5 0.000000 0.000000 0.000000 0.000000 0.069081 0.000000
# 6 0.000000 0.000000 0.000000 0.000000 0.000000 -0.116005
#
#
# Mechanical properties :
#
#
# Convention : Reuss Voigt Hill
#
# Bulk Modulus (GPa) = 31.09143 34.51145 32.80144
# Shear Modulus (GPa) = -62.16607 12.63213 -24.76697
#
# Velocity S-wave (km/s) = -5.38835 2.42894 -3.40107
# Velocity P-wave (km/s) = 4.91847 4.89742 0.32141
#
# Compressibility (1/GPa) = 0.03216320
#
# Stress axis : x y z
#
# Youngs Moduli (GPa) = 52.53791 39.60164 104.62654
#
# Poissons Ratio (x) = 0.40899 0.37290
# Poissons Ratio (y) = 0.54259 -0.31929
# Poissons Ratio (z) = 0.18725 -0.12085
#
# Static dielectric constant tensor:
#      x y z
#    x 1.917690 0.000000 0.000000 
#    y 0.000000 1.743900 0.000000 
#    z 0.000000 0.000000 1.837020 
# 
# From -- ./inp_files/7338.got.cif
#   From: 2010.05.17/outbox.cif.g08.bks.cpg/sg64_4_cif.got.tgz:7338.got - 2010.06.03 16:29:19.
