data_PCOD9480683
_publ_section_title
;
Structure prediction by ZEFSAII (Michael W. Deem and Ramdas Pophale) SiO2 
 PCOD9480683
Probable space group: C M C A
;
_chemical_formula_sum "Si O2"
_cell_formula_units_Z 116
_cell_length_a 23.616782
_cell_length_b 26.947296
_cell_length_c 9.273153
_cell_angle_alpha 90.000000
_cell_angle_beta 90.000000
_cell_angle_gamma 90.000000
_cell_volume 5901.512604
_symmetry_space_group_name_H-M "C M C A"
_symmetry_group_IT_number 64
_symmetry_cell_setting 'orthorhombic'
loop_
_space_group_symop_operation_xyz
x,y,z
-x,1/2-y,1/2+z
x,-y,-z
-x,1/2+y,1/2-z
-x,-y,-z
x,1/2+y,1/2-z
-x,y,z
x,1/2-y,1/2+z
1/2+x,1/2+y,z
1/2-x,-y,1/2+z
1/2+x,1/2-y,-z
1/2-x,y,1/2-z
1/2-x,1/2-y,-z
1/2+x,y,1/2-z
1/2-x,1/2+y,z
1/2+x,-y,1/2+z
loop_
_atom_site_type_symbol
_atom_site_label
_atom_site_fract_x
_atom_site_fract_y
_atom_site_fract_z
Si Si1 0.308206 0.485424 0.337677
Si Si2 0.067584 0.685543 0.026879
Si Si3 0.381793 0.538194 0.114210
Si Si4 0.253431 0.302330 0.419011
Si Si5 0.356815 0.375008 0.363361
Si Si6 0.136465 0.355920 0.468517
Si Si7 0.500000 0.500000 0.000000
Si Si8 0.568117 0.220623 0.342709
O O1 0.296359 0.500000 0.500000
O O2 0.250000 0.485990 0.250000
O O3 0.353436 0.522826 0.264191
O O4 0.333096 0.429937 0.343752
O O5 0.093400 0.633451 0.978082
O O6 0.083302 0.724948 0.901427
O O7 0.000000 0.682754 0.033529
O O8 0.087541 0.706913 0.181147
O O9 0.369283 0.592857 0.055496
O O10 0.448736 0.526267 0.097755
O O11 0.353968 0.500000 0.000000
O O12 0.250000 0.290407 0.250000
O O13 0.250000 0.250000 0.500000
O O14 0.308451 0.337677 0.424027
O O15 0.200012 0.334742 0.470194
O O16 0.377005 0.361749 0.201087
O O17 0.094993 0.317361 0.545002
O O18 0.500000 0.217158 0.345743
#
# Coordination Sequence:
#
# PCOD9480683 Si02
#       8
#    16  16  16  16  16  16   4  16
#     4  12  27  46  72  99 135 180 229 291 344 416
#     4  10  22  42  60  94 131 169 221 270 325 390
#     4  10  22  44  68 101 132 180 230 278 347 407
#     4  10  23  40  60  91 130 167 208 269 324 391
#     4  11  23  41  65  92 129 166 216 269 332 397
#     4  11  22  39  67  93 130 173 217 272 331 404
#     4   8  20  40  74  92 144 176 230 298 332 424
#     4  10  22  38  65  92 128 173 221 271 320 394
#
# _framework density 19.655977
#
# number of rings (size 3 to 8) (size 9 to 14) (size 15 to 20)
#    0.414    1.103    1.379    3.310    4.828    4.966 
#    3.724    0.345    0.000    0.000    0.000    0.000 
#    0.000    0.000    0.000    0.000    0.000    0.000 
#
# Total GULP energy -323124.797601 kJ/mol
# GULP energy per Si atom -5571.117200 kJ/mol
# Density = 1.961124 g / cm^3
# Si number density = 19.655977 Si / 1000 Ang^3
#
#
#
# Elastic Constant Matrix: (Units=GPa)
#
#
# Indices 1 2 3 4 5 6 
#
# 1 77.2663 50.9205 60.7759 0.0000 0.0000 0.0000
# 2 50.9205 93.6215 42.3232 0.0000 0.0000 0.0000
# 3 60.7759 42.3232 121.7659 0.0000 0.0000 0.0000
# 4 0.0000 0.0000 0.0000 37.4957 0.0000 0.0000
# 5 0.0000 0.0000 0.0000 0.0000 32.0900 0.0000
# 6 0.0000 0.0000 0.0000 0.0000 0.0000 11.1012
#
#
#
# Elastic Compliance Matrix: (Units=1/GPa)
#
#
# Indices 1 2 3 4 5 6 
#
# 1 0.028026 -0.010582 -0.010310 0.000000 0.000000 0.000000
# 2 -0.010582 0.016668 -0.000512 0.000000 0.000000 0.000000
# 3 -0.010310 -0.000512 0.013536 0.000000 0.000000 0.000000
# 4 0.000000 0.000000 0.000000 0.026670 0.000000 0.000000
# 5 0.000000 0.000000 0.000000 0.000000 0.031162 0.000000
# 6 0.000000 0.000000 0.000000 0.000000 0.000000 0.090081
#
#
# Mechanical properties :
#
#
# Convention : Reuss Voigt Hill
#
# Bulk Modulus (GPa) = 64.84127 66.74366 65.79246
# Shear Modulus (GPa) = 19.67785 25.37965 22.52875
#
# Velocity S-wave (km/s) = 3.16747 3.59722 3.38916
# Velocity P-wave (km/s) = 6.81446 7.16121 6.98998
#
# Compressibility (1/GPa) = 0.01542228
#
# Stress axis : x y z
#
# Youngs Moduli (GPa) = 35.68097 59.99390 73.87511
#
# Poissons Ratio (x) = 0.63488 0.76167
# Poissons Ratio (y) = 0.37759 0.03780
# Poissons Ratio (z) = 0.36788 0.03070
#
# Static dielectric constant tensor:
#      x y z
#    x 1.724420 0.000000 0.000000 
#    y 0.000000 1.731970 0.000000 
#    z 0.000000 0.000000 1.732400 
# 
# From -- ./inp_files/9744.got.cif
#   From: 2010.05.17/outbox.cif.g08.bks.cpg/sg64_5_cif.got.tgz:9744.got - 2010.06.03 16:29:19.
