data_PCOD9480513
_publ_section_title
;
Structure prediction by ZEFSAII (Michael W. Deem and Ramdas Pophale) SiO2 
 PCOD9480513
Probable space group: C M C A
;
_chemical_formula_sum "Si O2"
_cell_formula_units_Z 104
_cell_length_a 21.414054
_cell_length_b 16.531454
_cell_length_c 14.420316
_cell_angle_alpha 90.000000
_cell_angle_beta 90.000000
_cell_angle_gamma 90.000000
_cell_volume 5104.870435
_symmetry_space_group_name_H-M "C M C A"
_symmetry_group_IT_number 64
_symmetry_cell_setting 'orthorhombic'
loop_
_space_group_symop_operation_xyz
x,y,z
-x,1/2-y,1/2+z
x,-y,-z
-x,1/2+y,1/2-z
-x,-y,-z
x,1/2+y,1/2-z
-x,y,z
x,1/2-y,1/2+z
1/2+x,1/2+y,z
1/2-x,-y,1/2+z
1/2+x,1/2-y,-z
1/2-x,y,1/2-z
1/2-x,1/2-y,-z
1/2+x,y,1/2-z
1/2-x,1/2+y,z
1/2+x,-y,1/2+z
loop_
_atom_site_type_symbol
_atom_site_label
_atom_site_fract_x
_atom_site_fract_y
_atom_site_fract_z
Si Si1 0.678531 0.442097 0.220084
Si Si2 0.617509 0.897689 0.768814
Si Si3 0.928375 0.297759 0.603398
Si Si4 0.324925 0.160382 0.533147
Si Si5 0.892863 0.612347 0.901505
Si Si6 0.699671 0.649010 0.436551
Si Si7 0.000000 0.521607 0.128650
O O1 0.750000 0.456620 0.250000
O O2 0.639191 0.524314 0.210676
O O3 0.676439 0.391319 0.126066
O O4 0.644659 0.396264 0.305299
O O5 0.602919 0.825173 0.699378
O O6 0.673958 0.879236 0.838545
O O7 0.555771 0.920183 0.827570
O O8 0.890409 0.338155 0.519660
O O9 0.922808 0.201258 0.593366
O O10 0.000000 0.322961 0.603517
O O11 0.309663 0.254044 0.557182
O O12 0.270943 0.131484 0.462518
O O13 0.945533 0.543999 0.905055
O O14 0.843619 0.608186 0.985028
#
# Coordination Sequence:
#
# PCOD9480513 Si02
#       7
#    16  16  16  16  16  16   8
#     4  11  23  42  64  98 132 173 207 273 333 397
#     4  11  25  41  63  98 136 172 220 263 337 383
#     4  11  23  45  67  94 128 178 221 273 310 394
#     4  10  23  44  67  96 130 168 227 264 326 384
#     4  10  21  42  71  92 130 171 224 267 329 373
#     4  10  22  42  68  99 125 171 220 278 316 383
#     4  10  22  41  60  95 134 171 208 266 326 396
#
# _framework density 20.372702
#
# number of rings (size 3 to 8) (size 9 to 14) (size 15 to 20)
#    0.000    1.538    3.077    0.923    2.154    4.308 
#    6.923    0.769    0.000    0.000    0.000    0.000 
#    0.000    0.000    0.000    0.000    0.000    0.000 
#
# Total GULP energy -289733.530936 kJ/mol
# GULP energy per Si atom -5571.798672 kJ/mol
# Density = 2.032633 g / cm^3
# Si number density = 20.372702 Si / 1000 Ang^3
#
#
#
# Elastic Constant Matrix: (Units=GPa)
#
#
# Indices 1 2 3 4 5 6 
#
# 1 90.9843 0.3140 29.5372 0.0000 0.0000 0.0000
# 2 0.3140 30.2633 17.8791 0.0000 0.0000 0.0000
# 3 29.5372 17.8791 74.6252 0.0000 0.0000 0.0000
# 4 0.0000 0.0000 0.0000 39.2969 0.0000 0.0000
# 5 0.0000 0.0000 0.0000 0.0000 12.5171 0.0000
# 6 0.0000 0.0000 0.0000 0.0000 0.0000 16.0591
#
#
#
# Elastic Compliance Matrix: (Units=1/GPa)
#
#
# Indices 1 2 3 4 5 6 
#
# 1 0.012898 0.003357 -0.005909 0.000000 0.000000 0.000000
# 2 0.003357 0.039366 -0.010760 0.000000 0.000000 0.000000
# 3 -0.005909 -0.010760 0.018317 0.000000 0.000000 0.000000
# 4 0.000000 0.000000 0.000000 0.025447 0.000000 0.000000
# 5 0.000000 0.000000 0.000000 0.000000 0.079891 0.000000
# 6 0.000000 0.000000 0.000000 0.000000 0.000000 0.062270
#
#
# Mechanical properties :
#
#
# Convention : Reuss Voigt Hill
#
# Bulk Modulus (GPa) = 22.75004 32.37037 27.56020
# Shear Modulus (GPa) = 17.89131 23.45077 20.67104
#
# Velocity S-wave (km/s) = 2.96666 3.39645 3.18880
# Velocity P-wave (km/s) = 4.78810 5.59506 5.20724
#
# Compressibility (1/GPa) = 0.04395597
#
# Stress axis : x y z
#
# Youngs Moduli (GPa) = 77.53289 25.40293 54.59329
#
# Poissons Ratio (x) = -0.08529 0.32261
# Poissons Ratio (y) = -0.26031 0.58744
# Poissons Ratio (z) = 0.45817 0.27334
#
# Static dielectric constant tensor:
#      x y z
#    x 1.700330 0.000000 0.000000 
#    y 0.000000 1.717840 0.000000 
#    z 0.000000 0.000000 1.717460 
# 
# From -- ./inp_files/26541.got.cif
#   From: 2010.05.17/outbox.cif.g08.bks.cpg/sg64_14_cif.got.tgz:26541.got - 2010.06.03 16:29:19.
