data_PCOD9480087
_publ_section_title
;
Structure prediction by ZEFSAII (Michael W. Deem and Ramdas Pophale) SiO2 
 PCOD9480087
Probable space group: C M C A
;
_chemical_formula_sum "Si O2"
_cell_formula_units_Z 96
_cell_length_a 14.616906
_cell_length_b 21.697248
_cell_length_c 13.675326
_cell_angle_alpha 90.000000
_cell_angle_beta 90.000000
_cell_angle_gamma 90.000000
_cell_volume 4337.083616
_symmetry_space_group_name_H-M "C M C A"
_symmetry_group_IT_number 64
_symmetry_cell_setting 'orthorhombic'
loop_
_space_group_symop_operation_xyz
x,y,z
-x,1/2-y,1/2+z
x,-y,-z
-x,1/2+y,1/2-z
-x,-y,-z
x,1/2+y,1/2-z
-x,y,z
x,1/2-y,1/2+z
1/2+x,1/2+y,z
1/2-x,-y,1/2+z
1/2+x,1/2-y,-z
1/2-x,y,1/2-z
1/2-x,1/2-y,-z
1/2+x,y,1/2-z
1/2-x,1/2+y,z
1/2+x,-y,1/2+z
loop_
_atom_site_type_symbol
_atom_site_label
_atom_site_fract_x
_atom_site_fract_y
_atom_site_fract_z
Si Si1 0.891090 0.984030 0.610266
Si Si2 0.895873 0.662139 0.877536
Si Si3 0.892967 0.925748 0.214588
Si Si4 0.707325 0.118329 0.539656
Si Si5 0.106991 0.247972 0.960413
Si Si6 0.207639 0.638969 0.145471
O O1 0.867077 0.914943 0.641670
O O2 0.000000 0.991419 0.605151
O O3 0.855907 0.000000 0.500000
O O4 0.861269 0.028156 0.699887
O O5 0.884059 0.642714 0.764923
O O6 0.812757 0.627858 0.929776
O O7 0.000000 0.640736 0.903329
O O8 0.889234 0.729832 0.924977
O O9 0.838489 0.928580 0.114128
O O10 0.000000 0.935943 0.195887
O O11 0.653601 0.182588 0.552720
O O12 0.712856 0.110336 0.424077
O O13 0.163107 0.299256 0.899880
O O14 0.000000 0.247252 0.932642
O O15 0.250000 0.651361 0.250000
#
# Coordination Sequence:
#
# PCOD9480087 Si02
#       6
#    16  16  16  16  16  16
#     4  10  21  40  65  90 119 159 212 270 323 379
#     4   9  18  33  56  85 117 153 196 250 310 370
#     4  10  21  38  62  92 123 160 207 261 318 374
#     4  11  22  38  60  90 124 159 207 261 311 373
#     4  10  21  40  62  86 121 165 212 261 315 376
#     4  11  24  39  59  89 126 167 210 257 317 383
#
# _framework density 22.134689000000002
#
# number of rings (size 3 to 8) (size 9 to 14) (size 15 to 20)
#    0.000    1.833    0.000    5.500    0.000   10.000 
#    0.000    5.000    0.000    3.000    0.000    2.333 
#    0.000    0.667    0.000    0.000    0.000    0.000 
#
# Total GULP energy -267785.747876 kJ/mol
# GULP energy per Si atom -5578.869747 kJ/mol
# Density = 2.208431 g / cm^3
# Si number density = 22.134689 Si / 1000 Ang^3
#
#
#
# Elastic Constant Matrix: (Units=GPa)
#
#
# Indices 1 2 3 4 5 6 
#
# 1 56.9664 -8.8801 32.5844 0.0000 0.0000 0.0000
# 2 -8.8801 45.9426 1.8362 0.0000 0.0000 0.0000
# 3 32.5844 1.8362 112.5286 0.0000 0.0000 0.0000
# 4 0.0000 0.0000 0.0000 22.1663 0.0000 0.0000
# 5 0.0000 0.0000 0.0000 0.0000 32.8827 0.0000
# 6 0.0000 0.0000 0.0000 0.0000 0.0000 52.5931
#
#
#
# Elastic Compliance Matrix: (Units=1/GPa)
#
#
# Indices 1 2 3 4 5 6 
#
# 1 0.021929 0.004495 -0.006423 0.000000 0.000000 0.000000
# 2 0.004495 0.022702 -0.001672 0.000000 0.000000 0.000000
# 3 -0.006423 -0.001672 0.010774 0.000000 0.000000 0.000000
# 4 0.000000 0.000000 0.000000 0.045114 0.000000 0.000000
# 5 0.000000 0.000000 0.000000 0.000000 0.030411 0.000000
# 6 0.000000 0.000000 0.000000 0.000000 0.000000 0.019014
#
#
# Mechanical properties :
#
#
# Convention : Reuss Voigt Hill
#
# Bulk Modulus (GPa) = 20.74484 29.61317 25.17901
# Shear Modulus (GPa) = 28.86639 34.18821 31.52730
#
# Velocity S-wave (km/s) = 3.61518 3.93434 3.77814
# Velocity P-wave (km/s) = 5.17866 5.83493 5.51656
#
# Compressibility (1/GPa) = 0.04820476
#
# Stress axis : x y z
#
# Youngs Moduli (GPa) = 45.60173 44.04898 92.81723
#
# Poissons Ratio (x) = -0.19801 0.59619
# Poissons Ratio (y) = -0.20499 0.15520
# Poissons Ratio (z) = 0.29291 0.07366
#
# Static dielectric constant tensor:
#      x y z
#    x 1.810900 0.000000 0.000000 
#    y 0.000000 1.859620 0.000000 
#    z 0.000000 0.000000 1.867650 
# 
# From -- ./inp_files/23891.got.cif
#   From: 2010.05.17/outbox.cif.g08.bks.cpg/sg64_12_cif.got.tgz:23891.got - 2010.06.03 16:29:19.
