data_PCOD9480124
_publ_section_title
;
Structure prediction by ZEFSAII (Michael W. Deem and Ramdas Pophale) SiO2 
 PCOD9480124
Probable space group: C M C A
;
_chemical_formula_sum "Si O2"
_cell_formula_units_Z 112
_cell_length_a 30.009373
_cell_length_b 4.949417
_cell_length_c 30.904951
_cell_angle_alpha 90.000000
_cell_angle_beta 90.000000
_cell_angle_gamma 90.000000
_cell_volume 4590.278404
_symmetry_space_group_name_H-M "C M C A"
_symmetry_group_IT_number 64
_symmetry_cell_setting 'orthorhombic'
loop_
_space_group_symop_operation_xyz
x,y,z
-x,1/2-y,1/2+z
x,-y,-z
-x,1/2+y,1/2-z
-x,-y,-z
x,1/2+y,1/2-z
-x,y,z
x,1/2-y,1/2+z
1/2+x,1/2+y,z
1/2-x,-y,1/2+z
1/2+x,1/2-y,-z
1/2-x,y,1/2-z
1/2-x,1/2-y,-z
1/2+x,y,1/2-z
1/2-x,1/2+y,z
1/2+x,-y,1/2+z
loop_
_atom_site_type_symbol
_atom_site_label
_atom_site_fract_x
_atom_site_fract_y
_atom_site_fract_z
Si Si1 0.136133 0.267418 0.275209
Si Si2 0.950204 0.453751 0.866509
Si Si3 0.608655 0.940816 0.637877
Si Si4 0.277432 0.955815 0.812736
Si Si5 0.280685 0.546169 0.414498
Si Si6 0.855072 0.902343 0.047880
Si Si7 0.452924 0.820209 0.958180
O O1 0.116995 0.481752 0.240826
O O2 0.131020 0.420357 0.320820
O O3 0.186838 0.161618 0.280076
O O4 0.933691 0.143867 0.867572
O O5 0.952028 0.519705 0.917283
O O6 0.000000 0.482263 0.847887
O O7 0.911213 0.649085 0.850620
O O8 0.639940 0.938360 0.594675
O O9 0.234191 0.768161 0.807395
O O10 0.291086 0.928339 0.863263
O O11 0.260307 0.253150 0.423762
O O12 0.323547 0.648156 0.440463
O O13 0.906872 0.834699 0.041252
O O14 0.839754 0.000000 0.000000
O O15 0.500000 0.664039 0.954831
O O16 0.453707 0.000000 0.000000
#
# Coordination Sequence:
#
# PCOD9480124 Si02
#       7
#    16  16  16  16  16  16  16
#     4  12  25  41  65  95 126 166 208 259 329 388
#     4  10  21  38  65  91 123 171 212 256 323 384
#     4  11  23  42  63  94 132 162 210 271 315 383
#     4  10  21  40  63  91 125 162 206 262 323 380
#     4  10  23  42  64  90 130 174 220 271 316 366
#     4  11  23  39  65  97 130 179 223 262 325 391
#     4   9  19  36  59  96 136 169 214 274 330 392
#
# _framework density 24.399391999999999
#
# number of rings (size 3 to 8) (size 9 to 14) (size 15 to 20)
#    0.000    1.571    1.429    3.000    0.000    6.571 
#    0.000    0.000    0.000    8.571    0.000    0.000 
#    0.000    0.000    0.000    0.000    0.000    0.000 
#
# Total GULP energy -312423.527471 kJ/mol
# GULP energy per Si atom -5578.991562 kJ/mol
# Density = 2.434386 g / cm^3
# Si number density = 24.399392 Si / 1000 Ang^3
#
#
#
# Elastic Constant Matrix: (Units=GPa)
#
#
# Indices 1 2 3 4 5 6 
#
# 1 43.6272 -2.4384 -1.8218 0.0000 0.0000 0.0000
# 2 -2.4384 77.1265 6.7150 0.0000 0.0000 0.0000
# 3 -1.8218 6.7150 107.5892 0.0000 0.0000 0.0000
# 4 0.0000 0.0000 0.0000 23.0641 0.0000 0.0000
# 5 0.0000 0.0000 0.0000 0.0000 32.9954 0.0000
# 6 0.0000 0.0000 0.0000 0.0000 0.0000 36.7322
#
#
#
# Elastic Compliance Matrix: (Units=1/GPa)
#
#
# Indices 1 2 3 4 5 6 
#
# 1 0.022975 0.000696 0.000346 0.000000 0.000000 0.000000
# 2 0.000696 0.013058 -0.000803 0.000000 0.000000 0.000000
# 3 0.000346 -0.000803 0.009351 0.000000 0.000000 0.000000
# 4 0.000000 0.000000 0.000000 0.043357 0.000000 0.000000
# 5 0.000000 0.000000 0.000000 0.000000 0.030307 0.000000
# 6 0.000000 0.000000 0.000000 0.000000 0.000000 0.027224
#
#
# Mechanical properties :
#
#
# Convention : Reuss Voigt Hill
#
# Bulk Modulus (GPa) = 21.80528 25.91693 23.86110
# Shear Modulus (GPa) = 31.04021 33.61753 32.32887
#
# Velocity S-wave (km/s) = 3.57062 3.71590 3.64399
# Velocity P-wave (km/s) = 5.09464 5.39032 5.24456
#
# Compressibility (1/GPa) = 0.04586045
#
# Stress axis : x y z
#
# Youngs Moduli (GPa) = 43.52588 76.58339 106.94508
#
# Poissons Ratio (x) = -0.05332 -0.03696
# Poissons Ratio (y) = -0.03031 0.08590
# Poissons Ratio (z) = -0.01504 0.06151
#
# Static dielectric constant tensor:
#      x y z
#    x 1.985580 0.000000 0.000000 
#    y 0.000000 1.975570 0.000000 
#    z 0.000000 0.000000 2.039030 
# 
# From -- ./inp_files/54089.got.cif
#   From: 2010.05.17/outbox.cif.g08.bks.cpg/sg64_28_cif.got.tgz:54089.got - 2010.06.03 16:29:19.
