data_PCOD9480446
_publ_section_title
;
Structure prediction by ZEFSAII (Michael W. Deem and Ramdas Pophale) SiO2 
 PCOD9480446
Probable space group: C M C A
;
_chemical_formula_sum "Si O2"
_cell_formula_units_Z 88
_cell_length_a 23.290616
_cell_length_b 12.990169
_cell_length_c 12.647427
_cell_angle_alpha 90.000000
_cell_angle_beta 90.000000
_cell_angle_gamma 90.000000
_cell_volume 3826.466871
_symmetry_space_group_name_H-M "C M C A"
_symmetry_group_IT_number 64
_symmetry_cell_setting 'orthorhombic'
loop_
_space_group_symop_operation_xyz
x,y,z
-x,1/2-y,1/2+z
x,-y,-z
-x,1/2+y,1/2-z
-x,-y,-z
x,1/2+y,1/2-z
-x,y,z
x,1/2-y,1/2+z
1/2+x,1/2+y,z
1/2-x,-y,1/2+z
1/2+x,1/2-y,-z
1/2-x,y,1/2-z
1/2-x,1/2-y,-z
1/2+x,y,1/2-z
1/2-x,1/2+y,z
1/2+x,-y,1/2+z
loop_
_atom_site_type_symbol
_atom_site_label
_atom_site_fract_x
_atom_site_fract_y
_atom_site_fract_z
Si Si1 0.336367 0.337518 0.648229
Si Si2 0.932114 0.374679 0.004922
Si Si3 0.560610 0.005236 0.627320
Si Si4 0.327111 0.119075 0.591767
Si Si5 0.772243 0.000000 0.500000
Si Si6 0.619434 0.190380 0.370462
O O1 0.401393 0.331983 0.600961
O O2 0.307011 0.229109 0.629123
O O3 0.308638 0.422401 0.572181
O O4 0.339070 0.337405 0.773794
O O5 0.900485 0.306321 0.097730
O O6 0.000000 0.352892 0.009362
O O7 0.925815 0.500000 0.000000
O O8 0.500000 0.048663 0.668086
O O9 0.618599 0.068774 0.652999
O O10 0.557773 0.000000 0.500000
O O11 0.566845 0.885722 0.656511
O O12 0.351094 0.142584 0.474361
O O13 0.271087 0.051599 0.582696
#
# Coordination Sequence:
#
# PCOD9480446 Si02
#       6
#    16  16  16  16   8  16
#     4  11  25  41  69  99 140 185 243 295 367 435
#     4  10  22  43  66  97 145 189 230 299 372 436
#     4   9  17  36  67  97 130 169 221 293 351 417
#     4  10  22  44  64  96 139 179 239 292 363 424
#     4  12  22  48  66  92 138 194 232 306 344 424
#     4  10  21  41  66 103 133 180 238 291 358 446
#
# _framework density 22.997716
#
# number of rings (size 3 to 8) (size 9 to 14) (size 15 to 20)
#    0.000    1.818    3.636    1.091    0.000    8.000 
#    0.000    1.818    0.000    0.000    0.000    0.000 
#    0.000    0.000    0.000    0.000    0.000    0.000 
#
# Total GULP energy -245009.188241 kJ/mol
# GULP energy per Si atom -5568.390642 kJ/mol
# Density = 2.294537 g / cm^3
# Si number density = 22.997716 Si / 1000 Ang^3
#
#
#
# Elastic Constant Matrix: (Units=GPa)
#
#
# Indices 1 2 3 4 5 6 
#
# 1 105.5276 51.1243 19.2375 0.0000 0.0000 0.0000
# 2 51.1243 141.0976 35.1524 0.0000 0.0000 0.0000
# 3 19.2375 35.1524 51.8751 0.0000 0.0000 0.0000
# 4 0.0000 0.0000 0.0000 0.9050 0.0000 0.0000
# 5 0.0000 0.0000 0.0000 0.0000 -5.3978 0.0000
# 6 0.0000 0.0000 0.0000 0.0000 0.0000 16.6289
#
#
#
# Elastic Compliance Matrix: (Units=1/GPa)
#
#
# Indices 1 2 3 4 5 6 
#
# 1 0.011625 -0.003775 -0.001753 0.000000 0.000000 0.000000
# 2 -0.003775 0.009753 -0.005209 0.000000 0.000000 0.000000
# 3 -0.001753 -0.005209 0.023457 0.000000 0.000000 0.000000
# 4 0.000000 0.000000 0.000000 1.105009 0.000000 0.000000
# 5 0.000000 0.000000 0.000000 0.000000 -0.185260 0.000000
# 6 0.000000 0.000000 0.000000 0.000000 0.000000 0.060136
#
#
# Mechanical properties :
#
#
# Convention : Reuss Voigt Hill
#
# Bulk Modulus (GPa) = 42.80697 56.61430 49.71063
# Shear Modulus (GPa) = 4.74392 15.29294 10.01843
#
# Velocity S-wave (km/s) = 1.43780 2.58151 2.08943
# Velocity P-wave (km/s) = 4.62713 5.79279 5.24246
#
# Compressibility (1/GPa) = 0.02336068
#
# Stress axis : x y z
#
# Youngs Moduli (GPa) = 86.02350 102.53299 42.63167
#
# Poissons Ratio (x) = 0.38710 0.07472
# Poissons Ratio (y) = 0.32477 0.22206
# Poissons Ratio (z) = 0.15077 0.53408
#
# Static dielectric constant tensor:
#      x y z
#    x 1.924080 0.000000 0.000000 
#    y 0.000000 1.977530 0.000000 
#    z 0.000000 0.000000 1.540810 
# 
# From -- ./inp_files/27191.got.cif
#   From: 2010.05.17/outbox.cif.g08.bks.cpg/sg64_14_cif.got.tgz:27191.got - 2010.06.03 16:29:19.
