data_PCOD9480435
_publ_section_title
;
Structure prediction by ZEFSAII (Michael W. Deem and Ramdas Pophale) SiO2 
 PCOD9480435
Probable space group: C M C A
;
_chemical_formula_sum "Si O2"
_cell_formula_units_Z 72
_cell_length_a 11.985620
_cell_length_b 21.080997
_cell_length_c 15.621083
_cell_angle_alpha 90.000000
_cell_angle_beta 90.000000
_cell_angle_gamma 90.000000
_cell_volume 3946.960597
_symmetry_space_group_name_H-M "C M C A"
_symmetry_group_IT_number 64
_symmetry_cell_setting 'orthorhombic'
loop_
_space_group_symop_operation_xyz
x,y,z
-x,1/2-y,1/2+z
x,-y,-z
-x,1/2+y,1/2-z
-x,-y,-z
x,1/2+y,1/2-z
-x,y,z
x,1/2-y,1/2+z
1/2+x,1/2+y,z
1/2-x,-y,1/2+z
1/2+x,1/2-y,-z
1/2-x,y,1/2-z
1/2-x,1/2-y,-z
1/2+x,y,1/2-z
1/2-x,1/2+y,z
1/2+x,-y,1/2+z
loop_
_atom_site_type_symbol
_atom_site_label
_atom_site_fract_x
_atom_site_fract_y
_atom_site_fract_z
Si Si1 0.500000 0.350513 0.597185
Si Si2 0.206838 0.571803 0.153304
Si Si3 0.872930 0.103622 1.000000
Si Si4 0.000000 0.227250 0.000000
Si Si5 0.793162 0.571802 0.846696
Si Si6 0.000000 0.149487 0.597185
O O1 0.390101 0.377148 0.640793
O O2 0.500000 0.275029 0.580504
O O3 0.500000 0.377293 0.500000
O O4 0.250000 0.575224 0.250000
O O5 0.303740 0.584074 0.083622
O O6 0.163886 0.500000 0.138675
O O7 0.000000 0.077498 1.000000
O O8 0.803739 0.084074 0.916379
O O9 0.895186 0.179650 0.000000
O O10 0.000000 0.275030 0.080504
O O11 0.750000 0.575223 0.750000
O O12 0.890101 0.622852 0.859207
#
# Coordination Sequence:
#
# PCOD9480435 Si02
#       6
#     8  16  16   8  16   8
#     4  10  21  41  65  82 122 159 204 246 295 348
#     4  11  24  39  62  94 123 156 200 251 301 360
#     4  10  22  42  60  86 126 160 200 240 310 348
#     4   8  22  40  64  88 118 160 208 248 286 360
#     4  11  24  39  62  94 123 156 200 251 301 360
#     4  10  21  41  65  82 122 159 204 246 295 348
#
# _framework density 18.241885
#
# number of rings (size 3 to 8) (size 9 to 14) (size 15 to 20)
#    1.333    0.444    2.222    1.333    3.111    6.222 
#    0.000    6.667    0.000    0.000    0.000    0.000 
#    0.000    0.000    0.000    0.000    0.000    0.000 
#
# Total GULP energy -200590.211169 kJ/mol
# GULP energy per Si atom -5571.950310 kJ/mol
# Density = 1.820037 g / cm^3
# Si number density = 18.241885 Si / 1000 Ang^3
#
#
#
# Elastic Constant Matrix: (Units=GPa)
#
#
# Indices 1 2 3 4 5 6 
#
# 1 68.7454 6.4914 31.4453 0.0000 0.0000 0.0000
# 2 6.4914 110.7572 24.7952 0.0000 0.0000 0.0000
# 3 31.4453 24.7952 108.0533 0.0000 0.0000 0.0000
# 4 0.0000 0.0000 0.0000 -496.3341 0.0000 0.0000
# 5 0.0000 0.0000 0.0000 0.0000 18.3793 0.0000
# 6 0.0000 0.0000 0.0000 0.0000 0.0000 52.3496
#
#
#
# Elastic Compliance Matrix: (Units=1/GPa)
#
#
# Indices 1 2 3 4 5 6 
#
# 1 0.016782 0.000116 -0.004910 0.000000 0.000000 0.000000
# 2 0.000116 0.009518 -0.002218 0.000000 0.000000 0.000000
# 3 -0.004910 -0.002218 0.011193 0.000000 0.000000 0.000000
# 4 0.000000 0.000000 0.000000 -0.002015 0.000000 0.000000
# 5 0.000000 0.000000 0.000000 0.000000 0.054409 0.000000
# 6 0.000000 0.000000 0.000000 0.000000 0.000000 0.019102
#
#
# Mechanical properties :
#
#
# Convention : Reuss Voigt Hill
#
# Bulk Modulus (GPa) = 42.61171 45.89108 44.25140
# Shear Modulus (GPa) = 38.21559 -70.13276 -15.95858
#
# Velocity S-wave (km/s) = 4.58201 -6.20721 -2.96096
# Velocity P-wave (km/s) = 7.16960 5.11479 3.55261
#
# Compressibility (1/GPa) = 0.02346773
#
# Stress axis : x y z
#
# Youngs Moduli (GPa) = 59.58931 105.05863 89.34472
#
# Poissons Ratio (x) = -0.01216 0.43871
# Poissons Ratio (y) = -0.00689 0.19816
# Poissons Ratio (z) = 0.29260 0.23301
#
# Static dielectric constant tensor:
#      x y z
#    x 1.575580 0.000000 0.000000 
#    y 0.000000 1.633050 0.000000 
#    z 0.000000 0.000000 1.603760 
# 
# From -- ./inp_files/22274.got.cif
#   From: 2010.05.17/outbox.cif.g08.bks.cpg/sg64_12_cif.got.tgz:22274.got - 2010.06.03 16:29:19.
