data_PCOD9480470
_publ_section_title
;
Structure prediction by ZEFSAII (Michael W. Deem and Ramdas Pophale) SiO2 
 PCOD9480470
Probable space group: C M C A
;
_chemical_formula_sum "Si O2"
_cell_formula_units_Z 56
_cell_length_a 19.781318
_cell_length_b 11.161709
_cell_length_c 10.516060
_cell_angle_alpha 90.000000
_cell_angle_beta 90.000000
_cell_angle_gamma 90.000000
_cell_volume 2321.875750
_symmetry_space_group_name_H-M "C M C A"
_symmetry_group_IT_number 64
_symmetry_cell_setting 'orthorhombic'
loop_
_space_group_symop_operation_xyz
x,y,z
-x,1/2-y,1/2+z
x,-y,-z
-x,1/2+y,1/2-z
-x,-y,-z
x,1/2+y,1/2-z
-x,y,z
x,1/2-y,1/2+z
1/2+x,1/2+y,z
1/2-x,-y,1/2+z
1/2+x,1/2-y,-z
1/2-x,y,1/2-z
1/2-x,1/2-y,-z
1/2+x,y,1/2-z
1/2-x,1/2+y,z
1/2+x,-y,1/2+z
loop_
_atom_site_type_symbol
_atom_site_label
_atom_site_fract_x
_atom_site_fract_y
_atom_site_fract_z
Si Si1 0.424044 0.622315 0.664006
Si Si2 0.273402 0.331637 0.384173
Si Si3 0.677916 0.000000 0.500000
Si Si4 0.574062 0.115746 0.332673
O O1 0.500000 0.619383 0.601953
O O2 0.351377 0.630356 0.596528
O O3 0.420725 0.501398 0.745578
O O4 0.422081 0.753704 0.733153
O O5 0.250000 0.274142 0.250000
O O6 0.250000 0.250000 0.500000
O O7 0.225867 0.448208 0.392427
O O8 0.629973 0.899567 0.559919
O O9 0.500000 0.111185 0.393700
#
# Coordination Sequence:
#
# PCOD9480470 Si02
#       4
#    16  16   8  16
#     4  10  22  44  73 109 149 196 248 314 383 455
#     4  12  26  46  73 110 152 202 255 316 381 457
#     4  12  23  40  71 104 144 202 252 316 373 456
#     4  10  21  41  70 105 145 193 249 311 381 455
#
# _framework density 24.118431000000001
#
# number of rings (size 3 to 8) (size 9 to 14) (size 15 to 20)
#    0.000    1.143    5.714    0.429    0.000    3.429 
#    0.000    2.143    0.000    0.000    0.000    0.000 
#    0.000    0.000    0.000    0.000    0.000    0.000 
#
# Total GULP energy -156072.912252 kJ/mol
# GULP energy per Si atom -5574.032580 kJ/mol
# Density = 2.406354 g / cm^3
# Si number density = 24.118431 Si / 1000 Ang^3
#
#
#
# Elastic Constant Matrix: (Units=GPa)
#
#
# Indices 1 2 3 4 5 6 
#
# 1 240.4866 24.9070 31.8669 0.0000 0.0000 0.0000
# 2 24.9070 153.8048 17.7462 0.0000 0.0000 0.0000
# 3 31.8669 17.7462 74.8190 0.0000 0.0000 0.0000
# 4 0.0000 0.0000 0.0000 27.6367 0.0000 0.0000
# 5 0.0000 0.0000 0.0000 0.0000 33.8196 0.0000
# 6 0.0000 0.0000 0.0000 0.0000 0.0000 331.8303
#
#
#
# Elastic Compliance Matrix: (Units=1/GPa)
#
#
# Indices 1 2 3 4 5 6 
#
# 1 0.004446 -0.000516 -0.001771 0.000000 0.000000 0.000000
# 2 -0.000516 0.006744 -0.001380 0.000000 0.000000 0.000000
# 3 -0.001771 -0.001380 0.014447 0.000000 0.000000 0.000000
# 4 0.000000 0.000000 0.000000 0.036184 0.000000 0.000000
# 5 0.000000 0.000000 0.000000 0.000000 0.029569 0.000000
# 6 0.000000 0.000000 0.000000 0.000000 0.000000 0.003014
#
#
# Mechanical properties :
#
#
# Convention : Reuss Voigt Hill
#
# Bulk Modulus (GPa) = 54.63331 68.68339 61.65835
# Shear Modulus (GPa) = 46.36497 104.96336 75.66416
#
# Velocity S-wave (km/s) = 4.38926 6.60412 5.60714
# Velocity P-wave (km/s) = 6.95620 9.31085 8.21829
#
# Compressibility (1/GPa) = 0.01830385
#
# Stress axis : x y z
#
# Youngs Moduli (GPa) = 224.90202 148.26925 69.21639
#
# Poissons Ratio (x) = 0.07645 0.12262
# Poissons Ratio (y) = 0.11597 0.09552
# Poissons Ratio (z) = 0.39841 0.20463
#
# Static dielectric constant tensor:
#      x y z
#    x 1.954800 0.000000 0.000000 
#    y 0.000000 2.043460 0.000000 
#    z 0.000000 0.000000 1.992000 
# 
# From -- ./inp_files/16698.got.cif
#   From: 2010.05.17/outbox.cif.g08.bks.cpg/sg64_9_cif.got.tgz:16698.got - 2010.06.03 16:29:19.
