data_PCOD9480912
_publ_section_title
;
Structure prediction by ZEFSAII (Michael W. Deem and Ramdas Pophale) SiO2 
 PCOD9480912
Probable space group: C M C A
;
_chemical_formula_sum "Si O2"
_cell_formula_units_Z 80
_cell_length_a 13.569704
_cell_length_b 9.481072
_cell_length_c 27.939507
_cell_angle_alpha 90.000000
_cell_angle_beta 90.000000
_cell_angle_gamma 90.000000
_cell_volume 3594.566790
_symmetry_space_group_name_H-M "C M C A"
_symmetry_group_IT_number 64
_symmetry_cell_setting 'orthorhombic'
loop_
_space_group_symop_operation_xyz
x,y,z
-x,1/2-y,1/2+z
x,-y,-z
-x,1/2+y,1/2-z
-x,-y,-z
x,1/2+y,1/2-z
-x,y,z
x,1/2-y,1/2+z
1/2+x,1/2+y,z
1/2-x,-y,1/2+z
1/2+x,1/2-y,-z
1/2-x,y,1/2-z
1/2-x,1/2-y,-z
1/2+x,y,1/2-z
1/2-x,1/2+y,z
1/2+x,-y,1/2+z
loop_
_atom_site_type_symbol
_atom_site_label
_atom_site_fract_x
_atom_site_fract_y
_atom_site_fract_z
Si Si1 0.381770 0.271812 0.628118
Si Si2 0.778288 0.380921 0.966973
Si Si3 0.117356 0.041738 0.104218
Si Si4 0.379448 0.464619 0.717509
Si Si5 0.880254 0.278916 0.693125
O O1 0.500000 0.279377 0.627412
O O2 0.342037 0.335294 0.578645
O O3 0.350032 0.360295 0.674463
O O4 0.356343 0.106292 0.629447
O O5 0.678969 0.444800 0.943895
O O6 0.826954 0.500000 0.000000
O O7 0.750000 0.250000 0.000000
O O8 0.143400 0.170243 0.139684
O O9 0.000000 0.043028 0.095894
O O10 0.500000 0.469538 0.717580
O O11 0.345020 0.623658 0.707612
O O12 0.351224 0.396375 0.768072
O O13 0.000000 0.274430 0.694648
#
# Coordination Sequence:
#
# PCOD9480912 Si02
#       5
#    16  16  16  16  16
#     4  10  22  41  64  91 123 161 203 249 303 364
#     4  12  26  44  64  89 121 158 205 261 310 359
#     4  10  22  41  65  90 122 163 204 246 303 368
#     4   9  17  31  56  90 126 160 198 243 296 358
#     4   9  17  31  56  90 125 161 198 242 296 359
#
# _framework density 22.255811999999999
#
# number of rings (size 3 to 8) (size 9 to 14) (size 15 to 20)
#    0.000    2.000    2.000    1.200    2.800    6.400 
#    0.000    1.000    0.000    4.800    0.000    0.000 
#    0.000    0.000    0.000    0.000    0.000    0.000 
#
# Total GULP energy -223841.701766 kJ/mol
# GULP energy per Si atom -5596.042544 kJ/mol
# Density = 2.220516 g / cm^3
# Si number density = 22.255812 Si / 1000 Ang^3
#
#
#
# Elastic Constant Matrix: (Units=GPa)
#
#
# Indices 1 2 3 4 5 6 
#
# 1 52.2399 0.7475 2.4634 0.0000 0.0000 0.0000
# 2 0.7475 122.5791 37.0512 0.0000 0.0000 0.0000
# 3 2.4634 37.0512 112.3053 0.0000 0.0000 0.0000
# 4 0.0000 0.0000 0.0000 50.2541 0.0000 0.0000
# 5 0.0000 0.0000 0.0000 0.0000 36.8059 0.0000
# 6 0.0000 0.0000 0.0000 0.0000 0.0000 18.4089
#
#
#
# Elastic Compliance Matrix: (Units=1/GPa)
#
#
# Indices 1 2 3 4 5 6 
#
# 1 0.019162 0.000011 -0.000424 0.000000 0.000000 0.000000
# 2 0.000011 0.009062 -0.002990 0.000000 0.000000 0.000000
# 3 -0.000424 -0.002990 0.009900 0.000000 0.000000 0.000000
# 4 0.000000 0.000000 0.000000 0.019899 0.000000 0.000000
# 5 0.000000 0.000000 0.000000 0.000000 0.027170 0.000000
# 6 0.000000 0.000000 0.000000 0.000000 0.000000 0.054322
#
#
# Mechanical properties :
#
#
# Convention : Reuss Voigt Hill
#
# Bulk Modulus (GPa) = 31.92972 40.84985 36.38978
# Shear Modulus (GPa) = 31.89618 37.55127 34.72372
#
# Velocity S-wave (km/s) = 3.78982 4.11208 3.95423
# Velocity P-wave (km/s) = 5.79035 6.39845 6.10198
#
# Compressibility (1/GPa) = 0.03131879
#
# Stress axis : x y z
#
# Youngs Moduli (GPa) = 52.18585 110.35530 101.01027
#
# Poissons Ratio (x) = -0.00125 0.04283
# Poissons Ratio (y) = -0.00059 0.30200
# Poissons Ratio (z) = 0.02213 0.32994
#
# Static dielectric constant tensor:
#      x y z
#    x 1.856420 0.000000 0.000000 
#    y 0.000000 1.797180 0.000000 
#    z 0.000000 0.000000 1.734760 
# 
# From -- ./inp_files/50281.got.cif
#   From: 2010.05.17/outbox.cif.g08.bks.cpg/sg64_26_cif.got.tgz:50281.got - 2010.06.03 16:29:19.
