data_PCOD9480102
_publ_section_title
;
Structure prediction by ZEFSAII (Michael W. Deem and Ramdas Pophale) SiO2 
 PCOD9480102
Probable space group: C M C A
;
_chemical_formula_sum "Si O2"
_cell_formula_units_Z 64
_cell_length_a 13.199667
_cell_length_b 12.092047
_cell_length_c 18.317240
_cell_angle_alpha 90.000000
_cell_angle_beta 90.000000
_cell_angle_gamma 90.000000
_cell_volume 2923.632879
_symmetry_space_group_name_H-M "C M C A"
_symmetry_group_IT_number 64
_symmetry_cell_setting 'orthorhombic'
loop_
_space_group_symop_operation_xyz
x,y,z
-x,1/2-y,1/2+z
x,-y,-z
-x,1/2+y,1/2-z
-x,-y,-z
x,1/2+y,1/2-z
-x,y,z
x,1/2-y,1/2+z
1/2+x,1/2+y,z
1/2-x,-y,1/2+z
1/2+x,1/2-y,-z
1/2-x,y,1/2-z
1/2-x,1/2-y,-z
1/2+x,y,1/2-z
1/2-x,1/2+y,z
1/2+x,-y,1/2+z
loop_
_atom_site_type_symbol
_atom_site_label
_atom_site_fract_x
_atom_site_fract_y
_atom_site_fract_z
Si Si1 0.107386 0.944361 0.420984
Si Si2 0.672629 0.808128 0.579187
Si Si3 0.884471 0.809152 0.078474
Si Si4 0.198366 0.501711 0.671135
O O1 0.119310 0.811515 0.422482
O O2 0.204940 0.987456 0.381042
O O3 0.000000 0.971499 0.384455
O O4 0.106395 0.000000 0.500000
O O5 0.792681 0.778661 0.583777
O O6 0.640534 0.861443 0.501614
O O7 0.646875 0.886819 0.646903
O O8 0.870305 0.895813 0.144651
O O9 0.000000 0.767203 0.077908
O O10 0.250000 0.506133 0.750000
#
# Coordination Sequence:
#
# PCOD9480102 Si02
#       4
#    16  16  16  16
#     4  10  21  40  64  87 113 150 199 251 301 352
#     4  10  21  38  63  90 117 155 201 251 301 355
#     4  10  21  39  63  89 116 152 203 257 303 352
#     4  11  24  39  55  84 125 160 193 239 297 361
#
# _framework density 21.890573
#
# number of rings (size 3 to 8) (size 9 to 14) (size 15 to 20)
#    0.000    1.750    0.000    6.000    0.000   11.000 
#    0.000    0.000    0.000    0.000    0.000    0.000 
#    0.000    0.000    0.000    0.000    0.000    0.000 
#
# Total GULP energy -178538.659078 kJ/mol
# GULP energy per Si atom -5579.333096 kJ/mol
# Density = 2.184075 g / cm^3
# Si number density = 21.890573 Si / 1000 Ang^3
#
#
#
# Elastic Constant Matrix: (Units=GPa)
#
#
# Indices 1 2 3 4 5 6 
#
# 1 106.8309 -3.6537 -13.7447 0.0000 0.0000 0.0000
# 2 -3.6537 99.4429 31.3995 0.0000 0.0000 0.0000
# 3 -13.7447 31.3995 80.9008 0.0000 0.0000 0.0000
# 4 0.0000 0.0000 0.0000 8.7827 0.0000 0.0000
# 5 0.0000 0.0000 0.0000 0.0000 8.2925 0.0000
# 6 0.0000 0.0000 0.0000 0.0000 0.0000 -26.2865
#
#
#
# Elastic Compliance Matrix: (Units=1/GPa)
#
#
# Indices 1 2 3 4 5 6 
#
# 1 0.009573 -0.000184 0.001698 0.000000 0.000000 0.000000
# 2 -0.000184 0.011464 -0.004481 0.000000 0.000000 0.000000
# 3 0.001698 -0.004481 0.014388 0.000000 0.000000 0.000000
# 4 0.000000 0.000000 0.000000 0.113861 0.000000 0.000000
# 5 0.000000 0.000000 0.000000 0.000000 0.120591 0.000000
# 6 0.000000 0.000000 0.000000 0.000000 0.000000 -0.038042
#
#
# Mechanical properties :
#
#
# Convention : Reuss Voigt Hill
#
# Bulk Modulus (GPa) = 33.90904 35.01964 34.46434
# Shear Modulus (GPa) = 20.19391 16.36930 18.28161
#
# Velocity S-wave (km/s) = 3.04055 2.73752 2.89301
# Velocity P-wave (km/s) = 5.27736 5.10141 5.19013
#
# Compressibility (1/GPa) = 0.02949066
#
# Stress axis : x y z
#
# Youngs Moduli (GPa) = 104.46335 87.22898 69.50040
#
# Poissons Ratio (x) = 0.01609 -0.11801
# Poissons Ratio (y) = 0.01926 0.31142
# Poissons Ratio (z) = -0.17737 0.39086
#
# Static dielectric constant tensor:
#      x y z
#    x 1.784280 0.000000 0.000000 
#    y 0.000000 1.895480 0.000000 
#    z 0.000000 0.000000 1.853590 
# 
# From -- ./inp_files/31639.got.cif
#   From: 2010.05.17/outbox.cif.g08.bks.cpg/sg64_16_cif.got.tgz:31639.got - 2010.06.03 16:29:19.
