data_PCOD9480252
_publ_section_title
;
Structure prediction by ZEFSAII (Michael W. Deem and Ramdas Pophale) SiO2 
 PCOD9480252
Probable space group: C M C A
;
_chemical_formula_sum "Si O2"
_cell_formula_units_Z 96
_cell_length_a 15.311132
_cell_length_b 14.431975
_cell_length_c 20.077956
_cell_angle_alpha 90.000000
_cell_angle_beta 90.000000
_cell_angle_gamma 90.000000
_cell_volume 4436.623412
_symmetry_space_group_name_H-M "C M C A"
_symmetry_group_IT_number 64
_symmetry_cell_setting 'orthorhombic'
loop_
_space_group_symop_operation_xyz
x,y,z
-x,1/2-y,1/2+z
x,-y,-z
-x,1/2+y,1/2-z
-x,-y,-z
x,1/2+y,1/2-z
-x,y,z
x,1/2-y,1/2+z
1/2+x,1/2+y,z
1/2-x,-y,1/2+z
1/2+x,1/2-y,-z
1/2-x,y,1/2-z
1/2-x,1/2-y,-z
1/2+x,y,1/2-z
1/2-x,1/2+y,z
1/2+x,-y,1/2+z
loop_
_atom_site_type_symbol
_atom_site_label
_atom_site_fract_x
_atom_site_fract_y
_atom_site_fract_z
Si Si1 0.601219 0.706053 0.694183
Si Si2 0.905815 0.600408 0.137365
Si Si3 0.263824 0.342809 0.542227
Si Si4 0.850632 0.980557 0.238994
Si Si5 0.103495 0.892472 0.871964
Si Si6 0.596681 0.408707 0.441242
O O1 0.500000 0.712698 0.712642
O O2 0.638665 0.628101 0.743384
O O3 0.631222 0.810803 0.680696
O O4 0.608392 0.660075 0.620977
O O5 0.826063 0.661026 0.108516
O O6 0.897362 0.548656 0.208170
O O7 0.907084 0.510179 0.089863
O O8 0.000000 0.648787 0.134787
O O9 0.250000 0.250000 0.500000
O O10 0.170987 0.382258 0.567064
O O11 0.322230 0.398727 0.489474
O O12 0.750000 0.001852 0.250000
O O13 0.881894 0.011102 0.166356
O O14 0.000000 0.879761 0.887662
O O15 0.500000 0.387885 0.470704
#
# Coordination Sequence:
#
# PCOD9480252 Si02
#       6
#    16  16  16  16  16  16
#     4   9  19  37  61  90 120 159 206 256 314 370
#     4  10  21  39  65  91 117 154 210 270 312 361
#     4  12  22  34  57  94 129 161 199 252 310 373
#     4  11  21  39  64  94 120 160 204 264 320 373
#     4  11  23  40  61  90 134 173 205 254 316 378
#     4   9  18  36  63  92 119 152 202 262 313 361
#
# _framework density 21.638076999999999
#
# number of rings (size 3 to 8) (size 9 to 14) (size 15 to 20)
#    0.000    1.667    3.333    3.500    0.000    2.667 
#    0.000    0.000    0.000    2.000    0.000    0.000 
#    0.000    0.000    0.000    0.000    0.000    0.000 
#
# Total GULP energy -267571.419179 kJ/mol
# GULP energy per Si atom -5574.404566 kJ/mol
# Density = 2.158883 g / cm^3
# Si number density = 21.638077 Si / 1000 Ang^3
#
#
#
# Elastic Constant Matrix: (Units=GPa)
#
#
# Indices 1 2 3 4 5 6 
#
# 1 153.2509 19.4612 44.6623 0.0000 0.0000 0.0000
# 2 19.4612 58.0161 24.3258 0.0000 0.0000 0.0000
# 3 44.6623 24.3258 62.2925 0.0000 0.0000 0.0000
# 4 0.0000 0.0000 0.0000 44.3838 0.0000 0.0000
# 5 0.0000 0.0000 0.0000 0.0000 26.8015 0.0000
# 6 0.0000 0.0000 0.0000 0.0000 0.0000 21.2474
#
#
#
# Elastic Compliance Matrix: (Units=1/GPa)
#
#
# Indices 1 2 3 4 5 6 
#
# 1 0.008255 -0.000344 -0.005784 0.000000 0.000000 0.000000
# 2 -0.000344 0.020626 -0.007808 0.000000 0.000000 0.000000
# 3 -0.005784 -0.007808 0.023250 0.000000 0.000000 0.000000
# 4 0.000000 0.000000 0.000000 0.022531 0.000000 0.000000
# 5 0.000000 0.000000 0.000000 0.000000 0.037311 0.000000
# 6 0.000000 0.000000 0.000000 0.000000 0.000000 0.047064
#
#
# Mechanical properties :
#
#
# Convention : Reuss Voigt Hill
#
# Bulk Modulus (GPa) = 41.22354 50.05088 45.63721
# Shear Modulus (GPa) = 25.64178 30.82724 28.23451
#
# Velocity S-wave (km/s) = 3.44616 3.77858 3.61619
# Velocity P-wave (km/s) = 5.90994 6.49754 6.21070
#
# Compressibility (1/GPa) = 0.02425799
#
# Stress axis : x y z
#
# Youngs Moduli (GPa) = 121.14499 48.48297 43.01167
#
# Poissons Ratio (x) = 0.01666 0.24878
# Poissons Ratio (y) = 0.04164 0.33584
# Poissons Ratio (z) = 0.70072 0.37856
#
# Static dielectric constant tensor:
#      x y z
#    x 1.801050 0.000000 0.000000 
#    y 0.000000 1.854000 0.000000 
#    z 0.000000 0.000000 1.880770 
# 
# From -- ./inp_files/39203.got.cif
#   From: 2010.05.17/outbox.cif.g08.bks.cpg/sg64_20_cif.got.tgz:39203.got - 2010.06.03 16:29:19.
