data_PCOD9480481
_publ_section_title
;
Structure prediction by ZEFSAII (Michael W. Deem and Ramdas Pophale) SiO2 
 PCOD9480481
Probable space group: C M C A
;
_chemical_formula_sum "Si O2"
_cell_formula_units_Z 112
_cell_length_a 14.403278
_cell_length_b 24.856440
_cell_length_c 14.284787
_cell_angle_alpha 90.000000
_cell_angle_beta 90.000000
_cell_angle_gamma 90.000000
_cell_volume 5114.156810
_symmetry_space_group_name_H-M "C M C A"
_symmetry_group_IT_number 64
_symmetry_cell_setting 'orthorhombic'
loop_
_space_group_symop_operation_xyz
x,y,z
-x,1/2-y,1/2+z
x,-y,-z
-x,1/2+y,1/2-z
-x,-y,-z
x,1/2+y,1/2-z
-x,y,z
x,1/2-y,1/2+z
1/2+x,1/2+y,z
1/2-x,-y,1/2+z
1/2+x,1/2-y,-z
1/2-x,y,1/2-z
1/2-x,1/2-y,-z
1/2+x,y,1/2-z
1/2-x,1/2+y,z
1/2+x,-y,1/2+z
loop_
_atom_site_type_symbol
_atom_site_label
_atom_site_fract_x
_atom_site_fract_y
_atom_site_fract_z
Si Si1 0.390041 0.930108 0.185229
Si Si2 0.892890 0.353668 0.730379
Si Si3 0.889531 0.675831 0.941286
Si Si4 0.231093 0.628864 0.452606
Si Si5 0.819366 0.953588 0.662437
Si Si6 0.887063 0.132973 0.861860
Si Si7 0.888662 0.264893 0.243256
O O1 0.500000 0.932649 0.196379
O O2 0.374392 0.879908 0.116411
O O3 0.355747 0.913402 0.289018
O O4 0.360285 0.987801 0.149026
O O5 0.825583 0.359820 0.641974
O O6 0.883137 0.404072 0.800237
O O7 0.866909 0.295523 0.771881
O O8 0.000000 0.350620 0.699375
O O9 0.865945 0.721828 0.865113
O O10 0.000000 0.679763 0.967060
O O11 0.814576 0.669993 0.023013
O O12 0.273932 0.570308 0.430589
O O13 0.161175 0.627865 0.539082
O O14 0.750000 0.959927 0.750000
O O15 0.855191 0.188587 0.812401
O O16 0.000000 0.132639 0.870441
O O17 0.000000 0.270832 0.245864
#
# Coordination Sequence:
#
# PCOD9480481 Si02
#       7
#    16  16  16  16  16  16  16
#     4   9  19  38  64  85 114 163 208 249 304 369
#     4  10  21  42  63  83 124 168 203 243 306 378
#     4   9  20  38  59  90 122 155 205 256 305 357
#     4  11  23  38  58  97 122 157 197 259 311 352
#     4  10  23  39  54  81 124 164 202 239 304 372
#     4   9  19  39  66  97 121 152 208 258 308 358
#     4   8  17  38  64  87 120 164 202 246 303 370
#
# _framework density 21.899992999999998
#
# number of rings (size 3 to 8) (size 9 to 14) (size 15 to 20)
#    0.000    2.571    0.000    2.571    2.000    4.000 
#   12.857    1.429    0.000    4.286    0.000    0.000 
#    0.000    0.000    0.000    0.000    0.000    0.000 
#
# Total GULP energy -312659.848216 kJ/mol
# GULP energy per Si atom -5583.211575 kJ/mol
# Density = 2.185015 g / cm^3
# Si number density = 21.899993 Si / 1000 Ang^3
#
#
#
# Elastic Constant Matrix: (Units=GPa)
#
#
# Indices 1 2 3 4 5 6 
#
# 1 81.8878 18.4830 38.6748 0.0000 0.0000 0.0000
# 2 18.4830 116.1579 9.3890 0.0000 0.0000 0.0000
# 3 38.6748 9.3890 47.9525 0.0000 0.0000 0.0000
# 4 0.0000 0.0000 0.0000 2.4894 0.0000 0.0000
# 5 0.0000 0.0000 0.0000 0.0000 34.9741 0.0000
# 6 0.0000 0.0000 0.0000 0.0000 0.0000 -3.8483
#
#
#
# Elastic Compliance Matrix: (Units=1/GPa)
#
#
# Indices 1 2 3 4 5 6 
#
# 1 0.020139 -0.001922 -0.015866 0.000000 0.000000 0.000000
# 2 -0.001922 0.008931 -0.000198 0.000000 0.000000 0.000000
# 3 -0.015866 -0.000198 0.033689 0.000000 0.000000 0.000000
# 4 0.000000 0.000000 0.000000 0.401708 0.000000 0.000000
# 5 0.000000 0.000000 0.000000 0.000000 0.028593 0.000000
# 6 0.000000 0.000000 0.000000 0.000000 0.000000 -0.259855
#
#
# Mechanical properties :
#
#
# Convention : Reuss Voigt Hill
#
# Bulk Modulus (GPa) = 37.33340 42.12131 39.72735
# Shear Modulus (GPa) = 17.97864 18.68645 18.33255
#
# Velocity S-wave (km/s) = 2.86832 2.92424 2.89641
# Velocity P-wave (km/s) = 5.29659 5.53866 5.41898
#
# Compressibility (1/GPa) = 0.02678567
#
# Stress axis : x y z
#
# Youngs Moduli (GPa) = 49.65433 111.97142 29.68285
#
# Poissons Ratio (x) = 0.21522 0.47096
# Poissons Ratio (y) = 0.09544 0.00589
# Poissons Ratio (z) = 0.78784 0.02222
#
# Static dielectric constant tensor:
#      x y z
#    x 1.843410 0.000000 0.000000 
#    y 0.000000 1.823870 0.000000 
#    z 0.000000 0.000000 1.814160 
# 
# From -- ./inp_files/24199.got.cif
#   From: 2010.05.17/outbox.cif.g08.bks.cpg/sg64_13_cif.got.tgz:24199.got - 2010.06.03 16:29:19.
