data_PCOD9480602
_publ_section_title
;
Structure prediction by ZEFSAII (Michael W. Deem and Ramdas Pophale) SiO2 
 PCOD9480602
Probable space group: C M C A
;
_chemical_formula_sum "Si O2"
_cell_formula_units_Z 112
_cell_length_a 14.569071
_cell_length_b 26.234863
_cell_length_c 14.048438
_cell_angle_alpha 90.000000
_cell_angle_beta 90.000000
_cell_angle_gamma 90.000000
_cell_volume 5369.559999
_symmetry_space_group_name_H-M "C M C A"
_symmetry_group_IT_number 64
_symmetry_cell_setting 'orthorhombic'
loop_
_space_group_symop_operation_xyz
x,y,z
-x,1/2-y,1/2+z
x,-y,-z
-x,1/2+y,1/2-z
-x,-y,-z
x,1/2+y,1/2-z
-x,y,z
x,1/2-y,1/2+z
1/2+x,1/2+y,z
1/2-x,-y,1/2+z
1/2+x,1/2-y,-z
1/2-x,y,1/2-z
1/2-x,1/2-y,-z
1/2+x,y,1/2-z
1/2-x,1/2+y,z
1/2+x,-y,1/2+z
loop_
_atom_site_type_symbol
_atom_site_label
_atom_site_fract_x
_atom_site_fract_y
_atom_site_fract_z
Si Si1 0.390728 0.232636 0.323628
Si Si2 0.397268 0.489002 0.781944
Si Si3 0.392343 0.799088 0.339081
Si Si4 0.667580 0.882480 0.678488
Si Si5 0.760590 0.367700 0.467548
Si Si6 0.720326 0.023858 0.896533
Si Si7 0.605978 0.287057 0.512698
O O1 0.500000 0.231869 0.310908
O O2 0.358804 0.282593 0.265488
O O3 0.357416 0.176194 0.300652
O O4 0.370680 0.244771 0.433081
O O5 0.500000 0.510040 0.793716
O O6 0.400996 0.427965 0.796369
O O7 0.353875 0.504173 0.679870
O O8 0.321168 0.508644 0.856958
O O9 0.500000 0.815105 0.338913
O O10 0.330816 0.837663 0.398818
O O11 0.388060 0.743607 0.389680
O O12 0.750000 0.894730 0.750000
O O13 0.691594 0.885272 0.566324
O O14 0.720936 0.415602 0.410498
O O15 0.677780 0.331650 0.501342
O O16 0.704617 0.000000 0.000000
O O17 0.500000 0.303265 0.498366
#
# Coordination Sequence:
#
# PCOD9480602 Si02
#       7
#    16  16  16  16  16  16  16
#     4  10  22  37  59  92 134 173 212 264 320 393
#     4  11  25  46  72  99 134 176 226 288 353 405
#     4  10  22  39  60  97 136 169 215 264 322 401
#     4  12  22  40  68  97 127 169 229 279 328 400
#     4  12  24  40  69  93 129 180 219 274 340 398
#     4  11  24  48  67 101 138 170 231 292 342 414
#     4  10  22  40  59  92 135 170 216 264 317 396
#
# _framework density 20.858319999999999
#
# number of rings (size 3 to 8) (size 9 to 14) (size 15 to 20)
#    0.000    1.143    4.286    1.714    2.000    4.571 
#    0.000    5.000    0.000    0.000    0.000    0.000 
#    0.000    0.000    0.000    0.000    0.000    0.000 
#
# Total GULP energy -312807.981854 kJ/mol
# GULP energy per Si atom -5585.856819 kJ/mol
# Density = 2.081085 g / cm^3
# Si number density = 20.858320 Si / 1000 Ang^3
#
#
#
# Elastic Constant Matrix: (Units=GPa)
#
#
# Indices 1 2 3 4 5 6 
#
# 1 60.8751 17.2543 -21.2393 0.0000 0.0000 0.0000
# 2 17.2543 83.4479 -2.0763 0.0000 0.0000 0.0000
# 3 -21.2393 -2.0763 46.6030 0.0000 0.0000 0.0000
# 4 0.0000 0.0000 0.0000 19.2502 0.0000 0.0000
# 5 0.0000 0.0000 0.0000 0.0000 8.8758 0.0000
# 6 0.0000 0.0000 0.0000 0.0000 0.0000 3.5041
#
#
#
# Elastic Compliance Matrix: (Units=1/GPa)
#
#
# Indices 1 2 3 4 5 6 
#
# 1 0.020831 -0.004076 0.009312 0.000000 0.000000 0.000000
# 2 -0.004076 0.012794 -0.001287 0.000000 0.000000 0.000000
# 3 0.009312 -0.001287 0.025645 0.000000 0.000000 0.000000
# 4 0.000000 0.000000 0.000000 0.051948 0.000000 0.000000
# 5 0.000000 0.000000 0.000000 0.000000 0.112666 0.000000
# 6 0.000000 0.000000 0.000000 0.000000 0.000000 0.285383
#
#
# Mechanical properties :
#
#
# Convention : Reuss Voigt Hill
#
# Bulk Modulus (GPa) = 14.88787 19.86704 17.37746
# Shear Modulus (GPa) = 9.54640 19.45850 14.50245
#
# Velocity S-wave (km/s) = 2.14166 3.05764 2.63968
# Velocity P-wave (km/s) = 3.64263 4.69158 4.19998
#
# Compressibility (1/GPa) = 0.06716877
#
# Stress axis : x y z
#
# Youngs Moduli (GPa) = 48.00469 78.16051 38.99458
#
# Poissons Ratio (x) = 0.31855 -0.36313
# Poissons Ratio (y) = 0.19565 0.05020
# Poissons Ratio (z) = -0.44703 0.10062
#
# Static dielectric constant tensor:
#      x y z
#    x 1.752730 0.000000 0.000000 
#    y 0.000000 1.744800 0.000000 
#    z 0.000000 0.000000 1.745120 
# 
# From -- ./inp_files/24252.got.cif
#   From: 2010.05.17/outbox.cif.g08.bks.cpg/sg64_13_cif.got.tgz:24252.got - 2010.06.03 16:29:19.
