data_PCOD9480598
_publ_section_title
;
Structure prediction by ZEFSAII (Michael W. Deem and Ramdas Pophale) SiO2 
 PCOD9480598
Probable space group: C M C A
;
_chemical_formula_sum "Si O2"
_cell_formula_units_Z 64
_cell_length_a 19.159767
_cell_length_b 27.556517
_cell_length_c 5.501760
_cell_angle_alpha 90.000000
_cell_angle_beta 90.000000
_cell_angle_gamma 90.000000
_cell_volume 2904.799686
_symmetry_space_group_name_H-M "C M C A"
_symmetry_group_IT_number 64
_symmetry_cell_setting 'orthorhombic'
loop_
_space_group_symop_operation_xyz
x,y,z
-x,1/2-y,1/2+z
x,-y,-z
-x,1/2+y,1/2-z
-x,-y,-z
x,1/2+y,1/2-z
-x,y,z
x,1/2-y,1/2+z
1/2+x,1/2+y,z
1/2-x,-y,1/2+z
1/2+x,1/2-y,-z
1/2-x,y,1/2-z
1/2-x,1/2-y,-z
1/2+x,y,1/2-z
1/2-x,1/2+y,z
1/2+x,-y,1/2+z
loop_
_atom_site_type_symbol
_atom_site_label
_atom_site_fract_x
_atom_site_fract_y
_atom_site_fract_z
Si Si1 0.581857 0.637807 0.796221
Si Si2 0.290421 0.309933 0.998353
Si Si3 0.600316 0.729905 0.505057
Si Si4 0.415608 0.524350 0.748664
O O1 0.500000 0.642040 0.867441
O O2 0.638048 0.658475 0.986338
O O3 0.597139 0.581839 0.746024
O O4 0.593933 0.673469 0.565080
O O5 0.250000 0.320917 0.250000
O O6 0.250000 0.320892 0.750000
O O7 0.322714 0.255098 0.003581
O O8 0.570636 0.745254 0.247760
O O9 0.389089 0.500000 0.500000
O O10 0.500000 0.518131 0.748845
O O11 0.389993 0.500000 0.000000
#
# Coordination Sequence:
#
# PCOD9480598 Si02
#       4
#    16  16  16  16
#     4  10  23  41  65  97 129 167 217 271 323 373
#     4  11  24  43  65  93 130 176 218 254 311 390
#     4  10  22  37  58  87 125 161 203 250 303 368
#     4   9  19  37  61  89 122 160 206 261 318 375
#
# _framework density 22.032502000000001
#
# number of rings (size 3 to 8) (size 9 to 14) (size 15 to 20)
#    0.000    2.000    0.000    3.000    0.000   22.000 
#    0.000   13.750    0.000    3.000    0.000    0.000 
#    0.000    0.000    0.000    0.000    0.000    0.000 
#
# Total GULP energy -178492.459039 kJ/mol
# GULP energy per Si atom -5577.889345 kJ/mol
# Density = 2.198235 g / cm^3
# Si number density = 22.032502 Si / 1000 Ang^3
#
#
#
# Elastic Constant Matrix: (Units=GPa)
#
#
# Indices 1 2 3 4 5 6 
#
# 1 135.0906 34.1860 57.8203 0.0000 0.0000 0.0000
# 2 34.1860 168.6016 87.0293 0.0000 0.0000 0.0000
# 3 57.8203 87.0293 224.8771 0.0000 0.0000 0.0000
# 4 0.0000 0.0000 0.0000 23.0841 0.0000 0.0000
# 5 0.0000 0.0000 0.0000 0.0000 -21.2661 0.0000
# 6 0.0000 0.0000 0.0000 0.0000 0.0000 36.3587
#
#
#
# Elastic Compliance Matrix: (Units=1/GPa)
#
#
# Indices 1 2 3 4 5 6 
#
# 1 0.008390 -0.000734 -0.001873 0.000000 0.000000 0.000000
# 2 -0.000734 0.007476 -0.002704 0.000000 0.000000 0.000000
# 3 -0.001873 -0.002704 0.005975 0.000000 0.000000 0.000000
# 4 0.000000 0.000000 0.000000 0.043320 0.000000 0.000000
# 5 0.000000 0.000000 0.000000 0.000000 -0.047023 0.000000
# 6 0.000000 0.000000 0.000000 0.000000 0.000000 0.027504
#
#
# Mechanical properties :
#
#
# Convention : Reuss Voigt Hill
#
# Bulk Modulus (GPa) = 89.14702 98.51564 93.83133
# Shear Modulus (GPa) = 83.32732 30.93758 57.13245
#
# Velocity S-wave (km/s) = 6.15648 3.75130 5.09777
# Velocity P-wave (km/s) = 9.54389 7.97332 8.79374
#
# Compressibility (1/GPa) = 0.01121743
#
# Stress axis : x y z
#
# Youngs Moduli (GPa) = 119.19021 133.76062 167.36066
#
# Poissons Ratio (x) = 0.09823 0.31347
# Poissons Ratio (y) = 0.08753 0.45262
# Poissons Ratio (z) = 0.22325 0.36175
#
# Static dielectric constant tensor:
#      x y z
#    x 1.918450 0.000000 0.000000 
#    y 0.000000 1.805290 0.000000 
#    z 0.000000 0.000000 1.848510 
# 
# From -- ./inp_files/1783.got.cif
#   From: 2010.05.17/outbox.cif.g08.bks.cpg/sg64_1_cif.got.tgz:1783.got - 2010.06.03 16:29:19.
