data_PCOD9480386
_publ_section_title
;
Structure prediction by ZEFSAII (Michael W. Deem and Ramdas Pophale) SiO2 
 PCOD9480386
Probable space group: C M C A
;
_chemical_formula_sum "Si O2"
_cell_formula_units_Z 80
_cell_length_a 22.370521
_cell_length_b 15.570889
_cell_length_c 11.139361
_cell_angle_alpha 90.000000
_cell_angle_beta 90.000000
_cell_angle_gamma 90.000000
_cell_volume 3880.161357
_symmetry_space_group_name_H-M "C M C A"
_symmetry_group_IT_number 64
_symmetry_cell_setting 'orthorhombic'
loop_
_space_group_symop_operation_xyz
x,y,z
-x,1/2-y,1/2+z
x,-y,-z
-x,1/2+y,1/2-z
-x,-y,-z
x,1/2+y,1/2-z
-x,y,z
x,1/2-y,1/2+z
1/2+x,1/2+y,z
1/2-x,-y,1/2+z
1/2+x,1/2-y,-z
1/2-x,y,1/2-z
1/2-x,1/2-y,-z
1/2+x,y,1/2-z
1/2-x,1/2+y,z
1/2+x,-y,1/2+z
loop_
_atom_site_type_symbol
_atom_site_label
_atom_site_fract_x
_atom_site_fract_y
_atom_site_fract_z
Si Si1 0.378609 0.400827 0.006267
Si Si2 0.794626 0.496124 0.135454
Si Si3 0.000000 0.677003 0.232644
Si Si4 0.867733 0.857192 0.747676
Si Si5 0.000000 0.708217 0.497535
Si Si6 0.680241 0.667469 0.759184
O O1 0.439587 0.346508 0.014563
O O2 0.336508 0.379245 0.117247
O O3 0.394583 0.500000 0.000000
O O4 0.346535 0.378720 0.881756
O O5 0.750000 0.496194 0.250000
O O6 0.834517 0.580803 0.155793
O O7 0.829439 0.405123 0.156640
O O8 0.769987 0.500000 0.000000
O O9 0.938480 0.625060 0.241177
O O10 0.000000 0.734786 0.355770
O O11 0.000000 0.723349 0.104352
O O12 0.856839 0.755508 0.737215
O O13 0.750000 0.692254 0.750000
#
# Coordination Sequence:
#
# PCOD9480386 Si02
#       6
#    16  16   8  16   8  16
#     4  11  22  42  67  97 133 177 231 285 333 409
#     4  11  27  46  69  99 138 180 227 284 340 408
#     4  10  22  40  67 102 132 179 225 280 338 405
#     4  11  24  44  67  98 139 178 226 285 341 406
#     4  10  21  40  68  94 134 177 231 279 342 392
#     4  11  25  40  65  98 132 179 227 270 345 400
#
# _framework density 20.617699999999999
#
# number of rings (size 3 to 8) (size 9 to 14) (size 15 to 20)
#    0.000    1.200    4.000    0.900    8.400    0.800 
#    0.000    1.500    0.000    0.000    0.000    0.000 
#    0.000    0.000    0.000    0.000    0.000    0.000 
#
# Total GULP energy -223163.689087 kJ/mol
# GULP energy per Si atom -5579.092227 kJ/mol
# Density = 2.057077 g / cm^3
# Si number density = 20.617700 Si / 1000 Ang^3
#
#
#
# Elastic Constant Matrix: (Units=GPa)
#
#
# Indices 1 2 3 4 5 6 
#
# 1 75.9121 -0.2506 27.1997 0.0000 0.0000 0.0000
# 2 -0.2506 82.9281 16.1086 0.0000 0.0000 0.0000
# 3 27.1997 16.1086 136.2562 0.0000 0.0000 0.0000
# 4 0.0000 0.0000 0.0000 29.5373 0.0000 0.0000
# 5 0.0000 0.0000 0.0000 0.0000 26.1085 0.0000
# 6 0.0000 0.0000 0.0000 0.0000 0.0000 18.0680
#
#
#
# Elastic Compliance Matrix: (Units=1/GPa)
#
#
# Indices 1 2 3 4 5 6 
#
# 1 0.014218 0.000608 -0.002910 0.000000 0.000000 0.000000
# 2 0.000608 0.012368 -0.001584 0.000000 0.000000 0.000000
# 3 -0.002910 -0.001584 0.008107 0.000000 0.000000 0.000000
# 4 0.000000 0.000000 0.000000 0.033856 0.000000 0.000000
# 5 0.000000 0.000000 0.000000 0.000000 0.038302 0.000000
# 6 0.000000 0.000000 0.000000 0.000000 0.000000 0.055346
#
#
# Mechanical properties :
#
#
# Convention : Reuss Voigt Hill
#
# Bulk Modulus (GPa) = 37.14400 42.35687 39.75043
# Shear Modulus (GPa) = 27.94206 31.54536 29.74371
#
# Velocity S-wave (km/s) = 3.68536 3.91578 3.80232
# Velocity P-wave (km/s) = 6.01364 6.40570 6.21276
#
# Compressibility (1/GPa) = 0.02692225
#
# Stress axis : x y z
#
# Youngs Moduli (GPa) = 70.33418 80.85325 123.34631
#
# Poissons Ratio (x) = -0.04918 0.35895
# Poissons Ratio (y) = -0.04278 0.19533
# Poissons Ratio (z) = 0.20468 0.12804
#
# Static dielectric constant tensor:
#      x y z
#    x 1.760270 0.000000 0.000000 
#    y 0.000000 1.783110 0.000000 
#    z 0.000000 0.000000 1.740130 
# 
# From -- ./inp_files/18123.got.cif
#   From: 2010.05.17/outbox.cif.g08.bks.cpg/sg64_10_cif.got.tgz:18123.got - 2010.06.03 16:29:19.
