data_PCOD9480143
_publ_section_title
;
Structure prediction by ZEFSAII (Michael W. Deem and Ramdas Pophale) SiO2 
 PCOD9480143
Probable space group: C M C A
;
_chemical_formula_sum "Si O2"
_cell_formula_units_Z 88
_cell_length_a 14.935320
_cell_length_b 28.448815
_cell_length_c 7.896915
_cell_angle_alpha 90.000000
_cell_angle_beta 90.000000
_cell_angle_gamma 90.000000
_cell_volume 3355.337237
_symmetry_space_group_name_H-M "C M C A"
_symmetry_group_IT_number 64
_symmetry_cell_setting 'orthorhombic'
loop_
_space_group_symop_operation_xyz
x,y,z
-x,1/2-y,1/2+z
x,-y,-z
-x,1/2+y,1/2-z
-x,-y,-z
x,1/2+y,1/2-z
-x,y,z
x,1/2-y,1/2+z
1/2+x,1/2+y,z
1/2-x,-y,1/2+z
1/2+x,1/2-y,-z
1/2-x,y,1/2-z
1/2-x,1/2-y,-z
1/2+x,y,1/2-z
1/2-x,1/2+y,z
1/2+x,-y,1/2+z
loop_
_atom_site_type_symbol
_atom_site_label
_atom_site_fract_x
_atom_site_fract_y
_atom_site_fract_z
Si Si1 0.850499 0.902560 0.946006
Si Si2 0.845904 0.800792 0.029347
Si Si3 0.652689 0.444925 0.595593
Si Si4 0.637271 0.698860 0.567576
Si Si5 0.396070 0.476789 0.183760
Si Si6 0.000000 0.885273 0.485840
O O1 0.876116 0.848308 0.941779
O O2 0.884794 0.923267 0.123206
O O3 0.745830 0.918373 0.939468
O O4 0.888109 0.923737 0.772934
O O5 0.738637 0.801729 0.996307
O O6 0.858668 0.805806 0.229864
O O7 0.890440 0.752508 0.971269
O O8 0.660020 0.499102 0.664294
O O9 0.577661 0.426790 0.469750
O O10 0.577664 0.656355 0.502655
O O11 0.500000 0.488212 0.206678
O O12 0.368125 0.500000 0.000000
#
# Coordination Sequence:
#
# PCOD9480143 Si02
#       6
#    16  16  16  16  16   8
#     4  10  21  39  70  99 140 192 239 285 371 432
#     4  10  22  45  65  97 134 188 233 289 357 431
#     4  10  21  38  72 105 137 188 237 297 361 439
#     4  10  24  41  69  95 138 180 235 297 347 426
#     4   9  18  37  63 100 135 174 231 293 345 427
#     4  12  22  42  69 103 140 181 233 306 358 422
#
# _framework density 26.226872
#
# number of rings (size 3 to 8) (size 9 to 14) (size 15 to 20)
#    0.000    2.000    2.727    0.000    3.818    2.182 
#    3.273   10.909    0.000    1.091    0.000    0.000 
#    0.000    0.000    0.000    0.000    0.000    0.000 
#
# Total GULP energy -245100.224727 kJ/mol
# GULP energy per Si atom -5570.459653 kJ/mol
# Density = 2.616718 g / cm^3
# Si number density = 26.226872 Si / 1000 Ang^3
#
#
#
# Elastic Constant Matrix: (Units=GPa)
#
#
# Indices 1 2 3 4 5 6 
#
# 1 99.7792 29.1479 23.8770 0.0000 0.0000 0.0000
# 2 29.1479 172.8108 -24.0793 0.0000 0.0000 0.0000
# 3 23.8770 -24.0793 57.9847 0.0000 0.0000 0.0000
# 4 0.0000 0.0000 0.0000 22.5392 0.0000 0.0000
# 5 0.0000 0.0000 0.0000 0.0000 -15.8531 0.0000
# 6 0.0000 0.0000 0.0000 0.0000 0.0000 46.5002
#
#
#
# Elastic Compliance Matrix: (Units=1/GPa)
#
#
# Indices 1 2 3 4 5 6 
#
# 1 0.012411 -0.002978 -0.006347 0.000000 0.000000 0.000000
# 2 -0.002978 0.006857 0.004073 0.000000 0.000000 0.000000
# 3 -0.006347 0.004073 0.021551 0.000000 0.000000 0.000000
# 4 0.000000 0.000000 0.000000 0.044367 0.000000 0.000000
# 5 0.000000 0.000000 0.000000 0.000000 -0.063079 0.000000
# 6 0.000000 0.000000 0.000000 0.000000 0.000000 0.021505
#
#
# Mechanical properties :
#
#
# Convention : Reuss Voigt Hill
#
# Bulk Modulus (GPa) = 32.98611 43.16287 38.07449
# Shear Modulus (GPa) = 77.85775 30.74587 54.30181
#
# Velocity S-wave (km/s) = 5.45442 3.42761 4.55517
# Velocity P-wave (km/s) = 7.22995 5.67079 6.49731
#
# Compressibility (1/GPa) = 0.03031579
#
# Stress axis : x y z
#
# Youngs Moduli (GPa) = 80.57471 145.84646 46.40128
#
# Poissons Ratio (x) = 0.43429 0.29451
# Poissons Ratio (y) = 0.23993 -0.18901
# Poissons Ratio (z) = 0.51142 -0.59410
#
# Static dielectric constant tensor:
#      x y z
#    x 2.005620 0.000000 0.000000 
#    y 0.000000 2.182750 0.000000 
#    z 0.000000 0.000000 2.280990 
# 
# From -- ./inp_files/7306.got.cif
#   From: 2010.05.17/outbox.cif.g08.bks.cpg/sg64_4_cif.got.tgz:7306.got - 2010.06.03 16:29:19.
