data_PCOD9480945
_publ_section_title
;
Structure prediction by ZEFSAII (Michael W. Deem and Ramdas Pophale) SiO2 
 PCOD9480945
Probable space group: C M C A
;
_chemical_formula_sum "Si O2"
_cell_formula_units_Z 72
_cell_length_a 7.670255
_cell_length_b 24.821054
_cell_length_c 15.025228
_cell_angle_alpha 90.000000
_cell_angle_beta 90.000000
_cell_angle_gamma 90.000000
_cell_volume 2860.560206
_symmetry_space_group_name_H-M "C M C A"
_symmetry_group_IT_number 64
_symmetry_cell_setting 'orthorhombic'
loop_
_space_group_symop_operation_xyz
x,y,z
-x,1/2-y,1/2+z
x,-y,-z
-x,1/2+y,1/2-z
-x,-y,-z
x,1/2+y,1/2-z
-x,y,z
x,1/2-y,1/2+z
1/2+x,1/2+y,z
1/2-x,-y,1/2+z
1/2+x,1/2-y,-z
1/2-x,y,1/2-z
1/2-x,1/2-y,-z
1/2+x,y,1/2-z
1/2-x,1/2+y,z
1/2+x,-y,1/2+z
loop_
_atom_site_type_symbol
_atom_site_label
_atom_site_fract_x
_atom_site_fract_y
_atom_site_fract_z
Si Si1 0.299461 0.885760 0.906718
Si Si2 0.250000 0.079438 0.750000
Si Si3 0.785232 0.654531 0.901918
Si Si4 0.294075 0.268612 0.849675
Si Si5 0.798746 0.999344 0.895322
O O1 0.500000 0.902124 0.908968
O O2 0.287075 0.827136 0.863226
O O3 0.203599 0.936834 0.866552
O O4 0.239338 0.875180 0.007365
O O5 0.309503 0.124267 0.677934
O O6 0.308090 0.036083 0.826148
O O7 0.737717 0.717479 0.908227
O O8 0.000000 0.651574 0.888879
O O9 0.500000 0.275490 0.861038
O O10 0.250000 0.250973 0.750000
O O11 0.000000 0.018313 0.890439
O O12 0.743847 0.000000 0.000000
#
# Coordination Sequence:
#
# PCOD9480945 Si02
#       5
#    16   8  16  16  16
#     4  11  24  44  67  94 132 176 221 272 332 395
#     4  12  22  44  68  96 130 176 224 280 332 396
#     4  10  22  41  67  97 127 169 221 274 331 396
#     4  11  23  42  67  99 134 169 216 270 332 399
#     4  11  25  44  68 100 135 175 224 280 337 397
#
# _framework density 25.169893999999999
#
# number of rings (size 3 to 8) (size 9 to 14) (size 15 to 20)
#    0.000    1.111    3.333    2.667    1.556    2.222 
#    0.000    3.333    0.000    0.000    0.000    0.000 
#    0.000    0.000    0.000    0.000    0.000    0.000 
#
# Total GULP energy -200798.894175 kJ/mol
# GULP energy per Si atom -5577.747060 kJ/mol
# Density = 2.511261 g / cm^3
# Si number density = 25.169894 Si / 1000 Ang^3
#
#
#
# Elastic Constant Matrix: (Units=GPa)
#
#
# Indices 1 2 3 4 5 6 
#
# 1 78.8687 13.9746 6.4856 0.0000 0.0000 0.0000
# 2 13.9746 194.7077 27.0021 0.0000 0.0000 0.0000
# 3 6.4856 27.0021 92.9592 0.0000 0.0000 0.0000
# 4 0.0000 0.0000 0.0000 63.9366 0.0000 0.0000
# 5 0.0000 0.0000 0.0000 0.0000 -4.7247 0.0000
# 6 0.0000 0.0000 0.0000 0.0000 0.0000 -4.0206
#
#
#
# Elastic Compliance Matrix: (Units=1/GPa)
#
#
# Indices 1 2 3 4 5 6 
#
# 1 0.012881 -0.000833 -0.000657 0.000000 0.000000 0.000000
# 2 -0.000833 0.005405 -0.001512 0.000000 0.000000 0.000000
# 3 -0.000657 -0.001512 0.011242 0.000000 0.000000 0.000000
# 4 0.000000 0.000000 0.000000 0.015640 0.000000 0.000000
# 5 0.000000 0.000000 0.000000 0.000000 -0.211655 0.000000
# 6 0.000000 0.000000 0.000000 0.000000 0.000000 -0.248721
#
#
# Mechanical properties :
#
#
# Convention : Reuss Voigt Hill
#
# Bulk Modulus (GPa) = 42.50840 51.27336 46.89088
# Shear Modulus (GPa) = -12.45761 32.30981 9.92610
#
# Velocity S-wave (km/s) = -2.22714 3.58672 1.98801
# Velocity P-wave (km/s) = 3.21119 6.12926 4.89283
#
# Compressibility (1/GPa) = 0.02352476
#
# Stress axis : x y z
#
# Youngs Moduli (GPa) = 77.63387 185.00006 88.94892
#
# Poissons Ratio (x) = 0.15419 0.05840
# Poissons Ratio (y) = 0.06470 0.13449
# Poissons Ratio (z) = 0.05097 0.27972
#
# Static dielectric constant tensor:
#      x y z
#    x 2.057240 0.000000 0.000000 
#    y 0.000000 1.961110 0.000000 
#    z 0.000000 0.000000 1.956430 
# 
# From -- ./inp_files/21166.got.cif
#   From: 2010.05.17/outbox.cif.g08.bks.cpg/sg64_11_cif.got.tgz:21166.got - 2010.06.03 16:29:19.
