data_PCOD9480292
_publ_section_title
;
Structure prediction by ZEFSAII (Michael W. Deem and Ramdas Pophale) SiO2 
 PCOD9480292
Probable space group: C M C A
;
_chemical_formula_sum "Si O2"
_cell_formula_units_Z 88
_cell_length_a 16.001328
_cell_length_b 25.215745
_cell_length_c 9.514491
_cell_angle_alpha 90.000000
_cell_angle_beta 90.000000
_cell_angle_gamma 90.000000
_cell_volume 3838.958269
_symmetry_space_group_name_H-M "C M C A"
_symmetry_group_IT_number 64
_symmetry_cell_setting 'orthorhombic'
loop_
_space_group_symop_operation_xyz
x,y,z
-x,1/2-y,1/2+z
x,-y,-z
-x,1/2+y,1/2-z
-x,-y,-z
x,1/2+y,1/2-z
-x,y,z
x,1/2-y,1/2+z
1/2+x,1/2+y,z
1/2-x,-y,1/2+z
1/2+x,1/2-y,-z
1/2-x,y,1/2-z
1/2-x,1/2-y,-z
1/2+x,y,1/2-z
1/2-x,1/2+y,z
1/2+x,-y,1/2+z
loop_
_atom_site_type_symbol
_atom_site_label
_atom_site_fract_x
_atom_site_fract_y
_atom_site_fract_z
Si Si1 0.595536 0.024394 0.158489
Si Si2 0.640186 0.344790 0.997505
Si Si3 0.598113 0.413165 0.265926
Si Si4 0.178621 0.626052 0.051636
Si Si5 0.000000 0.289507 0.681875
Si Si6 0.838632 0.260112 0.829869
O O1 0.500000 0.036381 0.196945
O O2 0.643764 0.079062 0.147727
O O3 0.625680 0.974664 0.250623
O O4 0.596740 0.000000 0.000000
O O5 0.607057 0.381012 0.123395
O O6 0.669007 0.288957 0.065315
O O7 0.722266 0.371599 0.936446
O O8 0.572155 0.328870 0.884529
O O9 0.500000 0.414201 0.309098
O O10 0.650856 0.386929 0.391712
O O11 0.144955 0.684051 0.092018
O O12 0.923987 0.251169 0.742419
O O13 0.750000 0.264171 0.750000
#
# Coordination Sequence:
#
# PCOD9480292 Si02
#       6
#    16  16  16  16   8  16
#     4   8  17  37  63  99 133 173 229 288 343 411
#     4  12  25  45  70 101 144 183 239 295 355 435
#     4  10  21  39  70 105 137 183 236 294 353 423
#     4  11  22  40  69  97 139 181 232 295 351 425
#     4  12  28  46  66 101 144 185 239 289 371 422
#     4  12  27  45  67  99 143 188 231 292 353 432
#
# _framework density 22.922886999999999
#
# number of rings (size 3 to 8) (size 9 to 14) (size 15 to 20)
#    0.000    1.273    2.727    4.364    5.091    0.000 
#    0.000    5.455    0.000    1.091    0.000    0.000 
#    0.000    0.000    0.000    0.000    0.000    0.000 
#
# Total GULP energy -245199.361031 kJ/mol
# GULP energy per Si atom -5572.712751 kJ/mol
# Density = 2.287071 g / cm^3
# Si number density = 22.922887 Si / 1000 Ang^3
#
#
#
# Elastic Constant Matrix: (Units=GPa)
#
#
# Indices 1 2 3 4 5 6 
#
# 1 139.2636 41.7840 22.4527 0.0000 0.0000 0.0000
# 2 41.7840 149.7760 27.2012 0.0000 0.0000 0.0000
# 3 22.4527 27.2012 45.0840 0.0000 0.0000 0.0000
# 4 0.0000 0.0000 0.0000 33.1774 0.0000 0.0000
# 5 0.0000 0.0000 0.0000 0.0000 10.3074 0.0000
# 6 0.0000 0.0000 0.0000 0.0000 0.0000 35.5467
#
#
#
# Elastic Compliance Matrix: (Units=1/GPa)
#
#
# Indices 1 2 3 4 5 6 
#
# 1 0.008190 -0.001734 -0.003032 0.000000 0.000000 0.000000
# 2 -0.001734 0.007865 -0.003882 0.000000 0.000000 0.000000
# 3 -0.003032 -0.003882 0.026033 0.000000 0.000000 0.000000
# 4 0.000000 0.000000 0.000000 0.030141 0.000000 0.000000
# 5 0.000000 0.000000 0.000000 0.000000 0.097017 0.000000
# 6 0.000000 0.000000 0.000000 0.000000 0.000000 0.028132
#
#
# Mechanical properties :
#
#
# Convention : Reuss Voigt Hill
#
# Bulk Modulus (GPa) = 40.33640 57.44437 48.89039
# Shear Modulus (GPa) = 22.42760 31.98537 27.20649
#
# Velocity S-wave (km/s) = 3.13132 3.73949 3.44884
# Velocity P-wave (km/s) = 5.54151 6.61508 6.10195
#
# Compressibility (1/GPa) = 0.02479150
#
# Stress axis : x y z
#
# Youngs Moduli (GPa) = 122.10306 127.13904 38.41246
#
# Poissons Ratio (x) = 0.22046 0.11648
# Poissons Ratio (y) = 0.21173 0.14912
# Poissons Ratio (z) = 0.37027 0.49355
#
# Static dielectric constant tensor:
#      x y z
#    x 1.854900 0.000000 0.000000 
#    y 0.000000 1.857740 0.000000 
#    z 0.000000 0.000000 1.903070 
# 
# From -- ./inp_files/14615.got.cif
#   From: 2010.05.17/outbox.cif.g08.bks.cpg/sg64_8_cif.got.tgz:14615.got - 2010.06.03 16:29:19.
