data_PCOD9480256
_publ_section_title
;
Structure prediction by ZEFSAII (Michael W. Deem and Ramdas Pophale) SiO2 
 PCOD9480256
Probable space group: C M C A
;
_chemical_formula_sum "Si O2"
_cell_formula_units_Z 104
_cell_length_a 14.559266
_cell_length_b 19.889379
_cell_length_c 15.724560
_cell_angle_alpha 90.000000
_cell_angle_beta 90.000000
_cell_angle_gamma 90.000000
_cell_volume 4553.435679
_symmetry_space_group_name_H-M "C M C A"
_symmetry_group_IT_number 64
_symmetry_cell_setting 'orthorhombic'
loop_
_space_group_symop_operation_xyz
x,y,z
-x,1/2-y,1/2+z
x,-y,-z
-x,1/2+y,1/2-z
-x,-y,-z
x,1/2+y,1/2-z
-x,y,z
x,1/2-y,1/2+z
1/2+x,1/2+y,z
1/2-x,-y,1/2+z
1/2+x,1/2-y,-z
1/2-x,y,1/2-z
1/2-x,1/2-y,-z
1/2+x,y,1/2-z
1/2-x,1/2+y,z
1/2+x,-y,1/2+z
loop_
_atom_site_type_symbol
_atom_site_label
_atom_site_fract_x
_atom_site_fract_y
_atom_site_fract_z
Si Si1 0.611993 0.185787 0.389465
Si Si2 0.388720 0.341701 0.701747
Si Si3 0.500000 0.438366 0.139749
Si Si4 0.148030 0.074239 0.982086
Si Si5 0.138223 0.437181 0.057230
Si Si6 0.605087 0.294506 0.523101
Si Si7 0.356533 0.001194 0.231594
O O1 0.500000 0.186199 0.388144
O O2 0.641518 0.189908 0.291485
O O3 0.644018 0.116296 0.431662
O O4 0.645574 0.243011 0.454532
O O5 0.500000 0.338581 0.698359
O O6 0.352420 0.306012 0.616412
O O7 0.365164 0.420867 0.704295
O O8 0.580630 0.396069 0.088007
O O9 0.580056 0.482095 0.189595
O O10 0.251202 0.066654 0.950820
O O11 0.107315 0.000000 0.000000
O O12 0.103310 0.367429 0.020885
O O13 0.113247 0.454022 0.153409
O O14 0.108154 0.500000 0.000000
O O15 0.500000 0.272338 0.536682
O O16 0.250000 0.988561 0.250000
#
# Coordination Sequence:
#
# PCOD9480256 Si02
#       7
#    16  16   8  16  16  16  16
#     4  10  22  41  66  97 135 183 232 283 341 413
#     4  10  21  39  65  93 131 182 233 277 345 413
#     4  12  23  40  63  98 134 176 215 279 343 394
#     4  11  23  40  67  99 133 169 224 279 342 403
#     4  11  24  42  63  97 137 174 223 286 341 402
#     4  10  23  43  64  96 137 184 231 281 341 410
#     4  12  24  40  64 104 140 174 230 284 340 413
#
# _framework density 22.839894999999999
#
# number of rings (size 3 to 8) (size 9 to 14) (size 15 to 20)
#    0.000    1.231    4.615    1.154    5.385    0.923 
#    2.769    0.000    0.000    0.000    0.000    0.000 
#    0.000    0.000    0.000    0.000    0.000    0.000 
#
# Total GULP energy -289907.287214 kJ/mol
# GULP energy per Si atom -5575.140139 kJ/mol
# Density = 2.278791 g / cm^3
# Si number density = 22.839895 Si / 1000 Ang^3
#
#
#
# Elastic Constant Matrix: (Units=GPa)
#
#
# Indices 1 2 3 4 5 6 
#
# 1 108.0524 -4.3525 17.8773 0.0000 0.0000 0.0000
# 2 -4.3525 82.1734 69.8389 0.0000 0.0000 0.0000
# 3 17.8773 69.8389 181.4441 0.0000 0.0000 0.0000
# 4 0.0000 0.0000 0.0000 36.7093 0.0000 0.0000
# 5 0.0000 0.0000 0.0000 0.0000 -14.8393 0.0000
# 6 0.0000 0.0000 0.0000 0.0000 0.0000 15.8564
#
#
#
# Elastic Compliance Matrix: (Units=1/GPa)
#
#
# Indices 1 2 3 4 5 6 
#
# 1 0.009615 0.001953 -0.001699 0.000000 0.000000 0.000000
# 2 0.001953 0.018483 -0.007307 0.000000 0.000000 0.000000
# 3 -0.001699 -0.007307 0.008491 0.000000 0.000000 0.000000
# 4 0.000000 0.000000 0.000000 0.027241 0.000000 0.000000
# 5 0.000000 0.000000 0.000000 0.000000 -0.067389 0.000000
# 6 0.000000 0.000000 0.000000 0.000000 0.000000 0.063066
#
#
# Mechanical properties :
#
#
# Convention : Reuss Voigt Hill
#
# Bulk Modulus (GPa) = 44.47672 59.82191 52.14932
# Shear Modulus (GPa) = 61.64795 26.76570 44.20682
#
# Velocity S-wave (km/s) = 5.20096 3.42699 4.40421
# Velocity P-wave (km/s) = 7.45534 6.47362 6.98176
#
# Compressibility (1/GPa) = 0.02248367
#
# Stress axis : x y z
#
# Youngs Moduli (GPa) = 104.00861 54.10473 117.77056
#
# Poissons Ratio (x) = -0.10569 0.20011
# Poissons Ratio (y) = -0.20317 0.86050
# Poissons Ratio (z) = 0.17673 0.39532
#
# Static dielectric constant tensor:
#      x y z
#    x 2.033060 0.000000 0.000000 
#    y 0.000000 1.825580 0.000000 
#    z 0.000000 0.000000 1.902920 
# 
# From -- ./inp_files/25651.got.cif
#   From: 2010.05.17/outbox.cif.g08.bks.cpg/sg64_13_cif.got.tgz:25651.got - 2010.06.03 16:29:19.
