data_PCOD9480850
_publ_section_title
;
Structure prediction by ZEFSAII (Michael W. Deem and Ramdas Pophale) SiO2 
 PCOD9480850
Probable space group: C M C A
;
_chemical_formula_sum "Si O2"
_cell_formula_units_Z 72
_cell_length_a 10.143478
_cell_length_b 11.532335
_cell_length_c 25.097390
_cell_angle_alpha 90.000000
_cell_angle_beta 90.000000
_cell_angle_gamma 90.000000
_cell_volume 2935.842145
_symmetry_space_group_name_H-M "C M C A"
_symmetry_group_IT_number 64
_symmetry_cell_setting 'orthorhombic'
loop_
_space_group_symop_operation_xyz
x,y,z
-x,1/2-y,1/2+z
x,-y,-z
-x,1/2+y,1/2-z
-x,-y,-z
x,1/2+y,1/2-z
-x,y,z
x,1/2-y,1/2+z
1/2+x,1/2+y,z
1/2-x,-y,1/2+z
1/2+x,1/2-y,-z
1/2-x,y,1/2-z
1/2-x,1/2-y,-z
1/2+x,y,1/2-z
1/2-x,1/2+y,z
1/2+x,-y,1/2+z
loop_
_atom_site_type_symbol
_atom_site_label
_atom_site_fract_x
_atom_site_fract_y
_atom_site_fract_z
Si Si1 0.500000 0.451324 0.438359
Si Si2 0.735071 0.216556 0.330281
Si Si3 0.743769 0.297087 0.059407
Si Si4 0.500000 0.058485 0.336112
Si Si5 0.500000 0.465740 0.060987
Si Si6 0.500000 0.176718 0.710508
Si Si7 0.000000 0.402727 0.174567
O O1 0.500000 0.500000 0.500000
O O2 0.625351 0.370558 0.436502
O O3 0.500000 0.495613 0.374390
O O4 0.771678 0.204405 0.392864
O O5 0.635917 0.112575 0.314235
O O6 0.633485 0.325243 0.329745
O O7 0.866636 0.247076 0.296708
O O8 0.627413 0.387133 0.067453
O O9 0.750000 0.250000 0.000000
O O10 0.500000 0.077228 0.400206
O O11 0.500000 0.920551 0.334588
O O12 0.500000 0.500000 0.000000
O O13 0.500000 0.087276 0.761088
#
# Coordination Sequence:
#
# PCOD9480850 Si02
#       7
#     8  16  16   8   8   8   8
#     4  10  22  40  65  98 139 176 228 293 357 428
#     4  10  22  44  69 102 143 183 239 301 351 432
#     4  11  21  39  65  97 142 189 228 295 358 416
#     4  11  24  44  71 105 142 189 244 300 367 421
#     4  12  22  38  65 101 140 190 238 291 357 433
#     4  12  22  47  77  98 142 192 245 293 370 432
#     4   9  22  43  72  94 142 189 222 305 367 422
#
# _framework density 24.524481000000002
#
# number of rings (size 3 to 8) (size 9 to 14) (size 15 to 20)
#    0.000    1.333    2.222    4.000    0.000    0.000 
#    0.000   12.222    4.889    0.000    0.000    0.000 
#    0.000    0.000    0.000    0.000    0.000    0.000 
#
# Total GULP energy -200602.029570 kJ/mol
# GULP energy per Si atom -5572.278599 kJ/mol
# Density = 2.446866 g / cm^3
# Si number density = 24.524481 Si / 1000 Ang^3
#
#
#
# Elastic Constant Matrix: (Units=GPa)
#
#
# Indices 1 2 3 4 5 6 
#
# 1 218.4605 54.4927 23.3209 0.0000 0.0000 0.0000
# 2 54.4927 51.1321 12.2452 0.0000 0.0000 0.0000
# 3 23.3209 12.2452 154.6425 0.0000 0.0000 0.0000
# 4 0.0000 0.0000 0.0000 33.0914 0.0000 0.0000
# 5 0.0000 0.0000 0.0000 0.0000 33.4780 0.0000
# 6 0.0000 0.0000 0.0000 0.0000 0.0000 29.5799
#
#
#
# Elastic Compliance Matrix: (Units=1/GPa)
#
#
# Indices 1 2 3 4 5 6 
#
# 1 0.006262 -0.006572 -0.000424 0.000000 0.000000 0.000000
# 2 -0.006572 0.026833 -0.001134 0.000000 0.000000 0.000000
# 3 -0.000424 -0.001134 0.006620 0.000000 0.000000 0.000000
# 4 0.000000 0.000000 0.000000 0.030219 0.000000 0.000000
# 5 0.000000 0.000000 0.000000 0.000000 0.029870 0.000000
# 6 0.000000 0.000000 0.000000 0.000000 0.000000 0.033807
#
#
# Mechanical properties :
#
#
# Convention : Reuss Voigt Hill
#
# Bulk Modulus (GPa) = 42.63358 67.15029 54.89193
# Shear Modulus (GPa) = 31.70788 41.50827 36.60807
#
# Velocity S-wave (km/s) = 3.59960 4.11849 3.86776
# Velocity P-wave (km/s) = 5.89050 7.07505 6.50978
#
# Compressibility (1/GPa) = 0.02345569
#
# Stress axis : x y z
#
# Youngs Moduli (GPa) = 159.69092 37.26788 151.05226
#
# Poissons Ratio (x) = 0.24493 0.06404
# Poissons Ratio (y) = 1.04951 0.17123
# Poissons Ratio (z) = 0.06770 0.04225
#
# Static dielectric constant tensor:
#      x y z
#    x 2.103670 0.000000 0.000000 
#    y 0.000000 1.965060 0.000000 
#    z 0.000000 0.000000 2.162520 
# 
# From -- ./inp_files/47675.got.cif
#   From: 2010.05.17/outbox.cif.g08.bks.cpg/sg64_24_cif.got.tgz:47675.got - 2010.06.03 16:29:19.
