data_PCOD9480186
_publ_section_title
;
Structure prediction by ZEFSAII (Michael W. Deem and Ramdas Pophale) SiO2 
 PCOD9480186
Probable space group: C M C A
;
_chemical_formula_sum "Si O2"
_cell_formula_units_Z 80
_cell_length_a 8.685193
_cell_length_b 25.610497
_cell_length_c 18.835977
_cell_angle_alpha 90.000000
_cell_angle_beta 90.000000
_cell_angle_gamma 90.000000
_cell_volume 4189.726094
_symmetry_space_group_name_H-M "C M C A"
_symmetry_group_IT_number 64
_symmetry_cell_setting 'orthorhombic'
loop_
_space_group_symop_operation_xyz
x,y,z
-x,1/2-y,1/2+z
x,-y,-z
-x,1/2+y,1/2-z
-x,-y,-z
x,1/2+y,1/2-z
-x,y,z
x,1/2-y,1/2+z
1/2+x,1/2+y,z
1/2-x,-y,1/2+z
1/2+x,1/2-y,-z
1/2-x,y,1/2-z
1/2-x,1/2-y,-z
1/2+x,y,1/2-z
1/2-x,1/2+y,z
1/2+x,-y,1/2+z
loop_
_atom_site_type_symbol
_atom_site_label
_atom_site_fract_x
_atom_site_fract_y
_atom_site_fract_z
Si Si1 0.314913 0.927306 0.671106
Si Si2 0.815083 0.736522 0.828523
Si Si3 0.814975 0.831376 0.580362
Si Si4 0.185211 0.475618 0.424606
Si Si5 0.814710 0.639879 0.921099
O O1 0.500000 0.922377 0.671474
O O2 0.250000 0.922652 0.750000
O O3 0.244939 0.882015 0.622254
O O4 0.273725 0.983032 0.636359
O O5 0.750000 0.745028 0.750000
O O6 0.754915 0.780935 0.881633
O O7 0.766625 0.680396 0.860235
O O8 0.000000 0.738755 0.826350
O O9 0.768129 0.837404 0.498110
O O10 0.000000 0.829067 0.584008
O O11 0.237305 0.500000 0.500000
O O12 0.250995 0.418231 0.413132
O O13 0.000000 0.471816 0.427385
O O14 0.000000 0.637224 0.920648
#
# Coordination Sequence:
#
# PCOD9480186 Si02
#       5
#    16  16  16  16  16
#     4  11  23  39  60  89 123 159 199 246 300 357
#     4  11  24  42  61  87 122 160 200 246 300 358
#     4  11  22  39  63  91 119 155 200 249 302 355
#     4  10  21  39  62  88 119 157 199 244 295 350
#     4  10  23  40  63  91 120 156 201 248 299 356
#
# _framework density 19.094327
#
# number of rings (size 3 to 8) (size 9 to 14) (size 15 to 20)
#    0.000    1.400    2.000    3.000    0.000    5.200 
#    0.000    4.000    0.000    0.000    0.000    0.000 
#    0.000    0.000    0.000    0.000    0.000    0.000 
#
# Total GULP energy -223645.206969 kJ/mol
# GULP energy per Si atom -5591.130174 kJ/mol
# Density = 1.905087 g / cm^3
# Si number density = 19.094327 Si / 1000 Ang^3
#
#
#
# Elastic Constant Matrix: (Units=GPa)
#
#
# Indices 1 2 3 4 5 6 
#
# 1 37.0489 18.1765 8.4948 0.0000 0.0000 0.0000
# 2 18.1765 109.8138 -11.2145 0.0000 0.0000 0.0000
# 3 8.4948 -11.2145 23.5505 0.0000 0.0000 0.0000
# 4 0.0000 0.0000 0.0000 13.7514 0.0000 0.0000
# 5 0.0000 0.0000 0.0000 0.0000 6.3199 0.0000
# 6 0.0000 0.0000 0.0000 0.0000 0.0000 38.3212
#
#
#
# Elastic Compliance Matrix: (Units=1/GPa)
#
#
# Indices 1 2 3 4 5 6 
#
# 1 0.034178 -0.007270 -0.015790 0.000000 0.000000 0.000000
# 2 -0.007270 0.011118 0.007917 0.000000 0.000000 0.000000
# 3 -0.015790 0.007917 0.051927 0.000000 0.000000 0.000000
# 4 0.000000 0.000000 0.000000 0.072720 0.000000 0.000000
# 5 0.000000 0.000000 0.000000 0.000000 0.158230 0.000000
# 6 0.000000 0.000000 0.000000 0.000000 0.000000 0.026095
#
#
# Mechanical properties :
#
#
# Convention : Reuss Voigt Hill
#
# Bulk Modulus (GPa) = 14.93941 22.36965 18.65453
# Shear Modulus (GPa) = 12.28901 22.00894 17.14898
#
# Velocity S-wave (km/s) = 2.53967 3.39874 3.00011
# Velocity P-wave (km/s) = 4.05474 5.20987 4.66817
#
# Compressibility (1/GPa) = 0.06693706
#
# Stress axis : x y z
#
# Youngs Moduli (GPa) = 29.25829 89.94366 19.25772
#
# Poissons Ratio (x) = 0.65387 0.30408
# Poissons Ratio (y) = 0.21270 -0.15245
# Poissons Ratio (z) = 0.46199 -0.71204
#
# Static dielectric constant tensor:
#      x y z
#    x 1.643250 0.000000 0.000000 
#    y 0.000000 1.635270 0.000000 
#    z 0.000000 0.000000 1.643210 
# 
# From -- ./inp_files/29754.got.cif
#   From: 2010.05.17/outbox.cif.g08.bks.cpg/sg64_15_cif.got.tgz:29754.got - 2010.06.03 16:29:19.
