data_PCOD9480842
_publ_section_title
;
Structure prediction by ZEFSAII (Michael W. Deem and Ramdas Pophale) SiO2 
 PCOD9480842
Probable space group: C M C A
;
_chemical_formula_sum "Si O2"
_cell_formula_units_Z 80
_cell_length_a 23.691123
_cell_length_b 9.937969
_cell_length_c 16.060146
_cell_angle_alpha 90.000000
_cell_angle_beta 90.000000
_cell_angle_gamma 90.000000
_cell_volume 3781.227208
_symmetry_space_group_name_H-M "C M C A"
_symmetry_group_IT_number 64
_symmetry_cell_setting 'orthorhombic'
loop_
_space_group_symop_operation_xyz
x,y,z
-x,1/2-y,1/2+z
x,-y,-z
-x,1/2+y,1/2-z
-x,-y,-z
x,1/2+y,1/2-z
-x,y,z
x,1/2-y,1/2+z
1/2+x,1/2+y,z
1/2-x,-y,1/2+z
1/2+x,1/2-y,-z
1/2-x,y,1/2-z
1/2-x,1/2-y,-z
1/2+x,y,1/2-z
1/2-x,1/2+y,z
1/2+x,-y,1/2+z
loop_
_atom_site_type_symbol
_atom_site_label
_atom_site_fract_x
_atom_site_fract_y
_atom_site_fract_z
Si Si1 0.000000 0.579919 0.819748
Si Si2 0.000000 0.265539 0.842908
Si Si3 0.698665 0.550606 0.404310
Si Si4 0.671256 0.054857 0.406680
Si Si5 0.121543 0.786936 0.150297
Si Si6 0.879411 0.318127 0.157046
O O1 0.000000 0.655238 0.730900
O O2 0.941964 0.627128 0.862507
O O3 0.000000 0.419155 0.810731
O O4 0.059809 0.243241 0.887304
O O5 0.696565 0.500000 0.500000
O O6 0.763785 0.563180 0.378028
O O7 0.667933 0.693105 0.392518
O O8 0.664245 0.440855 0.351391
O O9 0.641638 0.198178 0.400877
O O10 0.672188 0.000000 0.500000
O O11 0.637192 0.942680 0.356507
O O12 0.119992 0.758441 0.249248
#
# Coordination Sequence:
#
# PCOD9480842 Si02
#       6
#     8   8  16  16  16  16
#     4  10  22  40  65  94 126 162 200 256 320 366
#     4  10  22  40  65  94 126 162 200 256 320 366
#     4  11  23  42  63  88 128 171 204 251 314 371
#     4  11  25  42  61  90 130 169 204 251 318 369
#     4  11  23  40  66  94 123 159 211 260 302 368
#     4  11  23  40  66  94 123 159 211 260 302 368
#
# _framework density 21.157153000000001
#
# number of rings (size 3 to 8) (size 9 to 14) (size 15 to 20)
#    0.000    1.200    2.000    3.600    8.400    8.000 
#    0.000    6.000    0.000    0.000    0.000    0.000 
#    0.000    0.000    0.000    0.000    0.000    0.000 
#
# Total GULP energy -223638.111652 kJ/mol
# GULP energy per Si atom -5590.952791 kJ/mol
# Density = 2.110900 g / cm^3
# Si number density = 21.157153 Si / 1000 Ang^3
#
#
#
# Elastic Constant Matrix: (Units=GPa)
#
#
# Indices 1 2 3 4 5 6 
#
# 1 143.4978 44.8152 12.2084 0.0000 0.0000 0.0000
# 2 44.8152 114.9579 -8.8661 0.0000 0.0000 0.0000
# 3 12.2084 -8.8661 25.6792 0.0000 0.0000 0.0000
# 4 0.0000 0.0000 0.0000 33.5216 0.0000 0.0000
# 5 0.0000 0.0000 0.0000 0.0000 7.3290 0.0000
# 6 0.0000 0.0000 0.0000 0.0000 0.0000 37.6274
#
#
#
# Elastic Compliance Matrix: (Units=1/GPa)
#
#
# Indices 1 2 3 4 5 6 
#
# 1 0.008605 -0.003771 -0.005393 0.000000 0.000000 0.000000
# 2 -0.003771 0.010589 0.005449 0.000000 0.000000 0.000000
# 3 -0.005393 0.005449 0.043387 0.000000 0.000000 0.000000
# 4 0.000000 0.000000 0.000000 0.029832 0.000000 0.000000
# 5 0.000000 0.000000 0.000000 0.000000 0.136444 0.000000
# 6 0.000000 0.000000 0.000000 0.000000 0.000000 0.026576
#
#
# Mechanical properties :
#
#
# Convention : Reuss Voigt Hill
#
# Bulk Modulus (GPa) = 18.13185 42.27221 30.20203
# Shear Modulus (GPa) = 17.77801 31.42743 24.60272
#
# Velocity S-wave (km/s) = 2.90191 3.85831 3.41377
# Velocity P-wave (km/s) = 4.45161 6.31444 5.46301
#
# Compressibility (1/GPa) = 0.05515156
#
# Stress axis : x y z
#
# Youngs Moduli (GPa) = 116.20990 94.43794 23.04831
#
# Poissons Ratio (x) = 0.35608 0.12430
# Poissons Ratio (y) = 0.43817 -0.12558
# Poissons Ratio (z) = 0.62671 -0.51455
#
# Static dielectric constant tensor:
#      x y z
#    x 1.778670 0.000000 0.000000 
#    y 0.000000 1.723950 0.000000 
#    z 0.000000 0.000000 1.799770 
# 
# From -- ./inp_files/35395.got.cif
#   From: 2010.05.17/outbox.cif.g08.bks.cpg/sg64_18_cif.got.tgz:35395.got - 2010.06.03 16:29:19.
