data_PCOD9480657
_publ_section_title
;
Structure prediction by ZEFSAII (Michael W. Deem and Ramdas Pophale) SiO2 
 PCOD9480657
Probable space group: C M C A
;
_chemical_formula_sum "Si O2"
_cell_formula_units_Z 112
_cell_length_a 13.650724
_cell_length_b 12.215084
_cell_length_c 32.760591
_cell_angle_alpha 90.000000
_cell_angle_beta 90.000000
_cell_angle_gamma 90.000000
_cell_volume 5462.656239
_symmetry_space_group_name_H-M "C M C A"
_symmetry_group_IT_number 64
_symmetry_cell_setting 'orthorhombic'
loop_
_space_group_symop_operation_xyz
x,y,z
-x,1/2-y,1/2+z
x,-y,-z
-x,1/2+y,1/2-z
-x,-y,-z
x,1/2+y,1/2-z
-x,y,z
x,1/2-y,1/2+z
1/2+x,1/2+y,z
1/2-x,-y,1/2+z
1/2+x,1/2-y,-z
1/2-x,y,1/2-z
1/2-x,1/2-y,-z
1/2+x,y,1/2-z
1/2-x,1/2+y,z
1/2+x,-y,1/2+z
loop_
_atom_site_type_symbol
_atom_site_label
_atom_site_fract_x
_atom_site_fract_y
_atom_site_fract_z
Si Si1 0.617546 0.414054 0.966488
Si Si2 0.888377 0.007934 0.253307
Si Si3 0.114152 0.299026 0.688903
Si Si4 0.116711 0.544583 0.067102
Si Si5 0.206201 0.951776 0.880090
Si Si6 0.881754 0.167195 0.517470
Si Si7 0.255245 0.406495 0.191108
O O1 0.500000 0.411067 0.969212
O O2 0.647368 0.454797 0.922042
O O3 0.653090 0.290107 0.974563
O O4 0.654058 0.500000 0.000000
O O5 0.883008 0.120043 0.227840
O O6 0.000000 0.986332 0.264494
O O7 0.816616 0.002826 0.291804
O O8 0.846572 0.915643 0.221983
O O9 0.152510 0.367281 0.649970
O O10 0.189070 0.199928 0.693990
O O11 0.000000 0.266068 0.683067
O O12 0.183755 0.576744 0.105178
O O13 0.146515 0.422593 0.051509
O O14 0.000000 0.546919 0.075120
O O15 0.137696 0.621032 0.027829
O O16 0.212081 0.063301 0.854163
O O17 0.000000 0.169140 0.519948
#
# Coordination Sequence:
#
# PCOD9480657 Si02
#       7
#    16  16  16  16  16  16  16
#     4  10  22  39  59  84 117 163 219 269 318 383
#     4   9  20  41  66  91 123 161 205 254 301 363
#     4  10  22  42  66  91 125 169 205 248 316 379
#     4   9  19  36  57  83 117 156 206 266 320 372
#     4  11  24  36  55  92 127 158 207 261 311 370
#     4   8  17  36  59  80 107 155 213 267 319 375
#     4  10  22  38  61  95 128 160 207 250 305 377
#
# _framework density 20.502846999999999
#
# number of rings (size 3 to 8) (size 9 to 14) (size 15 to 20)
#    0.000    2.429    0.000    1.714    4.000    8.000 
#    0.000    0.714    0.000    0.857    0.000    0.000 
#    0.000    0.000    0.000    0.000    0.000    0.000 
#
# Total GULP energy -312574.071691 kJ/mol
# GULP energy per Si atom -5581.679852 kJ/mol
# Density = 2.045618 g / cm^3
# Si number density = 20.502847 Si / 1000 Ang^3
#
#
#
# Elastic Constant Matrix: (Units=GPa)
#
#
# Indices 1 2 3 4 5 6 
#
# 1 52.3900 20.5903 -23.9828 0.0000 0.0000 0.0000
# 2 20.5903 93.9371 29.3870 0.0000 0.0000 0.0000
# 3 -23.9828 29.3870 63.4524 0.0000 0.0000 0.0000
# 4 0.0000 0.0000 0.0000 12.2062 0.0000 0.0000
# 5 0.0000 0.0000 0.0000 0.0000 35.2679 0.0000
# 6 0.0000 0.0000 0.0000 0.0000 0.0000 22.3773
#
#
#
# Elastic Compliance Matrix: (Units=1/GPa)
#
#
# Indices 1 2 3 4 5 6 
#
# 1 0.032449 -0.012805 0.018195 0.000000 0.000000 0.000000
# 2 -0.012805 0.017502 -0.012946 0.000000 0.000000 0.000000
# 3 0.018195 -0.012946 0.028632 0.000000 0.000000 0.000000
# 4 0.000000 0.000000 0.000000 0.081926 0.000000 0.000000
# 5 0.000000 0.000000 0.000000 0.000000 0.028354 0.000000
# 6 0.000000 0.000000 0.000000 0.000000 0.000000 0.044688
#
#
# Mechanical properties :
#
#
# Convention : Reuss Voigt Hill
#
# Bulk Modulus (GPa) = 15.75465 29.08541 22.42003
# Shear Modulus (GPa) = 18.53087 26.22263 22.37675
#
# Velocity S-wave (km/s) = 3.00962 3.58016 3.30721
# Velocity P-wave (km/s) = 4.44723 5.59525 5.05395
#
# Compressibility (1/GPa) = 0.06347334
#
# Stress axis : x y z
#
# Youngs Moduli (GPa) = 30.81723 57.13634 34.92539
#
# Poissons Ratio (x) = 0.73162 -0.63547
# Poissons Ratio (y) = 0.39461 0.45213
# Poissons Ratio (z) = -0.56072 0.73966
#
# Static dielectric constant tensor:
#      x y z
#    x 1.763130 0.000000 0.000000 
#    y 0.000000 1.752830 0.000000 
#    z 0.000000 0.000000 1.703500 
# 
# From -- ./inp_files/53231.got.cif
#   From: 2010.05.17/outbox.cif.g08.bks.cpg/sg64_27_cif.got.tgz:53231.got - 2010.06.03 16:29:19.
