data_PCOD9480333
_publ_section_title
;
Structure prediction by ZEFSAII (Michael W. Deem and Ramdas Pophale) SiO2 
 PCOD9480333
Probable space group: C M C A
;
_chemical_formula_sum "Si O2"
_cell_formula_units_Z 56
_cell_length_a 22.747512
_cell_length_b 11.236325
_cell_length_c 9.804904
_cell_angle_alpha 90.000000
_cell_angle_beta 90.000000
_cell_angle_gamma 90.000000
_cell_volume 2506.118145
_symmetry_space_group_name_H-M "C M C A"
_symmetry_group_IT_number 64
_symmetry_cell_setting 'orthorhombic'
loop_
_space_group_symop_operation_xyz
x,y,z
-x,1/2-y,1/2+z
x,-y,-z
-x,1/2+y,1/2-z
-x,-y,-z
x,1/2+y,1/2-z
-x,y,z
x,1/2-y,1/2+z
1/2+x,1/2+y,z
1/2-x,-y,1/2+z
1/2+x,1/2-y,-z
1/2-x,y,1/2-z
1/2-x,1/2-y,-z
1/2+x,y,1/2-z
1/2-x,1/2+y,z
1/2+x,-y,1/2+z
loop_
_atom_site_type_symbol
_atom_site_label
_atom_site_fract_x
_atom_site_fract_y
_atom_site_fract_z
Si Si1 0.262198 0.623755 0.082863
Si Si2 0.570504 0.677768 0.800741
Si Si3 0.928120 0.134029 0.505175
Si Si4 0.874672 0.500000 0.500000
O O1 0.250000 0.626969 0.250000
O O2 0.331369 0.596929 0.064926
O O3 0.238277 0.500000 0.000000
O O4 0.250000 0.750000 0.000000
O O5 0.500000 0.683669 0.796397
O O6 0.592038 0.681986 0.648728
O O7 0.587120 0.560127 0.882767
O O8 0.594513 0.788998 0.882518
O O9 0.000000 0.137126 0.501149
O O10 0.909637 0.000000 0.500000
#
# Coordination Sequence:
#
# PCOD9480333 Si02
#       4
#    16  16  16   8
#     4  10  23  47  73  98 135 169 223 289 347 402
#     4  10  21  40  63  95 140 177 216 269 316 395
#     4   9  20  37  58  86 129 182 223 261 312 368
#     4  10  25  40  68 102 128 172 233 256 354 396
#
# _framework density 22.345316
#
# number of rings (size 3 to 8) (size 9 to 14) (size 15 to 20)
#    0.857    1.429    0.000    1.286    4.000    2.286 
#    0.000    0.000    0.000    0.000    0.000    0.000 
#    0.000    0.000    0.000    0.000    0.000    0.000 
#
# Total GULP energy -155921.587486 kJ/mol
# GULP energy per Si atom -5568.628125 kJ/mol
# Density = 2.229446 g / cm^3
# Si number density = 22.345316 Si / 1000 Ang^3
#
#
#
# Elastic Constant Matrix: (Units=GPa)
#
#
# Indices 1 2 3 4 5 6 
#
# 1 -5.8746 22.0200 36.8617 0.0000 0.0000 0.0000
# 2 22.0200 184.3671 113.7239 0.0000 0.0000 0.0000
# 3 36.8617 113.7239 212.3820 0.0000 0.0000 0.0000
# 4 0.0000 0.0000 0.0000 39.6110 0.0000 0.0000
# 5 0.0000 0.0000 0.0000 0.0000 2.2984 0.0000
# 6 0.0000 0.0000 0.0000 0.0000 0.0000 36.5104
#
#
#
# Elastic Compliance Matrix: (Units=1/GPa)
#
#
# Indices 1 2 3 4 5 6 
#
# 1 -0.081204 0.001501 0.013291 0.000000 0.000000 0.000000
# 2 0.001501 0.008071 -0.004582 0.000000 0.000000 0.000000
# 3 0.013291 -0.004582 0.004855 0.000000 0.000000 0.000000
# 4 0.000000 0.000000 0.000000 0.025246 0.000000 0.000000
# 5 0.000000 0.000000 0.000000 0.000000 0.435077 0.000000
# 6 0.000000 0.000000 0.000000 0.000000 0.000000 0.027389
#
#
# Mechanical properties :
#
#
# Convention : Reuss Voigt Hill
#
# Bulk Modulus (GPa) = -20.89431 81.78732 30.44650
# Shear Modulus (GPa) = 13.05267 30.23522 21.64394
#
# Velocity S-wave (km/s) = 2.41951 3.68243 3.11563
# Velocity P-wave (km/s) = 1.25123 7.40009 5.15731
#
# Compressibility (1/GPa) = -0.04785992
#
# Stress axis : x y z
#
# Youngs Moduli (GPa) = -12.31462 123.89568 205.95335
#
# Poissons Ratio (x) = -0.18592 -2.73723
# Poissons Ratio (y) = 0.01848 0.94376
# Poissons Ratio (z) = 0.16367 0.56774
#
# Static dielectric constant tensor:
#      x y z
#    x 1.813050 0.000000 0.000000 
#    y 0.000000 1.841220 0.000000 
#    z 0.000000 0.000000 1.820280 
# 
# From -- ./inp_files/9893.got.cif
#   From: 2010.05.17/outbox.cif.g08.bks.cpg/sg64_5_cif.got.tgz:9893.got - 2010.06.03 16:29:19.
