data_PCOD9480399
_publ_section_title
;
Structure prediction by ZEFSAII (Michael W. Deem and Ramdas Pophale) SiO2 
 PCOD9480399
Probable space group: C M C A
;
_chemical_formula_sum "Si O2"
_cell_formula_units_Z 64
_cell_length_a 21.013965
_cell_length_b 13.731506
_cell_length_c 9.456505
_cell_angle_alpha 90.000000
_cell_angle_beta 90.000000
_cell_angle_gamma 90.000000
_cell_volume 2728.706542
_symmetry_space_group_name_H-M "C M C A"
_symmetry_group_IT_number 64
_symmetry_cell_setting 'orthorhombic'
loop_
_space_group_symop_operation_xyz
x,y,z
-x,1/2-y,1/2+z
x,-y,-z
-x,1/2+y,1/2-z
-x,-y,-z
x,1/2+y,1/2-z
-x,y,z
x,1/2-y,1/2+z
1/2+x,1/2+y,z
1/2-x,-y,1/2+z
1/2+x,1/2-y,-z
1/2-x,y,1/2-z
1/2-x,1/2-y,-z
1/2+x,y,1/2-z
1/2-x,1/2+y,z
1/2+x,-y,1/2+z
loop_
_atom_site_type_symbol
_atom_site_label
_atom_site_fract_x
_atom_site_fract_y
_atom_site_fract_z
Si Si1 0.888996 0.908843 0.569113
Si Si2 0.139356 0.929316 0.872446
Si Si3 0.000000 0.268522 0.825186
Si Si4 0.500000 0.370675 0.943339
Si Si5 0.797206 0.782528 0.380619
O O1 0.852503 0.953506 0.706805
O O2 0.842415 0.862392 0.452373
O O3 0.937728 0.826297 0.621212
O O4 0.923976 0.000000 0.500000
O O5 0.162751 0.817355 0.865600
O O6 0.063759 0.925184 0.900945
O O7 0.165336 0.000000 0.000000
O O8 0.000000 0.273860 0.656066
O O9 0.000000 0.163228 0.895485
O O10 0.750000 0.808480 0.250000
O O11 0.750000 0.750000 0.500000
#
# Coordination Sequence:
#
# PCOD9480399 Si02
#       5
#    16  16   8   8  16
#     4  11  25  44  70 104 137 179 231 291 355 418
#     4  11  25  44  70 104 137 179 234 290 353 422
#     4  10  21  40  70 101 137 177 227 285 361 422
#     4  10  21  40  70 101 137 179 225 291 359 416
#     4  12  26  47  69  96 138 185 237 287 344 410
#
# _framework density 23.454333999999999
#
# number of rings (size 3 to 8) (size 9 to 14) (size 15 to 20)
#    0.000    1.000    5.000    0.750    3.500    3.000 
#    0.000    0.000    0.000    0.000    0.000    0.000 
#    0.000    0.000    0.000    0.000    0.000    0.000 
#
# Total GULP energy -178365.740964 kJ/mol
# GULP energy per Si atom -5573.929405 kJ/mol
# Density = 2.340095 g / cm^3
# Si number density = 23.454334 Si / 1000 Ang^3
#
#
#
# Elastic Constant Matrix: (Units=GPa)
#
#
# Indices 1 2 3 4 5 6 
#
# 1 96.9789 23.7721 27.9811 0.0000 0.0000 0.0000
# 2 23.7721 77.4842 52.8120 0.0000 0.0000 0.0000
# 3 27.9811 52.8120 152.7114 0.0000 0.0000 0.0000
# 4 0.0000 0.0000 0.0000 31.2138 0.0000 0.0000
# 5 0.0000 0.0000 0.0000 0.0000 37.8866 0.0000
# 6 0.0000 0.0000 0.0000 0.0000 0.0000 -27.4880
#
#
#
# Elastic Compliance Matrix: (Units=1/GPa)
#
#
# Indices 1 2 3 4 5 6 
#
# 1 0.011300 -0.002690 -0.001140 0.000000 0.000000 0.000000
# 2 -0.002690 0.017526 -0.005568 0.000000 0.000000 0.000000
# 3 -0.001140 -0.005568 0.008683 0.000000 0.000000 0.000000
# 4 0.000000 0.000000 0.000000 0.032037 0.000000 0.000000
# 5 0.000000 0.000000 0.000000 0.000000 0.026395 0.000000
# 6 0.000000 0.000000 0.000000 0.000000 0.000000 -0.036380
#
#
# Mechanical properties :
#
#
# Convention : Reuss Voigt Hill
#
# Bulk Modulus (GPa) = 53.43973 59.58944 56.51458
# Shear Modulus (GPa) = 59.10514 23.16310 41.13412
#
# Velocity S-wave (km/s) = 5.02542 3.14599 4.19238
# Velocity P-wave (km/s) = 7.51712 6.21756 6.89801
#
# Compressibility (1/GPa) = 0.01871267
#
# Stress axis : x y z
#
# Youngs Moduli (GPa) = 88.49696 57.05720 115.16874
#
# Poissons Ratio (x) = 0.15346 0.13133
# Poissons Ratio (y) = 0.23802 0.64129
# Poissons Ratio (z) = 0.10092 0.31771
#
# Static dielectric constant tensor:
#      x y z
#    x 1.833510 0.000000 0.000000 
#    y 0.000000 1.862950 0.000000 
#    z 0.000000 0.000000 1.850550 
# 
# From -- ./inp_files/8983.got.cif
#   From: 2010.05.17/outbox.cif.g08.bks.cpg/sg64_5_cif.got.tgz:8983.got - 2010.06.03 16:29:19.
