data_PCOD9480837
_publ_section_title
;
Structure prediction by ZEFSAII (Michael W. Deem and Ramdas Pophale) SiO2 
 PCOD9480837
Probable space group: C M C A
;
_chemical_formula_sum "Si O2"
_cell_formula_units_Z 56
_cell_length_a 14.561958
_cell_length_b 8.820162
_cell_length_c 18.892069
_cell_angle_alpha 90.000000
_cell_angle_beta 90.000000
_cell_angle_gamma 90.000000
_cell_volume 2426.475212
_symmetry_space_group_name_H-M "C M C A"
_symmetry_group_IT_number 64
_symmetry_cell_setting 'orthorhombic'
loop_
_space_group_symop_operation_xyz
x,y,z
-x,1/2-y,1/2+z
x,-y,-z
-x,1/2+y,1/2-z
-x,-y,-z
x,1/2+y,1/2-z
-x,y,z
x,1/2-y,1/2+z
1/2+x,1/2+y,z
1/2-x,-y,1/2+z
1/2+x,1/2-y,-z
1/2-x,y,1/2-z
1/2-x,1/2-y,-z
1/2+x,y,1/2-z
1/2-x,1/2+y,z
1/2+x,-y,1/2+z
loop_
_atom_site_type_symbol
_atom_site_label
_atom_site_fract_x
_atom_site_fract_y
_atom_site_fract_z
Si Si1 0.696450 0.221441 0.571745
Si Si2 0.500000 0.820547 0.121673
Si Si3 0.841930 0.596417 0.363382
Si Si4 0.500000 0.666698 0.407535
Si Si5 0.000000 0.083770 0.784968
O O1 0.750000 0.250000 0.500000
O O2 0.747409 0.305885 0.638473
O O3 0.594861 0.282174 0.559821
O O4 0.687147 0.045189 0.589236
O O5 0.587573 0.718257 0.104990
O O6 0.500000 0.859090 0.205505
O O7 0.500000 0.986623 0.090809
O O8 0.907814 0.515523 0.303611
O O9 0.500000 0.765061 0.333926
#
# Coordination Sequence:
#
# PCOD9480837 Si02
#       5
#    16   8  16   8   8
#     4  11  23  43  67  98 137 178 225 284 345 404
#     4  11  21  42  68  96 134 174 220 287 343 396
#     4  10  22  40  65  98 133 172 224 271 330 414
#     4  10  22  40  64  97 132 175 230 275 333 415
#     4   9  21  42  67  95 132 175 219 278 337 397
#
# _framework density 23.078742999999999
#
# number of rings (size 3 to 8) (size 9 to 14) (size 15 to 20)
#    0.000    1.714    0.000    5.143    0.000    2.286 
#    0.000   37.143    0.000    0.000    0.000    0.000 
#    0.000    0.000    0.000    0.000    0.000    0.000 
#
# Total GULP energy -156229.947411 kJ/mol
# GULP energy per Si atom -5579.640979 kJ/mol
# Density = 2.302621 g / cm^3
# Si number density = 23.078743 Si / 1000 Ang^3
#
#
#
# Elastic Constant Matrix: (Units=GPa)
#
#
# Indices 1 2 3 4 5 6 
#
# 1 162.8592 52.3910 29.6086 0.0000 0.0000 0.0000
# 2 52.3910 190.7087 17.3718 0.0000 0.0000 0.0000
# 3 29.6086 17.3718 76.4879 0.0000 0.0000 0.0000
# 4 0.0000 0.0000 0.0000 19.2947 0.0000 0.0000
# 5 0.0000 0.0000 0.0000 0.0000 14.7964 0.0000
# 6 0.0000 0.0000 0.0000 0.0000 0.0000 55.7396
#
#
#
# Elastic Compliance Matrix: (Units=1/GPa)
#
#
# Indices 1 2 3 4 5 6 
#
# 1 0.007131 -0.001744 -0.002364 0.000000 0.000000 0.000000
# 2 -0.001744 0.005781 -0.000638 0.000000 0.000000 0.000000
# 3 -0.002364 -0.000638 0.014134 0.000000 0.000000 0.000000
# 4 0.000000 0.000000 0.000000 0.051828 0.000000 0.000000
# 5 0.000000 0.000000 0.000000 0.000000 0.067584 0.000000
# 6 0.000000 0.000000 0.000000 0.000000 0.000000 0.017941
#
#
# Mechanical properties :
#
#
# Convention : Reuss Voigt Hill
#
# Bulk Modulus (GPa) = 56.96747 69.86651 63.41699
# Shear Modulus (GPa) = 27.81770 40.01177 33.91473
#
# Velocity S-wave (km/s) = 3.47556 4.16830 3.83759
# Velocity P-wave (km/s) = 6.39090 7.31472 6.86836
#
# Compressibility (1/GPa) = 0.01755388
#
# Stress axis : x y z
#
# Youngs Moduli (GPa) = 140.23164 172.98888 70.75072
#
# Poissons Ratio (x) = 0.30163 0.16729
# Poissons Ratio (y) = 0.24451 0.04513
# Poissons Ratio (z) = 0.33157 0.11036
#
# Static dielectric constant tensor:
#      x y z
#    x 1.891050 0.000000 0.000000 
#    y 0.000000 1.856430 0.000000 
#    z 0.000000 0.000000 1.918790 
# 
# From -- ./inp_files/38773.got.cif
#   From: 2010.05.17/outbox.cif.g08.bks.cpg/sg64_20_cif.got.tgz:38773.got - 2010.06.03 16:29:19.
