data_PCOD9480799
_publ_section_title
;
Structure prediction by ZEFSAII (Michael W. Deem and Ramdas Pophale) SiO2 
 PCOD9480799
Probable space group: C M C A
;
_chemical_formula_sum "Si O2"
_cell_formula_units_Z 56
_cell_length_a 20.026950
_cell_length_b 12.867750
_cell_length_c 8.405437
_cell_angle_alpha 90.000000
_cell_angle_beta 90.000000
_cell_angle_gamma 90.000000
_cell_volume 2166.096126
_symmetry_space_group_name_H-M "C M C A"
_symmetry_group_IT_number 64
_symmetry_cell_setting 'orthorhombic'
loop_
_space_group_symop_operation_xyz
x,y,z
-x,1/2-y,1/2+z
x,-y,-z
-x,1/2+y,1/2-z
-x,-y,-z
x,1/2+y,1/2-z
-x,y,z
x,1/2-y,1/2+z
1/2+x,1/2+y,z
1/2-x,-y,1/2+z
1/2+x,1/2-y,-z
1/2-x,y,1/2-z
1/2-x,1/2-y,-z
1/2+x,y,1/2-z
1/2-x,1/2+y,z
1/2+x,-y,1/2+z
loop_
_atom_site_type_symbol
_atom_site_label
_atom_site_fract_x
_atom_site_fract_y
_atom_site_fract_z
Si Si1 0.500000 0.805088 0.493045
Si Si2 0.647734 0.189915 0.521267
Si Si3 0.250000 0.425072 0.250000
Si Si4 0.000000 0.404518 0.838871
Si Si5 0.645957 0.407523 0.668646
O O1 0.571725 0.840627 0.425087
O O2 0.500000 0.838021 0.675873
O O3 0.500000 0.681062 0.477345
O O4 0.704749 0.140615 0.629630
O O5 0.652134 0.314083 0.542398
O O6 0.654088 0.150038 0.340829
O O7 0.300637 0.503058 0.335804
O O8 0.928242 0.456577 0.838351
#
# Coordination Sequence:
#
# PCOD9480799 Si02
#       5
#     8  16   8   8  16
#     4   8  16  35  61  85 110 146 195 245 293 343
#     4  10  22  40  62  87 117 155 198 246 296 349
#     4  12  24  34  54  88 124 158 192 232 288 354
#     4   8  16  35  61  85 110 146 195 245 293 343
#     4  10  22  40  62  87 117 155 198 246 296 349
#
# _framework density 25.852962999999999
#
# number of rings (size 3 to 8) (size 9 to 14) (size 15 to 20)
#    0.000    2.286    0.000    1.714    0.000    8.000 
#    0.000    4.286    0.000    0.000    0.000   28.000 
#    0.000    0.000    0.000    0.000    0.000    0.000 
#
# Total GULP energy -156847.727715 kJ/mol
# GULP energy per Si atom -5601.704561 kJ/mol
# Density = 2.579412 g / cm^3
# Si number density = 25.852963 Si / 1000 Ang^3
#
#
#
# Elastic Constant Matrix: (Units=GPa)
#
#
# Indices 1 2 3 4 5 6 
#
# 1 232.8343 76.4263 53.3574 0.0000 0.0000 0.0000
# 2 76.4263 95.5814 42.7831 0.0000 0.0000 0.0000
# 3 53.3574 42.7831 100.3711 0.0000 0.0000 0.0000
# 4 0.0000 0.0000 0.0000 47.0612 0.0000 0.0000
# 5 0.0000 0.0000 0.0000 0.0000 4.7248 0.0000
# 6 0.0000 0.0000 0.0000 0.0000 0.0000 95.4108
#
#
#
# Elastic Compliance Matrix: (Units=1/GPa)
#
#
# Indices 1 2 3 4 5 6 
#
# 1 0.005981 -0.004151 -0.001410 0.000000 0.000000 0.000000
# 2 -0.004151 0.015810 -0.004532 0.000000 0.000000 0.000000
# 3 -0.001410 -0.004532 0.012644 0.000000 0.000000 0.000000
# 4 0.000000 0.000000 0.000000 0.021249 0.000000 0.000000
# 5 0.000000 0.000000 0.000000 0.000000 0.211651 0.000000
# 6 0.000000 0.000000 0.000000 0.000000 0.000000 0.010481
#
#
# Mechanical properties :
#
#
# Convention : Reuss Voigt Hill
#
# Bulk Modulus (GPa) = 70.18234 85.99114 78.08674
# Shear Modulus (GPa) = 16.51519 46.52070 31.51794
#
# Velocity S-wave (km/s) = 2.53022 4.24658 3.49538
# Velocity P-wave (km/s) = 5.97843 7.57485 6.82349
#
# Compressibility (1/GPa) = 0.01424860
#
# Stress axis : x y z
#
# Youngs Moduli (GPa) = 167.21005 63.25089 79.08583
#
# Poissons Ratio (x) = 0.26255 0.11151
# Poissons Ratio (y) = 0.69407 0.35845
# Poissons Ratio (z) = 0.23576 0.28668
#
# Static dielectric constant tensor:
#      x y z
#    x 2.059500 0.000000 0.000000 
#    y 0.000000 1.983540 0.000000 
#    z 0.000000 0.000000 2.049130 
# 
# From -- ./inp_files/7655.got.cif
#   From: 2010.05.17/outbox.cif.g08.bks.cpg/sg64_4_cif.got.tgz:7655.got - 2010.06.03 16:29:19.
