data_PCOD9480767
_publ_section_title
;
Structure prediction by ZEFSAII (Michael W. Deem and Ramdas Pophale) SiO2 
 PCOD9480767
Probable space group: C M C A
;
_chemical_formula_sum "Si O2"
_cell_formula_units_Z 72
_cell_length_a 14.735085
_cell_length_b 26.816170
_cell_length_c 8.146405
_cell_angle_alpha 90.000000
_cell_angle_beta 90.000000
_cell_angle_gamma 90.000000
_cell_volume 3218.958613
_symmetry_space_group_name_H-M "C M C A"
_symmetry_group_IT_number 64
_symmetry_cell_setting 'orthorhombic'
loop_
_space_group_symop_operation_xyz
x,y,z
-x,1/2-y,1/2+z
x,-y,-z
-x,1/2+y,1/2-z
-x,-y,-z
x,1/2+y,1/2-z
-x,y,z
x,1/2-y,1/2+z
1/2+x,1/2+y,z
1/2-x,-y,1/2+z
1/2+x,1/2-y,-z
1/2-x,y,1/2-z
1/2-x,1/2-y,-z
1/2+x,y,1/2-z
1/2-x,1/2+y,z
1/2+x,-y,1/2+z
loop_
_atom_site_type_symbol
_atom_site_label
_atom_site_fract_x
_atom_site_fract_y
_atom_site_fract_z
Si Si1 0.500000 0.116386 0.621914
Si Si2 0.500000 0.199837 0.912247
Si Si3 0.000000 0.133731 0.259665
Si Si4 0.317017 0.549795 0.906783
Si Si5 0.689191 0.287914 0.401658
Si Si6 0.313222 0.382412 0.615669
O O1 0.500000 0.156003 0.772321
O O2 0.500000 0.141214 0.437748
O O3 0.593575 0.083521 0.632445
O O4 0.411027 0.232781 0.876941
O O5 0.500000 0.178827 0.102964
O O6 0.908639 0.103381 0.304574
O O7 0.250000 0.541330 0.750000
O O8 0.348497 0.500000 0.000000
O O9 0.249414 0.576040 0.036919
O O10 0.750000 0.300642 0.250000
O O11 0.750000 0.250000 0.500000
O O12 0.669009 0.340648 0.482871
O O13 0.250000 0.356066 0.750000
#
# Coordination Sequence:
#
# PCOD9480767 Si02
#       6
#     8   8   8  16  16  16
#     4  12  23  46  75 104 132 195 242 293 359 431
#     4  10  24  45  71 106 140 179 243 297 356 432
#     4  10  22  39  74 102 133 184 242 284 361 425
#     4  12  26  44  67 104 145 186 242 300 365 431
#     4  11  24  43  67 102 139 184 234 294 360 432
#     4  11  21  42  68  98 137 182 236 297 361 424
#
# _framework density 22.367483
#
# number of rings (size 3 to 8) (size 9 to 14) (size 15 to 20)
#    0.000    0.889    2.222    6.333    0.000    0.889 
#    0.000    5.556    0.000    0.000    0.000    0.000 
#    0.000    0.000    0.000    0.000    0.000    0.000 
#
# Total GULP energy -200864.964489 kJ/mol
# GULP energy per Si atom -5579.582347 kJ/mol
# Density = 2.231657 g / cm^3
# Si number density = 22.367483 Si / 1000 Ang^3
#
#
#
# Elastic Constant Matrix: (Units=GPa)
#
#
# Indices 1 2 3 4 5 6 
#
# 1 216.8878 28.0066 47.8860 0.0000 0.0000 0.0000
# 2 28.0066 43.8617 19.4339 0.0000 0.0000 0.0000
# 3 47.8860 19.4339 128.5250 0.0000 0.0000 0.0000
# 4 0.0000 0.0000 0.0000 22.5205 0.0000 0.0000
# 5 0.0000 0.0000 0.0000 0.0000 39.5361 0.0000
# 6 0.0000 0.0000 0.0000 0.0000 0.0000 15.5496
#
#
#
# Elastic Compliance Matrix: (Units=1/GPa)
#
#
# Indices 1 2 3 4 5 6 
#
# 1 0.005305 -0.002692 -0.001569 0.000000 0.000000 0.000000
# 2 -0.002692 0.025802 -0.002899 0.000000 0.000000 0.000000
# 3 -0.001569 -0.002899 0.008804 0.000000 0.000000 0.000000
# 4 0.000000 0.000000 0.000000 0.044404 0.000000 0.000000
# 5 0.000000 0.000000 0.000000 0.000000 0.025293 0.000000
# 6 0.000000 0.000000 0.000000 0.000000 0.000000 0.064310
#
#
# Mechanical properties :
#
#
# Convention : Reuss Voigt Hill
#
# Bulk Modulus (GPa) = 39.07655 64.43639 51.75647
# Shear Modulus (GPa) = 25.41067 35.11778 30.26423
#
# Velocity S-wave (km/s) = 3.37420 3.96667 3.68237
# Velocity P-wave (km/s) = 5.71738 7.06044 6.42411
#
# Compressibility (1/GPa) = 0.02559079
#
# Stress axis : x y z
#
# Youngs Moduli (GPa) = 188.50907 38.75668 113.58976
#
# Poissons Ratio (x) = 0.10433 0.17827
# Poissons Ratio (y) = 0.50744 0.32924
# Poissons Ratio (z) = 0.29585 0.11234
#
# Static dielectric constant tensor:
#      x y z
#    x 1.894320 0.000000 0.000000 
#    y 0.000000 1.797170 0.000000 
#    z 0.000000 0.000000 1.882970 
# 
# From -- ./inp_files/5888.got.cif
#   From: 2010.05.17/outbox.cif.g08.bks.cpg/sg64_3_cif.got.tgz:5888.got - 2010.06.03 16:29:19.
