data_PCOD9480378
_publ_section_title
;
Structure prediction by ZEFSAII (Michael W. Deem and Ramdas Pophale) SiO2 
 PCOD9480378
Probable space group: C M C A
;
_chemical_formula_sum "Si O2"
_cell_formula_units_Z 72
_cell_length_a 14.716813
_cell_length_b 13.356299
_cell_length_c 16.064485
_cell_angle_alpha 90.000000
_cell_angle_beta 90.000000
_cell_angle_gamma 90.000000
_cell_volume 3157.669787
_symmetry_space_group_name_H-M "C M C A"
_symmetry_group_IT_number 64
_symmetry_cell_setting 'orthorhombic'
loop_
_space_group_symop_operation_xyz
x,y,z
-x,1/2-y,1/2+z
x,-y,-z
-x,1/2+y,1/2-z
-x,-y,-z
x,1/2+y,1/2-z
-x,y,z
x,1/2-y,1/2+z
1/2+x,1/2+y,z
1/2-x,-y,1/2+z
1/2+x,1/2-y,-z
1/2-x,y,1/2-z
1/2-x,1/2-y,-z
1/2+x,y,1/2-z
1/2-x,1/2+y,z
1/2+x,-y,1/2+z
loop_
_atom_site_type_symbol
_atom_site_label
_atom_site_fract_x
_atom_site_fract_y
_atom_site_fract_z
Si Si1 0.000000 0.203280 0.443379
Si Si2 0.805096 0.384213 0.570486
Si Si3 0.827447 0.497301 0.808097
Si Si4 0.000000 0.378109 0.575973
Si Si5 0.838421 0.849647 0.444013
Si Si6 0.000000 0.131971 0.259924
O O1 0.000000 0.308329 0.493588
O O2 0.911519 0.149101 0.481444
O O3 0.000000 0.200732 0.343441
O O4 0.735085 0.421410 0.638910
O O5 0.903973 0.433761 0.575384
O O6 0.823061 0.265113 0.581352
O O7 0.755900 0.390846 0.481303
O O8 0.750000 0.546368 0.750000
O O9 0.867756 0.580721 0.869066
O O10 0.909740 0.436689 0.767137
O O11 0.000000 0.322262 0.666852
#
# Coordination Sequence:
#
# PCOD9480378 Si02
#       6
#     8  16  16   8  16   8
#     4  10  21  40  67  97 127 170 216 277 317 387
#     4  10  21  41  65  90 130 169 212 275 322 385
#     4  12  24  40  64  96 131 171 215 273 328 388
#     4  10  22  42  62  96 134 170 218 265 333 393
#     4  10  22  40  65  99 122 167 228 262 331 393
#     4  12  23  40  68  96 130 174 219 270 331 383
#
# _framework density 22.801625000000001
#
# number of rings (size 3 to 8) (size 9 to 14) (size 15 to 20)
#    0.000    1.333    4.444    1.333    0.000    1.778 
#    0.000    3.333    0.000    0.000    0.000    0.000 
#    0.000    0.000    0.000    0.000    0.000    0.000 
#
# Total GULP energy -200997.337309 kJ/mol
# GULP energy per Si atom -5583.259370 kJ/mol
# Density = 2.274973 g / cm^3
# Si number density = 22.801625 Si / 1000 Ang^3
#
#
#
# Elastic Constant Matrix: (Units=GPa)
#
#
# Indices 1 2 3 4 5 6 
#
# 1 130.0577 1.8671 1.6001 0.0000 0.0000 0.0000
# 2 1.8671 51.2214 17.3088 0.0000 0.0000 0.0000
# 3 1.6001 17.3088 104.4936 0.0000 0.0000 0.0000
# 4 0.0000 0.0000 0.0000 11.1421 0.0000 0.0000
# 5 0.0000 0.0000 0.0000 0.0000 41.5974 0.0000
# 6 0.0000 0.0000 0.0000 0.0000 0.0000 3.8080
#
#
#
# Elastic Compliance Matrix: (Units=1/GPa)
#
#
# Indices 1 2 3 4 5 6 
#
# 1 0.007693 -0.000255 -0.000076 0.000000 0.000000 0.000000
# 2 -0.000255 0.020689 -0.003423 0.000000 0.000000 0.000000
# 3 -0.000076 -0.003423 0.010138 0.000000 0.000000 0.000000
# 4 0.000000 0.000000 0.000000 0.089749 0.000000 0.000000
# 5 0.000000 0.000000 0.000000 0.000000 0.024040 0.000000
# 6 0.000000 0.000000 0.000000 0.000000 0.000000 0.262605
#
#
# Mechanical properties :
#
#
# Convention : Reuss Voigt Hill
#
# Bulk Modulus (GPa) = 32.24398 36.36939 34.30668
# Shear Modulus (GPa) = 11.55375 28.97596 20.26485
#
# Velocity S-wave (km/s) = 2.25346 3.56867 2.98442
# Velocity P-wave (km/s) = 4.57630 5.74156 5.19173
#
# Compressibility (1/GPa) = 0.03101354
#
# Stress axis : x y z
#
# Youngs Moduli (GPa) = 129.98012 48.33454 98.63737
#
# Poissons Ratio (x) = 0.01232 0.00746
# Poissons Ratio (y) = 0.03313 0.33765
# Poissons Ratio (z) = 0.00982 0.16546
#
# Static dielectric constant tensor:
#      x y z
#    x 1.888310 0.000000 0.000000 
#    y 0.000000 1.863050 0.000000 
#    z 0.000000 0.000000 1.881670 
# 
# From -- ./inp_files/23553.got.cif
#   From: 2010.05.17/outbox.cif.g08.bks.cpg/sg64_12_cif.got.tgz:23553.got - 2010.06.03 16:29:19.
