data_PCOD9480967
_publ_section_title
;
Structure prediction by ZEFSAII (Michael W. Deem and Ramdas Pophale) SiO2 
 PCOD9480967
Probable space group: C M C A
;
_chemical_formula_sum "Si O2"
_cell_formula_units_Z 72
_cell_length_a 14.790589
_cell_length_b 21.166576
_cell_length_c 10.484280
_cell_angle_alpha 90.000000
_cell_angle_beta 90.000000
_cell_angle_gamma 90.000000
_cell_volume 3282.272925
_symmetry_space_group_name_H-M "C M C A"
_symmetry_group_IT_number 64
_symmetry_cell_setting 'orthorhombic'
loop_
_space_group_symop_operation_xyz
x,y,z
-x,1/2-y,1/2+z
x,-y,-z
-x,1/2+y,1/2-z
-x,-y,-z
x,1/2+y,1/2-z
-x,y,z
x,1/2-y,1/2+z
1/2+x,1/2+y,z
1/2-x,-y,1/2+z
1/2+x,1/2-y,-z
1/2-x,y,1/2-z
1/2-x,1/2-y,-z
1/2+x,y,1/2-z
1/2-x,1/2+y,z
1/2+x,-y,1/2+z
loop_
_atom_site_type_symbol
_atom_site_label
_atom_site_fract_x
_atom_site_fract_y
_atom_site_fract_z
Si Si1 0.500000 0.797734 0.350008
Si Si2 0.894487 0.099581 0.493028
Si Si3 0.000000 0.940349 0.122466
Si Si4 0.848537 0.509082 0.794248
Si Si5 0.351989 0.802672 0.793906
Si Si6 0.000000 0.643197 0.388017
O O1 0.500000 0.870663 0.312379
O O2 0.588162 0.760343 0.304450
O O3 0.500000 0.801994 0.504275
O O4 0.845022 0.071230 0.615875
O O5 0.853261 0.161745 0.429856
O O6 0.000000 0.110187 0.520086
O O7 0.888955 0.044814 0.385190
O O8 0.087763 0.975260 0.175578
O O9 0.000000 0.920250 0.973993
O O10 0.750000 0.489502 0.750000
O O11 0.250000 0.793430 0.750000
O O12 0.411375 0.846952 0.698259
#
# Coordination Sequence:
#
# PCOD9480967 Si02
#       6
#     8  16   8  16  16   8
#     4   9  23  41  60  89 123 169 205 260 310 368
#     4  11  21  42  66  93 125 172 206 254 318 373
#     4  10  22  42  60  90 127 165 207 261 307 366
#     4  11  23  40  66  95 128 162 214 256 305 379
#     4  11  23  41  66  93 125 164 210 263 311 375
#     4   9  23  42  56  92 129 152 217 251 318 373
#
# _framework density 21.936018000000001
#
# number of rings (size 3 to 8) (size 9 to 14) (size 15 to 20)
#    0.667    0.889    4.444    1.333    3.111    5.333 
#    0.000    1.111    0.000    0.000    0.000    0.000 
#    0.000    0.000    0.000    0.000    0.000    0.000 
#
# Total GULP energy -201200.296777 kJ/mol
# GULP energy per Si atom -5588.897133 kJ/mol
# Density = 2.188609 g / cm^3
# Si number density = 21.936018 Si / 1000 Ang^3
#
#
#
# Elastic Constant Matrix: (Units=GPa)
#
#
# Indices 1 2 3 4 5 6 
#
# 1 131.0941 18.4367 29.4781 0.0000 0.0000 0.0000
# 2 18.4367 50.6832 14.5696 0.0000 0.0000 0.0000
# 3 29.4781 14.5696 86.4327 0.0000 0.0000 0.0000
# 4 0.0000 0.0000 0.0000 46.3652 0.0000 0.0000
# 5 0.0000 0.0000 0.0000 0.0000 -7.8235 0.0000
# 6 0.0000 0.0000 0.0000 0.0000 0.0000 -9.3081
#
#
#
# Elastic Compliance Matrix: (Units=1/GPa)
#
#
# Indices 1 2 3 4 5 6 
#
# 1 0.008527 -0.002381 -0.002507 0.000000 0.000000 0.000000
# 2 -0.002381 0.021400 -0.002795 0.000000 0.000000 0.000000
# 3 -0.002507 -0.002795 0.012896 0.000000 0.000000 0.000000
# 4 0.000000 0.000000 0.000000 0.021568 0.000000 0.000000
# 5 0.000000 0.000000 0.000000 0.000000 -0.127820 0.000000
# 6 0.000000 0.000000 0.000000 0.000000 0.000000 -0.107433
#
#
# Mechanical properties :
#
#
# Convention : Reuss Voigt Hill
#
# Bulk Modulus (GPa) = 36.42125 43.68654 40.05389
# Shear Modulus (GPa) = -34.16600 19.56175 -7.30213
#
# Velocity S-wave (km/s) = -3.95084 2.98948 -1.82649
# Velocity P-wave (km/s) = 2.04272 5.64577 3.72169
#
# Compressibility (1/GPa) = 0.02745650
#
# Stress axis : x y z
#
# Youngs Moduli (GPa) = 117.27953 46.72871 77.54469
#
# Poissons Ratio (x) = 0.11127 0.19438
# Poissons Ratio (y) = 0.27926 0.21676
# Poissons Ratio (z) = 0.29398 0.13062
#
# Static dielectric constant tensor:
#      x y z
#    x 1.710390 0.000000 0.000000 
#    y 0.000000 1.846080 0.000000 
#    z 0.000000 0.000000 1.833740 
# 
# From -- ./inp_files/14393.got.cif
#   From: 2010.05.17/outbox.cif.g08.bks.cpg/sg64_8_cif.got.tgz:14393.got - 2010.06.03 16:29:19.
