data_PCOD9480191
_publ_section_title
;
Structure prediction by ZEFSAII (Michael W. Deem and Ramdas Pophale) SiO2 
 PCOD9480191
Probable space group: C M C A
;
_chemical_formula_sum "Si O2"
_cell_formula_units_Z 88
_cell_length_a 28.337608
_cell_length_b 5.520339
_cell_length_c 25.472550
_cell_angle_alpha 90.000000
_cell_angle_beta 90.000000
_cell_angle_gamma 90.000000
_cell_volume 3984.752575
_symmetry_space_group_name_H-M "C M C A"
_symmetry_group_IT_number 64
_symmetry_cell_setting 'orthorhombic'
loop_
_space_group_symop_operation_xyz
x,y,z
-x,1/2-y,1/2+z
x,-y,-z
-x,1/2+y,1/2-z
-x,-y,-z
x,1/2+y,1/2-z
-x,y,z
x,1/2-y,1/2+z
1/2+x,1/2+y,z
1/2-x,-y,1/2+z
1/2+x,1/2-y,-z
1/2-x,y,1/2-z
1/2-x,1/2-y,-z
1/2+x,y,1/2-z
1/2-x,1/2+y,z
1/2+x,-y,1/2+z
loop_
_atom_site_type_symbol
_atom_site_label
_atom_site_fract_x
_atom_site_fract_y
_atom_site_fract_z
Si Si1 0.141802 0.499986 0.894013
Si Si2 0.898852 0.000030 0.718179
Si Si3 0.895724 0.000014 0.058841
Si Si4 0.500000 0.000046 0.593124
Si Si5 0.748378 0.500001 0.388600
Si Si6 0.777978 0.500000 0.500000
Si Si7 0.000000 0.000047 0.661128
O O1 0.135905 0.500017 0.831552
O O2 0.118148 0.253108 0.914451
O O3 0.195687 0.499998 0.912068
O O4 0.118142 0.746831 0.914461
O O5 0.892615 0.250035 0.749998
O O6 0.952378 0.000028 0.695380
O O7 0.952424 0.999981 0.059594
O O8 0.874295 0.000000 0.000000
O O9 0.500000 0.249062 0.627582
O O10 0.500000 0.751063 0.627593
O O11 0.750000 0.250002 0.357888
O O12 0.787603 0.500003 0.435395
O O13 0.750000 0.250000 0.500000
#
# Coordination Sequence:
#
# PCOD9480191 Si02
#       7
#    16  16  16   8  16   8   8
#     4  12  25  44  65  95 131 165 219 273 310 385
#     4  12  24  42  67  95 126 165 209 271 333 373
#     4  12  25  41  64  93 133 181 216 254 306 374
#     4  12  21  43  62  89 136 175 214 255 305 374
#     4  10  21  39  62  89 124 167 203 257 323 376
#     4   8  16  30  52  82 112 145 192 235 292 364
#     4  12  22  41  67  91 130 165 209 269 324 384
#
# _framework density 22.084181000000001
#
# number of rings (size 3 to 8) (size 9 to 14) (size 15 to 20)
#    0.000    0.727    3.636    4.636    2.545    0.000 
#    3.273    2.727    0.000    3.273    0.000    0.000 
#    0.000    0.000    0.000    0.000    0.000    0.000 
#
# Total GULP energy -245233.309763 kJ/mol
# GULP energy per Si atom -5573.484313 kJ/mol
# Density = 2.203392 g / cm^3
# Si number density = 22.084181 Si / 1000 Ang^3
#
#
#
# Elastic Constant Matrix: (Units=GPa)
#
#
# Indices 1 2 3 4 5 6 
#
# 1 80.6636 16.4048 8.0966 0.0000 0.0000 0.0000
# 2 16.4048 264.7694 66.9352 0.0000 0.0000 0.0000
# 3 8.0966 66.9352 120.3608 0.0000 0.0000 0.0000
# 4 0.0000 0.0000 0.0000 28.0703 0.0000 0.0000
# 5 0.0000 0.0000 0.0000 0.0000 9.9173 0.0000
# 6 0.0000 0.0000 0.0000 0.0000 0.0000 6.9032
#
#
#
# Elastic Compliance Matrix: (Units=1/GPa)
#
#
# Indices 1 2 3 4 5 6 
#
# 1 0.012579 -0.000658 -0.000480 0.000000 0.000000 0.000000
# 2 -0.000658 0.004429 -0.002419 0.000000 0.000000 0.000000
# 3 -0.000480 -0.002419 0.009686 0.000000 0.000000 0.000000
# 4 0.000000 0.000000 0.000000 0.035625 0.000000 0.000000
# 5 0.000000 0.000000 0.000000 0.000000 0.100834 0.000000
# 6 0.000000 0.000000 0.000000 0.000000 0.000000 0.144860
#
#
# Mechanical properties :
#
#
# Convention : Reuss Voigt Hill
#
# Bulk Modulus (GPa) = 51.07274 72.07409 61.57341
# Shear Modulus (GPa) = 15.54467 33.93531 24.73999
#
# Velocity S-wave (km/s) = 2.65596 3.92425 3.35066
# Velocity P-wave (km/s) = 5.70807 7.29656 6.55065
#
# Compressibility (1/GPa) = 0.01957992
#
# Stress axis : x y z
#
# Youngs Moduli (GPa) = 79.49639 225.77718 103.24340
#
# Poissons Ratio (x) = 0.14856 0.04959
# Poissons Ratio (y) = 0.05231 0.24973
# Poissons Ratio (z) = 0.03818 0.54613
#
# Static dielectric constant tensor:
#      x y z
#    x 1.371820 0.000000 0.000000 
#    y 0.000000 1.895700 0.000000 
#    z 0.000000 0.000000 1.805990 
# 
# From -- ./inp_files/47113.got.cif
#   From: 2010.05.17/outbox.cif.g08.bks.cpg/sg64_24_cif.got.tgz:47113.got - 2010.06.03 16:29:19.
