data_PCOD9480593
_publ_section_title
;
Structure prediction by ZEFSAII (Michael W. Deem and Ramdas Pophale) SiO2 
 PCOD9480593
Probable space group: C M C A
;
_chemical_formula_sum "Si O2"
_cell_formula_units_Z 96
_cell_length_a 19.091646
_cell_length_b 23.252314
_cell_length_c 11.180222
_cell_angle_alpha 90.000000
_cell_angle_beta 90.000000
_cell_angle_gamma 90.000000
_cell_volume 4963.179465
_symmetry_space_group_name_H-M "C M C A"
_symmetry_group_IT_number 64
_symmetry_cell_setting 'orthorhombic'
loop_
_space_group_symop_operation_xyz
x,y,z
-x,1/2-y,1/2+z
x,-y,-z
-x,1/2+y,1/2-z
-x,-y,-z
x,1/2+y,1/2-z
-x,y,z
x,1/2-y,1/2+z
1/2+x,1/2+y,z
1/2-x,-y,1/2+z
1/2+x,1/2-y,-z
1/2-x,y,1/2-z
1/2-x,1/2-y,-z
1/2+x,y,1/2-z
1/2-x,1/2+y,z
1/2+x,-y,1/2+z
loop_
_atom_site_type_symbol
_atom_site_label
_atom_site_fract_x
_atom_site_fract_y
_atom_site_fract_z
Si Si1 0.196308 0.643223 0.932013
Si Si2 0.918739 0.630979 0.276879
Si Si3 0.077087 0.434167 0.962136
Si Si4 0.153951 0.849378 0.167415
Si Si5 0.583445 0.065505 0.509395
Si Si6 0.183972 0.776921 0.658789
O O1 0.158752 0.661064 0.808990
O O2 0.273175 0.626378 0.886863
O O3 0.145267 0.595033 0.983224
O O4 0.204123 0.690347 0.036357
O O5 0.918639 0.579704 0.178880
O O6 0.890233 0.604960 0.399949
O O7 0.871600 0.682265 0.226234
O O8 0.000000 0.649300 0.291360
O O9 0.000000 0.409951 0.999890
O O10 0.077260 0.500000 0.000000
O O11 0.149732 0.783898 0.121687
O O12 0.099291 0.897569 0.127708
O O13 0.500000 0.061683 0.493854
O O14 0.610837 0.000000 0.500000
O O15 0.250000 0.768327 0.750000
#
# Coordination Sequence:
#
# PCOD9480593 Si02
#       6
#    16  16  16  16  16  16
#     4  10  22  37  56  92 120 153 199 244 296 356
#     4   9  20  38  58  86 117 151 200 249 297 359
#     4   9  19  36  61  85 113 152 194 246 300 352
#     4  11  23  37  60  86 122 156 196 249 294 357
#     4  10  23  41  62  87 119 162 205 246 303 363
#     4  11  21  38  65  86 119 160 199 243 305 362
#
# _framework density 19.34244
#
# number of rings (size 3 to 8) (size 9 to 14) (size 15 to 20)
#    0.000    2.000    1.667    1.500    4.667    2.000 
#    0.000    0.000    0.000    0.000    0.000    0.000 
#    0.000    0.000    0.000    0.000    0.000    0.000 
#
# Total GULP energy -267368.769396 kJ/mol
# GULP energy per Si atom -5570.182696 kJ/mol
# Density = 1.929842 g / cm^3
# Si number density = 19.342440 Si / 1000 Ang^3
#
#
#
# Elastic Constant Matrix: (Units=GPa)
#
#
# Indices 1 2 3 4 5 6 
#
# 1 15.5519 23.8296 15.0093 0.0000 0.0000 0.0000
# 2 23.8296 88.6313 22.0323 0.0000 0.0000 0.0000
# 3 15.0093 22.0323 76.3664 0.0000 0.0000 0.0000
# 4 0.0000 0.0000 0.0000 15.8061 0.0000 0.0000
# 5 0.0000 0.0000 0.0000 0.0000 26.1592 0.0000
# 6 0.0000 0.0000 0.0000 0.0000 0.0000 11.2556
#
#
#
# Elastic Compliance Matrix: (Units=1/GPa)
#
#
# Indices 1 2 3 4 5 6 
#
# 1 0.125304 -0.029697 -0.016060 0.000000 0.000000 0.000000
# 2 -0.029697 0.019193 0.000300 0.000000 0.000000 0.000000
# 3 -0.016060 0.000300 0.016165 0.000000 0.000000 0.000000
# 4 0.000000 0.000000 0.000000 0.063267 0.000000 0.000000
# 5 0.000000 0.000000 0.000000 0.000000 0.038227 0.000000
# 6 0.000000 0.000000 0.000000 0.000000 0.000000 0.088844
#
#
# Mechanical properties :
#
#
# Convention : Reuss Voigt Hill
#
# Bulk Modulus (GPa) = 14.33761 33.58800 23.96280
# Shear Modulus (GPa) = 10.74889 18.62274 14.68582
#
# Velocity S-wave (km/s) = 2.35992 3.10626 2.75845
# Velocity P-wave (km/s) = 3.85412 5.50161 4.74984
#
# Compressibility (1/GPa) = 0.06974663
#
# Stress axis : x y z
#
# Youngs Moduli (GPa) = 7.98058 52.10301 61.86294
#
# Poissons Ratio (x) = 1.54732 0.99350
# Poissons Ratio (y) = 0.23700 -0.01853
# Poissons Ratio (z) = 0.12817 -0.01561
#
# Static dielectric constant tensor:
#      x y z
#    x 1.684420 0.000000 0.000000 
#    y 0.000000 1.665680 0.000000 
#    z 0.000000 0.000000 1.731610 
# 
# From -- ./inp_files/17364.got.cif
#   From: 2010.05.17/outbox.cif.g08.bks.cpg/sg64_9_cif.got.tgz:17364.got - 2010.06.03 16:29:19.
