data_PCOD9480270
_publ_section_title
;
Structure prediction by ZEFSAII (Michael W. Deem and Ramdas Pophale) SiO2 
 PCOD9480270
Probable space group: C M C A
;
_chemical_formula_sum "Si O2"
_cell_formula_units_Z 96
_cell_length_a 14.775455
_cell_length_b 19.888105
_cell_length_c 15.119147
_cell_angle_alpha 90.000000
_cell_angle_beta 90.000000
_cell_angle_gamma 90.000000
_cell_volume 4442.849044
_symmetry_space_group_name_H-M "C M C A"
_symmetry_group_IT_number 64
_symmetry_cell_setting 'orthorhombic'
loop_
_space_group_symop_operation_xyz
x,y,z
-x,1/2-y,1/2+z
x,-y,-z
-x,1/2+y,1/2-z
-x,-y,-z
x,1/2+y,1/2-z
-x,y,z
x,1/2-y,1/2+z
1/2+x,1/2+y,z
1/2-x,-y,1/2+z
1/2+x,1/2-y,-z
1/2-x,y,1/2-z
1/2-x,1/2-y,-z
1/2+x,y,1/2-z
1/2-x,1/2+y,z
1/2+x,-y,1/2+z
loop_
_atom_site_type_symbol
_atom_site_label
_atom_site_fract_x
_atom_site_fract_y
_atom_site_fract_z
Si Si1 0.893505 0.777540 0.675034
Si Si2 0.394678 0.489143 0.328608
Si Si3 0.895463 0.393345 0.690919
Si Si4 0.608387 0.662672 0.704889
Si Si5 0.754359 0.938072 0.949852
Si Si6 0.325448 0.305663 0.483332
O O1 0.862365 0.837627 0.738849
O O2 0.855312 0.707007 0.712755
O O3 0.882750 0.796145 0.572869
O O4 0.000000 0.773966 0.690393
O O5 0.500000 0.486102 0.361473
O O6 0.395203 0.535941 0.242322
O O7 0.361562 0.414611 0.303321
O O8 0.327949 0.526586 0.396483
O O9 0.825487 0.400225 0.612061
O O10 0.000000 0.378821 0.664548
O O11 0.500000 0.657208 0.713732
O O12 0.628913 0.700780 0.612409
O O13 0.713671 0.880920 0.012306
O O14 0.800684 0.000000 0.000000
O O15 0.250000 0.250000 0.500000
#
# Coordination Sequence:
#
# PCOD9480270 Si02
#       6
#    16  16  16  16  16  16
#     4  10  22  43  68  91 125 175 220 269 330 389
#     4  10  21  39  66  95 124 164 217 271 325 381
#     4  10  22  41  66  91 123 173 224 265 318 392
#     4  10  22  41  64  94 127 164 216 276 325 384
#     4  12  24  40  62  95 132 171 213 267 331 387
#     4  12  25  39  60  98 131 171 215 265 327 396
#
# _framework density 21.607755999999998
#
# number of rings (size 3 to 8) (size 9 to 14) (size 15 to 20)
#    0.000    1.333    3.333    2.000    0.000    4.667 
#    3.000    0.833    0.000    0.000    0.000    0.000 
#    0.000    0.000    0.000    0.000    0.000    0.000 
#
# Total GULP energy -268077.833254 kJ/mol
# GULP energy per Si atom -5584.954859 kJ/mol
# Density = 2.155858 g / cm^3
# Si number density = 21.607756 Si / 1000 Ang^3
#
#
#
# Elastic Constant Matrix: (Units=GPa)
#
#
# Indices 1 2 3 4 5 6 
#
# 1 40.4581 -2.2308 -6.8379 0.0000 0.0000 0.0000
# 2 -2.2308 102.0915 -4.0978 0.0000 0.0000 0.0000
# 3 -6.8379 -4.0978 37.9881 0.0000 0.0000 0.0000
# 4 0.0000 0.0000 0.0000 38.0325 0.0000 0.0000
# 5 0.0000 0.0000 0.0000 0.0000 12.9459 0.0000
# 6 0.0000 0.0000 0.0000 0.0000 0.0000 24.1610
#
#
#
# Elastic Compliance Matrix: (Units=1/GPa)
#
#
# Indices 1 2 3 4 5 6 
#
# 1 0.025549 0.000746 0.004679 0.000000 0.000000 0.000000
# 2 0.000746 0.009860 0.001198 0.000000 0.000000 0.000000
# 3 0.004679 0.001198 0.027296 0.000000 0.000000 0.000000
# 4 0.000000 0.000000 0.000000 0.026293 0.000000 0.000000
# 5 0.000000 0.000000 0.000000 0.000000 0.077245 0.000000
# 6 0.000000 0.000000 0.000000 0.000000 0.000000 0.041389
#
#
# Mechanical properties :
#
#
# Convention : Reuss Voigt Hill
#
# Bulk Modulus (GPa) = 13.16648 17.13386 15.15017
# Shear Modulus (GPa) = 22.75817 27.94149 25.34983
#
# Velocity S-wave (km/s) = 3.24889 3.59990 3.42889
# Velocity P-wave (km/s) = 4.49225 5.02253 4.76477
#
# Compressibility (1/GPa) = 0.07595042
#
# Stress axis : x y z
#
# Youngs Moduli (GPa) = 39.14059 101.42486 36.63606
#
# Poissons Ratio (x) = -0.07567 -0.17143
# Poissons Ratio (y) = -0.02920 -0.04388
# Poissons Ratio (z) = -0.18315 -0.12149
#
# Static dielectric constant tensor:
#      x y z
#    x 1.834770 0.000000 0.000000 
#    y 0.000000 1.809940 0.000000 
#    z 0.000000 0.000000 1.916130 
# 
# From -- ./inp_files/23923.got.cif
#   From: 2010.05.17/outbox.cif.g08.bks.cpg/sg64_12_cif.got.tgz:23923.got - 2010.06.03 16:29:19.
