data_PCOD9480656
_publ_section_title
;
Structure prediction by ZEFSAII (Michael W. Deem and Ramdas Pophale) SiO2 
 PCOD9480656
Probable space group: C M C A
;
_chemical_formula_sum "Si O2"
_cell_formula_units_Z 72
_cell_length_a 14.411789
_cell_length_b 27.969612
_cell_length_c 9.617010
_cell_angle_alpha 90.000000
_cell_angle_beta 90.000000
_cell_angle_gamma 90.000000
_cell_volume 3876.541204
_symmetry_space_group_name_H-M "C M C A"
_symmetry_group_IT_number 64
_symmetry_cell_setting 'orthorhombic'
loop_
_space_group_symop_operation_xyz
x,y,z
-x,1/2-y,1/2+z
x,-y,-z
-x,1/2+y,1/2-z
-x,-y,-z
x,1/2+y,1/2-z
-x,y,z
x,1/2-y,1/2+z
1/2+x,1/2+y,z
1/2-x,-y,1/2+z
1/2+x,1/2-y,-z
1/2-x,y,1/2-z
1/2-x,1/2-y,-z
1/2+x,y,1/2-z
1/2-x,1/2+y,z
1/2+x,-y,1/2+z
loop_
_atom_site_type_symbol
_atom_site_label
_atom_site_fract_x
_atom_site_fract_y
_atom_site_fract_z
Si Si1 0.345332 0.948447 0.334852
Si Si2 0.000000 0.186118 0.517093
Si Si3 0.362031 0.344523 0.249423
Si Si4 0.000000 0.631556 0.273741
Si Si5 0.345475 0.054161 0.334760
Si Si6 0.500000 0.701328 0.962652
O O1 0.250000 0.950956 0.250000
O O2 0.390299 0.899603 0.281842
O O3 0.328547 0.942385 0.499545
O O4 0.388420 0.000934 0.313034
O O5 0.910001 0.171322 0.607573
O O6 0.000000 0.158848 0.371593
O O7 0.000000 0.242849 0.495251
O O8 0.250000 0.340992 0.250000
O O9 0.410471 0.313016 0.129800
O O10 0.087645 0.596491 0.289399
O O11 0.000000 0.669660 0.398617
O O12 0.250000 0.057090 0.250000
#
# Coordination Sequence:
#
# PCOD9480656 Si02
#       6
#    16   8  16   8  16   8
#     4   9  19  38  65  88 125 164 203 238 300 364
#     4  11  27  42  62  89 128 151 210 268 301 353
#     4  10  22  43  68  89 117 169 204 240 310 373
#     4  12  24  37  62  96 119 163 202 250 314 360
#     4  10  22  38  61  94 129 158 199 253 297 359
#     4  11  23  46  63  89 125 158 204 267 304 351
#
# _framework density 18.573259
#
# number of rings (size 3 to 8) (size 9 to 14) (size 15 to 20)
#    0.000    1.778    2.222    1.333    6.222    4.444 
#    0.000    3.333    0.000    0.000    0.000    0.000 
#    0.000    0.000    0.000    0.000    0.000    0.000 
#
# Total GULP energy -200864.919715 kJ/mol
# GULP energy per Si atom -5579.581103 kJ/mol
# Density = 1.853099 g / cm^3
# Si number density = 18.573259 Si / 1000 Ang^3
#
#
#
# Elastic Constant Matrix: (Units=GPa)
#
#
# Indices 1 2 3 4 5 6 
#
# 1 134.9903 66.1507 70.0676 0.0000 0.0000 0.0000
# 2 66.1507 201.1793 100.4345 0.0000 0.0000 0.0000
# 3 70.0676 100.4345 145.9403 0.0000 0.0000 0.0000
# 4 0.0000 0.0000 0.0000 -6.3807 0.0000 0.0000
# 5 0.0000 0.0000 0.0000 0.0000 23.9264 0.0000
# 6 0.0000 0.0000 0.0000 0.0000 0.0000 99.0150
#
#
#
# Elastic Compliance Matrix: (Units=1/GPa)
#
#
# Indices 1 2 3 4 5 6 
#
# 1 0.010110 -0.001373 -0.003909 0.000000 0.000000 0.000000
# 2 -0.001373 0.007759 -0.004680 0.000000 0.000000 0.000000
# 3 -0.003909 -0.004680 0.011950 0.000000 0.000000 0.000000
# 4 0.000000 0.000000 0.000000 -0.156723 0.000000 0.000000
# 5 0.000000 0.000000 0.000000 0.000000 0.041795 0.000000
# 6 0.000000 0.000000 0.000000 0.000000 0.000000 0.010099
#
#
# Mechanical properties :
#
#
# Convention : Reuss Voigt Hill
#
# Bulk Modulus (GPa) = 101.07240 106.15728 103.61484
# Shear Modulus (GPa) = -96.54718 39.67595 -28.43562
#
# Velocity S-wave (km/s) = -7.21766 4.62690 -3.91704
# Velocity P-wave (km/s) = 3.86305 9.26415 5.95404
#
# Compressibility (1/GPa) = 0.00989390
#
# Stress axis : x y z
#
# Youngs Moduli (GPa) = 98.91543 128.88904 83.68275
#
# Poissons Ratio (x) = 0.17692 0.32712
# Poissons Ratio (y) = 0.13578 0.39167
# Poissons Ratio (z) = 0.38667 0.60325
#
# Static dielectric constant tensor:
#      x y z
#    x 1.648190 0.000000 0.000000 
#    y 0.000000 1.651770 0.000000 
#    z 0.000000 0.000000 1.611690 
# 
# From -- ./inp_files/5892.got.cif
#   From: 2010.05.17/outbox.cif.g08.bks.cpg/sg64_3_cif.got.tgz:5892.got - 2010.06.03 16:29:19.
