data_PCOD9480396
_publ_section_title
;
Structure prediction by ZEFSAII (Michael W. Deem and Ramdas Pophale) SiO2 
 PCOD9480396
Probable space group: C M C A
;
_chemical_formula_sum "Si O2"
_cell_formula_units_Z 96
_cell_length_a 16.155009
_cell_length_b 16.456370
_cell_length_c 17.030775
_cell_angle_alpha 90.000000
_cell_angle_beta 90.000000
_cell_angle_gamma 90.000000
_cell_volume 4527.679313
_symmetry_space_group_name_H-M "C M C A"
_symmetry_group_IT_number 64
_symmetry_cell_setting 'orthorhombic'
loop_
_space_group_symop_operation_xyz
x,y,z
-x,1/2-y,1/2+z
x,-y,-z
-x,1/2+y,1/2-z
-x,-y,-z
x,1/2+y,1/2-z
-x,y,z
x,1/2-y,1/2+z
1/2+x,1/2+y,z
1/2-x,-y,1/2+z
1/2+x,1/2-y,-z
1/2-x,y,1/2-z
1/2-x,1/2-y,-z
1/2+x,y,1/2-z
1/2-x,1/2+y,z
1/2+x,-y,1/2+z
loop_
_atom_site_type_symbol
_atom_site_label
_atom_site_fract_x
_atom_site_fract_y
_atom_site_fract_z
Si Si1 0.407892 0.597164 0.008227
Si Si2 0.167207 0.681841 0.202474
Si Si3 0.404249 0.856657 0.327944
Si Si4 0.768726 0.160421 0.470159
Si Si5 0.907712 0.929387 0.435590
Si Si6 0.096908 0.508011 0.236306
O O1 0.500000 0.620834 0.040291
O O2 0.399681 0.637120 0.921889
O O3 0.409760 0.500000 0.000000
O O4 0.320563 0.619487 0.047377
O O5 0.250000 0.695731 0.250000
O O6 0.123611 0.769491 0.203205
O O7 0.181765 0.662207 0.110968
O O8 0.129453 0.599590 0.238447
O O9 0.500000 0.861941 0.305484
O O10 0.364090 0.939018 0.292810
O O11 0.750000 0.250000 0.500000
O O12 0.828085 0.121312 0.536513
O O13 0.000000 0.888382 0.435393
O O14 0.912358 0.000000 0.500000
O O15 0.895468 0.970086 0.350856
O O16 0.000000 0.516313 0.255346
#
# Coordination Sequence:
#
# PCOD9480396 Si02
#       6
#    16  16  16  16  16  16
#     4  10  23  43  68  95 128 176 226 275 334 395
#     4  12  27  42  63  98 136 177 217 271 337 398
#     4  10  23  45  68  93 132 175 221 277 330 398
#     4  12  25  42  65  99 133 171 218 278 332 397
#     4  10  21  40  69  99 126 163 219 278 330 388
#     4  10  23  44  69  97 129 176 223 273 336 395
#
# _framework density 21.202915000000001
#
# number of rings (size 3 to 8) (size 9 to 14) (size 15 to 20)
#    0.000    1.333    3.333    1.000    4.667    2.000 
#    0.000    0.833    0.000    0.000    0.000    0.000 
#    0.000    0.000    0.000    0.000    0.000    0.000 
#
# Total GULP energy -267749.598812 kJ/mol
# GULP energy per Si atom -5578.116642 kJ/mol
# Density = 2.115466 g / cm^3
# Si number density = 21.202915 Si / 1000 Ang^3
#
#
#
# Elastic Constant Matrix: (Units=GPa)
#
#
# Indices 1 2 3 4 5 6 
#
# 1 79.0638 50.1571 -3.1770 0.0000 0.0000 0.0000
# 2 50.1571 138.7163 6.0520 0.0000 0.0000 0.0000
# 3 -3.1770 6.0520 14.2722 0.0000 0.0000 0.0000
# 4 0.0000 0.0000 0.0000 31.0554 0.0000 0.0000
# 5 0.0000 0.0000 0.0000 0.0000 7.2802 0.0000
# 6 0.0000 0.0000 0.0000 0.0000 0.0000 39.4708
#
#
#
# Elastic Compliance Matrix: (Units=1/GPa)
#
#
# Indices 1 2 3 4 5 6 
#
# 1 0.016986 -0.006426 0.006506 0.000000 0.000000 0.000000
# 2 -0.006426 0.009776 -0.005576 0.000000 0.000000 0.000000
# 3 0.006506 -0.005576 0.073879 0.000000 0.000000 0.000000
# 4 0.000000 0.000000 0.000000 0.032201 0.000000 0.000000
# 5 0.000000 0.000000 0.000000 0.000000 0.137358 0.000000
# 6 0.000000 0.000000 0.000000 0.000000 0.000000 0.025335
#
#
# Mechanical properties :
#
#
# Convention : Reuss Voigt Hill
#
# Bulk Modulus (GPa) = 11.15461 37.56850 24.36155
# Shear Modulus (GPa) = 14.86293 27.49597 21.17945
#
# Velocity S-wave (km/s) = 2.65049 3.60502 3.16396
# Velocity P-wave (km/s) = 3.82610 5.92328 4.98620
#
# Compressibility (1/GPa) = 0.08964906
#
# Stress axis : x y z
#
# Youngs Moduli (GPa) = 58.87306 102.29597 13.53573
#
# Poissons Ratio (x) = 0.65731 -0.08806
# Poissons Ratio (y) = 0.37829 0.07547
# Poissons Ratio (z) = -0.38301 0.57036
#
# Static dielectric constant tensor:
#      x y z
#    x 1.822510 0.000000 0.000000 
#    y 0.000000 1.797210 0.000000 
#    z 0.000000 0.000000 1.919640 
# 
# From -- ./inp_files/39197.got.cif
#   From: 2010.05.17/outbox.cif.g08.bks.cpg/sg64_20_cif.got.tgz:39197.got - 2010.06.03 16:29:19.
