data_PCOD9480523
_publ_section_title
;
Structure prediction by ZEFSAII (Michael W. Deem and Ramdas Pophale) SiO2 
 PCOD9480523
Probable space group: C M C A
;
_chemical_formula_sum "Si O2"
_cell_formula_units_Z 88
_cell_length_a 13.885805
_cell_length_b 26.359796
_cell_length_c 14.221792
_cell_angle_alpha 90.000000
_cell_angle_beta 90.000000
_cell_angle_gamma 90.000000
_cell_volume 5205.559677
_symmetry_space_group_name_H-M "C M C A"
_symmetry_group_IT_number 64
_symmetry_cell_setting 'orthorhombic'
loop_
_space_group_symop_operation_xyz
x,y,z
-x,1/2-y,1/2+z
x,-y,-z
-x,1/2+y,1/2-z
-x,-y,-z
x,1/2+y,1/2-z
-x,y,z
x,1/2-y,1/2+z
1/2+x,1/2+y,z
1/2-x,-y,1/2+z
1/2+x,1/2-y,-z
1/2-x,y,1/2-z
1/2-x,1/2-y,-z
1/2+x,y,1/2-z
1/2-x,1/2+y,z
1/2+x,-y,1/2+z
loop_
_atom_site_type_symbol
_atom_site_label
_atom_site_fract_x
_atom_site_fract_y
_atom_site_fract_z
Si Si1 0.500000 0.700781 0.335019
Si Si2 0.000000 0.735761 0.488146
Si Si3 0.384588 0.058595 0.000297
Si Si4 0.500000 0.202627 0.796064
Si Si5 0.188743 0.633659 0.158693
Si Si6 0.815280 0.867233 0.337520
Si Si7 0.706513 0.305722 0.003384
O O1 0.500000 0.714577 0.445300
O O2 0.500000 0.756638 0.288294
O O3 0.404056 0.668309 0.314225
O O4 0.093086 0.701835 0.505370
O O5 0.000000 0.759756 0.385228
O O6 0.500000 0.060807 0.002678
O O7 0.346773 0.087685 0.092844
O O8 0.351070 0.088068 0.906388
O O9 0.353842 0.000000 0.000000
O O10 0.594246 0.166789 0.802442
O O11 0.250000 0.618971 0.250000
O O12 0.257024 0.666011 0.089550
O O13 0.750000 0.884179 0.250000
O O14 0.749015 0.832853 0.405289
O O15 0.750000 0.250000 0.000000
#
# Coordination Sequence:
#
# PCOD9480523 Si02
#       7
#     8   8  16   8  16  16  16
#     4  12  22  32  54  79 122 163 196 234 280 345
#     4  12  20  34  50  76 114 170 208 234 270 334
#     4  10  21  43  68  85 109 150 203 262 308 347
#     4  12  22  32  54  79 122 163 196 234 280 345
#     4  11  23  37  56  89 118 153 203 244 295 361
#     4  11  23  37  56  89 118 153 203 244 295 361
#     4  11  21  34  53  78 121 165 200 237 286 342
#
# _framework density 16.905003000000001
#
# number of rings (size 3 to 8) (size 9 to 14) (size 15 to 20)
#    0.000    0.909    5.455    3.273    0.000    0.727 
#    0.000    0.000    0.000    0.000    0.000    3.818 
#    0.000    0.000    0.000    0.000    0.000    0.000 
#
# Total GULP energy -245709.883659 kJ/mol
# GULP energy per Si atom -5584.315538 kJ/mol
# Density = 1.686653 g / cm^3
# Si number density = 16.905003 Si / 1000 Ang^3
#
#
#
# Elastic Constant Matrix: (Units=GPa)
#
#
# Indices 1 2 3 4 5 6 
#
# 1 140.5964 53.1401 38.1075 0.0000 0.0000 0.0000
# 2 53.1401 120.7588 45.1328 0.0000 0.0000 0.0000
# 3 38.1075 45.1328 102.5825 0.0000 0.0000 0.0000
# 4 0.0000 0.0000 0.0000 16.4179 0.0000 0.0000
# 5 0.0000 0.0000 0.0000 0.0000 12.5973 0.0000
# 6 0.0000 0.0000 0.0000 0.0000 0.0000 18.9346
#
#
#
# Elastic Compliance Matrix: (Units=1/GPa)
#
#
# Indices 1 2 3 4 5 6 
#
# 1 0.008824 -0.003181 -0.001878 0.000000 0.000000 0.000000
# 2 -0.003181 0.011057 -0.003683 0.000000 0.000000 0.000000
# 3 -0.001878 -0.003683 0.012067 0.000000 0.000000 0.000000
# 4 0.000000 0.000000 0.000000 0.060909 0.000000 0.000000
# 5 0.000000 0.000000 0.000000 0.000000 0.079382 0.000000
# 6 0.000000 0.000000 0.000000 0.000000 0.000000 0.052813
#
#
# Mechanical properties :
#
#
# Convention : Reuss Voigt Hill
#
# Bulk Modulus (GPa) = 69.14343 70.74429 69.94386
# Shear Modulus (GPa) = 20.21358 24.76045 22.48702
#
# Velocity S-wave (km/s) = 3.46166 3.83127 3.65115
# Velocity P-wave (km/s) = 7.54768 7.84286 7.69668
#
# Compressibility (1/GPa) = 0.01446269
#
# Stress axis : x y z
#
# Youngs Moduli (GPa) = 113.32773 90.43786 82.87394
#
# Poissons Ratio (x) = 0.28768 0.15567
# Poissons Ratio (y) = 0.36049 0.30524
# Poissons Ratio (z) = 0.21288 0.33310
#
# Static dielectric constant tensor:
#      x y z
#    x 1.547900 0.000000 0.000000 
#    y 0.000000 1.546840 0.000000 
#    z 0.000000 0.000000 1.538090 
# 
# From -- ./inp_files/22479.got.cif
#   From: 2010.05.17/outbox.cif.g08.bks.cpg/sg64_12_cif.got.tgz:22479.got - 2010.06.03 16:29:19.
