data_PCOD9480117
_publ_section_title
;
Structure prediction by ZEFSAII (Michael W. Deem and Ramdas Pophale) SiO2 
 PCOD9480117
Probable space group: C M C A
;
_chemical_formula_sum "Si O2"
_cell_formula_units_Z 88
_cell_length_a 12.055543
_cell_length_b 14.437163
_cell_length_c 21.810426
_cell_angle_alpha 90.000000
_cell_angle_beta 90.000000
_cell_angle_gamma 90.000000
_cell_volume 3796.057520
_symmetry_space_group_name_H-M "C M C A"
_symmetry_group_IT_number 64
_symmetry_cell_setting 'orthorhombic'
loop_
_space_group_symop_operation_xyz
x,y,z
-x,1/2-y,1/2+z
x,-y,-z
-x,1/2+y,1/2-z
-x,-y,-z
x,1/2+y,1/2-z
-x,y,z
x,1/2-y,1/2+z
1/2+x,1/2+y,z
1/2-x,-y,1/2+z
1/2+x,1/2-y,-z
1/2-x,y,1/2-z
1/2-x,1/2-y,-z
1/2+x,y,1/2-z
1/2-x,1/2+y,z
1/2+x,-y,1/2+z
loop_
_atom_site_type_symbol
_atom_site_label
_atom_site_fract_x
_atom_site_fract_y
_atom_site_fract_z
Si Si1 0.209613 0.282772 0.410093
Si Si2 0.832814 0.235939 0.703608
Si Si3 0.868758 0.136249 0.029901
Si Si4 0.500000 0.334842 0.634780
Si Si5 0.806028 0.500000 0.000000
Si Si6 0.500000 0.588522 0.729940
Si Si7 0.000000 0.382584 0.720008
Si Si8 0.500000 0.040990 0.914891
O O1 0.270739 0.317624 0.349973
O O2 0.149779 0.351180 0.456751
O O3 0.310781 0.227501 0.442747
O O4 0.111161 0.216727 0.386330
O O5 0.750000 0.281534 0.750000
O O6 0.898139 0.157323 0.740750
O O7 0.901867 0.327338 0.685159
O O8 0.000000 0.123592 0.042951
O O9 0.778557 0.056496 0.043577
O O10 0.500000 0.348730 0.708448
O O11 0.500000 0.431668 0.598988
O O12 0.891174 0.441037 0.042890
O O13 0.500000 0.493527 0.769005
O O14 0.500000 0.579321 0.654647
#
# Coordination Sequence:
#
# PCOD9480117 Si02
#       8
#    16  16  16   8   8   8   8   8
#     4  11  23  41  65  93 126 172 220 270 336 393
#     4  11  23  42  69  96 132 171 223 277 335 400
#     4  11  24  39  62  92 131 172 219 276 332 403
#     4  11  18  41  65  89 125 168 223 264 330 400
#     4  11  21  38  60  92 129 171 218 278 334 393
#     4  10  24  43  63  99 131 168 226 269 335 405
#     4  10  23  42  68  95 128 173 213 279 330 399
#     4  10  21  38  64  91 126 173 224 274 331 400
#
# _framework density 23.181946
#
# number of rings (size 3 to 8) (size 9 to 14) (size 15 to 20)
#    0.000    1.273    4.545    1.364    2.545    0.727 
#    1.636    0.000    0.000    0.000    0.000    0.000 
#    0.000    0.000    0.000    0.000    0.000    0.000 
#
# Total GULP energy -245044.999624 kJ/mol
# GULP energy per Si atom -5569.204537 kJ/mol
# Density = 2.312918 g / cm^3
# Si number density = 23.181946 Si / 1000 Ang^3
#
#
#
# Elastic Constant Matrix: (Units=GPa)
#
#
# Indices 1 2 3 4 5 6 
#
# 1 164.6920 24.9560 16.0008 0.0000 0.0000 0.0000
# 2 24.9560 81.8896 -8.2446 0.0000 0.0000 0.0000
# 3 16.0008 -8.2446 50.8562 0.0000 0.0000 0.0000
# 4 0.0000 0.0000 0.0000 30.6232 0.0000 0.0000
# 5 0.0000 0.0000 0.0000 0.0000 27.7759 0.0000
# 6 0.0000 0.0000 0.0000 0.0000 0.0000 14.0450
#
#
#
# Elastic Compliance Matrix: (Units=1/GPa)
#
#
# Indices 1 2 3 4 5 6 
#
# 1 0.006656 -0.002277 -0.002463 0.000000 0.000000 0.000000
# 2 -0.002277 0.013193 0.002855 0.000000 0.000000 0.000000
# 3 -0.002463 0.002855 0.020901 0.000000 0.000000 0.000000
# 4 0.000000 0.000000 0.000000 0.032655 0.000000 0.000000
# 5 0.000000 0.000000 0.000000 0.000000 0.036002 0.000000
# 6 0.000000 0.000000 0.000000 0.000000 0.000000 0.071200
#
#
# Mechanical properties :
#
#
# Convention : Reuss Voigt Hill
#
# Bulk Modulus (GPa) = 27.04120 40.31802 33.67961
# Shear Modulus (GPa) = 25.41892 32.13719 28.77805
#
# Velocity S-wave (km/s) = 3.31493 3.72735 3.52717
# Velocity P-wave (km/s) = 5.13242 5.99616 5.58103
#
# Compressibility (1/GPa) = 0.03698061
#
# Stress axis : x y z
#
# Youngs Moduli (GPa) = 150.23525 75.79905 47.84422
#
# Poissons Ratio (x) = 0.17256 0.11785
# Poissons Ratio (y) = 0.34201 -0.13660
# Poissons Ratio (z) = 0.37007 -0.21641
#
# Static dielectric constant tensor:
#      x y z
#    x 1.922120 0.000000 0.000000 
#    y 0.000000 1.873870 0.000000 
#    z 0.000000 0.000000 1.917040 
# 
# From -- ./inp_files/44136.got.cif
#   From: 2010.05.17/outbox.cif.g08.bks.cpg/sg64_23_cif.got.tgz:44136.got - 2010.06.03 16:29:19.
