data_PCOD9480484
_publ_section_title
;
Structure prediction by ZEFSAII (Michael W. Deem and Ramdas Pophale) SiO2 
 PCOD9480484
Probable space group: C M C A
;
_chemical_formula_sum "Si O2"
_cell_formula_units_Z 112
_cell_length_a 13.858661
_cell_length_b 23.632344
_cell_length_c 14.526254
_cell_angle_alpha 90.000000
_cell_angle_beta 90.000000
_cell_angle_gamma 90.000000
_cell_volume 4757.531857
_symmetry_space_group_name_H-M "C M C A"
_symmetry_group_IT_number 64
_symmetry_cell_setting 'orthorhombic'
loop_
_space_group_symop_operation_xyz
x,y,z
-x,1/2-y,1/2+z
x,-y,-z
-x,1/2+y,1/2-z
-x,-y,-z
x,1/2+y,1/2-z
-x,y,z
x,1/2-y,1/2+z
1/2+x,1/2+y,z
1/2-x,-y,1/2+z
1/2+x,1/2-y,-z
1/2-x,y,1/2-z
1/2-x,1/2-y,-z
1/2+x,y,1/2-z
1/2-x,1/2+y,z
1/2+x,-y,1/2+z
loop_
_atom_site_type_symbol
_atom_site_label
_atom_site_fract_x
_atom_site_fract_y
_atom_site_fract_z
Si Si1 0.387107 0.921883 0.171096
Si Si2 0.639445 0.371010 0.776636
Si Si3 0.887532 0.689954 0.956815
Si Si4 0.231919 0.627184 0.462486
Si Si5 0.889587 0.955663 0.617836
Si Si6 0.883248 0.143901 0.850917
Si Si7 0.892023 0.256218 0.224769
O O1 0.500000 0.934589 0.181194
O O2 0.381429 0.868570 0.102511
O O3 0.357018 0.901210 0.271763
O O4 0.349786 0.981400 0.134656
O O5 0.750000 0.367811 0.750000
O O6 0.647334 0.376391 0.886140
O O7 0.601928 0.422145 0.715062
O O8 0.601908 0.309141 0.751538
O O9 0.857445 0.736215 0.880450
O O10 0.000000 0.697881 0.987644
O O11 0.807519 0.680444 0.035012
O O12 0.308173 0.577145 0.439923
O O13 0.176119 0.629929 0.558601
O O14 0.000000 0.954461 0.577784
O O15 0.851286 0.203873 0.804651
O O16 0.000000 0.144089 0.867520
O O17 0.000000 0.280397 0.215388
#
# Coordination Sequence:
#
# PCOD9480484 Si02
#       7
#    16  16  16  16  16  16  16
#     4   8  17  38  65  87 118 165 206 248 301 364
#     4  10  23  39  55  81 125 165 203 242 305 374
#     4   9  19  37  61  93 123 152 202 258 308 357
#     4  11  23  38  58  99 122 155 197 259 313 353
#     4  10  21  42  64  85 123 170 207 240 303 380
#     4   9  20  40  64  94 122 156 210 258 305 357
#     4   9  19  38  63  85 115 166 210 244 301 372
#
# _framework density 23.541618
#
# number of rings (size 3 to 8) (size 9 to 14) (size 15 to 20)
#    0.000    2.571    0.000    2.571    2.000    4.000 
#   12.857    2.143    0.000    2.571    0.000    0.000 
#    0.000    0.000    0.000    0.000    0.000    0.000 
#
# Total GULP energy -312373.592617 kJ/mol
# GULP energy per Si atom -5578.099868 kJ/mol
# Density = 2.348804 g / cm^3
# Si number density = 23.541618 Si / 1000 Ang^3
#
#
#
# Elastic Constant Matrix: (Units=GPa)
#
#
# Indices 1 2 3 4 5 6 
#
# 1 121.5248 12.7683 25.7026 0.0000 0.0000 0.0000
# 2 12.7683 94.0993 26.4768 0.0000 0.0000 0.0000
# 3 25.7026 26.4768 100.4242 0.0000 0.0000 0.0000
# 4 0.0000 0.0000 0.0000 20.1572 0.0000 0.0000
# 5 0.0000 0.0000 0.0000 0.0000 40.4681 0.0000
# 6 0.0000 0.0000 0.0000 0.0000 0.0000 41.2745
#
#
#
# Elastic Compliance Matrix: (Units=1/GPa)
#
#
# Indices 1 2 3 4 5 6 
#
# 1 0.008731 -0.000600 -0.002076 0.000000 0.000000 0.000000
# 2 -0.000600 0.011520 -0.002884 0.000000 0.000000 0.000000
# 3 -0.002076 -0.002884 0.011249 0.000000 0.000000 0.000000
# 4 0.000000 0.000000 0.000000 0.049610 0.000000 0.000000
# 5 0.000000 0.000000 0.000000 0.000000 0.024711 0.000000
# 6 0.000000 0.000000 0.000000 0.000000 0.000000 0.024228
#
#
# Mechanical properties :
#
#
# Convention : Reuss Voigt Hill
#
# Bulk Modulus (GPa) = 49.06850 49.54929 49.30889
# Shear Modulus (GPa) = 33.79220 37.12000 35.45610
#
# Velocity S-wave (km/s) = 3.79281 3.97518 3.88506
# Velocity P-wave (km/s) = 6.33001 6.49328 6.41216
#
# Compressibility (1/GPa) = 0.02037968
#
# Stress axis : x y z
#
# Youngs Moduli (GPa) = 114.53436 86.80634 88.89357
#
# Poissons Ratio (x) = 0.05213 0.18457
# Poissons Ratio (y) = 0.06878 0.25633
# Poissons Ratio (z) = 0.23781 0.25031
#
# Static dielectric constant tensor:
#      x y z
#    x 1.995300 0.000000 0.000000 
#    y 0.000000 1.899800 0.000000 
#    z 0.000000 0.000000 2.034020 
# 
# From -- ./inp_files/24196.got.cif
#   From: 2010.05.17/outbox.cif.g08.bks.cpg/sg64_13_cif.got.tgz:24196.got - 2010.06.03 16:29:19.
