data_PCOD9480507
_publ_section_title
;
Structure prediction by ZEFSAII (Michael W. Deem and Ramdas Pophale) SiO2 
 PCOD9480507
Probable space group: C M C A
;
_chemical_formula_sum "Si O2"
_cell_formula_units_Z 96
_cell_length_a 19.039923
_cell_length_b 24.990385
_cell_length_c 8.949295
_cell_angle_alpha 90.000000
_cell_angle_beta 90.000000
_cell_angle_gamma 90.000000
_cell_volume 4258.208855
_symmetry_space_group_name_H-M "C M C A"
_symmetry_group_IT_number 64
_symmetry_cell_setting 'orthorhombic'
loop_
_space_group_symop_operation_xyz
x,y,z
-x,1/2-y,1/2+z
x,-y,-z
-x,1/2+y,1/2-z
-x,-y,-z
x,1/2+y,1/2-z
-x,y,z
x,1/2-y,1/2+z
1/2+x,1/2+y,z
1/2-x,-y,1/2+z
1/2+x,1/2-y,-z
1/2-x,y,1/2-z
1/2-x,1/2-y,-z
1/2+x,y,1/2-z
1/2-x,1/2+y,z
1/2+x,-y,1/2+z
loop_
_atom_site_type_symbol
_atom_site_label
_atom_site_fract_x
_atom_site_fract_y
_atom_site_fract_z
Si Si1 0.204299 0.288541 0.898234
Si Si2 0.790199 0.390855 0.100018
Si Si3 0.082668 0.751852 0.419783
Si Si4 0.079690 0.864079 0.255852
Si Si5 0.697136 0.458293 0.890032
Si Si6 0.582632 0.369434 0.897770
O O1 0.250000 0.289694 0.750000
O O2 0.250000 0.250000 0.000000
O O3 0.205464 0.346135 0.974092
O O4 0.127154 0.265046 0.932585
O O5 0.750000 0.371369 0.250000
O O6 0.867254 0.402963 0.159947
O O7 0.748840 0.437090 0.019998
O O8 0.094782 0.803622 0.314390
O O9 0.100764 0.692468 0.358360
O O10 0.000000 0.749280 0.455018
O O11 0.087863 0.868825 0.078540
O O12 0.000000 0.875701 0.295368
O O13 0.750000 0.471471 0.750000
O O14 0.655709 0.500000 0.000000
O O15 0.640347 0.412381 0.842786
O O16 0.500000 0.379596 0.857900
#
# Coordination Sequence:
#
# PCOD9480507 Si02
#       6
#    16  16  16  16  16  16
#     4  11  23  34  55  89 132 177 223 271 325 391
#     4  11  21  40  65  91 129 168 219 277 342 403
#     4   9  20  37  60  96 138 180 225 269 327 402
#     4   9  19  37  65  98 135 181 224 269 328 402
#     4  12  27  47  73 100 131 172 232 289 353 410
#     4  10  21  42  70 100 137 180 229 277 336 404
#
# _framework density 22.544689000000002
#
# number of rings (size 3 to 8) (size 9 to 14) (size 15 to 20)
#    0.000    1.667    1.667    2.500    4.667    0.333 
#    3.000    4.167    0.000    2.000    0.000    0.000 
#    0.000    0.000    0.000    0.000    0.000    0.000 
#
# Total GULP energy -267848.136525 kJ/mol
# GULP energy per Si atom -5580.169511 kJ/mol
# Density = 2.249338 g / cm^3
# Si number density = 22.544689 Si / 1000 Ang^3
#
#
#
# Elastic Constant Matrix: (Units=GPa)
#
#
# Indices 1 2 3 4 5 6 
#
# 1 67.9399 19.5304 37.9112 0.0000 0.0000 0.0000
# 2 19.5304 38.4848 12.2206 0.0000 0.0000 0.0000
# 3 37.9112 12.2206 79.9016 0.0000 0.0000 0.0000
# 4 0.0000 0.0000 0.0000 33.5666 0.0000 0.0000
# 5 0.0000 0.0000 0.0000 0.0000 23.9368 0.0000
# 6 0.0000 0.0000 0.0000 0.0000 0.0000 26.2781
#
#
#
# Elastic Compliance Matrix: (Units=1/GPa)
#
#
# Indices 1 2 3 4 5 6 
#
# 1 0.022320 -0.008371 -0.009310 0.000000 0.000000 0.000000
# 2 -0.008371 0.030450 -0.000685 0.000000 0.000000 0.000000
# 3 -0.009310 -0.000685 0.017038 0.000000 0.000000 0.000000
# 4 0.000000 0.000000 0.000000 0.029792 0.000000 0.000000
# 5 0.000000 0.000000 0.000000 0.000000 0.041777 0.000000
# 6 0.000000 0.000000 0.000000 0.000000 0.000000 0.038055
#
#
# Mechanical properties :
#
#
# Convention : Reuss Voigt Hill
#
# Bulk Modulus (GPa) = 30.23415 36.18340 33.20877
# Shear Modulus (GPa) = 22.00811 24.53388 23.27100
#
# Velocity S-wave (km/s) = 3.12781 3.30242 3.21630
# Velocity P-wave (km/s) = 5.14627 5.53405 5.34368
#
# Compressibility (1/GPa) = 0.03307518
#
# Stress axis : x y z
#
# Youngs Moduli (GPa) = 44.80206 32.84065 58.69353
#
# Poissons Ratio (x) = 0.27491 0.54645
# Poissons Ratio (y) = 0.37503 0.04023
# Poissons Ratio (z) = 0.41711 0.02251
#
# Static dielectric constant tensor:
#      x y z
#    x 1.804420 0.000000 0.000000 
#    y 0.000000 1.774080 0.000000 
#    z 0.000000 0.000000 1.848630 
# 
# From -- ./inp_files/8402.got.cif
#   From: 2010.05.17/outbox.cif.g08.bks.cpg/sg64_5_cif.got.tgz:8402.got - 2010.06.03 16:29:19.
