data_PCOD9480794
_publ_section_title
;
Structure prediction by ZEFSAII (Michael W. Deem and Ramdas Pophale) SiO2 
 PCOD9480794
Probable space group: C M C A
;
_chemical_formula_sum "Si O2"
_cell_formula_units_Z 104
_cell_length_a 24.427916
_cell_length_b 11.519981
_cell_length_c 16.955622
_cell_angle_alpha 90.000000
_cell_angle_beta 90.000000
_cell_angle_gamma 90.000000
_cell_volume 4771.466805
_symmetry_space_group_name_H-M "C M C A"
_symmetry_group_IT_number 64
_symmetry_cell_setting 'orthorhombic'
loop_
_space_group_symop_operation_xyz
x,y,z
-x,1/2-y,1/2+z
x,-y,-z
-x,1/2+y,1/2-z
-x,-y,-z
x,1/2+y,1/2-z
-x,y,z
x,1/2-y,1/2+z
1/2+x,1/2+y,z
1/2-x,-y,1/2+z
1/2+x,1/2-y,-z
1/2-x,y,1/2-z
1/2-x,1/2-y,-z
1/2+x,y,1/2-z
1/2-x,1/2+y,z
1/2+x,-y,1/2+z
loop_
_atom_site_type_symbol
_atom_site_label
_atom_site_fract_x
_atom_site_fract_y
_atom_site_fract_z
Si Si1 0.589815 0.076479 0.922874
Si Si2 0.000000 0.061763 0.716569
Si Si3 0.691171 0.755896 0.738267
Si Si4 0.806182 0.570584 0.117361
Si Si5 0.868480 0.232391 0.975352
Si Si6 0.603450 0.105057 0.673997
Si Si7 0.183637 0.919794 0.903001
O O1 0.547360 0.062940 0.853052
O O2 0.648466 0.027706 0.893498
O O3 0.596174 0.205621 0.957213
O O4 0.574726 0.000000 0.000000
O O5 0.048339 0.066799 0.784503
O O6 0.750000 0.695182 0.750000
O O7 0.692118 0.868053 0.796983
O O8 0.641475 0.676929 0.765530
O O9 0.687746 0.803582 0.650629
O O10 0.825468 0.673189 0.057963
O O11 0.744973 0.530295 0.098699
O O12 0.904162 0.190429 0.901162
O O13 0.836399 0.124885 0.012626
O O14 0.639524 0.000040 0.640079
#
# Coordination Sequence:
#
# PCOD9480794 Si02
#       7
#    16   8  16  16  16  16  16
#     4  10  22  42  68  95 121 157 209 265 312 362
#     4  12  25  44  65  84 118 170 218 262 308 358
#     4   9  20  38  61  91 124 159 203 253 312 381
#     4   9  20  38  65  98 128 157 196 254 318 380
#     4  10  22  40  61  94 127 159 205 249 308 380
#     4  11  25  41  59  89 127 165 209 257 306 367
#     4  11  21  38  65  95 130 165 196 249 319 384
#
# _framework density 21.796232
#
# number of rings (size 3 to 8) (size 9 to 14) (size 15 to 20)
#    0.000    1.846    0.000    3.000    0.000   11.077 
#    0.000   18.462    0.000    0.000    0.000    0.000 
#    0.000    0.000    0.000    0.000    0.000    0.000 
#
# Total GULP energy -289797.748235 kJ/mol
# GULP energy per Si atom -5573.033620 kJ/mol
# Density = 2.174662 g / cm^3
# Si number density = 21.796232 Si / 1000 Ang^3
#
#
#
# Elastic Constant Matrix: (Units=GPa)
#
#
# Indices 1 2 3 4 5 6 
#
# 1 174.0551 40.3768 76.9607 0.0000 0.0000 0.0000
# 2 40.3768 55.1958 15.1754 0.0000 0.0000 0.0000
# 3 76.9607 15.1754 117.6699 0.0000 0.0000 0.0000
# 4 0.0000 0.0000 0.0000 26.1467 0.0000 0.0000
# 5 0.0000 0.0000 0.0000 0.0000 39.4849 0.0000
# 6 0.0000 0.0000 0.0000 0.0000 0.0000 -5.8436
#
#
#
# Elastic Compliance Matrix: (Units=1/GPa)
#
#
# Indices 1 2 3 4 5 6 
#
# 1 0.009407 -0.005381 -0.005459 0.000000 0.000000 0.000000
# 2 -0.005381 0.021861 0.000700 0.000000 0.000000 0.000000
# 3 -0.005459 0.000700 0.011978 0.000000 0.000000 0.000000
# 4 0.000000 0.000000 0.000000 0.038246 0.000000 0.000000
# 5 0.000000 0.000000 0.000000 0.000000 0.025326 0.000000
# 6 0.000000 0.000000 0.000000 0.000000 0.000000 -0.171128
#
#
# Mechanical properties :
#
#
# Convention : Reuss Voigt Hill
#
# Bulk Modulus (GPa) = 43.54011 67.99407 55.76709
# Shear Modulus (GPa) = -137.45626 26.25146 -55.60240
#
# Velocity S-wave (km/s) = -7.94991 3.47422 -5.05623
# Velocity P-wave (km/s) = 8.01554 6.88162 2.90622
#
# Compressibility (1/GPa) = 0.02296733
#
# Stress axis : x y z
#
# Youngs Moduli (GPa) = 106.30221 45.74362 83.48427
#
# Poissons Ratio (x) = 0.24613 0.45572
# Poissons Ratio (y) = 0.57198 -0.05843
# Poissons Ratio (z) = 0.58027 -0.03201
#
# Static dielectric constant tensor:
#      x y z
#    x 1.746640 0.000000 0.000000 
#    y 0.000000 1.843950 0.000000 
#    z 0.000000 0.000000 1.827620 
# 
# From -- ./inp_files/35482.got.cif
#   From: 2010.05.17/outbox.cif.g08.bks.cpg/sg64_18_cif.got.tgz:35482.got - 2010.06.03 16:29:19.
