data_PCOD9480806
_publ_section_title
;
Structure prediction by ZEFSAII (Michael W. Deem and Ramdas Pophale) SiO2 
 PCOD9480806
Probable space group: C M C A
;
_chemical_formula_sum "Si O2"
_cell_formula_units_Z 96
_cell_length_a 15.619551
_cell_length_b 22.808145
_cell_length_c 12.352806
_cell_angle_alpha 90.000000
_cell_angle_beta 90.000000
_cell_angle_gamma 90.000000
_cell_volume 4400.723999
_symmetry_space_group_name_H-M "C M C A"
_symmetry_group_IT_number 64
_symmetry_cell_setting 'orthorhombic'
loop_
_space_group_symop_operation_xyz
x,y,z
-x,1/2-y,1/2+z
x,-y,-z
-x,1/2+y,1/2-z
-x,-y,-z
x,1/2+y,1/2-z
-x,y,z
x,1/2-y,1/2+z
1/2+x,1/2+y,z
1/2-x,-y,1/2+z
1/2+x,1/2-y,-z
1/2-x,y,1/2-z
1/2-x,1/2-y,-z
1/2+x,y,1/2-z
1/2-x,1/2+y,z
1/2+x,-y,1/2+z
loop_
_atom_site_type_symbol
_atom_site_label
_atom_site_fract_x
_atom_site_fract_y
_atom_site_fract_z
Si Si1 0.849649 0.587492 0.237921
Si Si2 0.398540 0.540479 0.671490
Si Si3 0.159980 0.355860 0.552745
Si Si4 0.899397 0.648251 0.687842
Si Si5 0.139857 0.372598 0.984783
Si Si6 0.399524 0.235810 0.860388
O O1 0.750000 0.604667 0.250000
O O2 0.854793 0.520827 0.197860
O O3 0.881619 0.600346 0.358866
O O4 0.890653 0.623956 0.139449
O O5 0.500000 0.530950 0.687404
O O6 0.364644 0.589934 0.754753
O O7 0.386516 0.570200 0.554033
O O8 0.112389 0.352846 0.438925
O O9 0.257247 0.371856 0.522543
O O10 0.154426 0.291849 0.606153
O O11 0.866882 0.705989 0.749344
O O12 0.000000 0.648049 0.714504
O O13 0.108559 0.315820 0.050083
O O14 0.500000 0.252689 0.852463
#
# Coordination Sequence:
#
# PCOD9480806 Si02
#       6
#    16  16  16  16  16  16
#     4  10  24  40  60  91 129 158 210 262 314 377
#     4  10  22  41  65  91 123 166 213 263 315 375
#     4  11  23  39  61  94 126 168 207 260 321 376
#     4   9  21  40  60  90 124 163 211 254 317 384
#     4  10  22  41  62  92 120 164 214 261 313 377
#     4  10  22  40  62  88 124 164 208 262 314 380
#
# _framework density 21.814592000000001
#
# number of rings (size 3 to 8) (size 9 to 14) (size 15 to 20)
#    0.000    2.000    0.000    3.000    4.667    6.000 
#    3.000    1.667    0.000    0.000    0.000    0.000 
#    0.000    0.000    0.000    0.000    0.000    0.000 
#
# Total GULP energy -268083.835794 kJ/mol
# GULP energy per Si atom -5585.079912 kJ/mol
# Density = 2.176494 g / cm^3
# Si number density = 21.814592 Si / 1000 Ang^3
#
#
#
# Elastic Constant Matrix: (Units=GPa)
#
#
# Indices 1 2 3 4 5 6 
#
# 1 25.3998 0.5309 -2.4759 0.0000 0.0000 0.0000
# 2 0.5309 49.3736 20.3908 0.0000 0.0000 0.0000
# 3 -2.4759 20.3908 136.1536 0.0000 0.0000 0.0000
# 4 0.0000 0.0000 0.0000 20.4550 0.0000 0.0000
# 5 0.0000 0.0000 0.0000 0.0000 23.9963 0.0000
# 6 0.0000 0.0000 0.0000 0.0000 0.0000 644.2924
#
#
#
# Elastic Compliance Matrix: (Units=1/GPa)
#
#
# Indices 1 2 3 4 5 6 
#
# 1 0.039468 -0.000768 0.000833 0.000000 0.000000 0.000000
# 2 -0.000768 0.021604 -0.003249 0.000000 0.000000 0.000000
# 3 0.000833 -0.003249 0.007846 0.000000 0.000000 0.000000
# 4 0.000000 0.000000 0.000000 0.048888 0.000000 0.000000
# 5 0.000000 0.000000 0.000000 0.000000 0.041673 0.000000
# 6 0.000000 0.000000 0.000000 0.000000 0.000000 0.001552
#
#
# Mechanical properties :
#
#
# Convention : Reuss Voigt Hill
#
# Bulk Modulus (GPa) = 15.98772 27.53539 21.76155
# Shear Modulus (GPa) = 26.56037 150.58080 88.57059
#
# Velocity S-wave (km/s) = 3.49313 8.31730 6.37885
# Velocity P-wave (km/s) = 4.85943 10.24141 8.01562
#
# Compressibility (1/GPa) = 0.06254802
#
# Stress axis : x y z
#
# Youngs Moduli (GPa) = 25.33727 46.28775 127.44636
#
# Poissons Ratio (x) = 0.03556 -0.10613
# Poissons Ratio (y) = 0.01947 0.41413
# Poissons Ratio (z) = -0.02110 0.15041
#
# Static dielectric constant tensor:
#      x y z
#    x 1.776390 0.000000 0.000000 
#    y 0.000000 1.781390 0.000000 
#    z 0.000000 0.000000 1.825910 
# 
# From -- ./inp_files/16222.got.cif
#   From: 2010.05.17/outbox.cif.g08.bks.cpg/sg64_9_cif.got.tgz:16222.got - 2010.06.03 16:29:19.
