data_PCOD9480680
_publ_section_title
;
Structure prediction by ZEFSAII (Michael W. Deem and Ramdas Pophale) SiO2 
 PCOD9480680
Probable space group: C M C A
;
_chemical_formula_sum "Si O2"
_cell_formula_units_Z 112
_cell_length_a 30.112557
_cell_length_b 11.029434
_cell_length_c 14.729753
_cell_angle_alpha 90.000000
_cell_angle_beta 90.000000
_cell_angle_gamma 90.000000
_cell_volume 4892.111261
_symmetry_space_group_name_H-M "C M C A"
_symmetry_group_IT_number 64
_symmetry_cell_setting 'orthorhombic'
loop_
_space_group_symop_operation_xyz
x,y,z
-x,1/2-y,1/2+z
x,-y,-z
-x,1/2+y,1/2-z
-x,-y,-z
x,1/2+y,1/2-z
-x,y,z
x,1/2-y,1/2+z
1/2+x,1/2+y,z
1/2-x,-y,1/2+z
1/2+x,1/2-y,-z
1/2-x,y,1/2-z
1/2-x,1/2-y,-z
1/2+x,y,1/2-z
1/2-x,1/2+y,z
1/2+x,-y,1/2+z
loop_
_atom_site_type_symbol
_atom_site_label
_atom_site_fract_x
_atom_site_fract_y
_atom_site_fract_z
Si Si1 0.894945 0.136871 0.518062
Si Si2 0.354764 0.984304 0.670945
Si Si3 0.862767 0.173983 0.324634
Si Si4 0.785205 0.312749 0.382869
Si Si5 0.809112 0.749363 0.914750
Si Si6 0.952418 0.491229 0.676140
Si Si7 0.568710 0.783570 0.202091
O O1 0.889893 0.191755 0.417574
O O2 0.845064 0.148810 0.557909
O O3 0.925323 0.196774 0.594656
O O4 0.908458 0.000000 0.500000
O O5 0.365985 0.955911 0.776377
O O6 0.334123 0.858745 0.634384
O O7 0.316261 0.079820 0.653046
O O8 0.403904 0.004348 0.628004
O O9 0.811315 0.196420 0.344959
O O10 0.884491 0.269096 0.255188
O O11 0.791322 0.308982 0.491611
O O12 0.733162 0.306229 0.363269
O O13 0.951179 0.352132 0.714223
O O14 0.952509 0.598996 0.751109
O O15 0.000000 0.502952 0.626288
#
# Coordination Sequence:
#
# PCOD9480680 Si02
#       7
#    16  16  16  16  16  16  16
#     4  11  22  39  67  96 143 190 237 294 361 441
#     4  11  21  42  66  95 140 185 237 297 371 429
#     4  10  22  38  64  99 132 187 238 286 359 439
#     4  10  22  39  65  92 133 181 235 299 359 433
#     4  10  22  40  63  99 131 181 243 295 367 432
#     4  11  23  42  77 109 142 192 249 303 375 449
#     4  11  22  46  71 107 143 191 241 306 379 440
#
# _framework density 22.894002
#
# number of rings (size 3 to 8) (size 9 to 14) (size 15 to 20)
#    0.000    1.429    4.286    2.571    0.000    4.000 
#    0.000    3.571    0.000   26.571    0.000    0.000 
#    0.000    0.000    0.000    0.000    0.000    0.000 
#
# Total GULP energy -312155.758994 kJ/mol
# GULP energy per Si atom -5574.209982 kJ/mol
# Density = 2.284189 g / cm^3
# Si number density = 22.894002 Si / 1000 Ang^3
#
#
#
# Elastic Constant Matrix: (Units=GPa)
#
#
# Indices 1 2 3 4 5 6 
#
# 1 131.8957 32.3648 21.1840 0.0000 0.0000 0.0000
# 2 32.3648 113.5295 27.3129 0.0000 0.0000 0.0000
# 3 21.1840 27.3129 89.5383 0.0000 0.0000 0.0000
# 4 0.0000 0.0000 0.0000 29.0605 0.0000 0.0000
# 5 0.0000 0.0000 0.0000 0.0000 0.1196 0.0000
# 6 0.0000 0.0000 0.0000 0.0000 0.0000 -33.9196
#
#
#
# Elastic Compliance Matrix: (Units=1/GPa)
#
#
# Indices 1 2 3 4 5 6 
#
# 1 0.008298 -0.002043 -0.001340 0.000000 0.000000 0.000000
# 2 -0.002043 0.010009 -0.002570 0.000000 0.000000 0.000000
# 3 -0.001340 -0.002570 0.012269 0.000000 0.000000 0.000000
# 4 0.000000 0.000000 0.000000 0.034411 0.000000 0.000000
# 5 0.000000 0.000000 0.000000 0.000000 8.364135 0.000000
# 6 0.000000 0.000000 0.000000 0.000000 0.000000 -0.029482
#
#
# Mechanical properties :
#
#
# Convention : Reuss Voigt Hill
#
# Bulk Modulus (GPa) = 53.56024 55.18742 54.37383
# Shear Modulus (GPa) = 0.59398 15.99223 8.29311
#
# Velocity S-wave (km/s) = 0.50991 2.64585 1.90532
# Velocity P-wave (km/s) = 4.87774 5.78722 5.35184
#
# Compressibility (1/GPa) = 0.01867057
#
# Stress axis : x y z
#
# Youngs Moduli (GPa) = 120.50575 99.91001 81.50410
#
# Poissons Ratio (x) = 0.20415 0.10922
# Poissons Ratio (y) = 0.24623 0.20944
# Poissons Ratio (z) = 0.16148 0.25674
#
# Static dielectric constant tensor:
#      x y z
#    x 1.915710 0.000000 0.000000 
#    y 0.000000 1.915350 0.000000 
#    z 0.000000 0.000000 1.927670 
# 
# From -- ./inp_files/28384.got.cif
#   From: 2010.05.17/outbox.cif.g08.bks.cpg/sg64_15_cif.got.tgz:28384.got - 2010.06.03 16:29:19.
