data_PCOD9480304
_publ_section_title
;
Structure prediction by ZEFSAII (Michael W. Deem and Ramdas Pophale) SiO2 
 PCOD9480304
Probable space group: C M C A
;
_chemical_formula_sum "Si O2"
_cell_formula_units_Z 96
_cell_length_a 8.354677
_cell_length_b 24.827925
_cell_length_c 22.183079
_cell_angle_alpha 90.000000
_cell_angle_beta 90.000000
_cell_angle_gamma 90.000000
_cell_volume 4601.420415
_symmetry_space_group_name_H-M "C M C A"
_symmetry_group_IT_number 64
_symmetry_cell_setting 'orthorhombic'
loop_
_space_group_symop_operation_xyz
x,y,z
-x,1/2-y,1/2+z
x,-y,-z
-x,1/2+y,1/2-z
-x,-y,-z
x,1/2+y,1/2-z
-x,y,z
x,1/2-y,1/2+z
1/2+x,1/2+y,z
1/2-x,-y,1/2+z
1/2+x,1/2-y,-z
1/2-x,y,1/2-z
1/2-x,1/2-y,-z
1/2+x,y,1/2-z
1/2-x,1/2+y,z
1/2+x,-y,1/2+z
loop_
_atom_site_type_symbol
_atom_site_label
_atom_site_fract_x
_atom_site_fract_y
_atom_site_fract_z
Si Si1 0.692697 0.452067 0.312760
Si Si2 0.314306 0.929032 0.839260
Si Si3 0.308996 0.745904 0.569195
Si Si4 0.692188 0.877615 0.076709
Si Si5 0.688725 0.687918 0.184769
Si Si6 0.313835 0.942660 0.531653
O O1 0.500000 0.454077 0.314305
O O2 0.750000 0.428068 0.250000
O O3 0.752545 0.513620 0.316988
O O4 0.744952 0.416680 0.369367
O O5 0.500000 0.923955 0.821629
O O6 0.224414 0.875723 0.818809
O O7 0.297139 0.933724 0.911186
O O8 0.500000 0.754337 0.565946
O O9 0.250000 0.750000 0.500000
O O10 0.277409 0.684656 0.589722
O O11 0.245491 0.784920 0.622699
O O12 0.500000 0.884312 0.068217
O O13 0.780576 0.896505 0.016723
O O14 0.500000 0.696988 0.184353
O O15 0.750000 0.707956 0.250000
O O16 0.500000 0.942154 0.550535
O O17 0.280264 0.000000 0.500000
#
# Coordination Sequence:
#
# PCOD9480304 Si02
#       6
#    16  16  16  16  16  16
#     4  10  22  37  56  82 114 150 192 236 288 349
#     4  11  22  38  61  88 119 161 202 246 301 363
#     4  10  23  42  65  90 121 158 205 259 310 366
#     4  10  21  40  61  84 115 155 197 241 295 361
#     4  11  24  42  63  92 126 164 212 263 314 374
#     4  11  22  35  56  89 124 156 192 243 300 360
#
# _framework density 20.863123999999999
#
# number of rings (size 3 to 8) (size 9 to 14) (size 15 to 20)
#    0.000    1.500    1.667    3.000    0.000    9.333 
#    0.000    0.000    0.000    0.000    0.000    0.000 
#    0.000    0.000    0.000    0.000    0.000    0.000 
#
# Total GULP energy -268173.958842 kJ/mol
# GULP energy per Si atom -5586.957476 kJ/mol
# Density = 2.081564 g / cm^3
# Si number density = 20.863124 Si / 1000 Ang^3
#
#
#
# Elastic Constant Matrix: (Units=GPa)
#
#
# Indices 1 2 3 4 5 6 
#
# 1 18.3877 18.1527 14.3941 0.0000 0.0000 0.0000
# 2 18.1527 76.1860 40.4882 0.0000 0.0000 0.0000
# 3 14.3941 40.4882 136.3227 0.0000 0.0000 0.0000
# 4 0.0000 0.0000 0.0000 3.9000 0.0000 0.0000
# 5 0.0000 0.0000 0.0000 0.0000 34.4242 0.0000
# 6 0.0000 0.0000 0.0000 0.0000 0.0000 40.3641
#
#
#
# Elastic Compliance Matrix: (Units=1/GPa)
#
#
# Indices 1 2 3 4 5 6 
#
# 1 0.072118 -0.015599 -0.002982 0.000000 0.000000 0.000000
# 2 -0.015599 0.018960 -0.003984 0.000000 0.000000 0.000000
# 3 -0.002982 -0.003984 0.008834 0.000000 0.000000 0.000000
# 4 0.000000 0.000000 0.000000 0.256409 0.000000 0.000000
# 5 0.000000 0.000000 0.000000 0.000000 0.029049 0.000000
# 6 0.000000 0.000000 0.000000 0.000000 0.000000 0.024774
#
#
# Mechanical properties :
#
#
# Convention : Reuss Voigt Hill
#
# Bulk Modulus (GPa) = 18.25426 41.88515 30.06970
# Shear Modulus (GPa) = 10.55891 26.26176 18.41034
#
# Velocity S-wave (km/s) = 2.25212 3.55176 2.97380
# Velocity P-wave (km/s) = 3.94097 6.07780 5.12206
#
# Compressibility (1/GPa) = 0.05478173
#
# Stress axis : x y z
#
# Youngs Moduli (GPa) = 13.86624 52.74341 113.20329
#
# Poissons Ratio (x) = 0.82272 0.33757
# Poissons Ratio (y) = 0.21629 0.45101
# Poissons Ratio (z) = 0.04135 0.21013
#
# Static dielectric constant tensor:
#      x y z
#    x 1.724080 0.000000 0.000000 
#    y 0.000000 1.744810 0.000000 
#    z 0.000000 0.000000 1.766010 
# 
# From -- ./inp_files/37010.got.cif
#   From: 2010.05.17/outbox.cif.g08.bks.cpg/sg64_19_cif.got.tgz:37010.got - 2010.06.03 16:29:19.
