data_PCOD9480150
_publ_section_title
;
Structure prediction by ZEFSAII (Michael W. Deem and Ramdas Pophale) SiO2 
 PCOD9480150
Probable space group: C M C A
;
_chemical_formula_sum "Si O2"
_cell_formula_units_Z 96
_cell_length_a 8.853961
_cell_length_b 20.886543
_cell_length_c 28.931304
_cell_angle_alpha 90.000000
_cell_angle_beta 90.000000
_cell_angle_gamma 90.000000
_cell_volume 5350.226620
_symmetry_space_group_name_H-M "C M C A"
_symmetry_group_IT_number 64
_symmetry_cell_setting 'orthorhombic'
loop_
_space_group_symop_operation_xyz
x,y,z
-x,1/2-y,1/2+z
x,-y,-z
-x,1/2+y,1/2-z
-x,-y,-z
x,1/2+y,1/2-z
-x,y,z
x,1/2-y,1/2+z
1/2+x,1/2+y,z
1/2-x,-y,1/2+z
1/2+x,1/2-y,-z
1/2-x,y,1/2-z
1/2-x,1/2-y,-z
1/2+x,y,1/2-z
1/2-x,1/2+y,z
1/2+x,-y,1/2+z
loop_
_atom_site_type_symbol
_atom_site_label
_atom_site_fract_x
_atom_site_fract_y
_atom_site_fract_z
Si Si1 0.818413 0.573776 0.701203
Si Si2 0.318932 0.878382 0.397386
Si Si3 0.818743 0.924312 0.798650
Si Si4 0.822187 0.502020 0.055100
Si Si5 0.318980 0.243352 0.948946
Si Si6 0.682007 0.125308 0.397099
O O1 0.750000 0.594761 0.750000
O O2 0.772986 0.614422 0.656438
O O3 0.773972 0.498995 0.693725
O O4 0.000000 0.575175 0.704221
O O5 0.500000 0.872928 0.399550
O O6 0.244244 0.818975 0.423280
O O7 0.267734 0.943737 0.421991
O O8 0.750000 0.903123 0.750000
O O9 0.774020 0.883585 0.843434
O O10 0.000000 0.922871 0.795079
O O11 0.759987 0.568595 0.074617
O O12 0.000000 0.495491 0.065646
O O13 0.803261 0.500000 0.000000
O O14 0.500000 0.239062 0.952552
O O15 0.280389 0.306433 0.919114
O O16 0.250000 0.250000 0.000000
O O17 0.500000 0.116923 0.399831
#
# Coordination Sequence:
#
# PCOD9480150 Si02
#       6
#    16  16  16  16  16  16
#     4   9  18  33  56  84 114 147 186 232 283 341
#     4  11  22  39  60  84 116 154 193 237 288 344
#     4   9  17  33  55  83 113 144 185 229 281 341
#     4  11  23  36  55  85 115 143 188 244 288 337
#     4  11  24  41  61  84 115 157 197 239 290 347
#     4  10  21  39  59  81 113 152 190 231 286 344
#
# _framework density 17.943166000000002
#
# number of rings (size 3 to 8) (size 9 to 14) (size 15 to 20)
#    0.000    1.833    1.667    2.500    0.000    7.333 
#    0.000    0.833    0.000    4.000    0.000    0.000 
#    0.000    0.000    0.000    0.000    0.000    0.000 
#
# Total GULP energy -268070.204833 kJ/mol
# GULP energy per Si atom -5584.795934 kJ/mol
# Density = 1.790233 g / cm^3
# Si number density = 17.943166 Si / 1000 Ang^3
#
#
#
# Elastic Constant Matrix: (Units=GPa)
#
#
# Indices 1 2 3 4 5 6 
#
# 1 31.4834 32.2113 38.6083 0.0000 0.0000 0.0000
# 2 32.2113 76.6460 34.0884 0.0000 0.0000 0.0000
# 3 38.6083 34.0884 118.0621 0.0000 0.0000 0.0000
# 4 0.0000 0.0000 0.0000 30.2794 0.0000 0.0000
# 5 0.0000 0.0000 0.0000 0.0000 33.1122 0.0000
# 6 0.0000 0.0000 0.0000 0.0000 0.0000 27.2650
#
#
#
# Elastic Compliance Matrix: (Units=1/GPa)
#
#
# Indices 1 2 3 4 5 6 
#
# 1 0.081859 -0.025811 -0.019317 0.000000 0.000000 0.000000
# 2 -0.025811 0.023108 0.001769 0.000000 0.000000 0.000000
# 3 -0.019317 0.001769 0.014276 0.000000 0.000000 0.000000
# 4 0.000000 0.000000 0.000000 0.033026 0.000000 0.000000
# 5 0.000000 0.000000 0.000000 0.000000 0.030200 0.000000
# 6 0.000000 0.000000 0.000000 0.000000 0.000000 0.036677
#
#
# Mechanical properties :
#
#
# Convention : Reuss Voigt Hill
#
# Bulk Modulus (GPa) = 30.74574 48.44528 39.59551
# Shear Modulus (GPa) = 15.78754 26.21688 21.00221
#
# Velocity S-wave (km/s) = 2.96947 3.82659 3.42495
# Velocity P-wave (km/s) = 5.37859 6.82507 6.14455
#
# Compressibility (1/GPa) = 0.03252484
#
# Stress axis : x y z
#
# Youngs Moduli (GPa) = 12.21617 43.27572 70.04579
#
# Poissons Ratio (x) = 1.11698 1.35306
# Poissons Ratio (y) = 0.31531 -0.12389
# Poissons Ratio (z) = 0.23598 -0.07654
#
# Static dielectric constant tensor:
#      x y z
#    x 1.603190 0.000000 0.000000 
#    y 0.000000 1.581930 0.000000 
#    z 0.000000 0.000000 1.608990 
# 
# From -- ./inp_files/44224.got.cif
#   From: 2010.05.17/outbox.cif.g08.bks.cpg/sg64_23_cif.got.tgz:44224.got - 2010.06.03 16:29:19.
