data_PCOD9480479
_publ_section_title
;
Structure prediction by ZEFSAII (Michael W. Deem and Ramdas Pophale) SiO2 
 PCOD9480479
Probable space group: C M C A
;
_chemical_formula_sum "Si O2"
_cell_formula_units_Z 56
_cell_length_a 21.135713
_cell_length_b 17.540863
_cell_length_c 7.712158
_cell_angle_alpha 90.000000
_cell_angle_beta 90.000000
_cell_angle_gamma 90.000000
_cell_volume 2859.195016
_symmetry_space_group_name_H-M "C M C A"
_symmetry_group_IT_number 64
_symmetry_cell_setting 'orthorhombic'
loop_
_space_group_symop_operation_xyz
x,y,z
-x,1/2-y,1/2+z
x,-y,-z
-x,1/2+y,1/2-z
-x,-y,-z
x,1/2+y,1/2-z
-x,y,z
x,1/2-y,1/2+z
1/2+x,1/2+y,z
1/2-x,-y,1/2+z
1/2+x,1/2-y,-z
1/2-x,y,1/2-z
1/2-x,1/2-y,-z
1/2+x,y,1/2-z
1/2-x,1/2+y,z
1/2+x,-y,1/2+z
loop_
_atom_site_type_symbol
_atom_site_label
_atom_site_fract_x
_atom_site_fract_y
_atom_site_fract_z
Si Si1 0.884967 0.000000 0.500000
Si Si2 0.069698 0.434722 0.644343
Si Si3 0.670591 0.676438 0.971685
Si Si4 0.684143 0.342891 0.440838
O O1 0.922756 0.979724 0.674372
O O2 0.842986 0.924428 0.486829
O O3 0.071723 0.500000 0.500000
O O4 0.124775 0.375796 0.587938
O O5 0.000000 0.397408 0.641849
O O6 0.674391 0.659369 0.766948
O O7 0.744633 0.664003 0.016963
O O8 0.652226 0.765085 0.992583
#
# Coordination Sequence:
#
# PCOD9480479 Si02
#       4
#     8  16  16  16
#     4  12  23  40  68  98 127 168 218 270 330 380
#     4  11  24  43  65  91 130 170 214 262 314 390
#     4  10  21  42  61  96 130 171 215 269 328 387
#     4  10  22  37  67  94 131 165 215 276 329 385
#
# _framework density 19.585930999999999
#
# number of rings (size 3 to 8) (size 9 to 14) (size 15 to 20)
#    0.000    1.429    2.857    2.143    2.000    3.429 
#    0.000    7.143    0.000    0.000    0.000    0.000 
#    0.000    0.000    0.000    0.000    0.000    0.000 
#
# Total GULP energy -155994.371604 kJ/mol
# GULP energy per Si atom -5571.227557 kJ/mol
# Density = 1.954135 g / cm^3
# Si number density = 19.585931 Si / 1000 Ang^3
#
#
#
# Elastic Constant Matrix: (Units=GPa)
#
#
# Indices 1 2 3 4 5 6 
#
# 1 101.0415 66.5437 41.0696 0.0000 0.0000 0.0000
# 2 66.5437 132.8429 44.6894 0.0000 0.0000 0.0000
# 3 41.0696 44.6894 111.8473 0.0000 0.0000 0.0000
# 4 0.0000 0.0000 0.0000 43.0366 0.0000 0.0000
# 5 0.0000 0.0000 0.0000 0.0000 14.8755 0.0000
# 6 0.0000 0.0000 0.0000 0.0000 0.0000 543.6821
#
#
#
# Elastic Compliance Matrix: (Units=1/GPa)
#
#
# Indices 1 2 3 4 5 6 
#
# 1 0.015600 -0.006802 -0.003011 0.000000 0.000000 0.000000
# 2 -0.006802 0.011662 -0.002162 0.000000 0.000000 0.000000
# 3 -0.003011 -0.002162 0.010910 0.000000 0.000000 0.000000
# 4 0.000000 0.000000 0.000000 0.023236 0.000000 0.000000
# 5 0.000000 0.000000 0.000000 0.000000 0.067225 0.000000
# 6 0.000000 0.000000 0.000000 0.000000 0.000000 0.001839
#
#
# Mechanical properties :
#
#
# Convention : Reuss Voigt Hill
#
# Bulk Modulus (GPa) = 70.30598 72.25968 71.28283
# Shear Modulus (GPa) = 31.41452 133.21411 82.31432
#
# Velocity S-wave (km/s) = 4.00926 8.25608 6.48988
# Velocity P-wave (km/s) = 7.57669 11.30741 9.62455
#
# Compressibility (1/GPa) = 0.01422354
#
# Stress axis : x y z
#
# Youngs Moduli (GPa) = 64.10266 85.74786 91.65775
#
# Poissons Ratio (x) = 0.58322 0.27595
# Poissons Ratio (y) = 0.43600 0.19818
# Poissons Ratio (z) = 0.19299 0.18540
#
# Static dielectric constant tensor:
#      x y z
#    x 1.710840 0.000000 0.000000 
#    y 0.000000 1.668300 0.000000 
#    z 0.000000 0.000000 1.736170 
# 
# From -- ./inp_files/7630.got.cif
#   From: 2010.05.17/outbox.cif.g08.bks.cpg/sg64_4_cif.got.tgz:7630.got - 2010.06.03 16:29:19.
