data_PCOD9480962
_publ_section_title
;
Structure prediction by ZEFSAII (Michael W. Deem and Ramdas Pophale) SiO2 
 PCOD9480962
Probable space group: C M C A
;
_chemical_formula_sum "Si O2"
_cell_formula_units_Z 48
_cell_length_a 18.805642
_cell_length_b 5.488621
_cell_length_c 18.163086
_cell_angle_alpha 90.000000
_cell_angle_beta 90.000000
_cell_angle_gamma 90.000000
_cell_volume 1874.740003
_symmetry_space_group_name_H-M "C M C A"
_symmetry_group_IT_number 64
_symmetry_cell_setting 'orthorhombic'
loop_
_space_group_symop_operation_xyz
x,y,z
-x,1/2-y,1/2+z
x,-y,-z
-x,1/2+y,1/2-z
-x,-y,-z
x,1/2+y,1/2-z
-x,y,z
x,1/2-y,1/2+z
1/2+x,1/2+y,z
1/2-x,-y,1/2+z
1/2+x,1/2-y,-z
1/2-x,y,1/2-z
1/2-x,1/2-y,-z
1/2+x,y,1/2-z
1/2-x,1/2+y,z
1/2+x,-y,1/2+z
loop_
_atom_site_type_symbol
_atom_site_label
_atom_site_fract_x
_atom_site_fract_y
_atom_site_fract_z
Si Si1 0.293428 0.422934 0.137668
Si Si2 0.604377 0.072491 0.772630
Si Si3 0.416005 0.342642 0.572687
O O1 0.255576 0.682668 0.126178
O O2 0.325070 0.410961 0.221043
O O3 0.362148 0.381686 0.085053
O O4 0.570555 0.332383 0.761257
O O5 0.605035 0.013632 0.858156
O O6 0.404469 0.500000 0.500000
O O7 0.500000 0.277034 0.577164
#
# Coordination Sequence:
#
# PCOD9480962 Si02
#       3
#    16  16  16
#     4  11  24  45  73 105 141 185 241 303 363 431
#     4  10  22  41  70  99 136 182 237 295 357 425
#     4  10  24  47  74 109 154 200 248 306 374 449
#
# _framework density 25.603549000000001
#
# number of rings (size 3 to 8) (size 9 to 14) (size 15 to 20)
#    0.000    1.667    0.000    4.000    0.000   22.667 
#    0.000   21.667    0.000   36.000    0.000    0.000 
#    0.000    0.000    0.000    0.000    0.000    0.000 
#
# Total GULP energy -134122.846918 kJ/mol
# GULP energy per Si atom -5588.451955 kJ/mol
# Density = 2.554527 g / cm^3
# Si number density = 25.603549 Si / 1000 Ang^3
#
#
#
# Elastic Constant Matrix: (Units=GPa)
#
#
# Indices 1 2 3 4 5 6 
#
# 1 147.1818 50.4375 4.1899 0.0000 0.0000 0.0000
# 2 50.4375 210.5753 16.7421 0.0000 0.0000 0.0000
# 3 4.1899 16.7421 129.6796 0.0000 0.0000 0.0000
# 4 0.0000 0.0000 0.0000 28.9467 0.0000 0.0000
# 5 0.0000 0.0000 0.0000 0.0000 37.4887 0.0000
# 6 0.0000 0.0000 0.0000 0.0000 0.0000 529.3618
#
#
#
# Elastic Compliance Matrix: (Units=1/GPa)
#
#
# Indices 1 2 3 4 5 6 
#
# 1 0.007402 -0.001772 -0.000010 0.000000 0.000000 0.000000
# 2 -0.001772 0.005222 -0.000617 0.000000 0.000000 0.000000
# 3 -0.000010 -0.000617 0.007791 0.000000 0.000000 0.000000
# 4 0.000000 0.000000 0.000000 0.034546 0.000000 0.000000
# 5 0.000000 0.000000 0.000000 0.000000 0.026675 0.000000
# 6 0.000000 0.000000 0.000000 0.000000 0.000000 0.001889
#
#
# Mechanical properties :
#
#
# Convention : Reuss Voigt Hill
#
# Bulk Modulus (GPa) = 64.03391 70.01950 67.02671
# Shear Modulus (GPa) = 53.45871 146.89724 100.17797
#
# Velocity S-wave (km/s) = 4.57436 7.58277 6.26191
# Velocity P-wave (km/s) = 7.27762 10.20154 8.86101
#
# Compressibility (1/GPa) = 0.01561672
#
# Stress axis : x y z
#
# Youngs Moduli (GPa) = 135.10060 191.48270 128.34830
#
# Poissons Ratio (x) = 0.33933 0.00133
# Poissons Ratio (y) = 0.23941 0.07919
# Poissons Ratio (z) = 0.00140 0.11814
#
# Static dielectric constant tensor:
#      x y z
#    x 2.203030 0.000000 0.000000 
#    y 0.000000 2.024670 0.000000 
#    z 0.000000 0.000000 1.963540 
# 
# From -- ./inp_files/40625.got.cif
#   From: 2010.05.17/outbox.cif.g08.bks.cpg/sg64_21_cif.got.tgz:40625.got - 2010.06.03 16:29:19.
