data_PCOD9480779
_publ_section_title
;
Structure prediction by ZEFSAII (Michael W. Deem and Ramdas Pophale) SiO2 
 PCOD9480779
Probable space group: C M C A
;
_chemical_formula_sum "Si O2"
_cell_formula_units_Z 64
_cell_length_a 8.913009
_cell_length_b 10.436751
_cell_length_c 36.338679
_cell_angle_alpha 90.000000
_cell_angle_beta 90.000000
_cell_angle_gamma 90.000000
_cell_volume 3380.327689
_symmetry_space_group_name_H-M "C M C A"
_symmetry_group_IT_number 64
_symmetry_cell_setting 'orthorhombic'
loop_
_space_group_symop_operation_xyz
x,y,z
-x,1/2-y,1/2+z
x,-y,-z
-x,1/2+y,1/2-z
-x,-y,-z
x,1/2+y,1/2-z
-x,y,z
x,1/2-y,1/2+z
1/2+x,1/2+y,z
1/2-x,-y,1/2+z
1/2+x,1/2-y,-z
1/2-x,y,1/2-z
1/2-x,1/2-y,-z
1/2+x,y,1/2-z
1/2-x,1/2+y,z
1/2+x,-y,1/2+z
loop_
_atom_site_type_symbol
_atom_site_label
_atom_site_fract_x
_atom_site_fract_y
_atom_site_fract_z
Si Si1 0.820682 0.270650 0.666278
Si Si2 0.820977 0.752106 0.085819
Si Si3 0.320158 0.489003 0.457163
Si Si4 0.679406 0.508061 0.709547
O O1 0.757401 0.252532 0.625394
O O2 0.746116 0.393232 0.685339
O O3 0.787409 0.143535 0.690050
O O4 0.000000 0.286984 0.665035
O O5 0.762189 0.872574 0.062740
O O6 0.787363 0.621590 0.063698
O O7 0.000000 0.760525 0.090646
O O8 0.277897 0.500000 0.500000
O O9 0.500000 0.467297 0.455319
O O10 0.500000 0.494017 0.712023
O O11 0.750000 0.504620 0.750000
#
# Coordination Sequence:
#
# PCOD9480779 Si02
#       4
#    16  16  16  16
#     4  11  24  41  62  88 120 158 197 241 293 348
#     4  11  23  38  60  89 118 153 198 244 293 351
#     4  10  22  40  60  85 119 156 196 244 296 352
#     4  11  24  41  62  89 119 153 195 240 289 346
#
# _framework density 18.933074999999999
#
# number of rings (size 3 to 8) (size 9 to 14) (size 15 to 20)
#    0.000    1.250    0.000    5.250    0.000   14.500 
#    0.000    0.000    0.000    0.000    0.000    0.000 
#    0.000    0.000    0.000    0.000    0.000    0.000 
#
# Total GULP energy -179069.790344 kJ/mol
# GULP energy per Si atom -5595.930948 kJ/mol
# Density = 1.888998 g / cm^3
# Si number density = 18.933075 Si / 1000 Ang^3
#
#
#
# Elastic Constant Matrix: (Units=GPa)
#
#
# Indices 1 2 3 4 5 6 
#
# 1 51.7567 60.1004 41.3276 0.0000 0.0000 0.0000
# 2 60.1004 110.0198 29.8758 0.0000 0.0000 0.0000
# 3 41.3276 29.8758 123.8274 0.0000 0.0000 0.0000
# 4 0.0000 0.0000 0.0000 35.8162 0.0000 0.0000
# 5 0.0000 0.0000 0.0000 0.0000 34.5309 0.0000
# 6 0.0000 0.0000 0.0000 0.0000 0.0000 28.5426
#
#
#
# Elastic Compliance Matrix: (Units=1/GPa)
#
#
# Indices 1 2 3 4 5 6 
#
# 1 0.073957 -0.036060 -0.015983 0.000000 0.000000 0.000000
# 2 -0.036060 0.027309 0.005446 0.000000 0.000000 0.000000
# 3 -0.015983 0.005446 0.012096 0.000000 0.000000 0.000000
# 4 0.000000 0.000000 0.000000 0.027920 0.000000 0.000000
# 5 0.000000 0.000000 0.000000 0.000000 0.028960 0.000000
# 6 0.000000 0.000000 0.000000 0.000000 0.000000 0.035035
#
#
# Mechanical properties :
#
#
# Convention : Reuss Voigt Hill
#
# Bulk Modulus (GPa) = 49.58302 60.91237 55.24770
# Shear Modulus (GPa) = 16.38301 30.06464 23.22383
#
# Velocity S-wave (km/s) = 2.94481 3.98922 3.50612
# Velocity P-wave (km/s) = 6.14882 7.31169 6.75532
#
# Compressibility (1/GPa) = 0.02016819
#
# Stress axis : x y z
#
# Youngs Moduli (GPa) = 13.52133 36.61806 82.67130
#
# Poissons Ratio (x) = 1.32046 1.32134
# Poissons Ratio (y) = 0.48758 -0.45026
# Poissons Ratio (z) = 0.21611 -0.19944
#
# Static dielectric constant tensor:
#      x y z
#    x 1.633400 0.000000 0.000000 
#    y 0.000000 1.619970 0.000000 
#    z 0.000000 0.000000 1.616090 
# 
# From -- ./inp_files/51530.got.cif
#   From: 2010.05.17/outbox.cif.g08.bks.cpg/sg64_26_cif.got.tgz:51530.got - 2010.06.03 16:29:19.
