data_PCOD9480458
_publ_section_title
;
Structure prediction by ZEFSAII (Michael W. Deem and Ramdas Pophale) SiO2 
 PCOD9480458
Probable space group: C M C A
;
_chemical_formula_sum "Si O2"
_cell_formula_units_Z 52
_cell_length_a 8.714091
_cell_length_b 14.972591
_cell_length_c 19.283063
_cell_angle_alpha 90.000000
_cell_angle_beta 90.000000
_cell_angle_gamma 90.000000
_cell_volume 2515.909832
_symmetry_space_group_name_H-M "C M C A"
_symmetry_group_IT_number 64
_symmetry_cell_setting 'orthorhombic'
loop_
_space_group_symop_operation_xyz
x,y,z
-x,1/2-y,1/2+z
x,-y,-z
-x,1/2+y,1/2-z
-x,-y,-z
x,1/2+y,1/2-z
-x,y,z
x,1/2-y,1/2+z
1/2+x,1/2+y,z
1/2-x,-y,1/2+z
1/2+x,1/2-y,-z
1/2-x,y,1/2-z
1/2-x,1/2-y,-z
1/2+x,y,1/2-z
1/2-x,1/2+y,z
1/2+x,-y,1/2+z
loop_
_atom_site_type_symbol
_atom_site_label
_atom_site_fract_x
_atom_site_fract_y
_atom_site_fract_z
Si Si1 0.182184 0.236840 0.076569
Si Si2 0.817302 0.591730 0.177652
Si Si3 0.329864 0.586842 0.873604
Si Si4 0.000000 0.000000 0.000000
O O1 0.255422 0.152600 0.115230
O O2 0.228778 0.325219 0.118949
O O3 0.000000 0.223240 0.072130
O O4 0.250000 0.250000 0.000000
O O5 0.750000 0.627346 0.250000
O O6 0.751889 0.492373 0.167059
O O7 0.000000 0.592059 0.179047
O O8 0.500000 0.607660 0.843498
O O9 0.369302 0.547184 0.949853
#
# Coordination Sequence:
#
# PCOD9480458 Si02
#       4
#    16  16  16   4
#     4  12  25  42  68 103 138 178 231 287 344 409
#     4  12  26  45  68  99 138 185 231 285 348 415
#     4  10  21  41  67  96 130 175 222 278 340 399
#     4   8  20  36  70  88 132 162 218 270 336 384
#
# _framework density 20.668468000000001
#
# number of rings (size 3 to 8) (size 9 to 14) (size 15 to 20)
#    0.923    0.000    0.000    8.308    4.308    1.231 
#    0.000   10.769    0.000    0.000    0.000    0.000 
#    0.000    0.000    0.000    0.000    0.000    0.000 
#
# Total GULP energy -144853.857570 kJ/mol
# GULP energy per Si atom -5571.302214 kJ/mol
# Density = 2.062143 g / cm^3
# Si number density = 20.668468 Si / 1000 Ang^3
#
#
#
# Elastic Constant Matrix: (Units=GPa)
#
#
# Indices 1 2 3 4 5 6 
#
# 1 157.8255 -3.1211 46.2075 0.0000 0.0000 0.0000
# 2 -3.1211 54.0171 36.3876 0.0000 0.0000 0.0000
# 3 46.2075 36.3876 77.7536 0.0000 0.0000 0.0000
# 4 0.0000 0.0000 0.0000 24.6438 0.0000 0.0000
# 5 0.0000 0.0000 0.0000 0.0000 30.7167 0.0000
# 6 0.0000 0.0000 0.0000 0.0000 0.0000 38.1961
#
#
#
# Elastic Compliance Matrix: (Units=1/GPa)
#
#
# Indices 1 2 3 4 5 6 
#
# 1 0.008787 0.005878 -0.007973 0.000000 0.000000 0.000000
# 2 0.005878 0.030968 -0.017986 0.000000 0.000000 0.000000
# 3 -0.007973 -0.017986 0.026016 0.000000 0.000000 0.000000
# 4 0.000000 0.000000 0.000000 0.040578 0.000000 0.000000
# 5 0.000000 0.000000 0.000000 0.000000 0.032556 0.000000
# 6 0.000000 0.000000 0.000000 0.000000 0.000000 0.026181
#
#
# Mechanical properties :
#
#
# Convention : Reuss Voigt Hill
#
# Bulk Modulus (GPa) = 39.04674 49.83827 44.44250
# Shear Modulus (GPa) = 23.38818 32.71948 28.05383
#
# Velocity S-wave (km/s) = 3.36756 3.98309 3.68819
# Velocity P-wave (km/s) = 5.83554 6.73193 6.29970
#
# Compressibility (1/GPa) = 0.02561033
#
# Stress axis : x y z
#
# Youngs Moduli (GPa) = 113.81023 32.29110 38.43733
#
# Poissons Ratio (x) = -0.18982 0.30645
# Poissons Ratio (y) = -0.66901 0.69134
# Poissons Ratio (z) = 0.90737 0.58079
#
# Static dielectric constant tensor:
#      x y z
#    x 1.692800 0.000000 0.000000 
#    y 0.000000 1.740830 0.000000 
#    z 0.000000 0.000000 2.184900 
# 
# From -- ./inp_files/36110.got.cif
#   From: 2010.05.17/outbox.cif.g08.bks.cpg/sg64_19_cif.got.tgz:36110.got - 2010.06.03 16:29:19.
