data_PCOD9480403
_publ_section_title
;
Structure prediction by ZEFSAII (Michael W. Deem and Ramdas Pophale) SiO2 
 PCOD9480403
Probable space group: C M C A
;
_chemical_formula_sum "Si O2"
_cell_formula_units_Z 104
_cell_length_a 23.448630
_cell_length_b 11.956740
_cell_length_c 15.337648
_cell_angle_alpha 90.000000
_cell_angle_beta 90.000000
_cell_angle_gamma 90.000000
_cell_volume 4300.203674
_symmetry_space_group_name_H-M "C M C A"
_symmetry_group_IT_number 64
_symmetry_cell_setting 'orthorhombic'
loop_
_space_group_symop_operation_xyz
x,y,z
-x,1/2-y,1/2+z
x,-y,-z
-x,1/2+y,1/2-z
-x,-y,-z
x,1/2+y,1/2-z
-x,y,z
x,1/2-y,1/2+z
1/2+x,1/2+y,z
1/2-x,-y,1/2+z
1/2+x,1/2-y,-z
1/2-x,y,1/2-z
1/2-x,1/2-y,-z
1/2+x,y,1/2-z
1/2-x,1/2+y,z
1/2+x,-y,1/2+z
loop_
_atom_site_type_symbol
_atom_site_label
_atom_site_fract_x
_atom_site_fract_y
_atom_site_fract_z
Si Si1 0.097212 0.076050 0.320873
Si Si2 0.500000 0.255266 0.467911
Si Si3 0.000000 0.927988 0.114504
Si Si4 0.371826 0.994867 0.358574
Si Si5 0.187975 0.724613 0.362442
Si Si6 0.682062 0.742972 0.848437
Si Si7 0.000000 0.732157 0.257639
Si Si8 0.104228 0.899080 0.448698
O O1 0.131271 0.011219 0.245617
O O2 0.139691 0.157349 0.372667
O O3 0.053693 0.159065 0.273498
O O4 0.071311 0.975654 0.376456
O O5 0.500000 0.145252 0.526675
O O6 0.500000 0.241845 0.362520
O O7 0.555437 0.326125 0.492826
O O8 0.939181 0.991620 0.117752
O O9 0.000000 0.845513 0.199849
O O10 0.338401 0.104701 0.390416
O O11 0.343059 0.876005 0.378130
O O12 0.254579 0.736305 0.382661
O O13 0.183250 0.746117 0.257717
O O14 0.149785 0.817978 0.407187
O O15 0.132851 0.000000 0.500000
#
# Coordination Sequence:
#
# PCOD9480403 Si02
#       8
#    16   8   8  16  16  16   8  16
#     4  11  22  41  71 107 140 193 240 298 372 444
#     4  12  26  46  75 110 149 196 254 307 375 450
#     4  12  25  45  75 111 153 200 242 309 387 447
#     4  11  22  42  71 105 144 184 237 308 361 441
#     4  10  24  41  69 111 138 188 246 303 374 440
#     4  10  21  40  73 104 141 180 244 304 366 440
#     4  12  22  43  74 111 154 191 247 306 374 459
#     4  12  25  45  70 100 148 192 245 307 369 454
#
# _framework density 24.184899999999999
#
# number of rings (size 3 to 8) (size 9 to 14) (size 15 to 20)
#    0.000    0.923    3.077    4.846    2.154    1.846 
#    0.000    6.923    0.000    0.000    0.000    0.000 
#    0.000    0.000    0.000    0.000    0.000    0.000 
#
# Total GULP energy -291029.628507 kJ/mol
# GULP energy per Si atom -5596.723625 kJ/mol
# Density = 2.412985 g / cm^3
# Si number density = 24.184900 Si / 1000 Ang^3
#
#
#
# Elastic Constant Matrix: (Units=GPa)
#
#
# Indices 1 2 3 4 5 6 
#
# 1 210.0598 115.5155 30.5831 0.0000 0.0000 0.0000
# 2 115.5155 181.8230 50.4111 0.0000 0.0000 0.0000
# 3 30.5831 50.4111 67.1270 0.0000 0.0000 0.0000
# 4 0.0000 0.0000 0.0000 47.6326 0.0000 0.0000
# 5 0.0000 0.0000 0.0000 0.0000 -33.4846 0.0000
# 6 0.0000 0.0000 0.0000 0.0000 0.0000 -4.1500
#
#
#
# Elastic Compliance Matrix: (Units=1/GPa)
#
#
# Indices 1 2 3 4 5 6 
#
# 1 0.007319 -0.004705 0.000199 0.000000 0.000000 0.000000
# 2 -0.004705 0.009971 -0.005344 0.000000 0.000000 0.000000
# 3 0.000199 -0.005344 0.018820 0.000000 0.000000 0.000000
# 4 0.000000 0.000000 0.000000 0.020994 0.000000 0.000000
# 5 0.000000 0.000000 0.000000 0.000000 -0.029865 0.000000
# 6 0.000000 0.000000 0.000000 0.000000 0.000000 -0.240961
#
#
# Mechanical properties :
#
#
# Convention : Reuss Voigt Hill
#
# Bulk Modulus (GPa) = 60.94264 94.66992 77.80628
# Shear Modulus (GPa) = -26.51794 19.49961 -3.50917
#
# Velocity S-wave (km/s) = -3.31489 2.84257 -1.20587
# Velocity P-wave (km/s) = 3.25608 7.07127 5.50477
#
# Compressibility (1/GPa) = 0.01640887
#
# Stress axis : x y z
#
# Youngs Moduli (GPa) = 136.63146 100.29353 53.13513
#
# Poissons Ratio (x) = 0.47188 -0.01057
# Poissons Ratio (y) = 0.64285 0.28397
# Poissons Ratio (z) = -0.02717 0.53599
#
# Static dielectric constant tensor:
#      x y z
#    x 1.894690 0.000000 0.000000 
#    y 0.000000 1.866390 0.000000 
#    z 0.000000 0.000000 2.074710 
# 
# From -- ./inp_files/35499.got.cif
#   From: 2010.05.17/outbox.cif.g08.bks.cpg/sg64_18_cif.got.tgz:35499.got - 2010.06.03 16:29:19.
