data_PCOD9480281
_publ_section_title
;
Structure prediction by ZEFSAII (Michael W. Deem and Ramdas Pophale) SiO2 
 PCOD9480281
Probable space group: C M C A
;
_chemical_formula_sum "Si O2"
_cell_formula_units_Z 96
_cell_length_a 21.496733
_cell_length_b 14.824000
_cell_length_c 13.846417
_cell_angle_alpha 90.000000
_cell_angle_beta 90.000000
_cell_angle_gamma 90.000000
_cell_volume 4412.404058
_symmetry_space_group_name_H-M "C M C A"
_symmetry_group_IT_number 64
_symmetry_cell_setting 'orthorhombic'
loop_
_space_group_symop_operation_xyz
x,y,z
-x,1/2-y,1/2+z
x,-y,-z
-x,1/2+y,1/2-z
-x,-y,-z
x,1/2+y,1/2-z
-x,y,z
x,1/2-y,1/2+z
1/2+x,1/2+y,z
1/2-x,-y,1/2+z
1/2+x,1/2-y,-z
1/2-x,y,1/2-z
1/2-x,1/2-y,-z
1/2+x,y,1/2-z
1/2-x,1/2+y,z
1/2+x,-y,1/2+z
loop_
_atom_site_type_symbol
_atom_site_label
_atom_site_fract_x
_atom_site_fract_y
_atom_site_fract_z
Si Si1 0.566772 0.074312 0.085760
Si Si2 0.608601 0.030783 0.732493
Si Si3 0.701990 0.893684 0.971212
Si Si4 0.666908 0.134853 0.381971
Si Si5 0.307223 0.182140 0.821710
Si Si6 0.932679 0.396726 0.462569
O O1 0.500000 0.123856 0.079203
O O2 0.633042 0.123909 0.071708
O O3 0.569258 0.022289 0.187776
O O4 0.566702 0.000000 0.000000
O O5 0.653507 0.095964 0.791067
O O6 0.575681 0.092428 0.651915
O O7 0.645656 0.954607 0.673194
O O8 0.759689 0.873117 0.902051
O O9 0.711725 0.836146 0.067919
O O10 0.705574 0.000000 0.000000
O O11 0.655299 0.224618 0.320750
O O12 0.626314 0.142622 0.480375
O O13 0.250000 0.189448 0.750000
O O14 0.935172 0.500000 0.500000
O O15 0.000000 0.354881 0.486467
#
# Coordination Sequence:
#
# PCOD9480281 Si02
#       6
#    16  16  16  16  16  16
#     4  10  21  39  67  97 131 176 223 273 340 410
#     4  11  22  42  68  98 133 177 227 276 343 409
#     4  11  21  42  66  93 130 174 222 276 340 406
#     4  11  25  41  66  97 137 174 228 284 339 396
#     4  12  25  39  63  99 138 179 231 282 341 405
#     4   9  19  41  69  94 127 172 221 276 338 403
#
# _framework density 21.756848000000002
#
# number of rings (size 3 to 8) (size 9 to 14) (size 15 to 20)
#    0.000    1.333    3.333    4.500    2.333    0.667 
#    0.000    2.500    0.000    0.000    0.000    0.000 
#    0.000    0.000    0.000    0.000    0.000    0.000 
#
# Total GULP energy -268092.637705 kJ/mol
# GULP energy per Si atom -5585.263286 kJ/mol
# Density = 2.170733 g / cm^3
# Si number density = 21.756848 Si / 1000 Ang^3
#
#
#
# Elastic Constant Matrix: (Units=GPa)
#
#
# Indices 1 2 3 4 5 6 
#
# 1 153.2057 21.1179 59.0462 0.0000 0.0000 0.0000
# 2 21.1179 71.8039 3.2780 0.0000 0.0000 0.0000
# 3 59.0462 3.2780 81.5238 0.0000 0.0000 0.0000
# 4 0.0000 0.0000 0.0000 14.7353 0.0000 0.0000
# 5 0.0000 0.0000 0.0000 0.0000 30.4266 0.0000
# 6 0.0000 0.0000 0.0000 0.0000 0.0000 -5.1439
#
#
#
# Elastic Compliance Matrix: (Units=1/GPa)
#
#
# Indices 1 2 3 4 5 6 
#
# 1 0.009475 -0.002478 -0.006763 0.000000 0.000000 0.000000
# 2 -0.002478 0.014600 0.001208 0.000000 0.000000 0.000000
# 3 -0.006763 0.001208 0.017116 0.000000 0.000000 0.000000
# 4 0.000000 0.000000 0.000000 0.067864 0.000000 0.000000
# 5 0.000000 0.000000 0.000000 0.000000 0.032866 0.000000
# 6 0.000000 0.000000 0.000000 0.000000 0.000000 -0.194405
#
#
# Mechanical properties :
#
#
# Convention : Reuss Voigt Hill
#
# Bulk Modulus (GPa) = 39.80085 52.60195 46.20140
# Shear Modulus (GPa) = -178.31356 22.87636 -77.71860
#
# Velocity S-wave (km/s) = -9.06286 3.24613 -5.98323
# Velocity P-wave (km/s) = 9.54885 6.18704 5.14301
#
# Compressibility (1/GPa) = 0.02512509
#
# Stress axis : x y z
#
# Youngs Moduli (GPa) = 105.53781 68.49099 58.42413
#
# Poissons Ratio (x) = 0.16972 0.39513
# Poissons Ratio (y) = 0.26152 -0.07056
# Poissons Ratio (z) = 0.71377 -0.08271
#
# Static dielectric constant tensor:
#      x y z
#    x 1.821730 0.000000 0.000000 
#    y 0.000000 1.790960 0.000000 
#    z 0.000000 0.000000 2.299510 
# 
# From -- ./inp_files/26353.got.cif
#   From: 2010.05.17/outbox.cif.g08.bks.cpg/sg64_14_cif.got.tgz:26353.got - 2010.06.03 16:29:19.
