data_PCOD9480690
_publ_section_title
;
Structure prediction by ZEFSAII (Michael W. Deem and Ramdas Pophale) SiO2 
 PCOD9480690
Probable space group: C M C A
;
_chemical_formula_sum "Si O2"
_cell_formula_units_Z 80
_cell_length_a 25.673626
_cell_length_b 13.850993
_cell_length_c 12.477709
_cell_angle_alpha 90.000000
_cell_angle_beta 90.000000
_cell_angle_gamma 90.000000
_cell_volume 4437.138379
_symmetry_space_group_name_H-M "C M C A"
_symmetry_group_IT_number 64
_symmetry_cell_setting 'orthorhombic'
loop_
_space_group_symop_operation_xyz
x,y,z
-x,1/2-y,1/2+z
x,-y,-z
-x,1/2+y,1/2-z
-x,-y,-z
x,1/2+y,1/2-z
-x,y,z
x,1/2-y,1/2+z
1/2+x,1/2+y,z
1/2-x,-y,1/2+z
1/2+x,1/2-y,-z
1/2-x,y,1/2-z
1/2-x,1/2-y,-z
1/2+x,y,1/2-z
1/2-x,1/2+y,z
1/2+x,-y,1/2+z
loop_
_atom_site_type_symbol
_atom_site_label
_atom_site_fract_x
_atom_site_fract_y
_atom_site_fract_z
Si Si1 0.062210 0.055718 0.660096
Si Si2 0.937178 0.651225 0.067624
Si Si3 0.708267 0.252656 0.341350
Si Si4 0.280023 0.108541 0.537792
Si Si5 0.374729 0.320989 0.181512
O O1 0.074885 0.120024 0.554644
O O2 0.088075 0.100876 0.764008
O O3 0.000000 0.057873 0.669755
O O4 0.076682 0.944731 0.636002
O O5 0.905757 0.743203 0.110172
O O6 0.000000 0.666285 0.075533
O O7 0.750000 0.226009 0.250000
O O8 0.709616 0.173758 0.433664
O O9 0.730007 0.349932 0.398247
O O10 0.654559 0.267407 0.279700
O O11 0.329506 0.126469 0.614329
O O12 0.273266 0.000000 0.500000
#
# Coordination Sequence:
#
# PCOD9480690 Si02
#       5
#    16  16  16  16  16
#     4   9  19  36  56  83 115 152 193 227 281 339
#     4   9  19  36  56  81 117 151 188 237 273 332
#     4   9  21  39  55  79 110 147 183 224 282 342
#     4  10  22  39  55  81 116 141 180 237 281 332
#     4  11  20  34  60  86 108 147 191 230 282 329
#
# _framework density 18.029639
#
# number of rings (size 3 to 8) (size 9 to 14) (size 15 to 20)
#    0.000    2.400    0.000    3.000    2.800    2.400 
#   10.800    0.000    0.000    1.200    0.000    0.000 
#    0.000    0.000    0.000    0.000    0.000    0.000 
#
# Total GULP energy -223177.853969 kJ/mol
# GULP energy per Si atom -5579.446349 kJ/mol
# Density = 1.798860 g / cm^3
# Si number density = 18.029639 Si / 1000 Ang^3
#
#
#
# Elastic Constant Matrix: (Units=GPa)
#
#
# Indices 1 2 3 4 5 6 
#
# 1 27.6619 24.6127 6.6218 0.0000 0.0000 0.0000
# 2 24.6127 91.6637 30.6914 0.0000 0.0000 0.0000
# 3 6.6218 30.6914 65.7503 0.0000 0.0000 0.0000
# 4 0.0000 0.0000 0.0000 23.7475 0.0000 0.0000
# 5 0.0000 0.0000 0.0000 0.0000 13.3201 0.0000
# 6 0.0000 0.0000 0.0000 0.0000 0.0000 6.1875
#
#
#
# Elastic Compliance Matrix: (Units=1/GPa)
#
#
# Indices 1 2 3 4 5 6 
#
# 1 0.047606 -0.013248 0.001389 0.000000 0.000000 0.000000
# 2 -0.013248 0.016617 -0.006422 0.000000 0.000000 0.000000
# 3 0.001389 -0.006422 0.018067 0.000000 0.000000 0.000000
# 4 0.000000 0.000000 0.000000 0.042110 0.000000 0.000000
# 5 0.000000 0.000000 0.000000 0.000000 0.075074 0.000000
# 6 0.000000 0.000000 0.000000 0.000000 0.000000 0.161616
#
#
# Mechanical properties :
#
#
# Convention : Reuss Voigt Hill
#
# Bulk Modulus (GPa) = 21.86834 34.32530 28.09682
# Shear Modulus (GPa) = 12.10965 16.86103 14.48534
#
# Velocity S-wave (km/s) = 2.59444 3.06140 2.83754
# Velocity P-wave (km/s) = 4.59676 5.61923 5.13352
#
# Compressibility (1/GPa) = 0.04572820
#
# Stress axis : x y z
#
# Youngs Moduli (GPa) = 21.00585 60.17929 55.34955
#
# Poissons Ratio (x) = 0.79725 -0.07691
# Poissons Ratio (y) = 0.27828 0.35548
# Poissons Ratio (z) = -0.02919 0.38649
#
# Static dielectric constant tensor:
#      x y z
#    x 1.616970 0.000000 0.000000 
#    y 0.000000 1.593040 0.000000 
#    z 0.000000 0.000000 1.613090 
# 
# From -- ./inp_files/18066.got.cif
#   From: 2010.05.17/outbox.cif.g08.bks.cpg/sg64_10_cif.got.tgz:18066.got - 2010.06.03 16:29:19.
