data_PCOD9480876
_publ_section_title
;
Structure prediction by ZEFSAII (Michael W. Deem and Ramdas Pophale) SiO2 
 PCOD9480876
Probable space group: C M C A
;
_chemical_formula_sum "Si O2"
_cell_formula_units_Z 88
_cell_length_a 25.692992
_cell_length_b 18.332138
_cell_length_c 8.535816
_cell_angle_alpha 90.000000
_cell_angle_beta 90.000000
_cell_angle_gamma 90.000000
_cell_volume 4020.433141
_symmetry_space_group_name_H-M "C M C A"
_symmetry_group_IT_number 64
_symmetry_cell_setting 'orthorhombic'
loop_
_space_group_symop_operation_xyz
x,y,z
-x,1/2-y,1/2+z
x,-y,-z
-x,1/2+y,1/2-z
-x,-y,-z
x,1/2+y,1/2-z
-x,y,z
x,1/2-y,1/2+z
1/2+x,1/2+y,z
1/2-x,-y,1/2+z
1/2+x,1/2-y,-z
1/2-x,y,1/2-z
1/2-x,1/2-y,-z
1/2+x,y,1/2-z
1/2-x,1/2+y,z
1/2+x,-y,1/2+z
loop_
_atom_site_type_symbol
_atom_site_label
_atom_site_fract_x
_atom_site_fract_y
_atom_site_fract_z
Si Si1 0.088655 0.843549 0.687057
Si Si2 0.500000 0.429680 0.145072
Si Si3 0.750000 0.240122 0.750000
Si Si4 0.110757 0.487154 0.669664
Si Si5 0.500000 0.795156 0.599416
Si Si6 0.189379 0.836064 0.503879
Si Si7 0.000000 0.633401 0.984842
Si Si8 0.165568 0.000000 0.500000
O O1 0.112670 0.900113 0.808508
O O2 0.131706 0.814984 0.567298
O O3 0.051377 0.793844 0.791672
O O4 0.050107 0.892168 0.579142
O O5 0.447335 0.478105 0.152286
O O6 0.500000 0.386024 0.306435
O O7 0.500000 0.369689 0.004098
O O8 0.773409 0.293095 0.879565
O O9 0.794568 0.190867 0.668539
O O10 0.136901 0.500000 0.500000
O O11 0.134681 0.513668 0.835410
O O12 0.500000 0.721210 0.503314
O O13 0.194783 0.923178 0.521362
#
# Coordination Sequence:
#
# PCOD9480876 Si02
#       8
#    16   8   8  16   8  16   8   8
#     4  10  22  41  60  90 135 171 222 278 329 400
#     4  12  19  34  60  82 133 182 230 273 311 386
#     4  10  24  48  74 102 128 178 222 276 364 424
#     4  11  21  39  63  93 129 178 229 277 331 389
#     4  11  22  37  53  91 136 181 229 259 331 399
#     4  10  23  47  71 101 136 171 227 282 346 419
#     4  11  24  36  53  94 132 183 217 270 322 400
#     4  10  24  45  68 106 134 170 230 287 350 408
#
# _framework density 21.888189000000001
#
# number of rings (size 3 to 8) (size 9 to 14) (size 15 to 20)
#    0.000    1.455    1.818    4.636    2.545    1.818 
#   16.364    0.000    0.000    0.000    0.000    0.000 
#    0.000    0.000    0.000    0.000    0.000    0.000 
#
# Total GULP energy -245264.030393 kJ/mol
# GULP energy per Si atom -5574.182509 kJ/mol
# Density = 2.183837 g / cm^3
# Si number density = 21.888189 Si / 1000 Ang^3
#
#
#
# Elastic Constant Matrix: (Units=GPa)
#
#
# Indices 1 2 3 4 5 6 
#
# 1 53.4161 20.0025 33.6161 0.0000 0.0000 0.0000
# 2 20.0025 94.1888 45.0189 0.0000 0.0000 0.0000
# 3 33.6161 45.0189 156.7290 0.0000 0.0000 0.0000
# 4 0.0000 0.0000 0.0000 29.3883 0.0000 0.0000
# 5 0.0000 0.0000 0.0000 0.0000 1.8445 0.0000
# 6 0.0000 0.0000 0.0000 0.0000 0.0000 10.6105
#
#
#
# Elastic Compliance Matrix: (Units=1/GPa)
#
#
# Indices 1 2 3 4 5 6 
#
# 1 0.022277 -0.002837 -0.003963 0.000000 0.000000 0.000000
# 2 -0.002837 0.012668 -0.003030 0.000000 0.000000 0.000000
# 3 -0.003963 -0.003030 0.008101 0.000000 0.000000 0.000000
# 4 0.000000 0.000000 0.000000 0.034027 0.000000 0.000000
# 5 0.000000 0.000000 0.000000 0.000000 0.542164 0.000000
# 6 0.000000 0.000000 0.000000 0.000000 0.000000 0.094246
#
#
# Mechanical properties :
#
#
# Convention : Reuss Voigt Hill
#
# Bulk Modulus (GPa) = 42.76146 55.73433 49.24790
# Shear Modulus (GPa) = 6.74819 22.08176 14.41498
#
# Velocity S-wave (km/s) = 1.75776 3.17968 2.56905
# Velocity P-wave (km/s) = 4.86810 6.24491 5.59899
#
# Compressibility (1/GPa) = 0.02338554
#
# Stress axis : x y z
#
# Youngs Moduli (GPa) = 44.88853 78.94069 123.44235
#
# Poissons Ratio (x) = 0.22392 0.48925
# Poissons Ratio (y) = 0.12733 0.37406
# Poissons Ratio (z) = 0.17791 0.23921
#
# Static dielectric constant tensor:
#      x y z
#    x 1.838140 0.000000 0.000000 
#    y 0.000000 1.812140 0.000000 
#    z 0.000000 0.000000 1.842480 
# 
# From -- ./inp_files/11127.got.cif
#   From: 2010.05.17/outbox.cif.g08.bks.cpg/sg64_6_cif.got.tgz:11127.got - 2010.06.03 16:29:19.
