data_PCOD9480066
_publ_section_title
;
Structure prediction by ZEFSAII (Michael W. Deem and Ramdas Pophale) SiO2 
 PCOD9480066
Probable space group: C M C A
;
_chemical_formula_sum "Si O2"
_cell_formula_units_Z 56
_cell_length_a 16.776808
_cell_length_b 30.757324
_cell_length_c 5.014664
_cell_angle_alpha 90.000000
_cell_angle_beta 90.000000
_cell_angle_gamma 90.000000
_cell_volume 2587.615363
_symmetry_space_group_name_H-M "C M C A"
_symmetry_group_IT_number 64
_symmetry_cell_setting 'orthorhombic'
loop_
_space_group_symop_operation_xyz
x,y,z
-x,1/2-y,1/2+z
x,-y,-z
-x,1/2+y,1/2-z
-x,-y,-z
x,1/2+y,1/2-z
-x,y,z
x,1/2-y,1/2+z
1/2+x,1/2+y,z
1/2-x,-y,1/2+z
1/2+x,1/2-y,-z
1/2-x,y,1/2-z
1/2-x,1/2-y,-z
1/2+x,y,1/2-z
1/2-x,1/2+y,z
1/2+x,-y,1/2+z
loop_
_atom_site_type_symbol
_atom_site_label
_atom_site_fract_x
_atom_site_fract_y
_atom_site_fract_z
Si Si1 0.842935 0.631488 0.810060
Si Si2 0.095462 0.777606 0.518482
Si Si3 0.406310 0.416781 0.820228
Si Si4 0.305983 0.500000 0.000000
O O1 0.750000 0.626643 0.750000
O O2 0.861353 0.679206 0.922495
O O3 0.890521 0.620571 0.540241
O O4 0.870671 0.598390 0.039345
O O5 0.114681 0.761484 0.814393
O O6 0.000000 0.785431 0.502482
O O7 0.500000 0.424675 0.793752
O O8 0.360367 0.459231 0.921456
O O9 0.250000 0.511044 0.750000
#
# Coordination Sequence:
#
# PCOD9480066 Si02
#       4
#    16  16  16   8
#     4  12  25  42  66  97 132 170 215 269 325 377
#     4  10  21  38  61  90 126 168 213 262 318 380
#     4  12  25  44  68  96 130 172 218 261 316 386
#     4  12  25  44  69  98 134 168 210 266 325 378
#
# _framework density 21.641548
#
# number of rings (size 3 to 8) (size 9 to 14) (size 15 to 20)
#    0.000    0.571    0.000    9.857    0.000    3.429 
#    0.000    4.286    0.000    0.000    0.000    0.000 
#    0.000    0.000    0.000    0.000    0.000    0.000 
#
# Total GULP energy -156985.542068 kJ/mol
# GULP energy per Si atom -5606.626502 kJ/mol
# Density = 2.159229 g / cm^3
# Si number density = 21.641548 Si / 1000 Ang^3
#
#
#
# Elastic Constant Matrix: (Units=GPa)
#
#
# Indices 1 2 3 4 5 6 
#
# 1 140.4138 58.1054 43.7740 0.0000 0.0000 0.0000
# 2 58.1054 70.9527 -2.0738 0.0000 0.0000 0.0000
# 3 43.7740 -2.0738 102.9274 0.0000 0.0000 0.0000
# 4 0.0000 0.0000 0.0000 30.6197 0.0000 0.0000
# 5 0.0000 0.0000 0.0000 0.0000 31.3489 0.0000
# 6 0.0000 0.0000 0.0000 0.0000 0.0000 43.3206
#
#
#
# Elastic Compliance Matrix: (Units=1/GPa)
#
#
# Indices 1 2 3 4 5 6 
#
# 1 0.013750 -0.011438 -0.006078 0.000000 0.000000 0.000000
# 2 -0.011438 0.023617 0.005340 0.000000 0.000000 0.000000
# 3 -0.006078 0.005340 0.012408 0.000000 0.000000 0.000000
# 4 0.000000 0.000000 0.000000 0.032659 0.000000 0.000000
# 5 0.000000 0.000000 0.000000 0.000000 0.031899 0.000000
# 6 0.000000 0.000000 0.000000 0.000000 0.000000 0.023084
#
#
# Mechanical properties :
#
#
# Convention : Reuss Voigt Hill
#
# Bulk Modulus (GPa) = 39.33394 57.10056 48.21725
# Shear Modulus (GPa) = 29.36998 35.35706 32.36352
#
# Velocity S-wave (km/s) = 3.68789 4.04636 3.87128
# Velocity P-wave (km/s) = 6.02899 6.94786 6.50467
#
# Compressibility (1/GPa) = 0.02542334
#
# Stress axis : x y z
#
# Youngs Moduli (GPa) = 72.72844 42.34286 80.59224
#
# Poissons Ratio (x) = 0.48431 0.48985
# Poissons Ratio (y) = 0.83185 -0.43038
# Poissons Ratio (z) = 0.44205 -0.22612
#
# Static dielectric constant tensor:
#      x y z
#    x 1.735980 0.000000 0.000000 
#    y 0.000000 1.778900 0.000000 
#    z 0.000000 0.000000 1.755250 
# 
# From -- ./inp_files/846.got.cif
#   From: 2010.05.17/outbox.cif.g08.bks.cpg/sg64_1_cif.got.tgz:846.got - 2010.06.03 16:29:19.
