data_PCOD9480949
_publ_section_title
;
Structure prediction by ZEFSAII (Michael W. Deem and Ramdas Pophale) SiO2 
 PCOD9480949
Probable space group: C M C A
;
_chemical_formula_sum "Si O2"
_cell_formula_units_Z 68
_cell_length_a 17.047928
_cell_length_b 16.085719
_cell_length_c 11.904756
_cell_angle_alpha 90.000000
_cell_angle_beta 90.000000
_cell_angle_gamma 90.000000
_cell_volume 3264.619563
_symmetry_space_group_name_H-M "C M C A"
_symmetry_group_IT_number 64
_symmetry_cell_setting 'orthorhombic'
loop_
_space_group_symop_operation_xyz
x,y,z
-x,1/2-y,1/2+z
x,-y,-z
-x,1/2+y,1/2-z
-x,-y,-z
x,1/2+y,1/2-z
-x,y,z
x,1/2-y,1/2+z
1/2+x,1/2+y,z
1/2-x,-y,1/2+z
1/2+x,1/2-y,-z
1/2-x,y,1/2-z
1/2-x,1/2-y,-z
1/2+x,y,1/2-z
1/2-x,1/2+y,z
1/2+x,-y,1/2+z
loop_
_atom_site_type_symbol
_atom_site_label
_atom_site_fract_x
_atom_site_fract_y
_atom_site_fract_z
Si Si1 0.500000 0.676180 0.121053
Si Si2 0.000000 0.000000 0.000000
Si Si3 0.369734 0.795668 0.153261
Si Si4 0.250000 0.327052 0.750000
Si Si5 0.000000 0.917004 0.247750
Si Si6 0.500000 0.902498 0.862448
Si Si7 0.326612 0.905347 0.962607
O O1 0.500000 0.585654 0.071227
O O2 0.426000 0.731630 0.087931
O O3 0.500000 0.660398 0.256365
O O4 0.000000 0.944399 0.119109
O O5 0.322073 0.734916 0.232877
O O6 0.424628 0.861849 0.217203
O O7 0.313903 0.844488 0.067745
O O8 0.271138 0.382225 0.641788
O O9 0.000000 0.002124 0.319085
O O10 0.418547 0.893344 0.929412
O O11 0.314773 0.000000 0.000000
#
# Coordination Sequence:
#
# PCOD9480949 Si02
#       7
#     8   4  16   8   8   8  16
#     4  10  22  41  68 102 136 175 234 296 332 408
#     4  10  24  38  72 112 136 172 234 308 354 382
#     4  11  24  43  70  99 141 188 231 285 354 417
#     4  12  28  46  64 102 146 186 234 280 360 444
#     4  10  22  43  70 105 136 181 235 296 339 413
#     4  11  19  45  72  98 131 173 246 284 338 414
#     4  12  25  46  72 101 136 188 235 295 352 423
#
# _framework density 20.82938
#
# number of rings (size 3 to 8) (size 9 to 14) (size 15 to 20)
#    0.000    0.941    4.706    2.471    3.294    0.941 
#    2.118    0.000    0.000    0.000    0.000    0.000 
#    0.000    0.000    0.000    0.000    0.000    0.000 
#
# Total GULP energy -189504.797832 kJ/mol
# GULP energy per Si atom -5573.670524 kJ/mol
# Density = 2.078197 g / cm^3
# Si number density = 20.829380 Si / 1000 Ang^3
#
#
#
# Elastic Constant Matrix: (Units=GPa)
#
#
# Indices 1 2 3 4 5 6 
#
# 1 40.5763 16.5167 4.5763 0.0000 0.0000 0.0000
# 2 16.5167 137.7381 52.0053 0.0000 0.0000 0.0000
# 3 4.5763 52.0053 106.7199 0.0000 0.0000 0.0000
# 4 0.0000 0.0000 0.0000 36.4849 0.0000 0.0000
# 5 0.0000 0.0000 0.0000 0.0000 -6.5958 0.0000
# 6 0.0000 0.0000 0.0000 0.0000 0.0000 4.9519
#
#
#
# Elastic Compliance Matrix: (Units=1/GPa)
#
#
# Indices 1 2 3 4 5 6 
#
# 1 0.025931 -0.003296 0.000494 0.000000 0.000000 0.000000
# 2 -0.003296 0.009316 -0.004398 0.000000 0.000000 0.000000
# 3 0.000494 -0.004398 0.011493 0.000000 0.000000 0.000000
# 4 0.000000 0.000000 0.000000 0.027409 0.000000 0.000000
# 5 0.000000 0.000000 0.000000 0.000000 -0.151611 0.000000
# 6 0.000000 0.000000 0.000000 0.000000 0.000000 0.201941
#
#
# Mechanical properties :
#
#
# Convention : Reuss Voigt Hill
#
# Bulk Modulus (GPa) = 30.92251 47.91455 39.41853
# Shear Modulus (GPa) = 33.40928 21.09725 27.25327
#
# Velocity S-wave (km/s) = 4.00928 3.18600 3.62111
# Velocity P-wave (km/s) = 6.02580 6.04875 6.03729
#
# Compressibility (1/GPa) = 0.03233890
#
# Stress axis : x y z
#
# Youngs Moduli (GPa) = 38.56412 107.34086 87.01302
#
# Poissons Ratio (x) = 0.35380 -0.04301
# Poissons Ratio (y) = 0.12711 0.38272
# Poissons Ratio (z) = -0.01906 0.47214
#
# Static dielectric constant tensor:
#      x y z
#    x 2.367750 0.000000 0.000000 
#    y 0.000000 1.682580 0.000000 
#    z 0.000000 0.000000 1.762620 
# 
# From -- ./inp_files/16994.got.cif
#   From: 2010.05.17/outbox.cif.g08.bks.cpg/sg64_9_cif.got.tgz:16994.got - 2010.06.03 16:29:19.
