data_PCOD9480412
_publ_section_title
;
Structure prediction by ZEFSAII (Michael W. Deem and Ramdas Pophale) SiO2 
 PCOD9480412
Probable space group: C M C A
;
_chemical_formula_sum "Si O2"
_cell_formula_units_Z 96
_cell_length_a 27.174471
_cell_length_b 20.614731
_cell_length_c 8.871483
_cell_angle_alpha 90.000000
_cell_angle_beta 90.000000
_cell_angle_gamma 90.000000
_cell_volume 4969.755183
_symmetry_space_group_name_H-M "C M C A"
_symmetry_group_IT_number 64
_symmetry_cell_setting 'orthorhombic'
loop_
_space_group_symop_operation_xyz
x,y,z
-x,1/2-y,1/2+z
x,-y,-z
-x,1/2+y,1/2-z
-x,-y,-z
x,1/2+y,1/2-z
-x,y,z
x,1/2-y,1/2+z
1/2+x,1/2+y,z
1/2-x,-y,1/2+z
1/2+x,1/2-y,-z
1/2-x,y,1/2-z
1/2-x,1/2-y,-z
1/2+x,y,1/2-z
1/2-x,1/2+y,z
1/2+x,-y,1/2+z
loop_
_atom_site_type_symbol
_atom_site_label
_atom_site_fract_x
_atom_site_fract_y
_atom_site_fract_z
Si Si1 0.942878 0.442935 0.622636
Si Si2 0.377161 0.160264 0.503441
Si Si3 0.702498 0.336453 0.532908
Si Si4 0.708269 0.565900 0.077264
Si Si5 0.834080 0.737197 0.762535
Si Si6 0.642920 0.050389 0.136700
O O1 0.934904 0.500000 0.500000
O O2 0.927050 0.375120 0.544595
O O3 0.906696 0.452852 0.765145
O O4 0.000000 0.443179 0.665660
O O5 0.337902 0.100939 0.503118
O O6 0.372890 0.197454 0.661054
O O7 0.359452 0.210809 0.374510
O O8 0.749601 0.380154 0.566829
O O9 0.697631 0.310941 0.364609
O O10 0.699643 0.276249 0.645632
O O11 0.653855 0.379095 0.566969
O O12 0.687014 0.545080 0.240268
O O13 0.724879 0.500000 0.000000
O O14 0.644623 0.000000 0.000000
#
# Coordination Sequence:
#
# PCOD9480412 Si02
#       6
#    16  16  16  16  16  16
#     4  10  22  43  70  94 122 155 198 259 323 379
#     4  10  21  41  62  87 125 161 208 254 308 370
#     4  11  23  40  58  90 123 165 214 252 298 363
#     4  11  24  41  58  87 127 168 214 254 309 362
#     4  10  23  39  62  85 124 171 207 250 303 363
#     4  11  23  40  63  91 125 162 204 261 306 364
#
# _framework density 19.316848
#
# number of rings (size 3 to 8) (size 9 to 14) (size 15 to 20)
#    0.000    1.500    3.333    3.000    4.667    5.000 
#    0.000    1.667    0.000    0.000    0.000    0.000 
#    0.000    0.000    0.000    0.000    0.000    0.000 
#
# Total GULP energy -268126.356777 kJ/mol
# GULP energy per Si atom -5585.965766 kJ/mol
# Density = 1.927288 g / cm^3
# Si number density = 19.316848 Si / 1000 Ang^3
#
#
#
# Elastic Constant Matrix: (Units=GPa)
#
#
# Indices 1 2 3 4 5 6 
#
# 1 88.7838 37.9867 42.9565 0.0000 0.0000 0.0000
# 2 37.9867 85.4056 63.8507 0.0000 0.0000 0.0000
# 3 42.9565 63.8507 123.0352 0.0000 0.0000 0.0000
# 4 0.0000 0.0000 0.0000 42.2258 0.0000 0.0000
# 5 0.0000 0.0000 0.0000 0.0000 18.8747 0.0000
# 6 0.0000 0.0000 0.0000 0.0000 0.0000 20.2419
#
#
#
# Elastic Compliance Matrix: (Units=1/GPa)
#
#
# Indices 1 2 3 4 5 6 
#
# 1 0.014477 -0.004347 -0.002799 0.000000 0.000000 0.000000
# 2 -0.004347 0.020437 -0.009088 0.000000 0.000000 0.000000
# 3 -0.002799 -0.009088 0.013821 0.000000 0.000000 0.000000
# 4 0.000000 0.000000 0.000000 0.023682 0.000000 0.000000
# 5 0.000000 0.000000 0.000000 0.000000 0.052981 0.000000
# 6 0.000000 0.000000 0.000000 0.000000 0.000000 0.049402
#
#
# Mechanical properties :
#
#
# Convention : Reuss Voigt Hill
#
# Bulk Modulus (GPa) = 61.47136 65.20137 63.33636
# Shear Modulus (GPa) = 23.50825 26.43052 24.96939
#
# Velocity S-wave (km/s) = 3.49231 3.70302 3.59921
# Velocity P-wave (km/s) = 6.93926 7.21873 7.08037
#
# Compressibility (1/GPa) = 0.01626774
#
# Stress axis : x y z
#
# Youngs Moduli (GPa) = 69.07396 48.93146 72.35152
#
# Poissons Ratio (x) = 0.21269 0.20250
# Poissons Ratio (y) = 0.30025 0.65755
# Poissons Ratio (z) = 0.19332 0.44470
#
# Static dielectric constant tensor:
#      x y z
#    x 1.672750 0.000000 0.000000 
#    y 0.000000 1.690010 0.000000 
#    z 0.000000 0.000000 1.713120 
# 
# From -- ./inp_files/10355.got.cif
#   From: 2010.05.17/outbox.cif.g08.bks.cpg/sg64_6_cif.got.tgz:10355.got - 2010.06.03 16:29:19.
