data_PCOD9480607
_publ_section_title
;
Structure prediction by ZEFSAII (Michael W. Deem and Ramdas Pophale) SiO2 
 PCOD9480607
Probable space group: C M C A
;
_chemical_formula_sum "Si O2"
_cell_formula_units_Z 96
_cell_length_a 25.660224
_cell_length_b 9.459667
_cell_length_c 18.867070
_cell_angle_alpha 90.000000
_cell_angle_beta 90.000000
_cell_angle_gamma 90.000000
_cell_volume 4579.739257
_symmetry_space_group_name_H-M "C M C A"
_symmetry_group_IT_number 64
_symmetry_cell_setting 'orthorhombic'
loop_
_space_group_symop_operation_xyz
x,y,z
-x,1/2-y,1/2+z
x,-y,-z
-x,1/2+y,1/2-z
-x,-y,-z
x,1/2+y,1/2-z
-x,y,z
x,1/2-y,1/2+z
1/2+x,1/2+y,z
1/2-x,-y,1/2+z
1/2+x,1/2-y,-z
1/2-x,y,1/2-z
1/2-x,1/2-y,-z
1/2+x,y,1/2-z
1/2-x,1/2+y,z
1/2+x,-y,1/2+z
loop_
_atom_site_type_symbol
_atom_site_label
_atom_site_fract_x
_atom_site_fract_y
_atom_site_fract_z
Si Si1 0.588457 0.000553 0.202004
Si Si2 0.742839 0.692805 0.079540
Si Si3 0.641865 0.518635 0.080871
Si Si4 0.651699 0.283315 0.652581
Si Si5 0.442495 0.815086 0.663980
Si Si6 0.301655 0.641322 0.713377
O O1 0.562816 0.850742 0.184298
O O2 0.649537 0.961337 0.210461
O O3 0.598633 0.126620 0.146326
O O4 0.563430 0.081055 0.268252
O O5 0.702087 0.565359 0.080192
O O6 0.800360 0.657506 0.107091
O O7 0.717257 0.798963 0.137843
O O8 0.750000 0.750000 0.000000
O O9 0.638972 0.373592 0.124068
O O10 0.605367 0.637994 0.115068
O O11 0.625474 0.500000 0.000000
O O12 0.675257 0.258894 0.732069
O O13 0.500000 0.837243 0.632813
O O14 0.250000 0.579228 0.750000
#
# Coordination Sequence:
#
# PCOD9480607 Si02
#       6
#    16  16  16  16  16  16
#     4  12  22  43  70  99 134 173 224 295 353 413
#     4  11  23  40  64 104 144 185 224 272 336 425
#     4  12  24  44  68  97 140 187 233 283 344 424
#     4  11  24  39  66 103 143 182 227 276 347 422
#     4  12  26  45  70  99 130 173 236 301 361 414
#     4  10  22  37  61  99 136 174 216 268 336 414
#
# _framework density 20.961891999999999
#
# number of rings (size 3 to 8) (size 9 to 14) (size 15 to 20)
#    0.000    0.667    6.667    0.500    4.667    1.000 
#    0.000    3.333    0.000    1.000    0.000    0.000 
#    0.000    0.000    0.000    0.000    0.000    0.000 
#
# Total GULP energy -267959.400471 kJ/mol
# GULP energy per Si atom -5582.487510 kJ/mol
# Density = 2.091418 g / cm^3
# Si number density = 20.961892 Si / 1000 Ang^3
#
#
#
# Elastic Constant Matrix: (Units=GPa)
#
#
# Indices 1 2 3 4 5 6 
#
# 1 69.5240 16.5338 12.8215 0.0000 0.0000 0.0000
# 2 16.5338 103.4277 35.8168 0.0000 0.0000 0.0000
# 3 12.8215 35.8168 115.5300 0.0000 0.0000 0.0000
# 4 0.0000 0.0000 0.0000 20.5730 0.0000 0.0000
# 5 0.0000 0.0000 0.0000 0.0000 7.2401 0.0000
# 6 0.0000 0.0000 0.0000 0.0000 0.0000 6.7561
#
#
#
# Elastic Compliance Matrix: (Units=1/GPa)
#
#
# Indices 1 2 3 4 5 6 
#
# 1 0.015062 -0.002049 -0.001036 0.000000 0.000000 0.000000
# 2 -0.002049 0.011110 -0.003217 0.000000 0.000000 0.000000
# 3 -0.001036 -0.003217 0.009768 0.000000 0.000000 0.000000
# 4 0.000000 0.000000 0.000000 0.048607 0.000000 0.000000
# 5 0.000000 0.000000 0.000000 0.000000 0.138120 0.000000
# 6 0.000000 0.000000 0.000000 0.000000 0.000000 0.148014
#
#
# Mechanical properties :
#
#
# Convention : Reuss Voigt Hill
#
# Bulk Modulus (GPa) = 42.85282 46.53618 44.69450
# Shear Modulus (GPa) = 12.78563 21.80115 17.29339
#
# Velocity S-wave (km/s) = 2.47239 3.22846 2.87538
# Velocity P-wave (km/s) = 5.35144 6.01214 5.69138
#
# Compressibility (1/GPa) = 0.02333569
#
# Stress axis : x y z
#
# Youngs Moduli (GPa) = 66.39266 90.00766 102.37390
#
# Poissons Ratio (x) = 0.18441 0.10610
# Poissons Ratio (y) = 0.13603 0.32934
# Poissons Ratio (z) = 0.06881 0.28956
#
# Static dielectric constant tensor:
#      x y z
#    x 1.738430 0.000000 0.000000 
#    y 0.000000 1.922320 0.000000 
#    z 0.000000 0.000000 1.788580 
# 
# From -- ./inp_files/41797.got.cif
#   From: 2010.05.17/outbox.cif.g08.bks.cpg/sg64_21_cif.got.tgz:41797.got - 2010.06.03 16:29:19.
