data_PCOD9480224
_publ_section_title
;
Structure prediction by ZEFSAII (Michael W. Deem and Ramdas Pophale) SiO2 
 PCOD9480224
Probable space group: C M C A
;
_chemical_formula_sum "Si O2"
_cell_formula_units_Z 64
_cell_length_a 15.878419
_cell_length_b 14.954743
_cell_length_c 11.314776
_cell_angle_alpha 90.000000
_cell_angle_beta 90.000000
_cell_angle_gamma 90.000000
_cell_volume 2686.780407
_symmetry_space_group_name_H-M "C M C A"
_symmetry_group_IT_number 64
_symmetry_cell_setting 'orthorhombic'
loop_
_space_group_symop_operation_xyz
x,y,z
-x,1/2-y,1/2+z
x,-y,-z
-x,1/2+y,1/2-z
-x,-y,-z
x,1/2+y,1/2-z
-x,y,z
x,1/2-y,1/2+z
1/2+x,1/2+y,z
1/2-x,-y,1/2+z
1/2+x,1/2-y,-z
1/2-x,y,1/2-z
1/2-x,1/2-y,-z
1/2+x,y,1/2-z
1/2-x,1/2+y,z
1/2+x,-y,1/2+z
loop_
_atom_site_type_symbol
_atom_site_label
_atom_site_fract_x
_atom_site_fract_y
_atom_site_fract_z
Si Si1 0.399657 0.585354 0.736054
Si Si2 0.175091 0.594868 0.004345
Si Si3 0.404038 0.777685 0.447949
Si Si4 0.861719 0.067633 0.098914
O O1 0.500000 0.593592 0.705026
O O2 0.334133 0.613987 0.635249
O O3 0.383303 0.651290 0.846169
O O4 0.381271 0.483703 0.780301
O O5 0.125024 0.500000 0.000000
O O6 0.146157 0.686710 0.061095
O O7 0.262978 0.573305 0.067869
O O8 0.500000 0.751500 0.436010
O O9 0.394089 0.833353 0.570444
O O10 0.900110 0.000000 0.000000
#
# Coordination Sequence:
#
# PCOD9480224 Si02
#       4
#    16  16  16  16
#     4  10  22  42  68  95 129 174 220 269 326 385
#     4  11  24  40  62  95 134 170 213 270 327 387
#     4  10  21  39  63  92 128 171 218 266 321 388
#     4   9  20  39  63  91 123 165 217 270 321 381
#
# _framework density 23.820330999999999
#
# number of rings (size 3 to 8) (size 9 to 14) (size 15 to 20)
#    0.000    2.000    0.000    2.250    0.000   16.000 
#    0.000    7.500    0.000    0.000    0.000    0.000 
#    0.000    0.000    0.000    0.000    0.000    0.000 
#
# Total GULP energy -178468.118500 kJ/mol
# GULP energy per Si atom -5577.128703 kJ/mol
# Density = 2.376611 g / cm^3
# Si number density = 23.820331 Si / 1000 Ang^3
#
#
#
# Elastic Constant Matrix: (Units=GPa)
#
#
# Indices 1 2 3 4 5 6 
#
# 1 72.0213 38.4268 18.5101 0.0000 0.0000 0.0000
# 2 38.4268 126.7482 -12.3113 0.0000 0.0000 0.0000
# 3 18.5101 -12.3113 34.4926 0.0000 0.0000 0.0000
# 4 0.0000 0.0000 0.0000 18.8189 0.0000 0.0000
# 5 0.0000 0.0000 0.0000 0.0000 7.0411 0.0000
# 6 0.0000 0.0000 0.0000 0.0000 0.0000 26.2367
#
#
#
# Elastic Compliance Matrix: (Units=1/GPa)
#
#
# Indices 1 2 3 4 5 6 
#
# 1 0.021972 -0.008087 -0.014677 0.000000 0.000000 0.000000
# 2 -0.008087 0.011149 0.008319 0.000000 0.000000 0.000000
# 3 -0.014677 0.008319 0.039837 0.000000 0.000000 0.000000
# 4 0.000000 0.000000 0.000000 0.053138 0.000000 0.000000
# 5 0.000000 0.000000 0.000000 0.000000 0.142023 0.000000
# 6 0.000000 0.000000 0.000000 0.000000 0.000000 0.038115
#
#
# Mechanical properties :
#
#
# Convention : Reuss Voigt Hill
#
# Bulk Modulus (GPa) = 22.69178 35.83481 29.26330
# Shear Modulus (GPa) = 14.29334 22.99511 18.64423
#
# Velocity S-wave (km/s) = 2.45225 3.11039 2.80072
# Velocity P-wave (km/s) = 4.19105 5.28922 4.77183
#
# Compressibility (1/GPa) = 0.04406882
#
# Stress axis : x y z
#
# Youngs Moduli (GPa) = 45.51305 89.69032 25.10200
#
# Poissons Ratio (x) = 0.72532 0.36843
# Poissons Ratio (y) = 0.36806 -0.20883
# Poissons Ratio (z) = 0.66801 -0.74616
#
# Static dielectric constant tensor:
#      x y z
#    x 1.929960 0.000000 0.000000 
#    y 0.000000 2.009570 0.000000 
#    z 0.000000 0.000000 2.070480 
# 
# From -- ./inp_files/15447.got.cif
#   From: 2010.05.17/outbox.cif.g08.bks.cpg/sg64_8_cif.got.tgz:15447.got - 2010.06.03 16:29:19.
