data_PCOD9480971
_publ_section_title
;
Structure prediction by ZEFSAII (Michael W. Deem and Ramdas Pophale) SiO2 
 PCOD9480971
Probable space group: C M C A
;
_chemical_formula_sum "Si O2"
_cell_formula_units_Z 88
_cell_length_a 13.767627
_cell_length_b 21.109112
_cell_length_c 17.052169
_cell_angle_alpha 90.000000
_cell_angle_beta 90.000000
_cell_angle_gamma 90.000000
_cell_volume 4955.741944
_symmetry_space_group_name_H-M "C M C A"
_symmetry_group_IT_number 64
_symmetry_cell_setting 'orthorhombic'
loop_
_space_group_symop_operation_xyz
x,y,z
-x,1/2-y,1/2+z
x,-y,-z
-x,1/2+y,1/2-z
-x,-y,-z
x,1/2+y,1/2-z
-x,y,z
x,1/2-y,1/2+z
1/2+x,1/2+y,z
1/2-x,-y,1/2+z
1/2+x,1/2-y,-z
1/2-x,y,1/2-z
1/2-x,1/2-y,-z
1/2+x,y,1/2-z
1/2-x,1/2+y,z
1/2+x,-y,1/2+z
loop_
_atom_site_type_symbol
_atom_site_label
_atom_site_fract_x
_atom_site_fract_y
_atom_site_fract_z
Si Si1 0.500000 0.076918 0.290985
Si Si2 0.302788 0.198184 0.833871
Si Si3 0.164060 0.000000 0.500000
Si Si4 0.611395 0.670508 0.111525
Si Si5 0.500000 0.019838 0.120710
Si Si6 0.000000 0.879550 0.307447
Si Si7 0.690293 0.390376 0.046825
Si Si8 0.500000 0.937665 0.364291
O O1 0.408438 0.118747 0.320120
O O2 0.500000 0.061245 0.199382
O O3 0.500000 0.011003 0.338358
O O4 0.250000 0.197353 0.750000
O O5 0.329556 0.269202 0.859326
O O6 0.403560 0.159538 0.827346
O O7 0.234927 0.163429 0.897209
O O8 0.230931 0.945431 0.464336
O O9 0.094084 0.029132 0.433437
O O10 0.500000 0.690026 0.089628
O O11 0.660743 0.638395 0.036893
O O12 0.500000 0.946206 0.146883
O O13 0.000000 0.897023 0.215550
O O14 0.595021 0.420402 0.086392
#
# Coordination Sequence:
#
# PCOD9480971 Si02
#       8
#     8  16   8  16   8   8  16   8
#     4   9  21  42  68  88 128 175 206 266 341 373
#     4  12  24  41  68  92 127 176 222 266 321 389
#     4  11  24  37  66  98 134 167 214 269 342 396
#     4  10  23  42  62  89 133 170 211 273 322 384
#     4  10  22  42  62  94 132 168 209 273 332 399
#     4  11  20  42  62  93 125 159 217 272 316 376
#     4  12  23  40  64 100 127 172 217 272 333 388
#     4  11  21  38  70  94 127 160 220 280 316 384
#
# _framework density 17.757180000000002
#
# number of rings (size 3 to 8) (size 9 to 14) (size 15 to 20)
#    0.545    0.545    5.455    1.636    0.000    2.545 
#    0.000    1.818    0.000    0.000    0.000    0.000 
#    0.000    0.000    0.000    0.000    0.000    0.000 
#
# Total GULP energy -245699.572768 kJ/mol
# GULP energy per Si atom -5584.081199 kJ/mol
# Density = 1.771676 g / cm^3
# Si number density = 17.757180 Si / 1000 Ang^3
#
#
#
# Elastic Constant Matrix: (Units=GPa)
#
#
# Indices 1 2 3 4 5 6 
#
# 1 123.0497 47.6543 58.9984 0.0000 0.0000 0.0000
# 2 47.6543 105.6233 57.5191 0.0000 0.0000 0.0000
# 3 58.9984 57.5191 118.4283 0.0000 0.0000 0.0000
# 4 0.0000 0.0000 0.0000 30.5549 0.0000 0.0000
# 5 0.0000 0.0000 0.0000 0.0000 28.0202 0.0000
# 6 0.0000 0.0000 0.0000 0.0000 0.0000 3.6796
#
#
#
# Elastic Compliance Matrix: (Units=1/GPa)
#
#
# Indices 1 2 3 4 5 6 
#
# 1 0.011235 -0.002748 -0.004262 0.000000 0.000000 0.000000
# 2 -0.002748 0.013544 -0.005209 0.000000 0.000000 0.000000
# 3 -0.004262 -0.005209 0.013097 0.000000 0.000000 0.000000
# 4 0.000000 0.000000 0.000000 0.032728 0.000000 0.000000
# 5 0.000000 0.000000 0.000000 0.000000 0.035688 0.000000
# 6 0.000000 0.000000 0.000000 0.000000 0.000000 0.271772
#
#
# Mechanical properties :
#
#
# Convention : Reuss Voigt Hill
#
# Bulk Modulus (GPa) = 74.41882 75.04944 74.73413
# Shear Modulus (GPa) = 12.28554 24.64624 18.46589
#
# Velocity S-wave (km/s) = 2.63318 3.72957 3.22826
# Velocity P-wave (km/s) = 7.15856 7.80399 7.48823
#
# Compressibility (1/GPa) = 0.01343746
#
# Stress axis : x y z
#
# Youngs Moduli (GPa) = 89.01134 73.83278 76.35062
#
# Poissons Ratio (x) = 0.20286 0.32543
# Poissons Ratio (y) = 0.24457 0.39774
# Poissons Ratio (z) = 0.37940 0.38463
#
# Static dielectric constant tensor:
#      x y z
#    x 1.588520 0.000000 0.000000 
#    y 0.000000 1.578420 0.000000 
#    z 0.000000 0.000000 1.580950 
# 
# From -- ./inp_files/32233.got.cif
#   From: 2010.05.17/outbox.cif.g08.bks.cpg/sg64_17_cif.got.tgz:32233.got - 2010.06.03 16:29:19.
