data_PCOD9480499
_publ_section_title
;
Structure prediction by ZEFSAII (Michael W. Deem and Ramdas Pophale) SiO2 
 PCOD9480499
Probable space group: C M C A
;
_chemical_formula_sum "Si O2"
_cell_formula_units_Z 72
_cell_length_a 16.319399
_cell_length_b 15.429515
_cell_length_c 10.689620
_cell_angle_alpha 90.000000
_cell_angle_beta 90.000000
_cell_angle_gamma 90.000000
_cell_volume 2691.650717
_symmetry_space_group_name_H-M "C M C A"
_symmetry_group_IT_number 64
_symmetry_cell_setting 'orthorhombic'
loop_
_space_group_symop_operation_xyz
x,y,z
-x,1/2-y,1/2+z
x,-y,-z
-x,1/2+y,1/2-z
-x,-y,-z
x,1/2+y,1/2-z
-x,y,z
x,1/2-y,1/2+z
1/2+x,1/2+y,z
1/2-x,-y,1/2+z
1/2+x,1/2-y,-z
1/2-x,y,1/2-z
1/2-x,1/2-y,-z
1/2+x,y,1/2-z
1/2-x,1/2+y,z
1/2+x,-y,1/2+z
loop_
_atom_site_type_symbol
_atom_site_label
_atom_site_fract_x
_atom_site_fract_y
_atom_site_fract_z
Si Si1 0.683631 0.497043 0.646532
Si Si2 0.000000 0.094940 0.102895
Si Si3 0.000000 0.020536 0.682587
Si Si4 0.000000 0.220048 0.747091
Si Si5 0.298785 0.189163 0.858103
Si Si6 0.127772 0.312495 0.464243
O O1 0.709993 0.500000 0.500000
O O2 0.750000 0.459716 0.750000
O O3 0.585776 0.473150 0.640306
O O4 0.674770 0.596528 0.692353
O O5 0.000000 0.183393 0.187814
O O6 0.919192 0.107726 0.022123
O O7 0.000000 0.005752 0.173181
O O8 0.000000 0.125762 0.674215
O O9 0.078712 0.216100 0.841402
O O10 0.250000 0.240978 0.750000
O O11 0.369401 0.235492 0.933675
O O12 0.223061 0.169489 0.949381
#
# Coordination Sequence:
#
# PCOD9480499 Si02
#       6
#    16   8   8   8  16  16
#     4  11  26  47  74 106 151 198 247 319 382 459
#     4  11  25  41  68 104 137 181 246 295 380 444
#     4  12  27  47  74 106 147 197 248 317 377 461
#     4  11  23  45  66  98 141 182 240 309 381 443
#     4  10  21  42  67  96 139 188 240 297 381 442
#     4  10  22  39  69  97 134 185 233 305 360 465
#
# _framework density 26.749383000000002
#
# number of rings (size 3 to 8) (size 9 to 14) (size 15 to 20)
#    0.000    1.333    0.000    5.667    6.222    2.667 
#    0.000    0.000    0.000    0.000    0.000    0.000 
#    0.000    0.000    0.000    0.000    0.000    0.000 
#
# Total GULP energy -200688.955427 kJ/mol
# GULP energy per Si atom -5574.693206 kJ/mol
# Density = 2.668850 g / cm^3
# Si number density = 26.749383 Si / 1000 Ang^3
#
#
#
# Elastic Constant Matrix: (Units=GPa)
#
#
# Indices 1 2 3 4 5 6 
#
# 1 148.4109 15.3747 24.3221 0.0000 0.0000 0.0000
# 2 15.3747 79.6694 18.5785 0.0000 0.0000 0.0000
# 3 24.3221 18.5785 114.9457 0.0000 0.0000 0.0000
# 4 0.0000 0.0000 0.0000 47.6599 0.0000 0.0000
# 5 0.0000 0.0000 0.0000 0.0000 25.5699 0.0000
# 6 0.0000 0.0000 0.0000 0.0000 0.0000 12.2450
#
#
#
# Elastic Compliance Matrix: (Units=1/GPa)
#
#
# Indices 1 2 3 4 5 6 
#
# 1 0.007064 -0.001054 -0.001324 0.000000 0.000000 0.000000
# 2 -0.001054 0.013201 -0.001911 0.000000 0.000000 0.000000
# 3 -0.001324 -0.001911 0.009289 0.000000 0.000000 0.000000
# 4 0.000000 0.000000 0.000000 0.020982 0.000000 0.000000
# 5 0.000000 0.000000 0.000000 0.000000 0.039108 0.000000
# 6 0.000000 0.000000 0.000000 0.000000 0.000000 0.081666
#
#
# Mechanical properties :
#
#
# Convention : Reuss Voigt Hill
#
# Bulk Modulus (GPa) = 47.67503 51.06406 49.36954
# Shear Modulus (GPa) = 26.75497 36.07833 31.41665
#
# Velocity S-wave (km/s) = 3.16604 3.67652 3.43079
# Velocity P-wave (km/s) = 5.58808 6.09538 5.84723
#
# Compressibility (1/GPa) = 0.02097534
#
# Stress axis : x y z
#
# Youngs Moduli (GPa) = 141.55627 75.75247 107.65668
#
# Poissons Ratio (x) = 0.07988 0.14258
# Poissons Ratio (y) = 0.14926 0.20568
# Poissons Ratio (z) = 0.18747 0.14473
#
# Static dielectric constant tensor:
#      x y z
#    x 2.253160 0.000000 0.000000 
#    y 0.000000 2.020870 0.000000 
#    z 0.000000 0.000000 2.272130 
# 
# From -- ./inp_files/15823.got.cif
#   From: 2010.05.17/outbox.cif.g08.bks.cpg/sg64_8_cif.got.tgz:15823.got - 2010.06.03 16:29:19.
