data_PCOD9480084
_publ_section_title
;
Structure prediction by ZEFSAII (Michael W. Deem and Ramdas Pophale) SiO2 
 PCOD9480084
Probable space group: C M C A
;
_chemical_formula_sum "Si O2"
_cell_formula_units_Z 88
_cell_length_a 14.476442
_cell_length_b 11.238433
_cell_length_c 24.373658
_cell_angle_alpha 90.000000
_cell_angle_beta 90.000000
_cell_angle_gamma 90.000000
_cell_volume 3965.411927
_symmetry_space_group_name_H-M "C M C A"
_symmetry_group_IT_number 64
_symmetry_cell_setting 'orthorhombic'
loop_
_space_group_symop_operation_xyz
x,y,z
-x,1/2-y,1/2+z
x,-y,-z
-x,1/2+y,1/2-z
-x,-y,-z
x,1/2+y,1/2-z
-x,y,z
x,1/2-y,1/2+z
1/2+x,1/2+y,z
1/2-x,-y,1/2+z
1/2+x,1/2-y,-z
1/2-x,y,1/2-z
1/2-x,1/2-y,-z
1/2+x,y,1/2-z
1/2-x,1/2+y,z
1/2+x,-y,1/2+z
loop_
_atom_site_type_symbol
_atom_site_label
_atom_site_fract_x
_atom_site_fract_y
_atom_site_fract_z
Si Si1 0.349152 0.500000 0.500000
Si Si2 0.107584 0.742512 0.709547
Si Si3 0.397290 0.491286 0.134081
Si Si4 0.751340 0.856326 0.078530
Si Si5 0.606457 0.652778 0.399256
Si Si6 0.392549 0.736099 0.668445
O O1 0.293196 0.613127 0.521116
O O2 0.393925 0.455581 0.557480
O O3 0.112705 0.616158 0.677913
O O4 0.136887 0.845440 0.665718
O O5 0.147230 0.724355 0.770086
O O6 0.000000 0.769572 0.721503
O O7 0.500000 0.477839 0.108627
O O8 0.310205 0.473296 0.094910
O O9 0.394232 0.622539 0.158177
O O10 0.826951 0.753683 0.077648
O O11 0.674173 0.824274 0.123917
O O12 0.500000 0.693248 0.396713
O O13 0.500000 0.692202 0.663939
#
# Coordination Sequence:
#
# PCOD9480084 Si02
#       6
#     8  16  16  16  16  16
#     4  12  25  40  59  88 126 164 201 250 307 360
#     4   8  17  36  61  89 121 157 200 252 305 356
#     4   9  19  38  61  84 116 158 202 248 301 359
#     4  11  23  41  60  87 121 158 202 254 301 357
#     4  10  22  41  62  85 119 161 204 250 302 361
#     4  10  21  38  62  91 122 159 204 250 299 362
#
# _framework density 22.191893
#
# number of rings (size 3 to 8) (size 9 to 14) (size 15 to 20)
#    0.000    2.182    0.000    3.545    0.000    5.818 
#    0.000   10.909    0.000    0.000    0.000    0.000 
#    0.000    0.000    0.000    0.000    0.000    0.000 
#
# Total GULP energy -245055.912066 kJ/mol
# GULP energy per Si atom -5569.452547 kJ/mol
# Density = 2.214138 g / cm^3
# Si number density = 22.191893 Si / 1000 Ang^3
#
#
#
# Elastic Constant Matrix: (Units=GPa)
#
#
# Indices 1 2 3 4 5 6 
#
# 1 106.7760 22.7630 46.8159 0.0000 0.0000 0.0000
# 2 22.7630 37.1827 35.3779 0.0000 0.0000 0.0000
# 3 46.8159 35.3779 132.4952 0.0000 0.0000 0.0000
# 4 0.0000 0.0000 0.0000 37.0238 0.0000 0.0000
# 5 0.0000 0.0000 0.0000 0.0000 -424.9425 0.0000
# 6 0.0000 0.0000 0.0000 0.0000 0.0000 28.3582
#
#
#
# Elastic Compliance Matrix: (Units=1/GPa)
#
#
# Indices 1 2 3 4 5 6 
#
# 1 0.011569 -0.004281 -0.002945 0.000000 0.000000 0.000000
# 2 -0.004281 0.037638 -0.008537 0.000000 0.000000 0.000000
# 3 -0.002945 -0.008537 0.010868 0.000000 0.000000 0.000000
# 4 0.000000 0.000000 0.000000 0.027010 0.000000 0.000000
# 5 0.000000 0.000000 0.000000 0.000000 -0.002353 0.000000
# 6 0.000000 0.000000 0.000000 0.000000 0.000000 0.035263
#
#
# Mechanical properties :
#
#
# Convention : Reuss Voigt Hill
#
# Bulk Modulus (GPa) = 35.02761 54.04084 44.53422
# Shear Modulus (GPa) = 31.04903 -60.47897 -14.71497
#
# Velocity S-wave (km/s) = 3.74453 -5.22608 -2.57782
# Velocity P-wave (km/s) = 5.87483 3.46574 3.35427
#
# Compressibility (1/GPa) = 0.02854891
#
# Stress axis : x y z
#
# Youngs Moduli (GPa) = 86.43679 26.56912 92.01721
#
# Poissons Ratio (x) = 0.11373 0.27098
# Poissons Ratio (y) = 0.37000 0.78557
# Poissons Ratio (z) = 0.25454 0.22683
#
# Static dielectric constant tensor:
#      x y z
#    x 1.875800 0.000000 0.000000 
#    y 0.000000 1.833650 0.000000 
#    z 0.000000 0.000000 1.901150 
# 
# From -- ./inp_files/45061.got.cif
#   From: 2010.05.17/outbox.cif.g08.bks.cpg/sg64_23_cif.got.tgz:45061.got - 2010.06.03 16:29:19.
