data_PCOD9480720
_publ_section_title
;
Structure prediction by ZEFSAII (Michael W. Deem and Ramdas Pophale) SiO2 
 PCOD9480720
Probable space group: C M C A
;
_chemical_formula_sum "Si O2"
_cell_formula_units_Z 64
_cell_length_a 27.445363
_cell_length_b 18.174677
_cell_length_c 5.089898
_cell_angle_alpha 90.000000
_cell_angle_beta 90.000000
_cell_angle_gamma 90.000000
_cell_volume 2538.895114
_symmetry_space_group_name_H-M "C M C A"
_symmetry_group_IT_number 64
_symmetry_cell_setting 'orthorhombic'
loop_
_space_group_symop_operation_xyz
x,y,z
-x,1/2-y,1/2+z
x,-y,-z
-x,1/2+y,1/2-z
-x,-y,-z
x,1/2+y,1/2-z
-x,y,z
x,1/2-y,1/2+z
1/2+x,1/2+y,z
1/2-x,-y,1/2+z
1/2+x,1/2-y,-z
1/2-x,y,1/2-z
1/2-x,1/2-y,-z
1/2+x,y,1/2-z
1/2-x,1/2+y,z
1/2+x,-y,1/2+z
loop_
_atom_site_type_symbol
_atom_site_label
_atom_site_fract_x
_atom_site_fract_y
_atom_site_fract_z
Si Si1 0.392019 0.696608 0.807149
Si Si2 0.250000 0.446514 0.750000
Si Si3 0.553222 0.553245 0.247690
Si Si4 0.000000 0.698409 0.724452
Si Si5 0.151657 0.912311 0.545643
O O1 0.386957 0.744639 0.067925
O O2 0.446943 0.661780 0.796503
O O3 0.355194 0.632351 0.723168
O O4 0.239895 0.500000 0.500000
O O5 0.202604 0.397924 0.813823
O O6 0.551005 0.500000 0.500000
O O7 0.500000 0.591237 0.235241
O O8 0.602064 0.600020 0.288320
O O9 0.558127 0.500000 0.000000
O O10 0.000000 0.740401 0.999422
O O11 0.153237 0.000000 0.500000
#
# Coordination Sequence:
#
# PCOD9480720 Si02
#       5
#    16   8  16   8  16
#     4  10  22  39  60  87 123 161 202 247 304 364
#     4  10  22  40  62  90 122 160 202 254 310 366
#     4   9  18  32  51  81 116 146 183 240 297 343
#     4   8  16  34  55  78 115 162 196 230 292 368
#     4  10  22  40  65  90 121 160 209 252 306 361
#
# _framework density 25.207815
#
# number of rings (size 3 to 8) (size 9 to 14) (size 15 to 20)
#    0.000    2.500    0.000    0.750    1.750    8.000 
#    0.000    1.250    0.000    0.000    0.000    0.000 
#    0.000    0.000    0.000    0.000    0.000    0.000 
#
# Total GULP energy -179202.062076 kJ/mol
# GULP energy per Si atom -5600.064440 kJ/mol
# Density = 2.515044 g / cm^3
# Si number density = 25.207815 Si / 1000 Ang^3
#
#
#
# Elastic Constant Matrix: (Units=GPa)
#
#
# Indices 1 2 3 4 5 6 
#
# 1 172.3658 6.2447 3.9003 0.0000 0.0000 0.0000
# 2 6.2447 103.2650 26.9281 0.0000 0.0000 0.0000
# 3 3.9003 26.9281 145.1375 0.0000 0.0000 0.0000
# 4 0.0000 0.0000 0.0000 37.6013 0.0000 0.0000
# 5 0.0000 0.0000 0.0000 0.0000 37.4184 0.0000
# 6 0.0000 0.0000 0.0000 0.0000 0.0000 6.9173
#
#
#
# Elastic Compliance Matrix: (Units=1/GPa)
#
#
# Indices 1 2 3 4 5 6 
#
# 1 0.005816 -0.000327 -0.000096 0.000000 0.000000 0.000000
# 2 -0.000327 0.010195 -0.001883 0.000000 0.000000 0.000000
# 3 -0.000096 -0.001883 0.007242 0.000000 0.000000 0.000000
# 4 0.000000 0.000000 0.000000 0.026595 0.000000 0.000000
# 5 0.000000 0.000000 0.000000 0.000000 0.026725 0.000000
# 6 0.000000 0.000000 0.000000 0.000000 0.000000 0.144566
#
#
# Mechanical properties :
#
#
# Convention : Reuss Voigt Hill
#
# Bulk Modulus (GPa) = 53.64263 54.99052 54.31657
# Shear Modulus (GPa) = 21.55527 41.96705 31.76116
#
# Velocity S-wave (km/s) = 2.92739 4.08468 3.55346
# Velocity P-wave (km/s) = 5.72298 6.64141 6.19923
#
# Compressibility (1/GPa) = 0.01864189
#
# Stress axis : x y z
#
# Youngs Moduli (GPa) = 171.95082 98.09193 138.08549
#
# Poissons Ratio (x) = 0.03205 0.01321
# Poissons Ratio (y) = 0.05618 0.25997
# Poissons Ratio (z) = 0.01645 0.18467
#
# Static dielectric constant tensor:
#      x y z
#    x 2.049300 0.000000 0.000000 
#    y 0.000000 1.971070 0.000000 
#    z 0.000000 0.000000 2.086160 
# 
# From -- ./inp_files/2736.got.cif
#   From: 2010.05.17/outbox.cif.g08.bks.cpg/sg64_2_cif.got.tgz:2736.got - 2010.06.03 16:29:19.
