data_PCOD9480539
_publ_section_title
;
Structure prediction by ZEFSAII (Michael W. Deem and Ramdas Pophale) SiO2 
 PCOD9480539
Probable space group: C M C A
;
_chemical_formula_sum "Si O2"
_cell_formula_units_Z 80
_cell_length_a 26.360345
_cell_length_b 10.062280
_cell_length_c 15.829706
_cell_angle_alpha 90.000000
_cell_angle_beta 90.000000
_cell_angle_gamma 90.000000
_cell_volume 4198.753095
_symmetry_space_group_name_H-M "C M C A"
_symmetry_group_IT_number 64
_symmetry_cell_setting 'orthorhombic'
loop_
_space_group_symop_operation_xyz
x,y,z
-x,1/2-y,1/2+z
x,-y,-z
-x,1/2+y,1/2-z
-x,-y,-z
x,1/2+y,1/2-z
-x,y,z
x,1/2-y,1/2+z
1/2+x,1/2+y,z
1/2-x,-y,1/2+z
1/2+x,1/2-y,-z
1/2-x,y,1/2-z
1/2-x,1/2-y,-z
1/2+x,y,1/2-z
1/2-x,1/2+y,z
1/2+x,-y,1/2+z
loop_
_atom_site_type_symbol
_atom_site_label
_atom_site_fract_x
_atom_site_fract_y
_atom_site_fract_z
Si Si1 0.058510 0.885629 0.571152
Si Si2 0.626303 0.651703 0.994314
Si Si3 0.781531 0.732695 0.085740
Si Si4 0.652178 0.458447 0.679050
Si Si5 0.178082 0.758970 0.829066
O O1 0.081971 0.751275 0.532392
O O2 0.095779 0.928210 0.646444
O O3 0.000000 0.870215 0.595787
O O4 0.061914 0.000000 0.500000
O O5 0.650582 0.699758 0.083110
O O6 0.610236 0.500000 0.000000
O O7 0.671568 0.666398 0.924738
O O8 0.809345 0.592354 0.104509
O O9 0.738356 0.751383 0.154916
O O10 0.750000 0.750000 0.000000
O O11 0.665520 0.367289 0.758608
O O12 0.659337 0.612927 0.695712
#
# Coordination Sequence:
#
# PCOD9480539 Si02
#       5
#    16  16  16  16  16
#     4  10  21  44  70  89 115 163 216 268 321 370
#     4  10  22  39  65  93 125 160 212 263 304 368
#     4   9  22  36  61  87 123 165 210 250 300 364
#     4  11  24  40  60  92 127 166 209 258 314 381
#     4  11  24  39  59  90 133 167 204 252 315 375
#
# _framework density 19.053277000000001
#
# number of rings (size 3 to 8) (size 9 to 14) (size 15 to 20)
#    0.000    1.800    2.000    0.600   11.200    2.000 
#    0.000    2.000    0.000    0.000    0.000    0.000 
#    0.000    0.000    0.000    0.000    0.000    0.000 
#
# Total GULP energy -223336.687584 kJ/mol
# GULP energy per Si atom -5583.417190 kJ/mol
# Density = 1.900991 g / cm^3
# Si number density = 19.053277 Si / 1000 Ang^3
#
#
#
# Elastic Constant Matrix: (Units=GPa)
#
#
# Indices 1 2 3 4 5 6 
#
# 1 157.5286 61.1721 51.0971 0.0000 0.0000 0.0000
# 2 61.1721 165.0169 38.1425 0.0000 0.0000 0.0000
# 3 51.0971 38.1425 93.2102 0.0000 0.0000 0.0000
# 4 0.0000 0.0000 0.0000 33.2308 0.0000 0.0000
# 5 0.0000 0.0000 0.0000 0.0000 12.5214 0.0000
# 6 0.0000 0.0000 0.0000 0.0000 0.0000 11.3084
#
#
#
# Elastic Compliance Matrix: (Units=1/GPa)
#
#
# Indices 1 2 3 4 5 6 
#
# 1 0.008427 -0.002271 -0.003690 0.000000 0.000000 0.000000
# 2 -0.002271 0.007305 -0.001744 0.000000 0.000000 0.000000
# 3 -0.003690 -0.001744 0.013465 0.000000 0.000000 0.000000
# 4 0.000000 0.000000 0.000000 0.030093 0.000000 0.000000
# 5 0.000000 0.000000 0.000000 0.000000 0.079863 0.000000
# 6 0.000000 0.000000 0.000000 0.000000 0.000000 0.088430
#
#
# Mechanical properties :
#
#
# Convention : Reuss Voigt Hill
#
# Bulk Modulus (GPa) = 72.53731 79.61992 76.07861
# Shear Modulus (GPa) = 20.19475 29.10173 24.64824
#
# Velocity S-wave (km/s) = 3.25916 3.91242 3.60063
# Velocity P-wave (km/s) = 7.23300 7.89228 7.56982
#
# Compressibility (1/GPa) = 0.01378601
#
# Stress axis : x y z
#
# Youngs Moduli (GPa) = 118.66757 136.89232 74.26521
#
# Poissons Ratio (x) = 0.31087 0.27406
# Poissons Ratio (y) = 0.26948 0.12955
# Poissons Ratio (z) = 0.43792 0.23879
#
# Static dielectric constant tensor:
#      x y z
#    x 1.641690 0.000000 0.000000 
#    y 0.000000 1.650990 0.000000 
#    z 0.000000 0.000000 1.712250 
# 
# From -- ./inp_files/35325.got.cif
#   From: 2010.05.17/outbox.cif.g08.bks.cpg/sg64_18_cif.got.tgz:35325.got - 2010.06.03 16:29:19.
