data_PCOD9480835
_publ_section_title
;
Structure prediction by ZEFSAII (Michael W. Deem and Ramdas Pophale) SiO2 
 PCOD9480835
Probable space group: C M C A
;
_chemical_formula_sum "Si O2"
_cell_formula_units_Z 80
_cell_length_a 14.159398
_cell_length_b 20.761566
_cell_length_c 11.632271
_cell_angle_alpha 90.000000
_cell_angle_beta 90.000000
_cell_angle_gamma 90.000000
_cell_volume 3419.553550
_symmetry_space_group_name_H-M "C M C A"
_symmetry_group_IT_number 64
_symmetry_cell_setting 'orthorhombic'
loop_
_space_group_symop_operation_xyz
x,y,z
-x,1/2-y,1/2+z
x,-y,-z
-x,1/2+y,1/2-z
-x,-y,-z
x,1/2+y,1/2-z
-x,y,z
x,1/2-y,1/2+z
1/2+x,1/2+y,z
1/2-x,-y,1/2+z
1/2+x,1/2-y,-z
1/2-x,y,1/2-z
1/2-x,1/2-y,-z
1/2+x,y,1/2-z
1/2-x,1/2+y,z
1/2+x,-y,1/2+z
loop_
_atom_site_type_symbol
_atom_site_label
_atom_site_fract_x
_atom_site_fract_y
_atom_site_fract_z
Si Si1 0.390748 0.871733 0.501805
Si Si2 0.285335 0.867084 0.132439
Si Si3 0.319452 0.500020 0.362467
Si Si4 0.390329 0.628488 0.260908
Si Si5 0.109870 0.780271 0.546379
O O1 0.500000 0.894767 0.489720
O O2 0.310384 0.899232 0.419493
O O3 0.352894 0.880971 0.631929
O O4 0.389178 0.795971 0.470257
O O5 0.250000 0.837119 0.250000
O O6 0.328669 0.814778 0.049719
O O7 0.356764 0.926575 0.151400
O O8 0.296675 0.500000 0.500000
O O9 0.250000 0.503703 0.250000
O O10 0.379354 0.564553 0.337712
O O11 0.500000 0.641308 0.237454
O O12 0.355786 0.690015 0.332658
O O13 0.000000 0.800120 0.534011
#
# Coordination Sequence:
#
# PCOD9480835 Si02
#       5
#    16  16  16  16  16
#     4  10  23  43  66  95 135 175 217 267 328 401
#     4  11  24  39  61  96 130 174 221 266 331 383
#     4  11  22  40  63  90 130 172 213 275 324 389
#     4  10  22  40  66  95 123 171 220 267 334 391
#     4  10  22  40  64  96 131 167 214 270 325 390
#
# _framework density 23.394867000000001
#
# number of rings (size 3 to 8) (size 9 to 14) (size 15 to 20)
#    0.000    1.600    2.000    1.800    2.800    2.000 
#    0.000    3.000    0.000   10.800    0.000    0.000 
#    0.000    0.000    0.000    0.000    0.000    0.000 
#
# Total GULP energy -222932.296406 kJ/mol
# GULP energy per Si atom -5573.307410 kJ/mol
# Density = 2.334162 g / cm^3
# Si number density = 23.394867 Si / 1000 Ang^3
#
#
#
# Elastic Constant Matrix: (Units=GPa)
#
#
# Indices 1 2 3 4 5 6 
#
# 1 57.6765 -7.1952 20.9306 0.0000 0.0000 0.0000
# 2 -7.1952 47.1942 -10.8693 0.0000 0.0000 0.0000
# 3 20.9306 -10.8693 159.0832 0.0000 0.0000 0.0000
# 4 0.0000 0.0000 0.0000 29.1610 0.0000 0.0000
# 5 0.0000 0.0000 0.0000 0.0000 22.8083 0.0000
# 6 0.0000 0.0000 0.0000 0.0000 0.0000 15.9431
#
#
#
# Elastic Compliance Matrix: (Units=1/GPa)
#
#
# Indices 1 2 3 4 5 6 
#
# 1 0.018448 0.002290 -0.002271 0.000000 0.000000 0.000000
# 2 0.002290 0.021812 0.001189 0.000000 0.000000 0.000000
# 3 -0.002271 0.001189 0.006666 0.000000 0.000000 0.000000
# 4 0.000000 0.000000 0.000000 0.034292 0.000000 0.000000
# 5 0.000000 0.000000 0.000000 0.000000 0.043844 0.000000
# 6 0.000000 0.000000 0.000000 0.000000 0.000000 0.062723
#
#
# Mechanical properties :
#
#
# Convention : Reuss Voigt Hill
#
# Bulk Modulus (GPa) = 20.26694 29.96514 25.11604
# Shear Modulus (GPa) = 24.77502 30.98834 27.88168
#
# Velocity S-wave (km/s) = 3.25775 3.64342 3.45597
# Velocity P-wave (km/s) = 4.77832 5.52590 5.16566
#
# Compressibility (1/GPa) = 0.04934144
#
# Stress axis : x y z
#
# Youngs Moduli (GPa) = 54.20713 45.84645 150.01452
#
# Poissons Ratio (x) = -0.10497 0.34064
# Poissons Ratio (y) = -0.12411 -0.17838
# Poissons Ratio (z) = 0.12309 -0.05451
#
# Static dielectric constant tensor:
#      x y z
#    x 1.931730 0.000000 0.000000 
#    y 0.000000 1.880310 0.000000 
#    z 0.000000 0.000000 1.917100 
# 
# From -- ./inp_files/14459.got.cif
#   From: 2010.05.17/outbox.cif.g08.bks.cpg/sg64_8_cif.got.tgz:14459.got - 2010.06.03 16:29:19.
