data_PCOD9480643
_publ_section_title
;
Structure prediction by ZEFSAII (Michael W. Deem and Ramdas Pophale) SiO2 
 PCOD9480643
Probable space group: C M C A
;
_chemical_formula_sum "Si O2"
_cell_formula_units_Z 80
_cell_length_a 17.389366
_cell_length_b 25.409357
_cell_length_c 7.927882
_cell_angle_alpha 90.000000
_cell_angle_beta 90.000000
_cell_angle_gamma 90.000000
_cell_volume 3502.955343
_symmetry_space_group_name_H-M "C M C A"
_symmetry_group_IT_number 64
_symmetry_cell_setting 'orthorhombic'
loop_
_space_group_symop_operation_xyz
x,y,z
-x,1/2-y,1/2+z
x,-y,-z
-x,1/2+y,1/2-z
-x,-y,-z
x,1/2+y,1/2-z
-x,y,z
x,1/2-y,1/2+z
1/2+x,1/2+y,z
1/2-x,-y,1/2+z
1/2+x,1/2-y,-z
1/2-x,y,1/2-z
1/2-x,1/2-y,-z
1/2+x,y,1/2-z
1/2-x,1/2+y,z
1/2+x,-y,1/2+z
loop_
_atom_site_type_symbol
_atom_site_label
_atom_site_fract_x
_atom_site_fract_y
_atom_site_fract_z
Si Si1 0.411902 0.261210 0.198608
Si Si2 0.089647 0.880119 0.282210
Si Si3 0.817966 0.087822 0.045005
Si Si4 0.311376 0.789871 0.578552
Si Si5 0.853527 0.054563 0.416598
O O1 0.500000 0.245239 0.216048
O O2 0.393652 0.317590 0.285620
O O3 0.342216 0.221766 0.236540
O O4 0.394709 0.277773 0.006916
O O5 0.107418 0.901766 0.466607
O O6 0.000000 0.885501 0.240852
O O7 0.136705 0.910509 0.133586
O O8 0.793930 0.149147 0.063128
O O9 0.861123 0.066790 0.215275
O O10 0.737662 0.057438 0.043468
O O11 0.250000 0.750000 0.500000
O O12 0.882191 0.000000 0.500000
#
# Coordination Sequence:
#
# PCOD9480643 Si02
#       5
#    16  16  16  16  16
#     4  10  22  38  59  91 131 174 206 251 328 397
#     4  10  23  44  66  95 136 173 216 275 333 404
#     4  10  25  42  66  99 131 171 224 278 336 395
#     4  11  22  37  63  94 131 167 218 268 320 393
#     4  11  25  42  70  96 126 171 228 279 337 398
#
# _framework density 22.837858000000001
#
# number of rings (size 3 to 8) (size 9 to 14) (size 15 to 20)
#    0.000    1.600    0.000    3.000   14.000    5.200 
#    0.000    1.000    0.000    0.000    0.000    0.000 
#    0.000    0.000    0.000    0.000    0.000    0.000 
#
# Total GULP energy -222873.264690 kJ/mol
# GULP energy per Si atom -5571.831617 kJ/mol
# Density = 2.278588 g / cm^3
# Si number density = 22.837858 Si / 1000 Ang^3
#
#
#
# Elastic Constant Matrix: (Units=GPa)
#
#
# Indices 1 2 3 4 5 6 
#
# 1 29.8609 5.9209 0.7439 0.0000 0.0000 0.0000
# 2 5.9209 48.2260 7.3947 0.0000 0.0000 0.0000
# 3 0.7439 7.3947 41.0167 0.0000 0.0000 0.0000
# 4 0.0000 0.0000 0.0000 30.9936 0.0000 0.0000
# 5 0.0000 0.0000 0.0000 0.0000 41.0567 0.0000
# 6 0.0000 0.0000 0.0000 0.0000 0.0000 16.2328
#
#
#
# Elastic Compliance Matrix: (Units=1/GPa)
#
#
# Indices 1 2 3 4 5 6 
#
# 1 0.034325 -0.004236 0.000141 0.000000 0.000000 0.000000
# 2 -0.004236 0.021848 -0.003862 0.000000 0.000000 0.000000
# 3 0.000141 -0.003862 0.025074 0.000000 0.000000 0.000000
# 4 0.000000 0.000000 0.000000 0.032265 0.000000 0.000000
# 5 0.000000 0.000000 0.000000 0.000000 0.024357 0.000000
# 6 0.000000 0.000000 0.000000 0.000000 0.000000 0.061604
#
#
# Mechanical properties :
#
#
# Convention : Reuss Voigt Hill
#
# Bulk Modulus (GPa) = 15.30612 16.35808 15.83210
# Shear Modulus (GPa) = 21.08252 24.65955 22.87104
#
# Velocity S-wave (km/s) = 3.04162 3.28954 3.16801
# Velocity P-wave (km/s) = 4.36485 4.64827 4.50878
#
# Compressibility (1/GPa) = 0.06533336
#
# Stress axis : x y z
#
# Youngs Moduli (GPa) = 29.13335 45.77094 39.88187
#
# Poissons Ratio (x) = 0.19388 -0.00563
# Poissons Ratio (y) = 0.12340 0.15403
# Poissons Ratio (z) = -0.00411 0.17677
#
# Static dielectric constant tensor:
#      x y z
#    x 1.827180 0.000000 0.000000 
#    y 0.000000 1.744850 0.000000 
#    z 0.000000 0.000000 1.939100 
# 
# From -- ./inp_files/7110.got.cif
#   From: 2010.05.17/outbox.cif.g08.bks.cpg/sg64_4_cif.got.tgz:7110.got - 2010.06.03 16:29:19.
