data_PCOD9480414
_publ_section_title
;
Structure prediction by ZEFSAII (Michael W. Deem and Ramdas Pophale) SiO2 
 PCOD9480414
Probable space group: C M C A
;
_chemical_formula_sum "Si O2"
_cell_formula_units_Z 72
_cell_length_a 10.376375
_cell_length_b 14.897348
_cell_length_c 24.728986
_cell_angle_alpha 90.000000
_cell_angle_beta 90.000000
_cell_angle_gamma 90.000000
_cell_volume 3822.618263
_symmetry_space_group_name_H-M "C M C A"
_symmetry_group_IT_number 64
_symmetry_cell_setting 'orthorhombic'
loop_
_space_group_symop_operation_xyz
x,y,z
-x,1/2-y,1/2+z
x,-y,-z
-x,1/2+y,1/2-z
-x,-y,-z
x,1/2+y,1/2-z
-x,y,z
x,1/2-y,1/2+z
1/2+x,1/2+y,z
1/2-x,-y,1/2+z
1/2+x,1/2-y,-z
1/2-x,y,1/2-z
1/2-x,1/2-y,-z
1/2+x,y,1/2-z
1/2-x,1/2+y,z
1/2+x,-y,1/2+z
loop_
_atom_site_type_symbol
_atom_site_label
_atom_site_fract_x
_atom_site_fract_y
_atom_site_fract_z
Si Si1 0.500000 0.191580 0.429359
Si Si2 0.751622 0.718621 0.612490
Si Si3 0.353008 0.142563 0.201659
Si Si4 0.500000 0.358185 0.052231
Si Si5 0.000000 0.485776 0.634501
Si Si6 0.738695 0.448661 0.311855
O O1 0.629873 0.248093 0.421421
O O2 0.500000 0.146122 0.487995
O O3 0.500000 0.117106 0.382164
O O4 0.804292 0.796202 0.652354
O O5 0.708127 0.633990 0.649211
O O6 0.871798 0.689172 0.575550
O O7 0.500000 0.167772 0.216591
O O8 0.250000 0.153479 0.250000
O O9 0.350130 0.036822 0.186638
O O10 0.500000 0.456108 0.079511
O O11 0.876436 0.513653 0.668743
O O12 0.750000 0.417056 0.250000
#
# Coordination Sequence:
#
# PCOD9480414 Si02
#       6
#     8  16  16   8   8  16
#     4  12  23  39  66  92 114 160 221 255 303 359
#     4  11  23  41  63  90 125 158 204 257 309 358
#     4  11  24  40  62  89 127 163 200 243 305 372
#     4  10  23  44  62  85 123 166 202 263 310 357
#     4  10  21  41  62  89 121 164 204 252 295 362
#     4  10  23  38  60  89 127 161 194 241 307 367
#
# _framework density 18.835258
#
# number of rings (size 3 to 8) (size 9 to 14) (size 15 to 20)
#    0.000    1.333    3.333    1.667    9.333    0.000 
#    0.000    0.000    0.000    1.333    0.000    0.000 
#    0.000    0.000    0.000    0.000    0.000    0.000 
#
# Total GULP energy -201122.617322 kJ/mol
# GULP energy per Si atom -5586.739370 kJ/mol
# Density = 1.879239 g / cm^3
# Si number density = 18.835258 Si / 1000 Ang^3
#
#
#
# Elastic Constant Matrix: (Units=GPa)
#
#
# Indices 1 2 3 4 5 6 
#
# 1 116.7180 16.7902 25.4123 0.0000 0.0000 0.0000
# 2 16.7902 40.0177 10.5881 0.0000 0.0000 0.0000
# 3 25.4123 10.5881 83.4164 0.0000 0.0000 0.0000
# 4 0.0000 0.0000 0.0000 2.3364 0.0000 0.0000
# 5 0.0000 0.0000 0.0000 0.0000 15.5465 0.0000
# 6 0.0000 0.0000 0.0000 0.0000 0.0000 70.9354
#
#
#
# Elastic Compliance Matrix: (Units=1/GPa)
#
#
# Indices 1 2 3 4 5 6 
#
# 1 0.009595 -0.003365 -0.002496 0.000000 0.000000 0.000000
# 2 -0.003365 0.027038 -0.002407 0.000000 0.000000 0.000000
# 3 -0.002496 -0.002407 0.013054 0.000000 0.000000 0.000000
# 4 0.000000 0.000000 0.000000 0.428001 0.000000 0.000000
# 5 0.000000 0.000000 0.000000 0.000000 0.064323 0.000000
# 6 0.000000 0.000000 0.000000 0.000000 0.000000 0.014097
#
#
# Mechanical properties :
#
#
# Convention : Reuss Voigt Hill
#
# Bulk Modulus (GPa) = 30.16521 38.41481 34.29001
# Shear Modulus (GPa) = 8.56613 30.25444 19.41028
#
# Velocity S-wave (km/s) = 2.13490 4.01217 3.21367
# Velocity P-wave (km/s) = 4.70395 6.47324 5.65818
#
# Compressibility (1/GPa) = 0.03315077
#
# Stress axis : x y z
#
# Youngs Moduli (GPa) = 104.21853 36.98529 76.60546
#
# Poissons Ratio (x) = 0.12447 0.19120
# Poissons Ratio (y) = 0.35075 0.18436
# Poissons Ratio (z) = 0.26012 0.08901
#
# Static dielectric constant tensor:
#      x y z
#    x 1.641680 0.000000 0.000000 
#    y 0.000000 1.652370 0.000000 
#    z 0.000000 0.000000 1.624330 
# 
# From -- ./inp_files/42673.got.cif
#   From: 2010.05.17/outbox.cif.g08.bks.cpg/sg64_22_cif.got.tgz:42673.got - 2010.06.03 16:29:19.
