data_PCOD9480530
_publ_section_title
;
Structure prediction by ZEFSAII (Michael W. Deem and Ramdas Pophale) SiO2 
 PCOD9480530
Probable space group: C M C A
;
_chemical_formula_sum "Si O2"
_cell_formula_units_Z 112
_cell_length_a 28.276755
_cell_length_b 11.079564
_cell_length_c 17.385232
_cell_angle_alpha 90.000000
_cell_angle_beta 90.000000
_cell_angle_gamma 90.000000
_cell_volume 5446.690904
_symmetry_space_group_name_H-M "C M C A"
_symmetry_group_IT_number 64
_symmetry_cell_setting 'orthorhombic'
loop_
_space_group_symop_operation_xyz
x,y,z
-x,1/2-y,1/2+z
x,-y,-z
-x,1/2+y,1/2-z
-x,-y,-z
x,1/2+y,1/2-z
-x,y,z
x,1/2-y,1/2+z
1/2+x,1/2+y,z
1/2-x,-y,1/2+z
1/2+x,1/2-y,-z
1/2-x,y,1/2-z
1/2-x,1/2-y,-z
1/2+x,y,1/2-z
1/2-x,1/2+y,z
1/2+x,-y,1/2+z
loop_
_atom_site_type_symbol
_atom_site_label
_atom_site_fract_x
_atom_site_fract_y
_atom_site_fract_z
Si Si1 0.693155 0.638275 0.391315
Si Si2 0.361231 0.709134 0.539038
Si Si3 0.945674 0.870226 0.541963
Si Si4 0.612506 0.168275 0.792807
Si Si5 0.298244 0.935921 0.581958
Si Si6 0.598456 0.407455 0.705379
Si Si7 0.796609 0.876723 0.200642
O O1 0.670365 0.639483 0.476171
O O2 0.742673 0.570465 0.396960
O O3 0.652392 0.596553 0.331477
O O4 0.708753 0.772306 0.363528
O O5 0.408932 0.729660 0.489721
O O6 0.381986 0.652032 0.616199
O O7 0.327449 0.814420 0.569997
O O8 0.934853 0.885491 0.631838
O O9 0.000000 0.839739 0.527435
O O10 0.936145 0.000000 0.500000
O O11 0.591838 0.295955 0.764185
O O12 0.665175 0.170647 0.759745
O O13 0.589781 0.042731 0.763706
O O14 0.302503 0.000000 0.500000
O O15 0.317519 0.010598 0.654128
O O16 0.750000 0.901790 0.250000
#
# Coordination Sequence:
#
# PCOD9480530 Si02
#       7
#    16  16  16  16  16  16  16
#     4  10  23  37  57  87 126 174 226 265 311 368
#     4  11  22  39  62  93 123 162 213 267 323 384
#     4  10  21  43  73  97 118 156 212 266 323 394
#     4  11  22  38  62  91 128 170 208 261 332 384
#     4  12  24  35  56  88 124 175 218 267 309 375
#     4  10  22  40  63  96 129 172 209 265 325 389
#     4  11  23  38  53  82 127 177 223 267 315 373
#
# _framework density 20.562944999999999
#
# number of rings (size 3 to 8) (size 9 to 14) (size 15 to 20)
#    0.000    1.286    2.857    3.000    4.000    2.857 
#    0.000    1.429    0.000    0.429    0.000    0.000 
#    0.000    0.000    0.000    0.000    0.000    0.000 
#
# Total GULP energy -312315.254916 kJ/mol
# GULP energy per Si atom -5577.058123 kJ/mol
# Density = 2.051614 g / cm^3
# Si number density = 20.562945 Si / 1000 Ang^3
#
#
#
# Elastic Constant Matrix: (Units=GPa)
#
#
# Indices 1 2 3 4 5 6 
#
# 1 52.1051 0.0735 5.2099 0.0000 0.0000 0.0000
# 2 0.0735 87.8278 32.1384 0.0000 0.0000 0.0000
# 3 5.2099 32.1384 92.2768 0.0000 0.0000 0.0000
# 4 0.0000 0.0000 0.0000 14.6926 0.0000 0.0000
# 5 0.0000 0.0000 0.0000 0.0000 10.9506 0.0000
# 6 0.0000 0.0000 0.0000 0.0000 0.0000 6.6440
#
#
#
# Elastic Compliance Matrix: (Units=1/GPa)
#
#
# Indices 1 2 3 4 5 6 
#
# 1 0.019316 0.000439 -0.001243 0.000000 0.000000 0.000000
# 2 0.000439 0.013059 -0.004573 0.000000 0.000000 0.000000
# 3 -0.001243 -0.004573 0.012500 0.000000 0.000000 0.000000
# 4 0.000000 0.000000 0.000000 0.068062 0.000000 0.000000
# 5 0.000000 0.000000 0.000000 0.000000 0.091319 0.000000
# 6 0.000000 0.000000 0.000000 0.000000 0.000000 0.150511
#
#
# Mechanical properties :
#
#
# Convention : Reuss Voigt Hill
#
# Bulk Modulus (GPa) = 29.30883 34.11702 31.71292
# Shear Modulus (GPa) = 13.26633 19.44331 16.35482
#
# Velocity S-wave (km/s) = 2.54275 3.07832 2.82326
# Velocity P-wave (km/s) = 4.78591 5.40946 5.10721
#
# Compressibility (1/GPa) = 0.03411941
#
# Stress axis : x y z
#
# Youngs Moduli (GPa) = 51.77135 76.57613 80.00105
#
# Poissons Ratio (x) = -0.03360 0.09947
# Poissons Ratio (y) = -0.02272 0.36584
# Poissons Ratio (z) = 0.06437 0.35018
#
# Static dielectric constant tensor:
#      x y z
#    x 1.739880 0.000000 0.000000 
#    y 0.000000 1.810300 0.000000 
#    z 0.000000 0.000000 1.742740 
# 
# From -- ./inp_files/28406.got.cif
#   From: 2010.05.17/outbox.cif.g08.bks.cpg/sg64_15_cif.got.tgz:28406.got - 2010.06.03 16:29:19.
