data_PCOD9480856
_publ_section_title
;
Structure prediction by ZEFSAII (Michael W. Deem and Ramdas Pophale) SiO2 
 PCOD9480856
Probable space group: C M C A
;
_chemical_formula_sum "Si O2"
_cell_formula_units_Z 116
_cell_length_a 24.445758
_cell_length_b 23.098889
_cell_length_c 9.173485
_cell_angle_alpha 90.000000
_cell_angle_beta 90.000000
_cell_angle_gamma 90.000000
_cell_volume 5179.990404
_symmetry_space_group_name_H-M "C M C A"
_symmetry_group_IT_number 64
_symmetry_cell_setting 'orthorhombic'
loop_
_space_group_symop_operation_xyz
x,y,z
-x,1/2-y,1/2+z
x,-y,-z
-x,1/2+y,1/2-z
-x,-y,-z
x,1/2+y,1/2-z
-x,y,z
x,1/2-y,1/2+z
1/2+x,1/2+y,z
1/2-x,-y,1/2+z
1/2+x,1/2-y,-z
1/2-x,y,1/2-z
1/2-x,1/2-y,-z
1/2+x,y,1/2-z
1/2-x,1/2+y,z
1/2+x,-y,1/2+z
loop_
_atom_site_type_symbol
_atom_site_label
_atom_site_fract_x
_atom_site_fract_y
_atom_site_fract_z
Si Si1 0.000000 0.000000 0.000000
Si Si2 0.609844 0.467366 0.810920
Si Si3 0.807578 0.711760 0.285195
Si Si4 0.090871 0.209001 0.630466
Si Si5 0.832106 0.380938 0.490404
Si Si6 0.643682 0.380998 0.562921
Si Si7 0.307432 0.438793 0.294550
Si Si8 0.443721 0.315583 0.053000
O O1 0.050813 0.980820 0.882829
O O2 0.654126 0.440572 0.926710
O O3 0.612109 0.420380 0.679939
O O4 0.639287 0.523218 0.741666
O O5 0.750000 0.739858 0.250000
O O6 0.852468 0.758920 0.326650
O O7 0.798811 0.664917 0.414207
O O8 0.829377 0.672041 0.152548
O O9 0.102799 0.149774 0.548640
O O10 0.060910 0.255078 0.529333
O O11 0.059358 0.197161 0.777521
O O12 0.810085 0.388674 0.328295
O O13 0.892207 0.353293 0.485813
O O14 0.686211 0.416628 0.460530
O O15 0.250000 0.469075 0.250000
O O16 0.500000 0.346781 0.014311
#
# Coordination Sequence:
#
# PCOD9480856 Si02
#       8
#     4  16  16  16  16  16  16  16
#     4  12  24  52  78  92 140 188 258 298 364 464
#     4  11  26  46  71 100 133 186 237 304 366 433
#     4  10  22  40  66  95 139 189 229 278 340 418
#     4  11  22  43  63  96 140 173 229 284 341 427
#     4  10  22  42  65  99 133 177 233 278 355 426
#     4  11  24  44  65 103 145 175 239 291 359 426
#     4  12  24  43  74 105 144 184 235 300 373 442
#     4  11  23  41  67  94 128 178 226 282 343 418
#
# _framework density 22.393865000000002
#
# number of rings (size 3 to 8) (size 9 to 14) (size 15 to 20)
#    0.000    1.103    4.138    1.655    0.966    5.517 
#    2.483    1.379    0.000    0.000    0.000    0.000 
#    0.000    0.000    0.000    0.000    0.000    0.000 
#
# Total GULP energy -323587.124902 kJ/mol
# GULP energy per Si atom -5579.088360 kJ/mol
# Density = 2.234290 g / cm^3
# Si number density = 22.393865 Si / 1000 Ang^3
#
#
#
# Elastic Constant Matrix: (Units=GPa)
#
#
# Indices 1 2 3 4 5 6 
#
# 1 123.8364 14.9690 26.6571 0.0000 0.0000 0.0000
# 2 14.9690 52.1030 30.4761 0.0000 0.0000 0.0000
# 3 26.6571 30.4761 121.2626 0.0000 0.0000 0.0000
# 4 0.0000 0.0000 0.0000 -87.8169 0.0000 0.0000
# 5 0.0000 0.0000 0.0000 0.0000 33.3117 0.0000
# 6 0.0000 0.0000 0.0000 0.0000 0.0000 6.0678
#
#
#
# Elastic Compliance Matrix: (Units=1/GPa)
#
#
# Indices 1 2 3 4 5 6 
#
# 1 0.008588 -0.001598 -0.001486 0.000000 0.000000 0.000000
# 2 -0.001598 0.022798 -0.005378 0.000000 0.000000 0.000000
# 3 -0.001486 -0.005378 0.009925 0.000000 0.000000 0.000000
# 4 0.000000 0.000000 0.000000 -0.011387 0.000000 0.000000
# 5 0.000000 0.000000 0.000000 0.000000 0.030020 0.000000
# 6 0.000000 0.000000 0.000000 0.000000 0.000000 0.164805
#
#
# Mechanical properties :
#
#
# Convention : Reuss Voigt Hill
#
# Bulk Modulus (GPa) = 41.00759 49.04517 45.02638
# Shear Modulus (GPa) = 20.01583 5.31916 12.66749
#
# Velocity S-wave (km/s) = 2.99291 1.54287 2.38096
# Velocity P-wave (km/s) = 5.50409 5.01225 5.26392
#
# Compressibility (1/GPa) = 0.02438573
#
# Stress axis : x y z
#
# Youngs Moduli (GPa) = 116.43774 43.86397 100.75567
#
# Poissons Ratio (x) = 0.07009 0.14976
# Poissons Ratio (y) = 0.18607 0.54190
# Poissons Ratio (z) = 0.17307 0.23591
#
# Static dielectric constant tensor:
#      x y z
#    x 1.824740 0.000000 0.000000 
#    y 0.000000 1.896790 0.000000 
#    z 0.000000 0.000000 1.849370 
# 
# From -- ./inp_files/10653.got.cif
#   From: 2010.05.17/outbox.cif.g08.bks.cpg/sg64_6_cif.got.tgz:10653.got - 2010.06.03 16:29:19.
