data_PCOD9480749
_publ_section_title
;
Structure prediction by ZEFSAII (Michael W. Deem and Ramdas Pophale) SiO2 
 PCOD9480749
Probable space group: C M C A
;
_chemical_formula_sum "Si O2"
_cell_formula_units_Z 96
_cell_length_a 19.874480
_cell_length_b 10.892840
_cell_length_c 19.401587
_cell_angle_alpha 90.000000
_cell_angle_beta 90.000000
_cell_angle_gamma 90.000000
_cell_volume 4200.240465
_symmetry_space_group_name_H-M "C M C A"
_symmetry_group_IT_number 64
_symmetry_cell_setting 'orthorhombic'
loop_
_space_group_symop_operation_xyz
x,y,z
-x,1/2-y,1/2+z
x,-y,-z
-x,1/2+y,1/2-z
-x,-y,-z
x,1/2+y,1/2-z
-x,y,z
x,1/2-y,1/2+z
1/2+x,1/2+y,z
1/2-x,-y,1/2+z
1/2+x,1/2-y,-z
1/2-x,y,1/2-z
1/2-x,1/2-y,-z
1/2+x,y,1/2-z
1/2-x,1/2+y,z
1/2+x,-y,1/2+z
loop_
_atom_site_type_symbol
_atom_site_label
_atom_site_fract_x
_atom_site_fract_y
_atom_site_fract_z
Si Si1 0.681743 0.282990 0.422864
Si Si2 0.308006 0.540236 0.692332
Si Si3 0.920716 0.806350 0.127892
Si Si4 0.424446 0.362428 0.744993
Si Si5 0.314279 0.133798 0.066638
Si Si6 0.423087 0.417307 0.904352
O O1 0.670471 0.335547 0.346340
O O2 0.675500 0.380498 0.484683
O O3 0.758019 0.238778 0.425652
O O4 0.630972 0.171028 0.439806
O O5 0.250000 0.554430 0.750000
O O6 0.368734 0.461209 0.723509
O O7 0.287698 0.461980 0.623853
O O8 0.910058 0.768792 0.208335
O O9 0.883800 0.694017 0.091551
O O10 0.000000 0.806033 0.115274
O O11 0.898691 0.941695 0.103954
O O12 0.500000 0.398661 0.720742
O O13 0.427291 0.365855 0.826790
O O14 0.500000 0.413396 0.932782
#
# Coordination Sequence:
#
# PCOD9480749 Si02
#       6
#    16  16  16  16  16  16
#     4  11  25  40  63  93 130 175 216 268 328 392
#     4  11  24  41  67  93 126 168 224 270 325 389
#     4   9  20  40  66  92 126 172 219 271 326 389
#     4   9  20  38  62  93 130 166 208 269 335 384
#     4  10  24  44  62  90 134 172 215 269 331 389
#     4  10  22  39  64 100 132 169 219 269 326 390
#
# _framework density 22.855833000000001
#
# number of rings (size 3 to 8) (size 9 to 14) (size 15 to 20)
#    0.000    2.000    0.000    1.500    7.000    4.000 
#    0.000    1.667    0.000    5.000    0.000    0.000 
#    0.000    0.000    0.000    0.000    0.000    0.000 
#
# Total GULP energy -267669.601497 kJ/mol
# GULP energy per Si atom -5576.450031 kJ/mol
# Density = 2.280381 g / cm^3
# Si number density = 22.855833 Si / 1000 Ang^3
#
#
#
# Elastic Constant Matrix: (Units=GPa)
#
#
# Indices 1 2 3 4 5 6 
#
# 1 56.0544 30.4188 24.7489 0.0000 0.0000 0.0000
# 2 30.4188 60.4329 20.4326 0.0000 0.0000 0.0000
# 3 24.7489 20.4326 119.8262 0.0000 0.0000 0.0000
# 4 0.0000 0.0000 0.0000 35.7774 0.0000 0.0000
# 5 0.0000 0.0000 0.0000 0.0000 -3.8387 0.0000
# 6 0.0000 0.0000 0.0000 0.0000 0.0000 -30.0327
#
#
#
# Elastic Compliance Matrix: (Units=1/GPa)
#
#
# Indices 1 2 3 4 5 6 
#
# 1 0.025713 -0.011829 -0.003294 0.000000 0.000000 0.000000
# 2 -0.011829 0.023002 -0.001479 0.000000 0.000000 0.000000
# 3 -0.003294 -0.001479 0.009278 0.000000 0.000000 0.000000
# 4 0.000000 0.000000 0.000000 0.027951 0.000000 0.000000
# 5 0.000000 0.000000 0.000000 0.000000 -0.260506 0.000000
# 6 0.000000 0.000000 0.000000 0.000000 0.000000 -0.033297
#
#
# Mechanical properties :
#
#
# Convention : Reuss Voigt Hill
#
# Bulk Modulus (GPa) = 40.34048 43.05712 41.69880
# Shear Modulus (GPa) = -30.04942 11.09542 -9.47700
#
# Velocity S-wave (km/s) = -3.62986 2.20569 -2.03849
# Velocity P-wave (km/s) = 0.34698 5.03649 3.56978
#
# Compressibility (1/GPa) = 0.02478900
#
# Stress axis : x y z
#
# Youngs Moduli (GPa) = 38.89036 43.47537 107.78296
#
# Poissons Ratio (x) = 0.51428 0.35501
# Poissons Ratio (y) = 0.46004 0.15941
# Poissons Ratio (z) = 0.12809 0.06430
#
# Static dielectric constant tensor:
#      x y z
#    x 1.815270 0.000000 0.000000 
#    y 0.000000 1.900560 0.000000 
#    z 0.000000 0.000000 1.935830 
# 
# From -- ./inp_files/40855.got.cif
#   From: 2010.05.17/outbox.cif.g08.bks.cpg/sg64_21_cif.got.tgz:40855.got - 2010.06.03 16:29:19.
