data_PCOD9480077
_publ_section_title
;
Structure prediction by ZEFSAII (Michael W. Deem and Ramdas Pophale) SiO2 
 PCOD9480077
Probable space group: C M C A
;
_chemical_formula_sum "Si O2"
_cell_formula_units_Z 112
_cell_length_a 24.965205
_cell_length_b 15.044661
_cell_length_c 15.519413
_cell_angle_alpha 90.000000
_cell_angle_beta 90.000000
_cell_angle_gamma 90.000000
_cell_volume 5828.983601
_symmetry_space_group_name_H-M "C M C A"
_symmetry_group_IT_number 64
_symmetry_cell_setting 'orthorhombic'
loop_
_space_group_symop_operation_xyz
x,y,z
-x,1/2-y,1/2+z
x,-y,-z
-x,1/2+y,1/2-z
-x,-y,-z
x,1/2+y,1/2-z
-x,y,z
x,1/2-y,1/2+z
1/2+x,1/2+y,z
1/2-x,-y,1/2+z
1/2+x,1/2-y,-z
1/2-x,y,1/2-z
1/2-x,1/2-y,-z
1/2+x,y,1/2-z
1/2-x,1/2+y,z
1/2+x,-y,1/2+z
loop_
_atom_site_type_symbol
_atom_site_label
_atom_site_fract_x
_atom_site_fract_y
_atom_site_fract_z
Si Si1 0.559812 0.812902 0.673299
Si Si2 0.612834 0.370386 0.322987
Si Si3 0.139734 0.601839 0.013575
Si Si4 0.938598 0.432856 0.843224
Si Si5 0.639086 0.565106 0.073831
Si Si6 0.201451 0.932860 0.194126
Si Si7 0.757498 0.353518 0.483788
O O1 0.500000 0.807348 0.637351
O O2 0.577649 0.714455 0.701584
O O3 0.559948 0.878348 0.754976
O O4 0.599203 0.859946 0.606131
O O5 0.629231 0.351547 0.422466
O O6 0.583359 0.466817 0.325073
O O7 0.663845 0.377752 0.259665
O O8 0.101557 0.622327 0.093805
O O9 0.124371 0.500000 0.000000
O O10 0.203553 0.604680 0.023873
O O11 0.000000 0.438431 0.877297
O O12 0.662221 0.504591 0.150904
O O13 0.615788 0.500000 0.000000
O O14 0.691213 0.610093 0.032990
O O15 0.250000 0.973139 0.250000
O O16 0.229865 0.878853 0.115817
O O17 0.750000 0.250000 0.500000
#
# Coordination Sequence:
#
# PCOD9480077 Si02
#       7
#    16  16  16  16  16  16  16
#     4  11  24  43  65  92 125 170 222 274 327 390
#     4  11  22  40  66  93 129 167 217 268 327 391
#     4  10  21  38  62  88 121 162 207 263 325 381
#     4  10  23  42  65  93 127 170 220 277 331 387
#     4  10  23  41  65  90 129 170 213 261 327 397
#     4  11  22  40  62  93 129 168 209 258 326 392
#     4  11  23  38  60  94 132 167 210 264 318 392
#
# _framework density 19.214327999999998
#
# number of rings (size 3 to 8) (size 9 to 14) (size 15 to 20)
#    0.000    1.429    2.857    2.571    4.000    3.429 
#    0.000    0.000    0.000    0.000    0.000    0.000 
#    0.000    0.000    0.000    0.000    0.000    0.000 
#
# Total GULP energy -312212.201811 kJ/mol
# GULP energy per Si atom -5575.217889 kJ/mol
# Density = 1.917059 g / cm^3
# Si number density = 19.214328 Si / 1000 Ang^3
#
#
#
# Elastic Constant Matrix: (Units=GPa)
#
#
# Indices 1 2 3 4 5 6 
#
# 1 125.8857 22.4575 55.6164 0.0000 0.0000 0.0000
# 2 22.4575 81.9641 27.4349 0.0000 0.0000 0.0000
# 3 55.6164 27.4349 80.0191 0.0000 0.0000 0.0000
# 4 0.0000 0.0000 0.0000 16.5267 0.0000 0.0000
# 5 0.0000 0.0000 0.0000 0.0000 5959.9111 0.0000
# 6 0.0000 0.0000 0.0000 0.0000 0.0000 22.3137
#
#
#
# Elastic Compliance Matrix: (Units=1/GPa)
#
#
# Indices 1 2 3 4 5 6 
#
# 1 0.011485 -0.000536 -0.007798 0.000000 0.000000 0.000000
# 2 -0.000536 0.013807 -0.004361 0.000000 0.000000 0.000000
# 3 -0.007798 -0.004361 0.019412 0.000000 0.000000 0.000000
# 4 0.000000 0.000000 0.000000 0.060508 0.000000 0.000000
# 5 0.000000 0.000000 0.000000 0.000000 0.000168 0.000000
# 6 0.000000 0.000000 0.000000 0.000000 0.000000 0.044816
#
#
# Mechanical properties :
#
#
# Convention : Reuss Voigt Hill
#
# Bulk Modulus (GPa) = 51.77972 55.43183 53.60578
# Shear Modulus (GPa) = 27.46875 1211.90765 619.68820
#
# Velocity S-wave (km/s) = 3.78510 25.14161 17.97815
# Velocity P-wave (km/s) = 6.79041 29.52478 21.42221
#
# Compressibility (1/GPa) = 0.01931258
#
# Stress axis : x y z
#
# Youngs Moduli (GPa) = 87.07179 72.42622 51.51333
#
# Poissons Ratio (x) = 0.03885 0.40172
# Poissons Ratio (y) = 0.04671 0.22465
# Poissons Ratio (z) = 0.67903 0.31585
#
# Static dielectric constant tensor:
#      x y z
#    x 1.697980 0.000000 0.000000 
#    y 0.000000 1.673380 0.000000 
#    z 0.000000 0.000000 1.706130 
# 
# From -- ./inp_files/28051.got.cif
#   From: 2010.05.17/outbox.cif.g08.bks.cpg/sg64_15_cif.got.tgz:28051.got - 2010.06.03 16:29:19.
