data_PCOD9480692
_publ_section_title
;
Structure prediction by ZEFSAII (Michael W. Deem and Ramdas Pophale) SiO2 
 PCOD9480692
Probable space group: C M C A
;
_chemical_formula_sum "Si O2"
_cell_formula_units_Z 48
_cell_length_a 14.725002
_cell_length_b 27.786233
_cell_length_c 4.994502
_cell_angle_alpha 90.000000
_cell_angle_beta 90.000000
_cell_angle_gamma 90.000000
_cell_volume 2043.512163
_symmetry_space_group_name_H-M "C M C A"
_symmetry_group_IT_number 64
_symmetry_cell_setting 'orthorhombic'
loop_
_space_group_symop_operation_xyz
x,y,z
-x,1/2-y,1/2+z
x,-y,-z
-x,1/2+y,1/2-z
-x,-y,-z
x,1/2+y,1/2-z
-x,y,z
x,1/2-y,1/2+z
1/2+x,1/2+y,z
1/2-x,-y,1/2+z
1/2+x,1/2-y,-z
1/2-x,y,1/2-z
1/2-x,1/2-y,-z
1/2+x,y,1/2-z
1/2-x,1/2+y,z
1/2+x,-y,1/2+z
loop_
_atom_site_type_symbol
_atom_site_label
_atom_site_fract_x
_atom_site_fract_y
_atom_site_fract_z
Si Si1 0.139237 0.968922 0.756473
Si Si2 0.390829 0.779441 0.260943
Si Si3 0.810499 0.623774 0.501792
O O1 0.250000 0.968358 0.750000
O O2 0.122032 0.914053 0.853348
O O3 0.110189 0.000000 0.500000
O O4 0.106418 0.000000 0.000000
O O5 0.500000 0.781810 0.264625
O O6 0.362152 0.761949 0.969340
O O7 0.355004 0.830578 0.357447
O O8 0.750000 0.639855 0.250000
O O9 0.750000 0.600825 0.750000
#
# Coordination Sequence:
#
# PCOD9480692 Si02
#       3
#    16  16  16
#     4   9  16  28  46  71 105 136 165 208 262 318
#     4  10  22  39  56  76 109 152 187 220 275 338
#     4  11  21  33  55  85 111 139 184 234 274 314
#
# _framework density 23.488973000000001
#
# number of rings (size 3 to 8) (size 9 to 14) (size 15 to 20)
#    0.000    2.000    0.000    7.000    0.000    4.000 
#    0.000    0.000    0.000    2.000    0.000    0.000 
#    0.000   32.000    0.000    0.000    0.000    0.000 
#
# Total GULP energy -133841.989333 kJ/mol
# GULP energy per Si atom -5576.749556 kJ/mol
# Density = 2.343551 g / cm^3
# Si number density = 23.488973 Si / 1000 Ang^3
#
#
#
# Elastic Constant Matrix: (Units=GPa)
#
#
# Indices 1 2 3 4 5 6 
#
# 1 50.1414 8.7506 7.7899 0.0000 0.0000 0.0000
# 2 8.7506 114.9856 4.8391 0.0000 0.0000 0.0000
# 3 7.7899 4.8391 146.6687 0.0000 0.0000 0.0000
# 4 0.0000 0.0000 0.0000 48.3981 0.0000 0.0000
# 5 0.0000 0.0000 0.0000 0.0000 -0.6507 0.0000
# 6 0.0000 0.0000 0.0000 0.0000 0.0000 -192.2626
#
#
#
# Elastic Compliance Matrix: (Units=1/GPa)
#
#
# Indices 1 2 3 4 5 6 
#
# 1 0.020367 -0.001507 -0.001032 0.000000 0.000000 0.000000
# 2 -0.001507 0.008820 -0.000211 0.000000 0.000000 0.000000
# 3 -0.001032 -0.000211 0.006880 0.000000 0.000000 0.000000
# 4 0.000000 0.000000 0.000000 0.020662 0.000000 0.000000
# 5 0.000000 0.000000 0.000000 0.000000 -1.536797 0.000000
# 6 0.000000 0.000000 0.000000 0.000000 0.000000 -0.005201
#
#
# Mechanical properties :
#
#
# Convention : Reuss Voigt Hill
#
# Bulk Modulus (GPa) = 32.71406 39.39500 36.05453
# Shear Modulus (GPa) = -3.40233 -9.54197 -6.47215
#
# Velocity S-wave (km/s) = -1.20483 -2.01771 -1.66174
# Velocity P-wave (km/s) = 3.46730 3.37341 3.42068
#
# Compressibility (1/GPa) = 0.03056790
#
# Stress axis : x y z
#
# Youngs Moduli (GPa) = 49.09941 113.37527 145.35176
#
# Poissons Ratio (x) = 0.17080 0.15001
# Poissons Ratio (y) = 0.07397 0.03067
# Poissons Ratio (z) = 0.05067 0.02392
#
# Static dielectric constant tensor:
#      x y z
#    x 1.944360 0.000000 0.000000 
#    y 0.000000 2.036930 0.000000 
#    z 0.000000 0.000000 -1.604160 
# 
# From -- ./inp_files/656.got.cif
#   From: 2010.05.17/outbox.cif.g08.bks.cpg/sg64_1_cif.got.tgz:656.got - 2010.06.03 16:29:19.
