data_PCOD9480448
_publ_section_title
;
Structure prediction by ZEFSAII (Michael W. Deem and Ramdas Pophale) SiO2 
 PCOD9480448
Probable space group: C M C A
;
_chemical_formula_sum "Si O2"
_cell_formula_units_Z 64
_cell_length_a 16.850681
_cell_length_b 17.955012
_cell_length_c 9.433808
_cell_angle_alpha 90.000000
_cell_angle_beta 90.000000
_cell_angle_gamma 90.000000
_cell_volume 2854.238040
_symmetry_space_group_name_H-M "C M C A"
_symmetry_group_IT_number 64
_symmetry_cell_setting 'orthorhombic'
loop_
_space_group_symop_operation_xyz
x,y,z
-x,1/2-y,1/2+z
x,-y,-z
-x,1/2+y,1/2-z
-x,-y,-z
x,1/2+y,1/2-z
-x,y,z
x,1/2-y,1/2+z
1/2+x,1/2+y,z
1/2-x,-y,1/2+z
1/2+x,1/2-y,-z
1/2-x,y,1/2-z
1/2-x,1/2-y,-z
1/2+x,y,1/2-z
1/2-x,1/2+y,z
1/2+x,-y,1/2+z
loop_
_atom_site_type_symbol
_atom_site_label
_atom_site_fract_x
_atom_site_fract_y
_atom_site_fract_z
Si Si1 0.594006 0.071608 0.089687
Si Si2 0.093536 0.230177 0.531094
Si Si3 0.840412 0.826251 0.195997
Si Si4 0.833602 0.505486 0.668636
O O1 0.500000 0.073773 0.068692
O O2 0.623482 0.150631 0.032137
O O3 0.613187 0.055842 0.253323
O O4 0.624552 0.000000 0.000000
O O5 0.145466 0.294011 0.459346
O O6 0.107326 0.223067 0.698000
O O7 0.000000 0.240596 0.501433
O O8 0.750000 0.822224 0.250000
O O9 0.866512 0.912046 0.201107
O O10 0.825754 0.500000 0.500000
O O11 0.750000 0.499239 0.750000
#
# Coordination Sequence:
#
# PCOD9480448 Si02
#       4
#    16  16  16  16
#     4  10  21  41  66  91 126 174 218 269 330 385
#     4  11  24  43  67  95 133 177 221 271 331 393
#     4  11  25  43  65  98 132 174 220 271 329 393
#     4  11  25  42  67  97 131 170 219 275 326 394
#
# _framework density 22.422796000000002
#
# number of rings (size 3 to 8) (size 9 to 14) (size 15 to 20)
#    0.000    1.250    2.500    2.250    7.000    2.500 
#    0.000    0.000    0.000    0.000    0.000    0.000 
#    0.000    0.000    0.000    0.000    0.000    0.000 
#
# Total GULP energy -178960.083535 kJ/mol
# GULP energy per Si atom -5592.502610 kJ/mol
# Density = 2.237176 g / cm^3
# Si number density = 22.422796 Si / 1000 Ang^3
#
#
#
# Elastic Constant Matrix: (Units=GPa)
#
#
# Indices 1 2 3 4 5 6 
#
# 1 26.8332 -2.0538 -9.1856 0.0000 0.0000 0.0000
# 2 -2.0538 23.7699 -20.1037 0.0000 0.0000 0.0000
# 3 -9.1856 -20.1037 98.6529 0.0000 0.0000 0.0000
# 4 0.0000 0.0000 0.0000 30.5897 0.0000 0.0000
# 5 0.0000 0.0000 0.0000 0.0000 35.9931 0.0000
# 6 0.0000 0.0000 0.0000 0.0000 0.0000 10.5099
#
#
#
# Elastic Compliance Matrix: (Units=1/GPa)
#
#
# Indices 1 2 3 4 5 6 
#
# 1 0.039691 0.007920 0.005310 0.000000 0.000000 0.000000
# 2 0.007920 0.052411 0.011418 0.000000 0.000000 0.000000
# 3 0.005310 0.011418 0.012958 0.000000 0.000000 0.000000
# 4 0.000000 0.000000 0.000000 0.032691 0.000000 0.000000
# 5 0.000000 0.000000 0.000000 0.000000 0.027783 0.000000
# 6 0.000000 0.000000 0.000000 0.000000 0.000000 0.095149
#
#
# Mechanical properties :
#
#
# Convention : Reuss Voigt Hill
#
# Bulk Modulus (GPa) = 6.47856 9.61886 8.04871
# Shear Modulus (GPa) = 19.02305 27.45846 23.24075
#
# Velocity S-wave (km/s) = 2.91586 3.50319 3.22293
# Velocity P-wave (km/s) = 3.77251 4.54557 4.17696
#
# Compressibility (1/GPa) = 0.15435535
#
# Stress axis : x y z
#
# Youngs Moduli (GPa) = 25.19453 19.07991 77.17420
#
# Poissons Ratio (x) = -0.15112 -0.40977
# Poissons Ratio (y) = -0.19954 -0.88117
# Poissons Ratio (z) = -0.13377 -0.21785
#
# Static dielectric constant tensor:
#      x y z
#    x 1.796410 0.000000 0.000000 
#    y 0.000000 1.808250 0.000000 
#    z 0.000000 0.000000 1.842640 
# 
# From -- ./inp_files/6558.got.cif
#   From: 2010.05.17/outbox.cif.g08.bks.cpg/sg64_4_cif.got.tgz:6558.got - 2010.06.03 16:29:19.
