data_PCOD9480592
_publ_section_title
;
Structure prediction by ZEFSAII (Michael W. Deem and Ramdas Pophale) SiO2 
 PCOD9480592
Probable space group: C M C A
;
_chemical_formula_sum "Si O2"
_cell_formula_units_Z 96
_cell_length_a 16.760682
_cell_length_b 22.299277
_cell_length_c 10.951132
_cell_angle_alpha 90.000000
_cell_angle_beta 90.000000
_cell_angle_gamma 90.000000
_cell_volume 4092.997529
_symmetry_space_group_name_H-M "C M C A"
_symmetry_group_IT_number 64
_symmetry_cell_setting 'orthorhombic'
loop_
_space_group_symop_operation_xyz
x,y,z
-x,1/2-y,1/2+z
x,-y,-z
-x,1/2+y,1/2-z
-x,-y,-z
x,1/2+y,1/2-z
-x,y,z
x,1/2-y,1/2+z
1/2+x,1/2+y,z
1/2-x,-y,1/2+z
1/2+x,1/2-y,-z
1/2-x,y,1/2-z
1/2-x,1/2-y,-z
1/2+x,y,1/2-z
1/2-x,1/2+y,z
1/2+x,-y,1/2+z
loop_
_atom_site_type_symbol
_atom_site_label
_atom_site_fract_x
_atom_site_fract_y
_atom_site_fract_z
Si Si1 0.596291 0.384227 0.191259
Si Si2 0.596251 0.290707 0.384495
Si Si3 0.904628 0.377951 0.902865
Si Si4 0.677586 0.938269 0.548018
Si Si5 0.904810 0.006840 0.284418
Si Si6 0.821105 0.678069 0.322611
O O1 0.500000 0.385674 0.180110
O O2 0.616612 0.321074 0.253625
O O3 0.622175 0.438154 0.283487
O O4 0.633253 0.404864 0.063574
O O5 0.500000 0.284781 0.390078
O O6 0.624244 0.337713 0.486182
O O7 0.636359 0.226776 0.405498
O O8 0.875202 0.446118 0.884823
O O9 0.885336 0.344405 0.776384
O O10 0.000000 0.381764 0.919020
O O11 0.716596 0.881206 0.615172
O O12 0.717273 0.000000 0.500000
O O13 0.618862 0.965162 0.652763
O O14 0.000000 0.005190 0.293895
O O15 0.750000 0.708991 0.250000
#
# Coordination Sequence:
#
# PCOD9480592 Si02
#       6
#    16  16  16  16  16  16
#     4   9  17  30  54  89 122 151 194 246 297 353
#     4  10  22  37  56  87 123 162 202 240 293 361
#     4   9  19  37  59  85 117 155 198 243 301 358
#     4   9  18  35  60  83 110 145 195 249 297 354
#     4   8  14  28  54  86 116 147 188 246 302 344
#     4  11  24  40  61  83 119 157 200 248 301 357
#
# _framework density 23.454692999999999
#
# number of rings (size 3 to 8) (size 9 to 14) (size 15 to 20)
#    0.000    2.667    0.000    1.000    2.333    5.333 
#    0.000    3.333   11.000    1.000    0.000    0.000 
#    0.000    0.000    0.000    0.000    0.000    0.000 
#
# Total GULP energy -267727.152165 kJ/mol
# GULP energy per Si atom -5577.649003 kJ/mol
# Density = 2.340131 g / cm^3
# Si number density = 23.454693 Si / 1000 Ang^3
#
#
#
# Elastic Constant Matrix: (Units=GPa)
#
#
# Indices 1 2 3 4 5 6 
#
# 1 32.3589 33.8762 13.6431 0.0000 0.0000 0.0000
# 2 33.8762 115.6562 39.5772 0.0000 0.0000 0.0000
# 3 13.6431 39.5772 61.1394 0.0000 0.0000 0.0000
# 4 0.0000 0.0000 0.0000 30.8610 0.0000 0.0000
# 5 0.0000 0.0000 0.0000 0.0000 16.1070 0.0000
# 6 0.0000 0.0000 0.0000 0.0000 0.0000 23.0817
#
#
#
# Elastic Compliance Matrix: (Units=1/GPa)
#
#
# Indices 1 2 3 4 5 6 
#
# 1 0.044747 -0.012447 -0.001928 0.000000 0.000000 0.000000
# 2 -0.012447 0.014569 -0.006653 0.000000 0.000000 0.000000
# 3 -0.001928 -0.006653 0.021093 0.000000 0.000000 0.000000
# 4 0.000000 0.000000 0.000000 0.032403 0.000000 0.000000
# 5 0.000000 0.000000 0.000000 0.000000 0.062085 0.000000
# 6 0.000000 0.000000 0.000000 0.000000 0.000000 0.043324
#
#
# Mechanical properties :
#
#
# Convention : Reuss Voigt Hill
#
# Bulk Modulus (GPa) = 26.07390 42.59415 34.33402
# Shear Modulus (GPa) = 18.31090 22.14714 20.22902
#
# Velocity S-wave (km/s) = 2.79712 3.07620 2.93997
# Velocity P-wave (km/s) = 4.64464 5.55130 5.11809
#
# Compressibility (1/GPa) = 0.03835253
#
# Stress axis : x y z
#
# Youngs Moduli (GPa) = 22.34803 68.64008 47.40874
#
# Poissons Ratio (x) = 0.85434 0.09140
# Poissons Ratio (y) = 0.27816 0.31542
# Poissons Ratio (z) = 0.04309 0.45668
#
# Static dielectric constant tensor:
#      x y z
#    x 1.857990 0.000000 0.000000 
#    y 0.000000 1.878350 0.000000 
#    z 0.000000 0.000000 1.902370 
# 
# From -- ./inp_files/17384.got.cif
#   From: 2010.05.17/outbox.cif.g08.bks.cpg/sg64_9_cif.got.tgz:17384.got - 2010.06.03 16:29:19.
