data_PCOD9480613
_publ_section_title
;
Structure prediction by ZEFSAII (Michael W. Deem and Ramdas Pophale) SiO2 
 PCOD9480613
Probable space group: C M C A
;
_chemical_formula_sum "Si O2"
_cell_formula_units_Z 88
_cell_length_a 20.969009
_cell_length_b 22.695668
_cell_length_c 8.383122
_cell_angle_alpha 90.000000
_cell_angle_beta 90.000000
_cell_angle_gamma 90.000000
_cell_volume 3989.575263
_symmetry_space_group_name_H-M "C M C A"
_symmetry_group_IT_number 64
_symmetry_cell_setting 'orthorhombic'
loop_
_space_group_symop_operation_xyz
x,y,z
-x,1/2-y,1/2+z
x,-y,-z
-x,1/2+y,1/2-z
-x,-y,-z
x,1/2+y,1/2-z
-x,y,z
x,1/2-y,1/2+z
1/2+x,1/2+y,z
1/2-x,-y,1/2+z
1/2+x,1/2-y,-z
1/2-x,y,1/2-z
1/2-x,1/2-y,-z
1/2+x,y,1/2-z
1/2-x,1/2+y,z
1/2+x,-y,1/2+z
loop_
_atom_site_type_symbol
_atom_site_label
_atom_site_fract_x
_atom_site_fract_y
_atom_site_fract_z
Si Si1 0.100567 0.500000 0.500000
Si Si2 0.796636 0.579833 0.398975
Si Si3 0.145364 0.693316 0.260374
Si Si4 0.646984 0.176947 0.905160
Si Si5 0.500000 0.186855 0.319307
Si Si6 0.000000 0.822134 0.369224
Si Si7 0.000000 0.906411 0.079979
Si Si8 0.750000 0.595307 0.750000
O O1 0.144239 0.464046 0.620828
O O2 0.059103 0.549196 0.590136
O O3 0.750000 0.571425 0.250000
O O4 0.826020 0.645654 0.382140
O O5 0.767901 0.567782 0.576075
O O6 0.154047 0.758888 0.325468
O O7 0.068986 0.687517 0.239279
O O8 0.173621 0.681443 0.085311
O O9 0.572139 0.159076 0.916190
O O10 0.688103 0.133295 0.798319
O O11 0.500000 0.251727 0.401858
O O12 0.500000 0.125261 0.410629
O O13 0.000000 0.849200 0.191303
#
# Coordination Sequence:
#
# PCOD9480613 Si02
#       8
#     8  16  16  16   8   8   8   8
#     4  11  26  46  76  98 140 195 246 308 350 437
#     4  12  26  47  69 103 139 187 247 304 360 430
#     4  11  23  41  66 103 148 186 242 295 368 444
#     4  11  24  39  67 105 147 195 231 301 374 443
#     4  10  22  37  70 101 143 182 230 297 364 436
#     4  10  24  39  69 103 144 182 234 297 364 440
#     4  11  22  46  71 108 137 189 247 293 367 428
#     4  12  26  44  72 104 148 192 248 306 372 440
#
# _framework density 22.057486000000001
#
# number of rings (size 3 to 8) (size 9 to 14) (size 15 to 20)
#    0.000    0.909    3.636    2.727   12.727    1.455 
#    0.000    0.000    0.000    1.091    0.000    0.000 
#    0.000    0.000    0.000    0.000    0.000    0.000 
#
# Total GULP energy -245309.889899 kJ/mol
# GULP energy per Si atom -5575.224770 kJ/mol
# Density = 2.200728 g / cm^3
# Si number density = 22.057486 Si / 1000 Ang^3
#
#
#
# Elastic Constant Matrix: (Units=GPa)
#
#
# Indices 1 2 3 4 5 6 
#
# 1 113.4654 37.9203 21.5774 0.0000 0.0000 0.0000
# 2 37.9203 69.6898 21.9180 0.0000 0.0000 0.0000
# 3 21.5774 21.9180 108.3252 0.0000 0.0000 0.0000
# 4 0.0000 0.0000 0.0000 13.4559 0.0000 0.0000
# 5 0.0000 0.0000 0.0000 0.0000 10.1776 0.0000
# 6 0.0000 0.0000 0.0000 0.0000 0.0000 29.2427
#
#
#
# Elastic Compliance Matrix: (Units=1/GPa)
#
#
# Indices 1 2 3 4 5 6 
#
# 1 0.010880 -0.005594 -0.001035 0.000000 0.000000 0.000000
# 2 -0.005594 0.018201 -0.002568 0.000000 0.000000 0.000000
# 3 -0.001035 -0.002568 0.009957 0.000000 0.000000 0.000000
# 4 0.000000 0.000000 0.000000 0.074317 0.000000 0.000000
# 5 0.000000 0.000000 0.000000 0.000000 0.098255 0.000000
# 6 0.000000 0.000000 0.000000 0.000000 0.000000 0.034197
#
#
# Mechanical properties :
#
#
# Convention : Reuss Voigt Hill
#
# Bulk Modulus (GPa) = 48.44431 50.47911 49.46171
# Shear Modulus (GPa) = 18.44450 24.57955 21.51203
#
# Velocity S-wave (km/s) = 2.89485 3.34180 3.12632
# Velocity P-wave (km/s) = 5.76055 6.15021 5.95857
#
# Compressibility (1/GPa) = 0.02064226
#
# Stress axis : x y z
#
# Youngs Moduli (GPa) = 91.91348 54.94152 100.42840
#
# Poissons Ratio (x) = 0.30737 0.10396
# Poissons Ratio (y) = 0.51420 0.25794
# Poissons Ratio (z) = 0.09515 0.14111
#
# Static dielectric constant tensor:
#      x y z
#    x 1.850550 0.000000 0.000000 
#    y 0.000000 1.799840 0.000000 
#    z 0.000000 0.000000 1.844060 
# 
# From -- ./inp_files/9421.got.cif
#   From: 2010.05.17/outbox.cif.g08.bks.cpg/sg64_5_cif.got.tgz:9421.got - 2010.06.03 16:29:19.
