data_PCOD9480330
_publ_section_title
;
Structure prediction by ZEFSAII (Michael W. Deem and Ramdas Pophale) SiO2 
 PCOD9480330
Probable space group: C M C A
;
_chemical_formula_sum "Si O2"
_cell_formula_units_Z 96
_cell_length_a 14.164976
_cell_length_b 20.361405
_cell_length_c 14.704921
_cell_angle_alpha 90.000000
_cell_angle_beta 90.000000
_cell_angle_gamma 90.000000
_cell_volume 4241.175862
_symmetry_space_group_name_H-M "C M C A"
_symmetry_group_IT_number 64
_symmetry_cell_setting 'orthorhombic'
loop_
_space_group_symop_operation_xyz
x,y,z
-x,1/2-y,1/2+z
x,-y,-z
-x,1/2+y,1/2-z
-x,-y,-z
x,1/2+y,1/2-z
-x,y,z
x,1/2-y,1/2+z
1/2+x,1/2+y,z
1/2-x,-y,1/2+z
1/2+x,1/2-y,-z
1/2-x,y,1/2-z
1/2-x,1/2-y,-z
1/2+x,y,1/2-z
1/2-x,1/2+y,z
1/2+x,-y,1/2+z
loop_
_atom_site_type_symbol
_atom_site_label
_atom_site_fract_x
_atom_site_fract_y
_atom_site_fract_z
Si Si1 0.668267 0.502677 0.820382
Si Si2 0.743770 0.404216 0.552687
Si Si3 0.691416 0.663093 0.616136
Si Si4 0.604446 0.643894 0.809928
Si Si5 0.892974 0.128476 0.282541
Si Si6 0.888989 0.800101 0.900965
O O1 0.750000 0.524017 0.750000
O O2 0.718640 0.472627 0.908520
O O3 0.607827 0.566954 0.837596
O O4 0.617445 0.440716 0.772385
O O5 0.691082 0.394924 0.457868
O O6 0.678767 0.375459 0.634304
O O7 0.834651 0.357154 0.546957
O O8 0.624914 0.647745 0.701903
O O9 0.799854 0.673872 0.648104
O O10 0.653091 0.730172 0.573985
O O11 0.500000 0.671274 0.830712
O O12 0.873111 0.184195 0.206967
O O13 0.000000 0.135742 0.314421
O O14 0.000000 0.803037 0.916620
#
# Coordination Sequence:
#
# PCOD9480330 Si02
#       6
#    16  16  16  16  16  16
#     4   9  17  39  62  86 120 160 204 253 305 369
#     4  10  22  38  66  93 124 158 209 270 317 356
#     4  11  24  41  59  92 130 161 208 257 315 374
#     4  11  24  41  63  85 123 174 210 250 313 380
#     4   9  19  35  63  93 120 161 211 255 310 371
#     4  10  21  40  63  91 127 167 206 254 315 382
#
# _framework density 22.635232999999999
#
# number of rings (size 3 to 8) (size 9 to 14) (size 15 to 20)
#    0.000    2.000    1.667    3.000    4.667    3.333 
#    0.000    0.833    0.000    3.000    0.000    0.000 
#    0.000    0.000    0.000    0.000    0.000    0.000 
#
# Total GULP energy -268305.507487 kJ/mol
# GULP energy per Si atom -5589.698073 kJ/mol
# Density = 2.258371 g / cm^3
# Si number density = 22.635233 Si / 1000 Ang^3
#
#
#
# Elastic Constant Matrix: (Units=GPa)
#
#
# Indices 1 2 3 4 5 6 
#
# 1 117.8929 5.7485 12.5562 0.0000 0.0000 0.0000
# 2 5.7485 65.5355 -11.7560 0.0000 0.0000 0.0000
# 3 12.5562 -11.7560 69.6970 0.0000 0.0000 0.0000
# 4 0.0000 0.0000 0.0000 20.6554 0.0000 0.0000
# 5 0.0000 0.0000 0.0000 0.0000 13.8422 0.0000
# 6 0.0000 0.0000 0.0000 0.0000 0.0000 26.9300
#
#
#
# Elastic Compliance Matrix: (Units=1/GPa)
#
#
# Indices 1 2 3 4 5 6 
#
# 1 0.008722 -0.001080 -0.001753 0.000000 0.000000 0.000000
# 2 -0.001080 0.015869 0.002871 0.000000 0.000000 0.000000
# 3 -0.001753 0.002871 0.015148 0.000000 0.000000 0.000000
# 4 0.000000 0.000000 0.000000 0.048413 0.000000 0.000000
# 5 0.000000 0.000000 0.000000 0.000000 0.072243 0.000000
# 6 0.000000 0.000000 0.000000 0.000000 0.000000 0.037133
#
#
# Mechanical properties :
#
#
# Convention : Reuss Voigt Hill
#
# Bulk Modulus (GPa) = 25.11637 29.58031 27.34834
# Shear Modulus (GPa) = 23.72782 28.72397 26.22589
#
# Velocity S-wave (km/s) = 3.24121 3.56616 3.40756
# Velocity P-wave (km/s) = 5.01273 5.48209 5.25266
#
# Compressibility (1/GPa) = 0.03981467
#
# Stress axis : x y z
#
# Youngs Moduli (GPa) = 114.65718 63.01743 66.01550
#
# Poissons Ratio (x) = 0.06803 0.11575
# Poissons Ratio (y) = 0.12378 -0.18954
# Poissons Ratio (z) = 0.20103 -0.18093
#
# Static dielectric constant tensor:
#      x y z
#    x 1.820480 0.000000 0.000000 
#    y 0.000000 1.838270 0.000000 
#    z 0.000000 0.000000 1.883770 
# 
# From -- ./inp_files/23868.got.cif
#   From: 2010.05.17/outbox.cif.g08.bks.cpg/sg64_12_cif.got.tgz:23868.got - 2010.06.03 16:29:19.
