data_PCOD9480582
_publ_section_title
;
Structure prediction by ZEFSAII (Michael W. Deem and Ramdas Pophale) SiO2 
 PCOD9480582
Probable space group: C M C A
;
_chemical_formula_sum "Si O2"
_cell_formula_units_Z 64
_cell_length_a 18.766722
_cell_length_b 18.397964
_cell_length_c 7.617054
_cell_angle_alpha 90.000000
_cell_angle_beta 90.000000
_cell_angle_gamma 90.000000
_cell_volume 2629.936241
_symmetry_space_group_name_H-M "C M C A"
_symmetry_group_IT_number 64
_symmetry_cell_setting 'orthorhombic'
loop_
_space_group_symop_operation_xyz
x,y,z
-x,1/2-y,1/2+z
x,-y,-z
-x,1/2+y,1/2-z
-x,-y,-z
x,1/2+y,1/2-z
-x,y,z
x,1/2-y,1/2+z
1/2+x,1/2+y,z
1/2-x,-y,1/2+z
1/2+x,1/2-y,-z
1/2-x,y,1/2-z
1/2-x,1/2-y,-z
1/2+x,y,1/2-z
1/2-x,1/2+y,z
1/2+x,-y,1/2+z
loop_
_atom_site_type_symbol
_atom_site_label
_atom_site_fract_x
_atom_site_fract_y
_atom_site_fract_z
Si Si1 0.654466 0.888700 0.382981
Si Si2 0.250000 0.015882 0.250000
Si Si3 0.344095 0.354718 0.707136
Si Si4 0.000000 0.689044 0.082987
Si Si5 0.750000 0.772355 0.250000
Si Si6 0.000000 0.855957 0.181720
O O1 0.698447 0.961061 0.351551
O O2 0.662495 0.857737 0.580014
O O3 0.685083 0.830793 0.241157
O O4 0.571097 0.899173 0.359273
O O5 0.305086 0.070746 0.150907
O O6 0.426400 0.341055 0.664880
O O7 0.295757 0.287645 0.638834
O O8 0.000000 0.776939 0.087993
O O9 0.000000 0.664056 0.884326
#
# Coordination Sequence:
#
# PCOD9480582 Si02
#       6
#    16   8  16   8   8   8
#     4  11  23  43  69  99 138 180 226 280 340 405
#     4  10  26  44  68 104 136 176 230 272 340 404
#     4  11  23  43  69  99 138 180 226 280 340 405
#     4  12  26  43  68 101 137 177 229 285 342 407
#     4  10  22  36  68 100 134 172 230 282 334 400
#     4  12  26  43  68 101 137 177 229 285 342 407
#
# _framework density 24.335190999999998
#
# number of rings (size 3 to 8) (size 9 to 14) (size 15 to 20)
#    0.000    1.000    2.500    3.750    0.000   11.000 
#    0.000    3.750    0.000    0.000    0.000    0.000 
#    0.000    0.000    0.000    0.000    0.000    0.000 
#
# Total GULP energy -178599.548752 kJ/mol
# GULP energy per Si atom -5581.235898 kJ/mol
# Density = 2.427980 g / cm^3
# Si number density = 24.335191 Si / 1000 Ang^3
#
#
#
# Elastic Constant Matrix: (Units=GPa)
#
#
# Indices 1 2 3 4 5 6 
#
# 1 276.2682 81.0030 43.3154 0.0000 0.0000 0.0000
# 2 81.0030 168.6390 35.3206 0.0000 0.0000 0.0000
# 3 43.3154 35.3206 72.2148 0.0000 0.0000 0.0000
# 4 0.0000 0.0000 0.0000 7.3810 0.0000 0.0000
# 5 0.0000 0.0000 0.0000 0.0000 33.2007 0.0000
# 6 0.0000 0.0000 0.0000 0.0000 0.0000 94.1520
#
#
#
# Elastic Compliance Matrix: (Units=1/GPa)
#
#
# Indices 1 2 3 4 5 6 
#
# 1 0.004412 -0.001744 -0.001794 0.000000 0.000000 0.000000
# 2 -0.001744 0.007296 -0.002522 0.000000 0.000000 0.000000
# 3 -0.001794 -0.002522 0.016157 0.000000 0.000000 0.000000
# 4 0.000000 0.000000 0.000000 0.135483 0.000000 0.000000
# 5 0.000000 0.000000 0.000000 0.000000 0.030120 0.000000
# 6 0.000000 0.000000 0.000000 0.000000 0.000000 0.010621
#
#
# Mechanical properties :
#
#
# Convention : Reuss Voigt Hill
#
# Bulk Modulus (GPa) = 63.51032 92.93334 78.22183
# Shear Modulus (GPa) = 22.57780 50.77895 36.67837
#
# Velocity S-wave (km/s) = 3.04926 4.57294 3.88650
# Velocity P-wave (km/s) = 6.20903 8.13352 7.23555
#
# Compressibility (1/GPa) = 0.01574547
#
# Stress axis : x y z
#
# Youngs Moduli (GPa) = 226.64790 137.06761 61.89192
#
# Poissons Ratio (x) = 0.23899 0.11101
# Poissons Ratio (y) = 0.39519 0.15612
# Poissons Ratio (z) = 0.40653 0.34575
#
# Static dielectric constant tensor:
#      x y z
#    x 1.917390 0.000000 0.000000 
#    y 0.000000 2.029350 0.000000 
#    z 0.000000 0.000000 2.108610 
# 
# From -- ./inp_files/6676.got.cif
#   From: 2010.05.17/outbox.cif.g08.bks.cpg/sg64_4_cif.got.tgz:6676.got - 2010.06.03 16:29:19.
