data_PCOD9480796
_publ_section_title
;
Structure prediction by ZEFSAII (Michael W. Deem and Ramdas Pophale) SiO2 
 PCOD9480796
Probable space group: C M C A
;
_chemical_formula_sum "Si O2"
_cell_formula_units_Z 64
_cell_length_a 9.510918
_cell_length_b 17.826670
_cell_length_c 19.260843
_cell_angle_alpha 90.000000
_cell_angle_beta 90.000000
_cell_angle_gamma 90.000000
_cell_volume 3265.637343
_symmetry_space_group_name_H-M "C M C A"
_symmetry_group_IT_number 64
_symmetry_cell_setting 'orthorhombic'
loop_
_space_group_symop_operation_xyz
x,y,z
-x,1/2-y,1/2+z
x,-y,-z
-x,1/2+y,1/2-z
-x,-y,-z
x,1/2+y,1/2-z
-x,y,z
x,1/2-y,1/2+z
1/2+x,1/2+y,z
1/2-x,-y,1/2+z
1/2+x,1/2-y,-z
1/2-x,y,1/2-z
1/2-x,1/2-y,-z
1/2+x,y,1/2-z
1/2-x,1/2+y,z
1/2+x,-y,1/2+z
loop_
_atom_site_type_symbol
_atom_site_label
_atom_site_fract_x
_atom_site_fract_y
_atom_site_fract_z
Si Si1 0.271332 0.071890 0.949274
Si Si2 0.500000 0.166353 0.593760
Si Si3 0.000000 0.831539 0.527165
Si Si4 0.500000 0.688703 0.740028
Si Si5 0.750000 0.215524 0.250000
Si Si6 0.500000 0.875068 0.817880
Si Si7 0.500000 0.464253 0.335580
O O1 0.364525 0.041610 0.885359
O O2 0.133366 0.114433 0.923301
O O3 0.365783 0.136272 0.986263
O O4 0.246404 0.000000 0.000000
O O5 0.500000 0.243363 0.547724
O O6 0.500000 0.190084 0.675501
O O7 0.000000 0.874913 0.599864
O O8 0.639317 0.730181 0.711592
O O9 0.500000 0.604929 0.715534
O O10 0.642431 0.165332 0.206583
O O11 0.500000 0.959635 0.792825
#
# Coordination Sequence:
#
# PCOD9480796 Si02
#       7
#    16   8   8   8   8   8   8
#     4  11  23  43  66  92 129 174 212 264 317 384
#     4  12  24  40  67  98 130 162 217 278 311 378
#     4  11  21  45  65  91 126 171 211 258 322 377
#     4  11  23  42  63  94 129 161 216 261 322 379
#     4  10  22  40  62  86 126 168 200 266 316 374
#     4  11  22  42  65  88 130 166 213 259 319 381
#     4  11  23  42  66  91 127 174 212 256 325 384
#
# _framework density 19.598012000000001
#
# number of rings (size 3 to 8) (size 9 to 14) (size 15 to 20)
#    0.000    1.000    5.000    3.375    0.000    3.000 
#    0.000    2.500    0.000    0.000    0.000    0.000 
#    0.000    0.000    0.000    0.000    0.000    0.000 
#
# Total GULP energy -178594.084714 kJ/mol
# GULP energy per Si atom -5581.065147 kJ/mol
# Density = 1.955341 g / cm^3
# Si number density = 19.598012 Si / 1000 Ang^3
#
#
#
# Elastic Constant Matrix: (Units=GPa)
#
#
# Indices 1 2 3 4 5 6 
#
# 1 163.5532 66.8402 40.2407 0.0000 0.0000 0.0000
# 2 66.8402 167.7704 29.8594 0.0000 0.0000 0.0000
# 3 40.2407 29.8594 56.9226 0.0000 0.0000 0.0000
# 4 0.0000 0.0000 0.0000 39.0558 0.0000 0.0000
# 5 0.0000 0.0000 0.0000 0.0000 8.6079 0.0000
# 6 0.0000 0.0000 0.0000 0.0000 0.0000 2.6824
#
#
#
# Elastic Compliance Matrix: (Units=1/GPa)
#
#
# Indices 1 2 3 4 5 6 
#
# 1 0.008240 -0.002477 -0.004526 0.000000 0.000000 0.000000
# 2 -0.002477 0.007319 -0.002088 0.000000 0.000000 0.000000
# 3 -0.004526 -0.002088 0.021862 0.000000 0.000000 0.000000
# 4 0.000000 0.000000 0.000000 0.025604 0.000000 0.000000
# 5 0.000000 0.000000 0.000000 0.000000 0.116173 0.000000
# 6 0.000000 0.000000 0.000000 0.000000 0.000000 0.372806
#
#
# Mechanical properties :
#
#
# Convention : Reuss Voigt Hill
#
# Bulk Modulus (GPa) = 51.97641 73.56963 62.77302
# Shear Modulus (GPa) = 8.67152 26.82293 17.74722
#
# Velocity S-wave (km/s) = 2.10578 3.70355 3.01252
# Velocity P-wave (km/s) = 5.70011 7.47724 6.64832
#
# Compressibility (1/GPa) = 0.01923950
#
# Stress axis : x y z
#
# Youngs Moduli (GPa) = 121.35623 136.62782 45.74063
#
# Poissons Ratio (x) = 0.33849 0.20701
# Poissons Ratio (y) = 0.30065 0.09550
# Poissons Ratio (z) = 0.54923 0.28527
#
# Static dielectric constant tensor:
#      x y z
#    x 1.670620 0.000000 0.000000 
#    y 0.000000 1.723810 0.000000 
#    z 0.000000 0.000000 1.782940 
# 
# From -- ./inp_files/36361.got.cif
#   From: 2010.05.17/outbox.cif.g08.bks.cpg/sg64_19_cif.got.tgz:36361.got - 2010.06.03 16:29:19.
