data_PCOD9480450
_publ_section_title
;
Structure prediction by ZEFSAII (Michael W. Deem and Ramdas Pophale) SiO2 
 PCOD9480450
Probable space group: C M C A
;
_chemical_formula_sum "Si O2"
_cell_formula_units_Z 120
_cell_length_a 26.497932
_cell_length_b 20.582634
_cell_length_c 10.995232
_cell_angle_alpha 90.000000
_cell_angle_beta 90.000000
_cell_angle_gamma 90.000000
_cell_volume 5996.769143
_symmetry_space_group_name_H-M "C M C A"
_symmetry_group_IT_number 64
_symmetry_cell_setting 'orthorhombic'
loop_
_space_group_symop_operation_xyz
x,y,z
-x,1/2-y,1/2+z
x,-y,-z
-x,1/2+y,1/2-z
-x,-y,-z
x,1/2+y,1/2-z
-x,y,z
x,1/2-y,1/2+z
1/2+x,1/2+y,z
1/2-x,-y,1/2+z
1/2+x,1/2-y,-z
1/2-x,y,1/2-z
1/2-x,1/2-y,-z
1/2+x,y,1/2-z
1/2-x,1/2+y,z
1/2+x,-y,1/2+z
loop_
_atom_site_type_symbol
_atom_site_label
_atom_site_fract_x
_atom_site_fract_y
_atom_site_fract_z
Si Si1 0.443936 0.377495 0.648974
Si Si2 0.217183 0.674385 0.867113
Si Si3 0.885258 0.100655 0.690937
Si Si4 0.388557 0.655374 0.115459
Si Si5 0.941489 0.433440 0.425049
Si Si6 0.412001 0.000000 0.000000
Si Si7 0.727317 0.168832 0.382068
Si Si8 0.557658 0.711813 0.580028
O O1 0.500000 0.370458 0.702062
O O2 0.403331 0.373434 0.754110
O O3 0.441804 0.445444 0.576496
O O4 0.435379 0.318358 0.554757
O O5 0.250000 0.654340 0.750000
O O6 0.162894 0.645694 0.832877
O O7 0.220197 0.752791 0.873784
O O8 0.237921 0.653015 0.000334
O O9 0.900450 0.069120 0.817994
O O10 0.881278 0.042940 0.594455
O O11 0.931785 0.149297 0.663304
O O12 0.329427 0.643869 0.094461
O O13 0.403867 0.731112 0.111156
O O14 0.424386 0.623090 0.015608
O O15 0.938355 0.500000 0.500000
O O16 0.000000 0.426539 0.384493
O O17 0.750000 0.148544 0.250000
O O18 0.500000 0.734098 0.593134
#
# Coordination Sequence:
#
# PCOD9480450 Si02
#       8
#    16  16  16  16  16   8  16  16
#     4  10  22  38  61  90 129 169 213 260 319 397
#     4  10  21  41  66  94 128 173 220 272 340 400
#     4  11  22  41  68  92 130 175 219 271 322 393
#     4  12  23  39  65  94 130 170 212 273 333 385
#     4  11  25  43  65  96 137 184 223 260 322 406
#     4  10  23  40  66  88 124 170 226 258 313 376
#     4  10  23  38  65  99 132 167 221 278 337 403
#     4  10  22  36  57  97 132 164 207 265 333 389
#
# _framework density 20.010774000000001
#
# number of rings (size 3 to 8) (size 9 to 14) (size 15 to 20)
#    0.000    1.467    1.333    3.400    5.600    3.733 
#    0.000    0.000    8.800    0.000    0.000    0.000 
#    0.000    0.000    0.000    0.000    0.000    0.000 
#
# Total GULP energy -334748.132591 kJ/mol
# GULP energy per Si atom -5579.135543 kJ/mol
# Density = 1.996523 g / cm^3
# Si number density = 20.010774 Si / 1000 Ang^3
#
#
#
# Elastic Constant Matrix: (Units=GPa)
#
#
# Indices 1 2 3 4 5 6 
#
# 1 101.4757 16.1377 52.0666 0.0000 0.0000 0.0000
# 2 16.1377 68.3146 25.5677 0.0000 0.0000 0.0000
# 3 52.0666 25.5677 108.5621 0.0000 0.0000 0.0000
# 4 0.0000 0.0000 0.0000 13.1729 0.0000 0.0000
# 5 0.0000 0.0000 0.0000 0.0000 12.2069 0.0000
# 6 0.0000 0.0000 0.0000 0.0000 0.0000 19.7431
#
#
#
# Elastic Compliance Matrix: (Units=1/GPa)
#
#
# Indices 1 2 3 4 5 6 
#
# 1 0.013112 -0.000816 -0.006097 0.000000 0.000000 0.000000
# 2 -0.000816 0.016104 -0.003401 0.000000 0.000000 0.000000
# 3 -0.006097 -0.003401 0.012936 0.000000 0.000000 0.000000
# 4 0.000000 0.000000 0.000000 0.075913 0.000000 0.000000
# 5 0.000000 0.000000 0.000000 0.000000 0.081921 0.000000
# 6 0.000000 0.000000 0.000000 0.000000 0.000000 0.050650
#
#
# Mechanical properties :
#
#
# Convention : Reuss Voigt Hill
#
# Bulk Modulus (GPa) = 46.45744 51.76625 49.11184
# Shear Modulus (GPa) = 17.95718 21.32995 19.64356
#
# Velocity S-wave (km/s) = 2.99887 3.26839 3.13653
# Velocity P-wave (km/s) = 5.93781 6.33786 6.14110
#
# Compressibility (1/GPa) = 0.02152508
#
# Stress axis : x y z
#
# Youngs Moduli (GPa) = 76.26336 62.09675 77.30149
#
# Poissons Ratio (x) = 0.05065 0.47128
# Poissons Ratio (y) = 0.06221 0.26294
# Poissons Ratio (z) = 0.46495 0.21122
#
# Static dielectric constant tensor:
#      x y z
#    x 1.739850 0.000000 0.000000 
#    y 0.000000 1.700750 0.000000 
#    z 0.000000 0.000000 1.746970 
# 
# From -- ./inp_files/18597.got.cif
#   From: 2010.05.17/outbox.cif.g08.bks.cpg/sg64_10_cif.got.tgz:18597.got - 2010.06.03 16:29:19.
