data_PCOD9480494
_publ_section_title
;
Structure prediction by ZEFSAII (Michael W. Deem and Ramdas Pophale) SiO2 
 PCOD9480494
Probable space group: C M C A
;
_chemical_formula_sum "Si O2"
_cell_formula_units_Z 80
_cell_length_a 27.010911
_cell_length_b 9.600438
_cell_length_c 12.874388
_cell_angle_alpha 90.000000
_cell_angle_beta 90.000000
_cell_angle_gamma 90.000000
_cell_volume 3338.542219
_symmetry_space_group_name_H-M "C M C A"
_symmetry_group_IT_number 64
_symmetry_cell_setting 'orthorhombic'
loop_
_space_group_symop_operation_xyz
x,y,z
-x,1/2-y,1/2+z
x,-y,-z
-x,1/2+y,1/2-z
-x,-y,-z
x,1/2+y,1/2-z
-x,y,z
x,1/2-y,1/2+z
1/2+x,1/2+y,z
1/2-x,-y,1/2+z
1/2+x,1/2-y,-z
1/2-x,y,1/2-z
1/2-x,1/2-y,-z
1/2+x,y,1/2-z
1/2-x,1/2+y,z
1/2+x,-y,1/2+z
loop_
_atom_site_type_symbol
_atom_site_label
_atom_site_fract_x
_atom_site_fract_y
_atom_site_fract_z
Si Si1 0.558596 0.523301 0.156714
Si Si2 0.210922 0.863868 0.028397
Si Si3 0.368862 0.055942 0.161759
Si Si4 0.895109 0.708728 0.502649
Si Si5 0.191381 0.811002 0.253494
O O1 0.500000 0.506519 0.159889
O O2 0.583368 0.520049 0.269518
O O3 0.582229 0.396189 0.089742
O O4 0.571651 0.669036 0.096949
O O5 0.159981 0.838735 0.969189
O O6 0.191020 0.889288 0.143220
O O7 0.250000 0.750000 0.000000
O O8 0.239741 0.000000 0.000000
O O9 0.386020 0.140764 0.057741
O O10 0.338862 0.172484 0.227560
O O11 0.333310 0.918057 0.164405
O O12 0.250000 0.774228 0.250000
#
# Coordination Sequence:
#
# PCOD9480494 Si02
#       5
#    16  16  16  16  16
#     4  11  22  42  71  95 127 179 235 288 348 410
#     4  11  23  39  62  92 127 172 217 264 318 398
#     4  11  22  44  63 100 135 175 224 289 332 420
#     4  10  21  42  66  92 134 171 225 274 339 406
#     4  11  25  39  65  92 136 176 217 263 346 404
#
# _framework density 23.962554000000001
#
# number of rings (size 3 to 8) (size 9 to 14) (size 15 to 20)
#    0.000    1.200    6.000    1.800   11.200    1.600 
#    0.000    1.000    0.000    1.200    0.000    0.000 
#    0.000    0.000    0.000    0.000    0.000    0.000 
#
# Total GULP energy -223065.431886 kJ/mol
# GULP energy per Si atom -5576.635797 kJ/mol
# Density = 2.390801 g / cm^3
# Si number density = 23.962554 Si / 1000 Ang^3
#
#
#
# Elastic Constant Matrix: (Units=GPa)
#
#
# Indices 1 2 3 4 5 6 
#
# 1 182.7154 36.0076 -2.5437 0.0000 0.0000 0.0000
# 2 36.0076 143.2267 9.6889 0.0000 0.0000 0.0000
# 3 -2.5437 9.6889 51.8320 0.0000 0.0000 0.0000
# 4 0.0000 0.0000 0.0000 43.5606 0.0000 0.0000
# 5 0.0000 0.0000 0.0000 0.0000 21.5903 0.0000
# 6 0.0000 0.0000 0.0000 0.0000 0.0000 33.6798
#
#
#
# Elastic Compliance Matrix: (Units=1/GPa)
#
#
# Indices 1 2 3 4 5 6 
#
# 1 0.005774 -0.001490 0.000562 0.000000 0.000000 0.000000
# 2 -0.001490 0.007456 -0.001467 0.000000 0.000000 0.000000
# 3 0.000562 -0.001467 0.019595 0.000000 0.000000 0.000000
# 4 0.000000 0.000000 0.000000 0.022957 0.000000 0.000000
# 5 0.000000 0.000000 0.000000 0.000000 0.046317 0.000000
# 6 0.000000 0.000000 0.000000 0.000000 0.000000 0.029691
#
#
# Mechanical properties :
#
#
# Convention : Reuss Voigt Hill
#
# Bulk Modulus (GPa) = 35.66889 51.56444 43.61666
# Shear Modulus (GPa) = 34.26429 42.07421 38.16925
#
# Velocity S-wave (km/s) = 3.78552 4.19481 3.99541
# Velocity P-wave (km/s) = 5.83305 6.71024 6.28696
#
# Compressibility (1/GPa) = 0.02803563
#
# Stress axis : x y z
#
# Youngs Moduli (GPa) = 173.17849 134.12597 51.03376
#
# Poissons Ratio (x) = 0.19981 -0.02867
# Poissons Ratio (y) = 0.25798 0.07486
# Poissons Ratio (z) = -0.09730 0.19674
#
# Static dielectric constant tensor:
#      x y z
#    x 2.025290 0.000000 0.000000 
#    y 0.000000 1.937270 0.000000 
#    z 0.000000 0.000000 2.093620 
# 
# From -- ./inp_files/35349.got.cif
#   From: 2010.05.17/outbox.cif.g08.bks.cpg/sg64_18_cif.got.tgz:35349.got - 2010.06.03 16:29:19.
