data_PCOD9480341
_publ_section_title
;
Structure prediction by ZEFSAII (Michael W. Deem and Ramdas Pophale) SiO2 
 PCOD9480341
Probable space group: C M C A
;
_chemical_formula_sum "Si O2"
_cell_formula_units_Z 88
_cell_length_a 16.963097
_cell_length_b 8.267789
_cell_length_c 30.942272
_cell_angle_alpha 90.000000
_cell_angle_beta 90.000000
_cell_angle_gamma 90.000000
_cell_volume 4339.570314
_symmetry_space_group_name_H-M "C M C A"
_symmetry_group_IT_number 64
_symmetry_cell_setting 'orthorhombic'
loop_
_space_group_symop_operation_xyz
x,y,z
-x,1/2-y,1/2+z
x,-y,-z
-x,1/2+y,1/2-z
-x,-y,-z
x,1/2+y,1/2-z
-x,y,z
x,1/2-y,1/2+z
1/2+x,1/2+y,z
1/2-x,-y,1/2+z
1/2+x,1/2-y,-z
1/2-x,y,1/2-z
1/2-x,1/2-y,-z
1/2+x,y,1/2-z
1/2-x,1/2+y,z
1/2+x,-y,1/2+z
loop_
_atom_site_type_symbol
_atom_site_label
_atom_site_fract_x
_atom_site_fract_y
_atom_site_fract_z
Si Si1 0.092602 0.110840 0.212702
Si Si2 0.306913 0.753442 0.644218
Si Si3 0.721092 0.530043 0.917169
Si Si4 0.668392 0.500000 0.500000
Si Si5 0.907888 0.330272 0.473252
Si Si6 0.316116 0.287122 0.215031
O O1 0.119542 0.240050 0.176475
O O2 0.127643 0.167401 0.258582
O O3 0.000000 0.092804 0.214747
O O4 0.134833 0.942790 0.200501
O O5 0.279595 0.595087 0.619525
O O6 0.232936 0.790445 0.676145
O O7 0.318945 0.877254 0.605097
O O8 0.652154 0.650097 0.933043
O O9 0.774337 0.495935 0.958718
O O10 0.618709 0.332610 0.501439
O O11 0.899319 0.500000 0.500000
O O12 0.000000 0.316161 0.461452
O O13 0.250000 0.341627 0.250000
#
# Coordination Sequence:
#
# PCOD9480341 Si02
#       6
#    16  16  16   8  16  16
#     4  11  23  40  63  93 127 163 207 265 323 379
#     4  11  23  39  66  93 124 171 216 264 311 392
#     4  12  22  42  67  93 126 171 226 261 320 396
#     4  12  23  44  71  96 128 182 228 270 329 410
#     4  11  24  42  66  97 130 167 216 278 336 384
#     4  10  21  40  64  90 123 169 212 253 315 392
#
# _framework density 20.278504000000002
#
# number of rings (size 3 to 8) (size 9 to 14) (size 15 to 20)
#    0.000    0.909    4.545    4.091    2.545    0.727 
#    0.000    1.818    0.000    0.000    0.000    0.000 
#    0.000    0.000    0.000    0.000    0.000    0.000 
#
# Total GULP energy -245579.567380 kJ/mol
# GULP energy per Si atom -5581.353804 kJ/mol
# Density = 2.023235 g / cm^3
# Si number density = 20.278504 Si / 1000 Ang^3
#
#
#
# Elastic Constant Matrix: (Units=GPa)
#
#
# Indices 1 2 3 4 5 6 
#
# 1 134.9163 27.9360 29.8888 0.0000 0.0000 0.0000
# 2 27.9360 56.6841 19.4407 0.0000 0.0000 0.0000
# 3 29.8888 19.4407 92.7020 0.0000 0.0000 0.0000
# 4 0.0000 0.0000 0.0000 39.7518 0.0000 0.0000
# 5 0.0000 0.0000 0.0000 0.0000 13.1360 0.0000
# 6 0.0000 0.0000 0.0000 0.0000 0.0000 20.2546
#
#
#
# Elastic Compliance Matrix: (Units=1/GPa)
#
#
# Indices 1 2 3 4 5 6 
#
# 1 0.008594 -0.003540 -0.002029 0.000000 0.000000 0.000000
# 2 -0.003540 0.020467 -0.003151 0.000000 0.000000 0.000000
# 3 -0.002029 -0.003151 0.012102 0.000000 0.000000 0.000000
# 4 0.000000 0.000000 0.000000 0.025156 0.000000 0.000000
# 5 0.000000 0.000000 0.000000 0.000000 0.076126 0.000000
# 6 0.000000 0.000000 0.000000 0.000000 0.000000 0.049372
#
#
# Mechanical properties :
#
#
# Convention : Reuss Voigt Hill
#
# Bulk Modulus (GPa) = 42.15024 48.75926 45.45475
# Shear Modulus (GPa) = 23.02405 28.43095 25.72750
#
# Velocity S-wave (km/s) = 3.37321 3.74842 3.56576
# Velocity P-wave (km/s) = 6.00019 6.54456 6.27827
#
# Compressibility (1/GPa) = 0.02372466
#
# Stress axis : x y z
#
# Youngs Moduli (GPa) = 116.35493 48.85957 82.63046
#
# Poissons Ratio (x) = 0.17296 0.16763
# Poissons Ratio (y) = 0.41188 0.26035
# Poissons Ratio (z) = 0.23604 0.15395
#
# Static dielectric constant tensor:
#      x y z
#    x 1.685300 0.000000 0.000000 
#    y 0.000000 1.800700 0.000000 
#    z 0.000000 0.000000 1.738780 
# 
# From -- ./inp_files/53551.got.cif
#   From: 2010.05.17/outbox.cif.g08.bks.cpg/sg64_27_cif.got.tgz:53551.got - 2010.06.03 16:29:19.
