data_PCOD9480031
_publ_section_title
;
Structure prediction by ZEFSAII (Michael W. Deem and Ramdas Pophale) SiO2 
 PCOD9480031
Probable space group: C M C A
;
_chemical_formula_sum "Si O2"
_cell_formula_units_Z 96
_cell_length_a 21.964108
_cell_length_b 24.558711
_cell_length_c 7.905132
_cell_angle_alpha 90.000000
_cell_angle_beta 90.000000
_cell_angle_gamma 90.000000
_cell_volume 4264.108681
_symmetry_space_group_name_H-M "C M C A"
_symmetry_group_IT_number 64
_symmetry_cell_setting 'orthorhombic'
loop_
_space_group_symop_operation_xyz
x,y,z
-x,1/2-y,1/2+z
x,-y,-z
-x,1/2+y,1/2-z
-x,-y,-z
x,1/2+y,1/2-z
-x,y,z
x,1/2-y,1/2+z
1/2+x,1/2+y,z
1/2-x,-y,1/2+z
1/2+x,1/2-y,-z
1/2-x,y,1/2-z
1/2-x,1/2-y,-z
1/2+x,y,1/2-z
1/2-x,1/2+y,z
1/2+x,-y,1/2+z
loop_
_atom_site_type_symbol
_atom_site_label
_atom_site_fract_x
_atom_site_fract_y
_atom_site_fract_z
Si Si1 0.775992 0.055861 0.563048
Si Si2 0.348726 0.573805 0.117117
Si Si3 0.123493 0.618879 0.755188
Si Si4 0.570590 0.665428 0.252628
Si Si5 0.566121 0.988796 0.199423
Si Si6 0.430311 0.777966 0.117750
O O1 0.750000 0.044396 0.750000
O O2 0.723235 0.066724 0.424255
O O3 0.823104 0.103058 0.611636
O O4 0.805937 0.000000 0.500000
O O5 0.379248 0.618266 0.241270
O O6 0.381946 0.518608 0.185580
O O7 0.365288 0.599261 0.935089
O O8 0.070350 0.576676 0.799419
O O9 0.109307 0.681858 0.768965
O O10 0.500000 0.646648 0.223223
O O11 0.571967 0.695016 0.433694
O O12 0.585947 0.714668 0.124516
O O13 0.500000 0.006997 0.265071
O O14 0.568648 0.000000 0.000000
O O15 0.500000 0.780389 0.179834
#
# Coordination Sequence:
#
# PCOD9480031 Si02
#       6
#    16  16  16  16  16  16
#     4  10  22  40  60  84 118 161 206 251 302 365
#     4  11  22  38  60  87 119 158 203 250 304 367
#     4  11  22  37  59  87 119 157 202 249 302 366
#     4  10  21  38  60  86 117 153 195 246 305 368
#     4  11  23  38  58  88 125 160 199 253 313 372
#     4  10  21  38  60  87 119 155 197 248 307 370
#
# _framework density 22.513498999999999
#
# number of rings (size 3 to 8) (size 9 to 14) (size 15 to 20)
#    0.000    1.500    0.000    6.000    0.000    8.667 
#    0.000    0.833    0.000    0.000    0.000    0.000 
#    0.000    0.000    0.000    0.000    0.000    0.000 
#
# Total GULP energy -267641.841657 kJ/mol
# GULP energy per Si atom -5575.871701 kJ/mol
# Density = 2.246226 g / cm^3
# Si number density = 22.513499 Si / 1000 Ang^3
#
#
#
# Elastic Constant Matrix: (Units=GPa)
#
#
# Indices 1 2 3 4 5 6 
#
# 1 100.7832 18.7111 39.1314 0.0000 0.0000 0.0000
# 2 18.7111 68.1356 -1.1247 0.0000 0.0000 0.0000
# 3 39.1314 -1.1247 97.6063 0.0000 0.0000 0.0000
# 4 0.0000 0.0000 0.0000 38.6632 0.0000 0.0000
# 5 0.0000 0.0000 0.0000 0.0000 23.8384 0.0000
# 6 0.0000 0.0000 0.0000 0.0000 0.0000 -36.8211
#
#
#
# Elastic Compliance Matrix: (Units=1/GPa)
#
#
# Indices 1 2 3 4 5 6 
#
# 1 0.012546 -0.003529 -0.005071 0.000000 0.000000 0.000000
# 2 -0.003529 0.015672 0.001595 0.000000 0.000000 0.000000
# 3 -0.005071 0.001595 0.012296 0.000000 0.000000 0.000000
# 4 0.000000 0.000000 0.000000 0.025864 0.000000 0.000000
# 5 0.000000 0.000000 0.000000 0.000000 0.041949 0.000000
# 6 0.000000 0.000000 0.000000 0.000000 0.000000 -0.027158
#
#
# Mechanical properties :
#
#
# Convention : Reuss Voigt Hill
#
# Bulk Modulus (GPa) = 37.72683 42.21786 39.97235
# Shear Modulus (GPa) = 48.07044 19.12325 33.59684
#
# Velocity S-wave (km/s) = 4.62582 2.91763 3.86722
# Velocity P-wave (km/s) = 6.73236 5.49027 6.14279
#
# Compressibility (1/GPa) = 0.02650633
#
# Stress axis : x y z
#
# Youngs Moduli (GPa) = 79.70491 63.80762 81.32404
#
# Poissons Ratio (x) = 0.22518 0.41236
# Poissons Ratio (y) = 0.28129 -0.12975
# Poissons Ratio (z) = 0.40415 -0.10180
#
# Static dielectric constant tensor:
#      x y z
#    x 1.915940 0.000000 0.000000 
#    y 0.000000 1.831650 0.000000 
#    z 0.000000 0.000000 1.909120 
# 
# From -- ./inp_files/10527.got.cif
#   From: 2010.05.17/outbox.cif.g08.bks.cpg/sg64_6_cif.got.tgz:10527.got - 2010.06.03 16:29:19.
