data_PCOD9480647
_publ_section_title
;
Structure prediction by ZEFSAII (Michael W. Deem and Ramdas Pophale) SiO2 
 PCOD9480647
Probable space group: C M C A
;
_chemical_formula_sum "Si O2"
_cell_formula_units_Z 104
_cell_length_a 21.315792
_cell_length_b 27.475663
_cell_length_c 7.472974
_cell_angle_alpha 90.000000
_cell_angle_beta 90.000000
_cell_angle_gamma 90.000000
_cell_volume 4376.663185
_symmetry_space_group_name_H-M "C M C A"
_symmetry_group_IT_number 64
_symmetry_cell_setting 'orthorhombic'
loop_
_space_group_symop_operation_xyz
x,y,z
-x,1/2-y,1/2+z
x,-y,-z
-x,1/2+y,1/2-z
-x,-y,-z
x,1/2+y,1/2-z
-x,y,z
x,1/2-y,1/2+z
1/2+x,1/2+y,z
1/2-x,-y,1/2+z
1/2+x,1/2-y,-z
1/2-x,y,1/2-z
1/2-x,1/2-y,-z
1/2+x,y,1/2-z
1/2-x,1/2+y,z
1/2+x,-y,1/2+z
loop_
_atom_site_type_symbol
_atom_site_label
_atom_site_fract_x
_atom_site_fract_y
_atom_site_fract_z
Si Si1 0.250000 0.860906 0.250000
Si Si2 0.000000 0.796915 0.333750
Si Si3 0.637994 0.794634 0.184489
Si Si4 0.363338 0.182399 0.240347
Si Si5 0.570538 0.947659 0.099219
Si Si6 0.179990 0.595860 0.093828
Si Si7 0.500000 0.683925 0.243733
Si Si8 0.816556 0.992081 0.207801
O O1 0.309301 0.825034 0.287914
O O2 0.225106 0.887903 0.431003
O O3 0.067673 0.808263 0.248550
O O4 0.000000 0.738463 0.332878
O O5 0.000000 0.813571 0.539552
O O6 0.649654 0.736409 0.187755
O O7 0.638460 0.807845 0.974571
O O8 0.319011 0.135694 0.251135
O O9 0.431817 0.164921 0.306800
O O10 0.500000 0.932447 0.149974
O O11 0.622781 0.960127 0.246343
O O12 0.607851 0.908758 0.980016
O O13 0.564793 0.000000 0.000000
O O14 0.187131 0.541697 0.174628
O O15 0.750000 0.968498 0.250000
O O16 0.819431 0.000000 0.000000
#
# Coordination Sequence:
#
# PCOD9480647 Si02
#       8
#     8   8  16  16  16  16   8  16
#     4  10  22  38  60  88 136 174 216 270 316 380
#     4   8  14  28  50  76 102 160 223 256 310 361
#     4   9  18  34  54  80 123 172 219 264 313 368
#     4   9  18  34  54  86 117 168 215 262 313 369
#     4   9  20  40  68  97 126 165 206 262 336 404
#     4  10  22  38  62  98 128 169 219 267 331 390
#     4   8  14  26  52  74 108 152 206 262 302 363
#     4  11  24  44  72  96 128 168 212 266 334 412
#
# _framework density 23.762395999999999
#
# number of rings (size 3 to 8) (size 9 to 14) (size 15 to 20)
#    0.000    2.615    0.000    1.385    4.308    2.769 
#    5.538    0.000    0.000    0.000    8.000    0.000 
#    0.000    0.000    0.000    0.000    0.000    0.000 
#
# Total GULP energy -289869.102948 kJ/mol
# GULP energy per Si atom -5574.405826 kJ/mol
# Density = 2.370831 g / cm^3
# Si number density = 23.762396 Si / 1000 Ang^3
#
#
#
# Elastic Constant Matrix: (Units=GPa)
#
#
# Indices 1 2 3 4 5 6 
#
# 1 179.9484 19.9747 17.3482 0.0000 0.0000 0.0000
# 2 19.9747 94.8268 7.8337 0.0000 0.0000 0.0000
# 3 17.3482 7.8337 42.0651 0.0000 0.0000 0.0000
# 4 0.0000 0.0000 0.0000 5.0404 0.0000 0.0000
# 5 0.0000 0.0000 0.0000 0.0000 23.3761 0.0000
# 6 0.0000 0.0000 0.0000 0.0000 0.0000 -18.5387
#
#
#
# Elastic Compliance Matrix: (Units=1/GPa)
#
#
# Indices 1 2 3 4 5 6 
#
# 1 0.005890 -0.001056 -0.002232 0.000000 0.000000 0.000000
# 2 -0.001056 0.010900 -0.001594 0.000000 0.000000 0.000000
# 3 -0.002232 -0.001594 0.024990 0.000000 0.000000 0.000000
# 4 0.000000 0.000000 0.000000 0.198396 0.000000 0.000000
# 5 0.000000 0.000000 0.000000 0.000000 0.042779 0.000000
# 6 0.000000 0.000000 0.000000 0.000000 0.000000 -0.053941
#
#
# Mechanical properties :
#
#
# Convention : Reuss Voigt Hill
#
# Bulk Modulus (GPa) = 31.23625 45.23928 38.23776
# Shear Modulus (GPa) = 20.04415 20.08781 20.06598
#
# Velocity S-wave (km/s) = 2.90750 2.91066 2.90908
# Velocity P-wave (km/s) = 4.94421 5.51139 5.23549
#
# Compressibility (1/GPa) = 0.03201409
#
# Stress axis : x y z
#
# Youngs Moduli (GPa) = 169.79103 91.74540 40.01575
#
# Poissons Ratio (x) = 0.09690 0.08932
# Poissons Ratio (y) = 0.17933 0.06380
# Poissons Ratio (z) = 0.37901 0.14627
#
# Static dielectric constant tensor:
#      x y z
#    x 1.977550 0.000000 0.000000 
#    y 0.000000 1.999980 0.000000 
#    z 0.000000 0.000000 1.922560 
# 
# From -- ./inp_files/8571.got.cif
#   From: 2010.05.17/outbox.cif.g08.bks.cpg/sg64_5_cif.got.tgz:8571.got - 2010.06.03 16:29:19.
