data_PCOD9480356
_publ_section_title
;
Structure prediction by ZEFSAII (Michael W. Deem and Ramdas Pophale) SiO2 
 PCOD9480356
Probable space group: C M C A
;
_chemical_formula_sum "Si O2"
_cell_formula_units_Z 112
_cell_length_a 15.904969
_cell_length_b 28.875620
_cell_length_c 12.047702
_cell_angle_alpha 90.000000
_cell_angle_beta 90.000000
_cell_angle_gamma 90.000000
_cell_volume 5533.097991
_symmetry_space_group_name_H-M "C M C A"
_symmetry_group_IT_number 64
_symmetry_cell_setting 'orthorhombic'
loop_
_space_group_symop_operation_xyz
x,y,z
-x,1/2-y,1/2+z
x,-y,-z
-x,1/2+y,1/2-z
-x,-y,-z
x,1/2+y,1/2-z
-x,y,z
x,1/2-y,1/2+z
1/2+x,1/2+y,z
1/2-x,-y,1/2+z
1/2+x,1/2-y,-z
1/2-x,y,1/2-z
1/2-x,1/2-y,-z
1/2+x,y,1/2-z
1/2-x,1/2+y,z
1/2+x,-y,1/2+z
loop_
_atom_site_type_symbol
_atom_site_label
_atom_site_fract_x
_atom_site_fract_y
_atom_site_fract_z
Si Si1 0.678756 0.747545 0.344866
Si Si2 0.094242 0.482490 0.126198
Si Si3 0.744248 0.407762 0.372727
Si Si4 0.906034 0.444904 0.490288
Si Si5 0.649589 0.573428 0.240423
Si Si6 0.219487 0.821246 0.991206
Si Si7 0.905141 0.669951 0.284265
O O1 0.750000 0.753800 0.250000
O O2 0.711502 0.713204 0.441307
O O3 0.668726 0.795917 0.409022
O O4 0.607757 0.717460 0.283848
O O5 0.168501 0.444693 0.130904
O O6 0.114355 0.527781 0.199921
O O7 0.000000 0.465222 0.155522
O O8 0.092756 0.500000 0.000000
O O9 0.750000 0.387206 0.250000
O O10 0.832768 0.431762 0.404974
O O11 0.737204 0.367208 0.462468
O O12 0.908535 0.500000 0.500000
O O13 0.880172 0.428184 0.612817
O O14 0.000000 0.428120 0.461212
O O15 0.750000 0.572160 0.250000
O O16 0.617669 0.623281 0.284140
O O17 0.158169 0.829624 0.887842
O O18 0.000000 0.666222 0.322946
#
# Coordination Sequence:
#
# PCOD9480356 Si02
#       7
#    16  16  16  16  16  16  16
#     4   9  20  40  65  92 120 165 209 269 329 403
#     4  11  25  41  60  92 134 175 221 281 338 399
#     4  12  24  39  62  92 125 173 217 274 338 407
#     4  11  23  39  61  90 126 171 221 275 331 396
#     4  12  22  39  65  93 130 177 231 277 333 401
#     4  10  21  40  65  91 127 163 216 269 334 409
#     4  11  23  38  64 100 129 171 224 276 337 404
#
# _framework density 20.241824999999999
#
# number of rings (size 3 to 8) (size 9 to 14) (size 15 to 20)
#    0.000    1.143    1.429    6.429    2.000    2.286 
#    0.000    0.000    0.000    8.571    0.000    0.000 
#    0.000    0.000    0.000    0.000    0.000    0.000 
#
# Total GULP energy -312668.620928 kJ/mol
# GULP energy per Si atom -5583.368231 kJ/mol
# Density = 2.019575 g / cm^3
# Si number density = 20.241825 Si / 1000 Ang^3
#
#
#
# Elastic Constant Matrix: (Units=GPa)
#
#
# Indices 1 2 3 4 5 6 
#
# 1 100.9705 17.3708 8.9164 0.0000 0.0000 0.0000
# 2 17.3708 84.8610 16.0624 0.0000 0.0000 0.0000
# 3 8.9164 16.0624 67.4215 0.0000 0.0000 0.0000
# 4 0.0000 0.0000 0.0000 26.2343 0.0000 0.0000
# 5 0.0000 0.0000 0.0000 0.0000 -9.6431 0.0000
# 6 0.0000 0.0000 0.0000 0.0000 0.0000 1.9964
#
#
#
# Elastic Compliance Matrix: (Units=1/GPa)
#
#
# Indices 1 2 3 4 5 6 
#
# 1 0.010318 -0.001941 -0.000902 0.000000 0.000000 0.000000
# 2 -0.001941 0.012706 -0.002770 0.000000 0.000000 0.000000
# 3 -0.000902 -0.002770 0.015611 0.000000 0.000000 0.000000
# 4 0.000000 0.000000 0.000000 0.038118 0.000000 0.000000
# 5 0.000000 0.000000 0.000000 0.000000 -0.103702 0.000000
# 6 0.000000 0.000000 0.000000 0.000000 0.000000 0.500912
#
#
# Mechanical properties :
#
#
# Convention : Reuss Voigt Hill
#
# Bulk Modulus (GPa) = 36.48629 37.55023 37.01826
# Shear Modulus (GPa) = 10.11479 17.77775 13.94627
#
# Velocity S-wave (km/s) = 2.23782 2.96677 2.62770
# Velocity P-wave (km/s) = 4.97408 5.50697 5.24729
#
# Compressibility (1/GPa) = 0.02740755
#
# Stress axis : x y z
#
# Youngs Moduli (GPa) = 96.92267 78.70488 64.05607
#
# Poissons Ratio (x) = 0.15278 0.05778
# Poissons Ratio (y) = 0.18815 0.17745
# Poissons Ratio (z) = 0.08742 0.21803
#
# Static dielectric constant tensor:
#      x y z
#    x 1.723690 0.000000 0.000000 
#    y 0.000000 1.774130 0.000000 
#    z 0.000000 0.000000 1.744620 
# 
# From -- ./inp_files/14949.got.cif
#   From: 2010.05.17/outbox.cif.g08.bks.cpg/sg64_8_cif.got.tgz:14949.got - 2010.06.03 16:29:19.
