data_PCOD9480473
_publ_section_title
;
Structure prediction by ZEFSAII (Michael W. Deem and Ramdas Pophale) SiO2 
 PCOD9480473
Probable space group: C M C A
;
_chemical_formula_sum "Si O2"
_cell_formula_units_Z 56
_cell_length_a 16.099943
_cell_length_b 32.920967
_cell_length_c 5.174543
_cell_angle_alpha 90.000000
_cell_angle_beta 90.000000
_cell_angle_gamma 90.000000
_cell_volume 2742.640735
_symmetry_space_group_name_H-M "C M C A"
_symmetry_group_IT_number 64
_symmetry_cell_setting 'orthorhombic'
loop_
_space_group_symop_operation_xyz
x,y,z
-x,1/2-y,1/2+z
x,-y,-z
-x,1/2+y,1/2-z
-x,-y,-z
x,1/2+y,1/2-z
-x,y,z
x,1/2-y,1/2+z
1/2+x,1/2+y,z
1/2-x,-y,1/2+z
1/2+x,1/2-y,-z
1/2-x,y,1/2-z
1/2-x,1/2-y,-z
1/2+x,y,1/2-z
1/2-x,1/2+y,z
1/2+x,-y,1/2+z
loop_
_atom_site_type_symbol
_atom_site_label
_atom_site_fract_x
_atom_site_fract_y
_atom_site_fract_z
Si Si1 0.250000 0.108348 0.750000
Si Si2 0.169371 0.452608 0.922030
Si Si3 0.750000 0.663330 0.250000
Si Si4 0.000000 0.471122 0.746602
Si Si5 0.094862 0.722061 0.149113
O O1 0.176784 0.077500 0.663710
O O2 0.267558 0.136306 0.503357
O O3 0.250000 0.445096 0.750000
O O4 0.084621 0.446256 0.767442
O O5 0.173563 0.500000 0.000000
O O6 0.831308 0.690252 0.189937
O O7 0.000000 0.500000 0.500000
O O8 0.000000 0.500000 0.000000
O O9 0.103156 0.756049 0.372603
O O10 0.000000 0.705489 0.168329
#
# Coordination Sequence:
#
# PCOD9480473 Si02
#       5
#     8  16   8   8  16
#     4  12  26  40  60  94 130 182 208 266 336 402
#     4  11  22  43  69  89 126 171 235 278 330 383
#     4  12  24  42  60  96 142 162 210 260 338 390
#     4  10  24  38  66  98 116 154 222 292 338 382
#     4  10  21  41  71  98 122 166 216 257 310 387
#
# _framework density 20.418278999999998
#
# number of rings (size 3 to 8) (size 9 to 14) (size 15 to 20)
#    0.000    1.143    2.857    3.429    4.000    0.000 
#    5.143    0.000    0.000    0.000    0.000    0.000 
#    0.000    0.000    0.000    0.000    0.000    0.000 
#
# Total GULP energy -156416.028109 kJ/mol
# GULP energy per Si atom -5586.286718 kJ/mol
# Density = 2.037181 g / cm^3
# Si number density = 20.418279 Si / 1000 Ang^3
#
#
#
# Elastic Constant Matrix: (Units=GPa)
#
#
# Indices 1 2 3 4 5 6 
#
# 1 178.6808 53.2490 33.4163 0.0000 0.0000 0.0000
# 2 53.2490 78.6738 16.4393 0.0000 0.0000 0.0000
# 3 33.4163 16.4393 99.8816 0.0000 0.0000 0.0000
# 4 0.0000 0.0000 0.0000 43.3201 0.0000 0.0000
# 5 0.0000 0.0000 0.0000 0.0000 28.7677 0.0000
# 6 0.0000 0.0000 0.0000 0.0000 0.0000 -19.5768
#
#
#
# Elastic Compliance Matrix: (Units=1/GPa)
#
#
# Indices 1 2 3 4 5 6 
#
# 1 0.007273 -0.004572 -0.001681 0.000000 0.000000 0.000000
# 2 -0.004572 0.016037 -0.001110 0.000000 0.000000 0.000000
# 3 -0.001681 -0.001110 0.010757 0.000000 0.000000 0.000000
# 4 0.000000 0.000000 0.000000 0.023084 0.000000 0.000000
# 5 0.000000 0.000000 0.000000 0.000000 0.034761 0.000000
# 6 0.000000 0.000000 0.000000 0.000000 0.000000 -0.051081
#
#
# Mechanical properties :
#
#
# Convention : Reuss Voigt Hill
#
# Bulk Modulus (GPa) = 51.70081 62.60505 57.15293
# Shear Modulus (GPa) = 80.64024 27.44431 54.04228
#
# Velocity S-wave (km/s) = 6.29125 3.67018 5.15025
# Velocity P-wave (km/s) = 8.84019 6.97769 7.96358
#
# Compressibility (1/GPa) = 0.01934206
#
# Stress axis : x y z
#
# Youngs Moduli (GPa) = 137.48882 62.35635 92.96346
#
# Poissons Ratio (x) = 0.28507 0.15626
# Poissons Ratio (y) = 0.62854 0.10319
# Poissons Ratio (z) = 0.23111 0.06922
#
# Static dielectric constant tensor:
#      x y z
#    x 1.775790 0.000000 0.000000 
#    y 0.000000 1.725310 0.000000 
#    z 0.000000 0.000000 1.753230 
# 
# From -- ./inp_files/928.got.cif
#   From: 2010.05.17/outbox.cif.g08.bks.cpg/sg64_1_cif.got.tgz:928.got - 2010.06.03 16:29:19.
