data_PCOD9480182
_publ_section_title
;
Structure prediction by ZEFSAII (Michael W. Deem and Ramdas Pophale) SiO2 
 PCOD9480182
Probable space group: C M C A
;
_chemical_formula_sum "Si O2"
_cell_formula_units_Z 80
_cell_length_a 8.597423
_cell_length_b 27.803791
_cell_length_c 18.541803
_cell_angle_alpha 90.000000
_cell_angle_beta 90.000000
_cell_angle_gamma 90.000000
_cell_volume 4432.250245
_symmetry_space_group_name_H-M "C M C A"
_symmetry_group_IT_number 64
_symmetry_cell_setting 'orthorhombic'
loop_
_space_group_symop_operation_xyz
x,y,z
-x,1/2-y,1/2+z
x,-y,-z
-x,1/2+y,1/2-z
-x,-y,-z
x,1/2+y,1/2-z
-x,y,z
x,1/2-y,1/2+z
1/2+x,1/2+y,z
1/2-x,-y,1/2+z
1/2+x,1/2-y,-z
1/2-x,y,1/2-z
1/2-x,1/2-y,-z
1/2+x,y,1/2-z
1/2-x,1/2+y,z
1/2+x,-y,1/2+z
loop_
_atom_site_type_symbol
_atom_site_label
_atom_site_fract_x
_atom_site_fract_y
_atom_site_fract_z
Si Si1 0.814107 0.292685 0.669327
Si Si2 0.813938 0.648029 0.040565
Si Si3 0.185872 0.403087 0.172196
Si Si4 0.313632 0.447324 0.030544
Si Si5 0.813646 0.306083 0.397264
O O1 0.750000 0.297770 0.750000
O O2 0.751236 0.334009 0.616436
O O3 0.753384 0.242561 0.635860
O O4 0.000000 0.292654 0.670132
O O5 0.000000 0.649590 0.039718
O O6 0.755153 0.595037 0.019128
O O7 0.749827 0.683016 0.977381
O O8 0.250000 0.417279 0.250000
O O9 0.241160 0.438802 0.109297
O O10 0.257476 0.351318 0.150471
O O11 0.000000 0.399468 0.172740
O O12 0.500000 0.441062 0.034888
O O13 0.279633 0.500000 0.000000
O O14 0.000000 0.304214 0.398738
#
# Coordination Sequence:
#
# PCOD9480182 Si02
#       5
#    16  16  16  16  16
#     4  12  24  39  56  80 114 151 190 230 275 326
#     4  11  22  38  59  84 112 146 187 229 276 329
#     4  11  21  35  56  84 116 147 183 229 281 331
#     4  10  21  39  62  86 112 144 184 230 280 333
#     4  11  21  36  57  83 114 149 188 228 274 327
#
# _framework density 18.049523000000001
#
# number of rings (size 3 to 8) (size 9 to 14) (size 15 to 20)
#    0.000    1.000    0.000   11.400    0.000    1.600 
#    0.000    1.000    0.000    4.800    0.000    0.000 
#    0.000    0.000    0.000    0.000    0.000    0.000 
#
# Total GULP energy -223779.076668 kJ/mol
# GULP energy per Si atom -5594.476917 kJ/mol
# Density = 1.800844 g / cm^3
# Si number density = 18.049523 Si / 1000 Ang^3
#
#
#
# Elastic Constant Matrix: (Units=GPa)
#
#
# Indices 1 2 3 4 5 6 
#
# 1 196.1634 66.4691 81.1789 0.0000 0.0000 0.0000
# 2 66.4691 97.6491 93.4758 0.0000 0.0000 0.0000
# 3 81.1789 93.4758 156.1385 0.0000 0.0000 0.0000
# 4 0.0000 0.0000 0.0000 12.7329 0.0000 0.0000
# 5 0.0000 0.0000 0.0000 0.0000 32.0806 0.0000
# 6 0.0000 0.0000 0.0000 0.0000 0.0000 30.0765
#
#
#
# Elastic Compliance Matrix: (Units=1/GPa)
#
#
# Indices 1 2 3 4 5 6 
#
# 1 0.006835 -0.002930 -0.001800 0.000000 0.000000 0.000000
# 2 -0.002930 0.025244 -0.013589 0.000000 0.000000 0.000000
# 3 -0.001800 -0.013589 0.015476 0.000000 0.000000 0.000000
# 4 0.000000 0.000000 0.000000 0.078537 0.000000 0.000000
# 5 0.000000 0.000000 0.000000 0.000000 0.031172 0.000000
# 6 0.000000 0.000000 0.000000 0.000000 0.000000 0.033249
#
#
# Mechanical properties :
#
#
# Convention : Reuss Voigt Hill
#
# Bulk Modulus (GPa) = 91.60183 103.57763 97.58973
# Shear Modulus (GPa) = 21.66478 28.89980 25.28229
#
# Velocity S-wave (km/s) = 3.46829 4.00576 3.74668
# Velocity P-wave (km/s) = 8.17919 8.88283 8.53826
#
# Compressibility (1/GPa) = 0.01091681
#
# Stress axis : x y z
#
# Youngs Moduli (GPa) = 146.29730 39.61361 64.61664
#
# Poissons Ratio (x) = 0.11607 0.11629
# Poissons Ratio (y) = 0.42865 0.87810
# Poissons Ratio (z) = 0.26329 0.53833
#
# Static dielectric constant tensor:
#      x y z
#    x 1.593300 0.000000 0.000000 
#    y 0.000000 1.594790 0.000000 
#    z 0.000000 0.000000 1.611570 
# 
# From -- ./inp_files/29828.got.cif
#   From: 2010.05.17/outbox.cif.g08.bks.cpg/sg64_15_cif.got.tgz:29828.got - 2010.06.03 16:29:19.
