data_PCOD9480024
_publ_section_title
;
Structure prediction by ZEFSAII (Michael W. Deem and Ramdas Pophale) SiO2 
 PCOD9480024
Probable space group: C M C A
;
_chemical_formula_sum "Si O2"
_cell_formula_units_Z 72
_cell_length_a 10.983086
_cell_length_b 18.845397
_cell_length_c 17.212396
_cell_angle_alpha 90.000000
_cell_angle_beta 90.000000
_cell_angle_gamma 90.000000
_cell_volume 3562.632326
_symmetry_space_group_name_H-M "C M C A"
_symmetry_group_IT_number 64
_symmetry_cell_setting 'orthorhombic'
loop_
_space_group_symop_operation_xyz
x,y,z
-x,1/2-y,1/2+z
x,-y,-z
-x,1/2+y,1/2-z
-x,-y,-z
x,1/2+y,1/2-z
-x,y,z
x,1/2-y,1/2+z
1/2+x,1/2+y,z
1/2-x,-y,1/2+z
1/2+x,1/2-y,-z
1/2-x,y,1/2-z
1/2-x,1/2-y,-z
1/2+x,y,1/2-z
1/2-x,1/2+y,z
1/2+x,-y,1/2+z
loop_
_atom_site_type_symbol
_atom_site_label
_atom_site_fract_x
_atom_site_fract_y
_atom_site_fract_z
Si Si1 0.131628 0.722038 0.202783
Si Si2 0.250000 0.059151 0.750000
Si Si3 0.137626 0.426611 0.546075
Si Si4 0.641276 0.351676 0.106820
Si Si5 0.867681 0.940753 0.657694
O O1 0.250000 0.741785 0.250000
O O2 0.143621 0.767893 0.124407
O O3 0.129970 0.637800 0.193925
O O4 0.000000 0.743795 0.237376
O O5 0.290609 0.106605 0.676237
O O6 0.147671 0.004486 0.718918
O O7 0.127089 0.500000 0.500000
O O8 0.179659 0.370744 0.480281
O O9 0.244778 0.438756 0.607169
O O10 0.000000 0.408825 0.575910
O O11 0.500000 0.375035 0.111173
O O12 0.000000 0.949810 0.617329
#
# Coordination Sequence:
#
# PCOD9480024 Si02
#       5
#    16   8  16  16  16
#     4  10  21  39  59  85 120 153 192 241 293 348
#     4  12  20  36  62  88 118 152 192 244 294 350
#     4  10  21  39  61  85 117 159 198 239 291 353
#     4  10  21  38  60  85 115 154 197 240 291 351
#     4  11  24  38  59  91 122 153 193 245 294 345
#
# _framework density 20.209776000000002
#
# number of rings (size 3 to 8) (size 9 to 14) (size 15 to 20)
#    0.000    1.556    4.444    0.667    0.000    3.111 
#    0.000    1.111    0.000    0.000    0.000    0.000 
#    0.000    0.000    0.000    0.000    0.000    0.000 
#
# Total GULP energy -200513.481447 kJ/mol
# GULP energy per Si atom -5569.818929 kJ/mol
# Density = 2.016378 g / cm^3
# Si number density = 20.209776 Si / 1000 Ang^3
#
#
#
# Elastic Constant Matrix: (Units=GPa)
#
#
# Indices 1 2 3 4 5 6 
#
# 1 136.2705 -0.7724 41.5040 0.0000 0.0000 0.0000
# 2 -0.7724 62.5413 -8.6517 0.0000 0.0000 0.0000
# 3 41.5040 -8.6517 32.2339 0.0000 0.0000 0.0000
# 4 0.0000 0.0000 0.0000 18.5303 0.0000 0.0000
# 5 0.0000 0.0000 0.0000 0.0000 30.9525 0.0000
# 6 0.0000 0.0000 0.0000 0.0000 0.0000 -11.9303
#
#
#
# Elastic Compliance Matrix: (Units=1/GPa)
#
#
# Indices 1 2 3 4 5 6 
#
# 1 0.012339 -0.002124 -0.016457 0.000000 0.000000 0.000000
# 2 -0.002124 0.016972 0.007290 0.000000 0.000000 0.000000
# 3 -0.016457 0.007290 0.054170 0.000000 0.000000 0.000000
# 4 0.000000 0.000000 0.000000 0.053966 0.000000 0.000000
# 5 0.000000 0.000000 0.000000 0.000000 0.032308 0.000000
# 6 0.000000 0.000000 0.000000 0.000000 0.000000 -0.083820
#
#
# Mechanical properties :
#
#
# Convention : Reuss Voigt Hill
#
# Bulk Modulus (GPa) = 16.42080 32.80061 24.61070
# Shear Modulus (GPa) = 38.81503 20.77487 29.79495
#
# Velocity S-wave (km/s) = 4.38723 3.20966 3.84381
# Velocity P-wave (km/s) = 5.81434 5.47734 5.64835
#
# Compressibility (1/GPa) = 0.06089839
#
# Stress axis : x y z
#
# Youngs Moduli (GPa) = 81.04561 58.92157 18.46030
#
# Poissons Ratio (x) = 0.12516 0.30381
# Poissons Ratio (y) = 0.17216 -0.13458
# Poissons Ratio (z) = 1.33380 -0.42956
#
# Static dielectric constant tensor:
#      x y z
#    x 1.776910 0.000000 0.000000 
#    y 0.000000 1.732220 0.000000 
#    z 0.000000 0.000000 1.761240 
# 
# From -- ./inp_files/30655.got.cif
#   From: 2010.05.17/outbox.cif.g08.bks.cpg/sg64_16_cif.got.tgz:30655.got - 2010.06.03 16:29:19.
