data_PCOD9480198
_publ_section_title
;
Structure prediction by ZEFSAII (Michael W. Deem and Ramdas Pophale) SiO2 
 PCOD9480198
Probable space group: C M C A
;
_chemical_formula_sum "Si O2"
_cell_formula_units_Z 64
_cell_length_a 15.413089
_cell_length_b 10.693848
_cell_length_c 17.562773
_cell_angle_alpha 90.000000
_cell_angle_beta 90.000000
_cell_angle_gamma 90.000000
_cell_volume 2894.788116
_symmetry_space_group_name_H-M "C M C A"
_symmetry_group_IT_number 64
_symmetry_cell_setting 'orthorhombic'
loop_
_space_group_symop_operation_xyz
x,y,z
-x,1/2-y,1/2+z
x,-y,-z
-x,1/2+y,1/2-z
-x,-y,-z
x,1/2+y,1/2-z
-x,y,z
x,1/2-y,1/2+z
1/2+x,1/2+y,z
1/2-x,-y,1/2+z
1/2+x,1/2-y,-z
1/2-x,y,1/2-z
1/2-x,1/2-y,-z
1/2+x,y,1/2-z
1/2-x,1/2+y,z
1/2+x,-y,1/2+z
loop_
_atom_site_type_symbol
_atom_site_label
_atom_site_fract_x
_atom_site_fract_y
_atom_site_fract_z
Si Si1 0.602045 0.139218 0.267832
Si Si2 0.894436 0.602069 0.819290
Si Si3 0.266138 0.627108 0.549260
Si Si4 0.594802 0.467850 0.090203
O O1 0.500000 0.145406 0.249204
O O2 0.634037 0.280514 0.267332
O O3 0.637935 0.030471 0.213736
O O4 0.607068 0.086197 0.354394
O O5 0.851832 0.628351 0.900325
O O6 0.000000 0.602021 0.822732
O O7 0.270524 0.500000 0.500000
O O8 0.250000 0.750000 0.500000
O O9 0.179310 0.615398 0.600089
O O10 0.500000 0.413222 0.110733
O O11 0.591304 0.500000 0.000000
#
# Coordination Sequence:
#
# PCOD9480198 Si02
#       4
#    16  16  16  16
#     4   9  19  37  61  87 117 157 202 248 305 369
#     4  10  21  39  62  91 127 162 203 257 312 373
#     4  11  24  40  60  89 122 160 208 256 309 375
#     4   9  18  36  61  85 113 152 198 247 297 356
#
# _framework density 22.108698
#
# number of rings (size 3 to 8) (size 9 to 14) (size 15 to 20)
#    0.000    2.250    0.000    3.000    0.000    6.500 
#    0.000    5.000    0.000    0.000    0.000    0.000 
#    0.000    0.000    0.000    0.000    0.000    0.000 
#
# Total GULP energy -178495.513057 kJ/mol
# GULP energy per Si atom -5577.984783 kJ/mol
# Density = 2.205838 g / cm^3
# Si number density = 22.108698 Si / 1000 Ang^3
#
#
#
# Elastic Constant Matrix: (Units=GPa)
#
#
# Indices 1 2 3 4 5 6 
#
# 1 72.6107 31.9354 15.8877 0.0000 0.0000 0.0000
# 2 31.9354 156.6694 43.9033 0.0000 0.0000 0.0000
# 3 15.8877 43.9033 86.4621 0.0000 0.0000 0.0000
# 4 0.0000 0.0000 0.0000 29.5101 0.0000 0.0000
# 5 0.0000 0.0000 0.0000 0.0000 22.5067 0.0000
# 6 0.0000 0.0000 0.0000 0.0000 0.0000 0.5670
#
#
#
# Elastic Compliance Matrix: (Units=1/GPa)
#
#
# Indices 1 2 3 4 5 6 
#
# 1 0.015278 -0.002714 -0.001429 0.000000 0.000000 0.000000
# 2 -0.002714 0.007924 -0.003525 0.000000 0.000000 0.000000
# 3 -0.001429 -0.003525 0.013618 0.000000 0.000000 0.000000
# 4 0.000000 0.000000 0.000000 0.033887 0.000000 0.000000
# 5 0.000000 0.000000 0.000000 0.000000 0.044431 0.000000
# 6 0.000000 0.000000 0.000000 0.000000 0.000000 1.763526
#
#
# Mechanical properties :
#
#
# Convention : Reuss Voigt Hill
#
# Bulk Modulus (GPa) = 46.54561 55.46611 51.00586
# Shear Modulus (GPa) = 2.62997 25.45115 14.04056
#
# Velocity S-wave (km/s) = 1.09185 3.39659 2.52279
# Velocity P-wave (km/s) = 4.76322 6.36591 5.62197
#
# Compressibility (1/GPa) = 0.02148431
#
# Stress axis : x y z
#
# Youngs Moduli (GPa) = 65.45187 126.20201 73.43081
#
# Poissons Ratio (x) = 0.34248 0.10497
# Poissons Ratio (y) = 0.17762 0.25883
# Poissons Ratio (z) = 0.09356 0.44484
#
# Static dielectric constant tensor:
#      x y z
#    x 1.848510 0.000000 0.000000 
#    y 0.000000 1.827930 0.000000 
#    z 0.000000 0.000000 1.853210 
# 
# From -- ./inp_files/31655.got.cif
#   From: 2010.05.17/outbox.cif.g08.bks.cpg/sg64_16_cif.got.tgz:31655.got - 2010.06.03 16:29:19.
