data_PCOD9480061
_publ_section_title
;
Structure prediction by ZEFSAII (Michael W. Deem and Ramdas Pophale) SiO2 
 PCOD9480061
Probable space group: C M C A
;
_chemical_formula_sum "Si O2"
_cell_formula_units_Z 80
_cell_length_a 16.989983
_cell_length_b 26.732105
_cell_length_c 8.470459
_cell_angle_alpha 90.000000
_cell_angle_beta 90.000000
_cell_angle_gamma 90.000000
_cell_volume 3847.096208
_symmetry_space_group_name_H-M "C M C A"
_symmetry_group_IT_number 64
_symmetry_cell_setting 'orthorhombic'
loop_
_space_group_symop_operation_xyz
x,y,z
-x,1/2-y,1/2+z
x,-y,-z
-x,1/2+y,1/2-z
-x,-y,-z
x,1/2+y,1/2-z
-x,y,z
x,1/2-y,1/2+z
1/2+x,1/2+y,z
1/2-x,-y,1/2+z
1/2+x,1/2-y,-z
1/2-x,y,1/2-z
1/2-x,1/2-y,-z
1/2+x,y,1/2-z
1/2-x,1/2+y,z
1/2+x,-y,1/2+z
loop_
_atom_site_type_symbol
_atom_site_label
_atom_site_fract_x
_atom_site_fract_y
_atom_site_fract_z
Si Si1 0.590578 0.196989 0.854511
Si Si2 0.410302 0.500090 0.192304
Si Si3 0.338676 0.895138 0.683997
Si Si4 0.162720 0.896669 0.194727
Si Si5 0.839725 0.209350 0.313402
O O1 0.500000 0.200632 0.907833
O O2 0.605173 0.144324 0.768709
O O3 0.611614 0.242335 0.738066
O O4 0.651037 0.202645 0.999879
O O5 0.500000 0.491940 0.240725
O O6 0.381351 0.554740 0.242565
O O7 0.358882 0.453056 0.246563
O O8 0.407832 0.500000 0.000000
O O9 0.250000 0.897199 0.750000
O O10 0.339867 0.894942 0.494659
O O11 0.372740 0.842296 0.740737
O O12 0.250000 0.883916 0.250000
O O13 0.750000 0.214635 0.250000
#
# Coordination Sequence:
#
# PCOD9480061 Si02
#       5
#    16  16  16  16  16
#     4  12  25  41  63  94 126 158 203 259 316 369
#     4   9  19  35  57  86 120 158 199 246 302 360
#     4  10  21  38  61  88 118 158 205 248 296 359
#     4  11  21  38  63  88 121 161 204 251 301 363
#     4  11  23  42  64  89 123 164 209 251 306 376
#
# _framework density 20.794905
#
# number of rings (size 3 to 8) (size 9 to 14) (size 15 to 20)
#    0.000    1.400    0.000    6.600    0.000    2.400 
#    0.000    3.000    0.000    6.000    0.000    0.000 
#    0.000    0.000    0.000    0.000    0.000    0.000 
#
# Total GULP energy -223571.767653 kJ/mol
# GULP energy per Si atom -5589.294191 kJ/mol
# Density = 2.074757 g / cm^3
# Si number density = 20.794905 Si / 1000 Ang^3
#
#
#
# Elastic Constant Matrix: (Units=GPa)
#
#
# Indices 1 2 3 4 5 6 
#
# 1 67.4693 12.7041 2.2945 0.0000 0.0000 0.0000
# 2 12.7041 130.5488 14.5274 0.0000 0.0000 0.0000
# 3 2.2945 14.5274 68.8307 0.0000 0.0000 0.0000
# 4 0.0000 0.0000 0.0000 87.6163 0.0000 0.0000
# 5 0.0000 0.0000 0.0000 0.0000 15.9475 0.0000
# 6 0.0000 0.0000 0.0000 0.0000 0.0000 7.1084
#
#
#
# Elastic Compliance Matrix: (Units=1/GPa)
#
#
# Indices 1 2 3 4 5 6 
#
# 1 0.015101 -0.001447 -0.000198 0.000000 0.000000 0.000000
# 2 -0.001447 0.007983 -0.001637 0.000000 0.000000 0.000000
# 3 -0.000198 -0.001637 0.014880 0.000000 0.000000 0.000000
# 4 0.000000 0.000000 0.000000 0.011413 0.000000 0.000000
# 5 0.000000 0.000000 0.000000 0.000000 0.062706 0.000000
# 6 0.000000 0.000000 0.000000 0.000000 0.000000 0.140679
#
#
# Mechanical properties :
#
#
# Convention : Reuss Voigt Hill
#
# Bulk Modulus (GPa) = 31.84692 36.21122 34.02907
# Shear Modulus (GPa) = 18.53275 37.95597 28.24436
#
# Velocity S-wave (km/s) = 2.98856 4.27693 3.68942
# Velocity P-wave (km/s) = 5.22079 6.46845 5.87782
#
# Compressibility (1/GPa) = 0.03140021
#
# Stress axis : x y z
#
# Youngs Moduli (GPa) = 66.22150 125.26692 67.20240
#
# Poissons Ratio (x) = 0.18132 0.01330
# Poissons Ratio (y) = 0.09586 0.10999
# Poissons Ratio (z) = 0.01310 0.20502
#
# Static dielectric constant tensor:
#      x y z
#    x 1.728400 0.000000 0.000000 
#    y 0.000000 1.743220 0.000000 
#    z 0.000000 0.000000 1.876870 
# 
# From -- ./inp_files/7013.got.cif
#   From: 2010.05.17/outbox.cif.g08.bks.cpg/sg64_4_cif.got.tgz:7013.got - 2010.06.03 16:29:19.
