data_PCOD9480731
_publ_section_title
;
Structure prediction by ZEFSAII (Michael W. Deem and Ramdas Pophale) SiO2 
 PCOD9480731
Probable space group: C M C A
;
_chemical_formula_sum "Si O2"
_cell_formula_units_Z 100
_cell_length_a 7.826490
_cell_length_b 19.268680
_cell_length_c 30.950551
_cell_angle_alpha 90.000000
_cell_angle_beta 90.000000
_cell_angle_gamma 90.000000
_cell_volume 4667.532859
_symmetry_space_group_name_H-M "C M C A"
_symmetry_group_IT_number 64
_symmetry_cell_setting 'orthorhombic'
loop_
_space_group_symop_operation_xyz
x,y,z
-x,1/2-y,1/2+z
x,-y,-z
-x,1/2+y,1/2-z
-x,-y,-z
x,1/2+y,1/2-z
-x,y,z
x,1/2-y,1/2+z
1/2+x,1/2+y,z
1/2-x,-y,1/2+z
1/2+x,1/2-y,-z
1/2-x,y,1/2-z
1/2-x,1/2-y,-z
1/2+x,y,1/2-z
1/2-x,1/2+y,z
1/2+x,-y,1/2+z
loop_
_atom_site_type_symbol
_atom_site_label
_atom_site_fract_x
_atom_site_fract_y
_atom_site_fract_z
Si Si1 0.794014 0.607212 0.201225
Si Si2 0.689286 0.437723 0.456343
Si Si3 0.000000 0.000000 0.000000
Si Si4 0.294726 0.948646 0.201852
Si Si5 0.296851 0.345654 0.371213
Si Si6 0.302375 0.689632 0.382795
Si Si7 0.197235 0.175392 0.019696
O O1 0.750000 0.631334 0.250000
O O2 0.731367 0.527692 0.196521
O O3 0.733005 0.651730 0.160173
O O4 0.000000 0.607155 0.199373
O O5 0.500000 0.469708 0.452709
O O6 0.847042 0.488331 0.463794
O O7 0.719225 0.390221 0.414608
O O8 0.694709 0.383424 0.496129
O O9 0.500000 0.951543 0.196979
O O10 0.250000 0.926218 0.250000
O O11 0.230504 0.893595 0.167352
O O12 0.500000 0.331979 0.365114
O O13 0.208567 0.271876 0.375190
O O14 0.500000 0.668838 0.388275
O O15 0.214281 0.675454 0.428767
O O16 0.000000 0.159241 0.008058
O O17 0.250000 0.250000 0.000000
#
# Coordination Sequence:
#
# PCOD9480731 Si02
#       7
#    16  16   4  16  16  16  16
#     4   9  20  39  62  88 121 160 204 258 320 383
#     4  11  24  44  66  93 132 177 215 275 329 383
#     4  12  26  44  64  98 128 168 226 262 324 402
#     4   9  19  39  62  87 118 160 208 254 321 392
#     4  10  22  39  62  89 124 168 209 261 328 386
#     4  11  23  37  62  94 124 164 213 267 321 381
#     4  12  23  40  64  93 126 169 221 264 322 393
#
# _framework density 21.424595
#
# number of rings (size 3 to 8) (size 9 to 14) (size 15 to 20)
#    0.000    1.600    2.400    2.160    1.120    3.840 
#    0.000    6.400    0.000    0.000    0.000    0.000 
#    0.000    0.000    0.000    0.000    0.000    0.000 
#
# Total GULP energy -278889.711121 kJ/mol
# GULP energy per Si atom -5577.794222 kJ/mol
# Density = 2.137583 g / cm^3
# Si number density = 21.424595 Si / 1000 Ang^3
#
#
#
# Elastic Constant Matrix: (Units=GPa)
#
#
# Indices 1 2 3 4 5 6 
#
# 1 90.6435 4.6022 10.4004 0.0000 0.0000 0.0000
# 2 4.6022 26.4713 48.0645 0.0000 0.0000 0.0000
# 3 10.4004 48.0645 162.6049 0.0000 0.0000 0.0000
# 4 0.0000 0.0000 0.0000 36.0935 0.0000 0.0000
# 5 0.0000 0.0000 0.0000 0.0000 22.2359 0.0000
# 6 0.0000 0.0000 0.0000 0.0000 0.0000 24.9611
#
#
#
# Elastic Compliance Matrix: (Units=1/GPa)
#
#
# Indices 1 2 3 4 5 6 
#
# 1 0.011137 -0.001388 -0.000302 0.000000 0.000000 0.000000
# 2 -0.001388 0.081713 -0.024065 0.000000 0.000000 0.000000
# 3 -0.000302 -0.024065 0.013283 0.000000 0.000000 0.000000
# 4 0.000000 0.000000 0.000000 0.027706 0.000000 0.000000
# 5 0.000000 0.000000 0.000000 0.000000 0.044972 0.000000
# 6 0.000000 0.000000 0.000000 0.000000 0.000000 0.040062
#
#
# Mechanical properties :
#
#
# Convention : Reuss Voigt Hill
#
# Bulk Modulus (GPa) = 18.30713 45.09489 31.70101
# Shear Modulus (GPa) = 17.32561 31.10164 24.21362
#
# Velocity S-wave (km/s) = 2.84681 3.81422 3.36546
# Velocity P-wave (km/s) = 4.40105 6.36330 5.47087
#
# Compressibility (1/GPa) = 0.05462353
#
# Stress axis : x y z
#
# Youngs Moduli (GPa) = 89.78793 12.23797 75.28687
#
# Poissons Ratio (x) = 0.01698 0.02275
# Poissons Ratio (y) = 0.12459 1.81176
# Poissons Ratio (z) = 0.02713 0.29450
#
# Static dielectric constant tensor:
#      x y z
#    x 1.782320 0.000000 0.000000 
#    y 0.000000 1.653480 0.000000 
#    z 0.000000 0.000000 1.751180 
# 
# From -- ./inp_files/48289.got.cif
#   From: 2010.05.17/outbox.cif.g08.bks.cpg/sg64_25_cif.got.tgz:48289.got - 2010.06.03 16:29:19.
