data_PCOD9480840
_publ_section_title
;
Structure prediction by ZEFSAII (Michael W. Deem and Ramdas Pophale) SiO2 
 PCOD9480840
Probable space group: C M C A
;
_chemical_formula_sum "Si O2"
_cell_formula_units_Z 56
_cell_length_a 17.983565
_cell_length_b 13.977999
_cell_length_c 8.098357
_cell_angle_alpha 90.000000
_cell_angle_beta 90.000000
_cell_angle_gamma 90.000000
_cell_volume 2035.718446
_symmetry_space_group_name_H-M "C M C A"
_symmetry_group_IT_number 64
_symmetry_cell_setting 'orthorhombic'
loop_
_space_group_symop_operation_xyz
x,y,z
-x,1/2-y,1/2+z
x,-y,-z
-x,1/2+y,1/2-z
-x,-y,-z
x,1/2+y,1/2-z
-x,y,z
x,1/2-y,1/2+z
1/2+x,1/2+y,z
1/2-x,-y,1/2+z
1/2+x,1/2-y,-z
1/2-x,y,1/2-z
1/2-x,1/2-y,-z
1/2+x,y,1/2-z
1/2-x,1/2+y,z
1/2+x,-y,1/2+z
loop_
_atom_site_type_symbol
_atom_site_label
_atom_site_fract_x
_atom_site_fract_y
_atom_site_fract_z
Si Si1 0.916105 0.329198 0.774444
Si Si2 0.750000 0.397932 0.250000
Si Si3 0.211689 0.392832 0.573954
Si Si4 0.587351 0.114367 0.844360
O O1 0.871463 0.372372 0.622135
O O2 0.910658 0.215026 0.752648
O O3 0.000000 0.356495 0.747225
O O4 0.899010 0.365433 0.959955
O O5 0.760644 0.336312 0.414759
O O6 0.663486 0.438040 0.280997
O O7 0.225648 0.500000 0.500000
O O8 0.250000 0.379832 0.750000
O O9 0.500000 0.079229 0.829623
#
# Coordination Sequence:
#
# PCOD9480840 Si02
#       4
#    16   8  16  16
#     4  10  22  41  65  97 135 171 214 270 329 391
#     4  12  24  40  72  96 130 180 216 268 332 388
#     4  12  25  43  65  93 128 173 228 270 320 385
#     4  10  22  40  65 103 139 167 213 271 327 396
#
# _framework density 27.508716
#
# number of rings (size 3 to 8) (size 9 to 14) (size 15 to 20)
#    0.000    1.143    4.286    1.714    2.000    6.286 
#    0.000    0.000    0.000    5.143    0.000    0.000 
#    0.000    0.000    0.000    0.000    0.000    0.000 
#
# Total GULP energy -156246.845216 kJ/mol
# GULP energy per Si atom -5580.244472 kJ/mol
# Density = 2.744610 g / cm^3
# Si number density = 27.508716 Si / 1000 Ang^3
#
#
#
# Elastic Constant Matrix: (Units=GPa)
#
#
# Indices 1 2 3 4 5 6 
#
# 1 230.3103 20.5414 103.3510 0.0000 0.0000 0.0000
# 2 20.5414 83.5362 22.0297 0.0000 0.0000 0.0000
# 3 103.3510 22.0297 242.0324 0.0000 0.0000 0.0000
# 4 0.0000 0.0000 0.0000 40.5798 0.0000 0.0000
# 5 0.0000 0.0000 0.0000 0.0000 66.8685 0.0000
# 6 0.0000 0.0000 0.0000 0.0000 0.0000 22.3515
#
#
#
# Elastic Compliance Matrix: (Units=1/GPa)
#
#
# Indices 1 2 3 4 5 6 
#
# 1 0.005415 -0.000740 -0.002245 0.000000 0.000000 0.000000
# 2 -0.000740 0.012366 -0.000810 0.000000 0.000000 0.000000
# 3 -0.002245 -0.000810 0.005164 0.000000 0.000000 0.000000
# 4 0.000000 0.000000 0.000000 0.024643 0.000000 0.000000
# 5 0.000000 0.000000 0.000000 0.000000 0.014955 0.000000
# 6 0.000000 0.000000 0.000000 0.000000 0.000000 0.044740
#
#
# Mechanical properties :
#
#
# Convention : Reuss Voigt Hill
#
# Bulk Modulus (GPa) = 65.11760 94.19143 79.65451
# Shear Modulus (GPa) = 41.66979 53.29041 47.48010
#
# Velocity S-wave (km/s) = 3.89625 4.40616 4.15903
# Velocity P-wave (km/s) = 6.63053 7.75890 7.21681
#
# Compressibility (1/GPa) = 0.01535683
#
# Stress axis : x y z
#
# Youngs Moduli (GPa) = 184.65755 80.86514 193.64505
#
# Poissons Ratio (x) = 0.05981 0.43476
# Poissons Ratio (y) = 0.13657 0.15681
# Poissons Ratio (z) = 0.41458 0.06548
#
# Static dielectric constant tensor:
#      x y z
#    x 2.194320 0.000000 0.000000 
#    y 0.000000 2.238740 0.000000 
#    z 0.000000 0.000000 2.913130 
# 
# From -- ./inp_files/5505.got.cif
#   From: 2010.05.17/outbox.cif.g08.bks.cpg/sg64_3_cif.got.tgz:5505.got - 2010.06.03 16:29:19.
