data_PCOD9480028
_publ_section_title
;
Structure prediction by ZEFSAII (Michael W. Deem and Ramdas Pophale) SiO2 
 PCOD9480028
Probable space group: C M C A
;
_chemical_formula_sum "Si O2"
_cell_formula_units_Z 96
_cell_length_a 8.924225
_cell_length_b 25.471000
_cell_length_c 24.064792
_cell_angle_alpha 90.000000
_cell_angle_beta 90.000000
_cell_angle_gamma 90.000000
_cell_volume 5470.142240
_symmetry_space_group_name_H-M "C M C A"
_symmetry_group_IT_number 64
_symmetry_cell_setting 'orthorhombic'
loop_
_space_group_symop_operation_xyz
x,y,z
-x,1/2-y,1/2+z
x,-y,-z
-x,1/2+y,1/2-z
-x,-y,-z
x,1/2+y,1/2-z
-x,y,z
x,1/2-y,1/2+z
1/2+x,1/2+y,z
1/2-x,-y,1/2+z
1/2+x,1/2-y,-z
1/2-x,y,1/2-z
1/2-x,1/2-y,-z
1/2+x,y,1/2-z
1/2-x,1/2+y,z
1/2+x,-y,1/2+z
loop_
_atom_site_type_symbol
_atom_site_label
_atom_site_fract_x
_atom_site_fract_y
_atom_site_fract_z
Si Si1 0.321773 0.813234 0.309591
Si Si2 0.678409 0.600586 0.613662
Si Si3 0.821250 0.810285 0.690194
Si Si4 0.320597 0.498591 0.689291
Si Si5 0.679639 0.098416 0.377347
Si Si6 0.820207 0.061473 0.998749
O O1 0.500000 0.820664 0.306471
O O2 0.250000 0.827140 0.250000
O O3 0.253095 0.849673 0.356863
O O4 0.291771 0.751470 0.319679
O O5 0.500000 0.607160 0.612005
O O6 0.712122 0.549434 0.651476
O O7 0.741430 0.589710 0.552522
O O8 0.750000 0.823941 0.750000
O O9 0.747392 0.847255 0.644377
O O10 0.000000 0.818249 0.692183
O O11 0.500000 0.492634 0.693579
O O12 0.250000 0.505128 0.750000
O O13 0.250137 0.447957 0.659592
O O14 0.500000 0.098095 0.370966
O O15 0.715155 0.086752 0.441688
O O16 0.000000 0.063560 0.990708
O O17 0.776436 0.000000 0.000000
#
# Coordination Sequence:
#
# PCOD9480028 Si02
#       6
#    16  16  16  16  16  16
#     4  10  21  38  61  86 116 152 190 234 286 342
#     4  11  23  37  58  86 115 150 191 237 285 337
#     4  10  21  38  60  86 116 151 189 234 286 340
#     4  11  23  36  53  81 115 148 183 229 283 338
#     4  11  22  37  59  84 112 149 190 234 284 338
#     4  10  21  39  60  82 112 153 194 235 286 341
#
# _framework density 17.549816
#
# number of rings (size 3 to 8) (size 9 to 14) (size 15 to 20)
#    0.000    1.500    1.667    3.500    0.000    7.000 
#    0.000    0.833    0.000    0.000    0.000    0.000 
#    0.000    0.000    0.000    0.000    0.000    0.000 
#
# Total GULP energy -268316.841095 kJ/mol
# GULP energy per Si atom -5589.934189 kJ/mol
# Density = 1.750987 g / cm^3
# Si number density = 17.549816 Si / 1000 Ang^3
#
#
#
# Elastic Constant Matrix: (Units=GPa)
#
#
# Indices 1 2 3 4 5 6 
#
# 1 58.6187 50.5431 57.8735 0.0000 0.0000 0.0000
# 2 50.5431 85.7947 66.6261 0.0000 0.0000 0.0000
# 3 57.8735 66.6261 131.5965 0.0000 0.0000 0.0000
# 4 0.0000 0.0000 0.0000 21.0794 0.0000 0.0000
# 5 0.0000 0.0000 0.0000 0.0000 34.9541 0.0000
# 6 0.0000 0.0000 0.0000 0.0000 0.0000 10.6387
#
#
#
# Elastic Compliance Matrix: (Units=1/GPa)
#
#
# Indices 1 2 3 4 5 6 
#
# 1 0.040816 -0.016654 -0.009519 0.000000 0.000000 0.000000
# 2 -0.016654 0.026003 -0.005841 0.000000 0.000000 0.000000
# 3 -0.009519 -0.005841 0.014742 0.000000 0.000000 0.000000
# 4 0.000000 0.000000 0.000000 0.047440 0.000000 0.000000
# 5 0.000000 0.000000 0.000000 0.000000 0.028609 0.000000
# 6 0.000000 0.000000 0.000000 0.000000 0.000000 0.093997
#
#
# Mechanical properties :
#
#
# Convention : Reuss Voigt Hill
#
# Bulk Modulus (GPa) = 57.02936 69.56616 63.29776
# Shear Modulus (GPa) = 15.55317 20.06559 17.80938
#
# Velocity S-wave (km/s) = 2.98019 3.38501 3.18903
# Velocity P-wave (km/s) = 6.66395 7.41641 7.05023
#
# Compressibility (1/GPa) = 0.01753483
#
# Stress axis : x y z
#
# Youngs Moduli (GPa) = 24.49999 38.45771 67.83201
#
# Poissons Ratio (x) = 0.64046 0.64567
# Poissons Ratio (y) = 0.40801 0.39620
# Poissons Ratio (z) = 0.23321 0.22463
#
# Static dielectric constant tensor:
#      x y z
#    x 1.583410 0.000000 0.000000 
#    y 0.000000 1.583610 0.000000 
#    z 0.000000 0.000000 1.561620 
# 
# From -- ./inp_files/37015.got.cif
#   From: 2010.05.17/outbox.cif.g08.bks.cpg/sg64_19_cif.got.tgz:37015.got - 2010.06.03 16:29:19.
