data_PCOD9480184
_publ_section_title
;
Structure prediction by ZEFSAII (Michael W. Deem and Ramdas Pophale) SiO2 
 PCOD9480184
Probable space group: C M C A
;
_chemical_formula_sum "Si O2"
_cell_formula_units_Z 108
_cell_length_a 28.068305
_cell_length_b 14.632540
_cell_length_c 12.726553
_cell_angle_alpha 90.000000
_cell_angle_beta 90.000000
_cell_angle_gamma 90.000000
_cell_volume 5226.930163
_symmetry_space_group_name_H-M "C M C A"
_symmetry_group_IT_number 64
_symmetry_cell_setting 'orthorhombic'
loop_
_space_group_symop_operation_xyz
x,y,z
-x,1/2-y,1/2+z
x,-y,-z
-x,1/2+y,1/2-z
-x,-y,-z
x,1/2+y,1/2-z
-x,y,z
x,1/2-y,1/2+z
1/2+x,1/2+y,z
1/2-x,-y,1/2+z
1/2+x,1/2-y,-z
1/2-x,y,1/2-z
1/2-x,1/2-y,-z
1/2+x,y,1/2-z
1/2-x,1/2+y,z
1/2+x,-y,1/2+z
loop_
_atom_site_type_symbol
_atom_site_label
_atom_site_fract_x
_atom_site_fract_y
_atom_site_fract_z
Si Si1 0.250000 0.264776 0.750000
Si Si2 0.893992 0.363046 0.241811
Si Si3 0.576636 0.546675 0.342389
Si Si4 0.687720 0.905933 0.876453
Si Si5 0.296432 0.111732 0.878505
Si Si6 0.500000 0.500000 0.500000
Si Si7 0.553374 0.809894 0.670267
Si Si8 0.054687 0.399240 0.450746
O O1 0.290963 0.332005 0.704275
O O2 0.262356 0.193536 0.843047
O O3 0.925098 0.438591 0.180606
O O4 0.841058 0.376557 0.200205
O O5 0.909998 0.262551 0.213198
O O6 0.906070 0.381548 0.362801
O O7 0.631533 0.574342 0.359735
O O8 0.541853 0.560515 0.439464
O O9 0.558551 0.599026 0.239395
O O10 0.715507 0.003631 0.865910
O O11 0.692181 0.876718 0.998293
O O12 0.500000 0.773673 0.684830
O O13 0.560552 0.831452 0.548491
O O14 0.058735 0.500000 0.500000
O O15 0.000000 0.389718 0.409601
#
# Coordination Sequence:
#
# PCOD9480184 Si02
#       8
#     8  16  16  16  16   4  16  16
#     4  12  22  42  78  98 128 172 224 282 366 426
#     4  11  23  40  65  90 131 174 223 279 338 402
#     4  11  23  42  62  91 134 181 230 273 332 406
#     4  10  23  45  66 100 139 175 221 291 349 418
#     4  10  23  43  67  98 133 170 215 279 350 423
#     4  12  24  36  68  90 132 194 224 268 340 412
#     4  11  23  38  58  91 128 174 234 281 324 391
#     4  10  21  39  62  86 128 181 227 280 333 384
#
# _framework density 20.662223000000001
#
# number of rings (size 3 to 8) (size 9 to 14) (size 15 to 20)
#    0.000    1.333    2.222    4.000    2.074    3.556 
#    2.667    1.481    3.259    0.000    0.000    0.000 
#    0.000    0.000    0.000    0.000    0.000    0.000 
#
# Total GULP energy -300944.434723 kJ/mol
# GULP energy per Si atom -5573.045087 kJ/mol
# Density = 2.061519 g / cm^3
# Si number density = 20.662223 Si / 1000 Ang^3
#
#
#
# Elastic Constant Matrix: (Units=GPa)
#
#
# Indices 1 2 3 4 5 6 
#
# 1 57.1957 20.4847 27.0057 0.0000 0.0000 0.0000
# 2 20.4847 64.8995 4.8266 0.0000 0.0000 0.0000
# 3 27.0057 4.8266 85.8442 0.0000 0.0000 0.0000
# 4 0.0000 0.0000 0.0000 26.1692 0.0000 0.0000
# 5 0.0000 0.0000 0.0000 0.0000 49.4718 0.0000
# 6 0.0000 0.0000 0.0000 0.0000 0.0000 21.3167
#
#
#
# Elastic Compliance Matrix: (Units=1/GPa)
#
#
# Indices 1 2 3 4 5 6 
#
# 1 0.023184 -0.006804 -0.006911 0.000000 0.000000 0.000000
# 2 -0.006804 0.017470 0.001158 0.000000 0.000000 0.000000
# 3 -0.006911 0.001158 0.013758 0.000000 0.000000 0.000000
# 4 0.000000 0.000000 0.000000 0.038213 0.000000 0.000000
# 5 0.000000 0.000000 0.000000 0.000000 0.020214 0.000000
# 6 0.000000 0.000000 0.000000 0.000000 0.000000 0.046912
#
#
# Mechanical properties :
#
#
# Convention : Reuss Voigt Hill
#
# Bulk Modulus (GPa) = 34.13123 34.73041 34.43082
# Shear Modulus (GPa) = 25.69001 29.76636 27.72819
#
# Velocity S-wave (km/s) = 3.52992 3.79966 3.66727
# Velocity P-wave (km/s) = 5.75919 6.00792 5.88487
#
# Compressibility (1/GPa) = 0.02929868
#
# Stress axis : x y z
#
# Youngs Moduli (GPa) = 43.13398 57.24167 72.68523
#
# Poissons Ratio (x) = 0.38945 0.50231
# Poissons Ratio (y) = 0.29347 -0.08418
# Poissons Ratio (z) = 0.29809 -0.06629
#
# Static dielectric constant tensor:
#      x y z
#    x 1.742150 0.000000 0.000000 
#    y 0.000000 1.754280 0.000000 
#    z 0.000000 0.000000 1.745090 
# 
# From -- ./inp_files/19885.got.cif
#   From: 2010.05.17/outbox.cif.g08.bks.cpg/sg64_10_cif.got.tgz:19885.got - 2010.06.03 16:29:19.
