data_PCOD9480888
_publ_section_title
;
Structure prediction by ZEFSAII (Michael W. Deem and Ramdas Pophale) SiO2 
 PCOD9480888
Probable space group: C M C A
;
_chemical_formula_sum "Si O2"
_cell_formula_units_Z 112
_cell_length_a 20.753454
_cell_length_b 10.949978
_cell_length_c 22.046732
_cell_angle_alpha 90.000000
_cell_angle_beta 90.000000
_cell_angle_gamma 90.000000
_cell_volume 5010.116865
_symmetry_space_group_name_H-M "C M C A"
_symmetry_group_IT_number 64
_symmetry_cell_setting 'orthorhombic'
loop_
_space_group_symop_operation_xyz
x,y,z
-x,1/2-y,1/2+z
x,-y,-z
-x,1/2+y,1/2-z
-x,-y,-z
x,1/2+y,1/2-z
-x,y,z
x,1/2-y,1/2+z
1/2+x,1/2+y,z
1/2-x,-y,1/2+z
1/2+x,1/2-y,-z
1/2-x,y,1/2-z
1/2-x,1/2-y,-z
1/2+x,y,1/2-z
1/2-x,1/2+y,z
1/2+x,-y,1/2+z
loop_
_atom_site_type_symbol
_atom_site_label
_atom_site_fract_x
_atom_site_fract_y
_atom_site_fract_z
Si Si1 0.135029 0.494850 0.862456
Si Si2 0.859836 0.895355 0.137291
Si Si3 0.077072 0.142847 0.743608
Si Si4 0.645094 0.735612 0.557395
Si Si5 0.070152 0.636269 0.350147
Si Si6 0.072617 0.798950 0.559833
Si Si7 0.755409 0.957974 0.931120
O O1 0.109020 0.534089 0.796715
O O2 0.150495 0.620769 0.898164
O O3 0.081218 0.412023 0.894378
O O4 0.201172 0.425224 0.880550
O O5 0.874789 0.826352 0.200583
O O6 0.908875 0.827720 0.092271
O O7 0.879962 0.029856 0.158483
O O8 0.796068 0.928857 0.098980
O O9 0.075982 0.258791 0.699169
O O10 0.000000 0.121497 0.758388
O O11 0.583717 0.807804 0.584167
O O12 0.625722 0.687211 0.492169
O O13 0.701589 0.835584 0.559265
O O14 0.000000 0.581819 0.347616
O O15 0.000000 0.798205 0.536835
O O16 0.736830 0.000000 0.000000
#
# Coordination Sequence:
#
# PCOD9480888 Si02
#       7
#    16  16  16  16  16  16  16
#     4  11  26  41  67  96 131 181 221 278 338 398
#     4  11  24  40  66  98 129 175 221 275 335 396
#     4  10  22  43  66  93 131 172 224 281 341 399
#     4  10  22  41  62  97 131 177 213 272 341 394
#     4   9  19  37  61  89 127 170 210 263 332 396
#     4  12  24  39  65 102 135 171 225 280 340 408
#     4  11  23  44  69  95 135 177 229 272 329 408
#
# _framework density 22.354768
#
# number of rings (size 3 to 8) (size 9 to 14) (size 15 to 20)
#    0.000    1.429    1.429    3.429    4.000    4.000 
#    0.000    2.143    0.000    0.000    0.000    0.000 
#    0.000    0.000    0.000    0.000    0.000    0.000 
#
# Total GULP energy -312011.795228 kJ/mol
# GULP energy per Si atom -5571.639200 kJ/mol
# Density = 2.230389 g / cm^3
# Si number density = 22.354768 Si / 1000 Ang^3
#
#
#
# Elastic Constant Matrix: (Units=GPa)
#
#
# Indices 1 2 3 4 5 6 
#
# 1 95.9165 18.7042 23.7026 0.0000 0.0000 0.0000
# 2 18.7042 50.3561 2.1697 0.0000 0.0000 0.0000
# 3 23.7026 2.1697 80.7153 0.0000 0.0000 0.0000
# 4 0.0000 0.0000 0.0000 32.8731 0.0000 0.0000
# 5 0.0000 0.0000 0.0000 0.0000 4.1068 0.0000
# 6 0.0000 0.0000 0.0000 0.0000 0.0000 12.9898
#
#
#
# Elastic Compliance Matrix: (Units=1/GPa)
#
#
# Indices 1 2 3 4 5 6 
#
# 1 0.012126 -0.004356 -0.003444 0.000000 0.000000 0.000000
# 2 -0.004356 0.021446 0.000703 0.000000 0.000000 0.000000
# 3 -0.003444 0.000703 0.013382 0.000000 0.000000 0.000000
# 4 0.000000 0.000000 0.000000 0.030420 0.000000 0.000000
# 5 0.000000 0.000000 0.000000 0.000000 0.243496 0.000000
# 6 0.000000 0.000000 0.000000 0.000000 0.000000 0.076983
#
#
# Mechanical properties :
#
#
# Convention : Reuss Voigt Hill
#
# Bulk Modulus (GPa) = 30.52501 35.12676 32.82589
# Shear Modulus (GPa) = 11.82124 22.15471 16.98797
#
# Velocity S-wave (km/s) = 2.30206 3.15151 2.75967
# Velocity P-wave (km/s) = 4.55527 5.38425 4.98701
#
# Compressibility (1/GPa) = 0.03276002
#
# Stress axis : x y z
#
# Youngs Moduli (GPa) = 82.46639 46.62834 74.72921
#
# Poissons Ratio (x) = 0.20310 0.25736
# Poissons Ratio (y) = 0.35920 -0.05250
# Poissons Ratio (z) = 0.28400 -0.03276
#
# Static dielectric constant tensor:
#      x y z
#    x 1.923960 0.000000 0.000000 
#    y 0.000000 1.867550 0.000000 
#    z 0.000000 0.000000 1.878380 
# 
# From -- ./inp_files/41500.got.cif
#   From: 2010.05.17/outbox.cif.g08.bks.cpg/sg64_21_cif.got.tgz:41500.got - 2010.06.03 16:29:19.
