data_PCOD9480698
_publ_section_title
;
Structure prediction by ZEFSAII (Michael W. Deem and Ramdas Pophale) SiO2 
 PCOD9480698
Probable space group: C M C A
;
_chemical_formula_sum "Si O2"
_cell_formula_units_Z 112
_cell_length_a 15.824490
_cell_length_b 10.861555
_cell_length_c 31.482328
_cell_angle_alpha 90.000000
_cell_angle_beta 90.000000
_cell_angle_gamma 90.000000
_cell_volume 5411.137469
_symmetry_space_group_name_H-M "C M C A"
_symmetry_group_IT_number 64
_symmetry_cell_setting 'orthorhombic'
loop_
_space_group_symop_operation_xyz
x,y,z
-x,1/2-y,1/2+z
x,-y,-z
-x,1/2+y,1/2-z
-x,-y,-z
x,1/2+y,1/2-z
-x,y,z
x,1/2-y,1/2+z
1/2+x,1/2+y,z
1/2-x,-y,1/2+z
1/2+x,1/2-y,-z
1/2-x,y,1/2-z
1/2-x,1/2-y,-z
1/2+x,y,1/2-z
1/2-x,1/2+y,z
1/2+x,-y,1/2+z
loop_
_atom_site_type_symbol
_atom_site_label
_atom_site_fract_x
_atom_site_fract_y
_atom_site_fract_z
Si Si1 0.095215 0.552013 0.776714
Si Si2 0.790199 0.760917 0.794785
Si Si3 0.715628 0.990362 0.397813
Si Si4 0.648396 0.882942 0.847797
Si Si5 0.094875 0.273435 0.423444
Si Si6 0.281783 0.129783 0.025327
Si Si7 0.595770 0.968725 0.682121
O O1 0.178594 0.623138 0.791725
O O2 0.101189 0.430683 0.805958
O O3 0.105611 0.543770 0.725848
O O4 0.000000 0.601454 0.783771
O O5 0.750000 0.799569 0.750000
O O6 0.725039 0.797313 0.831045
O O7 0.876324 0.834083 0.802878
O O8 0.671340 0.873489 0.420626
O O9 0.654977 0.002474 0.357198
O O10 0.808803 0.006358 0.375927
O O11 0.722645 0.097169 0.433677
O O12 0.594754 0.798214 0.878719
O O13 0.126915 0.172574 0.457258
O O14 0.000000 0.321560 0.432098
O O15 0.250000 0.250000 0.000000
O O16 0.285642 0.000000 0.000000
O O17 0.500000 0.977504 0.668212
#
# Coordination Sequence:
#
# PCOD9480698 Si02
#       7
#    16  16  16  16  16  16  16
#     4  11  23  37  56  83 122 170 219 272 319 364
#     4  11  22  35  57  79 114 165 230 270 313 365
#     4  10  22  39  66  98 129 169 212 263 326 390
#     4  10  22  39  61  89 126 176 224 267 317 382
#     4  11  23  41  68 104 137 168 211 273 332 394
#     4  11  23  47  77 101 132 171 213 261 327 417
#     4  10  22  39  57  87 128 167 213 270 323 373
#
# _framework density 20.698052000000001
#
# number of rings (size 3 to 8) (size 9 to 14) (size 15 to 20)
#    0.000    1.429    2.857    2.143    6.000    0.286 
#    0.000    2.143    0.000    0.000    0.000    0.000 
#    0.000    0.000    0.000    0.000    0.000    0.000 
#
# Total GULP energy -311819.167390 kJ/mol
# GULP energy per Si atom -5568.199418 kJ/mol
# Density = 2.065094 g / cm^3
# Si number density = 20.698052 Si / 1000 Ang^3
#
#
#
# Elastic Constant Matrix: (Units=GPa)
#
#
# Indices 1 2 3 4 5 6 
#
# 1 91.2986 26.6477 23.9157 0.0000 0.0000 0.0000
# 2 26.6477 59.3612 33.6346 0.0000 0.0000 0.0000
# 3 23.9157 33.6346 91.1851 0.0000 0.0000 0.0000
# 4 0.0000 0.0000 0.0000 33.3578 0.0000 0.0000
# 5 0.0000 0.0000 0.0000 0.0000 13.8346 0.0000
# 6 0.0000 0.0000 0.0000 0.0000 0.0000 17.3621
#
#
#
# Elastic Compliance Matrix: (Units=1/GPa)
#
#
# Indices 1 2 3 4 5 6 
#
# 1 0.012778 -0.004851 -0.001562 0.000000 0.000000 0.000000
# 2 -0.004851 0.023139 -0.007263 0.000000 0.000000 0.000000
# 3 -0.001562 -0.007263 0.014055 0.000000 0.000000 0.000000
# 4 0.000000 0.000000 0.000000 0.029978 0.000000 0.000000
# 5 0.000000 0.000000 0.000000 0.000000 0.072283 0.000000
# 6 0.000000 0.000000 0.000000 0.000000 0.000000 0.057597
#
#
# Mechanical properties :
#
#
# Convention : Reuss Voigt Hill
#
# Bulk Modulus (GPa) = 44.20747 45.58234 44.89491
# Shear Modulus (GPa) = 20.43138 23.42068 21.92603
#
# Velocity S-wave (km/s) = 3.14525 3.36749 3.25826
# Velocity P-wave (km/s) = 5.88173 6.09838 5.99104
#
# Compressibility (1/GPa) = 0.02262061
#
# Stress axis : x y z
#
# Youngs Moduli (GPa) = 78.25846 43.21736 71.14758
#
# Poissons Ratio (x) = 0.20966 0.11113
# Poissons Ratio (y) = 0.37965 0.51672
# Poissons Ratio (z) = 0.12224 0.31387
#
# Static dielectric constant tensor:
#      x y z
#    x 1.747110 0.000000 0.000000 
#    y 0.000000 1.815680 0.000000 
#    z 0.000000 0.000000 1.788860 
# 
# From -- ./inp_files/53297.got.cif
#   From: 2010.05.17/outbox.cif.g08.bks.cpg/sg64_27_cif.got.tgz:53297.got - 2010.06.03 16:29:19.
