data_PCOD9480042
_publ_section_title
;
Structure prediction by ZEFSAII (Michael W. Deem and Ramdas Pophale) SiO2 
 PCOD9480042
Probable space group: C M C A
;
_chemical_formula_sum "Si O2"
_cell_formula_units_Z 72
_cell_length_a 20.065384
_cell_length_b 16.718806
_cell_length_c 11.170974
_cell_angle_alpha 90.000000
_cell_angle_beta 90.000000
_cell_angle_gamma 90.000000
_cell_volume 3747.518408
_symmetry_space_group_name_H-M "C M C A"
_symmetry_group_IT_number 64
_symmetry_cell_setting 'orthorhombic'
loop_
_space_group_symop_operation_xyz
x,y,z
-x,1/2-y,1/2+z
x,-y,-z
-x,1/2+y,1/2-z
-x,-y,-z
x,1/2+y,1/2-z
-x,y,z
x,1/2-y,1/2+z
1/2+x,1/2+y,z
1/2-x,-y,1/2+z
1/2+x,1/2-y,-z
1/2-x,y,1/2-z
1/2-x,1/2-y,-z
1/2+x,y,1/2-z
1/2-x,1/2+y,z
1/2+x,-y,1/2+z
loop_
_atom_site_type_symbol
_atom_site_label
_atom_site_fract_x
_atom_site_fract_y
_atom_site_fract_z
Si Si1 0.422281 0.792889 0.562011
Si Si2 0.250000 0.417725 0.250000
Si Si3 0.780445 0.840115 0.003682
Si Si4 0.829630 0.546050 0.115314
Si Si5 0.076098 0.813750 0.674475
O O1 0.500000 0.822197 0.551705
O O2 0.356366 0.846193 0.542138
O O3 0.414852 0.764565 0.700982
O O4 0.413784 0.731475 0.451410
O O5 0.223890 0.365337 0.358645
O O6 0.193074 0.476648 0.203018
O O7 0.750000 0.750000 0.000000
O O8 0.733666 0.901917 0.931290
O O9 0.877547 0.609589 0.174971
O O10 0.859005 0.500000 0.000000
O O11 0.000000 0.840368 0.675061
#
# Coordination Sequence:
#
# PCOD9480042 Si02
#       5
#    16   8  16  16  16
#     4  10  22  38  61  91 123 155 202 259 301 353
#     4  10  24  38  58  90 124 158 202 254 310 364
#     4  11  22  37  64  91 117 161 211 251 304 363
#     4  10  21  39  58  87 125 159 199 254 308 368
#     4  10  21  38  60  89 123 163 204 251 308 363
#
# _framework density 19.212713999999998
#
# number of rings (size 3 to 8) (size 9 to 14) (size 15 to 20)
#    0.000    1.778    2.222    1.333    3.111    1.333 
#    0.000    1.111    0.000    8.667    0.000    0.000 
#    0.000    0.000    0.000    0.000    0.000    0.000 
#
# Total GULP energy -200531.821564 kJ/mol
# GULP energy per Si atom -5570.328377 kJ/mol
# Density = 1.916899 g / cm^3
# Si number density = 19.212714 Si / 1000 Ang^3
#
#
#
# Elastic Constant Matrix: (Units=GPa)
#
#
# Indices 1 2 3 4 5 6 
#
# 1 72.3052 20.7448 46.6004 0.0000 0.0000 0.0000
# 2 20.7448 66.4313 65.1869 0.0000 0.0000 0.0000
# 3 46.6004 65.1869 161.6023 0.0000 0.0000 0.0000
# 4 0.0000 0.0000 0.0000 25.1970 0.0000 0.0000
# 5 0.0000 0.0000 0.0000 0.0000 19.1727 0.0000
# 6 0.0000 0.0000 0.0000 0.0000 0.0000 15.6488
#
#
#
# Elastic Compliance Matrix: (Units=1/GPa)
#
#
# Indices 1 2 3 4 5 6 
#
# 1 0.017015 -0.000825 -0.004573 0.000000 0.000000 0.000000
# 2 -0.000825 0.024955 -0.009828 0.000000 0.000000 0.000000
# 3 -0.004573 -0.009828 0.011471 0.000000 0.000000 0.000000
# 4 0.000000 0.000000 0.000000 0.039687 0.000000 0.000000
# 5 0.000000 0.000000 0.000000 0.000000 0.052158 0.000000
# 6 0.000000 0.000000 0.000000 0.000000 0.000000 0.063903
#
#
# Mechanical properties :
#
#
# Convention : Reuss Voigt Hill
#
# Bulk Modulus (GPa) = 43.50344 62.82258 53.16301
# Shear Modulus (GPa) = 20.21793 23.19082 21.70437
#
# Velocity S-wave (km/s) = 3.24747 3.47804 3.36473
# Velocity P-wave (km/s) = 6.06247 6.99274 6.54416
#
# Compressibility (1/GPa) = 0.02298669
#
# Stress axis : x y z
#
# Youngs Moduli (GPa) = 58.77280 40.07191 87.17336
#
# Poissons Ratio (x) = 0.03308 0.39868
# Poissons Ratio (y) = 0.04851 0.85677
# Poissons Ratio (z) = 0.26879 0.39384
#
# Static dielectric constant tensor:
#      x y z
#    x 1.692960 0.000000 0.000000 
#    y 0.000000 1.639950 0.000000 
#    z 0.000000 0.000000 1.785370 
# 
# From -- ./inp_files/15781.got.cif
#   From: 2010.05.17/outbox.cif.g08.bks.cpg/sg64_8_cif.got.tgz:15781.got - 2010.06.03 16:29:19.
