data_PCOD9480558
_publ_section_title
;
Structure prediction by ZEFSAII (Michael W. Deem and Ramdas Pophale) SiO2 
 PCOD9480558
Probable space group: C M C A
;
_chemical_formula_sum "Si O2"
_cell_formula_units_Z 96
_cell_length_a 21.395730
_cell_length_b 10.046401
_cell_length_c 24.294512
_cell_angle_alpha 90.000000
_cell_angle_beta 90.000000
_cell_angle_gamma 90.000000
_cell_volume 5222.107377
_symmetry_space_group_name_H-M "C M C A"
_symmetry_group_IT_number 64
_symmetry_cell_setting 'orthorhombic'
loop_
_space_group_symop_operation_xyz
x,y,z
-x,1/2-y,1/2+z
x,-y,-z
-x,1/2+y,1/2-z
-x,-y,-z
x,1/2+y,1/2-z
-x,y,z
x,1/2-y,1/2+z
1/2+x,1/2+y,z
1/2-x,-y,1/2+z
1/2+x,1/2-y,-z
1/2-x,y,1/2-z
1/2-x,1/2-y,-z
1/2+x,y,1/2-z
1/2-x,1/2+y,z
1/2+x,-y,1/2+z
loop_
_atom_site_type_symbol
_atom_site_label
_atom_site_fract_x
_atom_site_fract_y
_atom_site_fract_z
Si Si1 0.757071 0.050991 0.379148
Si Si2 0.318623 0.335204 0.721204
Si Si3 0.706078 0.795562 0.051152
Si Si4 0.071491 0.951061 0.087275
Si Si5 0.426273 0.719362 0.014425
Si Si6 0.349281 0.549893 0.804145
O O1 0.774337 0.938703 0.423819
O O2 0.718017 0.971816 0.332817
O O3 0.811023 0.117303 0.342010
O O4 0.718187 0.173819 0.405570
O O5 0.250000 0.320357 0.750000
O O6 0.355688 0.440447 0.757506
O O7 0.351292 0.193974 0.721937
O O8 0.632658 0.804616 0.035092
O O9 0.750000 0.750000 0.000000
O O10 0.105956 0.962924 0.144215
O O11 0.000000 0.921417 0.098340
O O12 0.074355 0.088353 0.053209
O O13 0.093175 0.834985 0.045944
O O14 0.500000 0.765562 0.013815
#
# Coordination Sequence:
#
# PCOD9480558 Si02
#       6
#    16  16  16  16  16  16
#     4  11  22  36  55  86 122 152 187 240 298 349
#     4  10  22  35  55  81 112 153 188 237 299 358
#     4  12  23  35  59  92 126 153 196 246 297 353
#     4   9  18  34  58  83 110 150 200 246 286 345
#     4   9  19  35  58  86 118 159 200 236 293 363
#     4  11  20  36  56  80 114 149 195 238 297 348
#
# _framework density 18.383382999999998
#
# number of rings (size 3 to 8) (size 9 to 14) (size 15 to 20)
#    0.000    1.667    3.333    4.000    4.667    0.000 
#    0.000    0.833    0.000    4.000    0.000    0.000 
#    0.000    0.000    0.000    0.000    0.000    0.000 
#
# Total GULP energy -267503.220108 kJ/mol
# GULP energy per Si atom -5572.983752 kJ/mol
# Density = 1.834154 g / cm^3
# Si number density = 18.383383 Si / 1000 Ang^3
#
#
#
# Elastic Constant Matrix: (Units=GPa)
#
#
# Indices 1 2 3 4 5 6 
#
# 1 36.4830 7.0853 20.0950 0.0000 0.0000 0.0000
# 2 7.0853 79.0895 33.8964 0.0000 0.0000 0.0000
# 3 20.0950 33.8964 88.0542 0.0000 0.0000 0.0000
# 4 0.0000 0.0000 0.0000 28.7222 0.0000 0.0000
# 5 0.0000 0.0000 0.0000 0.0000 5.0506 0.0000
# 6 0.0000 0.0000 0.0000 0.0000 0.0000 13.0673
#
#
#
# Elastic Compliance Matrix: (Units=1/GPa)
#
#
# Indices 1 2 3 4 5 6 
#
# 1 0.031357 0.000309 -0.007275 0.000000 0.000000 0.000000
# 2 0.000309 0.015145 -0.005901 0.000000 0.000000 0.000000
# 3 -0.007275 -0.005901 0.015288 0.000000 0.000000 0.000000
# 4 0.000000 0.000000 0.000000 0.034816 0.000000 0.000000
# 5 0.000000 0.000000 0.000000 0.000000 0.197996 0.000000
# 6 0.000000 0.000000 0.000000 0.000000 0.000000 0.076527
#
#
# Mechanical properties :
#
#
# Convention : Reuss Voigt Hill
#
# Bulk Modulus (GPa) = 27.73383 36.19779 31.96581
# Shear Modulus (GPa) = 12.22847 18.87135 15.54991
#
# Velocity S-wave (km/s) = 2.58193 3.20745 2.91154
# Velocity P-wave (km/s) = 4.89975 5.78362 5.35993
#
# Compressibility (1/GPa) = 0.03605705
#
# Stress axis : x y z
#
# Youngs Moduli (GPa) = 31.89071 66.02790 65.40965
#
# Poissons Ratio (x) = -0.02038 0.47585
# Poissons Ratio (y) = -0.00985 0.38595
# Poissons Ratio (z) = 0.23200 0.38960
#
# Static dielectric constant tensor:
#      x y z
#    x 1.668140 0.000000 0.000000 
#    y 0.000000 1.653660 0.000000 
#    z 0.000000 0.000000 1.734540 
# 
# From -- ./inp_files/40864.got.cif
#   From: 2010.05.17/outbox.cif.g08.bks.cpg/sg64_21_cif.got.tgz:40864.got - 2010.06.03 16:29:19.
