data_PCOD9480321
_publ_section_title
;
Structure prediction by ZEFSAII (Michael W. Deem and Ramdas Pophale) SiO2 
 PCOD9480321
Probable space group: C M C A
;
_chemical_formula_sum "Si O2"
_cell_formula_units_Z 72
_cell_length_a 13.804291
_cell_length_b 24.597474
_cell_length_c 11.268955
_cell_angle_alpha 90.000000
_cell_angle_beta 90.000000
_cell_angle_gamma 90.000000
_cell_volume 3826.381434
_symmetry_space_group_name_H-M "C M C A"
_symmetry_group_IT_number 64
_symmetry_cell_setting 'orthorhombic'
loop_
_space_group_symop_operation_xyz
x,y,z
-x,1/2-y,1/2+z
x,-y,-z
-x,1/2+y,1/2-z
-x,-y,-z
x,1/2+y,1/2-z
-x,y,z
x,1/2-y,1/2+z
1/2+x,1/2+y,z
1/2-x,-y,1/2+z
1/2+x,1/2-y,-z
1/2-x,y,1/2-z
1/2-x,1/2-y,-z
1/2+x,y,1/2-z
1/2-x,1/2+y,z
1/2+x,-y,1/2+z
loop_
_atom_site_type_symbol
_atom_site_label
_atom_site_fract_x
_atom_site_fract_y
_atom_site_fract_z
Si Si1 0.500000 0.064804 0.349337
Si Si2 0.294788 0.607691 0.877958
Si Si3 0.849357 0.500000 0.500000
Si Si4 0.000000 0.663121 0.171191
Si Si5 0.500000 0.244467 0.389605
Si Si6 0.500000 0.149272 0.566487
Si Si7 0.328842 0.799452 0.008081
O O1 0.588870 0.025891 0.389692
O O2 0.500000 0.100767 0.227142
O O3 0.500000 0.110990 0.450464
O O4 0.250000 0.602034 0.750000
O O5 0.294669 0.550451 0.944492
O O6 0.402822 0.632453 0.867285
O O7 0.234201 0.649597 0.955376
O O8 0.000000 0.702779 0.283443
O O9 0.097016 0.680034 0.096375
O O10 0.500000 0.210066 0.514001
O O11 0.596071 0.280190 0.391036
O O12 0.250000 0.750000 0.000000
#
# Coordination Sequence:
#
# PCOD9480321 Si02
#       7
#     8  16   8   8   8   8  16
#     4   8  17  40  67  88 118 167 214 262 321 378
#     4  11  24  39  65  92 123 169 208 266 323 374
#     4   9  20  42  64  93 124 162 228 269 312 389
#     4  10  24  40  64  94 128 179 206 266 328 378
#     4  10  21  40  63  85 132 174 200 255 316 376
#     4   9  18  40  60  86 122 160 212 248 303 390
#     4  11  24  39  59  96 134 164 218 262 312 402
#
# _framework density 18.816734
#
# number of rings (size 3 to 8) (size 9 to 14) (size 15 to 20)
#    0.000    2.000    2.222    0.667    3.111    3.556 
#    0.000    0.000    0.000    4.667    0.000    0.000 
#    0.000    0.000    0.000    0.000    0.000    0.000 
#
# Total GULP energy -200407.699098 kJ/mol
# GULP energy per Si atom -5566.880530 kJ/mol
# Density = 1.877391 g / cm^3
# Si number density = 18.816734 Si / 1000 Ang^3
#
#
#
# Elastic Constant Matrix: (Units=GPa)
#
#
# Indices 1 2 3 4 5 6 
#
# 1 151.3750 73.9803 61.6915 0.0000 0.0000 0.0000
# 2 73.9803 172.9715 65.6689 0.0000 0.0000 0.0000
# 3 61.6915 65.6689 92.1914 0.0000 0.0000 0.0000
# 4 0.0000 0.0000 0.0000 30.9456 0.0000 0.0000
# 5 0.0000 0.0000 0.0000 0.0000 16.0139 0.0000
# 6 0.0000 0.0000 0.0000 0.0000 0.0000 81.5938
#
#
#
# Elastic Compliance Matrix: (Units=1/GPa)
#
#
# Indices 1 2 3 4 5 6 
#
# 1 0.009714 -0.002312 -0.004853 0.000000 0.000000 0.000000
# 2 -0.002312 0.008475 -0.004489 0.000000 0.000000 0.000000
# 3 -0.004853 -0.004489 0.017293 0.000000 0.000000 0.000000
# 4 0.000000 0.000000 0.000000 0.032315 0.000000 0.000000
# 5 0.000000 0.000000 0.000000 0.000000 0.062446 0.000000
# 6 0.000000 0.000000 0.000000 0.000000 0.000000 0.012256
#
#
# Mechanical properties :
#
#
# Convention : Reuss Voigt Hill
#
# Bulk Modulus (GPa) = 82.15930 91.02438 86.59184
# Shear Modulus (GPa) = 29.43528 40.05715 34.74622
#
# Velocity S-wave (km/s) = 3.95943 4.61890 4.30182
# Velocity P-wave (km/s) = 8.04117 8.77068 8.41384
#
# Compressibility (1/GPa) = 0.01217148
#
# Stress axis : x y z
#
# Youngs Moduli (GPa) = 102.94375 117.99988 57.82850
#
# Poissons Ratio (x) = 0.27283 0.28066
# Poissons Ratio (y) = 0.23802 0.25961
# Poissons Ratio (z) = 0.49962 0.52974
#
# Static dielectric constant tensor:
#      x y z
#    x 1.691430 0.000000 0.000000 
#    y 0.000000 1.670140 0.000000 
#    z 0.000000 0.000000 1.632280 
# 
# From -- ./inp_files/13128.got.cif
#   From: 2010.05.17/outbox.cif.g08.bks.cpg/sg64_7_cif.got.tgz:13128.got - 2010.06.03 16:29:19.
