data_PCOD9480456
_publ_section_title
;
Structure prediction by ZEFSAII (Michael W. Deem and Ramdas Pophale) SiO2 
 PCOD9480456
Probable space group: C M C A
;
_chemical_formula_sum "Si O2"
_cell_formula_units_Z 88
_cell_length_a 20.195280
_cell_length_b 16.453795
_cell_length_c 12.412712
_cell_angle_alpha 90.000000
_cell_angle_beta 90.000000
_cell_angle_gamma 90.000000
_cell_volume 4124.607622
_symmetry_space_group_name_H-M "C M C A"
_symmetry_group_IT_number 64
_symmetry_cell_setting 'orthorhombic'
loop_
_space_group_symop_operation_xyz
x,y,z
-x,1/2-y,1/2+z
x,-y,-z
-x,1/2+y,1/2-z
-x,-y,-z
x,1/2+y,1/2-z
-x,y,z
x,1/2-y,1/2+z
1/2+x,1/2+y,z
1/2-x,-y,1/2+z
1/2+x,1/2-y,-z
1/2-x,y,1/2-z
1/2-x,1/2-y,-z
1/2+x,y,1/2-z
1/2-x,1/2+y,z
1/2+x,-y,1/2+z
loop_
_atom_site_type_symbol
_atom_site_label
_atom_site_fract_x
_atom_site_fract_y
_atom_site_fract_z
Si Si1 0.826508 0.220089 0.232944
Si Si2 0.322976 0.584051 0.709173
Si Si3 0.076712 0.446638 0.394763
Si Si4 0.426102 0.695087 0.053235
Si Si5 0.072574 0.159371 0.408897
Si Si6 0.125616 0.000000 0.500000
O O1 0.750000 0.197089 0.250000
O O2 0.829031 0.317703 0.215756
O O3 0.865620 0.179945 0.132929
O O4 0.868874 0.192007 0.335001
O O5 0.250000 0.562660 0.750000
O O6 0.376480 0.546841 0.792253
O O7 0.333329 0.549469 0.589607
O O8 0.094667 0.500000 0.500000
O O9 0.080606 0.355811 0.443357
O O10 0.000000 0.464510 0.367687
O O11 0.500000 0.674893 0.096492
O O12 0.425672 0.788834 0.018874
O O13 0.082755 0.065965 0.436465
O O14 0.000000 0.174265 0.359928
#
# Coordination Sequence:
#
# PCOD9480456 Si02
#       6
#    16  16  16  16  16   8
#     4  11  24  43  68  98 133 180 229 284 347 417
#     4  11  26  45  68  99 139 185 228 286 352 419
#     4  10  23  43  68  97 133 181 238 293 343 408
#     4  10  21  41  67  95 128 177 234 284 338 412
#     4  11  24  43  67  96 134 181 228 287 349 409
#     4  12  27  46  66 106 143 182 230 294 353 404
#
# _framework density 21.335360999999999
#
# number of rings (size 3 to 8) (size 9 to 14) (size 15 to 20)
#    0.000    1.273    3.636    0.818    3.818    5.091 
#    0.000    0.000    0.000    0.000    0.000    0.000 
#    0.000    0.000    0.000    0.000    0.000    0.000 
#
# Total GULP energy -245822.105592 kJ/mol
# GULP energy per Si atom -5586.866036 kJ/mol
# Density = 2.128680 g / cm^3
# Si number density = 21.335361 Si / 1000 Ang^3
#
#
#
# Elastic Constant Matrix: (Units=GPa)
#
#
# Indices 1 2 3 4 5 6 
#
# 1 187.4282 25.6161 89.2166 0.0000 0.0000 0.0000
# 2 25.6161 69.8890 8.4694 0.0000 0.0000 0.0000
# 3 89.2166 8.4694 106.9532 0.0000 0.0000 0.0000
# 4 0.0000 0.0000 0.0000 34.3449 0.0000 0.0000
# 5 0.0000 0.0000 0.0000 0.0000 34.0131 0.0000
# 6 0.0000 0.0000 0.0000 0.0000 0.0000 10.4256
#
#
#
# Elastic Compliance Matrix: (Units=1/GPa)
#
#
# Indices 1 2 3 4 5 6 
#
# 1 0.009256 -0.002481 -0.007525 0.000000 0.000000 0.000000
# 2 -0.002481 0.015112 0.000873 0.000000 0.000000 0.000000
# 3 -0.007525 0.000873 0.015558 0.000000 0.000000 0.000000
# 4 0.000000 0.000000 0.000000 0.029116 0.000000 0.000000
# 5 0.000000 0.000000 0.000000 0.000000 0.029400 0.000000
# 6 0.000000 0.000000 0.000000 0.000000 0.000000 0.095917
#
#
# Mechanical properties :
#
#
# Convention : Reuss Voigt Hill
#
# Bulk Modulus (GPa) = 46.16781 67.87494 57.02138
# Shear Modulus (GPa) = 22.74321 31.82130 27.28225
#
# Velocity S-wave (km/s) = 3.26849 3.86616 3.57982
# Velocity P-wave (km/s) = 5.99417 7.19806 6.62352
#
# Compressibility (1/GPa) = 0.02166011
#
# Stress axis : x y z
#
# Youngs Moduli (GPa) = 108.03494 66.17300 64.27688
#
# Poissons Ratio (x) = 0.16416 0.48367
# Poissons Ratio (y) = 0.26801 -0.05609
# Poissons Ratio (z) = 0.81294 -0.05775
#
# Static dielectric constant tensor:
#      x y z
#    x 1.742740 0.000000 0.000000 
#    y 0.000000 1.836420 0.000000 
#    z 0.000000 0.000000 1.772670 
# 
# From -- ./inp_files/17136.got.cif
#   From: 2010.05.17/outbox.cif.g08.bks.cpg/sg64_9_cif.got.tgz:17136.got - 2010.06.03 16:29:19.
