data_PCOD9480366
_publ_section_title
;
Structure prediction by ZEFSAII (Michael W. Deem and Ramdas Pophale) SiO2 
 PCOD9480366
Probable space group: C M C A
;
_chemical_formula_sum "Si O2"
_cell_formula_units_Z 88
_cell_length_a 13.818884
_cell_length_b 10.547493
_cell_length_c 25.623340
_cell_angle_alpha 90.000000
_cell_angle_beta 90.000000
_cell_angle_gamma 90.000000
_cell_volume 3734.719218
_symmetry_space_group_name_H-M "C M C A"
_symmetry_group_IT_number 64
_symmetry_cell_setting 'orthorhombic'
loop_
_space_group_symop_operation_xyz
x,y,z
-x,1/2-y,1/2+z
x,-y,-z
-x,1/2+y,1/2-z
-x,-y,-z
x,1/2+y,1/2-z
-x,y,z
x,1/2-y,1/2+z
1/2+x,1/2+y,z
1/2-x,-y,1/2+z
1/2+x,1/2-y,-z
1/2-x,y,1/2-z
1/2-x,1/2-y,-z
1/2+x,y,1/2-z
1/2-x,1/2+y,z
1/2+x,-y,1/2+z
loop_
_atom_site_type_symbol
_atom_site_label
_atom_site_fract_x
_atom_site_fract_y
_atom_site_fract_z
Si Si1 0.893747 0.828530 0.128971
Si Si2 0.604944 0.589098 0.081871
Si Si3 0.111881 0.200129 0.257926
Si Si4 0.263162 0.500000 0.500000
Si Si5 0.881750 0.938601 0.305043
Si Si6 0.313435 0.846191 0.092227
O O1 0.887260 0.771309 0.186213
O O2 0.797083 0.796427 0.097442
O O3 0.000000 0.790237 0.107479
O O4 0.891523 0.981833 0.126396
O O5 0.500000 0.575544 0.056132
O O6 0.690824 0.565516 0.041237
O O7 0.616923 0.729313 0.102703
O O8 0.153540 0.303598 0.218072
O O9 0.000000 0.184201 0.241786
O O10 0.147824 0.058502 0.269593
O O11 0.324343 0.403976 0.465051
O O12 0.837071 0.947833 0.362765
O O13 0.000000 0.940793 0.307496
#
# Coordination Sequence:
#
# PCOD9480366 Si02
#       6
#    16  16  16   8  16  16
#     4   9  21  39  62  92 129 172 216 265 324 393
#     4  10  21  40  66  94 126 172 222 272 330 394
#     4   9  20  39  63  92 132 176 215 263 327 394
#     4  10  23  42  61  90 132 172 221 278 331 388
#     4  10  22  40  65  98 135 173 217 271 331 398
#     4  11  23  39  67  95 131 169 223 277 333 393
#
# _framework density 23.562681999999999
#
# number of rings (size 3 to 8) (size 9 to 14) (size 15 to 20)
#    0.000    2.182    0.000    1.364    7.636    1.455 
#    0.000    3.636    0.000    0.000    0.000    0.000 
#    0.000    0.000    0.000    0.000    0.000    0.000 
#
# Total GULP energy -245708.079615 kJ/mol
# GULP energy per Si atom -5584.274537 kJ/mol
# Density = 2.350905 g / cm^3
# Si number density = 23.562682 Si / 1000 Ang^3
#
#
#
# Elastic Constant Matrix: (Units=GPa)
#
#
# Indices 1 2 3 4 5 6 
#
# 1 93.9688 16.3177 3.2730 0.0000 0.0000 0.0000
# 2 16.3177 98.4179 26.1231 0.0000 0.0000 0.0000
# 3 3.2730 26.1231 51.4031 0.0000 0.0000 0.0000
# 4 0.0000 0.0000 0.0000 29.1787 0.0000 0.0000
# 5 0.0000 0.0000 0.0000 0.0000 25.3057 0.0000
# 6 0.0000 0.0000 0.0000 0.0000 0.0000 9.1953
#
#
#
# Elastic Compliance Matrix: (Units=1/GPa)
#
#
# Indices 1 2 3 4 5 6 
#
# 1 0.010960 -0.001886 0.000261 0.000000 0.000000 0.000000
# 2 -0.001886 0.012070 -0.006014 0.000000 0.000000 0.000000
# 3 0.000261 -0.006014 0.022494 0.000000 0.000000 0.000000
# 4 0.000000 0.000000 0.000000 0.034272 0.000000 0.000000
# 5 0.000000 0.000000 0.000000 0.000000 0.039517 0.000000
# 6 0.000000 0.000000 0.000000 0.000000 0.000000 0.108751
#
#
# Mechanical properties :
#
#
# Convention : Reuss Voigt Hill
#
# Bulk Modulus (GPa) = 33.06333 37.24638 35.15485
# Shear Modulus (GPa) = 19.72980 25.94100 22.83540
#
# Velocity S-wave (km/s) = 2.89681 3.32164 3.11647
# Velocity P-wave (km/s) = 5.02506 5.52745 5.28223
#
# Compressibility (1/GPa) = 0.03024499
#
# Stress axis : x y z
#
# Youngs Moduli (GPa) = 91.23818 82.85166 44.45695
#
# Poissons Ratio (x) = 0.15630 -0.01160
# Poissons Ratio (y) = 0.17212 0.26735
# Poissons Ratio (z) = -0.02380 0.49825
#
# Static dielectric constant tensor:
#      x y z
#    x 1.927050 0.000000 0.000000 
#    y 0.000000 1.929100 0.000000 
#    z 0.000000 0.000000 1.848090 
# 
# From -- ./inp_files/49957.got.cif
#   From: 2010.05.17/outbox.cif.g08.bks.cpg/sg64_25_cif.got.tgz:49957.got - 2010.06.03 16:29:19.
