data_PCOD9480809
_publ_section_title
;
Structure prediction by ZEFSAII (Michael W. Deem and Ramdas Pophale) SiO2 
 PCOD9480809
Probable space group: C M C A
;
_chemical_formula_sum "Si O2"
_cell_formula_units_Z 80
_cell_length_a 18.464050
_cell_length_b 9.305586
_cell_length_c 23.633368
_cell_angle_alpha 90.000000
_cell_angle_beta 90.000000
_cell_angle_gamma 90.000000
_cell_volume 4060.657052
_symmetry_space_group_name_H-M "C M C A"
_symmetry_group_IT_number 64
_symmetry_cell_setting 'orthorhombic'
loop_
_space_group_symop_operation_xyz
x,y,z
-x,1/2-y,1/2+z
x,-y,-z
-x,1/2+y,1/2-z
-x,-y,-z
x,1/2+y,1/2-z
-x,y,z
x,1/2-y,1/2+z
1/2+x,1/2+y,z
1/2-x,-y,1/2+z
1/2+x,1/2-y,-z
1/2-x,y,1/2-z
1/2-x,1/2-y,-z
1/2+x,y,1/2-z
1/2-x,1/2+y,z
1/2+x,-y,1/2+z
loop_
_atom_site_type_symbol
_atom_site_label
_atom_site_fract_x
_atom_site_fract_y
_atom_site_fract_z
Si Si1 0.838048 0.116522 0.700800
Si Si2 0.208649 0.182880 0.345090
Si Si3 0.082996 0.694939 0.384041
Si Si4 0.086389 0.387584 0.322971
Si Si5 0.210849 0.636918 0.460801
O O1 0.768767 0.218345 0.686549
O O2 0.894942 0.169474 0.653881
O O3 0.878179 0.127883 0.760759
O O4 0.813334 0.953202 0.692375
O O5 0.137767 0.279284 0.357964
O O6 0.243074 0.121389 0.402898
O O7 0.095332 0.549261 0.346889
O O8 0.133738 0.688516 0.438199
O O9 0.000000 0.698772 0.399691
O O10 0.000000 0.355149 0.322649
O O11 0.203037 0.500000 0.500000
O O12 0.250000 0.750000 0.500000
#
# Coordination Sequence:
#
# PCOD9480809 Si02
#       5
#    16  16  16  16  16
#     4  11  22  38  61  89 124 160 194 235 291 356
#     4  11  23  39  60  89 120 155 202 247 289 350
#     4  10  22  40  62  90 121 155 198 244 293 352
#     4  11  23  39  60  89 125 159 191 235 295 359
#     4  11  22  40  62  84 113 153 201 251 299 342
#
# _framework density 19.701246000000001
#
# number of rings (size 3 to 8) (size 9 to 14) (size 15 to 20)
#    0.000    1.200    0.000    8.400    0.000    6.800 
#    0.000    1.000    0.000    2.400    0.000    0.000 
#    0.000    0.000    0.000    0.000    0.000    0.000 
#
# Total GULP energy -223563.537249 kJ/mol
# GULP energy per Si atom -5589.088431 kJ/mol
# Density = 1.965640 g / cm^3
# Si number density = 19.701246 Si / 1000 Ang^3
#
#
#
# Elastic Constant Matrix: (Units=GPa)
#
#
# Indices 1 2 3 4 5 6 
#
# 1 155.1838 32.3938 50.1354 0.0000 0.0000 0.0000
# 2 32.3938 50.8848 -3.8637 0.0000 0.0000 0.0000
# 3 50.1354 -3.8637 67.2943 0.0000 0.0000 0.0000
# 4 0.0000 0.0000 0.0000 32.9011 0.0000 0.0000
# 5 0.0000 0.0000 0.0000 0.0000 24.4982 0.0000
# 6 0.0000 0.0000 0.0000 0.0000 0.0000 26.7896
#
#
#
# Elastic Compliance Matrix: (Units=1/GPa)
#
#
# Indices 1 2 3 4 5 6 
#
# 1 0.010721 -0.007464 -0.008416 0.000000 0.000000 0.000000
# 2 -0.007464 0.024935 0.006993 0.000000 0.000000 0.000000
# 3 -0.008416 0.006993 0.021532 0.000000 0.000000 0.000000
# 4 0.000000 0.000000 0.000000 0.030394 0.000000 0.000000
# 5 0.000000 0.000000 0.000000 0.000000 0.040819 0.000000
# 6 0.000000 0.000000 0.000000 0.000000 0.000000 0.037328
#
#
# Mechanical properties :
#
#
# Convention : Reuss Voigt Hill
#
# Bulk Modulus (GPa) = 25.37263 47.85486 36.61375
# Shear Modulus (GPa) = 25.42701 29.81760 27.62231
#
# Velocity S-wave (km/s) = 3.59643 3.89458 3.74847
# Velocity P-wave (km/s) = 5.49112 6.67583 6.11224
#
# Compressibility (1/GPa) = 0.03941255
#
# Stress axis : x y z
#
# Youngs Moduli (GPa) = 93.27498 40.10440 46.44348
#
# Poissons Ratio (x) = 0.29934 0.39086
# Poissons Ratio (y) = 0.69621 -0.32476
# Poissons Ratio (z) = 0.78499 -0.28043
#
# Static dielectric constant tensor:
#      x y z
#    x 1.709970 0.000000 0.000000 
#    y 0.000000 1.680830 0.000000 
#    z 0.000000 0.000000 1.816630 
# 
# From -- ./inp_files/50306.got.cif
#   From: 2010.05.17/outbox.cif.g08.bks.cpg/sg64_26_cif.got.tgz:50306.got - 2010.06.03 16:29:19.
