data_PCOD9480315
_publ_section_title
;
Structure prediction by ZEFSAII (Michael W. Deem and Ramdas Pophale) SiO2 
 PCOD9480315
Probable space group: C M C A
;
_chemical_formula_sum "Si O2"
_cell_formula_units_Z 64
_cell_length_a 13.955716
_cell_length_b 27.569147
_cell_length_c 8.202751
_cell_angle_alpha 90.000000
_cell_angle_beta 90.000000
_cell_angle_gamma 90.000000
_cell_volume 3155.985364
_symmetry_space_group_name_H-M "C M C A"
_symmetry_group_IT_number 64
_symmetry_cell_setting 'orthorhombic'
loop_
_space_group_symop_operation_xyz
x,y,z
-x,1/2-y,1/2+z
x,-y,-z
-x,1/2+y,1/2-z
-x,-y,-z
x,1/2+y,1/2-z
-x,y,z
x,1/2-y,1/2+z
1/2+x,1/2+y,z
1/2-x,-y,1/2+z
1/2+x,1/2-y,-z
1/2-x,y,1/2-z
1/2-x,1/2-y,-z
1/2+x,y,1/2-z
1/2-x,1/2+y,z
1/2+x,-y,1/2+z
loop_
_atom_site_type_symbol
_atom_site_label
_atom_site_fract_x
_atom_site_fract_y
_atom_site_fract_z
Si Si1 0.000000 0.835507 0.295883
Si Si2 0.855377 0.982360 0.684511
Si Si3 0.000000 0.699602 0.411124
Si Si4 0.000000 0.092097 0.206234
Si Si5 0.000000 0.556975 0.666035
Si Si6 0.327998 0.773680 0.120072
O O1 0.094635 0.817290 0.392445
O O2 0.000000 0.892739 0.265255
O O3 0.000000 0.810872 0.109725
O O4 0.750000 0.977344 0.750000
O O5 0.909731 0.931482 0.704352
O O6 0.858640 0.000000 0.500000
O O7 0.910406 0.023391 0.788114
O O8 0.000000 0.649119 0.316601
O O9 0.905540 0.729878 0.359016
O O10 0.000000 0.070753 0.022724
O O11 0.250000 0.791593 0.250000
O O12 0.250000 0.750000 0.000000
#
# Coordination Sequence:
#
# PCOD9480315 Si02
#       6
#     8  16   8   8   8  16
#     4  10  22  40  62  90 125 163 209 259 311 369
#     4  11  22  41  62  89 123 161 203 253 314 376
#     4  10  22  40  62  92 125 161 207 261 307 370
#     4  10  21  40  62  89 126 156 206 259 310 367
#     4  10  21  40  62  89 120 162 204 259 310 370
#     4  11  22  41  62  89 126 167 208 256 313 369
#
# _framework density 20.278928000000001
#
# number of rings (size 3 to 8) (size 9 to 14) (size 15 to 20)
#    0.000    1.500    2.500    4.500    0.000    2.000 
#   13.500    0.000    0.000    0.000    0.000    0.000 
#    0.000    0.000    0.000    0.000    0.000    0.000 
#
# Total GULP energy -178281.196361 kJ/mol
# GULP energy per Si atom -5571.287386 kJ/mol
# Density = 2.023277 g / cm^3
# Si number density = 20.278928 Si / 1000 Ang^3
#
#
#
# Elastic Constant Matrix: (Units=GPa)
#
#
# Indices 1 2 3 4 5 6 
#
# 1 205.2594 60.3218 19.4407 0.0000 0.0000 0.0000
# 2 60.3218 128.7452 6.5110 0.0000 0.0000 0.0000
# 3 19.4407 6.5110 32.1763 0.0000 0.0000 0.0000
# 4 0.0000 0.0000 0.0000 -11.0811 0.0000 0.0000
# 5 0.0000 0.0000 0.0000 0.0000 40.5130 0.0000
# 6 0.0000 0.0000 0.0000 0.0000 0.0000 588.1102
#
#
#
# Elastic Compliance Matrix: (Units=1/GPa)
#
#
# Indices 1 2 3 4 5 6 
#
# 1 0.005933 -0.002625 -0.003053 0.000000 0.000000 0.000000
# 2 -0.002625 0.009009 -0.000237 0.000000 0.000000 0.000000
# 3 -0.003053 -0.000237 0.032971 0.000000 0.000000 0.000000
# 4 0.000000 0.000000 0.000000 -0.090244 0.000000 0.000000
# 5 0.000000 0.000000 0.000000 0.000000 0.024683 0.000000
# 6 0.000000 0.000000 0.000000 0.000000 0.000000 0.001700
#
#
# Mechanical properties :
#
#
# Convention : Reuss Voigt Hill
#
# Bulk Modulus (GPa) = 27.71420 59.85865 43.78642
# Shear Modulus (GPa) = 631.99200 142.16892 387.08046
#
# Velocity S-wave (km/s) = 17.67275 8.38206 13.83086
# Velocity P-wave (km/s) = 20.73960 11.10227 16.63417
#
# Compressibility (1/GPa) = 0.03608259
#
# Stress axis : x y z
#
# Youngs Moduli (GPa) = 168.56140 110.99685 30.32932
#
# Poissons Ratio (x) = 0.29139 0.09260
# Poissons Ratio (y) = 0.44251 0.00719
# Poissons Ratio (z) = 0.51465 0.02630
#
# Static dielectric constant tensor:
#      x y z
#    x 1.707080 0.000000 0.000000 
#    y 0.000000 1.679700 0.000000 
#    z 0.000000 0.000000 1.767850 
# 
# From -- ./inp_files/5789.got.cif
#   From: 2010.05.17/outbox.cif.g08.bks.cpg/sg64_3_cif.got.tgz:5789.got - 2010.06.03 16:29:19.
