data_PCOD9480801
_publ_section_title
;
Structure prediction by ZEFSAII (Michael W. Deem and Ramdas Pophale) SiO2 
 PCOD9480801
Probable space group: C M C A
;
_chemical_formula_sum "Si O2"
_cell_formula_units_Z 116
_cell_length_a 15.345304
_cell_length_b 28.149805
_cell_length_c 11.708098
_cell_angle_alpha 90.000000
_cell_angle_beta 90.000000
_cell_angle_gamma 90.000000
_cell_volume 5057.515660
_symmetry_space_group_name_H-M "C M C A"
_symmetry_group_IT_number 64
_symmetry_cell_setting 'orthorhombic'
loop_
_space_group_symop_operation_xyz
x,y,z
-x,1/2-y,1/2+z
x,-y,-z
-x,1/2+y,1/2-z
-x,-y,-z
x,1/2+y,1/2-z
-x,y,z
x,1/2-y,1/2+z
1/2+x,1/2+y,z
1/2-x,-y,1/2+z
1/2+x,1/2-y,-z
1/2-x,y,1/2-z
1/2-x,1/2-y,-z
1/2+x,y,1/2-z
1/2-x,1/2+y,z
1/2+x,-y,1/2+z
loop_
_atom_site_type_symbol
_atom_site_label
_atom_site_fract_x
_atom_site_fract_y
_atom_site_fract_z
Si Si1 0.902279 0.829847 0.782229
Si Si2 0.632180 0.087270 0.454264
Si Si3 0.606612 0.240206 0.467007
Si Si4 0.606038 0.157338 0.901093
Si Si5 0.000000 0.000000 0.000000
Si Si6 0.106778 0.840989 0.140317
Si Si7 0.604108 0.598602 0.397804
Si Si8 0.276202 0.478172 0.628149
O O1 0.909339 0.871658 0.876498
O O2 0.862277 0.786168 0.851187
O O3 0.860037 0.857691 0.677850
O O4 0.000000 0.814147 0.746028
O O5 0.574434 0.041098 0.476871
O O6 0.647029 0.114601 0.572735
O O7 0.714692 0.067854 0.386427
O O8 0.500000 0.239409 0.463238
O O9 0.634802 0.294503 0.464312
O O10 0.630396 0.207603 0.574572
O O11 0.500000 0.158493 0.899080
O O12 0.634404 0.158531 0.770965
O O13 0.630277 0.110824 0.972703
O O14 0.000000 0.845870 0.134816
O O15 0.500000 0.601815 0.388321
O O16 0.630256 0.546431 0.357953
O O17 0.272299 0.500000 0.500000
O O18 0.250000 0.502242 0.750000
#
# Coordination Sequence:
#
# PCOD9480801 Si02
#       8
#    16  16  16  16   4  16  16  16
#     4   9  16  31  57  83 118 152 195 244 297 358
#     4  11  20  37  61  92 118 149 199 254 314 363
#     4   8  15  26  49  87 121 157 200 255 301 350
#     4   9  18  31  52  88 126 165 210 252 309 372
#     4  12  20  36  68 100 116 148 204 272 306 372
#     4   9  17  31  53  85 129 156 200 259 309 362
#     4  10  22  40  62  87 125 167 209 250 312 385
#     4  12  27  46  66  94 124 162 212 265 321 390
#
# _framework density 22.936161999999999
#
# number of rings (size 3 to 8) (size 9 to 14) (size 15 to 20)
#    0.000    2.207    3.448    0.828    1.931    1.379 
#    0.000    0.000    0.000    3.310    7.172    0.000 
#    0.000    0.000    0.000    0.000    0.000    0.000 
#
# Total GULP energy -322893.015015 kJ/mol
# GULP energy per Si atom -5567.120949 kJ/mol
# Density = 2.288396 g / cm^3
# Si number density = 22.936162 Si / 1000 Ang^3
#
#
#
# Elastic Constant Matrix: (Units=GPa)
#
#
# Indices 1 2 3 4 5 6 
#
# 1 19.2395 6.3261 1.3905 0.0000 0.0000 0.0000
# 2 6.3261 48.7862 23.8621 0.0000 0.0000 0.0000
# 3 1.3905 23.8621 150.8823 0.0000 0.0000 0.0000
# 4 0.0000 0.0000 0.0000 28.3071 0.0000 0.0000
# 5 0.0000 0.0000 0.0000 0.0000 16.4982 0.0000
# 6 0.0000 0.0000 0.0000 0.0000 0.0000 25.4484
#
#
#
# Elastic Compliance Matrix: (Units=1/GPa)
#
#
# Indices 1 2 3 4 5 6 
#
# 1 0.054353 -0.007373 0.000665 0.000000 0.000000 0.000000
# 2 -0.007373 0.023216 -0.003604 0.000000 0.000000 0.000000
# 3 0.000665 -0.003604 0.007191 0.000000 0.000000 0.000000
# 4 0.000000 0.000000 0.000000 0.035327 0.000000 0.000000
# 5 0.000000 0.000000 0.000000 0.000000 0.060612 0.000000
# 6 0.000000 0.000000 0.000000 0.000000 0.000000 0.039295
#
#
# Mechanical properties :
#
#
# Convention : Reuss Voigt Hill
#
# Bulk Modulus (GPa) = 15.59167 31.34060 23.46614
# Shear Modulus (GPa) = 19.08414 26.53937 22.81176
#
# Velocity S-wave (km/s) = 2.88767 3.40530 3.15711
# Velocity P-wave (km/s) = 4.23447 5.39957 4.85212
#
# Compressibility (1/GPa) = 0.06413682
#
# Stress axis : x y z
#
# Youngs Moduli (GPa) = 18.39836 43.07307 139.05336
#
# Poissons Ratio (x) = 0.31759 -0.09250
# Poissons Ratio (y) = 0.13566 0.50111
# Poissons Ratio (z) = -0.01224 0.15522
#
# Static dielectric constant tensor:
#      x y z
#    x 1.980410 0.000000 0.000000 
#    y 0.000000 1.796660 0.000000 
#    z 0.000000 0.000000 1.923270 
# 
# From -- ./inp_files/16462.got.cif
#   From: 2010.05.17/outbox.cif.g08.bks.cpg/sg64_9_cif.got.tgz:16462.got - 2010.06.03 16:29:19.
