data_PCOD9480599
_publ_section_title
;
Structure prediction by ZEFSAII (Michael W. Deem and Ramdas Pophale) SiO2 
 PCOD9480599
Probable space group: C M C A
;
_chemical_formula_sum "Si O2"
_cell_formula_units_Z 56
_cell_length_a 13.249741
_cell_length_b 32.960286
_cell_length_c 4.937881
_cell_angle_alpha 90.000000
_cell_angle_beta 90.000000
_cell_angle_gamma 90.000000
_cell_volume 2156.447949
_symmetry_space_group_name_H-M "C M C A"
_symmetry_group_IT_number 64
_symmetry_cell_setting 'orthorhombic'
loop_
_space_group_symop_operation_xyz
x,y,z
-x,1/2-y,1/2+z
x,-y,-z
-x,1/2+y,1/2-z
-x,-y,-z
x,1/2+y,1/2-z
-x,y,z
x,1/2-y,1/2+z
1/2+x,1/2+y,z
1/2-x,-y,1/2+z
1/2+x,1/2-y,-z
1/2-x,y,1/2-z
1/2-x,1/2-y,-z
1/2+x,y,1/2-z
1/2-x,1/2+y,z
1/2+x,-y,1/2+z
loop_
_atom_site_type_symbol
_atom_site_label
_atom_site_fract_x
_atom_site_fract_y
_atom_site_fract_z
Si Si1 0.378359 0.544025 0.918041
Si Si2 0.250000 0.840938 0.250000
Si Si3 0.620743 0.404255 0.582790
Si Si4 0.618971 0.776780 0.564984
O O1 0.500000 0.541966 0.945080
O O2 0.349838 0.580829 0.118442
O O3 0.339020 0.500000 0.000000
O O4 0.358511 0.557171 0.612454
O O5 0.322599 0.867283 0.056799
O O6 0.319003 0.813676 0.445750
O O7 0.500000 0.396269 0.580028
O O8 0.500000 0.786043 0.543512
O O9 0.639182 0.761889 0.868727
#
# Coordination Sequence:
#
# PCOD9480599 Si02
#       4
#    16   8  16  16
#     4   9  18  37  62  85 116 160 206 252 301 357
#     4  12  24  40  62  92 130 164 198 254 322 376
#     4  10  22  37  58  90 122 157 203 253 307 362
#     4  10  23  43  66  91 120 161 210 254 302 370
#
# _framework density 25.968627000000001
#
# number of rings (size 3 to 8) (size 9 to 14) (size 15 to 20)
#    0.000    2.000    0.000    2.571    0.000    9.143 
#    0.000   11.429    0.000    0.000    0.000    0.000 
#    0.000    3.429    0.000    0.000    0.000    0.000 
#
# Total GULP energy -157241.694217 kJ/mol
# GULP energy per Si atom -5615.774793 kJ/mol
# Density = 2.590952 g / cm^3
# Si number density = 25.968627 Si / 1000 Ang^3
#
#
#
# Elastic Constant Matrix: (Units=GPa)
#
#
# Indices 1 2 3 4 5 6 
#
# 1 125.3488 54.5926 34.5042 0.0000 0.0000 0.0000
# 2 54.5926 114.6577 19.6802 0.0000 0.0000 0.0000
# 3 34.5042 19.6802 119.0493 0.0000 0.0000 0.0000
# 4 0.0000 0.0000 0.0000 21.1921 0.0000 0.0000
# 5 0.0000 0.0000 0.0000 0.0000 45.3114 0.0000
# 6 0.0000 0.0000 0.0000 0.0000 0.0000 40.6718
#
#
#
# Elastic Compliance Matrix: (Units=1/GPa)
#
#
# Indices 1 2 3 4 5 6 
#
# 1 0.010650 -0.004674 -0.002314 0.000000 0.000000 0.000000
# 2 -0.004674 0.011027 -0.000468 0.000000 0.000000 0.000000
# 3 -0.002314 -0.000468 0.009148 0.000000 0.000000 0.000000
# 4 0.000000 0.000000 0.000000 0.047187 0.000000 0.000000
# 5 0.000000 0.000000 0.000000 0.000000 0.022070 0.000000
# 6 0.000000 0.000000 0.000000 0.000000 0.000000 0.024587
#
#
# Mechanical properties :
#
#
# Convention : Reuss Voigt Hill
#
# Bulk Modulus (GPa) = 62.84128 64.06778 63.45453
# Shear Modulus (GPa) = 34.50975 38.12030 36.31502
#
# Velocity S-wave (km/s) = 3.64936 3.83552 3.74360
# Velocity P-wave (km/s) = 6.48140 6.65881 6.57071
#
# Compressibility (1/GPa) = 0.01591311
#
# Stress axis : x y z
#
# Youngs Moduli (GPa) = 93.89415 90.68367 109.31331
#
# Poissons Ratio (x) = 0.42383 0.25297
# Poissons Ratio (y) = 0.43884 0.05120
# Poissons Ratio (z) = 0.21729 0.04247
#
# Static dielectric constant tensor:
#      x y z
#    x 2.094560 0.000000 0.000000 
#    y 0.000000 1.986920 0.000000 
#    z 0.000000 0.000000 1.940540 
# 
# From -- ./inp_files/855.got.cif
#   From: 2010.05.17/outbox.cif.g08.bks.cpg/sg64_1_cif.got.tgz:855.got - 2010.06.03 16:29:19.
