data_PCOD9480132
_publ_section_title
;
Structure prediction by ZEFSAII (Michael W. Deem and Ramdas Pophale) SiO2 
 PCOD9480132
Probable space group: C M C A
;
_chemical_formula_sum "Si O2"
_cell_formula_units_Z 92
_cell_length_a 25.028141
_cell_length_b 8.818258
_cell_length_c 18.599130
_cell_angle_alpha 90.000000
_cell_angle_beta 90.000000
_cell_angle_gamma 90.000000
_cell_volume 4104.913633
_symmetry_space_group_name_H-M "C M C A"
_symmetry_group_IT_number 64
_symmetry_cell_setting 'orthorhombic'
loop_
_space_group_symop_operation_xyz
x,y,z
-x,1/2-y,1/2+z
x,-y,-z
-x,1/2+y,1/2-z
-x,-y,-z
x,1/2+y,1/2-z
-x,y,z
x,1/2-y,1/2+z
1/2+x,1/2+y,z
1/2-x,-y,1/2+z
1/2+x,1/2-y,-z
1/2-x,y,1/2-z
1/2-x,1/2-y,-z
1/2+x,y,1/2-z
1/2-x,1/2+y,z
1/2+x,-y,1/2+z
loop_
_atom_site_type_symbol
_atom_site_label
_atom_site_fract_x
_atom_site_fract_y
_atom_site_fract_z
Si Si1 0.296289 0.169237 0.630822
Si Si2 0.309090 0.487984 0.354931
Si Si3 0.343249 0.000000 0.500000
Si Si4 0.000000 0.000000 0.000000
Si Si5 0.000000 0.714181 0.904459
Si Si6 0.500000 0.506427 0.825476
Si Si7 0.117048 0.497807 0.717211
Si Si8 0.384955 0.241408 0.902753
O O1 0.291896 0.347136 0.619698
O O2 0.243998 0.101003 0.668307
O O3 0.305912 0.082341 0.556754
O O4 0.348634 0.123725 0.675338
O O5 0.353373 0.513058 0.293024
O O6 0.337142 0.375650 0.411026
O O7 0.381014 0.874841 0.537854
O O8 0.000000 0.051327 0.910431
O O9 0.000000 0.825921 0.973177
O O10 0.059465 0.649301 0.904649
O O11 0.000000 0.823527 0.834578
O O12 0.444981 0.544843 0.785748
O O13 0.121573 0.340677 0.670845
#
# Coordination Sequence:
#
# PCOD9480132 Si02
#       8
#    16  16   8   4   8   8  16  16
#     4  11  25  41  66  93 124 176 217 284 328 399
#     4  12  25  42  61  91 132 171 221 266 342 387
#     4  10  23  43  70  94 122 159 230 267 342 396
#     4   8  14  32  68 100 134 172 224 254 320 402
#     4   8  16  31  60  97 127 166 208 253 320 381
#     4   8  18  33  66 100 132 176 216 266 314 394
#     4  10  21  40  64  97 130 174 215 261 319 400
#     4  10  21  38  66  96 129 169 211 277 319 395
#
# _framework density 22.412164000000001
#
# number of rings (size 3 to 8) (size 9 to 14) (size 15 to 20)
#    0.522    1.391    0.000    4.174    2.435    5.565 
#    0.000    3.478    0.000    1.043    0.000    0.000 
#    0.000    0.000    0.000    0.000    0.000    0.000 
#
# Total GULP energy -256110.430595 kJ/mol
# GULP energy per Si atom -5567.618056 kJ/mol
# Density = 2.236115 g / cm^3
# Si number density = 22.412164 Si / 1000 Ang^3
#
#
#
# Elastic Constant Matrix: (Units=GPa)
#
#
# Indices 1 2 3 4 5 6 
#
# 1 184.1629 45.8415 27.8131 0.0000 0.0000 0.0000
# 2 45.8415 102.9690 12.9252 0.0000 0.0000 0.0000
# 3 27.8131 12.9252 79.2240 0.0000 0.0000 0.0000
# 4 0.0000 0.0000 0.0000 5.9645 0.0000 0.0000
# 5 0.0000 0.0000 0.0000 0.0000 16.2042 0.0000
# 6 0.0000 0.0000 0.0000 0.0000 0.0000 22.5314
#
#
#
# Elastic Compliance Matrix: (Units=1/GPa)
#
#
# Indices 1 2 3 4 5 6 
#
# 1 0.006350 -0.002600 -0.001805 0.000000 0.000000 0.000000
# 2 -0.002600 0.010980 -0.000878 0.000000 0.000000 0.000000
# 3 -0.001805 -0.000878 0.013399 0.000000 0.000000 0.000000
# 4 0.000000 0.000000 0.000000 0.167657 0.000000 0.000000
# 5 0.000000 0.000000 0.000000 0.000000 0.061712 0.000000
# 6 0.000000 0.000000 0.000000 0.000000 0.000000 0.044382
#
#
# Mechanical properties :
#
#
# Convention : Reuss Voigt Hill
#
# Bulk Modulus (GPa) = 49.59981 59.94618 54.77300
# Shear Modulus (GPa) = 15.53909 27.59178 21.56543
#
# Velocity S-wave (km/s) = 2.63598 3.51252 3.10533
# Velocity P-wave (km/s) = 5.60743 6.57690 6.11142
#
# Compressibility (1/GPa) = 0.02016137
#
# Stress axis : x y z
#
# Youngs Moduli (GPa) = 157.48403 91.07801 74.63013
#
# Poissons Ratio (x) = 0.23684 0.13471
# Poissons Ratio (y) = 0.40952 0.06555
# Poissons Ratio (z) = 0.28426 0.08000
#
# Static dielectric constant tensor:
#      x y z
#    x 1.813660 0.000000 0.000000 
#    y 0.000000 1.826240 0.000000 
#    z 0.000000 0.000000 1.879110 
# 
# From -- ./inp_files/41415.got.cif
#   From: 2010.05.17/outbox.cif.g08.bks.cpg/sg64_21_cif.got.tgz:41415.got - 2010.06.03 16:29:19.
