data_PCOD9480034
_publ_section_title
;
Structure prediction by ZEFSAII (Michael W. Deem and Ramdas Pophale) SiO2 
 PCOD9480034
Probable space group: C M C A
;
_chemical_formula_sum "Si O2"
_cell_formula_units_Z 64
_cell_length_a 8.735084
_cell_length_b 18.871992
_cell_length_c 20.693147
_cell_angle_alpha 90.000000
_cell_angle_beta 90.000000
_cell_angle_gamma 90.000000
_cell_volume 3411.232906
_symmetry_space_group_name_H-M "C M C A"
_symmetry_group_IT_number 64
_symmetry_cell_setting 'orthorhombic'
loop_
_space_group_symop_operation_xyz
x,y,z
-x,1/2-y,1/2+z
x,-y,-z
-x,1/2+y,1/2-z
-x,-y,-z
x,1/2+y,1/2-z
-x,y,z
x,1/2-y,1/2+z
1/2+x,1/2+y,z
1/2-x,-y,1/2+z
1/2+x,1/2-y,-z
1/2-x,y,1/2-z
1/2-x,1/2-y,-z
1/2+x,y,1/2-z
1/2-x,1/2+y,z
1/2+x,-y,1/2+z
loop_
_atom_site_type_symbol
_atom_site_label
_atom_site_fract_x
_atom_site_fract_y
_atom_site_fract_z
Si Si1 0.316721 0.797772 0.557313
Si Si2 0.183266 0.954712 0.564000
Si Si3 0.182929 0.453537 0.320660
Si Si4 0.316847 0.298471 0.319686
O O1 0.500000 0.802963 0.550710
O O2 0.250000 0.750000 0.500000
O O3 0.243738 0.875268 0.556203
O O4 0.282954 0.758234 0.624906
O O5 0.000000 0.954525 0.571631
O O6 0.220694 0.000000 0.500000
O O7 0.258914 0.992261 0.625589
O O8 0.250000 0.471233 0.250000
O O9 0.244654 0.374734 0.336724
O O10 0.000000 0.452521 0.317840
O O11 0.500000 0.306986 0.314677
O O12 0.250000 0.277612 0.250000
#
# Coordination Sequence:
#
# PCOD9480034 Si02
#       4
#    16  16  16  16
#     4  11  24  40  60  87 118 154 196 242 293 350
#     4  11  24  41  61  86 118 155 196 244 295 348
#     4  11  22  38  62  89 119 155 195 239 289 347
#     4  10  21  38  60  87 118 152 192 236 286 344
#
# _framework density 18.761547
#
# number of rings (size 3 to 8) (size 9 to 14) (size 15 to 20)
#    0.000    1.250    0.000    7.500    0.000   13.000 
#    0.000    2.500    0.000    0.000    0.000    0.000 
#    0.000    0.000    0.000    0.000    0.000    0.000 
#
# Total GULP energy -179021.458629 kJ/mol
# GULP energy per Si atom -5594.420582 kJ/mol
# Density = 1.871884 g / cm^3
# Si number density = 18.761547 Si / 1000 Ang^3
#
#
#
# Elastic Constant Matrix: (Units=GPa)
#
#
# Indices 1 2 3 4 5 6 
#
# 1 115.7122 92.2167 86.5130 0.0000 0.0000 0.0000
# 2 92.2167 173.6682 127.6036 0.0000 0.0000 0.0000
# 3 86.5130 127.6036 128.8845 0.0000 0.0000 0.0000
# 4 0.0000 0.0000 0.0000 40.3881 0.0000 0.0000
# 5 0.0000 0.0000 0.0000 0.0000 37.0799 0.0000
# 6 0.0000 0.0000 0.0000 0.0000 0.0000 -26.4300
#
#
#
# Elastic Compliance Matrix: (Units=1/GPa)
#
#
# Indices 1 2 3 4 5 6 
#
# 1 0.017627 -0.002444 -0.009412 0.000000 0.000000 0.000000
# 2 -0.002444 0.021466 -0.019612 0.000000 0.000000 0.000000
# 3 -0.009412 -0.019612 0.033494 0.000000 0.000000 0.000000
# 4 0.000000 0.000000 0.000000 0.024760 0.000000 0.000000
# 5 0.000000 0.000000 0.000000 0.000000 0.026969 0.000000
# 6 0.000000 0.000000 0.000000 0.000000 0.000000 -0.037836
#
#
# Mechanical properties :
#
#
# Convention : Reuss Voigt Hill
#
# Bulk Modulus (GPa) = 103.62502 114.54793 109.08648
# Shear Modulus (GPa) = 32.75836 17.66970 25.21403
#
# Velocity S-wave (km/s) = 4.18309 3.07221 3.66993
# Velocity P-wave (km/s) = 8.87038 8.58905 8.73085
#
# Compressibility (1/GPa) = 0.00965018
#
# Stress axis : x y z
#
# Youngs Moduli (GPa) = 56.73065 46.58548 29.85640
#
# Poissons Ratio (x) = 0.11387 0.28101
# Poissons Ratio (y) = 0.13867 0.58554
# Poissons Ratio (z) = 0.53396 0.91363
#
# Static dielectric constant tensor:
#      x y z
#    x 1.627680 0.000000 0.000000 
#    y 0.000000 1.611520 0.000000 
#    z 0.000000 0.000000 1.629740 
# 
# From -- ./inp_files/36283.got.cif
#   From: 2010.05.17/outbox.cif.g08.bks.cpg/sg64_19_cif.got.tgz:36283.got - 2010.06.03 16:29:19.
