data_PCOD9480211
_publ_section_title
;
Structure prediction by ZEFSAII (Michael W. Deem and Ramdas Pophale) SiO2 
 PCOD9480211
Probable space group: C M C A
;
_chemical_formula_sum "Si O2"
_cell_formula_units_Z 56
_cell_length_a 25.731647
_cell_length_b 17.680107
_cell_length_c 5.222918
_cell_angle_alpha 90.000000
_cell_angle_beta 90.000000
_cell_angle_gamma 90.000000
_cell_volume 2376.105291
_symmetry_space_group_name_H-M "C M C A"
_symmetry_group_IT_number 64
_symmetry_cell_setting 'orthorhombic'
loop_
_space_group_symop_operation_xyz
x,y,z
-x,1/2-y,1/2+z
x,-y,-z
-x,1/2+y,1/2-z
-x,-y,-z
x,1/2+y,1/2-z
-x,y,z
x,1/2-y,1/2+z
1/2+x,1/2+y,z
1/2-x,-y,1/2+z
1/2+x,1/2-y,-z
1/2-x,y,1/2-z
1/2-x,1/2-y,-z
1/2+x,y,1/2-z
1/2-x,1/2+y,z
1/2+x,-y,1/2+z
loop_
_atom_site_type_symbol
_atom_site_label
_atom_site_fract_x
_atom_site_fract_y
_atom_site_fract_z
Si Si1 0.562654 0.702979 0.363897
Si Si2 0.718513 0.907488 0.496251
Si Si3 0.500000 0.053706 0.749458
Si Si4 0.399235 0.090132 0.499175
O O1 0.500000 0.697552 0.366379
O O2 0.579086 0.746671 0.617020
O O3 0.583832 0.621677 0.277070
O O4 0.750000 0.882572 0.250000
O O5 0.659112 0.880961 0.461895
O O6 0.717995 0.000000 0.500000
O O7 0.750000 0.883924 0.750000
O O8 0.447802 0.102772 0.695263
O O9 0.500000 0.000000 0.500000
O O10 0.500000 0.000000 0.000000
O O11 0.393787 0.000000 0.500000
#
# Coordination Sequence:
#
# PCOD9480211 Si02
#       4
#    16  16   8  16
#     4  10  22  39  58  84 121 162 198 238 303 377
#     4   9  19  34  55  83 115 153 199 248 301 357
#     4  10  22  34  52  90 124 148 187 248 309 352
#     4  10  21  39  63  90 122 158 203 258 305 359
#
# _framework density 23.567979000000001
#
# number of rings (size 3 to 8) (size 9 to 14) (size 15 to 20)
#    0.000    2.286    1.429    0.000    0.000   14.857 
#    0.000    0.000    0.000    5.143    0.000    0.000 
#    0.000    0.000    0.000    0.000    0.000    0.000 
#
# Total GULP energy -156350.112459 kJ/mol
# GULP energy per Si atom -5583.932588 kJ/mol
# Density = 2.351434 g / cm^3
# Si number density = 23.567979 Si / 1000 Ang^3
#
#
#
# Elastic Constant Matrix: (Units=GPa)
#
#
# Indices 1 2 3 4 5 6 
#
# 1 216.0014 -3.0822 73.2183 0.0000 0.0000 0.0000
# 2 -3.0822 59.1916 8.1943 0.0000 0.0000 0.0000
# 3 73.2183 8.1943 148.0672 0.0000 0.0000 0.0000
# 4 0.0000 0.0000 0.0000 28.8769 0.0000 0.0000
# 5 0.0000 0.0000 0.0000 0.0000 19.1371 0.0000
# 6 0.0000 0.0000 0.0000 0.0000 0.0000 1.7845
#
#
#
# Elastic Compliance Matrix: (Units=1/GPa)
#
#
# Indices 1 2 3 4 5 6 
#
# 1 0.005589 0.000679 -0.002801 0.000000 0.000000 0.000000
# 2 0.000679 0.017107 -0.001282 0.000000 0.000000 0.000000
# 3 -0.002801 -0.001282 0.008210 0.000000 0.000000 0.000000
# 4 0.000000 0.000000 0.000000 0.034630 0.000000 0.000000
# 5 0.000000 0.000000 0.000000 0.000000 0.052255 0.000000
# 6 0.000000 0.000000 0.000000 0.000000 0.000000 0.560382
#
#
# Mechanical properties :
#
#
# Convention : Reuss Voigt Hill
#
# Bulk Modulus (GPa) = 41.50029 64.43566 52.96798
# Shear Modulus (GPa) = 7.21486 32.95503 20.08495
#
# Velocity S-wave (km/s) = 1.75156 3.74344 2.92244
# Velocity P-wave (km/s) = 4.66236 6.78853 5.82330
#
# Compressibility (1/GPa) = 0.02409622
#
# Stress axis : x y z
#
# Youngs Moduli (GPa) = 178.92896 58.45505 121.80516
#
# Poissons Ratio (x) = -0.03968 0.34120
# Poissons Ratio (y) = -0.12146 0.15620
# Poissons Ratio (z) = 0.50122 0.07496
#
# Static dielectric constant tensor:
#      x y z
#    x 1.937220 0.000000 0.000000 
#    y 0.000000 2.056220 0.000000 
#    z 0.000000 0.000000 2.040940 
# 
# From -- ./inp_files/2102.got.cif
#   From: 2010.05.17/outbox.cif.g08.bks.cpg/sg64_2_cif.got.tgz:2102.got - 2010.06.03 16:29:19.
