data_PCOD9480786
_publ_section_title
;
Structure prediction by ZEFSAII (Michael W. Deem and Ramdas Pophale) SiO2 
 PCOD9480786
Probable space group: C M C A
;
_chemical_formula_sum "Si O2"
_cell_formula_units_Z 64
_cell_length_a 28.891856
_cell_length_b 11.559733
_cell_length_c 8.837464
_cell_angle_alpha 90.000000
_cell_angle_beta 90.000000
_cell_angle_gamma 90.000000
_cell_volume 2951.555150
_symmetry_space_group_name_H-M "C M C A"
_symmetry_group_IT_number 64
_symmetry_cell_setting 'orthorhombic'
loop_
_space_group_symop_operation_xyz
x,y,z
-x,1/2-y,1/2+z
x,-y,-z
-x,1/2+y,1/2-z
-x,-y,-z
x,1/2+y,1/2-z
-x,y,z
x,1/2-y,1/2+z
1/2+x,1/2+y,z
1/2-x,-y,1/2+z
1/2+x,1/2-y,-z
1/2-x,y,1/2-z
1/2-x,1/2-y,-z
1/2+x,y,1/2-z
1/2-x,1/2+y,z
1/2+x,-y,1/2+z
loop_
_atom_site_type_symbol
_atom_site_label
_atom_site_fract_x
_atom_site_fract_y
_atom_site_fract_z
Si Si1 0.312028 0.340634 0.384432
Si Si2 0.416799 0.379058 0.423562
Si Si3 0.210233 0.622119 0.537046
Si Si4 0.444636 0.873127 0.430194
O O1 0.361122 0.390763 0.424839
O O2 0.266179 0.376953 0.478394
O O3 0.300960 0.352306 0.209266
O O4 0.313498 0.206666 0.421961
O O5 0.435176 0.500000 0.500000
O O6 0.427963 0.252296 0.499737
O O7 0.432227 0.373825 0.248179
O O8 0.190956 0.500000 0.500000
O O9 0.500000 0.870941 0.448658
O O10 0.429138 0.000000 0.500000
#
# Coordination Sequence:
#
# PCOD9480786 Si02
#       4
#    16  16  16  16
#     4  10  23  39  60  92 124 164 216 256 306 368
#     4  12  25  42  69 100 131 168 215 269 321 382
#     4  10  22  40  61  85 127 173 208 255 307 362
#     4  11  26  47  69  96 130 168 211 264 329 395
#
# _framework density 21.683485999999998
#
# number of rings (size 3 to 8) (size 9 to 14) (size 15 to 20)
#    0.000    1.250    0.000    4.500    0.000   20.000 
#    0.000    0.000    0.000    0.000    0.000    0.000 
#    0.000    0.000    0.000    0.000    0.000    0.000 
#
# Total GULP energy -178390.826808 kJ/mol
# GULP energy per Si atom -5574.713338 kJ/mol
# Density = 2.163413 g / cm^3
# Si number density = 21.683486 Si / 1000 Ang^3
#
#
#
# Elastic Constant Matrix: (Units=GPa)
#
#
# Indices 1 2 3 4 5 6 
#
# 1 97.1390 20.3526 11.6726 0.0000 0.0000 0.0000
# 2 20.3526 198.4061 88.2104 0.0000 0.0000 0.0000
# 3 11.6726 88.2104 116.6629 0.0000 0.0000 0.0000
# 4 0.0000 0.0000 0.0000 164.8757 0.0000 0.0000
# 5 0.0000 0.0000 0.0000 0.0000 15.2066 0.0000
# 6 0.0000 0.0000 0.0000 0.0000 0.0000 -7.6592
#
#
#
# Elastic Compliance Matrix: (Units=1/GPa)
#
#
# Indices 1 2 3 4 5 6 
#
# 1 0.010530 -0.000922 -0.000357 0.000000 0.000000 0.000000
# 2 -0.000922 0.007673 -0.005710 0.000000 0.000000 0.000000
# 3 -0.000357 -0.005710 0.012924 0.000000 0.000000 0.000000
# 4 0.000000 0.000000 0.000000 0.006065 0.000000 0.000000
# 5 0.000000 0.000000 0.000000 0.000000 0.065761 0.000000
# 6 0.000000 0.000000 0.000000 0.000000 0.000000 -0.130562
#
#
# Mechanical properties :
#
#
# Convention : Reuss Voigt Hill
#
# Bulk Modulus (GPa) = 58.30146 72.51991 65.41069
# Shear Modulus (GPa) = -631.74557 53.94944 -288.89806
#
# Velocity S-wave (km/s) = -17.08746 4.99344 -11.55523
# Velocity P-wave (km/s) = 19.03582 8.17088 12.15728
#
# Compressibility (1/GPa) = 0.01715223
#
# Stress axis : x y z
#
# Youngs Moduli (GPa) = 94.96234 130.32451 77.37249
#
# Poissons Ratio (x) = 0.12011 0.02761
# Poissons Ratio (y) = 0.08752 0.44176
# Poissons Ratio (z) = 0.03388 0.74410
#
# Static dielectric constant tensor:
#      x y z
#    x 1.822620 0.000000 0.000000 
#    y 0.000000 1.870150 0.000000 
#    z 0.000000 0.000000 1.745650 
# 
# From -- ./inp_files/10859.got.cif
#   From: 2010.05.17/outbox.cif.g08.bks.cpg/sg64_6_cif.got.tgz:10859.got - 2010.06.03 16:29:19.
