data_PCOD9480002
_publ_section_title
;
Structure prediction by ZEFSAII (Michael W. Deem and Ramdas Pophale) SiO2 
 PCOD9480002
Probable space group: C M C A
;
_chemical_formula_sum "Si O2"
_cell_formula_units_Z 48
_cell_length_a 35.997337
_cell_length_b 11.985443
_cell_length_c 4.978635
_cell_angle_alpha 90.000000
_cell_angle_beta 90.000000
_cell_angle_gamma 90.000000
_cell_volume 2148.002352
_symmetry_space_group_name_H-M "C M C A"
_symmetry_group_IT_number 64
_symmetry_cell_setting 'orthorhombic'
loop_
_space_group_symop_operation_xyz
x,y,z
-x,1/2-y,1/2+z
x,-y,-z
-x,1/2+y,1/2-z
-x,-y,-z
x,1/2+y,1/2-z
-x,y,z
x,1/2-y,1/2+z
1/2+x,1/2+y,z
1/2-x,-y,1/2+z
1/2+x,1/2-y,-z
1/2-x,y,1/2-z
1/2-x,1/2-y,-z
1/2+x,y,1/2-z
1/2-x,1/2+y,z
1/2+x,-y,1/2+z
loop_
_atom_site_type_symbol
_atom_site_label
_atom_site_fract_x
_atom_site_fract_y
_atom_site_fract_z
Si Si1 0.888174 0.500000 0.500000
Si Si2 0.750000 0.333007 0.750000
Si Si3 0.063436 0.000000 0.500000
Si Si4 0.169347 0.828649 0.746931
Si Si5 0.500000 0.170012 0.125460
O O1 0.912843 0.454180 0.252027
O O2 0.862476 0.589939 0.348989
O O3 0.750000 0.250000 0.500000
O O4 0.790236 0.389787 0.737775
O O5 0.036358 0.907092 0.624265
O O6 0.167268 0.777649 0.448802
O O7 0.500000 0.256954 0.361349
#
# Coordination Sequence:
#
# PCOD9480002 Si02
#       5
#     8   8   8  16   8
#     4  12  24  39  61  94 129 160 197 254 315 365
#     4   8  16  34  56  78 110 152 202 250 284 340
#     4  11  26  42  61  96 127 150 205 256 291 376
#     4  10  21  38  59  85 120 162 205 250 302 354
#     4  11  24  45  70  90 118 165 202 241 306 366
#
# _framework density 22.346346
#
# number of rings (size 3 to 8) (size 9 to 14) (size 15 to 20)
#    0.000    1.667    0.000    4.000    0.000   10.667 
#    0.000   11.667    0.000    0.000    0.000    0.000 
#    0.000    0.000    0.000    0.000    0.000    0.000 
#
# Total GULP energy -134059.056680 kJ/mol
# GULP energy per Si atom -5585.794028 kJ/mol
# Density = 2.229548 g / cm^3
# Si number density = 22.346346 Si / 1000 Ang^3
#
#
#
# Elastic Constant Matrix: (Units=GPa)
#
#
# Indices 1 2 3 4 5 6 
#
# 1 126.3246 19.5900 14.2526 0.0000 0.0000 0.0000
# 2 19.5900 37.9537 -7.6090 0.0000 0.0000 0.0000
# 3 14.2526 -7.6090 123.9237 0.0000 0.0000 0.0000
# 4 0.0000 0.0000 0.0000 34.4245 0.0000 0.0000
# 5 0.0000 0.0000 0.0000 0.0000 82.1183 0.0000
# 6 0.0000 0.0000 0.0000 0.0000 0.0000 88.6358
#
#
#
# Elastic Compliance Matrix: (Units=1/GPa)
#
#
# Indices 1 2 3 4 5 6 
#
# 1 0.008810 -0.004809 -0.001308 0.000000 0.000000 0.000000
# 2 -0.004809 0.029302 0.002352 0.000000 0.000000 0.000000
# 3 -0.001308 0.002352 0.008364 0.000000 0.000000 0.000000
# 4 0.000000 0.000000 0.000000 0.029049 0.000000 0.000000
# 5 0.000000 0.000000 0.000000 0.000000 0.012178 0.000000
# 6 0.000000 0.000000 0.000000 0.000000 0.000000 0.011282
#
#
# Mechanical properties :
#
#
# Convention : Reuss Voigt Hill
#
# Bulk Modulus (GPa) = 25.67751 37.85212 31.76482
# Shear Modulus (GPa) = 41.84190 58.50028 50.17109
#
# Velocity S-wave (km/s) = 4.33185 5.12208 4.74345
# Velocity P-wave (km/s) = 6.04446 7.20809 6.65177
#
# Compressibility (1/GPa) = 0.03894459
#
# Stress axis : x y z
#
# Youngs Moduli (GPa) = 113.51282 34.12750 119.55427
#
# Poissons Ratio (x) = 0.16413 0.15644
# Poissons Ratio (y) = 0.54593 -0.28123
# Poissons Ratio (z) = 0.14853 -0.08028
#
# Static dielectric constant tensor:
#      x y z
#    x 1.900380 0.000000 0.000000 
#    y 0.000000 1.786480 0.000000 
#    z 0.000000 0.000000 1.773230 
# 
# From -- ./inp_files/2581.got.cif
#   From: 2010.05.17/outbox.cif.g08.bks.cpg/sg64_2_cif.got.tgz:2581.got - 2010.06.03 16:29:19.
