data_PCOD9480722
_publ_section_title
;
Structure prediction by ZEFSAII (Michael W. Deem and Ramdas Pophale) SiO2 
 PCOD9480722
Probable space group: C M C A
;
_chemical_formula_sum "Si O2"
_cell_formula_units_Z 80
_cell_length_a 26.195899
_cell_length_b 15.215491
_cell_length_c 10.741283
_cell_angle_alpha 90.000000
_cell_angle_beta 90.000000
_cell_angle_gamma 90.000000
_cell_volume 4281.297802
_symmetry_space_group_name_H-M "C M C A"
_symmetry_group_IT_number 64
_symmetry_cell_setting 'orthorhombic'
loop_
_space_group_symop_operation_xyz
x,y,z
-x,1/2-y,1/2+z
x,-y,-z
-x,1/2+y,1/2-z
-x,-y,-z
x,1/2+y,1/2-z
-x,y,z
x,1/2-y,1/2+z
1/2+x,1/2+y,z
1/2-x,-y,1/2+z
1/2+x,1/2-y,-z
1/2-x,y,1/2-z
1/2-x,1/2-y,-z
1/2+x,y,1/2-z
1/2-x,1/2+y,z
1/2+x,-y,1/2+z
loop_
_atom_site_type_symbol
_atom_site_label
_atom_site_fract_x
_atom_site_fract_y
_atom_site_fract_z
Si Si1 0.558324 0.504547 0.851564
Si Si2 0.628433 0.662489 0.763952
Si Si3 0.857865 0.395698 0.989854
Si Si4 0.282794 0.266269 0.624065
Si Si5 0.440027 0.668407 0.309608
O O1 0.500000 0.530978 0.817893
O O2 0.598691 0.574879 0.802825
O O3 0.566930 0.408987 0.791535
O O4 0.561507 0.500000 0.000000
O O5 0.648449 0.647945 0.624628
O O6 0.675226 0.689771 0.852938
O O7 0.588830 0.743425 0.769171
O O8 0.815498 0.354619 0.899016
O O9 0.912424 0.367106 0.933681
O O10 0.854585 0.500000 0.000000
O O11 0.250000 0.272528 0.750000
O O12 0.250000 0.250000 0.500000
O O13 0.500000 0.683793 0.327487
#
# Coordination Sequence:
#
# PCOD9480722 Si02
#       5
#    16  16  16  16  16
#     4  10  22  39  60  92 132 172 216 258 308 382
#     4  11  23  41  67  90 130 166 214 267 319 383
#     4  11  23  43  66  95 127 166 216 267 321 388
#     4  11  24  46  69  93 124 164 213 274 333 385
#     4  10  23  38  61  95 131 173 211 254 315 378
#
# _framework density 18.685922000000001
#
# number of rings (size 3 to 8) (size 9 to 14) (size 15 to 20)
#    0.000    1.400    4.000    0.600    5.600    2.000 
#    3.600    0.000    0.000    0.000    0.000    0.000 
#    0.000    0.000    0.000    0.000    0.000    0.000 
#
# Total GULP energy -223408.167314 kJ/mol
# GULP energy per Si atom -5585.204183 kJ/mol
# Density = 1.864339 g / cm^3
# Si number density = 18.685922 Si / 1000 Ang^3
#
#
#
# Elastic Constant Matrix: (Units=GPa)
#
#
# Indices 1 2 3 4 5 6 
#
# 1 115.7185 39.6839 43.9481 0.0000 0.0000 0.0000
# 2 39.6839 61.6967 9.6997 0.0000 0.0000 0.0000
# 3 43.9481 9.6997 89.3495 0.0000 0.0000 0.0000
# 4 0.0000 0.0000 0.0000 31.2941 0.0000 0.0000
# 5 0.0000 0.0000 0.0000 0.0000 32.9922 0.0000
# 6 0.0000 0.0000 0.0000 0.0000 0.0000 16.7321
#
#
#
# Elastic Compliance Matrix: (Units=1/GPa)
#
#
# Indices 1 2 3 4 5 6 
#
# 1 0.013513 -0.007780 -0.005802 0.000000 0.000000 0.000000
# 2 -0.007780 0.020968 0.001550 0.000000 0.000000 0.000000
# 3 -0.005802 0.001550 0.013878 0.000000 0.000000 0.000000
# 4 0.000000 0.000000 0.000000 0.031955 0.000000 0.000000
# 5 0.000000 0.000000 0.000000 0.000000 0.030310 0.000000
# 6 0.000000 0.000000 0.000000 0.000000 0.000000 0.059765
#
#
# Mechanical properties :
#
#
# Convention : Reuss Voigt Hill
#
# Bulk Modulus (GPa) = 41.15867 50.38090 45.76979
# Shear Modulus (GPa) = 24.68510 27.76588 26.22549
#
# Velocity S-wave (km/s) = 3.63857 3.85895 3.75038
# Velocity P-wave (km/s) = 6.30291 6.84659 6.58037
#
# Compressibility (1/GPa) = 0.02429622
#
# Stress axis : x y z
#
# Youngs Moduli (GPa) = 74.00236 47.69059 72.05866
#
# Poissons Ratio (x) = 0.37101 0.41809
# Poissons Ratio (y) = 0.57571 -0.11170
# Poissons Ratio (z) = 0.42937 -0.07393
#
# Static dielectric constant tensor:
#      x y z
#    x 1.655830 0.000000 0.000000 
#    y 0.000000 1.623530 0.000000 
#    z 0.000000 0.000000 1.640350 
# 
# From -- ./inp_files/18036.got.cif
#   From: 2010.05.17/outbox.cif.g08.bks.cpg/sg64_10_cif.got.tgz:18036.got - 2010.06.03 16:29:19.
