data_PCOD9480755
_publ_section_title
;
Structure prediction by ZEFSAII (Michael W. Deem and Ramdas Pophale) SiO2 
 PCOD9480755
Probable space group: C M C A
;
_chemical_formula_sum "Si O2"
_cell_formula_units_Z 112
_cell_length_a 23.304151
_cell_length_b 14.918620
_cell_length_c 14.355731
_cell_angle_alpha 90.000000
_cell_angle_beta 90.000000
_cell_angle_gamma 90.000000
_cell_volume 4990.996318
_symmetry_space_group_name_H-M "C M C A"
_symmetry_group_IT_number 64
_symmetry_cell_setting 'orthorhombic'
loop_
_space_group_symop_operation_xyz
x,y,z
-x,1/2-y,1/2+z
x,-y,-z
-x,1/2+y,1/2-z
-x,-y,-z
x,1/2+y,1/2-z
-x,y,z
x,1/2-y,1/2+z
1/2+x,1/2+y,z
1/2-x,-y,1/2+z
1/2+x,1/2-y,-z
1/2-x,y,1/2-z
1/2-x,1/2-y,-z
1/2+x,y,1/2-z
1/2-x,1/2+y,z
1/2+x,-y,1/2+z
loop_
_atom_site_type_symbol
_atom_site_label
_atom_site_fract_x
_atom_site_fract_y
_atom_site_fract_z
Si Si1 0.097023 0.033741 0.593824
Si Si2 0.741181 0.270375 0.859800
Si Si3 0.068021 0.549193 0.705494
Si Si4 0.432187 0.182408 0.547806
Si Si5 0.431500 0.650210 0.341258
Si Si6 0.116042 0.857616 0.847746
Si Si7 0.283894 0.397037 0.486358
O O1 0.071918 0.080369 0.686048
O O2 0.153446 0.083039 0.557648
O O3 0.064281 0.000000 0.500000
O O4 0.106409 0.936611 0.639838
O O5 0.750000 0.257289 0.750000
O O6 0.679177 0.318823 0.862326
O O7 0.744127 0.174827 0.914108
O O8 0.780896 0.341085 0.916856
O O9 0.089592 0.623038 0.633181
O O10 0.104790 0.461789 0.677010
O O11 0.000000 0.528442 0.690160
O O12 0.500000 0.171956 0.551248
O O13 0.419988 0.283724 0.574580
O O14 0.412744 0.157369 0.446608
O O15 0.500000 0.628555 0.338634
O O16 0.414127 0.689418 0.241107
O O17 0.259912 0.500000 0.500000
#
# Coordination Sequence:
#
# PCOD9480755 Si02
#       7
#    16  16  16  16  16  16  16
#     4  10  22  39  68  92 133 184 226 288 350 419
#     4  11  28  49  74 107 139 187 241 312 368 431
#     4  10  22  41  67 107 144 186 242 286 351 436
#     4  10  22  39  66 101 144 184 229 287 344 426
#     4  10  23  40  64 104 142 181 234 283 351 435
#     4  11  23  40  71  95 138 186 230 290 358 424
#     4  10  26  50  74 102 137 186 244 301 364 431
#
# _framework density 22.44041
#
# number of rings (size 3 to 8) (size 9 to 14) (size 15 to 20)
#    0.000    1.714    0.000    3.000   14.000    5.143 
#    0.000    2.857    0.000    0.000    0.000    0.000 
#    0.000    0.000    0.000    0.000    0.000    0.000 
#
# Total GULP energy -311965.277833 kJ/mol
# GULP energy per Si atom -5570.808533 kJ/mol
# Density = 2.238933 g / cm^3
# Si number density = 22.440410 Si / 1000 Ang^3
#
#
#
# Elastic Constant Matrix: (Units=GPa)
#
#
# Indices 1 2 3 4 5 6 
#
# 1 -167.3505 201.3226 -25.9401 0.0000 0.0000 0.0000
# 2 201.3226 -0.0501 81.5984 0.0000 0.0000 0.0000
# 3 -25.9401 81.5984 171.3966 0.0000 0.0000 0.0000
# 4 0.0000 0.0000 0.0000 34.9127 0.0000 0.0000
# 5 0.0000 0.0000 0.0000 0.0000 39.4806 0.0000
# 6 0.0000 0.0000 0.0000 0.0000 0.0000 22.6927
#
#
#
# Elastic Compliance Matrix: (Units=1/GPa)
#
#
# Indices 1 2 3 4 5 6 
#
# 1 0.000998 0.005480 -0.002458 0.000000 0.000000 0.000000
# 2 0.005480 0.004392 -0.001262 0.000000 0.000000 0.000000
# 3 -0.002458 -0.001262 0.006063 0.000000 0.000000 0.000000
# 4 0.000000 0.000000 0.000000 0.028643 0.000000 0.000000
# 5 0.000000 0.000000 0.000000 0.000000 0.025329 0.000000
# 6 0.000000 0.000000 0.000000 0.000000 0.000000 0.044067
#
#
# Mechanical properties :
#
#
# Convention : Reuss Voigt Hill
#
# Bulk Modulus (GPa) = 66.78571 57.55088 62.16830
# Shear Modulus (GPa) = 45.06015 2.55155 23.80585
#
# Velocity S-wave (km/s) = 4.48592 1.06748 3.26060
# Velocity P-wave (km/s) = 7.52710 5.21739 6.47605
#
# Compressibility (1/GPa) = 0.01497326
#
# Stress axis : x y z
#
# Youngs Moduli (GPa) = 1002.47320 227.66478 164.93020
#
# Poissons Ratio (x) = -1.24753 0.40536
# Poissons Ratio (y) = -5.49323 0.20811
# Poissons Ratio (z) = 2.46387 0.28727
#
# Static dielectric constant tensor:
#      x y z
#    x 1.852070 0.000000 0.000000 
#    y 0.000000 1.893310 0.000000 
#    z 0.000000 0.000000 1.854050 
# 
# From -- ./inp_files/27447.got.cif
#   From: 2010.05.17/outbox.cif.g08.bks.cpg/sg64_14_cif.got.tgz:27447.got - 2010.06.03 16:29:19.
