data_PCOD9480938
_publ_section_title
;
Structure prediction by ZEFSAII (Michael W. Deem and Ramdas Pophale) SiO2 
 PCOD9480938
Probable space group: C M C A
;
_chemical_formula_sum "Si O2"
_cell_formula_units_Z 48
_cell_length_a 16.732529
_cell_length_b 24.880041
_cell_length_c 4.806819
_cell_angle_alpha 90.000000
_cell_angle_beta 90.000000
_cell_angle_gamma 90.000000
_cell_volume 2001.107627
_symmetry_space_group_name_H-M "C M C A"
_symmetry_group_IT_number 64
_symmetry_cell_setting 'orthorhombic'
loop_
_space_group_symop_operation_xyz
x,y,z
-x,1/2-y,1/2+z
x,-y,-z
-x,1/2+y,1/2-z
-x,-y,-z
x,1/2+y,1/2-z
-x,y,z
x,1/2-y,1/2+z
1/2+x,1/2+y,z
1/2-x,-y,1/2+z
1/2+x,1/2-y,-z
1/2-x,y,1/2-z
1/2-x,1/2-y,-z
1/2+x,y,1/2-z
1/2-x,1/2+y,z
1/2+x,-y,1/2+z
loop_
_atom_site_type_symbol
_atom_site_label
_atom_site_fract_x
_atom_site_fract_y
_atom_site_fract_z
Si Si1 0.590996 0.112567 0.076033
Si Si2 0.832502 0.060860 0.897839
Si Si3 0.346280 0.283495 0.255511
O O1 0.500000 0.116892 0.170264
O O2 0.645603 0.098016 0.340041
O O3 0.602143 0.066186 0.844291
O O4 0.616736 0.164974 0.901393
O O5 0.750000 0.077349 0.750000
O O6 0.824705 0.000000 0.000000
O O7 0.369474 0.231896 0.443977
O O8 0.250000 0.288805 0.250000
#
# Coordination Sequence:
#
# PCOD9480938 Si02
#       3
#    16  16  16
#     4  12  26  43  69 104 140 178 223 284 349 405
#     4  12  26  46  71  98 132 181 233 279 336 409
#     4  10  22  41  66  97 134 178 226 275 328 396
#
# _framework density 23.986713000000002
#
# number of rings (size 3 to 8) (size 9 to 14) (size 15 to 20)
#    0.000    0.667    0.000    8.000    0.000   10.667 
#    0.000    0.000    0.000    0.000    0.000    0.000 
#    0.000    0.000    0.000    0.000    0.000    0.000 
#
# Total GULP energy -134453.298599 kJ/mol
# GULP energy per Si atom -5602.220775 kJ/mol
# Density = 2.393212 g / cm^3
# Si number density = 23.986713 Si / 1000 Ang^3
#
#
#
# Elastic Constant Matrix: (Units=GPa)
#
#
# Indices 1 2 3 4 5 6 
#
# 1 110.5914 40.3289 45.4572 0.0000 0.0000 0.0000
# 2 40.3289 101.0287 39.1312 0.0000 0.0000 0.0000
# 3 45.4572 39.1312 141.6949 0.0000 0.0000 0.0000
# 4 0.0000 0.0000 0.0000 41.3941 0.0000 0.0000
# 5 0.0000 0.0000 0.0000 0.0000 32.7935 0.0000
# 6 0.0000 0.0000 0.0000 0.0000 0.0000 -0.4290
#
#
#
# Elastic Compliance Matrix: (Units=1/GPa)
#
#
# Indices 1 2 3 4 5 6 
#
# 1 0.011434 -0.003520 -0.002696 0.000000 0.000000 0.000000
# 2 -0.003520 0.012167 -0.002231 0.000000 0.000000 0.000000
# 3 -0.002696 -0.002231 0.008538 0.000000 0.000000 0.000000
# 4 0.000000 0.000000 0.000000 0.024158 0.000000 0.000000
# 5 0.000000 0.000000 0.000000 0.000000 0.030494 0.000000
# 6 0.000000 0.000000 0.000000 0.000000 0.000000 -2.331056
#
#
# Mechanical properties :
#
#
# Convention : Reuss Voigt Hill
#
# Bulk Modulus (GPa) = 65.59153 67.01662 66.30408
# Shear Modulus (GPa) = -2.24993 29.97824 13.86415
#
# Velocity S-wave (km/s) = -0.96955 3.53907 2.40676
# Velocity P-wave (km/s) = 5.11380 6.68578 5.95192
#
# Compressibility (1/GPa) = 0.01524587
#
# Stress axis : x y z
#
# Youngs Moduli (GPa) = 87.45755 82.18666 117.11718
#
# Poissons Ratio (x) = 0.28930 0.31576
# Poissons Ratio (y) = 0.30785 0.26128
# Poissons Ratio (z) = 0.23579 0.18335
#
# Static dielectric constant tensor:
#      x y z
#    x 1.891980 0.000000 0.000000 
#    y 0.000000 1.952930 0.000000 
#    z 0.000000 0.000000 1.881390 
# 
# From -- ./inp_files/715.got.cif
#   From: 2010.05.17/outbox.cif.g08.bks.cpg/sg64_1_cif.got.tgz:715.got - 2010.06.03 16:29:19.
