data_PCOD9480956
_publ_section_title
;
Structure prediction by ZEFSAII (Michael W. Deem and Ramdas Pophale) SiO2 
 PCOD9480956
Probable space group: C M C A
;
_chemical_formula_sum "Si O2"
_cell_formula_units_Z 104
_cell_length_a 21.571737
_cell_length_b 26.590884
_cell_length_c 9.113036
_cell_angle_alpha 90.000000
_cell_angle_beta 90.000000
_cell_angle_gamma 90.000000
_cell_volume 5227.342762
_symmetry_space_group_name_H-M "C M C A"
_symmetry_group_IT_number 64
_symmetry_cell_setting 'orthorhombic'
loop_
_space_group_symop_operation_xyz
x,y,z
-x,1/2-y,1/2+z
x,-y,-z
-x,1/2+y,1/2-z
-x,-y,-z
x,1/2+y,1/2-z
-x,y,z
x,1/2-y,1/2+z
1/2+x,1/2+y,z
1/2-x,-y,1/2+z
1/2+x,1/2-y,-z
1/2-x,y,1/2-z
1/2-x,1/2-y,-z
1/2+x,y,1/2-z
1/2-x,1/2+y,z
1/2+x,-y,1/2+z
loop_
_atom_site_type_symbol
_atom_site_label
_atom_site_fract_x
_atom_site_fract_y
_atom_site_fract_z
Si Si1 0.625351 0.809977 0.462937
Si Si2 0.761689 0.846665 0.422487
Si Si3 0.403787 0.076790 0.468445
Si Si4 0.500000 0.942073 0.784189
Si Si5 0.000000 0.449284 0.290153
Si Si6 0.888514 0.208151 0.618636
Si Si7 0.739722 0.551407 0.076412
Si Si8 0.000000 0.135482 0.550773
O O1 0.699510 0.819092 0.477595
O O2 0.595824 0.863642 0.499778
O O3 0.611021 0.796072 0.294696
O O4 0.603375 0.765026 0.565843
O O5 0.750000 0.858331 0.250000
O O6 0.821462 0.811704 0.433614
O O7 0.770934 0.898812 0.508316
O O8 0.440614 0.067609 0.319080
O O9 0.440842 0.050751 0.601492
O O10 0.333335 0.058710 0.457679
O O11 0.500000 0.001811 0.812308
O O12 0.500000 0.903863 0.917857
O O13 0.000000 0.398778 0.196387
O O14 0.940361 0.171391 0.553648
O O15 0.750000 0.549089 0.250000
O O16 0.761384 0.500000 0.000000
#
# Coordination Sequence:
#
# PCOD9480956 Si02
#       8
#    16  16  16   8   8  16  16   8
#     4  10  22  41  69  90 126 165 211 264 325 378
#     4   9  21  42  64  91 126 168 214 265 318 386
#     4  10  22  44  67  93 124 168 215 264 315 396
#     4  11  25  40  68  93 122 170 216 264 314 385
#     4  11  21  48  68  88 126 173 217 258 323 385
#     4  11  24  41  62  94 129 170 210 264 323 379
#     4  11  23  39  63  97 130 168 213 266 329 376
#     4  12  27  40  62  97 136 159 216 274 319 371
#
# _framework density 19.895385000000001
#
# number of rings (size 3 to 8) (size 9 to 14) (size 15 to 20)
#    0.000    1.538    1.538    3.000    4.308    3.077 
#    2.769    0.769    0.000    0.000    0.000    0.000 
#    0.000    0.000    0.000    0.000    0.000    0.000 
#
# Total GULP energy -290759.697464 kJ/mol
# GULP energy per Si atom -5591.532644 kJ/mol
# Density = 1.985010 g / cm^3
# Si number density = 19.895385 Si / 1000 Ang^3
#
#
#
# Elastic Constant Matrix: (Units=GPa)
#
#
# Indices 1 2 3 4 5 6 
#
# 1 37.2892 20.4772 2.7909 0.0000 0.0000 0.0000
# 2 20.4772 154.0871 47.3477 0.0000 0.0000 0.0000
# 3 2.7909 47.3477 55.9992 0.0000 0.0000 0.0000
# 4 0.0000 0.0000 0.0000 39.0615 0.0000 0.0000
# 5 0.0000 0.0000 0.0000 0.0000 8.5065 0.0000
# 6 0.0000 0.0000 0.0000 0.0000 0.0000 18.2714
#
#
#
# Elastic Compliance Matrix: (Units=1/GPa)
#
#
# Indices 1 2 3 4 5 6 
#
# 1 0.029178 -0.004635 0.002465 0.000000 0.000000 0.000000
# 2 -0.004635 0.009504 -0.007805 0.000000 0.000000 0.000000
# 3 0.002465 -0.007805 0.024333 0.000000 0.000000 0.000000
# 4 0.000000 0.000000 0.000000 0.025601 0.000000 0.000000
# 5 0.000000 0.000000 0.000000 0.000000 0.117557 0.000000
# 6 0.000000 0.000000 0.000000 0.000000 0.000000 0.054730
#
#
# Mechanical properties :
#
#
# Convention : Reuss Voigt Hill
#
# Bulk Modulus (GPa) = 23.22030 43.17859 33.19945
# Shear Modulus (GPa) = 16.93718 24.95186 20.94452
#
# Velocity S-wave (km/s) = 2.92089 3.54524 3.24810
# Velocity P-wave (km/s) = 4.80333 6.20550 5.54889
#
# Compressibility (1/GPa) = 0.04306576
#
# Stress axis : x y z
#
# Youngs Moduli (GPa) = 34.27217 105.21865 41.09563
#
# Poissons Ratio (x) = 0.48768 -0.10129
# Poissons Ratio (y) = 0.15885 0.32074
# Poissons Ratio (z) = -0.08447 0.82120
#
# Static dielectric constant tensor:
#      x y z
#    x 1.705120 0.000000 0.000000 
#    y 0.000000 1.679090 0.000000 
#    z 0.000000 0.000000 1.665490 
# 
# From -- ./inp_files/8567.got.cif
#   From: 2010.05.17/outbox.cif.g08.bks.cpg/sg64_5_cif.got.tgz:8567.got - 2010.06.03 16:29:19.
