data_PCOD9480616
_publ_section_title
;
Structure prediction by ZEFSAII (Michael W. Deem and Ramdas Pophale) SiO2 
 PCOD9480616
Probable space group: C M C A
;
_chemical_formula_sum "Si O2"
_cell_formula_units_Z 96
_cell_length_a 8.157956
_cell_length_b 20.842942
_cell_length_c 28.779385
_cell_angle_alpha 90.000000
_cell_angle_beta 90.000000
_cell_angle_gamma 90.000000
_cell_volume 4893.525860
_symmetry_space_group_name_H-M "C M C A"
_symmetry_group_IT_number 64
_symmetry_cell_setting 'orthorhombic'
loop_
_space_group_symop_operation_xyz
x,y,z
-x,1/2-y,1/2+z
x,-y,-z
-x,1/2+y,1/2-z
-x,-y,-z
x,1/2+y,1/2-z
-x,y,z
x,1/2-y,1/2+z
1/2+x,1/2+y,z
1/2-x,-y,1/2+z
1/2+x,1/2-y,-z
1/2-x,y,1/2-z
1/2-x,1/2-y,-z
1/2+x,y,1/2-z
1/2-x,1/2+y,z
1/2+x,-y,1/2+z
loop_
_atom_site_type_symbol
_atom_site_label
_atom_site_fract_x
_atom_site_fract_y
_atom_site_fract_z
Si Si1 0.799232 0.651912 0.368676
Si Si2 0.199497 0.413849 0.540989
Si Si3 0.694350 0.902052 0.162070
Si Si4 0.698241 0.060956 0.561380
Si Si5 0.301729 0.265636 0.302018
Si Si6 0.194364 0.038947 0.198420
O O1 0.746032 0.638709 0.421580
O O2 0.745773 0.715100 0.341138
O O3 0.742925 0.590504 0.338705
O O4 0.000000 0.652667 0.369084
O O5 0.245170 0.485482 0.558545
O O6 0.252619 0.408052 0.487518
O O7 0.000000 0.413405 0.540176
O O8 0.500000 0.901732 0.167719
O O9 0.735269 0.906432 0.107528
O O10 0.759531 0.836941 0.185316
O O11 0.758252 0.966773 0.185535
O O12 0.500000 0.062596 0.563551
O O13 0.500000 0.265981 0.303063
O O14 0.250000 0.247219 0.250000
O O15 0.250000 0.055355 0.250000
O O16 0.000000 0.042855 0.196676
#
# Coordination Sequence:
#
# PCOD9480616 Si02
#       6
#    16  16  16  16  16  16
#     4   9  17  33  56  79 102 134 176 218 260 307
#     4   8  14  28  54  83 105 131 174 217 257 311
#     4  11  22  35  51  76 109 142 175 213 262 316
#     4   9  16  30  55  82 105 135 176 217 257 307
#     4  10  22  38  55  74 102 142 179 214 261 314
#     4  11  21  34  55  79 103 132 173 224 268 310
#
# _framework density 19.617756
#
# number of rings (size 3 to 8) (size 9 to 14) (size 15 to 20)
#    0.000    2.333    1.667    3.000    0.000    2.667 
#    0.000    3.333    0.000    0.000    0.000    0.000 
#    0.000    0.000    0.000    0.000    0.000    0.000 
#
# Total GULP energy -267839.995754 kJ/mol
# GULP energy per Si atom -5579.999912 kJ/mol
# Density = 1.957311 g / cm^3
# Si number density = 19.617756 Si / 1000 Ang^3
#
#
#
# Elastic Constant Matrix: (Units=GPa)
#
#
# Indices 1 2 3 4 5 6 
#
# 1 11.1546 0.6687 -6.7571 0.0000 0.0000 0.0000
# 2 0.6687 29.5360 -26.8154 0.0000 0.0000 0.0000
# 3 -6.7571 -26.8154 53.0195 0.0000 0.0000 0.0000
# 4 0.0000 0.0000 0.0000 32.4321 0.0000 0.0000
# 5 0.0000 0.0000 0.0000 0.0000 27.2389 0.0000
# 6 0.0000 0.0000 0.0000 0.0000 0.0000 1.2499
#
#
#
# Elastic Compliance Matrix: (Units=1/GPa)
#
#
# Indices 1 2 3 4 5 6 
#
# 1 0.101829 0.017524 0.021841 0.000000 0.000000 0.000000
# 2 0.017524 0.065619 0.035421 0.000000 0.000000 0.000000
# 3 0.021841 0.035421 0.039559 0.000000 0.000000 0.000000
# 4 0.000000 0.000000 0.000000 0.030834 0.000000 0.000000
# 5 0.000000 0.000000 0.000000 0.000000 0.036712 0.000000
# 6 0.000000 0.000000 0.000000 0.000000 0.000000 0.800086
#
#
# Mechanical properties :
#
#
# Convention : Reuss Voigt Hill
#
# Bulk Modulus (GPa) = 2.80444 3.10025 2.95234
# Shear Modulus (GPa) = 4.78960 20.62510 12.70735
#
# Velocity S-wave (km/s) = 1.56421 3.24597 2.54785
# Velocity P-wave (km/s) = 2.16679 3.95375 3.18804
#
# Compressibility (1/GPa) = 0.35657711
#
# Stress axis : x y z
#
# Youngs Moduli (GPa) = 9.82039 15.23956 25.27855
#
# Poissons Ratio (x) = -0.26705 -0.55210
# Poissons Ratio (y) = -0.17209 -0.89539
# Poissons Ratio (z) = -0.21448 -0.53980
#
# Static dielectric constant tensor:
#      x y z
#    x 1.691760 0.000000 0.000000 
#    y 0.000000 1.693900 0.000000 
#    z 0.000000 0.000000 1.690800 
# 
# From -- ./inp_files/48085.got.cif
#   From: 2010.05.17/outbox.cif.g08.bks.cpg/sg64_25_cif.got.tgz:48085.got - 2010.06.03 16:29:19.
