data_PCOD9480817
_publ_section_title
;
Structure prediction by ZEFSAII (Michael W. Deem and Ramdas Pophale) SiO2 
 PCOD9480817
Probable space group: C M C A
;
_chemical_formula_sum "Si O2"
_cell_formula_units_Z 116
_cell_length_a 16.224952
_cell_length_b 22.636988
_cell_length_c 15.723094
_cell_angle_alpha 90.000000
_cell_angle_beta 90.000000
_cell_angle_gamma 90.000000
_cell_volume 5774.841544
_symmetry_space_group_name_H-M "C M C A"
_symmetry_group_IT_number 64
_symmetry_cell_setting 'orthorhombic'
loop_
_space_group_symop_operation_xyz
x,y,z
-x,1/2-y,1/2+z
x,-y,-z
-x,1/2+y,1/2-z
-x,-y,-z
x,1/2+y,1/2-z
-x,y,z
x,1/2-y,1/2+z
1/2+x,1/2+y,z
1/2-x,-y,1/2+z
1/2+x,1/2-y,-z
1/2-x,y,1/2-z
1/2-x,1/2-y,-z
1/2+x,y,1/2-z
1/2-x,1/2+y,z
1/2+x,-y,1/2+z
loop_
_atom_site_type_symbol
_atom_site_label
_atom_site_fract_x
_atom_site_fract_y
_atom_site_fract_z
Si Si1 0.906856 0.220317 0.123124
Si Si2 0.844605 0.119847 0.246026
Si Si3 0.593709 0.384899 0.561005
Si Si4 0.907705 0.246484 0.934928
Si Si5 0.254578 0.580704 0.538928
Si Si6 0.750326 0.696535 0.652483
Si Si7 0.500000 0.000000 0.500000
Si Si8 0.160527 0.027832 0.108046
O O1 0.894232 0.164807 0.185491
O O2 0.831278 0.264374 0.139528
O O3 0.000000 0.244078 0.137155
O O4 0.902070 0.208250 0.021486
O O5 0.750000 0.141514 0.250000
O O6 0.879592 0.114029 0.340370
O O7 0.656227 0.056726 0.300427
O O8 0.500000 0.404068 0.551950
O O9 0.599060 0.315060 0.537976
O O10 0.655061 0.421214 0.501721
O O11 0.833219 0.232355 0.871924
O O12 0.000000 0.238213 0.898093
O O13 0.248747 0.640262 0.591556
O O14 0.194187 0.577956 0.457170
O O15 0.225077 0.525569 0.595696
O O16 0.750000 0.677816 0.750000
O O17 0.427068 0.992702 0.572670
#
# Coordination Sequence:
#
# PCOD9480817 Si02
#       8
#    16  16  16  16  16  16   4  16
#     4  11  23  39  66  99 133 176 217 266 330 399
#     4  12  23  38  67 102 135 166 220 280 336 383
#     4  11  22  39  65  98 131 169 215 272 323 389
#     4  10  22  40  62  94 132 172 217 264 328 403
#     4  10  22  44  63  89 125 175 221 258 325 396
#     4  12  24  39  63  93 132 174 214 268 325 390
#     4   8  20  40  68  88 126 164 214 280 328 386
#     4  10  23  44  67  95 123 173 219 274 329 392
#
# _framework density 20.087129999999998
#
# number of rings (size 3 to 8) (size 9 to 14) (size 15 to 20)
#    0.000    1.379    2.759    3.724    1.931    2.207 
#    7.448    1.379    0.000    0.000    0.000    0.000 
#    0.000    0.000    0.000    0.000    0.000    0.000 
#
# Total GULP energy -323444.064410 kJ/mol
# GULP energy per Si atom -5576.621800 kJ/mol
# Density = 2.004141 g / cm^3
# Si number density = 20.087130 Si / 1000 Ang^3
#
#
#
# Elastic Constant Matrix: (Units=GPa)
#
#
# Indices 1 2 3 4 5 6 
#
# 1 186.5794 57.9977 51.6830 0.0000 0.0000 0.0000
# 2 57.9977 73.3522 22.8962 0.0000 0.0000 0.0000
# 3 51.6830 22.8962 58.7291 0.0000 0.0000 0.0000
# 4 0.0000 0.0000 0.0000 30.6703 0.0000 0.0000
# 5 0.0000 0.0000 0.0000 0.0000 17.5652 0.0000
# 6 0.0000 0.0000 0.0000 0.0000 0.0000 2.6617
#
#
#
# Elastic Compliance Matrix: (Units=1/GPa)
#
#
# Indices 1 2 3 4 5 6 
#
# 1 0.008413 -0.004942 -0.005477 0.000000 0.000000 0.000000
# 2 -0.004942 0.018425 -0.002834 0.000000 0.000000 0.000000
# 3 -0.005477 -0.002834 0.022952 0.000000 0.000000 0.000000
# 4 0.000000 0.000000 0.000000 0.032605 0.000000 0.000000
# 5 0.000000 0.000000 0.000000 0.000000 0.056931 0.000000
# 6 0.000000 0.000000 0.000000 0.000000 0.000000 0.375706
#
#
# Mechanical properties :
#
#
# Convention : Reuss Voigt Hill
#
# Bulk Modulus (GPa) = 42.94794 64.86827 53.90810
# Shear Modulus (GPa) = 9.10250 22.58503 15.84377
#
# Velocity S-wave (km/s) = 2.13104 3.35678 2.81152
# Velocity P-wave (km/s) = 5.24236 6.88386 6.11841
#
# Compressibility (1/GPa) = 0.02328401
#
# Stress axis : x y z
#
# Youngs Moduli (GPa) = 118.86213 54.27322 43.56943
#
# Poissons Ratio (x) = 0.26824 0.23862
# Poissons Ratio (y) = 0.58747 0.12347
# Poissons Ratio (z) = 0.65099 0.15380
#
# Static dielectric constant tensor:
#      x y z
#    x 1.711430 0.000000 0.000000 
#    y 0.000000 1.738480 0.000000 
#    z 0.000000 0.000000 1.708840 
# 
# From -- ./inp_files/32506.got.cif
#   From: 2010.05.17/outbox.cif.g08.bks.cpg/sg64_17_cif.got.tgz:32506.got - 2010.06.03 16:29:19.
