data_PCOD9480933
_publ_section_title
;
Structure prediction by ZEFSAII (Michael W. Deem and Ramdas Pophale) SiO2 
 PCOD9480933
Probable space group: C M C A
;
_chemical_formula_sum "Si O2"
_cell_formula_units_Z 112
_cell_length_a 18.307479
_cell_length_b 11.819844
_cell_length_c 25.367476
_cell_angle_alpha 90.000000
_cell_angle_beta 90.000000
_cell_angle_gamma 90.000000
_cell_volume 5489.307345
_symmetry_space_group_name_H-M "C M C A"
_symmetry_group_IT_number 64
_symmetry_cell_setting 'orthorhombic'
loop_
_space_group_symop_operation_xyz
x,y,z
-x,1/2-y,1/2+z
x,-y,-z
-x,1/2+y,1/2-z
-x,-y,-z
x,1/2+y,1/2-z
-x,y,z
x,1/2-y,1/2+z
1/2+x,1/2+y,z
1/2-x,-y,1/2+z
1/2+x,1/2-y,-z
1/2-x,y,1/2-z
1/2-x,1/2-y,-z
1/2+x,y,1/2-z
1/2-x,1/2+y,z
1/2+x,-y,1/2+z
loop_
_atom_site_type_symbol
_atom_site_label
_atom_site_fract_x
_atom_site_fract_y
_atom_site_fract_z
Si Si1 0.851485 0.461245 0.591700
Si Si2 0.084617 0.200529 0.903236
Si Si3 0.588684 0.214394 0.323807
Si Si4 0.835679 0.735499 0.488542
Si Si5 0.414375 0.190598 0.204709
Si Si6 0.693005 0.959623 0.060009
Si Si7 0.083067 0.527571 0.857520
O O1 0.907269 0.564825 0.594310
O O2 0.868293 0.375862 0.639932
O O3 0.855235 0.381539 0.539965
O O4 0.772006 0.522821 0.586834
O O5 0.115445 0.243291 0.846720
O O6 0.000000 0.234775 0.905458
O O7 0.123809 0.244373 0.956042
O O8 0.500000 0.191472 0.327020
O O9 0.614679 0.208845 0.263159
O O10 0.599566 0.344279 0.341234
O O11 0.750000 0.750000 0.500000
O O12 0.844737 0.836969 0.447379
O O13 0.500000 0.224328 0.207683
O O14 0.410844 0.057923 0.191199
O O15 0.636162 0.020179 0.097843
O O16 0.699127 0.000000 0.000000
O O17 0.000000 0.523401 0.876809
#
# Coordination Sequence:
#
# PCOD9480933 Si02
#       7
#    16  16  16  16  16  16  16
#     4  12  24  40  66  97 131 175 218 265 335 397
#     4  11  24  41  68 101 131 167 223 281 331 396
#     4  10  22  41  67  95 128 168 216 275 330 386
#     4  12  23  42  62  92 131 177 214 257 332 395
#     4   9  21  41  67  96 127 169 217 270 334 390
#     4  12  23  39  66  88 130 178 210 258 322 397
#     4  10  22  41  66  95 125 165 220 272 320 390
#
# _framework density 20.403302
#
# number of rings (size 3 to 8) (size 9 to 14) (size 15 to 20)
#    0.000    1.143    4.286    1.714    2.000    2.571 
#    0.000    0.714    0.000    0.000    0.000    0.000 
#    0.000    0.000    0.000    0.000    0.000    0.000 
#
# Total GULP energy -312248.686367 kJ/mol
# GULP energy per Si atom -5575.869399 kJ/mol
# Density = 2.035686 g / cm^3
# Si number density = 20.403302 Si / 1000 Ang^3
#
#
#
# Elastic Constant Matrix: (Units=GPa)
#
#
# Indices 1 2 3 4 5 6 
#
# 1 50.1417 11.7323 56.6713 0.0000 0.0000 0.0000
# 2 11.7323 96.8942 39.0684 0.0000 0.0000 0.0000
# 3 56.6713 39.0684 161.5806 0.0000 0.0000 0.0000
# 4 0.0000 0.0000 0.0000 19.2474 0.0000 0.0000
# 5 0.0000 0.0000 0.0000 0.0000 20.4922 0.0000
# 6 0.0000 0.0000 0.0000 0.0000 0.0000 21.8012
#
#
#
# Elastic Compliance Matrix: (Units=1/GPa)
#
#
# Indices 1 2 3 4 5 6 
#
# 1 0.033090 0.000746 -0.011786 0.000000 0.000000 0.000000
# 2 0.000746 0.011452 -0.003030 0.000000 0.000000 0.000000
# 3 -0.011786 -0.003030 0.011055 0.000000 0.000000 0.000000
# 4 0.000000 0.000000 0.000000 0.051955 0.000000 0.000000
# 5 0.000000 0.000000 0.000000 0.000000 0.048799 0.000000
# 6 0.000000 0.000000 0.000000 0.000000 0.000000 0.045869
#
#
# Mechanical properties :
#
#
# Convention : Reuss Voigt Hill
#
# Bulk Modulus (GPa) = 36.42257 58.17337 47.29797
# Shear Modulus (GPa) = 20.87563 25.71779 23.29671
#
# Velocity S-wave (km/s) = 3.20214 3.55416 3.38273
# Velocity P-wave (km/s) = 5.61798 6.73917 6.20395
#
# Compressibility (1/GPa) = 0.02745550
#
# Stress axis : x y z
#
# Youngs Moduli (GPa) = 30.22092 87.31966 90.45474
#
# Poissons Ratio (x) = -0.06510 1.06608
# Poissons Ratio (y) = -0.02253 0.27412
# Poissons Ratio (z) = 0.35618 0.26462
#
# Static dielectric constant tensor:
#      x y z
#    x 1.733180 0.000000 0.000000 
#    y 0.000000 1.927570 0.000000 
#    z 0.000000 0.000000 1.803520 
# 
# From -- ./inp_files/46323.got.cif
#   From: 2010.05.17/outbox.cif.g08.bks.cpg/sg64_24_cif.got.tgz:46323.got - 2010.06.03 16:29:19.
