data_PCOD9480587
_publ_section_title
;
Structure prediction by ZEFSAII (Michael W. Deem and Ramdas Pophale) SiO2 
 PCOD9480587
Probable space group: C M C A
;
_chemical_formula_sum "Si O2"
_cell_formula_units_Z 104
_cell_length_a 25.935642
_cell_length_b 8.651120
_cell_length_c 23.286120
_cell_angle_alpha 90.000000
_cell_angle_beta 90.000000
_cell_angle_gamma 90.000000
_cell_volume 5224.761495
_symmetry_space_group_name_H-M "C M C A"
_symmetry_group_IT_number 64
_symmetry_cell_setting 'orthorhombic'
loop_
_space_group_symop_operation_xyz
x,y,z
-x,1/2-y,1/2+z
x,-y,-z
-x,1/2+y,1/2-z
-x,-y,-z
x,1/2+y,1/2-z
-x,y,z
x,1/2-y,1/2+z
1/2+x,1/2+y,z
1/2-x,-y,1/2+z
1/2+x,1/2-y,-z
1/2-x,y,1/2-z
1/2-x,1/2-y,-z
1/2+x,y,1/2-z
1/2-x,1/2+y,z
1/2+x,-y,1/2+z
loop_
_atom_site_type_symbol
_atom_site_label
_atom_site_fract_x
_atom_site_fract_y
_atom_site_fract_z
Si Si1 0.890653 0.539149 0.122933
Si Si2 0.560295 0.034488 0.336161
Si Si3 0.742962 0.500000 0.000000
Si Si4 0.822875 0.254146 0.457267
Si Si5 0.939617 0.800055 0.721807
Si Si6 0.000000 0.069668 0.435718
Si Si7 0.608730 0.782753 0.571019
Si Si8 0.500000 0.179019 0.487998
O O1 0.858484 0.673135 0.090418
O O2 0.900543 0.588088 0.188126
O O3 0.872179 0.366867 0.107014
O O4 0.948058 0.535980 0.096776
O O5 0.500000 0.039614 0.355165
O O6 0.566728 0.172109 0.289472
O O7 0.600044 0.070162 0.387400
O O8 0.567552 0.872246 0.303157
O O9 0.779814 0.626002 0.028561
O O10 0.708320 0.414071 0.048215
O O11 0.856290 0.286600 0.514642
O O12 0.000000 0.841885 0.710491
O O13 0.000000 0.250761 0.448479
O O14 0.000000 0.000000 0.500000
O O15 0.550925 0.767620 0.545283
O O16 0.500000 0.000000 0.500000
#
# Coordination Sequence:
#
# PCOD9480587 Si02
#       8
#    16  16   8  16  16   8  16   8
#     4  12  21  35  58  86 116 162 194 234 288 360
#     4  10  22  37  54  81 119 162 200 237 278 336
#     4  10  24  44  58  84 120 150 196 256 296 366
#     4  11  23  40  63  88 118 154 197 239 311 351
#     4  10  22  37  55  81 119 162 201 235 280 337
#     4  12  20  34  49  80 125 156 187 223 283 347
#     4  12  22  36  56  86 119 160 196 236 287 357
#     4  12  26  32  49  82 129 156 193 231 285 345
#
# _framework density 19.905214999999998
#
# number of rings (size 3 to 8) (size 9 to 14) (size 15 to 20)
#    0.000    0.923    6.154    0.923    5.385    1.231 
#    0.000    0.000    0.000    0.000    0.000    6.462 
#    0.000    0.000    0.000    0.000    0.000    0.000 
#
# Total GULP energy -290084.252718 kJ/mol
# GULP energy per Si atom -5578.543322 kJ/mol
# Density = 1.985991 g / cm^3
# Si number density = 19.905215 Si / 1000 Ang^3
#
#
#
# Elastic Constant Matrix: (Units=GPa)
#
#
# Indices 1 2 3 4 5 6 
#
# 1 71.9992 13.2896 17.5667 0.0000 0.0000 0.0000
# 2 13.2896 56.9959 -1.5009 0.0000 0.0000 0.0000
# 3 17.5667 -1.5009 51.5550 0.0000 0.0000 0.0000
# 4 0.0000 0.0000 0.0000 30.7792 0.0000 0.0000
# 5 0.0000 0.0000 0.0000 0.0000 4.7032 0.0000
# 6 0.0000 0.0000 0.0000 0.0000 0.0000 26.1774
#
#
#
# Elastic Compliance Matrix: (Units=1/GPa)
#
#
# Indices 1 2 3 4 5 6 
#
# 1 0.015957 -0.003867 -0.005550 0.000000 0.000000 0.000000
# 2 -0.003867 0.018496 0.001856 0.000000 0.000000 0.000000
# 3 -0.005550 0.001856 0.021342 0.000000 0.000000 0.000000
# 4 0.000000 0.000000 0.000000 0.032490 0.000000 0.000000
# 5 0.000000 0.000000 0.000000 0.000000 0.212622 0.000000
# 6 0.000000 0.000000 0.000000 0.000000 0.000000 0.038201
#
#
# Mechanical properties :
#
#
# Convention : Reuss Voigt Hill
#
# Bulk Modulus (GPa) = 24.58612 26.58455 25.58533
# Shear Modulus (GPa) = 13.59491 22.41159 18.00325
#
# Velocity S-wave (km/s) = 2.61623 3.35911 3.01067
# Velocity P-wave (km/s) = 4.63731 5.33192 4.99670
#
# Compressibility (1/GPa) = 0.04067336
#
# Stress axis : x y z
#
# Youngs Moduli (GPa) = 62.66919 54.06693 46.85650
#
# Poissons Ratio (x) = 0.20906 0.26004
# Poissons Ratio (y) = 0.24233 -0.08697
# Poissons Ratio (z) = 0.34779 -0.10035
#
# Static dielectric constant tensor:
#      x y z
#    x 1.864160 0.000000 0.000000 
#    y 0.000000 1.839690 0.000000 
#    z 0.000000 0.000000 1.724290 
# 
# From -- ./inp_files/46922.got.cif
#   From: 2010.05.17/outbox.cif.g08.bks.cpg/sg64_24_cif.got.tgz:46922.got - 2010.06.03 16:29:19.
