data_PCOD9480573
_publ_section_title
;
Structure prediction by ZEFSAII (Michael W. Deem and Ramdas Pophale) SiO2 
 PCOD9480573
Probable space group: C M C A
;
_chemical_formula_sum "Si O2"
_cell_formula_units_Z 116
_cell_length_a 23.166814
_cell_length_b 9.394488
_cell_length_c 26.622813
_cell_angle_alpha 90.000000
_cell_angle_beta 90.000000
_cell_angle_gamma 90.000000
_cell_volume 5794.198502
_symmetry_space_group_name_H-M "C M C A"
_symmetry_group_IT_number 64
_symmetry_cell_setting 'orthorhombic'
loop_
_space_group_symop_operation_xyz
x,y,z
-x,1/2-y,1/2+z
x,-y,-z
-x,1/2+y,1/2-z
-x,-y,-z
x,1/2+y,1/2-z
-x,y,z
x,1/2-y,1/2+z
1/2+x,1/2+y,z
1/2-x,-y,1/2+z
1/2+x,1/2-y,-z
1/2-x,y,1/2-z
1/2-x,1/2-y,-z
1/2+x,y,1/2-z
1/2-x,1/2+y,z
1/2+x,-y,1/2+z
loop_
_atom_site_type_symbol
_atom_site_label
_atom_site_fract_x
_atom_site_fract_y
_atom_site_fract_z
Si Si1 0.290810 0.090171 0.202935
Si Si2 0.065465 0.558623 0.684276
Si Si3 0.389735 0.708478 0.238735
Si Si4 0.500000 0.500000 0.000000
Si Si5 0.208836 0.805628 0.338152
Si Si6 0.891686 0.397122 0.426708
Si Si7 0.296151 0.865515 0.560091
Si Si8 0.167026 0.356723 0.974676
O O1 0.250000 0.045574 0.250000
O O2 0.354709 0.108690 0.222649
O O3 0.267239 0.240298 0.184343
O O4 0.285145 0.973956 0.159738
O O5 0.072640 0.398784 0.705608
O O6 0.081526 0.669064 0.728388
O O7 0.100334 0.581012 0.632964
O O8 0.000000 0.584693 0.670116
O O9 0.341179 0.773521 0.202068
O O10 0.552387 0.447931 0.040640
O O11 0.196655 0.720998 0.388363
O O12 0.836072 0.495262 0.440049
O O13 0.875180 0.232974 0.438657
O O14 0.228675 0.895785 0.550192
O O15 0.318098 0.756934 0.517865
O O16 0.142631 0.500000 0.000000
#
# Coordination Sequence:
#
# PCOD9480573 Si02
#       8
#    16  16  16   4  16  16  16  16
#     4  10  22  36  56  90 132 174 212 269 329 402
#     4  12  26  45  70  98 128 181 237 291 343 401
#     4  11  23  43  64  90 136 172 225 289 331 401
#     4  12  24  52  78  96 132 184 246 290 308 430
#     4  11  23  35  61  95 131 176 222 263 339 420
#     4  12  25  47  77 100 134 190 238 279 351 423
#     4  11  23  40  67 100 136 181 226 277 354 426
#     4  11  25  42  65 103 145 170 217 303 359 410
#
# _framework density 20.020026000000001
#
# number of rings (size 3 to 8) (size 9 to 14) (size 15 to 20)
#    0.000    0.828    4.828    3.310    7.724    0.000 
#    0.000    0.345    0.000    0.000    0.000    0.000 
#    0.000    0.000    0.000    0.000    0.000    0.000 
#
# Total GULP energy -323541.253044 kJ/mol
# GULP energy per Si atom -5578.297466 kJ/mol
# Density = 1.997446 g / cm^3
# Si number density = 20.020026 Si / 1000 Ang^3
#
#
#
# Elastic Constant Matrix: (Units=GPa)
#
#
# Indices 1 2 3 4 5 6 
#
# 1 73.6576 23.4613 20.0795 0.0000 0.0000 0.0000
# 2 23.4613 85.9327 28.8322 0.0000 0.0000 0.0000
# 3 20.0795 28.8322 100.7443 0.0000 0.0000 0.0000
# 4 0.0000 0.0000 0.0000 36.3019 0.0000 0.0000
# 5 0.0000 0.0000 0.0000 0.0000 28.4828 0.0000
# 6 0.0000 0.0000 0.0000 0.0000 0.0000 10.6413
#
#
#
# Elastic Compliance Matrix: (Units=1/GPa)
#
#
# Indices 1 2 3 4 5 6 
#
# 1 0.015240 -0.003475 -0.002043 0.000000 0.000000 0.000000
# 2 -0.003475 0.013666 -0.003218 0.000000 0.000000 0.000000
# 3 -0.002043 -0.003218 0.011254 0.000000 0.000000 0.000000
# 4 0.000000 0.000000 0.000000 0.027547 0.000000 0.000000
# 5 0.000000 0.000000 0.000000 0.000000 0.035109 0.000000
# 6 0.000000 0.000000 0.000000 0.000000 0.000000 0.093974
#
#
# Mechanical properties :
#
#
# Convention : Reuss Voigt Hill
#
# Bulk Modulus (GPa) = 44.07822 45.00896 44.54359
# Shear Modulus (GPa) = 22.54027 27.61598 25.07812
#
# Velocity S-wave (km/s) = 3.35906 3.71808 3.54312
# Velocity P-wave (km/s) = 6.09174 6.40023 6.24789
#
# Compressibility (1/GPa) = 0.02268694
#
# Stress axis : x y z
#
# Youngs Moduli (GPa) = 65.61582 73.17602 88.85449
#
# Poissons Ratio (x) = 0.25432 0.18152
# Poissons Ratio (y) = 0.22804 0.28596
# Poissons Ratio (z) = 0.13405 0.23550
#
# Static dielectric constant tensor:
#      x y z
#    x 1.828500 0.000000 0.000000 
#    y 0.000000 1.710930 0.000000 
#    z 0.000000 0.000000 1.758580 
# 
# From -- ./inp_files/51080.got.cif
#   From: 2010.05.17/outbox.cif.g08.bks.cpg/sg64_26_cif.got.tgz:51080.got - 2010.06.03 16:29:19.
