data_PCOD9480114
_publ_section_title
;
Structure prediction by ZEFSAII (Michael W. Deem and Ramdas Pophale) SiO2 
 PCOD9480114
Probable space group: C M C A
;
_chemical_formula_sum "Si O2"
_cell_formula_units_Z 88
_cell_length_a 32.212874
_cell_length_b 13.637725
_cell_length_c 10.674880
_cell_angle_alpha 90.000000
_cell_angle_beta 90.000000
_cell_angle_gamma 90.000000
_cell_volume 4689.584918
_symmetry_space_group_name_H-M "C M C A"
_symmetry_group_IT_number 64
_symmetry_cell_setting 'orthorhombic'
loop_
_space_group_symop_operation_xyz
x,y,z
-x,1/2-y,1/2+z
x,-y,-z
-x,1/2+y,1/2-z
-x,-y,-z
x,1/2+y,1/2-z
-x,y,z
x,1/2-y,1/2+z
1/2+x,1/2+y,z
1/2-x,-y,1/2+z
1/2+x,1/2-y,-z
1/2-x,y,1/2-z
1/2-x,1/2-y,-z
1/2+x,y,1/2-z
1/2-x,1/2+y,z
1/2+x,-y,1/2+z
loop_
_atom_site_type_symbol
_atom_site_label
_atom_site_fract_x
_atom_site_fract_y
_atom_site_fract_z
Si Si1 0.951142 0.310468 0.948763
Si Si2 0.907606 0.771754 0.800424
Si Si3 0.657613 0.890916 0.192536
Si Si4 0.223106 0.732478 0.376634
Si Si5 0.154899 0.437535 0.622272
Si Si6 0.402121 0.000000 0.000000
O O1 0.940633 0.268792 0.811488
O O2 0.932117 0.419351 0.940970
O O3 0.000000 0.309698 0.972481
O O4 0.927585 0.258750 0.065919
O O5 0.872342 0.694647 0.754922
O O6 0.883618 0.874728 0.822362
O O7 0.696507 0.831391 0.141839
O O8 0.628608 0.942321 0.090696
O O9 0.669969 0.977945 0.284062
O O10 0.250000 0.715760 0.250000
O O11 0.250000 0.750000 0.500000
O O12 0.191182 0.642372 0.398410
O O13 0.142919 0.500000 0.500000
#
# Coordination Sequence:
#
# PCOD9480114 Si02
#       6
#    16  16  16  16  16   8
#     4  11  21  38  62  94 128 161 199 261 315 355
#     4  10  22  39  64  92 126 163 213 250 300 385
#     4  10  22  40  64  87 119 165 207 248 304 366
#     4  11  26  42  60  94 130 155 206 266 312 370
#     4  11  22  40  67  88 121 171 209 251 310 371
#     4  10  21  38  64  86 116 166 220 234 296 388
#
# _framework density 18.764987000000001
#
# number of rings (size 3 to 8) (size 9 to 14) (size 15 to 20)
#    0.000    1.455    1.818    3.000    2.545    5.091 
#    0.000    0.000    0.000    2.182    0.000    0.000 
#    0.000    0.000    0.000    0.000    0.000    0.000 
#
# Total GULP energy -245381.890695 kJ/mol
# GULP energy per Si atom -5576.861152 kJ/mol
# Density = 1.872228 g / cm^3
# Si number density = 18.764987 Si / 1000 Ang^3
#
#
#
# Elastic Constant Matrix: (Units=GPa)
#
#
# Indices 1 2 3 4 5 6 
#
# 1 82.0614 29.7262 31.1313 0.0000 0.0000 0.0000
# 2 29.7262 111.7839 31.5360 0.0000 0.0000 0.0000
# 3 31.1313 31.5360 83.4013 0.0000 0.0000 0.0000
# 4 0.0000 0.0000 0.0000 -16.7157 0.0000 0.0000
# 5 0.0000 0.0000 0.0000 0.0000 27.6822 0.0000
# 6 0.0000 0.0000 0.0000 0.0000 0.0000 20.6866
#
#
#
# Elastic Compliance Matrix: (Units=1/GPa)
#
#
# Indices 1 2 3 4 5 6 
#
# 1 0.014878 -0.002675 -0.004542 0.000000 0.000000 0.000000
# 2 -0.002675 0.010495 -0.002970 0.000000 0.000000 0.000000
# 3 -0.004542 -0.002970 0.014809 0.000000 0.000000 0.000000
# 4 0.000000 0.000000 0.000000 -0.059824 0.000000 0.000000
# 5 0.000000 0.000000 0.000000 0.000000 0.036124 0.000000
# 6 0.000000 0.000000 0.000000 0.000000 0.000000 0.048341
#
#
# Mechanical properties :
#
#
# Convention : Reuss Voigt Hill
#
# Bulk Modulus (GPa) = 50.48537 51.33709 50.91123
# Shear Modulus (GPa) = 54.46663 18.65415 36.56039
#
# Velocity S-wave (km/s) = 5.39339 3.15635 4.41878
# Velocity P-wave (km/s) = 8.10847 6.37971 7.29548
#
# Compressibility (1/GPa) = 0.01980772
#
# Stress axis : x y z
#
# Youngs Moduli (GPa) = 67.21270 95.28295 67.52821
#
# Poissons Ratio (x) = 0.25489 0.30672
# Poissons Ratio (y) = 0.17980 0.20055
# Poissons Ratio (z) = 0.30528 0.28298
#
# Static dielectric constant tensor:
#      x y z
#    x 1.637640 0.000000 0.000000 
#    y 0.000000 1.676190 0.000000 
#    z 0.000000 0.000000 1.683130 
# 
# From -- ./inp_files/19697.got.cif
#   From: 2010.05.17/outbox.cif.g08.bks.cpg/sg64_10_cif.got.tgz:19697.got - 2010.06.03 16:29:19.
