data_PCOD9480039
_publ_section_title
;
Structure prediction by ZEFSAII (Michael W. Deem and Ramdas Pophale) SiO2 
 PCOD9480039
Probable space group: C M C A
;
_chemical_formula_sum "Si O2"
_cell_formula_units_Z 104
_cell_length_a 18.710636
_cell_length_b 19.471217
_cell_length_c 14.509689
_cell_angle_alpha 90.000000
_cell_angle_beta 90.000000
_cell_angle_gamma 90.000000
_cell_volume 5286.153265
_symmetry_space_group_name_H-M "C M C A"
_symmetry_group_IT_number 64
_symmetry_cell_setting 'orthorhombic'
loop_
_space_group_symop_operation_xyz
x,y,z
-x,1/2-y,1/2+z
x,-y,-z
-x,1/2+y,1/2-z
-x,-y,-z
x,1/2+y,1/2-z
-x,y,z
x,1/2-y,1/2+z
1/2+x,1/2+y,z
1/2-x,-y,1/2+z
1/2+x,1/2-y,-z
1/2-x,y,1/2-z
1/2-x,1/2-y,-z
1/2+x,y,1/2-z
1/2-x,1/2+y,z
1/2+x,-y,1/2+z
loop_
_atom_site_type_symbol
_atom_site_label
_atom_site_fract_x
_atom_site_fract_y
_atom_site_fract_z
Si Si1 0.085084 0.216458 0.209211
Si Si2 0.918177 0.560284 0.312413
Si Si3 0.133440 0.000000 0.000000
Si Si4 0.667637 0.671506 0.588055
Si Si5 0.583669 0.766865 0.928780
Si Si6 0.833684 0.940706 0.268981
Si Si7 0.829781 0.361826 0.414373
O O1 0.106637 0.138769 0.183630
O O2 0.131893 0.270763 0.153024
O O3 0.094146 0.224327 0.319314
O O4 0.000000 0.226021 0.188871
O O5 0.911451 0.524430 0.412097
O O6 0.874158 0.511517 0.244712
O O7 0.000000 0.562099 0.282361
O O8 0.177409 0.067251 0.970333
O O9 0.631695 0.682025 0.489114
O O10 0.653540 0.598044 0.635735
O O11 0.753735 0.676492 0.587226
O O12 0.500000 0.774999 0.949825
O O13 0.611061 0.690054 0.952317
O O14 0.750000 0.952693 0.250000
O O15 0.853401 0.887041 0.187278
#
# Coordination Sequence:
#
# PCOD9480039 Si02
#       7
#    16  16   8  16  16  16  16
#     4  10  22  40  60  91 128 159 204 262 308 366
#     4  10  21  38  60  88 123 160 204 256 316 371
#     4  10  21  38  60  94 123 156 202 264 317 370
#     4  11  21  40  63  87 123 163 208 251 308 372
#     4  11  23  38  59  91 124 160 207 258 313 370
#     4   9  20  39  58  85 119 159 204 253 308 370
#     4  10  21  40  61  89 123 156 203 260 311 371
#
# _framework density 19.674042
#
# number of rings (size 3 to 8) (size 9 to 14) (size 15 to 20)
#    0.000    1.846    1.538    2.077    0.000    5.538 
#   11.077    0.000    0.000    2.769    0.000    0.000 
#    0.000    0.000    0.000    0.000    0.000    0.000 
#
# Total GULP energy -290296.716421 kJ/mol
# GULP energy per Si atom -5582.629162 kJ/mol
# Density = 1.962926 g / cm^3
# Si number density = 19.674042 Si / 1000 Ang^3
#
#
#
# Elastic Constant Matrix: (Units=GPa)
#
#
# Indices 1 2 3 4 5 6 
#
# 1 49.7710 40.9703 6.5301 0.0000 0.0000 0.0000
# 2 40.9703 97.3829 5.9950 0.0000 0.0000 0.0000
# 3 6.5301 5.9950 40.6934 0.0000 0.0000 0.0000
# 4 0.0000 0.0000 0.0000 34.4660 0.0000 0.0000
# 5 0.0000 0.0000 0.0000 0.0000 23.2073 0.0000
# 6 0.0000 0.0000 0.0000 0.0000 0.0000 41.9612
#
#
#
# Elastic Compliance Matrix: (Units=1/GPa)
#
#
# Indices 1 2 3 4 5 6 
#
# 1 0.031118 -0.012901 -0.003093 0.000000 0.000000 0.000000
# 2 -0.012901 0.015712 -0.000244 0.000000 0.000000 0.000000
# 3 -0.003093 -0.000244 0.025106 0.000000 0.000000 0.000000
# 4 0.000000 0.000000 0.000000 0.029014 0.000000 0.000000
# 5 0.000000 0.000000 0.000000 0.000000 0.043090 0.000000
# 6 0.000000 0.000000 0.000000 0.000000 0.000000 0.023832
#
#
# Mechanical properties :
#
#
# Convention : Reuss Voigt Hill
#
# Bulk Modulus (GPa) = 25.34298 32.75981 29.05139
# Shear Modulus (GPa) = 23.41905 28.88368 26.15137
#
# Velocity S-wave (km/s) = 3.45389 3.83575 3.64982
# Velocity P-wave (km/s) = 5.36798 6.02534 5.70614
#
# Compressibility (1/GPa) = 0.03945866
#
# Stress axis : x y z
#
# Youngs Moduli (GPa) = 32.13583 63.64743 39.83056
#
# Poissons Ratio (x) = 0.82114 0.12319
# Poissons Ratio (y) = 0.41460 0.00973
# Poissons Ratio (z) = 0.09939 0.01555
#
# Static dielectric constant tensor:
#      x y z
#    x 1.671690 0.000000 0.000000 
#    y 0.000000 1.678670 0.000000 
#    z 0.000000 0.000000 1.734440 
# 
# From -- ./inp_files/25645.got.cif
#   From: 2010.05.17/outbox.cif.g08.bks.cpg/sg64_13_cif.got.tgz:25645.got - 2010.06.03 16:29:19.
