data_PCOD9480384
_publ_section_title
;
Structure prediction by ZEFSAII (Michael W. Deem and Ramdas Pophale) SiO2 
 PCOD9480384
Probable space group: C M C A
;
_chemical_formula_sum "Si O2"
_cell_formula_units_Z 88
_cell_length_a 22.431935
_cell_length_b 36.639387
_cell_length_c 4.861905
_cell_angle_alpha 90.000000
_cell_angle_beta 90.000000
_cell_angle_gamma 90.000000
_cell_volume 3995.962514
_symmetry_space_group_name_H-M "C M C A"
_symmetry_group_IT_number 64
_symmetry_cell_setting 'orthorhombic'
loop_
_space_group_symop_operation_xyz
x,y,z
-x,1/2-y,1/2+z
x,-y,-z
-x,1/2+y,1/2-z
-x,-y,-z
x,1/2+y,1/2-z
-x,y,z
x,1/2-y,1/2+z
1/2+x,1/2+y,z
1/2-x,-y,1/2+z
1/2+x,1/2-y,-z
1/2-x,y,1/2-z
1/2-x,1/2-y,-z
1/2+x,y,1/2-z
1/2-x,1/2+y,z
1/2+x,-y,1/2+z
loop_
_atom_site_type_symbol
_atom_site_label
_atom_site_fract_x
_atom_site_fract_y
_atom_site_fract_z
Si Si1 0.114820 0.822450 0.264021
Si Si2 0.128750 0.900029 0.410530
Si Si3 0.178721 0.224095 0.270320
Si Si4 0.000000 0.724404 0.705600
Si Si5 0.309280 0.872471 0.571272
Si Si6 0.567477 0.974470 0.264719
O O1 0.091663 0.863415 0.339104
O O2 0.145447 0.805803 0.536783
O O3 0.164543 0.759770 0.032260
O O4 0.059001 0.799359 0.162671
O O5 0.146769 0.894579 0.725780
O O6 0.099198 0.937471 0.325118
O O7 0.186713 0.894292 0.215230
O O8 0.250000 0.218008 0.250000
O O9 0.164885 0.166508 0.964082
O O10 0.000000 0.759780 0.512911
O O11 0.250000 0.868110 0.750000
O O12 0.500000 0.965164 0.358532
O O13 0.595949 0.000000 0.500000
O O14 0.564216 0.000000 0.000000
#
# Coordination Sequence:
#
# PCOD9480384 Si02
#       6
#    16  16  16   8  16  16
#     4  10  26  42  71 100 136 183 234 295 348 433
#     4  10  23  39  68 100 135 176 229 288 343 422
#     4  10  22  41  62  91 130 174 228 295 358 418
#     4  12  28  46  72  96 140 189 228 287 364 442
#     4  10  23  43  65 100 134 180 231 296 344 403
#     4  10  21  40  68 103 143 184 224 283 348 413
#
# _framework density 22.022228999999999
#
# number of rings (size 3 to 8) (size 9 to 14) (size 15 to 20)
#    1.091    0.727    0.000    2.727    6.364    0.727 
#    8.182    0.000    0.000   14.182    0.000    0.000 
#    0.000    0.000    0.000    0.000    0.000    0.000 
#
# Total GULP energy -245261.108151 kJ/mol
# GULP energy per Si atom -5574.116094 kJ/mol
# Density = 2.197211 g / cm^3
# Si number density = 22.022229 Si / 1000 Ang^3
#
#
#
# Elastic Constant Matrix: (Units=GPa)
#
#
# Indices 1 2 3 4 5 6 
#
# 1 104.3561 56.9198 3.7658 0.0000 0.0000 0.0000
# 2 56.9198 146.2483 8.9344 0.0000 0.0000 0.0000
# 3 3.7658 8.9344 103.4592 0.0000 0.0000 0.0000
# 4 0.0000 0.0000 0.0000 29.2174 0.0000 0.0000
# 5 0.0000 0.0000 0.0000 0.0000 560.7435 0.0000
# 6 0.0000 0.0000 0.0000 0.0000 0.0000 32.5680
#
#
#
# Elastic Compliance Matrix: (Units=1/GPa)
#
#
# Indices 1 2 3 4 5 6 
#
# 1 0.012165 -0.004733 -0.000034 0.000000 0.000000 0.000000
# 2 -0.004733 0.008715 -0.000580 0.000000 0.000000 0.000000
# 3 -0.000034 -0.000580 0.009717 0.000000 0.000000 0.000000
# 4 0.000000 0.000000 0.000000 0.034226 0.000000 0.000000
# 5 0.000000 0.000000 0.000000 0.000000 0.001783 0.000000
# 6 0.000000 0.000000 0.000000 0.000000 0.000000 0.030705
#
#
# Mechanical properties :
#
#
# Convention : Reuss Voigt Hill
#
# Bulk Modulus (GPa) = 50.24334 54.81151 52.52743
# Shear Modulus (GPa) = 43.61474 143.46870 93.54172
#
# Velocity S-wave (km/s) = 4.45509 8.08014 6.52444
# Velocity P-wave (km/s) = 7.02340 10.58276 8.98117
#
# Compressibility (1/GPa) = 0.01990313
#
# Stress axis : x y z
#
# Youngs Moduli (GPa) = 82.20214 114.74396 102.91238
#
# Poissons Ratio (x) = 0.54303 0.00351
# Poissons Ratio (y) = 0.38903 0.05972
# Poissons Ratio (z) = 0.00280 0.06659
#
# Static dielectric constant tensor:
#      x y z
#    x 1.851900 0.000000 0.000000 
#    y 0.000000 1.804960 0.000000 
#    z 0.000000 0.000000 1.820740 
# 
# From -- ./inp_files/2416.got.cif
#   From: 2010.05.17/outbox.cif.g08.bks.cpg/sg64_2_cif.got.tgz:2416.got - 2010.06.03 16:29:19.
