data_PCOD9480022
_publ_section_title
;
Structure prediction by ZEFSAII (Michael W. Deem and Ramdas Pophale) SiO2 
 PCOD9480022
Probable space group: C M C A
;
_chemical_formula_sum "Si O2"
_cell_formula_units_Z 96
_cell_length_a 8.943263
_cell_length_b 19.905796
_cell_length_c 29.864035
_cell_angle_alpha 90.000000
_cell_angle_beta 90.000000
_cell_angle_gamma 90.000000
_cell_volume 5316.478200
_symmetry_space_group_name_H-M "C M C A"
_symmetry_group_IT_number 64
_symmetry_cell_setting 'orthorhombic'
loop_
_space_group_symop_operation_xyz
x,y,z
-x,1/2-y,1/2+z
x,-y,-z
-x,1/2+y,1/2-z
-x,-y,-z
x,1/2+y,1/2-z
-x,y,z
x,1/2-y,1/2+z
1/2+x,1/2+y,z
1/2-x,-y,1/2+z
1/2+x,1/2-y,-z
1/2-x,y,1/2-z
1/2-x,1/2-y,-z
1/2+x,y,1/2-z
1/2-x,1/2+y,z
1/2+x,-y,1/2+z
loop_
_atom_site_type_symbol
_atom_site_label
_atom_site_fract_x
_atom_site_fract_y
_atom_site_fract_z
Si Si1 0.179576 0.263776 0.798680
Si Si2 0.171261 0.434692 0.031388
Si Si3 0.319694 0.646144 0.123549
Si Si4 0.679245 0.891793 0.297801
Si Si5 0.678790 0.184835 0.477584
Si Si6 0.819587 0.511533 0.621288
O O1 0.250000 0.279102 0.750000
O O2 0.243495 0.311897 0.836993
O O3 0.218469 0.185641 0.809222
O O4 0.000000 0.269334 0.796269
O O5 0.243470 0.456177 0.078081
O O6 0.000000 0.411747 0.037575
O O7 0.170395 0.500000 0.000000
O O8 0.265582 0.378327 0.006210
O O9 0.500000 0.651244 0.127844
O O10 0.277103 0.674111 0.074415
O O11 0.280005 0.567073 0.125633
O O12 0.500000 0.894502 0.293843
O O13 0.750000 0.907850 0.250000
O O14 0.724534 0.944606 0.335644
O O15 0.500000 0.189049 0.479030
O O16 0.750000 0.250000 0.500000
O O17 0.000000 0.515133 0.616328
#
# Coordination Sequence:
#
# PCOD9480022 Si02
#       6
#    16  16  16  16  16  16
#     4  10  21  38  60  85 115 151 192 239 293 350
#     4  11  23  39  60  88 121 157 200 244 292 349
#     4  10  22  39  59  85 118 154 194 241 295 353
#     4   9  20  38  60  86 113 147 189 236 288 349
#     4  11  24  41  61  87 121 160 201 246 298 352
#     4  10  21  39  61  86 117 155 197 238 294 356
#
# _framework density 18.057065999999999
#
# number of rings (size 3 to 8) (size 9 to 14) (size 15 to 20)
#    0.000    1.833    1.667    1.500    2.333    4.667 
#    0.000    1.667    0.000    0.000    0.000    0.000 
#    0.000    0.000    0.000    0.000    0.000    0.000 
#
# Total GULP energy -268103.336750 kJ/mol
# GULP energy per Si atom -5585.486182 kJ/mol
# Density = 1.801597 g / cm^3
# Si number density = 18.057066 Si / 1000 Ang^3
#
#
#
# Elastic Constant Matrix: (Units=GPa)
#
#
# Indices 1 2 3 4 5 6 
#
# 1 48.8467 52.4547 65.0104 0.0000 0.0000 0.0000
# 2 52.4547 122.8625 112.8395 0.0000 0.0000 0.0000
# 3 65.0104 112.8395 190.1968 0.0000 0.0000 0.0000
# 4 0.0000 0.0000 0.0000 40.3949 0.0000 0.0000
# 5 0.0000 0.0000 0.0000 0.0000 35.2192 0.0000
# 6 0.0000 0.0000 0.0000 0.0000 0.0000 12.8189
#
#
#
# Elastic Compliance Matrix: (Units=1/GPa)
#
#
# Indices 1 2 3 4 5 6 
#
# 1 0.043145 -0.010714 -0.008391 0.000000 0.000000 0.000000
# 2 -0.010714 0.020544 -0.008526 0.000000 0.000000 0.000000
# 3 -0.008391 -0.008526 0.013184 0.000000 0.000000 0.000000
# 4 0.000000 0.000000 0.000000 0.024756 0.000000 0.000000
# 5 0.000000 0.000000 0.000000 0.000000 0.028394 0.000000
# 6 0.000000 0.000000 0.000000 0.000000 0.000000 0.078010
#
#
# Mechanical properties :
#
#
# Convention : Reuss Voigt Hill
#
# Bulk Modulus (GPa) = 46.27244 91.39060 68.83152
# Shear Modulus (GPa) = 18.48442 26.46001 22.47221
#
# Velocity S-wave (km/s) = 3.20295 3.83215 3.53159
# Velocity P-wave (km/s) = 6.27374 8.38466 7.40480
#
# Compressibility (1/GPa) = 0.02161114
#
# Stress axis : x y z
#
# Youngs Moduli (GPa) = 23.17771 48.67598 75.84824
#
# Poissons Ratio (x) = 0.52151 0.63644
# Poissons Ratio (y) = 0.24832 0.64670
# Poissons Ratio (z) = 0.19448 0.41502
#
# Static dielectric constant tensor:
#      x y z
#    x 1.609410 0.000000 0.000000 
#    y 0.000000 1.590970 0.000000 
#    z 0.000000 0.000000 1.581310 
# 
# From -- ./inp_files/48075.got.cif
#   From: 2010.05.17/outbox.cif.g08.bks.cpg/sg64_25_cif.got.tgz:48075.got - 2010.06.03 16:29:19.
