data_PCOD9480531
_publ_section_title
;
Structure prediction by ZEFSAII (Michael W. Deem and Ramdas Pophale) SiO2 
 PCOD9480531
Probable space group: C M C A
;
_chemical_formula_sum "Si O2"
_cell_formula_units_Z 80
_cell_length_a 12.875986
_cell_length_b 12.000475
_cell_length_c 19.019937
_cell_angle_alpha 90.000000
_cell_angle_beta 90.000000
_cell_angle_gamma 90.000000
_cell_volume 2938.921638
_symmetry_space_group_name_H-M "C M C A"
_symmetry_group_IT_number 64
_symmetry_cell_setting 'orthorhombic'
loop_
_space_group_symop_operation_xyz
x,y,z
-x,1/2-y,1/2+z
x,-y,-z
-x,1/2+y,1/2-z
-x,-y,-z
x,1/2+y,1/2-z
-x,y,z
x,1/2-y,1/2+z
1/2+x,1/2+y,z
1/2-x,-y,1/2+z
1/2+x,1/2-y,-z
1/2-x,y,1/2-z
1/2-x,1/2-y,-z
1/2+x,y,1/2-z
1/2-x,1/2+y,z
1/2+x,-y,1/2+z
loop_
_atom_site_type_symbol
_atom_site_label
_atom_site_fract_x
_atom_site_fract_y
_atom_site_fract_z
Si Si1 0.615466 0.366098 0.492493
Si Si2 0.121276 0.119861 0.041793
Si Si3 0.387312 0.140978 0.683191
Si Si4 0.209711 0.632323 0.169052
Si Si5 0.845603 0.592010 0.836891
O O1 0.655950 0.500000 0.500000
O O2 0.500000 0.375700 0.520956
O O3 0.797193 0.374225 0.607291
O O4 0.619966 0.356322 0.408299
O O5 0.143474 0.231812 0.994367
O O6 0.000000 0.127190 0.063343
O O7 0.129802 0.000000 0.000000
O O8 0.500000 0.098419 0.660269
O O9 0.358286 0.259904 0.654748
O O10 0.280222 0.077600 0.667445
O O11 0.250000 0.637568 0.250000
O O12 0.125527 0.535256 0.165765
O O13 0.385389 0.849007 0.232157
#
# Coordination Sequence:
#
# PCOD9480531 Si02
#       5
#    16  16  16  16  16
#     4  10  21  43  75 110 150 198 259 327 396 470
#     4  10  23  47  79 115 159 212 271 334 403 484
#     4  11  23  42  70 105 150 194 249 316 395 477
#     4  12  23  44  71 112 150 199 258 325 403 477
#     4  11  23  44  68 108 149 196 252 318 401 470
#
# _framework density 27.220867999999999
#
# number of rings (size 3 to 8) (size 9 to 14) (size 15 to 20)
#    0.000    1.200    6.000    0.600    0.000    5.600 
#    3.600    2.000    0.000    1.200    0.000    0.000 
#    0.000    0.000    0.000    0.000    0.000    0.000 
#
# Total GULP energy -222807.766716 kJ/mol
# GULP energy per Si atom -5570.194168 kJ/mol
# Density = 2.715891 g / cm^3
# Si number density = 27.220868 Si / 1000 Ang^3
#
#
#
# Elastic Constant Matrix: (Units=GPa)
#
#
# Indices 1 2 3 4 5 6 
#
# 1 193.3378 21.9730 32.4753 0.0000 0.0000 0.0000
# 2 21.9730 207.7905 55.5441 0.0000 0.0000 0.0000
# 3 32.4753 55.5441 163.4720 0.0000 0.0000 0.0000
# 4 0.0000 0.0000 0.0000 28.8069 0.0000 0.0000
# 5 0.0000 0.0000 0.0000 0.0000 -12.8677 0.0000
# 6 0.0000 0.0000 0.0000 0.0000 0.0000 -28.9464
#
#
#
# Elastic Compliance Matrix: (Units=1/GPa)
#
#
# Indices 1 2 3 4 5 6 
#
# 1 0.005369 -0.000311 -0.000961 0.000000 0.000000 0.000000
# 2 -0.000311 0.005311 -0.001743 0.000000 0.000000 0.000000
# 3 -0.000961 -0.001743 0.006900 0.000000 0.000000 0.000000
# 4 0.000000 0.000000 0.000000 0.034714 0.000000 0.000000
# 5 0.000000 0.000000 0.000000 0.000000 -0.077714 0.000000
# 6 0.000000 0.000000 0.000000 0.000000 0.000000 -0.034547
#
#
# Mechanical properties :
#
#
# Convention : Reuss Voigt Hill
#
# Bulk Modulus (GPa) = 86.57117 87.17610 86.87364
# Shear Modulus (GPa) = -99.82843 27.70576 -36.06134
#
# Velocity S-wave (km/s) = -6.06243 3.19378 -3.64369
# Velocity P-wave (km/s) = 4.13907 6.75983 3.77912
#
# Compressibility (1/GPa) = 0.01155119
#
# Stress axis : x y z
#
# Youngs Moduli (GPa) = 186.25286 188.27762 144.91990
#
# Poissons Ratio (x) = 0.05853 0.13927
# Poissons Ratio (y) = 0.05790 0.25258
# Poissons Ratio (z) = 0.17899 0.32815
#
# Static dielectric constant tensor:
#      x y z
#    x 2.260970 0.000000 0.000000 
#    y 0.000000 2.394080 0.000000 
#    z 0.000000 0.000000 2.173650 
# 
# From -- ./inp_files/52567.got.cif
#   From: 2010.05.17/outbox.cif.g08.bks.cpg/sg64_27_cif.got.tgz:52567.got - 2010.06.03 16:29:19.
