data_PCOD9480166
_publ_section_title
;
Structure prediction by ZEFSAII (Michael W. Deem and Ramdas Pophale) SiO2 
 PCOD9480166
Probable space group: C M C A
;
_chemical_formula_sum "Si O2"
_cell_formula_units_Z 116
_cell_length_a 15.703290
_cell_length_b 13.197811
_cell_length_c 25.018021
_cell_angle_alpha 90.000000
_cell_angle_beta 90.000000
_cell_angle_gamma 90.000000
_cell_volume 5184.961173
_symmetry_space_group_name_H-M "C M C A"
_symmetry_group_IT_number 64
_symmetry_cell_setting 'orthorhombic'
loop_
_space_group_symop_operation_xyz
x,y,z
-x,1/2-y,1/2+z
x,-y,-z
-x,1/2+y,1/2-z
-x,-y,-z
x,1/2+y,1/2-z
-x,y,z
x,1/2-y,1/2+z
1/2+x,1/2+y,z
1/2-x,-y,1/2+z
1/2+x,1/2-y,-z
1/2-x,y,1/2-z
1/2-x,1/2-y,-z
1/2+x,y,1/2-z
1/2-x,1/2+y,z
1/2+x,-y,1/2+z
loop_
_atom_site_type_symbol
_atom_site_label
_atom_site_fract_x
_atom_site_fract_y
_atom_site_fract_z
Si Si1 0.402778 0.241551 0.099834
Si Si2 0.500000 0.000000 0.500000
Si Si3 0.156201 0.867689 0.960696
Si Si4 0.902084 0.143654 0.793000
Si Si5 0.099620 0.557143 0.346617
Si Si6 0.834666 0.961169 0.551913
Si Si7 0.816685 0.263158 0.706167
Si Si8 0.275980 0.825069 0.089177
O O1 0.500000 0.266931 0.083391
O O2 0.400188 0.266807 0.163150
O O3 0.324267 0.307156 0.075301
O O4 0.380873 0.125814 0.085715
O O5 0.423762 0.913200 0.508096
O O6 0.166210 0.747872 0.948721
O O7 0.143205 0.916356 0.901764
O O8 0.250623 0.907373 0.973970
O O9 0.864823 0.045229 0.821653
O O10 0.856724 0.171666 0.738985
O O11 0.000000 0.120943 0.781188
O O12 0.115413 0.650259 0.307274
O O13 0.000000 0.541991 0.358812
O O14 0.807185 0.059870 0.585588
O O15 0.885504 0.000000 0.500000
O O16 0.750000 0.305484 0.750000
O O17 0.784179 0.221437 0.649277
#
# Coordination Sequence:
#
# PCOD9480166 Si02
#       8
#    16   4  16  16  16  16  16  16
#     4  10  22  43  68  96 134 173 224 275 328 407
#     4  12  20  44  64 104 116 168 232 268 340 408
#     4  10  22  39  65  93 129 165 215 279 331 397
#     4  10  21  39  61  93 123 168 216 265 331 395
#     4  10  21  39  60  87 131 161 206 278 327 381
#     4  11  24  45  67  95 136 177 222 282 341 397
#     4  11  22  38  61  92 122 172 212 265 325 411
#     4  10  23  45  64  94 135 173 222 274 340 396
#
# _framework density 22.372394
#
# number of rings (size 3 to 8) (size 9 to 14) (size 15 to 20)
#    0.000    1.655    2.759    1.241    0.000    4.138 
#    4.966    1.379    0.000    0.000    0.000    0.000 
#    0.000    0.000    0.000    0.000    0.000    0.000 
#
# Total GULP energy -323381.454291 kJ/mol
# GULP energy per Si atom -5575.542315 kJ/mol
# Density = 2.232147 g / cm^3
# Si number density = 22.372394 Si / 1000 Ang^3
#
#
#
# Elastic Constant Matrix: (Units=GPa)
#
#
# Indices 1 2 3 4 5 6 
#
# 1 90.1909 29.4878 23.5487 0.0000 0.0000 0.0000
# 2 29.4878 123.9485 48.3089 0.0000 0.0000 0.0000
# 3 23.5487 48.3089 65.1788 0.0000 0.0000 0.0000
# 4 0.0000 0.0000 0.0000 35.0192 0.0000 0.0000
# 5 0.0000 0.0000 0.0000 0.0000 20.7230 0.0000
# 6 0.0000 0.0000 0.0000 0.0000 0.0000 25.1978
#
#
#
# Elastic Compliance Matrix: (Units=1/GPa)
#
#
# Indices 1 2 3 4 5 6 
#
# 1 0.012494 -0.001706 -0.003250 0.000000 0.000000 0.000000
# 2 -0.001706 0.011578 -0.007965 0.000000 0.000000 0.000000
# 3 -0.003250 -0.007965 0.022420 0.000000 0.000000 0.000000
# 4 0.000000 0.000000 0.000000 0.028556 0.000000 0.000000
# 5 0.000000 0.000000 0.000000 0.000000 0.048256 0.000000
# 6 0.000000 0.000000 0.000000 0.000000 0.000000 0.039686
#
#
# Mechanical properties :
#
#
# Convention : Reuss Voigt Hill
#
# Bulk Modulus (GPa) = 48.42418 53.55655 50.99037
# Shear Modulus (GPa) = 25.54751 28.05286 26.80018
#
# Velocity S-wave (km/s) = 3.38290 3.54489 3.46484
# Velocity P-wave (km/s) = 6.07867 6.38323 6.23281
#
# Compressibility (1/GPa) = 0.02065084
#
# Stress axis : x y z
#
# Youngs Moduli (GPa) = 80.03990 86.37015 44.60297
#
# Poissons Ratio (x) = 0.14733 0.14494
# Poissons Ratio (y) = 0.13653 0.35527
# Poissons Ratio (z) = 0.26010 0.68795
#
# Static dielectric constant tensor:
#      x y z
#    x 1.814610 0.000000 0.000000 
#    y 0.000000 1.838070 0.000000 
#    z 0.000000 0.000000 1.869840 
# 
# From -- ./inp_files/50486.got.cif
#   From: 2010.05.17/outbox.cif.g08.bks.cpg/sg64_26_cif.got.tgz:50486.got - 2010.06.03 16:29:19.
