data_PCOD9480800
_publ_section_title
;
Structure prediction by ZEFSAII (Michael W. Deem and Ramdas Pophale) SiO2 
 PCOD9480800
Probable space group: C M C A
;
_chemical_formula_sum "Si O2"
_cell_formula_units_Z 112
_cell_length_a 15.260139
_cell_length_b 14.793252
_cell_length_c 24.451640
_cell_angle_alpha 90.000000
_cell_angle_beta 90.000000
_cell_angle_gamma 90.000000
_cell_volume 5519.886375
_symmetry_space_group_name_H-M "C M C A"
_symmetry_group_IT_number 64
_symmetry_cell_setting 'orthorhombic'
loop_
_space_group_symop_operation_xyz
x,y,z
-x,1/2-y,1/2+z
x,-y,-z
-x,1/2+y,1/2-z
-x,-y,-z
x,1/2+y,1/2-z
-x,y,z
x,1/2-y,1/2+z
1/2+x,1/2+y,z
1/2-x,-y,1/2+z
1/2+x,1/2-y,-z
1/2-x,y,1/2-z
1/2-x,1/2-y,-z
1/2+x,y,1/2-z
1/2-x,1/2+y,z
1/2+x,-y,1/2+z
loop_
_atom_site_type_symbol
_atom_site_label
_atom_site_fract_x
_atom_site_fract_y
_atom_site_fract_z
Si Si1 0.104953 0.443503 0.388270
Si Si2 0.761050 0.897590 0.014495
Si Si3 0.901299 0.960533 0.322188
Si Si4 0.399482 0.835051 0.079307
Si Si5 0.165843 0.351685 0.602951
Si Si6 0.691792 0.850310 0.803629
Si Si7 0.152658 0.657024 0.723150
O O1 0.163393 0.405404 0.438802
O O2 0.122070 0.551513 0.384576
O O3 0.140613 0.398399 0.332672
O O4 0.000000 0.427398 0.394719
O O5 0.674543 0.845320 0.033539
O O6 0.799721 0.858384 0.958870
O O7 0.734124 0.000000 0.000000
O O8 0.867632 0.904698 0.374004
O O9 0.900404 0.894502 0.270027
O O10 0.000000 0.984962 0.335517
O O11 0.852696 0.053601 0.312182
O O12 0.500000 0.854566 0.062773
O O13 0.396243 0.735046 0.104778
O O14 0.245243 0.333367 0.644688
O O15 0.750000 0.860857 0.750000
O O16 0.633178 0.761560 0.791580
O O17 0.250000 0.656010 0.750000
#
# Coordination Sequence:
#
# PCOD9480800 Si02
#       7
#    16  16  16  16  16  16  16
#     4  11  23  39  63  93 125 163 207 257 312 369
#     4  10  22  40  62  87 123 164 207 258 311 367
#     4  11  23  38  58  87 122 157 198 251 306 364
#     4  11  23  40  62  90 125 164 207 254 308 374
#     4  11  22  39  63  91 122 159 205 256 311 369
#     4  11  23  40  64  87 116 159 202 248 307 369
#     4  11  22  39  62  88 121 160 206 254 308 368
#
# _framework density 20.290272999999999
#
# number of rings (size 3 to 8) (size 9 to 14) (size 15 to 20)
#    0.000    1.143    0.000    8.571    0.000    4.571 
#    0.000    2.857    0.000    0.000    0.000    0.000 
#    0.000    0.000    0.000    0.000    0.000    0.000 
#
# Total GULP energy -312787.483553 kJ/mol
# GULP energy per Si atom -5585.490778 kJ/mol
# Density = 2.024409 g / cm^3
# Si number density = 20.290273 Si / 1000 Ang^3
#
#
#
# Elastic Constant Matrix: (Units=GPa)
#
#
# Indices 1 2 3 4 5 6 
#
# 1 71.4623 43.4174 8.3192 0.0000 0.0000 0.0000
# 2 43.4174 132.0407 26.6003 0.0000 0.0000 0.0000
# 3 8.3192 26.6003 60.6093 0.0000 0.0000 0.0000
# 4 0.0000 0.0000 0.0000 64.1888 0.0000 0.0000
# 5 0.0000 0.0000 0.0000 0.0000 0.6185 0.0000
# 6 0.0000 0.0000 0.0000 0.0000 0.0000 20.8803
#
#
#
# Elastic Compliance Matrix: (Units=1/GPa)
#
#
# Indices 1 2 3 4 5 6 
#
# 1 0.017488 -0.005778 0.000135 0.000000 0.000000 0.000000
# 2 -0.005778 0.010217 -0.003691 0.000000 0.000000 0.000000
# 3 0.000135 -0.003691 0.018100 0.000000 0.000000 0.000000
# 4 0.000000 0.000000 0.000000 0.015579 0.000000 0.000000
# 5 0.000000 0.000000 0.000000 0.000000 1.616889 0.000000
# 6 0.000000 0.000000 0.000000 0.000000 0.000000 0.047892
#
#
# Mechanical properties :
#
#
# Convention : Reuss Voigt Hill
#
# Bulk Modulus (GPa) = 36.84787 46.75402 41.80095
# Shear Modulus (GPa) = 2.85083 29.52255 16.18669
#
# Velocity S-wave (km/s) = 1.18662 3.81860 2.82752
# Velocity P-wave (km/s) = 4.48076 6.52187 5.59518
#
# Compressibility (1/GPa) = 0.02713861
#
# Stress axis : x y z
#
# Youngs Moduli (GPa) = 57.18257 97.87845 55.24737
#
# Poissons Ratio (x) = 0.56550 -0.00747
# Poissons Ratio (y) = 0.33038 0.20391
# Poissons Ratio (z) = -0.00774 0.36126
#
# Static dielectric constant tensor:
#      x y z
#    x 1.742190 0.000000 0.000000 
#    y 0.000000 1.762500 0.000000 
#    z 0.000000 0.000000 1.703760 
# 
# From -- ./inp_files/45216.got.cif
#   From: 2010.05.17/outbox.cif.g08.bks.cpg/sg64_23_cif.got.tgz:45216.got - 2010.06.03 16:29:19.
