data_PCOD9480778
_publ_section_title
;
Structure prediction by ZEFSAII (Michael W. Deem and Ramdas Pophale) SiO2 
 PCOD9480778
Probable space group: C M C A
;
_chemical_formula_sum "Si O2"
_cell_formula_units_Z 64
_cell_length_a 8.809285
_cell_length_b 10.396557
_cell_length_c 35.976468
_cell_angle_alpha 90.000000
_cell_angle_beta 90.000000
_cell_angle_gamma 90.000000
_cell_volume 3294.949203
_symmetry_space_group_name_H-M "C M C A"
_symmetry_group_IT_number 64
_symmetry_cell_setting 'orthorhombic'
loop_
_space_group_symop_operation_xyz
x,y,z
-x,1/2-y,1/2+z
x,-y,-z
-x,1/2+y,1/2-z
-x,-y,-z
x,1/2+y,1/2-z
-x,y,z
x,1/2-y,1/2+z
1/2+x,1/2+y,z
1/2-x,-y,1/2+z
1/2+x,1/2-y,-z
1/2-x,y,1/2-z
1/2-x,1/2-y,-z
1/2+x,y,1/2-z
1/2-x,1/2+y,z
1/2+x,-y,1/2+z
loop_
_atom_site_type_symbol
_atom_site_label
_atom_site_fract_x
_atom_site_fract_y
_atom_site_fract_z
Si Si1 0.182767 0.517733 0.167005
Si Si2 0.681869 0.776140 0.290755
Si Si3 0.183023 0.960515 0.418118
Si Si4 0.818110 0.220572 0.459730
O O1 0.256712 0.407899 0.192064
O O2 0.225656 0.657693 0.182462
O O3 0.225004 0.496376 0.124064
O O4 0.000000 0.507164 0.169615
O O5 0.500000 0.780703 0.288307
O O6 0.750000 0.755183 0.250000
O O7 0.225869 0.079563 0.444757
O O8 0.259802 0.829979 0.431724
O O9 0.000000 0.945984 0.419898
O O10 0.750000 0.250000 0.500000
O O11 0.000000 0.224495 0.461636
#
# Coordination Sequence:
#
# PCOD9480778 Si02
#       4
#    16  16  16  16
#     4  10  22  40  61  86 116 151 192 238 288 341
#     4  11  23  39  60  87 118 153 194 238 286 342
#     4  10  22  40  60  85 118 152 190 239 289 339
#     4  11  23  39  60  87 118 153 194 238 286 342
#
# _framework density 19.423670000000001
#
# number of rings (size 3 to 8) (size 9 to 14) (size 15 to 20)
#    0.000    1.500    0.000    4.500    0.000   12.000 
#    0.000    0.000    0.000    0.000    0.000    0.000 
#    0.000    0.000    0.000    0.000    0.000    0.000 
#
# Total GULP energy -178985.376771 kJ/mol
# GULP energy per Si atom -5593.293024 kJ/mol
# Density = 1.937946 g / cm^3
# Si number density = 19.423670 Si / 1000 Ang^3
#
#
#
# Elastic Constant Matrix: (Units=GPa)
#
#
# Indices 1 2 3 4 5 6 
#
# 1 11.9766 5.3630 1.5735 0.0000 0.0000 0.0000
# 2 5.3630 54.2735 -35.4439 0.0000 0.0000 0.0000
# 3 1.5735 -35.4439 45.5485 0.0000 0.0000 0.0000
# 4 0.0000 0.0000 0.0000 43.7343 0.0000 0.0000
# 5 0.0000 0.0000 0.0000 0.0000 32.4221 0.0000
# 6 0.0000 0.0000 0.0000 0.0000 0.0000 33.3080
#
#
#
# Elastic Compliance Matrix: (Units=1/GPa)
#
#
# Indices 1 2 3 4 5 6 
#
# 1 0.097120 -0.023968 -0.022006 0.000000 0.000000 0.000000
# 2 -0.023968 0.043379 0.034584 0.000000 0.000000 0.000000
# 3 -0.022006 0.034584 0.049626 0.000000 0.000000 0.000000
# 4 0.000000 0.000000 0.000000 0.022865 0.000000 0.000000
# 5 0.000000 0.000000 0.000000 0.000000 0.030843 0.000000
# 6 0.000000 0.000000 0.000000 0.000000 0.000000 0.030023
#
#
# Mechanical properties :
#
#
# Convention : Reuss Voigt Hill
#
# Bulk Modulus (GPa) = 5.97574 6.08709 6.03142
# Shear Modulus (GPa) = 14.18762 31.24662 22.71712
#
# Velocity S-wave (km/s) = 2.70558 4.01520 3.42359
# Velocity P-wave (km/s) = 3.58377 4.96351 4.32896
#
# Compressibility (1/GPa) = 0.16734330
#
# Stress axis : x y z
#
# Youngs Moduli (GPa) = 10.29652 23.05268 20.15058
#
# Poissons Ratio (x) = 0.55254 0.44344
# Poissons Ratio (y) = 0.24679 -0.69688
# Poissons Ratio (z) = 0.22659 -0.79725
#
# Static dielectric constant tensor:
#      x y z
#    x 1.651490 0.000000 0.000000 
#    y 0.000000 1.642080 0.000000 
#    z 0.000000 0.000000 1.657280 
# 
# From -- ./inp_files/49013.got.cif
#   From: 2010.05.17/outbox.cif.g08.bks.cpg/sg64_25_cif.got.tgz:49013.got - 2010.06.03 16:29:19.
