data_PCOD9480189
_publ_section_title
;
Structure prediction by ZEFSAII (Michael W. Deem and Ramdas Pophale) SiO2 
 PCOD9480189
Probable space group: C M C A
;
_chemical_formula_sum "Si O2"
_cell_formula_units_Z 64
_cell_length_a 11.037334
_cell_length_b 13.353835
_cell_length_c 18.759116
_cell_angle_alpha 90.000000
_cell_angle_beta 90.000000
_cell_angle_gamma 90.000000
_cell_volume 2764.919934
_symmetry_space_group_name_H-M "C M C A"
_symmetry_group_IT_number 64
_symmetry_cell_setting 'orthorhombic'
loop_
_space_group_symop_operation_xyz
x,y,z
-x,1/2-y,1/2+z
x,-y,-z
-x,1/2+y,1/2-z
-x,-y,-z
x,1/2+y,1/2-z
-x,y,z
x,1/2-y,1/2+z
1/2+x,1/2+y,z
1/2-x,-y,1/2+z
1/2+x,1/2-y,-z
1/2-x,y,1/2-z
1/2-x,1/2-y,-z
1/2+x,y,1/2-z
1/2-x,1/2+y,z
1/2+x,-y,1/2+z
loop_
_atom_site_type_symbol
_atom_site_label
_atom_site_fract_x
_atom_site_fract_y
_atom_site_fract_z
Si Si1 0.288472 0.532910 0.170838
Si Si2 0.365368 0.132291 0.056067
Si Si3 0.780895 0.851446 0.083366
Si Si4 0.367130 0.248027 0.800682
O O1 0.250000 0.501416 0.250000
O O2 0.172312 0.568621 0.124812
O O3 0.342258 0.441255 0.126377
O O4 0.364749 0.634607 0.177987
O O5 0.500000 0.108654 0.032152
O O6 0.356616 0.249864 0.075908
O O7 0.267183 0.117102 0.993935
O O8 0.664124 0.817747 0.130236
O O9 0.500000 0.223364 0.770951
O O10 0.250000 0.236013 0.750000
#
# Coordination Sequence:
#
# PCOD9480189 Si02
#       4
#    16  16  16  16
#     4  10  22  38  58  89 123 159 202 251 306 366
#     4  10  22  40  62  89 121 158 205 258 307 363
#     4  10  21  39  62  89 121 161 207 255 313 371
#     4  10  22  40  61  90 129 168 211 263 313 368
#
# _framework density 23.147144000000001
#
# number of rings (size 3 to 8) (size 9 to 14) (size 15 to 20)
#    0.000    2.000    0.000    2.250    0.000   14.000 
#    0.000    5.000    0.000    9.000    0.000    0.000 
#    0.000    0.000    0.000    0.000    0.000    0.000 
#
# Total GULP energy -178856.393212 kJ/mol
# GULP energy per Si atom -5589.262288 kJ/mol
# Density = 2.309446 g / cm^3
# Si number density = 23.147144 Si / 1000 Ang^3
#
#
#
# Elastic Constant Matrix: (Units=GPa)
#
#
# Indices 1 2 3 4 5 6 
#
# 1 105.2661 8.4056 18.4314 0.0000 0.0000 0.0000
# 2 8.4056 113.7995 43.1999 0.0000 0.0000 0.0000
# 3 18.4314 43.1999 128.8490 0.0000 0.0000 0.0000
# 4 0.0000 0.0000 0.0000 44.3706 0.0000 0.0000
# 5 0.0000 0.0000 0.0000 0.0000 12.2948 0.0000
# 6 0.0000 0.0000 0.0000 0.0000 0.0000 -26.2095
#
#
#
# Elastic Compliance Matrix: (Units=1/GPa)
#
#
# Indices 1 2 3 4 5 6 
#
# 1 0.009749 -0.000218 -0.001321 0.000000 0.000000 0.000000
# 2 -0.000218 0.010074 -0.003346 0.000000 0.000000 0.000000
# 3 -0.001321 -0.003346 0.009072 0.000000 0.000000 0.000000
# 4 0.000000 0.000000 0.000000 0.022537 0.000000 0.000000
# 5 0.000000 0.000000 0.000000 0.000000 0.081335 0.000000
# 6 0.000000 0.000000 0.000000 0.000000 0.000000 -0.038154
#
#
# Mechanical properties :
#
#
# Convention : Reuss Voigt Hill
#
# Bulk Modulus (GPa) = 52.29494 54.22093 53.25794
# Shear Modulus (GPa) = 45.14316 24.61637 34.87977
#
# Velocity S-wave (km/s) = 4.42098 3.26463 3.88606
# Velocity P-wave (km/s) = 6.97864 6.13887 6.57218
#
# Compressibility (1/GPa) = 0.01912231
#
# Stress axis : x y z
#
# Youngs Moduli (GPa) = 102.57964 99.26741 110.23015
#
# Poissons Ratio (x) = 0.02169 0.14564
# Poissons Ratio (y) = 0.02241 0.36886
# Poissons Ratio (z) = 0.13553 0.33217
#
# Static dielectric constant tensor:
#      x y z
#    x 1.833450 0.000000 0.000000 
#    y 0.000000 1.905940 0.000000 
#    z 0.000000 0.000000 1.876440 
# 
# From -- ./inp_files/37805.got.cif
#   From: 2010.05.17/outbox.cif.g08.bks.cpg/sg64_19_cif.got.tgz:37805.got - 2010.06.03 16:29:19.
