data_PCOD9480854
_publ_section_title
;
Structure prediction by ZEFSAII (Michael W. Deem and Ramdas Pophale) SiO2 
 PCOD9480854
Probable space group: C M C A
;
_chemical_formula_sum "Si O2"
_cell_formula_units_Z 80
_cell_length_a 17.055037
_cell_length_b 26.971304
_cell_length_c 7.564546
_cell_angle_alpha 90.000000
_cell_angle_beta 90.000000
_cell_angle_gamma 90.000000
_cell_volume 3479.665347
_symmetry_space_group_name_H-M "C M C A"
_symmetry_group_IT_number 64
_symmetry_cell_setting 'orthorhombic'
loop_
_space_group_symop_operation_xyz
x,y,z
-x,1/2-y,1/2+z
x,-y,-z
-x,1/2+y,1/2-z
-x,-y,-z
x,1/2+y,1/2-z
-x,y,z
x,1/2-y,1/2+z
1/2+x,1/2+y,z
1/2-x,-y,1/2+z
1/2+x,1/2-y,-z
1/2-x,y,1/2-z
1/2-x,1/2-y,-z
1/2+x,y,1/2-z
1/2-x,1/2+y,z
1/2+x,-y,1/2+z
loop_
_atom_site_type_symbol
_atom_site_label
_atom_site_fract_x
_atom_site_fract_y
_atom_site_fract_z
Si Si1 0.744054 0.609581 0.536672
Si Si2 0.414861 0.557616 0.545932
Si Si3 0.088734 0.297119 0.544465
Si Si4 0.913089 0.594730 0.555287
Si Si5 0.683440 0.790788 0.871606
O O1 0.750000 0.608256 0.750000
O O2 0.665518 0.581403 0.478597
O O3 0.826959 0.586623 0.469673
O O4 0.727720 0.665860 0.475924
O O5 0.413752 0.500000 0.500000
O O6 0.500000 0.578212 0.484405
O O7 0.413620 0.566924 0.757577
O O8 0.090239 0.345315 0.418976
O O9 0.121168 0.313742 0.734520
O O10 0.138483 0.251113 0.476854
O O11 0.000000 0.280290 0.562888
O O12 0.000000 0.584869 0.471801
O O13 0.750000 0.766171 0.750000
#
# Coordination Sequence:
#
# PCOD9480854 Si02
#       5
#    16  16  16  16  16
#     4  10  22  40  66  95 131 179 219 278 344 402
#     4   9  19  37  66  99 125 162 219 276 337 409
#     4  11  25  41  61  92 133 181 231 286 342 399
#     4   9  19  38  63  91 129 171 217 272 333 399
#     4  12  25  39  61  92 131 178 235 279 334 408
#
# _framework density 22.990718000000001
#
# number of rings (size 3 to 8) (size 9 to 14) (size 15 to 20)
#    0.000    1.800    2.000    1.200    5.600    1.600 
#    0.000    3.000    0.000    0.600    0.000    0.000 
#    0.000    0.000    0.000    0.000    0.000    0.000 
#
# Total GULP energy -223137.545228 kJ/mol
# GULP energy per Si atom -5578.438631 kJ/mol
# Density = 2.293839 g / cm^3
# Si number density = 22.990718 Si / 1000 Ang^3
#
#
#
# Elastic Constant Matrix: (Units=GPa)
#
#
# Indices 1 2 3 4 5 6 
#
# 1 259.5143 41.2055 29.8879 0.0000 0.0000 0.0000
# 2 41.2055 64.6085 35.3831 0.0000 0.0000 0.0000
# 3 29.8879 35.3831 64.9211 0.0000 0.0000 0.0000
# 4 0.0000 0.0000 0.0000 27.7369 0.0000 0.0000
# 5 0.0000 0.0000 0.0000 0.0000 10.0450 0.0000
# 6 0.0000 0.0000 0.0000 0.0000 0.0000 11.1506
#
#
#
# Elastic Compliance Matrix: (Units=1/GPa)
#
#
# Indices 1 2 3 4 5 6 
#
# 1 0.004309 -0.002369 -0.000693 0.000000 0.000000 0.000000
# 2 -0.002369 0.023366 -0.011644 0.000000 0.000000 0.000000
# 3 -0.000693 -0.011644 0.022068 0.000000 0.000000 0.000000
# 4 0.000000 0.000000 0.000000 0.036053 0.000000 0.000000
# 5 0.000000 0.000000 0.000000 0.000000 0.099552 0.000000
# 6 0.000000 0.000000 0.000000 0.000000 0.000000 0.089681
#
#
# Mechanical properties :
#
#
# Convention : Reuss Voigt Hill
#
# Bulk Modulus (GPa) = 49.18400 66.88855 58.03628
# Shear Modulus (GPa) = 16.06589 28.62432 22.34510
#
# Velocity S-wave (km/s) = 2.64635 3.53234 3.12094
# Velocity P-wave (km/s) = 5.54770 6.76708 6.18750
#
# Compressibility (1/GPa) = 0.02033182
#
# Stress axis : x y z
#
# Youngs Moduli (GPa) = 232.05755 42.79801 45.31362
#
# Poissons Ratio (x) = 0.10139 0.03139
# Poissons Ratio (y) = 0.54973 0.52763
# Poissons Ratio (z) = 0.16076 0.49834
#
# Static dielectric constant tensor:
#      x y z
#    x 1.967910 0.000000 0.000000 
#    y 0.000000 1.808860 0.000000 
#    z 0.000000 0.000000 1.896190 
# 
# From -- ./inp_files/7118.got.cif
#   From: 2010.05.17/outbox.cif.g08.bks.cpg/sg64_4_cif.got.tgz:7118.got - 2010.06.03 16:29:19.
