data_PCOD9480249
_publ_section_title
;
Structure prediction by ZEFSAII (Michael W. Deem and Ramdas Pophale) SiO2 
 PCOD9480249
Probable space group: C M C A
;
_chemical_formula_sum "Si O2"
_cell_formula_units_Z 88
_cell_length_a 15.347540
_cell_length_b 24.504211
_cell_length_c 10.158731
_cell_angle_alpha 90.000000
_cell_angle_beta 90.000000
_cell_angle_gamma 90.000000
_cell_volume 3820.489038
_symmetry_space_group_name_H-M "C M C A"
_symmetry_group_IT_number 64
_symmetry_cell_setting 'orthorhombic'
loop_
_space_group_symop_operation_xyz
x,y,z
-x,1/2-y,1/2+z
x,-y,-z
-x,1/2+y,1/2-z
-x,-y,-z
x,1/2+y,1/2-z
-x,y,z
x,1/2-y,1/2+z
1/2+x,1/2+y,z
1/2-x,-y,1/2+z
1/2+x,1/2-y,-z
1/2-x,y,1/2-z
1/2-x,1/2-y,-z
1/2+x,y,1/2-z
1/2-x,1/2+y,z
1/2+x,-y,1/2+z
loop_
_atom_site_type_symbol
_atom_site_label
_atom_site_fract_x
_atom_site_fract_y
_atom_site_fract_z
Si Si1 0.000000 0.809601 0.178586
Si Si2 0.750000 0.959665 0.250000
Si Si3 0.102021 0.532576 0.361575
Si Si4 0.500000 0.704333 0.138983
Si Si5 0.844089 0.676017 0.183546
Si Si6 0.753258 0.390610 0.517577
Si Si7 0.323077 0.297729 0.140561
O O1 0.904362 0.834143 0.191632
O O2 0.000000 0.764325 0.294581
O O3 0.000000 0.797039 0.018864
O O4 0.743129 0.923892 0.117412
O O5 0.838536 0.995558 0.235556
O O6 0.095063 0.500000 0.500000
O O7 0.171113 0.580442 0.398394
O O8 0.000000 0.544888 0.324449
O O9 0.582371 0.676063 0.206386
O O10 0.750000 0.676707 0.250000
O O11 0.854827 0.735822 0.114384
O O12 0.837368 0.622833 0.091581
O O13 0.784087 0.329731 0.479751
O O14 0.250000 0.294328 0.250000
#
# Coordination Sequence:
#
# PCOD9480249 Si02
#       7
#     8   8  16   8  16  16  16
#     4  10  22  40  64  94 135 188 232 279 327 397
#     4  10  22  44  64  98 136 160 232 294 354 410
#     4   9  21  42  69  93 122 164 215 281 347 407
#     4  10  22  42  62  92 137 187 235 276 332 397
#     4  10  22  39  62  93 139 182 222 271 328 411
#     4  11  21  39  67  98 132 176 222 281 348 417
#     4  10  21  39  64  98 139 179 227 276 337 409
#
# _framework density 23.033698999999999
#
# number of rings (size 3 to 8) (size 9 to 14) (size 15 to 20)
#    0.000    2.000    0.909    1.636    2.545    7.273 
#    3.273    0.000    0.000    1.636    0.000    0.000 
#    0.000    0.000    0.000    0.000    0.000    0.000 
#
# Total GULP energy -245231.249556 kJ/mol
# GULP energy per Si atom -5573.437490 kJ/mol
# Density = 2.298127 g / cm^3
# Si number density = 23.033699 Si / 1000 Ang^3
#
#
#
# Elastic Constant Matrix: (Units=GPa)
#
#
# Indices 1 2 3 4 5 6 
#
# 1 145.3352 18.1867 38.9875 0.0000 0.0000 0.0000
# 2 18.1867 81.4817 48.5034 0.0000 0.0000 0.0000
# 3 38.9875 48.5034 92.8369 0.0000 0.0000 0.0000
# 4 0.0000 0.0000 0.0000 21.5544 0.0000 0.0000
# 5 0.0000 0.0000 0.0000 0.0000 41.7089 0.0000
# 6 0.0000 0.0000 0.0000 0.0000 0.0000 45.0282
#
#
#
# Elastic Compliance Matrix: (Units=1/GPa)
#
#
# Indices 1 2 3 4 5 6 
#
# 1 0.007759 0.000302 -0.003416 0.000000 0.000000 0.000000
# 2 0.000302 0.017824 -0.009439 0.000000 0.000000 0.000000
# 3 -0.003416 -0.009439 0.017138 0.000000 0.000000 0.000000
# 4 0.000000 0.000000 0.000000 0.046394 0.000000 0.000000
# 5 0.000000 0.000000 0.000000 0.000000 0.023976 0.000000
# 6 0.000000 0.000000 0.000000 0.000000 0.000000 0.022208
#
#
# Mechanical properties :
#
#
# Convention : Reuss Voigt Hill
#
# Bulk Modulus (GPa) = 56.77289 59.00102 57.88695
# Shear Modulus (GPa) = 30.07015 35.92339 32.99677
#
# Velocity S-wave (km/s) = 3.61707 3.95346 3.78900
# Velocity P-wave (km/s) = 6.49196 6.81986 6.65793
#
# Compressibility (1/GPa) = 0.01761404
#
# Stress axis : x y z
#
# Youngs Moduli (GPa) = 128.87731 56.10369 58.35074
#
# Poissons Ratio (x) = -0.01692 0.19934
# Poissons Ratio (y) = -0.03888 0.55078
# Poissons Ratio (z) = 0.44027 0.52957
#
# Static dielectric constant tensor:
#      x y z
#    x 1.943460 0.000000 0.000000 
#    y 0.000000 1.971240 0.000000 
#    z 0.000000 0.000000 1.899930 
# 
# From -- ./inp_files/14801.got.cif
#   From: 2010.05.17/outbox.cif.g08.bks.cpg/sg64_8_cif.got.tgz:14801.got - 2010.06.03 16:29:19.
