data_PCOD9480824
_publ_section_title
;
Structure prediction by ZEFSAII (Michael W. Deem and Ramdas Pophale) SiO2 
 PCOD9480824
Probable space group: C M C A
;
_chemical_formula_sum "Si O2"
_cell_formula_units_Z 64
_cell_length_a 11.340186
_cell_length_b 9.639743
_cell_length_c 26.359572
_cell_angle_alpha 90.000000
_cell_angle_beta 90.000000
_cell_angle_gamma 90.000000
_cell_volume 2881.535589
_symmetry_space_group_name_H-M "C M C A"
_symmetry_group_IT_number 64
_symmetry_cell_setting 'orthorhombic'
loop_
_space_group_symop_operation_xyz
x,y,z
-x,1/2-y,1/2+z
x,-y,-z
-x,1/2+y,1/2-z
-x,-y,-z
x,1/2+y,1/2-z
-x,y,z
x,1/2-y,1/2+z
1/2+x,1/2+y,z
1/2-x,-y,1/2+z
1/2+x,1/2-y,-z
1/2-x,y,1/2-z
1/2-x,1/2-y,-z
1/2+x,y,1/2-z
1/2-x,1/2+y,z
1/2+x,-y,1/2+z
loop_
_atom_site_type_symbol
_atom_site_label
_atom_site_fract_x
_atom_site_fract_y
_atom_site_fract_z
Si Si1 0.372845 0.320903 0.739230
Si Si2 0.200153 0.355927 0.869137
Si Si3 0.865661 0.339178 0.983281
Si Si4 0.632419 0.853325 0.161764
O O1 0.500000 0.389693 0.748540
O O2 0.250000 0.399834 0.750000
O O3 0.364983 0.288000 0.679713
O O4 0.366124 0.195155 0.779497
O O5 0.137949 0.337118 0.922186
O O6 0.325538 0.280003 0.869191
O O7 0.209757 0.516786 0.854543
O O8 0.000000 0.296223 0.999826
O O9 0.850094 0.500000 0.000000
O O10 0.750000 0.250000 0.000000
O O11 0.500000 0.895181 0.149178
#
# Coordination Sequence:
#
# PCOD9480824 Si02
#       4
#    16  16  16  16
#     4   9  19  34  57  90 125 163 206 250 304 376
#     4  11  22  41  67  93 128 174 217 264 326 388
#     4  11  25  45  69  96 128 170 222 279 334 387
#     4  10  22  40  63  95 134 172 212 260 317 389
#
# _framework density 22.210379
#
# number of rings (size 3 to 8) (size 9 to 14) (size 15 to 20)
#    0.000    1.750    0.000    3.750    0.000   12.500 
#    0.000   15.000    0.000    0.000    0.000    0.000 
#    0.000    0.000    0.000    0.000    0.000    0.000 
#
# Total GULP energy -178297.506558 kJ/mol
# GULP energy per Si atom -5571.797080 kJ/mol
# Density = 2.215983 g / cm^3
# Si number density = 22.210379 Si / 1000 Ang^3
#
#
#
# Elastic Constant Matrix: (Units=GPa)
#
#
# Indices 1 2 3 4 5 6 
#
# 1 160.9488 56.3501 44.5622 0.0000 0.0000 0.0000
# 2 56.3501 107.7617 24.3559 0.0000 0.0000 0.0000
# 3 44.5622 24.3559 108.8484 0.0000 0.0000 0.0000
# 4 0.0000 0.0000 0.0000 27.1030 0.0000 0.0000
# 5 0.0000 0.0000 0.0000 0.0000 17.9867 0.0000
# 6 0.0000 0.0000 0.0000 0.0000 0.0000 7.2317
#
#
#
# Elastic Compliance Matrix: (Units=1/GPa)
#
#
# Indices 1 2 3 4 5 6 
#
# 1 0.008218 -0.003725 -0.002531 0.000000 0.000000 0.000000
# 2 -0.003725 0.011463 -0.001040 0.000000 0.000000 0.000000
# 3 -0.002531 -0.001040 0.010456 0.000000 0.000000 0.000000
# 4 0.000000 0.000000 0.000000 0.036896 0.000000 0.000000
# 5 0.000000 0.000000 0.000000 0.000000 0.055597 0.000000
# 6 0.000000 0.000000 0.000000 0.000000 0.000000 0.138280
#
#
# Mechanical properties :
#
#
# Convention : Reuss Voigt Hill
#
# Bulk Modulus (GPa) = 64.33026 69.78836 67.05931
# Shear Modulus (GPa) = 17.81363 27.28365 22.54864
#
# Velocity S-wave (km/s) = 2.83510 3.50868 3.18972
# Velocity P-wave (km/s) = 6.30429 6.92129 6.61998
#
# Compressibility (1/GPa) = 0.01554478
#
# Stress axis : x y z
#
# Youngs Moduli (GPa) = 121.68132 87.23877 95.63989
#
# Poissons Ratio (x) = 0.32500 0.24206
# Poissons Ratio (y) = 0.45331 0.09944
# Poissons Ratio (z) = 0.30796 0.09071
#
# Static dielectric constant tensor:
#      x y z
#    x 1.921350 0.000000 0.000000 
#    y 0.000000 1.838390 0.000000 
#    z 0.000000 0.000000 1.848910 
# 
# From -- ./inp_files/49019.got.cif
#   From: 2010.05.17/outbox.cif.g08.bks.cpg/sg64_25_cif.got.tgz:49019.got - 2010.06.03 16:29:19.
