data_PCOD9480848
_publ_section_title
;
Structure prediction by ZEFSAII (Michael W. Deem and Ramdas Pophale) SiO2 
 PCOD9480848
Probable space group: C M C A
;
_chemical_formula_sum "Si O2"
_cell_formula_units_Z 72
_cell_length_a 9.106824
_cell_length_b 27.829279
_cell_length_c 12.797080
_cell_angle_alpha 90.000000
_cell_angle_beta 90.000000
_cell_angle_gamma 90.000000
_cell_volume 3243.245193
_symmetry_space_group_name_H-M "C M C A"
_symmetry_group_IT_number 64
_symmetry_cell_setting 'orthorhombic'
loop_
_space_group_symop_operation_xyz
x,y,z
-x,1/2-y,1/2+z
x,-y,-z
-x,1/2+y,1/2-z
-x,-y,-z
x,1/2+y,1/2-z
-x,y,z
x,1/2-y,1/2+z
1/2+x,1/2+y,z
1/2-x,-y,1/2+z
1/2+x,1/2-y,-z
1/2-x,y,1/2-z
1/2-x,1/2-y,-z
1/2+x,y,1/2-z
1/2-x,1/2+y,z
1/2+x,-y,1/2+z
loop_
_atom_site_type_symbol
_atom_site_label
_atom_site_fract_x
_atom_site_fract_y
_atom_site_fract_z
Si Si1 0.500000 0.188430 0.898477
Si Si2 0.500000 0.082006 0.802942
Si Si3 0.750000 0.981925 0.250000
Si Si4 0.500000 0.898771 0.441818
Si Si5 0.500000 0.454323 0.849536
Si Si6 0.500000 0.371861 0.675372
Si Si7 0.000000 0.788043 0.820301
Si Si8 0.748515 0.337752 0.957524
O O1 0.500000 0.134518 0.852894
O O2 0.500000 0.230902 0.815013
O O3 0.358800 0.193141 0.972683
O O4 0.646705 0.051244 0.823396
O O5 0.500000 0.086408 0.677296
O O6 0.641749 0.015204 0.316606
O O7 0.500000 0.939824 0.529946
O O8 0.358211 0.866827 0.466860
O O9 0.500000 0.406426 0.775561
O O10 0.500000 0.316515 0.712714
O O11 0.647738 0.374847 0.607207
O O12 0.143662 0.807242 0.881828
#
# Coordination Sequence:
#
# PCOD9480848 Si02
#       8
#     8   8   8   8   8   8   8  16
#     4  11  24  44  64  89 134 181 216 261 337 378
#     4  11  24  47  62  95 135 178 224 267 310 402
#     4  10  24  40  66  94 126 166 226 270 316 394
#     4  11  22  41  71  95 132 177 214 267 334 387
#     4  11  21  40  71  96 125 170 209 281 343 377
#     4  11  21  41  66 100 136 156 216 277 338 384
#     4  11  22  40  64 101 131 171 214 271 323 404
#     4  10  22  40  65  98 134 167 216 274 318 398
#
# _framework density 22.199985999999999
#
# number of rings (size 3 to 8) (size 9 to 14) (size 15 to 20)
#    0.000    1.333    2.222    4.000    0.000    1.778 
#   20.000    4.444    0.000   10.667    0.000    0.000 
#    0.000    0.000    0.000    0.000    0.000    0.000 
#
# Total GULP energy -201431.094816 kJ/mol
# GULP energy per Si atom -5595.308189 kJ/mol
# Density = 2.214946 g / cm^3
# Si number density = 22.199986 Si / 1000 Ang^3
#
#
#
# Elastic Constant Matrix: (Units=GPa)
#
#
# Indices 1 2 3 4 5 6 
#
# 1 150.7843 31.1481 16.5797 0.0000 0.0000 0.0000
# 2 31.1481 80.4262 3.0471 0.0000 0.0000 0.0000
# 3 16.5797 3.0471 64.8260 0.0000 0.0000 0.0000
# 4 0.0000 0.0000 0.0000 36.0004 0.0000 0.0000
# 5 0.0000 0.0000 0.0000 0.0000 12.7415 0.0000
# 6 0.0000 0.0000 0.0000 0.0000 0.0000 6.9069
#
#
#
# Elastic Compliance Matrix: (Units=1/GPa)
#
#
# Indices 1 2 3 4 5 6 
#
# 1 0.007404 -0.002801 -0.001762 0.000000 0.000000 0.000000
# 2 -0.002801 0.013515 0.000081 0.000000 0.000000 0.000000
# 3 -0.001762 0.000081 0.015873 0.000000 0.000000 0.000000
# 4 0.000000 0.000000 0.000000 0.027777 0.000000 0.000000
# 5 0.000000 0.000000 0.000000 0.000000 0.078483 0.000000
# 6 0.000000 0.000000 0.000000 0.000000 0.000000 0.144782
#
#
# Mechanical properties :
#
#
# Convention : Reuss Voigt Hill
#
# Bulk Modulus (GPa) = 35.93401 44.17628 40.05514
# Shear Modulus (GPa) = 16.33584 27.48055 21.90819
#
# Velocity S-wave (km/s) = 2.71560 3.52215 3.14483
# Velocity P-wave (km/s) = 5.10434 6.04013 5.59184
#
# Compressibility (1/GPa) = 0.02782879
#
# Stress axis : x y z
#
# Youngs Moduli (GPa) = 135.05627 73.98955 63.00101
#
# Poissons Ratio (x) = 0.20723 0.11101
# Poissons Ratio (y) = 0.37827 -0.00511
# Poissons Ratio (z) = 0.23798 -0.00600
#
# Static dielectric constant tensor:
#      x y z
#    x 1.826230 0.000000 0.000000 
#    y 0.000000 1.834280 0.000000 
#    z 0.000000 0.000000 1.785020 
# 
# From -- ./inp_files/21219.got.cif
#   From: 2010.05.17/outbox.cif.g08.bks.cpg/sg64_11_cif.got.tgz:21219.got - 2010.06.03 16:29:19.
