data_PCOD9480936
_publ_section_title
;
Structure prediction by ZEFSAII (Michael W. Deem and Ramdas Pophale) SiO2 
 PCOD9480936
Probable space group: C M C A
;
_chemical_formula_sum "Si O2"
_cell_formula_units_Z 80
_cell_length_a 15.187250
_cell_length_b 27.612433
_cell_length_c 7.616640
_cell_angle_alpha 90.000000
_cell_angle_beta 90.000000
_cell_angle_gamma 90.000000
_cell_volume 3194.090715
_symmetry_space_group_name_H-M "C M C A"
_symmetry_group_IT_number 64
_symmetry_cell_setting 'orthorhombic'
loop_
_space_group_symop_operation_xyz
x,y,z
-x,1/2-y,1/2+z
x,-y,-z
-x,1/2+y,1/2-z
-x,-y,-z
x,1/2+y,1/2-z
-x,y,z
x,1/2-y,1/2+z
1/2+x,1/2+y,z
1/2-x,-y,1/2+z
1/2+x,1/2-y,-z
1/2-x,y,1/2-z
1/2-x,1/2-y,-z
1/2+x,y,1/2-z
1/2-x,1/2+y,z
1/2+x,-y,1/2+z
loop_
_atom_site_type_symbol
_atom_site_label
_atom_site_fract_x
_atom_site_fract_y
_atom_site_fract_z
Si Si1 0.601461 0.778277 0.790844
Si Si2 0.602045 0.679019 0.680521
Si Si3 0.169092 0.078720 0.559524
Si Si4 0.869931 0.951344 0.093953
Si Si5 0.100353 0.120919 0.203970
O O1 0.500000 0.771501 0.727346
O O2 0.638900 0.724125 0.791099
O O3 0.640073 0.824885 0.688514
O O4 0.599770 0.797453 0.987506
O O5 0.500000 0.666687 0.730481
O O6 0.659271 0.631079 0.654930
O O7 0.111190 0.047825 0.697972
O O8 0.264757 0.055245 0.567870
O O9 0.144562 0.088990 0.357723
O O10 0.902541 0.906041 0.980230
O O11 0.899118 0.000000 0.000000
O O12 0.000000 0.127597 0.266490
#
# Coordination Sequence:
#
# PCOD9480936 Si02
#       5
#    16  16  16  16  16
#     4   8  16  30  54  88 123 163 197 238 305 367
#     4   9  17  33  59  90 125 164 205 248 303 367
#     4  10  23  41  65  91 124 166 212 256 309 378
#     4  11  26  43  67  88 119 170 217 257 323 390
#     4  10  22  41  66  96 129 161 206 264 314 368
#
# _framework density 25.046250000000001
#
# number of rings (size 3 to 8) (size 9 to 14) (size 15 to 20)
#    0.000    2.400    0.000    2.400    8.400    2.000 
#    0.000    2.000    4.400    0.000    0.000    0.000 
#    0.000    0.000    0.000    0.000    0.000    0.000 
#
# Total GULP energy -223247.186953 kJ/mol
# GULP energy per Si atom -5581.179674 kJ/mol
# Density = 2.498924 g / cm^3
# Si number density = 25.046250 Si / 1000 Ang^3
#
#
#
# Elastic Constant Matrix: (Units=GPa)
#
#
# Indices 1 2 3 4 5 6 
#
# 1 63.4284 5.6603 7.4752 0.0000 0.0000 0.0000
# 2 5.6603 77.2878 13.1507 0.0000 0.0000 0.0000
# 3 7.4752 13.1507 94.4389 0.0000 0.0000 0.0000
# 4 0.0000 0.0000 0.0000 42.8636 0.0000 0.0000
# 5 0.0000 0.0000 0.0000 0.0000 22.6953 0.0000
# 6 0.0000 0.0000 0.0000 0.0000 0.0000 12.5236
#
#
#
# Elastic Compliance Matrix: (Units=1/GPa)
#
#
# Indices 1 2 3 4 5 6 
#
# 1 0.015986 -0.000979 -0.001129 0.000000 0.000000 0.000000
# 2 -0.000979 0.013313 -0.001776 0.000000 0.000000 0.000000
# 3 -0.001129 -0.001776 0.010926 0.000000 0.000000 0.000000
# 4 0.000000 0.000000 0.000000 0.023330 0.000000 0.000000
# 5 0.000000 0.000000 0.000000 0.000000 0.044062 0.000000
# 6 0.000000 0.000000 0.000000 0.000000 0.000000 0.079849
#
#
# Mechanical properties :
#
#
# Convention : Reuss Voigt Hill
#
# Bulk Modulus (GPa) = 30.81074 31.96972 31.39023
# Shear Modulus (GPa) = 24.26572 29.54110 26.90341
#
# Velocity S-wave (km/s) = 3.11599 3.43806 3.28098
# Velocity P-wave (km/s) = 5.02734 5.34343 5.18779
#
# Compressibility (1/GPa) = 0.03245622
#
# Stress axis : x y z
#
# Youngs Moduli (GPa) = 62.55396 75.11698 91.52832
#
# Poissons Ratio (x) = 0.07351 0.10334
# Poissons Ratio (y) = 0.06122 0.16258
# Poissons Ratio (z) = 0.07063 0.13343
#
# Static dielectric constant tensor:
#      x y z
#    x 2.020730 0.000000 0.000000 
#    y 0.000000 2.082880 0.000000 
#    z 0.000000 0.000000 2.016880 
# 
# From -- ./inp_files/7062.got.cif
#   From: 2010.05.17/outbox.cif.g08.bks.cpg/sg64_4_cif.got.tgz:7062.got - 2010.06.03 16:29:19.
