data_PCOD9480983
_publ_section_title
;
Structure prediction by ZEFSAII (Michael W. Deem and Ramdas Pophale) SiO2 
 PCOD9480983
Probable space group: C M C A
;
_chemical_formula_sum "Si O2"
_cell_formula_units_Z 64
_cell_length_a 17.899920
_cell_length_b 13.381486
_cell_length_c 13.089040
_cell_angle_alpha 90.000000
_cell_angle_beta 90.000000
_cell_angle_gamma 90.000000
_cell_volume 3135.185407
_symmetry_space_group_name_H-M "C M C A"
_symmetry_group_IT_number 64
_symmetry_cell_setting 'orthorhombic'
loop_
_space_group_symop_operation_xyz
x,y,z
-x,1/2-y,1/2+z
x,-y,-z
-x,1/2+y,1/2-z
-x,-y,-z
x,1/2+y,1/2-z
-x,y,z
x,1/2-y,1/2+z
1/2+x,1/2+y,z
1/2-x,-y,1/2+z
1/2+x,1/2-y,-z
1/2-x,y,1/2-z
1/2-x,1/2-y,-z
1/2+x,y,1/2-z
1/2-x,1/2+y,z
1/2+x,-y,1/2+z
loop_
_atom_site_type_symbol
_atom_site_label
_atom_site_fract_x
_atom_site_fract_y
_atom_site_fract_z
Si Si1 0.827811 0.242558 0.562794
Si Si2 0.583976 0.115292 0.298769
Si Si3 0.166914 0.424893 0.239732
Si Si4 0.917602 0.281429 0.375980
O O1 0.750000 0.250000 0.500000
O O2 0.853942 0.344420 0.621022
O O3 0.830641 0.152611 0.644963
O O4 0.891546 0.228203 0.478281
O O5 0.500000 0.104092 0.343117
O O6 0.580144 0.202000 0.214773
O O7 0.609387 0.015708 0.240388
O O8 0.250000 0.466467 0.250000
O O9 0.142809 0.362152 0.339766
O O10 0.000000 0.326505 0.386922
#
# Coordination Sequence:
#
# PCOD9480983 Si02
#       4
#    16  16  16  16
#     4  11  23  42  66  94 128 170 217 269 324 385
#     4  10  24  42  65  94 131 171 214 266 327 392
#     4  11  23  40  65  93 130 170 214 266 322 389
#     4  10  22  42  65  92 128 167 212 267 325 386
#
# _framework density 20.413466
#
# number of rings (size 3 to 8) (size 9 to 14) (size 15 to 20)
#    0.000    1.500    2.500    1.500    3.500    5.000 
#    0.000    5.000    0.000    0.000    0.000    0.000 
#    0.000    0.000    0.000    0.000    0.000    0.000 
#
# Total GULP energy -178403.008513 kJ/mol
# GULP energy per Si atom -5575.094016 kJ/mol
# Density = 2.036700 g / cm^3
# Si number density = 20.413466 Si / 1000 Ang^3
#
#
#
# Elastic Constant Matrix: (Units=GPa)
#
#
# Indices 1 2 3 4 5 6 
#
# 1 118.8670 37.2655 38.9284 0.0000 0.0000 0.0000
# 2 37.2655 58.3220 -2.8223 0.0000 0.0000 0.0000
# 3 38.9284 -2.8223 73.4966 0.0000 0.0000 0.0000
# 4 0.0000 0.0000 0.0000 9.4116 0.0000 0.0000
# 5 0.0000 0.0000 0.0000 0.0000 21.9363 0.0000
# 6 0.0000 0.0000 0.0000 0.0000 0.0000 17.7004
#
#
#
# Elastic Compliance Matrix: (Units=1/GPa)
#
#
# Indices 1 2 3 4 5 6 
#
# 1 0.013804 -0.009191 -0.007665 0.000000 0.000000 0.000000
# 2 -0.009191 0.023298 0.005763 0.000000 0.000000 0.000000
# 3 -0.007665 0.005763 0.017887 0.000000 0.000000 0.000000
# 4 0.000000 0.000000 0.000000 0.106252 0.000000 0.000000
# 5 0.000000 0.000000 0.000000 0.000000 0.045587 0.000000
# 6 0.000000 0.000000 0.000000 0.000000 0.000000 0.056496
#
#
# Mechanical properties :
#
#
# Convention : Reuss Voigt Hill
#
# Bulk Modulus (GPa) = 30.48464 44.15876 37.32170
# Shear Modulus (GPa) = 16.86657 21.63060 19.24859
#
# Velocity S-wave (km/s) = 2.87757 3.25872 3.07406
# Velocity P-wave (km/s) = 5.09966 5.98650 5.56079
#
# Compressibility (1/GPa) = 0.03280340
#
# Stress axis : x y z
#
# Youngs Moduli (GPa) = 72.44027 42.92208 55.90629
#
# Poissons Ratio (x) = 0.39452 0.42850
# Poissons Ratio (y) = 0.66583 -0.32219
# Poissons Ratio (z) = 0.55523 -0.24736
#
# Static dielectric constant tensor:
#      x y z
#    x 1.793320 0.000000 0.000000 
#    y 0.000000 1.746410 0.000000 
#    z 0.000000 0.000000 1.720440 
# 
# From -- ./inp_files/15471.got.cif
#   From: 2010.05.17/outbox.cif.g08.bks.cpg/sg64_8_cif.got.tgz:15471.got - 2010.06.03 16:29:19.
