data_PCOD9480323
_publ_section_title
;
Structure prediction by ZEFSAII (Michael W. Deem and Ramdas Pophale) SiO2 
 PCOD9480323
Probable space group: C M C A
;
_chemical_formula_sum "Si O2"
_cell_formula_units_Z 112
_cell_length_a 17.287833
_cell_length_b 28.978699
_cell_length_c 11.121181
_cell_angle_alpha 90.000000
_cell_angle_beta 90.000000
_cell_angle_gamma 90.000000
_cell_volume 5571.477123
_symmetry_space_group_name_H-M "C M C A"
_symmetry_group_IT_number 64
_symmetry_cell_setting 'orthorhombic'
loop_
_space_group_symop_operation_xyz
x,y,z
-x,1/2-y,1/2+z
x,-y,-z
-x,1/2+y,1/2-z
-x,-y,-z
x,1/2+y,1/2-z
-x,y,z
x,1/2-y,1/2+z
1/2+x,1/2+y,z
1/2-x,-y,1/2+z
1/2+x,1/2-y,-z
1/2-x,y,1/2-z
1/2-x,1/2-y,-z
1/2+x,y,1/2-z
1/2-x,1/2+y,z
1/2+x,-y,1/2+z
loop_
_atom_site_type_symbol
_atom_site_label
_atom_site_fract_x
_atom_site_fract_y
_atom_site_fract_z
Si Si1 0.701111 0.752211 0.625154
Si Si2 0.660871 0.020298 0.722075
Si Si3 0.589735 0.104650 0.608780
Si Si4 0.406616 0.070487 0.221970
Si Si5 0.090532 0.165880 0.661363
Si Si6 0.409467 0.159293 0.359926
Si Si7 0.590863 0.568885 0.544172
O O1 0.750000 0.752256 0.750000
O O2 0.750000 0.750000 0.500000
O O3 0.645810 0.707604 0.630099
O O4 0.646449 0.797346 0.628592
O O5 0.750000 0.014563 0.750000
O O6 0.642068 0.059623 0.624499
O O7 0.624874 0.041500 0.844382
O O8 0.623680 0.970775 0.695281
O O9 0.500000 0.090914 0.633124
O O10 0.610099 0.142629 0.710043
O O11 0.593475 0.129316 0.481670
O O12 0.500000 0.069455 0.223795
O O13 0.384669 0.122184 0.259323
O O14 0.377447 0.059348 0.087811
O O15 0.098913 0.123320 0.569731
O O16 0.000000 0.179797 0.663912
O O17 0.500000 0.172788 0.340386
O O18 0.500000 0.558005 0.542390
#
# Coordination Sequence:
#
# PCOD9480323 Si02
#       7
#    16  16  16  16  16  16  16
#     4  12  27  43  63  95 133 169 204 255 330 387
#     4  11  22  36  56  92 127 165 203 249 312 377
#     4   9  19  40  65  88 117 160 212 259 302 362
#     4  10  21  40  63  88 120 161 211 261 307 356
#     4   9  19  39  67  92 116 160 215 257 300 369
#     4  10  23  43  65  90 122 164 213 262 309 371
#     4   9  19  38  66  90 115 156 212 263 300 355
#
# _framework density 20.10239
#
# number of rings (size 3 to 8) (size 9 to 14) (size 15 to 20)
#    0.000    2.000    0.000    3.857    2.000    6.857 
#    5.143    3.571    0.000    0.000    0.000    0.000 
#    0.000    0.000    0.000    0.000    0.000    0.000 
#
# Total GULP energy -312728.633157 kJ/mol
# GULP energy per Si atom -5584.439878 kJ/mol
# Density = 2.005664 g / cm^3
# Si number density = 20.102390 Si / 1000 Ang^3
#
#
#
# Elastic Constant Matrix: (Units=GPa)
#
#
# Indices 1 2 3 4 5 6 
#
# 1 56.7858 49.2784 16.6759 0.0000 0.0000 0.0000
# 2 49.2784 98.0532 15.4943 0.0000 0.0000 0.0000
# 3 16.6759 15.4943 63.8707 0.0000 0.0000 0.0000
# 4 0.0000 0.0000 0.0000 12.9499 0.0000 0.0000
# 5 0.0000 0.0000 0.0000 0.0000 16.0357 0.0000
# 6 0.0000 0.0000 0.0000 0.0000 0.0000 33.7531
#
#
#
# Elastic Compliance Matrix: (Units=1/GPa)
#
#
# Indices 1 2 3 4 5 6 
#
# 1 0.032538 -0.015608 -0.004709 0.000000 0.000000 0.000000
# 2 -0.015608 0.018092 -0.000314 0.000000 0.000000 0.000000
# 3 -0.004709 -0.000314 0.016962 0.000000 0.000000 0.000000
# 4 0.000000 0.000000 0.000000 0.077221 0.000000 0.000000
# 5 0.000000 0.000000 0.000000 0.000000 0.062361 0.000000
# 6 0.000000 0.000000 0.000000 0.000000 0.000000 0.029627
#
#
# Mechanical properties :
#
#
# Convention : Reuss Voigt Hill
#
# Bulk Modulus (GPa) = 37.97908 42.40077 40.18993
# Shear Modulus (GPa) = 17.43137 21.69847 19.56492
#
# Velocity S-wave (km/s) = 2.94790 3.28898 3.12310
# Velocity P-wave (km/s) = 5.52455 5.96334 5.74813
#
# Compressibility (1/GPa) = 0.02633028
#
# Stress axis : x y z
#
# Youngs Moduli (GPa) = 30.73369 55.27197 58.95466
#
# Poissons Ratio (x) = 0.86270 0.27760
# Poissons Ratio (y) = 0.47970 0.01850
# Poissons Ratio (z) = 0.14472 0.01735
#
# Static dielectric constant tensor:
#      x y z
#    x 1.700770 0.000000 0.000000 
#    y 0.000000 1.689370 0.000000 
#    z 0.000000 0.000000 2.086430 
# 
# From -- ./inp_files/15011.got.cif
#   From: 2010.05.17/outbox.cif.g08.bks.cpg/sg64_8_cif.got.tgz:15011.got - 2010.06.03 16:29:19.
