data_PCOD9480737
_publ_section_title
;
Structure prediction by ZEFSAII (Michael W. Deem and Ramdas Pophale) SiO2 
 PCOD9480737
Probable space group: C M C A
;
_chemical_formula_sum "Si O2"
_cell_formula_units_Z 72
_cell_length_a 15.671199
_cell_length_b 22.115848
_cell_length_c 11.101802
_cell_angle_alpha 90.000000
_cell_angle_beta 90.000000
_cell_angle_gamma 90.000000
_cell_volume 3847.683132
_symmetry_space_group_name_H-M "C M C A"
_symmetry_group_IT_number 64
_symmetry_cell_setting 'orthorhombic'
loop_
_space_group_symop_operation_xyz
x,y,z
-x,1/2-y,1/2+z
x,-y,-z
-x,1/2+y,1/2-z
-x,-y,-z
x,1/2+y,1/2-z
-x,y,z
x,1/2-y,1/2+z
1/2+x,1/2+y,z
1/2-x,-y,1/2+z
1/2+x,1/2-y,-z
1/2-x,y,1/2-z
1/2-x,1/2-y,-z
1/2+x,y,1/2-z
1/2-x,1/2+y,z
1/2+x,-y,1/2+z
loop_
_atom_site_type_symbol
_atom_site_label
_atom_site_fract_x
_atom_site_fract_y
_atom_site_fract_z
Si Si1 0.000000 0.367165 0.597246
Si Si2 0.000000 0.284428 0.360948
Si Si3 0.356618 0.073304 0.999531
Si Si4 0.848566 0.857310 0.246156
Si Si5 0.000000 0.648156 0.130971
Si Si6 0.161512 0.428782 0.501786
O O1 0.000000 0.339098 0.727476
O O2 0.087006 0.404648 0.585718
O O3 0.000000 0.324258 0.481987
O O4 0.917151 0.304940 0.282815
O O5 0.000000 0.216868 0.413426
O O6 0.367459 0.103817 0.866759
O O7 0.258703 0.085568 0.037135
O O8 0.420131 0.108703 0.086716
O O9 0.370312 0.000000 0.000000
O O10 0.750000 0.835165 0.250000
O O11 0.852633 0.902142 0.131718
O O12 0.154743 0.500000 0.500000
#
# Coordination Sequence:
#
# PCOD9480737 Si02
#       6
#     8   8  16  16   8  16
#     4  10  23  39  57  90 120 154 206 232 297 349
#     4  10  23  43  59  82 117 165 199 247 283 354
#     4  10  22  39  62  93 122 153 194 247 306 351
#     4   9  19  39  64  87 116 158 199 240 298 352
#     4  12  26  38  59  88 120 159 197 248 294 341
#     4   9  19  38  64  89 120 154 192 243 296 360
#
# _framework density 18.712558999999999
#
# number of rings (size 3 to 8) (size 9 to 14) (size 15 to 20)
#    0.000    2.222    0.000    1.333    6.222    0.889 
#    4.000    3.333    0.000    0.000    0.000    0.000 
#    0.000    0.000    0.000    0.000    0.000    0.000 
#
# Total GULP energy -200659.474811 kJ/mol
# GULP energy per Si atom -5573.874300 kJ/mol
# Density = 1.866997 g / cm^3
# Si number density = 18.712559 Si / 1000 Ang^3
#
#
#
# Elastic Constant Matrix: (Units=GPa)
#
#
# Indices 1 2 3 4 5 6 
#
# 1 94.7641 64.4235 26.0170 0.0000 0.0000 0.0000
# 2 64.4235 85.1570 3.1225 0.0000 0.0000 0.0000
# 3 26.0170 3.1225 33.9501 0.0000 0.0000 0.0000
# 4 0.0000 0.0000 0.0000 17.9223 0.0000 0.0000
# 5 0.0000 0.0000 0.0000 0.0000 37.4253 0.0000
# 6 0.0000 0.0000 0.0000 0.0000 0.0000 -25.6847
#
#
#
# Elastic Compliance Matrix: (Units=1/GPa)
#
#
# Indices 1 2 3 4 5 6 
#
# 1 0.033911 -0.024785 -0.023707 0.000000 0.000000 0.000000
# 2 -0.024785 0.029898 0.016244 0.000000 0.000000 0.000000
# 3 -0.023707 0.016244 0.046129 0.000000 0.000000 0.000000
# 4 0.000000 0.000000 0.000000 0.055797 0.000000 0.000000
# 5 0.000000 0.000000 0.000000 0.000000 0.026720 0.000000
# 6 0.000000 0.000000 0.000000 0.000000 0.000000 -0.038934
#
#
# Mechanical properties :
#
#
# Convention : Reuss Voigt Hill
#
# Bulk Modulus (GPa) = 22.00701 44.55523 33.28112
# Shear Modulus (GPa) = 21.44407 13.95314 17.69861
#
# Velocity S-wave (km/s) = 3.38889 2.73363 3.07875
# Velocity P-wave (km/s) = 5.20566 5.81599 5.51927
#
# Compressibility (1/GPa) = 0.04544007
#
# Stress axis : x y z
#
# Youngs Moduli (GPa) = 29.48897 33.44700 21.67850
#
# Poissons Ratio (x) = 0.82899 0.51394
# Poissons Ratio (y) = 0.73089 -0.35214
# Poissons Ratio (z) = 0.69911 -0.54331
#
# Static dielectric constant tensor:
#      x y z
#    x 1.725260 0.000000 0.000000 
#    y 0.000000 1.622750 0.000000 
#    z 0.000000 0.000000 1.633700 
# 
# From -- ./inp_files/14394.got.cif
#   From: 2010.05.17/outbox.cif.g08.bks.cpg/sg64_8_cif.got.tgz:14394.got - 2010.06.03 16:29:19.
