data_PCOD9480067
_publ_section_title
;
Structure prediction by ZEFSAII (Michael W. Deem and Ramdas Pophale) SiO2 
 PCOD9480067
Probable space group: C M C A
;
_chemical_formula_sum "Si O2"
_cell_formula_units_Z 60
_cell_length_a 9.740432
_cell_length_b 20.720327
_cell_length_c 12.274132
_cell_angle_alpha 90.000000
_cell_angle_beta 90.000000
_cell_angle_gamma 90.000000
_cell_volume 2477.225907
_symmetry_space_group_name_H-M "C M C A"
_symmetry_group_IT_number 64
_symmetry_cell_setting 'orthorhombic'
loop_
_space_group_symop_operation_xyz
x,y,z
-x,1/2-y,1/2+z
x,-y,-z
-x,1/2+y,1/2-z
-x,-y,-z
x,1/2+y,1/2-z
-x,y,z
x,1/2-y,1/2+z
1/2+x,1/2+y,z
1/2-x,-y,1/2+z
1/2+x,1/2-y,-z
1/2-x,y,1/2-z
1/2-x,1/2-y,-z
1/2+x,y,1/2-z
1/2-x,1/2+y,z
1/2+x,-y,1/2+z
loop_
_atom_site_type_symbol
_atom_site_label
_atom_site_fract_x
_atom_site_fract_y
_atom_site_fract_z
Si Si1 0.500000 0.149348 0.453297
Si Si2 0.250000 0.803716 0.250000
Si Si3 0.000000 0.892165 0.707475
Si Si4 0.500000 0.000000 0.000000
Si Si5 0.500000 0.759785 0.876567
Si Si6 0.250000 0.515319 0.250000
Si Si7 0.252199 0.411851 0.420396
O O1 0.500000 0.144531 0.323736
O O2 0.500000 0.219773 0.510561
O O3 0.635778 0.113504 0.498222
O O4 0.367619 0.762104 0.306886
O O5 0.299182 0.852052 0.154880
O O6 0.130067 0.939411 0.704999
O O7 0.000000 0.836528 0.617868
O O8 0.619331 0.947123 0.029944
O O9 0.189087 0.466915 0.340371
#
# Coordination Sequence:
#
# PCOD9480067 Si02
#       7
#     8   8   8   4   8   8  16
#     4  10  23  44  68  87 124 175 219 255 314 387
#     4   9  19  40  64  82 115 165 214 250 304 371
#     4  12  24  41  62  93 129 169 210 262 320 375
#     4  12  20  30  54  96 126 138 190 254 302 360
#     4  10  21  41  63  88 122 168 216 264 311 366
#     4  11  23  38  60  90 131 163 200 254 314 381
#     4  10  21  38  61  91 122 162 202 254 315 373
#
# _framework density 24.220641000000001
#
# number of rings (size 3 to 8) (size 9 to 14) (size 15 to 20)
#    0.000    1.600    0.000    4.800    0.000    5.867 
#    0.000   17.333    0.000    0.000    0.000    0.000 
#    0.000    0.000    0.000    0.000    0.000    0.000 
#
# Total GULP energy -167613.937369 kJ/mol
# GULP energy per Si atom -5587.131246 kJ/mol
# Density = 2.416551 g / cm^3
# Si number density = 24.220641 Si / 1000 Ang^3
#
#
#
# Elastic Constant Matrix: (Units=GPa)
#
#
# Indices 1 2 3 4 5 6 
#
# 1 85.0520 30.1846 -3.3596 0.0000 0.0000 0.0000
# 2 30.1846 158.6907 33.4559 0.0000 0.0000 0.0000
# 3 -3.3596 33.4559 88.0557 0.0000 0.0000 0.0000
# 4 0.0000 0.0000 0.0000 29.3110 0.0000 0.0000
# 5 0.0000 0.0000 0.0000 0.0000 27.7937 0.0000
# 6 0.0000 0.0000 0.0000 0.0000 0.0000 18.6320
#
#
#
# Elastic Compliance Matrix: (Units=1/GPa)
#
#
# Indices 1 2 3 4 5 6 
#
# 1 0.012797 -0.002758 0.001536 0.000000 0.000000 0.000000
# 2 -0.002758 0.007445 -0.002934 0.000000 0.000000 0.000000
# 3 0.001536 -0.002934 0.012530 0.000000 0.000000 0.000000
# 4 0.000000 0.000000 0.000000 0.034117 0.000000 0.000000
# 5 0.000000 0.000000 0.000000 0.000000 0.035979 0.000000
# 6 0.000000 0.000000 0.000000 0.000000 0.000000 0.053671
#
#
# Mechanical properties :
#
#
# Convention : Reuss Voigt Hill
#
# Bulk Modulus (GPa) = 40.88285 50.26224 45.57255
# Shear Modulus (GPa) = 28.90116 33.24850 31.07483
#
# Velocity S-wave (km/s) = 3.45809 3.70906 3.58577
# Velocity P-wave (km/s) = 5.73240 6.25618 6.00001
#
# Compressibility (1/GPa) = 0.02446013
#
# Stress axis : x y z
#
# Youngs Moduli (GPa) = 78.14341 134.32433 79.81033
#
# Poissons Ratio (x) = 0.37046 -0.12260
# Poissons Ratio (y) = 0.21552 0.23414
# Poissons Ratio (z) = -0.12004 0.39407
#
# Static dielectric constant tensor:
#      x y z
#    x 1.802750 0.000000 0.000000 
#    y 0.000000 1.893490 0.000000 
#    z 0.000000 0.000000 2.037780 
# 
# From -- ./inp_files/22149.got.cif
#   From: 2010.05.17/outbox.cif.g08.bks.cpg/sg64_12_cif.got.tgz:22149.got - 2010.06.03 16:29:19.
