data_PCOD9480736
_publ_section_title
;
Structure prediction by ZEFSAII (Michael W. Deem and Ramdas Pophale) SiO2 
 PCOD9480736
Probable space group: C M C A
;
_chemical_formula_sum "Si O2"
_cell_formula_units_Z 80
_cell_length_a 10.184426
_cell_length_b 27.019244
_cell_length_c 15.973249
_cell_angle_alpha 90.000000
_cell_angle_beta 90.000000
_cell_angle_gamma 90.000000
_cell_volume 4395.446638
_symmetry_space_group_name_H-M "C M C A"
_symmetry_group_IT_number 64
_symmetry_cell_setting 'orthorhombic'
loop_
_space_group_symop_operation_xyz
x,y,z
-x,1/2-y,1/2+z
x,-y,-z
-x,1/2+y,1/2-z
-x,-y,-z
x,1/2+y,1/2-z
-x,y,z
x,1/2-y,1/2+z
1/2+x,1/2+y,z
1/2-x,-y,1/2+z
1/2+x,1/2-y,-z
1/2-x,y,1/2-z
1/2-x,1/2-y,-z
1/2+x,y,1/2-z
1/2-x,1/2+y,z
1/2+x,-y,1/2+z
loop_
_atom_site_type_symbol
_atom_site_label
_atom_site_fract_x
_atom_site_fract_y
_atom_site_fract_z
Si Si1 0.500000 0.418522 0.626591
Si Si2 0.843897 0.759061 0.579766
Si Si3 0.000000 0.490877 0.237206
Si Si4 0.755651 0.135090 0.080651
Si Si5 0.345873 0.650236 0.889183
Si Si6 0.250000 0.921024 0.250000
Si Si7 0.500000 0.593326 0.183675
O O1 0.500000 0.476012 0.652690
O O2 0.368802 0.401306 0.581079
O O3 0.500000 0.392093 0.718431
O O4 0.750000 0.750000 0.500000
O O5 0.795233 0.811624 0.614137
O O6 0.828114 0.708517 0.631958
O O7 0.000000 0.762648 0.558150
O O8 0.125618 0.456558 0.243137
O O9 0.000000 0.533418 0.309193
O O10 0.871527 0.113382 0.137413
O O11 0.807619 0.142512 0.986209
O O12 0.500000 0.638753 0.879159
O O13 0.264287 0.614542 0.829904
#
# Coordination Sequence:
#
# PCOD9480736 Si02
#       7
#     8  16   8  16  16   8   8
#     4  10  22  39  62  93 120 156 209 255 321 369
#     4   9  19  36  60  90 129 163 194 248 307 361
#     4  10  24  42  64  82 128 166 196 266 330 356
#     4  11  19  40  65  95 127 158 203 260 306 371
#     4  10  22  41  63  89 124 166 208 241 303 380
#     4  12  22  46  62  86 120 172 206 256 310 364
#     4  10  22  39  64  89 124 168 195 251 335 373
#
# _framework density 18.200652000000002
#
# number of rings (size 3 to 8) (size 9 to 14) (size 15 to 20)
#    0.600    1.200    3.000    1.800    1.400    0.800 
#    5.400    6.000    0.000    0.000    0.000    0.000 
#    0.000    0.000    0.000    0.000    0.000    0.000 
#
# Total GULP energy -222906.052484 kJ/mol
# GULP energy per Si atom -5572.651312 kJ/mol
# Density = 1.815923 g / cm^3
# Si number density = 18.200652 Si / 1000 Ang^3
#
#
#
# Elastic Constant Matrix: (Units=GPa)
#
#
# Indices 1 2 3 4 5 6 
#
# 1 137.7382 71.4252 12.8293 0.0000 0.0000 0.0000
# 2 71.4252 143.9951 32.9830 0.0000 0.0000 0.0000
# 3 12.8293 32.9830 42.3228 0.0000 0.0000 0.0000
# 4 0.0000 0.0000 0.0000 33.4777 0.0000 0.0000
# 5 0.0000 0.0000 0.0000 0.0000 27.0628 0.0000
# 6 0.0000 0.0000 0.0000 0.0000 0.0000 34.4090
#
#
#
# Elastic Compliance Matrix: (Units=1/GPa)
#
#
# Indices 1 2 3 4 5 6 
#
# 1 0.009809 -0.005094 0.000996 0.000000 0.000000 0.000000
# 2 -0.005094 0.011099 -0.007105 0.000000 0.000000 0.000000
# 3 0.000996 -0.007105 0.028863 0.000000 0.000000 0.000000
# 4 0.000000 0.000000 0.000000 0.029871 0.000000 0.000000
# 5 0.000000 0.000000 0.000000 0.000000 0.036951 0.000000
# 6 0.000000 0.000000 0.000000 0.000000 0.000000 0.029062
#
#
# Mechanical properties :
#
#
# Convention : Reuss Voigt Hill
#
# Bulk Modulus (GPa) = 36.54281 62.05902 49.30091
# Shear Modulus (GPa) = 28.21958 32.77782 30.49870
#
# Velocity S-wave (km/s) = 3.94187 4.24832 4.09796
# Velocity P-wave (km/s) = 6.39055 7.63122 7.03828
#
# Compressibility (1/GPa) = 0.02736516
#
# Stress axis : x y z
#
# Youngs Moduli (GPa) = 101.95091 90.10020 34.64596
#
# Poissons Ratio (x) = 0.45893 -0.03451
# Poissons Ratio (y) = 0.51929 0.24618
# Poissons Ratio (z) = -0.10156 0.64021
#
# Static dielectric constant tensor:
#      x y z
#    x 1.600170 0.000000 0.000000 
#    y 0.000000 1.642380 0.000000 
#    z 0.000000 0.000000 1.610760 
# 
# From -- ./inp_files/29888.got.cif
#   From: 2010.05.17/outbox.cif.g08.bks.cpg/sg64_15_cif.got.tgz:29888.got - 2010.06.03 16:29:19.
