data_PCOD9480246
_publ_section_title
;
Structure prediction by ZEFSAII (Michael W. Deem and Ramdas Pophale) SiO2 
 PCOD9480246
Probable space group: C M C A
;
_chemical_formula_sum "Si O2"
_cell_formula_units_Z 96
_cell_length_a 26.148546
_cell_length_b 20.009208
_cell_length_c 9.768876
_cell_angle_alpha 90.000000
_cell_angle_beta 90.000000
_cell_angle_gamma 90.000000
_cell_volume 5111.190178
_symmetry_space_group_name_H-M "C M C A"
_symmetry_group_IT_number 64
_symmetry_cell_setting 'orthorhombic'
loop_
_space_group_symop_operation_xyz
x,y,z
-x,1/2-y,1/2+z
x,-y,-z
-x,1/2+y,1/2-z
-x,-y,-z
x,1/2+y,1/2-z
-x,y,z
x,1/2-y,1/2+z
1/2+x,1/2+y,z
1/2-x,-y,1/2+z
1/2+x,1/2-y,-z
1/2-x,y,1/2-z
1/2-x,1/2-y,-z
1/2+x,y,1/2-z
1/2-x,1/2+y,z
1/2+x,-y,1/2+z
loop_
_atom_site_type_symbol
_atom_site_label
_atom_site_fract_x
_atom_site_fract_y
_atom_site_fract_z
Si Si1 0.700509 0.135886 0.336182
Si Si2 0.558740 0.962104 0.144055
Si Si3 0.349595 0.994596 0.338883
Si Si4 0.700570 0.648912 0.842428
Si Si5 0.118459 0.234854 0.287261
Si Si6 0.440079 0.309038 0.440464
O O1 0.750000 0.154662 0.250000
O O2 0.711944 0.148559 0.495624
O O3 0.652484 0.178999 0.286683
O O4 0.685592 0.058715 0.310472
O O5 0.500000 0.968103 0.193183
O O6 0.599347 0.992212 0.248941
O O7 0.569344 0.884274 0.112995
O O8 0.562666 0.000000 0.000000
O O9 0.319963 0.925545 0.311045
O O10 0.362523 0.000000 0.500000
O O11 0.750000 0.663502 0.750000
O O12 0.656304 0.702930 0.815943
O O13 0.075437 0.259855 0.182204
O O14 0.093937 0.208064 0.427337
O O15 0.500000 0.303410 0.474570
#
# Coordination Sequence:
#
# PCOD9480246 Si02
#       6
#    16  16  16  16  16  16
#     4  11  25  41  63  93 126 165 213 262 319 377
#     4  10  21  39  64  94 125 164 212 260 317 379
#     4  10  22  42  62  91 127 164 208 260 315 375
#     4  11  24  40  63  90 125 167 214 261 315 377
#     4  12  23  42  64  94 128 166 214 267 315 386
#     4  11  24  42  66  95 129 171 212 265 326 383
#
# _framework density 18.782319000000001
#
# number of rings (size 3 to 8) (size 9 to 14) (size 15 to 20)
#    0.000    1.167    3.333    2.500    2.333    3.000 
#    0.000    0.833    0.000    0.000    0.000    0.000 
#    0.000    0.000    0.000    0.000    0.000    0.000 
#
# Total GULP energy -268320.405381 kJ/mol
# GULP energy per Si atom -5590.008445 kJ/mol
# Density = 1.873957 g / cm^3
# Si number density = 18.782319 Si / 1000 Ang^3
#
#
#
# Elastic Constant Matrix: (Units=GPa)
#
#
# Indices 1 2 3 4 5 6 
#
# 1 92.4074 18.6364 41.3581 0.0000 0.0000 0.0000
# 2 18.6364 62.9898 6.5819 0.0000 0.0000 0.0000
# 3 41.3581 6.5819 60.7038 0.0000 0.0000 0.0000
# 4 0.0000 0.0000 0.0000 -42.5594 0.0000 0.0000
# 5 0.0000 0.0000 0.0000 0.0000 47.1730 0.0000
# 6 0.0000 0.0000 0.0000 0.0000 0.0000 -231.3561
#
#
#
# Elastic Compliance Matrix: (Units=1/GPa)
#
#
# Indices 1 2 3 4 5 6 
#
# 1 0.016390 -0.003725 -0.010763 0.000000 0.000000 0.000000
# 2 -0.003725 0.016904 0.000705 0.000000 0.000000 0.000000
# 3 -0.010763 0.000705 0.023730 0.000000 0.000000 0.000000
# 4 0.000000 0.000000 0.000000 -0.023497 0.000000 0.000000
# 5 0.000000 0.000000 0.000000 0.000000 0.021199 0.000000
# 6 0.000000 0.000000 0.000000 0.000000 0.000000 -0.004322
#
#
# Mechanical properties :
#
#
# Convention : Reuss Voigt Hill
#
# Bulk Modulus (GPa) = 33.94610 38.80597 36.37603
# Shear Modulus (GPa) = 56.95577 -35.38019 10.78779
#
# Velocity S-wave (km/s) = 5.51271 -4.34487 2.39918
# Velocity P-wave (km/s) = 7.65719 2.11299 5.20422
#
# Compressibility (1/GPa) = 0.02945847
#
# Stress axis : x y z
#
# Youngs Moduli (GPa) = 61.01375 59.15793 42.14126
#
# Poissons Ratio (x) = 0.22034 0.45355
# Poissons Ratio (y) = 0.22725 -0.02970
# Poissons Ratio (z) = 0.65667 -0.04169
#
# Static dielectric constant tensor:
#      x y z
#    x 1.615340 0.000000 0.000000 
#    y 0.000000 1.649590 0.000000 
#    z 0.000000 0.000000 1.615760 
# 
# From -- ./inp_files/10334.got.cif
#   From: 2010.05.17/outbox.cif.g08.bks.cpg/sg64_6_cif.got.tgz:10334.got - 2010.06.03 16:29:19.
