data_PCOD9480913
_publ_section_title
;
Structure prediction by ZEFSAII (Michael W. Deem and Ramdas Pophale) SiO2 
 PCOD9480913
Probable space group: C M C A
;
_chemical_formula_sum "Si O2"
_cell_formula_units_Z 64
_cell_length_a 24.889616
_cell_length_b 9.598082
_cell_length_c 12.827624
_cell_angle_alpha 90.000000
_cell_angle_beta 90.000000
_cell_angle_gamma 90.000000
_cell_volume 3064.424133
_symmetry_space_group_name_H-M "C M C A"
_symmetry_group_IT_number 64
_symmetry_cell_setting 'orthorhombic'
loop_
_space_group_symop_operation_xyz
x,y,z
-x,1/2-y,1/2+z
x,-y,-z
-x,1/2+y,1/2-z
-x,-y,-z
x,1/2+y,1/2-z
-x,y,z
x,1/2-y,1/2+z
1/2+x,1/2+y,z
1/2-x,-y,1/2+z
1/2+x,1/2-y,-z
1/2-x,y,1/2-z
1/2-x,1/2-y,-z
1/2+x,y,1/2-z
1/2-x,1/2+y,z
1/2+x,-y,1/2+z
loop_
_atom_site_type_symbol
_atom_site_label
_atom_site_fract_x
_atom_site_fract_y
_atom_site_fract_z
Si Si1 0.500000 0.426523 0.154077
Si Si2 0.000000 0.733784 0.437532
Si Si3 0.907441 0.336425 0.191069
Si Si4 0.665244 0.584240 0.243319
Si Si5 0.756658 0.378946 0.923234
O O1 0.500000 0.592182 0.132793
O O2 0.551779 0.383197 0.219306
O O3 0.500000 0.332375 0.051067
O O4 0.946356 0.821754 0.409695
O O5 0.858607 0.445299 0.203387
O O6 0.882560 0.185554 0.211182
O O7 0.703803 0.570282 0.141763
O O8 0.700816 0.654973 0.333335
O O9 0.775360 0.500000 0.000000
O O10 0.750000 0.250000 0.000000
#
# Coordination Sequence:
#
# PCOD9480913 Si02
#       5
#     8   8  16  16  16
#     4  10  22  41  64  93 128 165 215 258 318 382
#     4  10  22  41  64  93 126 169 210 263 314 388
#     4  11  22  41  65  93 129 167 207 267 322 377
#     4  11  24  41  65  95 129 168 216 265 322 389
#     4  11  24  43  64  93 130 167 213 267 321 383
#
# _framework density 20.884837999999998
#
# number of rings (size 3 to 8) (size 9 to 14) (size 15 to 20)
#    0.000    1.250    2.500    3.000    0.000   10.000 
#    0.000    1.250    0.000    0.000    0.000    0.000 
#    0.000    0.000    0.000    0.000    0.000    0.000 
#
# Total GULP energy -178583.773153 kJ/mol
# GULP energy per Si atom -5580.742911 kJ/mol
# Density = 2.083730 g / cm^3
# Si number density = 20.884838 Si / 1000 Ang^3
#
#
#
# Elastic Constant Matrix: (Units=GPa)
#
#
# Indices 1 2 3 4 5 6 
#
# 1 83.5509 -0.0050 28.0225 0.0000 0.0000 0.0000
# 2 -0.0050 42.0941 -3.8825 0.0000 0.0000 0.0000
# 3 28.0225 -3.8825 74.4107 0.0000 0.0000 0.0000
# 4 0.0000 0.0000 0.0000 32.1643 0.0000 0.0000
# 5 0.0000 0.0000 0.0000 0.0000 -22.1882 0.0000
# 6 0.0000 0.0000 0.0000 0.0000 0.0000 35.1925
#
#
#
# Elastic Compliance Matrix: (Units=1/GPa)
#
#
# Indices 1 2 3 4 5 6 
#
# 1 0.013709 -0.000477 -0.005187 0.000000 0.000000 0.000000
# 2 -0.000477 0.023888 0.001426 0.000000 0.000000 0.000000
# 3 -0.005187 0.001426 0.015467 0.000000 0.000000 0.000000
# 4 0.000000 0.000000 0.000000 0.031090 0.000000 0.000000
# 5 0.000000 0.000000 0.000000 0.000000 -0.045069 0.000000
# 6 0.000000 0.000000 0.000000 0.000000 0.000000 0.028415
#
#
# Mechanical properties :
#
#
# Convention : Reuss Voigt Hill
#
# Bulk Modulus (GPa) = 22.42825 27.59174 25.01000
# Shear Modulus (GPa) = 55.04275 20.76176 37.90225
#
# Velocity S-wave (km/s) = 5.13932 3.15637 4.26469
# Velocity P-wave (km/s) = 6.78079 5.15011 6.02091
#
# Compressibility (1/GPa) = 0.04458662
#
# Stress axis : x y z
#
# Youngs Moduli (GPa) = 72.94715 41.86241 64.65437
#
# Poissons Ratio (x) = 0.01996 0.33539
# Poissons Ratio (y) = 0.03478 -0.09220
# Poissons Ratio (z) = 0.37841 -0.05969
#
# Static dielectric constant tensor:
#      x y z
#    x 1.794380 0.000000 0.000000 
#    y 0.000000 1.315360 0.000000 
#    z 0.000000 0.000000 1.721900 
# 
# From -- ./inp_files/27770.got.cif
#   From: 2010.05.17/outbox.cif.g08.bks.cpg/sg64_14_cif.got.tgz:27770.got - 2010.06.03 16:29:19.
