data_PCOD9480415
_publ_section_title
;
Structure prediction by ZEFSAII (Michael W. Deem and Ramdas Pophale) SiO2 
 PCOD9480415
Probable space group: C M C A
;
_chemical_formula_sum "Si O2"
_cell_formula_units_Z 72
_cell_length_a 10.089417
_cell_length_b 14.682250
_cell_length_c 25.176813
_cell_angle_alpha 90.000000
_cell_angle_beta 90.000000
_cell_angle_gamma 90.000000
_cell_volume 3729.575823
_symmetry_space_group_name_H-M "C M C A"
_symmetry_group_IT_number 64
_symmetry_cell_setting 'orthorhombic'
loop_
_space_group_symop_operation_xyz
x,y,z
-x,1/2-y,1/2+z
x,-y,-z
-x,1/2+y,1/2-z
-x,-y,-z
x,1/2+y,1/2-z
-x,y,z
x,1/2-y,1/2+z
1/2+x,1/2+y,z
1/2-x,-y,1/2+z
1/2+x,1/2-y,-z
1/2-x,y,1/2-z
1/2-x,1/2-y,-z
1/2+x,y,1/2-z
1/2-x,1/2+y,z
1/2+x,-y,1/2+z
loop_
_atom_site_type_symbol
_atom_site_label
_atom_site_fract_x
_atom_site_fract_y
_atom_site_fract_z
Si Si1 0.859691 0.802741 0.967941
Si Si2 0.343638 0.239776 0.847936
Si Si3 0.656139 0.542570 0.613202
Si Si4 0.784674 0.000000 0.000000
Si Si5 0.660669 0.888163 0.798730
O O1 0.843279 0.788456 0.905414
O O2 0.000000 0.760377 0.983206
O O3 0.750000 0.750000 0.000000
O O4 0.858310 0.908188 0.983202
O O5 0.500000 0.241803 0.829221
O O6 0.297761 0.136309 0.859144
O O7 0.236950 0.294193 0.813043
O O8 0.500000 0.555334 0.608044
O O9 0.708401 0.526969 0.553964
O O10 0.678454 0.456969 0.651745
O O11 0.500000 0.879934 0.788902
O O12 0.750000 0.925373 0.750000
#
# Coordination Sequence:
#
# PCOD9480415 Si02
#       5
#    16  16  16   8  16
#     4  11  23  37  58  90 129 167 206 250 303 364
#     4  10  21  41  62  89 124 164 206 256 307 366
#     4  10  22  38  63  95 129 166 209 254 311 375
#     4  12  20  38  60  96 133 170 209 252 313 372
#     4  11  24  44  66  92 119 159 208 262 319 377
#
# _framework density 19.305145
#
# number of rings (size 3 to 8) (size 9 to 14) (size 15 to 20)
#    0.000    1.333    4.444    1.333    0.000    2.667 
#    0.000    4.444    0.000    0.000    0.000    0.000 
#    0.000    0.000    0.000    0.000    0.000    0.000 
#
# Total GULP energy -200647.314886 kJ/mol
# GULP energy per Si atom -5573.536525 kJ/mol
# Density = 1.926121 g / cm^3
# Si number density = 19.305145 Si / 1000 Ang^3
#
#
#
# Elastic Constant Matrix: (Units=GPa)
#
#
# Indices 1 2 3 4 5 6 
#
# 1 105.9587 37.8372 43.6141 0.0000 0.0000 0.0000
# 2 37.8372 99.3752 20.5646 0.0000 0.0000 0.0000
# 3 43.6141 20.5646 69.3242 0.0000 0.0000 0.0000
# 4 0.0000 0.0000 0.0000 24.3700 0.0000 0.0000
# 5 0.0000 0.0000 0.0000 0.0000 57.6052 0.0000
# 6 0.0000 0.0000 0.0000 0.0000 0.0000 27.0311
#
#
#
# Elastic Compliance Matrix: (Units=1/GPa)
#
#
# Indices 1 2 3 4 5 6 
#
# 1 0.013913 -0.003714 -0.007652 0.000000 0.000000 0.000000
# 2 -0.003714 0.011712 -0.001138 0.000000 0.000000 0.000000
# 3 -0.007652 -0.001138 0.019576 0.000000 0.000000 0.000000
# 4 0.000000 0.000000 0.000000 0.041034 0.000000 0.000000
# 5 0.000000 0.000000 0.000000 0.000000 0.017360 0.000000
# 6 0.000000 0.000000 0.000000 0.000000 0.000000 0.036994
#
#
# Mechanical properties :
#
#
# Convention : Reuss Voigt Hill
#
# Bulk Modulus (GPa) = 49.51654 53.18775 51.35214
# Shear Modulus (GPa) = 29.01426 33.31074 31.16250
#
# Velocity S-wave (km/s) = 3.88097 4.15840 4.02208
# Velocity P-wave (km/s) = 6.76666 7.11810 6.94460
#
# Compressibility (1/GPa) = 0.02019527
#
# Stress axis : x y z
#
# Youngs Moduli (GPa) = 71.87290 85.37897 51.08199
#
# Poissons Ratio (x) = 0.31711 0.39086
# Poissons Ratio (y) = 0.26695 0.05812
# Poissons Ratio (z) = 0.54994 0.09714
#
# Static dielectric constant tensor:
#      x y z
#    x 1.685120 0.000000 0.000000 
#    y 0.000000 1.728580 0.000000 
#    z 0.000000 0.000000 1.690020 
# 
# From -- ./inp_files/47625.got.cif
#   From: 2010.05.17/outbox.cif.g08.bks.cpg/sg64_24_cif.got.tgz:47625.got - 2010.06.03 16:29:19.
