data_PCOD9480452
_publ_section_title
;
Structure prediction by ZEFSAII (Michael W. Deem and Ramdas Pophale) SiO2 
 PCOD9480452
Probable space group: C M C A
;
_chemical_formula_sum "Si O2"
_cell_formula_units_Z 88
_cell_length_a 22.903015
_cell_length_b 16.395357
_cell_length_c 11.333179
_cell_angle_alpha 90.000000
_cell_angle_beta 90.000000
_cell_angle_gamma 90.000000
_cell_volume 4255.643930
_symmetry_space_group_name_H-M "C M C A"
_symmetry_group_IT_number 64
_symmetry_cell_setting 'orthorhombic'
loop_
_space_group_symop_operation_xyz
x,y,z
-x,1/2-y,1/2+z
x,-y,-z
-x,1/2+y,1/2-z
-x,-y,-z
x,1/2+y,1/2-z
-x,y,z
x,1/2-y,1/2+z
1/2+x,1/2+y,z
1/2-x,-y,1/2+z
1/2+x,1/2-y,-z
1/2-x,y,1/2-z
1/2-x,1/2-y,-z
1/2+x,y,1/2-z
1/2-x,1/2+y,z
1/2+x,-y,1/2+z
loop_
_atom_site_type_symbol
_atom_site_label
_atom_site_fract_x
_atom_site_fract_y
_atom_site_fract_z
Si Si1 0.878735 0.590805 0.618938
Si Si2 0.000000 0.858174 0.428967
Si Si3 0.702155 0.692463 0.062066
Si Si4 0.000000 0.853346 0.703609
Si Si5 0.726317 0.977316 0.628975
Si Si6 0.902184 0.269109 0.197337
Si Si7 0.000000 0.469058 0.314073
O O1 0.842163 0.645240 0.526777
O O2 0.839961 0.509627 0.631719
O O3 0.885132 0.652162 0.727534
O O4 0.944578 0.559723 0.609927
O O5 0.000000 0.882376 0.566393
O O6 0.056534 0.801678 0.407507
O O7 0.000000 0.922408 0.317002
O O8 0.733576 0.618924 0.128434
O O9 0.658507 0.736002 0.150377
O O10 0.750000 0.750000 0.000000
O O11 0.056821 0.796380 0.733026
O O12 0.000000 0.934878 0.783519
O O13 0.750000 0.014475 0.750000
O O14 0.751633 0.000000 0.500000
#
# Coordination Sequence:
#
# PCOD9480452 Si02
#       7
#    16   8  16   8  16  16   8
#     4  10  23  43  66  94 138 174 229 280 352 425
#     4   9  20  39  58  94 132 165 216 268 345 415
#     4  11  25  41  65  97 131 180 233 297 344 419
#     4  11  20  38  66  97 132 168 226 286 339 427
#     4  10  24  45  67  98 136 180 238 284 350 433
#     4  10  22  37  64  95 127 174 220 277 350 410
#     4  10  21  41  66  97 132 181 213 286 346 422
#
# _framework density 20.678421
#
# number of rings (size 3 to 8) (size 9 to 14) (size 15 to 20)
#    0.000    1.818    0.000    3.000    7.636    1.455 
#    3.273    5.000    0.000    0.000    0.000    0.000 
#    0.000    0.000    0.000    0.000    0.000    0.000 
#
# Total GULP energy -245004.994924 kJ/mol
# GULP energy per Si atom -5568.295339 kJ/mol
# Density = 2.063136 g / cm^3
# Si number density = 20.678421 Si / 1000 Ang^3
#
#
#
# Elastic Constant Matrix: (Units=GPa)
#
#
# Indices 1 2 3 4 5 6 
#
# 1 80.8228 34.9175 56.9143 0.0000 0.0000 0.0000
# 2 34.9175 101.1893 22.6764 0.0000 0.0000 0.0000
# 3 56.9143 22.6764 101.2070 0.0000 0.0000 0.0000
# 4 0.0000 0.0000 0.0000 21.7038 0.0000 0.0000
# 5 0.0000 0.0000 0.0000 0.0000 25.7916 0.0000
# 6 0.0000 0.0000 0.0000 0.0000 0.0000 2.8918
#
#
#
# Elastic Compliance Matrix: (Units=1/GPa)
#
#
# Indices 1 2 3 4 5 6 
#
# 1 0.022881 -0.005277 -0.011685 0.000000 0.000000 0.000000
# 2 -0.005277 0.011622 0.000364 0.000000 0.000000 0.000000
# 3 -0.011685 0.000364 0.016370 0.000000 0.000000 0.000000
# 4 0.000000 0.000000 0.000000 0.046075 0.000000 0.000000
# 5 0.000000 0.000000 0.000000 0.000000 0.038772 0.000000
# 6 0.000000 0.000000 0.000000 0.000000 0.000000 0.345801
#
#
# Mechanical properties :
#
#
# Convention : Reuss Voigt Hill
#
# Bulk Modulus (GPa) = 56.57208 56.91507 56.74358
# Shear Modulus (GPa) = 9.60413 21.32485 15.46449
#
# Velocity S-wave (km/s) = 2.15745 3.21481 2.73766
# Velocity P-wave (km/s) = 5.79858 6.43146 6.12320
#
# Compressibility (1/GPa) = 0.01767657
#
# Stress axis : x y z
#
# Youngs Moduli (GPa) = 43.70482 86.04426 61.08633
#
# Poissons Ratio (x) = 0.45405 0.71378
# Poissons Ratio (y) = 0.23063 -0.02221
# Poissons Ratio (z) = 0.51068 -0.03128
#
# Static dielectric constant tensor:
#      x y z
#    x 1.839940 0.000000 0.000000 
#    y 0.000000 1.794720 0.000000 
#    z 0.000000 0.000000 1.994800 
# 
# From -- ./inp_files/18245.got.cif
#   From: 2010.05.17/outbox.cif.g08.bks.cpg/sg64_10_cif.got.tgz:18245.got - 2010.06.03 16:29:19.
