data_PCOD9480996
_publ_section_title
;
Structure prediction by ZEFSAII (Michael W. Deem and Ramdas Pophale) SiO2 
 PCOD9480996
Probable space group: C M C A
;
_chemical_formula_sum "Si O2"
_cell_formula_units_Z 68
_cell_length_a 10.647688
_cell_length_b 14.678362
_cell_length_c 21.165864
_cell_angle_alpha 90.000000
_cell_angle_beta 90.000000
_cell_angle_gamma 90.000000
_cell_volume 3308.025985
_symmetry_space_group_name_H-M "C M C A"
_symmetry_group_IT_number 64
_symmetry_cell_setting 'orthorhombic'
loop_
_space_group_symop_operation_xyz
x,y,z
-x,1/2-y,1/2+z
x,-y,-z
-x,1/2+y,1/2-z
-x,-y,-z
x,1/2+y,1/2-z
-x,y,z
x,1/2-y,1/2+z
1/2+x,1/2+y,z
1/2-x,-y,1/2+z
1/2+x,1/2-y,-z
1/2-x,y,1/2-z
1/2-x,1/2-y,-z
1/2+x,y,1/2-z
1/2-x,1/2+y,z
1/2+x,-y,1/2+z
loop_
_atom_site_type_symbol
_atom_site_label
_atom_site_fract_x
_atom_site_fract_y
_atom_site_fract_z
Si Si1 0.640859 0.174631 0.500072
Si Si2 0.790581 0.927131 0.599092
Si Si3 0.642539 0.280959 0.701177
Si Si4 0.000000 0.000000 0.500000
Si Si5 0.358115 0.086727 0.638806
O O1 0.500000 0.214318 0.494478
O O2 0.750000 0.250000 0.500000
O O3 0.672473 0.109011 0.441777
O O4 0.647100 0.120455 0.565819
O O5 0.844582 0.844067 0.639583
O O6 0.890965 0.964628 0.549675
O O7 0.742910 0.007484 0.644547
O O8 0.500000 0.288882 0.725959
O O9 0.750000 0.307688 0.750000
O O10 0.664334 0.176589 0.680073
O O11 0.500000 0.054563 0.651748
#
# Coordination Sequence:
#
# PCOD9480996 Si02
#       5
#    16  16  16   4  16
#     4  11  22  36  64  99 137 174 213 274 351 415
#     4  12  23  42  69 104 141 177 229 291 357 419
#     4  11  26  48  68  95 134 184 235 286 344 422
#     4  12  24  36  70 108 140 174 226 290 354 422
#     4  10  22  42  66  93 131 172 222 281 339 409
#
# _framework density 20.556066000000001
#
# number of rings (size 3 to 8) (size 9 to 14) (size 15 to 20)
#    0.000    0.941    5.882    0.706    1.647    4.706 
#    2.118    2.353    0.000    0.000    0.000    0.000 
#    0.000    0.000    0.000    0.000    0.000    0.000 
#
# Total GULP energy -189536.783280 kJ/mol
# GULP energy per Si atom -5574.611273 kJ/mol
# Density = 2.050928 g / cm^3
# Si number density = 20.556066 Si / 1000 Ang^3
#
#
#
# Elastic Constant Matrix: (Units=GPa)
#
#
# Indices 1 2 3 4 5 6 
#
# 1 138.1360 44.0028 28.9719 0.0000 0.0000 0.0000
# 2 44.0028 69.4359 0.6465 0.0000 0.0000 0.0000
# 3 28.9719 0.6465 54.6153 0.0000 0.0000 0.0000
# 4 0.0000 0.0000 0.0000 11.1117 0.0000 0.0000
# 5 0.0000 0.0000 0.0000 0.0000 22.6276 0.0000
# 6 0.0000 0.0000 0.0000 0.0000 0.0000 11.3655
#
#
#
# Elastic Compliance Matrix: (Units=1/GPa)
#
#
# Indices 1 2 3 4 5 6 
#
# 1 0.010492 -0.006598 -0.005488 0.000000 0.000000 0.000000
# 2 -0.006598 0.018552 0.003280 0.000000 0.000000 0.000000
# 3 -0.005488 0.003280 0.021182 0.000000 0.000000 0.000000
# 4 0.000000 0.000000 0.000000 0.089995 0.000000 0.000000
# 5 0.000000 0.000000 0.000000 0.000000 0.044194 0.000000
# 6 0.000000 0.000000 0.000000 0.000000 0.000000 0.087986
#
#
# Mechanical properties :
#
#
# Convention : Reuss Voigt Hill
#
# Bulk Modulus (GPa) = 30.65953 45.49217 38.07585
# Shear Modulus (GPa) = 16.61772 21.59200 19.10486
#
# Velocity S-wave (km/s) = 2.84634 3.24450 3.05192
# Velocity P-wave (km/s) = 5.07441 6.01785 5.56615
#
# Compressibility (1/GPa) = 0.03261629
#
# Stress axis : x y z
#
# Youngs Moduli (GPa) = 95.31175 53.90141 47.20978
#
# Poissons Ratio (x) = 0.35563 0.25907
# Poissons Ratio (y) = 0.62885 -0.15486
# Poissons Ratio (z) = 0.52303 -0.17682
#
# Static dielectric constant tensor:
#      x y z
#    x 1.721820 0.000000 0.000000 
#    y 0.000000 1.776060 0.000000 
#    z 0.000000 0.000000 1.715800 
# 
# From -- ./inp_files/36403.got.cif
#   From: 2010.05.17/outbox.cif.g08.bks.cpg/sg64_19_cif.got.tgz:36403.got - 2010.06.03 16:29:19.
