data_PCOD9480207
_publ_section_title
;
Structure prediction by ZEFSAII (Michael W. Deem and Ramdas Pophale) SiO2 
 PCOD9480207
Probable space group: C M C A
;
_chemical_formula_sum "Si O2"
_cell_formula_units_Z 96
_cell_length_a 22.893138
_cell_length_b 21.054953
_cell_length_c 9.177052
_cell_angle_alpha 90.000000
_cell_angle_beta 90.000000
_cell_angle_gamma 90.000000
_cell_volume 4423.467034
_symmetry_space_group_name_H-M "C M C A"
_symmetry_group_IT_number 64
_symmetry_cell_setting 'orthorhombic'
loop_
_space_group_symop_operation_xyz
x,y,z
-x,1/2-y,1/2+z
x,-y,-z
-x,1/2+y,1/2-z
-x,-y,-z
x,1/2+y,1/2-z
-x,y,z
x,1/2-y,1/2+z
1/2+x,1/2+y,z
1/2-x,-y,1/2+z
1/2+x,1/2-y,-z
1/2-x,y,1/2-z
1/2-x,1/2-y,-z
1/2+x,y,1/2-z
1/2-x,1/2+y,z
1/2+x,-y,1/2+z
loop_
_atom_site_type_symbol
_atom_site_label
_atom_site_fract_x
_atom_site_fract_y
_atom_site_fract_z
Si Si1 0.930294 0.571485 0.438816
Si Si2 0.228039 0.433935 0.918137
Si Si3 0.344650 0.746039 0.725262
Si Si4 0.435314 0.952137 0.885479
Si Si5 0.118178 0.337636 0.961150
Si Si6 0.676168 0.842934 0.482947
O O1 0.923999 0.500000 0.500000
O O2 0.909153 0.562345 0.271858
O O3 0.888870 0.625617 0.509006
O O4 0.000000 0.587926 0.443641
O O5 0.250000 0.441765 0.750000
O O6 0.174262 0.383903 0.932969
O O7 0.280481 0.401084 0.005911
O O8 0.216242 0.500000 0.000000
O O9 0.374777 0.700659 0.608756
O O10 0.385567 0.788377 0.828757
O O11 0.312207 0.797289 0.622757
O O12 0.313273 0.700389 0.841425
O O13 0.500000 0.977607 0.853507
O O14 0.435495 0.884882 0.964007
O O15 0.407676 0.000000 0.000000
#
# Coordination Sequence:
#
# PCOD9480207 Si02
#       6
#    16  16  16  16  16  16
#     4  10  21  39  63  89 120 157 199 251 302 352
#     4  12  26  41  65  92 122 155 196 252 302 347
#     4  10  24  41  65  86 120 168 197 241 296 352
#     4  10  21  39  63  89 120 157 199 251 302 352
#     4  11  23  43  61  91 122 155 205 243 295 357
#     4  11  23  43  61  91 122 155 205 243 295 357
#
# _framework density 21.702434
#
# number of rings (size 3 to 8) (size 9 to 14) (size 15 to 20)
#    0.000    1.333    3.333    1.000    4.667    4.000 
#    0.000    5.000    0.000    0.000    0.000    0.000 
#    0.000    0.000    0.000    0.000    0.000    0.000 
#
# Total GULP energy -267745.672132 kJ/mol
# GULP energy per Si atom -5578.034836 kJ/mol
# Density = 2.165304 g / cm^3
# Si number density = 21.702434 Si / 1000 Ang^3
#
#
#
# Elastic Constant Matrix: (Units=GPa)
#
#
# Indices 1 2 3 4 5 6 
#
# 1 99.2500 40.3395 20.7351 0.0000 0.0000 0.0000
# 2 40.3395 135.5742 64.2231 0.0000 0.0000 0.0000
# 3 20.7351 64.2231 115.8089 0.0000 0.0000 0.0000
# 4 0.0000 0.0000 0.0000 44.0367 0.0000 0.0000
# 5 0.0000 0.0000 0.0000 0.0000 -15.6951 0.0000
# 6 0.0000 0.0000 0.0000 0.0000 0.0000 -260.8665
#
#
#
# Elastic Compliance Matrix: (Units=1/GPa)
#
#
# Indices 1 2 3 4 5 6 
#
# 1 0.011466 -0.003308 -0.000218 0.000000 0.000000 0.000000
# 2 -0.003308 0.010959 -0.005485 0.000000 0.000000 0.000000
# 3 -0.000218 -0.005485 0.011716 0.000000 0.000000 0.000000
# 4 0.000000 0.000000 0.000000 0.022708 0.000000 0.000000
# 5 0.000000 0.000000 0.000000 0.000000 -0.063714 0.000000
# 6 0.000000 0.000000 0.000000 0.000000 0.000000 -0.003833
#
#
# Mechanical properties :
#
#
# Convention : Reuss Voigt Hill
#
# Bulk Modulus (GPa) = 62.04503 66.80313 64.42408
# Shear Modulus (GPa) = 393.82303 -31.48260 181.17022
#
# Velocity S-wave (km/s) = 13.48551 -3.81287 9.14661
# Velocity P-wave (km/s) = 16.46601 3.38589 11.88684
#
# Compressibility (1/GPa) = 0.01611733
#
# Stress axis : x y z
#
# Youngs Moduli (GPa) = 87.21621 91.25227 85.35537
#
# Poissons Ratio (x) = 0.30188 0.01863
# Poissons Ratio (y) = 0.28853 0.46817
# Poissons Ratio (z) = 0.01904 0.50051
#
# Static dielectric constant tensor:
#      x y z
#    x 1.866710 0.000000 0.000000 
#    y 0.000000 1.829800 0.000000 
#    z 0.000000 0.000000 1.764240 
# 
# From -- ./inp_files/10335.got.cif
#   From: 2010.05.17/outbox.cif.g08.bks.cpg/sg64_6_cif.got.tgz:10335.got - 2010.06.03 16:29:19.
