data_PCOD9480215
_publ_section_title
;
Structure prediction by ZEFSAII (Michael W. Deem and Ramdas Pophale) SiO2 
 PCOD9480215
Probable space group: C M C A
;
_chemical_formula_sum "Si O2"
_cell_formula_units_Z 48
_cell_length_a 27.356064
_cell_length_b 15.187428
_cell_length_c 4.731176
_cell_angle_alpha 90.000000
_cell_angle_beta 90.000000
_cell_angle_gamma 90.000000
_cell_volume 1965.653424
_symmetry_space_group_name_H-M "C M C A"
_symmetry_group_IT_number 64
_symmetry_cell_setting 'orthorhombic'
loop_
_space_group_symop_operation_xyz
x,y,z
-x,1/2-y,1/2+z
x,-y,-z
-x,1/2+y,1/2-z
-x,-y,-z
x,1/2+y,1/2-z
-x,y,z
x,1/2-y,1/2+z
1/2+x,1/2+y,z
1/2-x,-y,1/2+z
1/2+x,1/2-y,-z
1/2-x,y,1/2-z
1/2-x,1/2-y,-z
1/2+x,y,1/2-z
1/2-x,1/2+y,z
1/2+x,-y,1/2+z
loop_
_atom_site_type_symbol
_atom_site_label
_atom_site_fract_x
_atom_site_fract_y
_atom_site_fract_z
Si Si1 0.555637 0.688355 0.189455
Si Si2 0.860529 0.941110 0.741715
Si Si3 0.807275 0.193759 0.661563
O O1 0.500000 0.657852 0.143600
O O2 0.561855 0.722581 0.508296
O O3 0.596101 0.616556 0.128262
O O4 0.822747 0.887187 0.536937
O O5 0.885504 0.000000 0.500000
O O6 0.838862 0.000000 0.000000
O O7 0.824737 0.277234 0.470795
O O8 0.750000 0.187501 0.750000
#
# Coordination Sequence:
#
# PCOD9480215 Si02
#       3
#    16  16  16
#     4  10  21  39  63  90 127 178 228 269 313 380
#     4  12  24  38  61  96 136 170 210 270 340 400
#     4  10  21  41  67  90 118 164 221 274 324 390
#
# _framework density 24.419357999999999
#
# number of rings (size 3 to 8) (size 9 to 14) (size 15 to 20)
#    0.000    1.333    0.000    6.000    0.000    1.333 
#    0.000    6.667    0.000    0.000    0.000    0.000 
#    0.000    0.000    0.000    0.000    0.000    0.000 
#
# Total GULP energy -133707.543732 kJ/mol
# GULP energy per Si atom -5571.147655 kJ/mol
# Density = 2.436378 g / cm^3
# Si number density = 24.419358 Si / 1000 Ang^3
#
#
#
# Elastic Constant Matrix: (Units=GPa)
#
#
# Indices 1 2 3 4 5 6 
#
# 1 125.4815 60.5099 42.1205 0.0000 0.0000 0.0000
# 2 60.5099 80.2073 43.5041 0.0000 0.0000 0.0000
# 3 42.1205 43.5041 138.9962 0.0000 0.0000 0.0000
# 4 0.0000 0.0000 0.0000 59.8115 0.0000 0.0000
# 5 0.0000 0.0000 0.0000 0.0000 33.7656 0.0000
# 6 0.0000 0.0000 0.0000 0.0000 0.0000 7.8731
#
#
#
# Elastic Compliance Matrix: (Units=1/GPa)
#
#
# Indices 1 2 3 4 5 6 
#
# 1 0.012645 -0.008987 -0.001019 0.000000 0.000000 0.000000
# 2 -0.008987 0.021404 -0.003976 0.000000 0.000000 0.000000
# 3 -0.001019 -0.003976 0.008748 0.000000 0.000000 0.000000
# 4 0.000000 0.000000 0.000000 0.016719 0.000000 0.000000
# 5 0.000000 0.000000 0.000000 0.000000 0.029616 0.000000
# 6 0.000000 0.000000 0.000000 0.000000 0.000000 0.127015
#
#
# Mechanical properties :
#
#
# Convention : Reuss Voigt Hill
#
# Bulk Modulus (GPa) = 67.41704 70.77268 69.09486
# Shear Modulus (GPa) = 20.07585 33.52674 26.80130
#
# Velocity S-wave (km/s) = 2.87039 3.70936 3.31651
# Velocity P-wave (km/s) = 6.21719 6.88411 6.55913
#
# Compressibility (1/GPa) = 0.01483305
#
# Stress axis : x y z
#
# Youngs Moduli (GPa) = 79.08220 46.72003 114.31634
#
# Poissons Ratio (x) = 0.41987 0.11650
# Poissons Ratio (y) = 0.71071 0.45451
# Poissons Ratio (z) = 0.08059 0.18575
#
# Static dielectric constant tensor:
#      x y z
#    x 1.951480 0.000000 0.000000 
#    y 0.000000 2.104190 0.000000 
#    z 0.000000 0.000000 1.889130 
# 
# From -- ./inp_files/2561.got.cif
#   From: 2010.05.17/outbox.cif.g08.bks.cpg/sg64_2_cif.got.tgz:2561.got - 2010.06.03 16:29:19.
