data_PCOD9480327
_publ_section_title
;
Structure prediction by ZEFSAII (Michael W. Deem and Ramdas Pophale) SiO2 
 PCOD9480327
Probable space group: C M C A
;
_chemical_formula_sum "Si O2"
_cell_formula_units_Z 56
_cell_length_a 15.676337
_cell_length_b 13.236667
_cell_length_c 12.440888
_cell_angle_alpha 90.000000
_cell_angle_beta 90.000000
_cell_angle_gamma 90.000000
_cell_volume 2581.514773
_symmetry_space_group_name_H-M "C M C A"
_symmetry_group_IT_number 64
_symmetry_cell_setting 'orthorhombic'
loop_
_space_group_symop_operation_xyz
x,y,z
-x,1/2-y,1/2+z
x,-y,-z
-x,1/2+y,1/2-z
-x,-y,-z
x,1/2+y,1/2-z
-x,y,z
x,1/2-y,1/2+z
1/2+x,1/2+y,z
1/2-x,-y,1/2+z
1/2+x,1/2-y,-z
1/2-x,y,1/2-z
1/2-x,1/2-y,-z
1/2+x,y,1/2-z
1/2-x,1/2+y,z
1/2+x,-y,1/2+z
loop_
_atom_site_type_symbol
_atom_site_label
_atom_site_fract_x
_atom_site_fract_y
_atom_site_fract_z
Si Si1 0.832205 0.288842 0.936496
Si Si2 0.500000 0.508866 0.180592
Si Si3 0.250000 0.821993 0.250000
Si Si4 0.500000 0.171297 0.507386
Si Si5 0.670700 0.485448 0.678621
O O1 0.817727 0.241803 0.816960
O O2 0.837473 0.408923 0.919681
O O3 0.916613 0.240339 0.985348
O O4 0.750000 0.250000 0.000000
O O5 0.500000 0.408192 0.106973
O O6 0.584086 0.513414 0.253513
O O7 0.500000 0.603012 0.098936
O O8 0.298987 0.898411 0.168322
O O9 0.750000 0.444213 0.750000
#
# Coordination Sequence:
#
# PCOD9480327 Si02
#       5
#    16   8   8   8  16
#     4  12  24  42  67  99 131 170 222 273 334 393
#     4  11  21  40  66  91 132 174 220 267 332 396
#     4  10  22  42  66  92 126 172 208 266 328 392
#     4  11  23  38  64  99 128 174 220 273 326 398
#     4  10  21  40  63  90 124 170 213 262 325 385
#
# _framework density 21.692689000000001
#
# number of rings (size 3 to 8) (size 9 to 14) (size 15 to 20)
#    0.857    0.286    4.286    2.571    0.000    1.143 
#    0.000    1.429    0.000    3.429    0.000    0.000 
#    0.000    0.000    0.000    0.000    0.000    0.000 
#
# Total GULP energy -156371.251314 kJ/mol
# GULP energy per Si atom -5584.687547 kJ/mol
# Density = 2.164332 g / cm^3
# Si number density = 21.692689 Si / 1000 Ang^3
#
#
#
# Elastic Constant Matrix: (Units=GPa)
#
#
# Indices 1 2 3 4 5 6 
#
# 1 173.4543 31.7768 20.9463 0.0000 0.0000 0.0000
# 2 31.7768 115.9506 26.8059 0.0000 0.0000 0.0000
# 3 20.9463 26.8059 44.7274 0.0000 0.0000 0.0000
# 4 0.0000 0.0000 0.0000 38.6098 0.0000 0.0000
# 5 0.0000 0.0000 0.0000 0.0000 43.9612 0.0000
# 6 0.0000 0.0000 0.0000 0.0000 0.0000 80.5644
#
#
#
# Elastic Compliance Matrix: (Units=1/GPa)
#
#
# Indices 1 2 3 4 5 6 
#
# 1 0.006252 -0.001203 -0.002207 0.000000 0.000000 0.000000
# 2 -0.001203 0.010243 -0.005575 0.000000 0.000000 0.000000
# 3 -0.002207 -0.005575 0.026733 0.000000 0.000000 0.000000
# 4 0.000000 0.000000 0.000000 0.025900 0.000000 0.000000
# 5 0.000000 0.000000 0.000000 0.000000 0.022747 0.000000
# 6 0.000000 0.000000 0.000000 0.000000 0.000000 0.012412
#
#
# Mechanical properties :
#
#
# Convention : Reuss Voigt Hill
#
# Bulk Modulus (GPa) = 39.59314 54.79894 47.19604
# Shear Modulus (GPa) = 38.26215 49.60061 43.93138
#
# Velocity S-wave (km/s) = 4.20435 4.78694 4.50507
# Velocity P-wave (km/s) = 6.46995 7.47458 6.99033
#
# Compressibility (1/GPa) = 0.02525690
#
# Stress axis : x y z
#
# Youngs Moduli (GPa) = 159.94534 97.62716 37.40762
#
# Poissons Ratio (x) = 0.11747 0.08255
# Poissons Ratio (y) = 0.19245 0.20856
# Poissons Ratio (z) = 0.35297 0.54431
#
# Static dielectric constant tensor:
#      x y z
#    x 1.701570 0.000000 0.000000 
#    y 0.000000 1.806240 0.000000 
#    z 0.000000 0.000000 1.825840 
# 
# From -- ./inp_files/13783.got.cif
#   From: 2010.05.17/outbox.cif.g08.bks.cpg/sg64_7_cif.got.tgz:13783.got - 2010.06.03 16:29:19.
