data_PCOD9480684
_publ_section_title
;
Structure prediction by ZEFSAII (Michael W. Deem and Ramdas Pophale) SiO2 
 PCOD9480684
Probable space group: C M C A
;
_chemical_formula_sum "Si O2"
_cell_formula_units_Z 112
_cell_length_a 14.599368
_cell_length_b 32.683438
_cell_length_c 11.892470
_cell_angle_alpha 90.000000
_cell_angle_beta 90.000000
_cell_angle_gamma 90.000000
_cell_volume 5674.581716
_symmetry_space_group_name_H-M "C M C A"
_symmetry_group_IT_number 64
_symmetry_cell_setting 'orthorhombic'
loop_
_space_group_symop_operation_xyz
x,y,z
-x,1/2-y,1/2+z
x,-y,-z
-x,1/2+y,1/2-z
-x,-y,-z
x,1/2+y,1/2-z
-x,y,z
x,1/2-y,1/2+z
1/2+x,1/2+y,z
1/2-x,-y,1/2+z
1/2+x,1/2-y,-z
1/2-x,y,1/2-z
1/2-x,1/2-y,-z
1/2+x,y,1/2-z
1/2-x,1/2+y,z
1/2+x,-y,1/2+z
loop_
_atom_site_type_symbol
_atom_site_label
_atom_site_fract_x
_atom_site_fract_y
_atom_site_fract_z
Si Si1 0.106449 0.264095 0.093042
Si Si2 0.395328 0.454065 0.008696
Si Si3 0.222828 0.307554 0.528541
Si Si4 0.395473 0.452877 0.491092
Si Si5 0.354885 0.676269 0.789059
Si Si6 0.251810 0.398789 0.883303
Si Si7 0.139417 0.583925 0.747974
O O1 0.163232 0.221936 0.108712
O O2 0.102667 0.289609 0.208896
O O3 0.000000 0.259402 0.054179
O O4 0.179163 0.287954 0.010479
O O5 0.500000 0.454637 0.969909
O O6 0.337926 0.422505 0.935737
O O7 0.357953 0.500000 0.000000
O O8 0.390678 0.440333 0.137962
O O9 0.156070 0.312677 0.419580
O O10 0.243316 0.351897 0.577755
O O11 0.363702 0.500000 0.500000
O O12 0.500000 0.451981 0.530988
O O13 0.334205 0.422197 0.562910
O O14 0.391526 0.437128 0.362763
O O15 0.250000 0.674139 0.750000
O O16 0.392671 0.630927 0.765857
O O17 0.250000 0.401585 0.750000
O O18 0.250000 0.584230 0.750000
#
# Coordination Sequence:
#
# PCOD9480684 Si02
#       7
#    16  16  16  16  16  16  16
#     4  10  22  38  65  96 124 165 214 265 330 389
#     4  11  25  42  64  96 133 174 222 274 329 390
#     4  10  22  43  61  91 133 165 210 271 323 387
#     4  11  25  42  64  97 131 167 219 280 333 387
#     4   9  18  37  62  89 122 159 206 265 319 382
#     4  12  26  44  67  91 131 183 219 264 330 396
#     4  11  20  39  71  97 126 168 219 271 329 387
#
# _framework density 19.737138000000002
#
# number of rings (size 3 to 8) (size 9 to 14) (size 15 to 20)
#    0.000    1.429    2.857    2.571    2.000    7.429 
#    0.000    0.000    0.000    0.000    0.000    0.000 
#    0.000    0.000    0.000    0.000    0.000    0.000 
#
# Total GULP energy -312672.827116 kJ/mol
# GULP energy per Si atom -5583.443341 kJ/mol
# Density = 1.969222 g / cm^3
# Si number density = 19.737138 Si / 1000 Ang^3
#
#
#
# Elastic Constant Matrix: (Units=GPa)
#
#
# Indices 1 2 3 4 5 6 
#
# 1 133.4508 58.5318 27.3470 0.0000 0.0000 0.0000
# 2 58.5318 177.7849 56.7701 0.0000 0.0000 0.0000
# 3 27.3470 56.7701 104.5528 0.0000 0.0000 0.0000
# 4 0.0000 0.0000 0.0000 28.2713 0.0000 0.0000
# 5 0.0000 0.0000 0.0000 0.0000 41.4226 0.0000
# 6 0.0000 0.0000 0.0000 0.0000 0.0000 31.5411
#
#
#
# Elastic Compliance Matrix: (Units=1/GPa)
#
#
# Indices 1 2 3 4 5 6 
#
# 1 0.008825 -0.002623 -0.000884 0.000000 0.000000 0.000000
# 2 -0.002623 0.007584 -0.003432 0.000000 0.000000 0.000000
# 3 -0.000884 -0.003432 0.011659 0.000000 0.000000 0.000000
# 4 0.000000 0.000000 0.000000 0.035372 0.000000 0.000000
# 5 0.000000 0.000000 0.000000 0.000000 0.024141 0.000000
# 6 0.000000 0.000000 0.000000 0.000000 0.000000 0.031705
#
#
# Mechanical properties :
#
#
# Convention : Reuss Voigt Hill
#
# Bulk Modulus (GPa) = 70.47046 77.89845 74.18445
# Shear Modulus (GPa) = 36.25956 38.45632 37.35794
#
# Velocity S-wave (km/s) = 4.29082 4.41888 4.35532
# Velocity P-wave (km/s) = 7.76725 8.09871 7.93471
#
# Compressibility (1/GPa) = 0.01419034
#
# Stress axis : x y z
#
# Youngs Moduli (GPa) = 113.31342 131.85122 85.76872
#
# Poissons Ratio (x) = 0.34587 0.07582
# Poissons Ratio (y) = 0.29724 0.29436
# Poissons Ratio (z) = 0.10016 0.45251
#
# Static dielectric constant tensor:
#      x y z
#    x 1.700630 0.000000 0.000000 
#    y 0.000000 1.710310 0.000000 
#    z 0.000000 0.000000 1.689670 
# 
# From -- ./inp_files/14934.got.cif
#   From: 2010.05.17/outbox.cif.g08.bks.cpg/sg64_8_cif.got.tgz:14934.got - 2010.06.03 16:29:19.
