data_PCOD9480205
_publ_section_title
;
Structure prediction by ZEFSAII (Michael W. Deem and Ramdas Pophale) SiO2 
 PCOD9480205
Probable space group: C M C A
;
_chemical_formula_sum "Si O2"
_cell_formula_units_Z 56
_cell_length_a 15.919089
_cell_length_b 12.808085
_cell_length_c 12.882317
_cell_angle_alpha 90.000000
_cell_angle_beta 90.000000
_cell_angle_gamma 90.000000
_cell_volume 2626.614840
_symmetry_space_group_name_H-M "C M C A"
_symmetry_group_IT_number 64
_symmetry_cell_setting 'orthorhombic'
loop_
_space_group_symop_operation_xyz
x,y,z
-x,1/2-y,1/2+z
x,-y,-z
-x,1/2+y,1/2-z
-x,-y,-z
x,1/2+y,1/2-z
-x,y,z
x,1/2-y,1/2+z
1/2+x,1/2+y,z
1/2-x,-y,1/2+z
1/2+x,1/2-y,-z
1/2-x,y,1/2-z
1/2-x,1/2-y,-z
1/2+x,y,1/2-z
1/2-x,1/2+y,z
1/2+x,-y,1/2+z
loop_
_atom_site_type_symbol
_atom_site_label
_atom_site_fract_x
_atom_site_fract_y
_atom_site_fract_z
Si Si1 0.500000 0.155729 0.528628
Si Si2 0.236650 0.000000 0.500000
Si Si3 0.663887 0.393381 0.694431
Si Si4 0.678025 0.701950 0.927851
Si Si5 0.500000 0.527046 0.183223
O O1 0.413630 0.217189 0.523928
O O2 0.500000 0.086248 0.426241
O O3 0.500000 0.091881 0.638864
O O4 0.176400 0.941264 0.580405
O O5 0.297148 0.920174 0.436030
O O6 0.750000 0.423928 0.750000
O O7 0.669439 0.267383 0.678292
O O8 0.582380 0.437292 0.752571
O O9 0.750000 0.750000 0.000000
#
# Coordination Sequence:
#
# PCOD9480205 Si02
#       5
#     8   8  16  16   8
#     4  11  21  40  64  89 125 169 213 261 325 382
#     4  10  22  42  64  90 130 172 210 266 332 394
#     4  11  23  40  63  94 129 166 215 266 323 387
#     4  10  21  39  63  88 123 167 213 267 321 383
#     4  11  23  39  64  93 125 167 215 266 317 391
#
# _framework density 21.320218000000001
#
# number of rings (size 3 to 8) (size 9 to 14) (size 15 to 20)
#    0.000    1.429    0.000    7.714    0.000    4.000 
#    0.000    7.143    0.000    0.000    0.000    0.000 
#    0.000    0.000    0.000    0.000    0.000    0.000 
#
# Total GULP energy -156027.129766 kJ/mol
# GULP energy per Si atom -5572.397492 kJ/mol
# Density = 2.127169 g / cm^3
# Si number density = 21.320218 Si / 1000 Ang^3
#
#
#
# Elastic Constant Matrix: (Units=GPa)
#
#
# Indices 1 2 3 4 5 6 
#
# 1 207.8127 37.4036 53.5641 0.0000 0.0000 0.0000
# 2 37.4036 74.8030 33.5364 0.0000 0.0000 0.0000
# 3 53.5641 33.5364 95.8756 0.0000 0.0000 0.0000
# 4 0.0000 0.0000 0.0000 41.9249 0.0000 0.0000
# 5 0.0000 0.0000 0.0000 0.0000 -8.7480 0.0000
# 6 0.0000 0.0000 0.0000 0.0000 0.0000 103.1680
#
#
#
# Elastic Compliance Matrix: (Units=1/GPa)
#
#
# Indices 1 2 3 4 5 6 
#
# 1 0.005802 -0.001717 -0.002641 0.000000 0.000000 0.000000
# 2 -0.001717 0.016363 -0.004764 0.000000 0.000000 0.000000
# 3 -0.002641 -0.004764 0.013572 0.000000 0.000000 0.000000
# 4 0.000000 0.000000 0.000000 0.023852 0.000000 0.000000
# 5 0.000000 0.000000 0.000000 0.000000 -0.114311 0.000000
# 6 0.000000 0.000000 0.000000 0.000000 0.000000 0.009693
#
#
# Mechanical properties :
#
#
# Convention : Reuss Voigt Hill
#
# Bulk Modulus (GPa) = 57.16730 69.72216 63.44473
# Shear Modulus (GPa) = -238.61422 44.20146 -97.20638
#
# Velocity S-wave (km/s) = -10.59067 4.55820 -6.75962
# Velocity P-wave (km/s) = 11.07600 7.77665 5.57680
#
# Compressibility (1/GPa) = 0.01749252
#
# Stress axis : x y z
#
# Youngs Moduli (GPa) = 172.36246 61.11331 73.68111
#
# Poissons Ratio (x) = 0.10494 0.19457
# Poissons Ratio (y) = 0.29597 0.35104
# Poissons Ratio (z) = 0.45516 0.29116
#
# Static dielectric constant tensor:
#      x y z
#    x 1.747140 0.000000 0.000000 
#    y 0.000000 1.966010 0.000000 
#    z 0.000000 0.000000 1.829460 
# 
# From -- ./inp_files/13800.got.cif
#   From: 2010.05.17/outbox.cif.g08.bks.cpg/sg64_7_cif.got.tgz:13800.got - 2010.06.03 16:29:19.
