data_PCOD9480402
_publ_section_title
;
Structure prediction by ZEFSAII (Michael W. Deem and Ramdas Pophale) SiO2 
 PCOD9480402
Probable space group: C M C A
;
_chemical_formula_sum "Si O2"
_cell_formula_units_Z 64
_cell_length_a 15.270288
_cell_length_b 16.197481
_cell_length_c 9.502329
_cell_angle_alpha 90.000000
_cell_angle_beta 90.000000
_cell_angle_gamma 90.000000
_cell_volume 2350.307953
_symmetry_space_group_name_H-M "C M C A"
_symmetry_group_IT_number 64
_symmetry_cell_setting 'orthorhombic'
loop_
_space_group_symop_operation_xyz
x,y,z
-x,1/2-y,1/2+z
x,-y,-z
-x,1/2+y,1/2-z
-x,-y,-z
x,1/2+y,1/2-z
-x,y,z
x,1/2-y,1/2+z
1/2+x,1/2+y,z
1/2-x,-y,1/2+z
1/2+x,1/2-y,-z
1/2-x,y,1/2-z
1/2-x,1/2-y,-z
1/2+x,y,1/2-z
1/2-x,1/2+y,z
1/2+x,-y,1/2+z
loop_
_atom_site_type_symbol
_atom_site_label
_atom_site_fract_x
_atom_site_fract_y
_atom_site_fract_z
Si Si1 0.820906 0.803385 0.906789
Si Si2 0.097059 0.083202 0.589853
Si Si3 0.098128 0.773827 0.627893
Si Si4 0.895983 0.025522 0.160719
O O1 0.654990 0.754568 0.735093
O O2 0.830084 0.895671 0.842933
O O3 0.750000 0.750000 0.000000
O O4 0.898924 0.801064 0.019587
O O5 0.127000 0.148085 0.470323
O O6 0.000000 0.115258 0.627998
O O7 0.091972 0.000000 0.500000
O O8 0.136422 0.047979 0.735183
O O9 0.000000 0.790203 0.675499
O O10 0.000000 0.041919 0.200892
O O11 0.896982 0.000000 0.000000
#
# Coordination Sequence:
#
# PCOD9480402 Si02
#       4
#    16  16  16  16
#     4  12  26  44  66 102 155 199 242 318 407 484
#     4   9  17  35  65 100 133 177 247 317 366 427
#     4  11  23  42  71 103 142 201 264 317 381 473
#     4  10  21  40  71 108 143 190 258 325 381 458
#
# _framework density 27.230473
#
# number of rings (size 3 to 8) (size 9 to 14) (size 15 to 20)
#    0.000    1.500    2.500    3.000    3.500    0.000 
#    0.000    1.250    0.000    0.000    0.000    0.000 
#    0.000    0.000    0.000    0.000    0.000    0.000 
#
# Total GULP energy -178144.670019 kJ/mol
# GULP energy per Si atom -5567.020938 kJ/mol
# Density = 2.716850 g / cm^3
# Si number density = 27.230473 Si / 1000 Ang^3
#
#
#
# Elastic Constant Matrix: (Units=GPa)
#
#
# Indices 1 2 3 4 5 6 
#
# 1 129.0655 54.0253 53.6340 0.0000 0.0000 0.0000
# 2 54.0253 106.2125 54.5265 0.0000 0.0000 0.0000
# 3 53.6340 54.5265 263.9280 0.0000 0.0000 0.0000
# 4 0.0000 0.0000 0.0000 65.9582 0.0000 0.0000
# 5 0.0000 0.0000 0.0000 0.0000 43.0576 0.0000
# 6 0.0000 0.0000 0.0000 0.0000 0.0000 21.2079
#
#
#
# Elastic Compliance Matrix: (Units=1/GPa)
#
#
# Indices 1 2 3 4 5 6 
#
# 1 0.010127 -0.004581 -0.001112 0.000000 0.000000 0.000000
# 2 -0.004581 0.012604 -0.001673 0.000000 0.000000 0.000000
# 3 -0.001112 -0.001673 0.004360 0.000000 0.000000 0.000000
# 4 0.000000 0.000000 0.000000 0.015161 0.000000 0.000000
# 5 0.000000 0.000000 0.000000 0.000000 0.023225 0.000000
# 6 0.000000 0.000000 0.000000 0.000000 0.000000 0.047152
#
#
# Mechanical properties :
#
#
# Convention : Reuss Voigt Hill
#
# Bulk Modulus (GPa) = 80.89943 91.50863 86.20403
# Shear Modulus (GPa) = 38.02832 48.51276 43.27054
#
# Velocity S-wave (km/s) = 3.74108 4.22543 3.99061
# Velocity P-wave (km/s) = 6.95949 7.58181 7.27731
#
# Compressibility (1/GPa) = 0.01236103
#
# Stress axis : x y z
#
# Youngs Moduli (GPa) = 98.74241 79.34026 229.33274
#
# Poissons Ratio (x) = 0.36343 0.25495
# Poissons Ratio (y) = 0.45230 0.38369
# Poissons Ratio (z) = 0.10977 0.13274
#
# Static dielectric constant tensor:
#      x y z
#    x 2.618360 0.000000 0.000000 
#    y 0.000000 2.295020 0.000000 
#    z 0.000000 0.000000 2.122540 
# 
# From -- ./inp_files/15502.got.cif
#   From: 2010.05.17/outbox.cif.g08.bks.cpg/sg64_8_cif.got.tgz:15502.got - 2010.06.03 16:29:19.
