data_PCOD9480922
_publ_section_title
;
Structure prediction by ZEFSAII (Michael W. Deem and Ramdas Pophale) SiO2 
 PCOD9480922
Probable space group: C M C A
;
_chemical_formula_sum "Si O2"
_cell_formula_units_Z 96
_cell_length_a 22.385299
_cell_length_b 8.897265
_cell_length_c 24.894501
_cell_angle_alpha 90.000000
_cell_angle_beta 90.000000
_cell_angle_gamma 90.000000
_cell_volume 4958.186414
_symmetry_space_group_name_H-M "C M C A"
_symmetry_group_IT_number 64
_symmetry_cell_setting 'orthorhombic'
loop_
_space_group_symop_operation_xyz
x,y,z
-x,1/2-y,1/2+z
x,-y,-z
-x,1/2+y,1/2-z
-x,-y,-z
x,1/2+y,1/2-z
-x,y,z
x,1/2-y,1/2+z
1/2+x,1/2+y,z
1/2-x,-y,1/2+z
1/2+x,1/2-y,-z
1/2-x,y,1/2-z
1/2-x,1/2-y,-z
1/2+x,y,1/2-z
1/2-x,1/2+y,z
1/2+x,-y,1/2+z
loop_
_atom_site_type_symbol
_atom_site_label
_atom_site_fract_x
_atom_site_fract_y
_atom_site_fract_z
Si Si1 0.066296 0.822511 0.001113
Si Si2 0.929000 0.720495 0.680872
Si Si3 0.070370 0.368397 0.705384
Si Si4 0.228690 0.129939 0.042347
Si Si5 0.640355 0.128669 0.084738
Si Si6 0.382660 0.219269 0.898366
O O1 0.112245 0.714678 0.032912
O O2 0.000000 0.802808 0.024875
O O3 0.067021 0.776828 0.939050
O O4 0.079881 0.000000 0.000000
O O5 0.916341 0.818912 0.733906
O O6 0.919882 0.545010 0.694752
O O7 0.884781 0.772171 0.633784
O O8 0.000000 0.740238 0.666931
O O9 0.105621 0.270428 0.661981
O O10 0.000000 0.338146 0.697320
O O11 0.288452 0.105707 0.077551
O O12 0.176208 0.196079 0.078797
O O13 0.250000 0.250000 0.000000
O O14 0.211062 0.000000 0.000000
O O15 0.618448 0.959144 0.093845
#
# Coordination Sequence:
#
# PCOD9480922 Si02
#       6
#    16  16  16  16  16  16
#     4  11  23  37  56  86 122 158 200 251 308 370
#     4  10  22  41  65  92 125 163 205 255 313 375
#     4  10  22  41  65  93 125 164 205 253 314 374
#     4  12  24  43  63  89 124 167 211 254 307 370
#     4  12  24  39  61  91 121 161 208 255 312 372
#     4  12  24  38  62  90 122 162 206 255 311 371
#
# _framework density 19.361916999999998
#
# number of rings (size 3 to 8) (size 9 to 14) (size 15 to 20)
#    0.000    0.833    3.333    4.000    2.333    7.333 
#    0.000    0.833    0.000    4.000    0.000    0.000 
#    0.000    0.000    0.000    0.000    0.000    0.000 
#
# Total GULP energy -267899.309301 kJ/mol
# GULP energy per Si atom -5581.235610 kJ/mol
# Density = 1.931785 g / cm^3
# Si number density = 19.361917 Si / 1000 Ang^3
#
#
#
# Elastic Constant Matrix: (Units=GPa)
#
#
# Indices 1 2 3 4 5 6 
#
# 1 90.7886 9.0446 15.6982 0.0000 0.0000 0.0000
# 2 9.0446 61.1890 -15.8181 0.0000 0.0000 0.0000
# 3 15.6982 -15.8181 68.6539 0.0000 0.0000 0.0000
# 4 0.0000 0.0000 0.0000 39.6798 0.0000 0.0000
# 5 0.0000 0.0000 0.0000 0.0000 25.8271 0.0000
# 6 0.0000 0.0000 0.0000 0.0000 0.0000 16.1118
#
#
#
# Elastic Compliance Matrix: (Units=1/GPa)
#
#
# Indices 1 2 3 4 5 6 
#
# 1 0.011846 -0.002607 -0.003309 0.000000 0.000000 0.000000
# 2 -0.002607 0.017951 0.004732 0.000000 0.000000 0.000000
# 3 -0.003309 0.004732 0.016413 0.000000 0.000000 0.000000
# 4 0.000000 0.000000 0.000000 0.025202 0.000000 0.000000
# 5 0.000000 0.000000 0.000000 0.000000 0.038719 0.000000
# 6 0.000000 0.000000 0.000000 0.000000 0.000000 0.062066
#
#
# Mechanical properties :
#
#
# Convention : Reuss Voigt Hill
#
# Bulk Modulus (GPa) = 22.80868 26.49789 24.65329
# Shear Modulus (GPa) = 26.42986 30.43751 28.43369
#
# Velocity S-wave (km/s) = 3.69866 3.96918 3.83631
# Velocity P-wave (km/s) = 5.48141 5.89247 5.69065
#
# Compressibility (1/GPa) = 0.04384295
#
# Stress axis : x y z
#
# Youngs Moduli (GPa) = 84.41323 55.70599 60.92806
#
# Poissons Ratio (x) = 0.14520 0.20163
# Poissons Ratio (y) = 0.22003 -0.28832
# Poissons Ratio (z) = 0.27935 -0.26360
#
# Static dielectric constant tensor:
#      x y z
#    x 1.804580 0.000000 0.000000 
#    y 0.000000 1.707640 0.000000 
#    z 0.000000 0.000000 1.650350 
# 
# From -- ./inp_files/46577.got.cif
#   From: 2010.05.17/outbox.cif.g08.bks.cpg/sg64_24_cif.got.tgz:46577.got - 2010.06.03 16:29:19.
