data_PCOD9480792
_publ_section_title
;
Structure prediction by ZEFSAII (Michael W. Deem and Ramdas Pophale) SiO2 
 PCOD9480792
Probable space group: C M C A
;
_chemical_formula_sum "Si O2"
_cell_formula_units_Z 88
_cell_length_a 15.053745
_cell_length_b 25.197365
_cell_length_c 11.652850
_cell_angle_alpha 90.000000
_cell_angle_beta 90.000000
_cell_angle_gamma 90.000000
_cell_volume 4420.097388
_symmetry_space_group_name_H-M "C M C A"
_symmetry_group_IT_number 64
_symmetry_cell_setting 'orthorhombic'
loop_
_space_group_symop_operation_xyz
x,y,z
-x,1/2-y,1/2+z
x,-y,-z
-x,1/2+y,1/2-z
-x,-y,-z
x,1/2+y,1/2-z
-x,y,z
x,1/2-y,1/2+z
1/2+x,1/2+y,z
1/2-x,-y,1/2+z
1/2+x,1/2-y,-z
1/2-x,y,1/2-z
1/2-x,1/2-y,-z
1/2+x,y,1/2-z
1/2-x,1/2+y,z
1/2+x,-y,1/2+z
loop_
_atom_site_type_symbol
_atom_site_label
_atom_site_fract_x
_atom_site_fract_y
_atom_site_fract_z
Si Si1 0.000000 0.054558 0.070244
Si Si2 0.848562 0.815092 0.779169
Si Si3 0.349039 0.366363 0.012010
Si Si4 0.312630 0.600818 0.641016
Si Si5 0.603490 0.694962 0.755684
Si Si6 0.500000 0.106776 0.195932
Si Si7 0.500000 0.941370 0.053351
O O1 0.000000 0.058169 0.210434
O O2 0.084383 0.088153 0.028398
O O3 0.000000 0.000000 0.000000
O O4 0.750000 0.831501 0.750000
O O5 0.867009 0.755608 0.737762
O O6 0.916401 0.856367 0.724975
O O7 0.854146 0.821004 0.916038
O O8 0.254194 0.394447 0.034056
O O9 0.380799 0.338468 0.128665
O O10 0.250000 0.582733 0.750000
O O11 0.340154 0.661801 0.664590
O O12 0.406755 0.570591 0.621140
O O13 0.500000 0.693590 0.725539
O O14 0.500000 0.093482 0.062509
O O15 0.500000 0.000000 0.000000
#
# Coordination Sequence:
#
# PCOD9480792 Si02
#       7
#     8  16  16  16  16   8   8
#     4  10  22  41  68  91 120 171 222 270 320 374
#     4  11  22  39  60  90 128 165 206 251 315 389
#     4  10  22  40  61  91 126 162 214 262 308 382
#     4  10  23  42  67  93 125 171 214 263 317 377
#     4  11  21  38  62  91 124 165 211 254 312 383
#     4  10  24  40  60  94 128 166 208 266 326 375
#     4  12  26  45  66  97 134 165 210 274 329 371
#
# _framework density 19.909063
#
# number of rings (size 3 to 8) (size 9 to 14) (size 15 to 20)
#    0.000    1.455    2.727    2.727    0.000    8.000 
#    0.000    2.727    0.000    0.000    0.000    0.000 
#    0.000    0.000    0.000    0.000    0.000    0.000 
#
# Total GULP energy -245444.060620 kJ/mol
# GULP energy per Si atom -5578.274105 kJ/mol
# Density = 1.986375 g / cm^3
# Si number density = 19.909063 Si / 1000 Ang^3
#
#
#
# Elastic Constant Matrix: (Units=GPa)
#
#
# Indices 1 2 3 4 5 6 
#
# 1 163.0203 21.0559 32.2331 0.0000 0.0000 0.0000
# 2 21.0559 62.9163 12.9397 0.0000 0.0000 0.0000
# 3 32.2331 12.9397 59.9720 0.0000 0.0000 0.0000
# 4 0.0000 0.0000 0.0000 15.4917 0.0000 0.0000
# 5 0.0000 0.0000 0.0000 0.0000 18.5336 0.0000
# 6 0.0000 0.0000 0.0000 0.0000 0.0000 -31.5421
#
#
#
# Elastic Compliance Matrix: (Units=1/GPa)
#
#
# Indices 1 2 3 4 5 6 
#
# 1 0.007023 -0.001647 -0.003419 0.000000 0.000000 0.000000
# 2 -0.001647 0.017019 -0.002787 0.000000 0.000000 0.000000
# 3 -0.003419 -0.002787 0.019113 0.000000 0.000000 0.000000
# 4 0.000000 0.000000 0.000000 0.064551 0.000000 0.000000
# 5 0.000000 0.000000 0.000000 0.000000 0.053956 0.000000
# 6 0.000000 0.000000 0.000000 0.000000 0.000000 -0.031704
#
#
# Mechanical properties :
#
#
# Convention : Reuss Voigt Hill
#
# Bulk Modulus (GPa) = 36.43141 46.48512 41.45827
# Shear Modulus (GPa) = 32.29686 15.14196 23.71941
#
# Velocity S-wave (km/s) = 4.03205 2.76081 3.45539
# Velocity P-wave (km/s) = 6.32576 5.79329 6.06537
#
# Compressibility (1/GPa) = 0.02744884
#
# Stress axis : x y z
#
# Youngs Moduli (GPa) = 142.38878 58.75957 52.31916
#
# Poissons Ratio (x) = 0.09679 0.17889
# Poissons Ratio (y) = 0.23453 0.14580
# Poissons Ratio (z) = 0.48687 0.16374
#
# Static dielectric constant tensor:
#      x y z
#    x 1.728450 0.000000 0.000000 
#    y 0.000000 1.674680 0.000000 
#    z 0.000000 0.000000 -3.845090 
# 
# From -- ./inp_files/14631.got.cif
#   From: 2010.05.17/outbox.cif.g08.bks.cpg/sg64_8_cif.got.tgz:14631.got - 2010.06.03 16:29:19.
