data_PCOD9480497
_publ_section_title
;
Structure prediction by ZEFSAII (Michael W. Deem and Ramdas Pophale) SiO2 
 PCOD9480497
Probable space group: C M C A
;
_chemical_formula_sum "Si O2"
_cell_formula_units_Z 116
_cell_length_a 26.208890
_cell_length_b 8.928192
_cell_length_c 24.500310
_cell_angle_alpha 90.000000
_cell_angle_beta 90.000000
_cell_angle_gamma 90.000000
_cell_volume 5733.023589
_symmetry_space_group_name_H-M "C M C A"
_symmetry_group_IT_number 64
_symmetry_cell_setting 'orthorhombic'
loop_
_space_group_symop_operation_xyz
x,y,z
-x,1/2-y,1/2+z
x,-y,-z
-x,1/2+y,1/2-z
-x,-y,-z
x,1/2+y,1/2-z
-x,y,z
x,1/2-y,1/2+z
1/2+x,1/2+y,z
1/2-x,-y,1/2+z
1/2+x,1/2-y,-z
1/2-x,y,1/2-z
1/2-x,1/2-y,-z
1/2+x,y,1/2-z
1/2-x,1/2+y,z
1/2+x,-y,1/2+z
loop_
_atom_site_type_symbol
_atom_site_label
_atom_site_fract_x
_atom_site_fract_y
_atom_site_fract_z
Si Si1 0.078880 0.686295 0.547371
Si Si2 0.615298 0.369848 0.456045
Si Si3 0.199948 0.851776 0.287715
Si Si4 0.149637 0.829702 0.699575
Si Si5 0.210561 0.300958 0.594539
Si Si6 0.687976 0.849332 0.406962
Si Si7 0.941467 0.560907 0.134303
Si Si8 0.000000 0.500000 0.500000
O O1 0.074026 0.773940 0.489962
O O2 0.138238 0.654819 0.555450
O O3 0.059643 0.795313 0.594481
O O4 0.044530 0.542741 0.544203
O O5 0.629940 0.500000 0.500000
O O6 0.663835 0.272996 0.438176
O O7 0.589526 0.440065 0.402201
O O8 0.250000 0.842330 0.250000
O O9 0.155886 0.765466 0.254385
O O10 0.208881 0.770843 0.344981
O O11 0.185368 0.024088 0.296854
O O12 0.168950 0.725045 0.649778
O O13 0.093549 0.891600 0.685253
O O14 0.265302 0.250134 0.571471
O O15 0.205573 0.479438 0.598635
O O16 0.000000 0.519153 0.145815
#
# Coordination Sequence:
#
# PCOD9480497 Si02
#       8
#    16  16  16  16  16  16  16   4
#     4  10  23  39  62  94 131 170 220 279 321 391
#     4  10  23  41  66  97 132 172 225 270 336 403
#     4  12  23  38  67 100 127 174 222 274 326 399
#     4  11  23  41  64  98 132 167 220 278 334 396
#     4  12  24  42  66  95 134 183 218 271 333 410
#     4  11  25  41  62  97 139 173 221 269 336 402
#     4  10  21  42  67  94 126 170 217 281 336 388
#     4  12  20  40  62  92 124 176 228 278 326 384
#
# _framework density 20.233650000000001
#
# number of rings (size 3 to 8) (size 9 to 14) (size 15 to 20)
#    0.000    1.103    3.448    2.897    4.828    1.379 
#    1.241    0.690    0.000    0.000    0.000    0.000 
#    0.000    0.000    0.000    0.000    0.000    0.000 
#
# Total GULP energy -323619.728005 kJ/mol
# GULP energy per Si atom -5579.650483 kJ/mol
# Density = 2.018760 g / cm^3
# Si number density = 20.233650 Si / 1000 Ang^3
#
#
#
# Elastic Constant Matrix: (Units=GPa)
#
#
# Indices 1 2 3 4 5 6 
#
# 1 125.2140 24.3268 33.2473 0.0000 0.0000 0.0000
# 2 24.3268 111.2414 16.0960 0.0000 0.0000 0.0000
# 3 33.2473 16.0960 60.5601 0.0000 0.0000 0.0000
# 4 0.0000 0.0000 0.0000 23.7723 0.0000 0.0000
# 5 0.0000 0.0000 0.0000 0.0000 12.3289 0.0000
# 6 0.0000 0.0000 0.0000 0.0000 0.0000 -433.8585
#
#
#
# Elastic Compliance Matrix: (Units=1/GPa)
#
#
# Indices 1 2 3 4 5 6 
#
# 1 0.009549 -0.001383 -0.004875 0.000000 0.000000 0.000000
# 2 -0.001383 0.009549 -0.001779 0.000000 0.000000 0.000000
# 3 -0.004875 -0.001779 0.019662 0.000000 0.000000 0.000000
# 4 0.000000 0.000000 0.000000 0.042066 0.000000 0.000000
# 5 0.000000 0.000000 0.000000 0.000000 0.081110 0.000000
# 6 0.000000 0.000000 0.000000 0.000000 0.000000 -0.002305
#
#
# Mechanical properties :
#
#
# Convention : Reuss Voigt Hill
#
# Bulk Modulus (GPa) = 44.07851 49.37285 46.72568
# Shear Modulus (GPa) = 27.28251 -64.66178 -18.68964
#
# Velocity S-wave (km/s) = 3.67600 -5.65923 -3.04253
# Velocity P-wave (km/s) = 6.31264 4.27180 3.28642
#
# Compressibility (1/GPa) = 0.02268679
#
# Stress axis : x y z
#
# Youngs Moduli (GPa) = 104.71809 104.71998 50.86027
#
# Poissons Ratio (x) = 0.14482 0.24795
# Poissons Ratio (y) = 0.14482 0.09047
# Poissons Ratio (z) = 0.51051 0.18628
#
# Static dielectric constant tensor:
#      x y z
#    x 1.764850 0.000000 0.000000 
#    y 0.000000 1.756330 0.000000 
#    z 0.000000 0.000000 1.709970 
# 
# From -- ./inp_files/51078.got.cif
#   From: 2010.05.17/outbox.cif.g08.bks.cpg/sg64_26_cif.got.tgz:51078.got - 2010.06.03 16:29:19.
