data_PCOD9480955
_publ_section_title
;
Structure prediction by ZEFSAII (Michael W. Deem and Ramdas Pophale) SiO2 
 PCOD9480955
Probable space group: C M C A
;
_chemical_formula_sum "Si O2"
_cell_formula_units_Z 116
_cell_length_a 25.284333
_cell_length_b 24.416340
_cell_length_c 9.086713
_cell_angle_alpha 90.000000
_cell_angle_beta 90.000000
_cell_angle_gamma 90.000000
_cell_volume 5609.690187
_symmetry_space_group_name_H-M "C M C A"
_symmetry_group_IT_number 64
_symmetry_cell_setting 'orthorhombic'
loop_
_space_group_symop_operation_xyz
x,y,z
-x,1/2-y,1/2+z
x,-y,-z
-x,1/2+y,1/2-z
-x,-y,-z
x,1/2+y,1/2-z
-x,y,z
x,1/2-y,1/2+z
1/2+x,1/2+y,z
1/2-x,-y,1/2+z
1/2+x,1/2-y,-z
1/2-x,y,1/2-z
1/2-x,1/2-y,-z
1/2+x,y,1/2-z
1/2-x,1/2+y,z
1/2+x,-y,1/2+z
loop_
_atom_site_type_symbol
_atom_site_label
_atom_site_fract_x
_atom_site_fract_y
_atom_site_fract_z
Si Si1 0.798427 0.534646 0.861910
Si Si2 0.941379 0.795963 0.125062
Si Si3 0.816641 0.150162 0.116192
Si Si4 0.000000 0.000000 0.500000
Si Si5 0.123799 0.233786 0.595659
Si Si6 0.590324 0.089744 0.502089
Si Si7 0.088633 0.003573 0.243481
Si Si8 0.195648 0.358128 0.954007
O O1 0.750000 0.540074 0.750000
O O2 0.850788 0.504877 0.798363
O O3 0.814121 0.592843 0.932464
O O4 0.777869 0.500000 0.000000
O O5 0.898194 0.792217 0.254461
O O6 0.939020 0.854229 0.042212
O O7 0.000000 0.787151 0.184441
O O8 0.925275 0.749892 0.007864
O O9 0.845224 0.209166 0.121291
O O10 0.817537 0.128340 0.283888
O O11 0.848849 0.109125 0.012190
O O12 0.757734 0.155808 0.055449
O O13 0.953319 0.000259 0.627284
O O14 0.161771 0.192764 0.509758
O O15 0.580584 0.046017 0.628769
O O16 0.579146 0.059507 0.348140
#
# Coordination Sequence:
#
# PCOD9480955 Si02
#       8
#    16  16  16   4  16  16  16  16
#     4  12  27  44  71 105 144 185 232 293 360 433
#     4  11  24  43  69  98 132 185 239 293 351 411
#     4  10  22  41  69 105 138 179 229 284 355 419
#     4  12  28  46  72 104 140 190 248 302 356 410
#     4  11  22  45  66  99 142 174 231 291 348 419
#     4  10  24  44  73  99 140 187 237 292 349 429
#     4  11  25  48  72 104 147 187 241 296 356 432
#     4  11  23  41  70 102 138 182 227 284 350 427
#
# _framework density 20.678504
#
# number of rings (size 3 to 8) (size 9 to 14) (size 15 to 20)
#    0.000    1.103    2.069    3.310    7.724    1.655 
#    2.483    0.000    6.069    0.000    0.000    0.000 
#    0.000    0.000    0.000    0.000    0.000    0.000 
#
# Total GULP energy -323654.790108 kJ/mol
# GULP energy per Si atom -5580.255002 kJ/mol
# Density = 2.063144 g / cm^3
# Si number density = 20.678504 Si / 1000 Ang^3
#
#
#
# Elastic Constant Matrix: (Units=GPa)
#
#
# Indices 1 2 3 4 5 6 
#
# 1 96.1273 36.2507 51.9622 0.0000 0.0000 0.0000
# 2 36.2507 85.4185 48.9025 0.0000 0.0000 0.0000
# 3 51.9622 48.9025 116.4833 0.0000 0.0000 0.0000
# 4 0.0000 0.0000 0.0000 23.1541 0.0000 0.0000
# 5 0.0000 0.0000 0.0000 0.0000 33.9675 0.0000
# 6 0.0000 0.0000 0.0000 0.0000 0.0000 -0.9029
#
#
#
# Elastic Compliance Matrix: (Units=1/GPa)
#
#
# Indices 1 2 3 4 5 6 
#
# 1 0.014340 -0.003190 -0.005058 0.000000 0.000000 0.000000
# 2 -0.003190 0.016121 -0.005345 0.000000 0.000000 0.000000
# 3 -0.005058 -0.005345 0.013085 0.000000 0.000000 0.000000
# 4 0.000000 0.000000 0.000000 0.043189 0.000000 0.000000
# 5 0.000000 0.000000 0.000000 0.000000 0.029440 0.000000
# 6 0.000000 0.000000 0.000000 0.000000 0.000000 -1.107532
#
#
# Mechanical properties :
#
#
# Convention : Reuss Voigt Hill
#
# Bulk Modulus (GPa) = 61.12277 63.58443 62.35360
# Shear Modulus (GPa) = -5.21529 21.97132 8.37802
#
# Velocity S-wave (km/s) = -1.58983 3.26317 2.01503
# Velocity P-wave (km/s) = 5.12374 6.70921 5.96935
#
# Compressibility (1/GPa) = 0.01636051
#
# Stress axis : x y z
#
# Youngs Moduli (GPa) = 69.73595 62.03135 76.42372
#
# Poissons Ratio (x) = 0.19789 0.38652
# Poissons Ratio (y) = 0.22247 0.40847
# Poissons Ratio (z) = 0.35269 0.33155
#
# Static dielectric constant tensor:
#      x y z
#    x 1.722940 0.000000 0.000000 
#    y 0.000000 1.743230 0.000000 
#    z 0.000000 0.000000 1.729730 
# 
# From -- ./inp_files/9745.got.cif
#   From: 2010.05.17/outbox.cif.g08.bks.cpg/sg64_5_cif.got.tgz:9745.got - 2010.06.03 16:29:19.
