data_PCOD9480887
_publ_section_title
;
Structure prediction by ZEFSAII (Michael W. Deem and Ramdas Pophale) SiO2 
 PCOD9480887
Probable space group: C M C A
;
_chemical_formula_sum "Si O2"
_cell_formula_units_Z 112
_cell_length_a 15.711697
_cell_length_b 28.046516
_cell_length_c 11.519514
_cell_angle_alpha 90.000000
_cell_angle_beta 90.000000
_cell_angle_gamma 90.000000
_cell_volume 5076.170162
_symmetry_space_group_name_H-M "C M C A"
_symmetry_group_IT_number 64
_symmetry_cell_setting 'orthorhombic'
loop_
_space_group_symop_operation_xyz
x,y,z
-x,1/2-y,1/2+z
x,-y,-z
-x,1/2+y,1/2-z
-x,-y,-z
x,1/2+y,1/2-z
-x,y,z
x,1/2-y,1/2+z
1/2+x,1/2+y,z
1/2-x,-y,1/2+z
1/2+x,1/2-y,-z
1/2-x,y,1/2-z
1/2-x,1/2-y,-z
1/2+x,y,1/2-z
1/2-x,1/2+y,z
1/2+x,-y,1/2+z
loop_
_atom_site_type_symbol
_atom_site_label
_atom_site_fract_x
_atom_site_fract_y
_atom_site_fract_z
Si Si1 0.759519 0.525794 0.880665
Si Si2 0.098619 0.756646 0.043120
Si Si3 0.158489 0.157940 0.390732
Si Si4 0.903537 0.914960 0.056219
Si Si5 0.094310 0.398700 0.091352
Si Si6 0.350533 0.829371 0.273033
Si Si7 0.858914 0.343976 0.627009
O O1 0.750000 0.503256 0.750000
O O2 0.667159 0.545787 0.918359
O O3 0.829221 0.567914 0.864668
O O4 0.789534 0.500000 0.000000
O O5 0.151705 0.708391 0.043195
O O6 0.116595 0.781744 0.167131
O O7 0.000000 0.744192 0.033790
O O8 0.119660 0.796197 0.945705
O O9 0.111878 0.116166 0.459679
O O10 0.121951 0.163133 0.261790
O O11 0.258176 0.146812 0.384617
O O12 0.873436 0.870687 0.135294
O O13 0.000000 0.929353 0.084293
O O14 0.901192 0.890691 0.929418
O O15 0.102540 0.348856 0.160318
O O16 0.000000 0.418828 0.108561
O O17 0.250000 0.826239 0.250000
#
# Coordination Sequence:
#
# PCOD9480887 Si02
#       7
#    16  16  16  16  16  16  16
#     4  12  27  49  74 109 143 180 228 289 353 434
#     4  11  24  37  56  92 133 179 231 284 334 395
#     4  11  24  39  62  93 132 183 229 287 350 409
#     4  11  21  43  74  97 126 173 223 279 341 415
#     4  12  23  42  70  99 135 182 229 279 348 416
#     4  11  20  38  67  94 129 174 226 276 328 398
#     4  10  22  41  62  88 129 175 230 285 344 411
#
# _framework density 22.063877999999999
#
# number of rings (size 3 to 8) (size 9 to 14) (size 15 to 20)
#    0.000    0.857    4.286    4.286    4.000    4.000 
#    0.000    0.000    0.000    0.000    0.000    0.000 
#    0.000    0.000    0.000    0.000    0.000    0.000 
#
# Total GULP energy -312882.055278 kJ/mol
# GULP energy per Si atom -5587.179559 kJ/mol
# Density = 2.201366 g / cm^3
# Si number density = 22.063878 Si / 1000 Ang^3
#
#
#
# Elastic Constant Matrix: (Units=GPa)
#
#
# Indices 1 2 3 4 5 6 
#
# 1 92.0952 -4.8683 -5.4263 0.0000 0.0000 0.0000
# 2 -4.8683 19.2788 13.8906 0.0000 0.0000 0.0000
# 3 -5.4263 13.8906 110.7130 0.0000 0.0000 0.0000
# 4 0.0000 0.0000 0.0000 31.4295 0.0000 0.0000
# 5 0.0000 0.0000 0.0000 0.0000 -18.9547 0.0000
# 6 0.0000 0.0000 0.0000 0.0000 0.0000 -7.8483
#
#
#
# Elastic Compliance Matrix: (Units=1/GPa)
#
#
# Indices 1 2 3 4 5 6 
#
# 1 0.011010 0.002629 0.000210 0.000000 0.000000 0.000000
# 2 0.002629 0.057653 -0.007105 0.000000 0.000000 0.000000
# 3 0.000210 -0.007105 0.009934 0.000000 0.000000 0.000000
# 4 0.000000 0.000000 0.000000 0.031817 0.000000 0.000000
# 5 0.000000 0.000000 0.000000 0.000000 -0.052757 0.000000
# 6 0.000000 0.000000 0.000000 0.000000 0.000000 -0.127416
#
#
# Mechanical properties :
#
#
# Convention : Reuss Voigt Hill
#
# Bulk Modulus (GPa) = 14.27240 25.47546 19.87393
# Shear Modulus (GPa) = -132.02405 15.49134 -58.26635
#
# Velocity S-wave (km/s) = -7.74384 2.65262 -5.14445
# Velocity P-wave (km/s) = 8.57166 4.57746 5.12446
#
# Compressibility (1/GPa) = 0.07006531
#
# Stress axis : x y z
#
# Youngs Moduli (GPa) = 90.82925 17.34507 100.66412
#
# Poissons Ratio (x) = -0.04560 -0.02111
# Poissons Ratio (y) = -0.23879 0.71518
# Poissons Ratio (z) = -0.01905 0.12323
#
# Static dielectric constant tensor:
#      x y z
#    x 1.774130 0.000000 0.000000 
#    y 0.000000 1.795630 0.000000 
#    z 0.000000 0.000000 2.031920 
# 
# From -- ./inp_files/14982.got.cif
#   From: 2010.05.17/outbox.cif.g08.bks.cpg/sg64_8_cif.got.tgz:14982.got - 2010.06.03 16:29:19.
