data_PCOD9480712
_publ_section_title
;
Structure prediction by ZEFSAII (Michael W. Deem and Ramdas Pophale) SiO2 
 PCOD9480712
Probable space group: C M C A
;
_chemical_formula_sum "Si O2"
_cell_formula_units_Z 72
_cell_length_a 13.460674
_cell_length_b 17.298491
_cell_length_c 13.479981
_cell_angle_alpha 90.000000
_cell_angle_beta 90.000000
_cell_angle_gamma 90.000000
_cell_volume 3138.804787
_symmetry_space_group_name_H-M "C M C A"
_symmetry_group_IT_number 64
_symmetry_cell_setting 'orthorhombic'
loop_
_space_group_symop_operation_xyz
x,y,z
-x,1/2-y,1/2+z
x,-y,-z
-x,1/2+y,1/2-z
-x,-y,-z
x,1/2+y,1/2-z
-x,y,z
x,1/2-y,1/2+z
1/2+x,1/2+y,z
1/2-x,-y,1/2+z
1/2+x,1/2-y,-z
1/2-x,y,1/2-z
1/2-x,1/2-y,-z
1/2+x,y,1/2-z
1/2-x,1/2+y,z
1/2+x,-y,1/2+z
loop_
_atom_site_type_symbol
_atom_site_label
_atom_site_fract_x
_atom_site_fract_y
_atom_site_fract_z
Si Si1 0.891842 0.990823 0.383540
Si Si2 0.112970 0.145341 0.259126
Si Si3 0.618555 0.796492 0.371703
Si Si4 0.621189 0.086551 0.456909
Si Si5 0.750000 0.902625 0.250000
O O1 0.797177 0.949530 0.338987
O O2 0.000000 0.952980 0.361509
O O3 0.884666 0.000000 0.500000
O O4 0.893995 0.073388 0.331838
O O5 0.156211 0.214825 0.326800
O O6 0.154259 0.110117 0.155174
O O7 0.000000 0.171505 0.232923
O O8 0.500000 0.790839 0.381116
O O9 0.652228 0.841145 0.472235
O O10 0.657101 0.854416 0.288462
O O11 0.500000 0.084303 0.455394
O O12 0.647700 0.000000 0.500000
#
# Coordination Sequence:
#
# PCOD9480712 Si02
#       5
#    16  16  16  16   8
#     4  10  23  43  65  91 127 169 213 267 332 397
#     4   9  19  38  63  89 121 163 207 259 326 391
#     4  10  22  39  59  88 124 159 203 263 325 384
#     4   9  17  33  60  89 118 160 214 265 314 379
#     4  12  24  38  62  92 122 166 216 260 316 394
#
# _framework density 22.938669000000001
#
# number of rings (size 3 to 8) (size 9 to 14) (size 15 to 20)
#    0.000    2.222    0.000    2.000    0.000    8.889 
#    0.000    8.889    0.000    0.667    0.000    0.000 
#    0.000    0.000    0.000    0.000    0.000    0.000 
#
# Total GULP energy -200607.442982 kJ/mol
# GULP energy per Si atom -5572.428972 kJ/mol
# Density = 2.288646 g / cm^3
# Si number density = 22.938669 Si / 1000 Ang^3
#
#
#
# Elastic Constant Matrix: (Units=GPa)
#
#
# Indices 1 2 3 4 5 6 
#
# 1 53.3772 1.3028 4.2677 0.0000 0.0000 0.0000
# 2 1.3028 83.0801 76.8679 0.0000 0.0000 0.0000
# 3 4.2677 76.8679 192.3470 0.0000 0.0000 0.0000
# 4 0.0000 0.0000 0.0000 37.7244 0.0000 0.0000
# 5 0.0000 0.0000 0.0000 0.0000 22.2660 0.0000
# 6 0.0000 0.0000 0.0000 0.0000 0.0000 16.4064
#
#
#
# Elastic Compliance Matrix: (Units=1/GPa)
#
#
# Indices 1 2 3 4 5 6 
#
# 1 0.018769 0.000144 -0.000474 0.000000 0.000000 0.000000
# 2 0.000144 0.019099 -0.007636 0.000000 0.000000 0.000000
# 3 -0.000474 -0.007636 0.008261 0.000000 0.000000 0.000000
# 4 0.000000 0.000000 0.000000 0.026508 0.000000 0.000000
# 5 0.000000 0.000000 0.000000 0.000000 0.044912 0.000000
# 6 0.000000 0.000000 0.000000 0.000000 0.000000 0.060952
#
#
# Mechanical properties :
#
#
# Convention : Reuss Voigt Hill
#
# Bulk Modulus (GPa) = 33.11488 54.85347 43.98418
# Shear Modulus (GPa) = 24.45016 31.70375 28.07696
#
# Velocity S-wave (km/s) = 3.26834 3.72171 3.50237
# Velocity P-wave (km/s) = 5.35821 6.51407 5.96421
#
# Compressibility (1/GPa) = 0.03019790
#
# Stress axis : x y z
#
# Youngs Moduli (GPa) = 53.27941 52.35827 121.05112
#
# Poissons Ratio (x) = -0.00756 0.05739
# Poissons Ratio (y) = -0.00769 0.92433
# Poissons Ratio (z) = 0.02526 0.39980
#
# Static dielectric constant tensor:
#      x y z
#    x 1.904310 0.000000 0.000000 
#    y 0.000000 1.852420 0.000000 
#    z 0.000000 0.000000 1.842920 
# 
# From -- ./inp_files/23493.got.cif
#   From: 2010.05.17/outbox.cif.g08.bks.cpg/sg64_12_cif.got.tgz:23493.got - 2010.06.03 16:29:19.
