data_PCOD9480572
_publ_section_title
;
Structure prediction by ZEFSAII (Michael W. Deem and Ramdas Pophale) SiO2 
 PCOD9480572
Probable space group: C M C A
;
_chemical_formula_sum "Si O2"
_cell_formula_units_Z 56
_cell_length_a 17.819553
_cell_length_b 5.310124
_cell_length_c 26.278195
_cell_angle_alpha 90.000000
_cell_angle_beta 90.000000
_cell_angle_gamma 90.000000
_cell_volume 2486.548871
_symmetry_space_group_name_H-M "C M C A"
_symmetry_group_IT_number 64
_symmetry_cell_setting 'orthorhombic'
loop_
_space_group_symop_operation_xyz
x,y,z
-x,1/2-y,1/2+z
x,-y,-z
-x,1/2+y,1/2-z
-x,-y,-z
x,1/2+y,1/2-z
-x,y,z
x,1/2-y,1/2+z
1/2+x,1/2+y,z
1/2-x,-y,1/2+z
1/2+x,1/2-y,-z
1/2-x,y,1/2-z
1/2-x,1/2-y,-z
1/2+x,y,1/2-z
1/2-x,1/2+y,z
1/2+x,-y,1/2+z
loop_
_atom_site_type_symbol
_atom_site_label
_atom_site_fract_x
_atom_site_fract_y
_atom_site_fract_z
Si Si1 0.000000 0.698351 0.716432
Si Si2 0.281856 0.299983 0.807287
Si Si3 0.300225 0.516065 0.558269
Si Si4 0.585033 0.474239 0.350194
O O1 0.929488 0.764150 0.679970
O O2 0.000000 0.435047 0.744363
O O3 0.250000 0.328024 0.750000
O O4 0.234708 0.069565 0.831050
O O5 0.366007 0.203194 0.813138
O O6 0.328648 0.500000 0.500000
O O7 0.257196 0.782368 0.563932
O O8 0.367725 0.500352 0.598630
O O9 0.500000 0.378876 0.359095
#
# Coordination Sequence:
#
# PCOD9480572 Si02
#       4
#     8  16  16  16
#     4  10  26  40  59  86 135 170 210 258 318 374
#     4  10  22  36  56  80 115 158 205 248 301 368
#     4  10  22  44  70  96 128 166 212 266 327 391
#     4  10  24  41  64  94 126 171 211 272 315 378
#
# _framework density 22.521177000000002
#
# number of rings (size 3 to 8) (size 9 to 14) (size 15 to 20)
#    0.857    1.143    0.000    1.714    8.000    2.857 
#    0.000    0.000    0.000    5.143    0.000    0.000 
#    0.000    0.000    0.000    0.000    0.000    0.000 
#
# Total GULP energy -156432.149552 kJ/mol
# GULP energy per Si atom -5586.862484 kJ/mol
# Density = 2.246992 g / cm^3
# Si number density = 22.521177 Si / 1000 Ang^3
#
#
#
# Elastic Constant Matrix: (Units=GPa)
#
#
# Indices 1 2 3 4 5 6 
#
# 1 169.5574 22.6082 66.0503 0.0000 0.0000 0.0000
# 2 22.6082 107.0269 19.3461 0.0000 0.0000 0.0000
# 3 66.0503 19.3461 170.3409 0.0000 0.0000 0.0000
# 4 0.0000 0.0000 0.0000 22.1398 0.0000 0.0000
# 5 0.0000 0.0000 0.0000 0.0000 56.3870 0.0000
# 6 0.0000 0.0000 0.0000 0.0000 0.0000 31.6697
#
#
#
# Elastic Compliance Matrix: (Units=1/GPa)
#
#
# Indices 1 2 3 4 5 6 
#
# 1 0.007054 -0.001016 -0.002620 0.000000 0.000000 0.000000
# 2 -0.001016 0.009686 -0.000706 0.000000 0.000000 0.000000
# 3 -0.002620 -0.000706 0.006967 0.000000 0.000000 0.000000
# 4 0.000000 0.000000 0.000000 0.045167 0.000000 0.000000
# 5 0.000000 0.000000 0.000000 0.000000 0.017735 0.000000
# 6 0.000000 0.000000 0.000000 0.000000 0.000000 0.031576
#
#
# Mechanical properties :
#
#
# Convention : Reuss Voigt Hill
#
# Bulk Modulus (GPa) = 66.56931 73.65937 70.11434
# Shear Modulus (GPa) = 37.91460 44.63402 41.27431
#
# Velocity S-wave (km/s) = 4.10751 4.45665 4.28564
# Velocity P-wave (km/s) = 7.21930 7.69805 7.46251
#
# Compressibility (1/GPa) = 0.01502194
#
# Stress axis : x y z
#
# Youngs Moduli (GPa) = 141.76920 103.24430 143.54336
#
# Poissons Ratio (x) = 0.10495 0.37603
# Poissons Ratio (y) = 0.14411 0.10133
# Poissons Ratio (z) = 0.37139 0.07288
#
# Static dielectric constant tensor:
#      x y z
#    x 1.870510 0.000000 0.000000 
#    y 0.000000 1.886650 0.000000 
#    z 0.000000 0.000000 2.051830 
# 
# From -- ./inp_files/53480.got.cif
#   From: 2010.05.17/outbox.cif.g08.bks.cpg/sg64_27_cif.got.tgz:53480.got - 2010.06.03 16:29:19.
