data_PCOD9480155
_publ_section_title
;
Structure prediction by ZEFSAII (Michael W. Deem and Ramdas Pophale) SiO2 
 PCOD9480155
Probable space group: C M C A
;
_chemical_formula_sum "Si O2"
_cell_formula_units_Z 104
_cell_length_a 22.724513
_cell_length_b 24.674539
_cell_length_c 7.634321
_cell_angle_alpha 90.000000
_cell_angle_beta 90.000000
_cell_angle_gamma 90.000000
_cell_volume 4280.692669
_symmetry_space_group_name_H-M "C M C A"
_symmetry_group_IT_number 64
_symmetry_cell_setting 'orthorhombic'
loop_
_space_group_symop_operation_xyz
x,y,z
-x,1/2-y,1/2+z
x,-y,-z
-x,1/2+y,1/2-z
-x,-y,-z
x,1/2+y,1/2-z
-x,y,z
x,1/2-y,1/2+z
1/2+x,1/2+y,z
1/2-x,-y,1/2+z
1/2+x,1/2-y,-z
1/2-x,y,1/2-z
1/2-x,1/2-y,-z
1/2+x,y,1/2-z
1/2-x,1/2+y,z
1/2+x,-y,1/2+z
loop_
_atom_site_type_symbol
_atom_site_label
_atom_site_fract_x
_atom_site_fract_y
_atom_site_fract_z
Si Si1 0.500000 0.916800 0.095507
Si Si2 0.371053 0.373493 0.082427
Si Si3 0.401482 0.321984 0.432719
Si Si4 0.690586 0.456050 0.649687
Si Si5 0.406137 0.516708 0.817048
Si Si6 0.313619 0.335407 0.722556
Si Si7 0.500000 0.748066 0.713501
Si Si8 0.000000 0.341349 0.516536
O O1 0.552589 0.872226 0.045249
O O2 0.550685 0.959074 0.173068
O O3 0.365149 0.337717 0.257523
O O4 0.359333 0.435470 0.137034
O O5 0.441139 0.373295 0.031168
O O6 0.337523 0.351022 0.914639
O O7 0.362384 0.308229 0.600921
O O8 0.441156 0.270788 0.384663
O O9 0.685298 0.500000 0.500000
O O10 0.750000 0.470198 0.750000
O O11 0.630018 0.464924 0.753732
O O12 0.696030 0.392206 0.616084
O O13 0.435234 0.500000 0.000000
O O14 0.250000 0.308640 0.750000
O O15 0.500000 0.813079 0.705774
O O16 0.500000 0.708635 0.879760
#
# Coordination Sequence:
#
# PCOD9480155 Si02
#       8
#     8  16  16  16  16  16   8   8
#     4   9  19  34  55  79 115 154 187 242 316 365
#     4  10  21  39  59  88 124 160 201 250 308 365
#     4   9  20  41  60  88 128 152 196 254 310 370
#     4  11  23  37  55  82 116 163 226 267 302 353
#     4  11  19  36  56  78 117 161 200 257 305 355
#     4  11  24  39  60  89 119 166 217 251 304 362
#     4   9  20  38  67 101 123 153 189 249 307 374
#     4  10  22  38  66 102 122 155 200 237 318 383
#
# _framework density 24.295134000000001
#
# number of rings (size 3 to 8) (size 9 to 14) (size 15 to 20)
#    0.000    1.846    1.538    5.308    4.308    1.231 
#    0.000    4.231    0.000    0.923    0.000    0.000 
#    0.000    0.000    0.000    0.000    0.000    0.000 
#
# Total GULP energy -289570.076137 kJ/mol
# GULP energy per Si atom -5568.655310 kJ/mol
# Density = 2.423984 g / cm^3
# Si number density = 24.295134 Si / 1000 Ang^3
#
#
#
# Elastic Constant Matrix: (Units=GPa)
#
#
# Indices 1 2 3 4 5 6 
#
# 1 88.0406 -7.0750 41.2456 0.0000 0.0000 0.0000
# 2 -7.0750 40.4414 11.7914 0.0000 0.0000 0.0000
# 3 41.2456 11.7914 91.2250 0.0000 0.0000 0.0000
# 4 0.0000 0.0000 0.0000 39.6157 0.0000 0.0000
# 5 0.0000 0.0000 0.0000 0.0000 5.0663 0.0000
# 6 0.0000 0.0000 0.0000 0.0000 0.0000 11.1075
#
#
#
# Elastic Compliance Matrix: (Units=1/GPa)
#
#
# Indices 1 2 3 4 5 6 
#
# 1 0.015282 0.004872 -0.007539 0.000000 0.000000 0.000000
# 2 0.004872 0.027249 -0.005725 0.000000 0.000000 0.000000
# 3 -0.007539 -0.005725 0.015110 0.000000 0.000000 0.000000
# 4 0.000000 0.000000 0.000000 0.025243 0.000000 0.000000
# 5 0.000000 0.000000 0.000000 0.000000 0.197382 0.000000
# 6 0.000000 0.000000 0.000000 0.000000 0.000000 0.090029
#
#
# Mechanical properties :
#
#
# Convention : Reuss Voigt Hill
#
# Bulk Modulus (GPa) = 24.47581 34.62566 29.55074
# Shear Modulus (GPa) = 12.47824 22.74091 17.60958
#
# Velocity S-wave (km/s) = 2.26876 3.06278 2.69517
# Velocity P-wave (km/s) = 4.11816 5.17595 4.67706
#
# Compressibility (1/GPa) = 0.04085666
#
# Stress axis : x y z
#
# Youngs Moduli (GPa) = 65.43726 36.69923 66.17915
#
# Poissons Ratio (x) = -0.17878 0.49893
# Poissons Ratio (y) = -0.31879 0.37885
# Poissons Ratio (z) = 0.49334 0.21009
#
# Static dielectric constant tensor:
#      x y z
#    x 1.767950 0.000000 0.000000 
#    y 0.000000 1.922860 0.000000 
#    z 0.000000 0.000000 2.158450 
# 
# From -- ./inp_files/9789.got.cif
#   From: 2010.05.17/outbox.cif.g08.bks.cpg/sg64_5_cif.got.tgz:9789.got - 2010.06.03 16:29:19.
