data_PCOD9480461
_publ_section_title
;
Structure prediction by ZEFSAII (Michael W. Deem and Ramdas Pophale) SiO2 
 PCOD9480461
Probable space group: C M C A
;
_chemical_formula_sum "Si O2"
_cell_formula_units_Z 104
_cell_length_a 15.410071
_cell_length_b 19.224453
_cell_length_c 16.771110
_cell_angle_alpha 90.000000
_cell_angle_beta 90.000000
_cell_angle_gamma 90.000000
_cell_volume 4968.444451
_symmetry_space_group_name_H-M "C M C A"
_symmetry_group_IT_number 64
_symmetry_cell_setting 'orthorhombic'
loop_
_space_group_symop_operation_xyz
x,y,z
-x,1/2-y,1/2+z
x,-y,-z
-x,1/2+y,1/2-z
-x,-y,-z
x,1/2+y,1/2-z
-x,y,z
x,1/2-y,1/2+z
1/2+x,1/2+y,z
1/2-x,-y,1/2+z
1/2+x,1/2-y,-z
1/2-x,y,1/2-z
1/2-x,1/2-y,-z
1/2+x,y,1/2-z
1/2-x,1/2+y,z
1/2+x,-y,1/2+z
loop_
_atom_site_type_symbol
_atom_site_label
_atom_site_fract_x
_atom_site_fract_y
_atom_site_fract_z
Si Si1 0.774630 0.748400 0.409465
Si Si2 0.184253 0.000000 0.500000
Si Si3 0.706930 0.007100 0.336615
Si Si4 0.903901 0.604274 0.726992
Si Si5 0.899219 0.880821 0.403918
Si Si6 0.403629 0.736413 0.313291
Si Si7 0.902304 0.139612 0.161290
O O1 0.750000 0.750000 0.500000
O O2 0.831993 0.817510 0.395924
O O3 0.684153 0.738734 0.363271
O O4 0.835064 0.683390 0.389944
O O5 0.239518 0.014409 0.418880
O O6 0.127562 0.067047 0.525451
O O7 0.750000 0.022738 0.250000
O O8 0.627006 0.060424 0.339312
O O9 0.669400 0.929105 0.327582
O O10 0.893328 0.579930 0.818376
O O11 0.902520 0.687766 0.728398
O O12 0.000000 0.583955 0.698879
O O13 0.000000 0.858043 0.412097
O O14 0.500000 0.730841 0.352811
O O15 0.397917 0.675083 0.248726
O O16 0.000000 0.148276 0.132063
#
# Coordination Sequence:
#
# PCOD9480461 Si02
#       7
#    16   8  16  16  16  16  16
#     4  12  24  40  64  96 134 177 220 275 340 398
#     4  12  25  42  65 102 136 178 229 282 351 398
#     4  12  24  42  66  98 136 178 224 281 340 406
#     4  10  21  41  68  96 123 170 227 280 336 396
#     4  11  23  42  68  99 134 179 232 285 335 405
#     4  10  22  41  68  96 125 168 225 275 331 405
#     4  11  24  43  65  94 131 176 224 276 333 403
#
# _framework density 20.932106000000001
#
# number of rings (size 3 to 8) (size 9 to 14) (size 15 to 20)
#    0.000    0.923    3.077    4.385    0.000    1.231 
#    0.000    4.615    0.000    0.000    0.000    0.000 
#    0.000    0.000    0.000    0.000    0.000    0.000 
#
# Total GULP energy -290323.504116 kJ/mol
# GULP energy per Si atom -5583.144310 kJ/mol
# Density = 2.088446 g / cm^3
# Si number density = 20.932106 Si / 1000 Ang^3
#
#
#
# Elastic Constant Matrix: (Units=GPa)
#
#
# Indices 1 2 3 4 5 6 
#
# 1 163.5155 24.6897 60.3096 0.0000 0.0000 0.0000
# 2 24.6897 54.8829 -5.9240 0.0000 0.0000 0.0000
# 3 60.3096 -5.9240 81.9005 0.0000 0.0000 0.0000
# 4 0.0000 0.0000 0.0000 22.9454 0.0000 0.0000
# 5 0.0000 0.0000 0.0000 0.0000 11.3309 0.0000
# 6 0.0000 0.0000 0.0000 0.0000 0.0000 37.7948
#
#
#
# Elastic Compliance Matrix: (Units=1/GPa)
#
#
# Indices 1 2 3 4 5 6 
#
# 1 0.009652 -0.005149 -0.007480 0.000000 0.000000 0.000000
# 2 -0.005149 0.021111 0.005319 0.000000 0.000000 0.000000
# 3 -0.007480 0.005319 0.018103 0.000000 0.000000 0.000000
# 4 0.000000 0.000000 0.000000 0.043582 0.000000 0.000000
# 5 0.000000 0.000000 0.000000 0.000000 0.088255 0.000000
# 6 0.000000 0.000000 0.000000 0.000000 0.000000 0.026459
#
#
# Mechanical properties :
#
#
# Convention : Reuss Voigt Hill
#
# Bulk Modulus (GPa) = 29.20132 50.93884 40.07008
# Shear Modulus (GPa) = 21.44110 29.16244 25.30177
#
# Velocity S-wave (km/s) = 3.20397 3.73660 3.48049
# Velocity P-wave (km/s) = 5.26004 6.55777 5.94442
#
# Compressibility (1/GPa) = 0.03424503
#
# Stress axis : x y z
#
# Youngs Moduli (GPa) = 103.60544 47.36810 55.24028
#
# Poissons Ratio (x) = 0.24392 0.41320
# Poissons Ratio (y) = 0.53351 -0.29382
# Poissons Ratio (z) = 0.77497 -0.25195
#
# Static dielectric constant tensor:
#      x y z
#    x 1.891610 0.000000 0.000000 
#    y 0.000000 1.745520 0.000000 
#    z 0.000000 0.000000 1.745820 
# 
# From -- ./inp_files/32406.got.cif
#   From: 2010.05.17/outbox.cif.g08.bks.cpg/sg64_17_cif.got.tgz:32406.got - 2010.06.03 16:29:19.
