data_PCOD9480489
_publ_section_title
;
Structure prediction by ZEFSAII (Michael W. Deem and Ramdas Pophale) SiO2 
 PCOD9480489
Probable space group: C M C A
;
_chemical_formula_sum "Si O2"
_cell_formula_units_Z 56
_cell_length_a 17.405768
_cell_length_b 9.994313
_cell_length_c 13.124574
_cell_angle_alpha 90.000000
_cell_angle_beta 90.000000
_cell_angle_gamma 90.000000
_cell_volume 2283.133744
_symmetry_space_group_name_H-M "C M C A"
_symmetry_group_IT_number 64
_symmetry_cell_setting 'orthorhombic'
loop_
_space_group_symop_operation_xyz
x,y,z
-x,1/2-y,1/2+z
x,-y,-z
-x,1/2+y,1/2-z
-x,-y,-z
x,1/2+y,1/2-z
-x,y,z
x,1/2-y,1/2+z
1/2+x,1/2+y,z
1/2-x,-y,1/2+z
1/2+x,1/2-y,-z
1/2-x,y,1/2-z
1/2-x,1/2-y,-z
1/2+x,y,1/2-z
1/2-x,1/2+y,z
1/2+x,-y,1/2+z
loop_
_atom_site_type_symbol
_atom_site_label
_atom_site_fract_x
_atom_site_fract_y
_atom_site_fract_z
Si Si1 0.583880 0.387418 0.090541
Si Si2 0.088755 0.314516 0.086401
Si Si3 0.705485 0.000000 0.000000
Si Si4 0.810926 0.907889 0.836911
O O1 0.500000 0.387203 0.141021
O O2 0.650648 0.444370 0.161379
O O3 0.580582 0.500000 0.000000
O O4 0.593106 0.251070 0.027884
O O5 0.120937 0.199886 0.160801
O O6 0.000000 0.348915 0.104583
O O7 0.149573 0.433125 0.082232
O O8 0.762195 0.899271 0.941818
O O9 0.750000 0.886828 0.750000
#
# Coordination Sequence:
#
# PCOD9480489 Si02
#       4
#    16  16   8  16
#     4   8  15  34  62  87 115 162 210 253 311 383
#     4  10  21  42  65  87 125 174 214 260 324 389
#     4  12  23  40  63  98 132 164 218 274 315 366
#     4  11  22  37  66  96 129 165 219 272 321 371
#
# _framework density 24.52769
#
# number of rings (size 3 to 8) (size 9 to 14) (size 15 to 20)
#    0.000    2.000    4.286    3.857    0.000    1.143 
#    0.000    5.714    0.000    0.000    0.000    0.000 
#    0.000    0.000    0.000    0.000    0.000    0.000 
#
# Total GULP energy -156461.826501 kJ/mol
# GULP energy per Si atom -5587.922375 kJ/mol
# Density = 2.447186 g / cm^3
# Si number density = 24.527690 Si / 1000 Ang^3
#
#
#
# Elastic Constant Matrix: (Units=GPa)
#
#
# Indices 1 2 3 4 5 6 
#
# 1 173.9652 7.4670 13.8669 0.0000 0.0000 0.0000
# 2 7.4670 30.4623 -10.5483 0.0000 0.0000 0.0000
# 3 13.8669 -10.5483 51.4356 0.0000 0.0000 0.0000
# 4 0.0000 0.0000 0.0000 13.2636 0.0000 0.0000
# 5 0.0000 0.0000 0.0000 0.0000 27.9047 0.0000
# 6 0.0000 0.0000 0.0000 0.0000 0.0000 22.9861
#
#
#
# Elastic Compliance Matrix: (Units=1/GPa)
#
#
# Indices 1 2 3 4 5 6 
#
# 1 0.006007 -0.002189 -0.002068 0.000000 0.000000 0.000000
# 2 -0.002189 0.036134 0.008000 0.000000 0.000000 0.000000
# 3 -0.002068 0.008000 0.021640 0.000000 0.000000 0.000000
# 4 0.000000 0.000000 0.000000 0.075394 0.000000 0.000000
# 5 0.000000 0.000000 0.000000 0.000000 0.035836 0.000000
# 6 0.000000 0.000000 0.000000 0.000000 0.000000 0.043504
#
#
# Mechanical properties :
#
#
# Convention : Reuss Voigt Hill
#
# Bulk Modulus (GPa) = 14.03147 30.82602 22.42874
# Shear Modulus (GPa) = 21.29601 29.16939 25.23270
#
# Velocity S-wave (km/s) = 2.94979 3.45228 3.21088
# Velocity P-wave (km/s) = 4.16351 5.33724 4.78649
#
# Compressibility (1/GPa) = 0.07126839
#
# Stress axis : x y z
#
# Youngs Moduli (GPa) = 166.46997 27.67450 46.21040
#
# Poissons Ratio (x) = 0.06057 0.09558
# Poissons Ratio (y) = 0.36435 -0.36970
# Poissons Ratio (z) = 0.34432 -0.22141
#
# Static dielectric constant tensor:
#      x y z
#    x 1.915920 0.000000 0.000000 
#    y 0.000000 1.993020 0.000000 
#    z 0.000000 0.000000 2.033760 
# 
# From -- ./inp_files/23020.got.cif
#   From: 2010.05.17/outbox.cif.g08.bks.cpg/sg64_12_cif.got.tgz:23020.got - 2010.06.03 16:29:19.
