data_PCOD9480214
_publ_section_title
;
Structure prediction by ZEFSAII (Michael W. Deem and Ramdas Pophale) SiO2 
 PCOD9480214
Probable space group: C M C A
;
_chemical_formula_sum "Si O2"
_cell_formula_units_Z 112
_cell_length_a 15.313016
_cell_length_b 24.978414
_cell_length_c 14.764300
_cell_angle_alpha 90.000000
_cell_angle_beta 90.000000
_cell_angle_gamma 90.000000
_cell_volume 5647.268762
_symmetry_space_group_name_H-M "C M C A"
_symmetry_group_IT_number 64
_symmetry_cell_setting 'orthorhombic'
loop_
_space_group_symop_operation_xyz
x,y,z
-x,1/2-y,1/2+z
x,-y,-z
-x,1/2+y,1/2-z
-x,-y,-z
x,1/2+y,1/2-z
-x,y,z
x,1/2-y,1/2+z
1/2+x,1/2+y,z
1/2-x,-y,1/2+z
1/2+x,1/2-y,-z
1/2-x,y,1/2-z
1/2-x,1/2-y,-z
1/2+x,y,1/2-z
1/2-x,1/2+y,z
1/2+x,-y,1/2+z
loop_
_atom_site_type_symbol
_atom_site_label
_atom_site_fract_x
_atom_site_fract_y
_atom_site_fract_z
Si Si1 0.605249 0.710895 0.737639
Si Si2 0.398239 0.405115 0.181470
Si Si3 0.243646 0.913683 0.034961
Si Si4 0.399500 0.813105 0.859374
Si Si5 0.313570 0.205518 0.959017
Si Si6 0.900647 0.972047 0.365828
Si Si7 0.200684 0.923241 0.658017
O O1 0.500000 0.709611 0.725453
O O2 0.629283 0.654093 0.783404
O O3 0.626942 0.760501 0.802842
O O4 0.650264 0.717397 0.640461
O O5 0.500000 0.402031 0.154248
O O6 0.337308 0.424837 0.100295
O O7 0.391519 0.443857 0.267975
O O8 0.263752 0.850832 0.043528
O O9 0.329349 0.944374 0.070497
O O10 0.235703 0.926740 0.929011
O O11 0.500000 0.825225 0.837524
O O12 0.338983 0.863746 0.837942
O O13 0.389288 0.801262 0.966064
O O14 0.250000 0.250000 0.000000
O O15 0.000000 0.963901 0.397244
O O16 0.876017 0.033981 0.357113
O O17 0.250000 0.936342 0.750000
#
# Coordination Sequence:
#
# PCOD9480214 Si02
#       7
#    16  16  16  16  16  16  16
#     4  10  21  39  63  90 125 167 212 262 314 378
#     4  10  21  40  66  97 126 160 212 270 322 371
#     4  11  23  39  64  95 123 167 209 267 316 373
#     4  10  23  40  59  86 127 167 208 259 314 385
#     4  11  23  35  61  92 124 164 206 259 318 377
#     4  11  23  41  69  98 125 162 210 270 327 381
#     4  11  25  42  62  88 130 169 216 258 320 392
#
# _framework density 19.832597
#
# number of rings (size 3 to 8) (size 9 to 14) (size 15 to 20)
#    0.000    1.429    1.429    3.429    4.000    4.571 
#    0.000    2.143    0.000    3.429    0.000    0.000 
#    0.000    0.000    0.000    0.000    0.000    0.000 
#
# Total GULP energy -313131.329345 kJ/mol
# GULP energy per Si atom -5591.630881 kJ/mol
# Density = 1.978746 g / cm^3
# Si number density = 19.832597 Si / 1000 Ang^3
#
#
#
# Elastic Constant Matrix: (Units=GPa)
#
#
# Indices 1 2 3 4 5 6 
#
# 1 74.8616 21.9891 55.7621 0.0000 0.0000 0.0000
# 2 21.9891 84.2152 18.8000 0.0000 0.0000 0.0000
# 3 55.7621 18.8000 135.4507 0.0000 0.0000 0.0000
# 4 0.0000 0.0000 0.0000 24.6793 0.0000 0.0000
# 5 0.0000 0.0000 0.0000 0.0000 16.4577 0.0000
# 6 0.0000 0.0000 0.0000 0.0000 0.0000 20.1978
#
#
#
# Elastic Compliance Matrix: (Units=1/GPa)
#
#
# Indices 1 2 3 4 5 6 
#
# 1 0.020236 -0.003533 -0.007840 0.000000 0.000000 0.000000
# 2 -0.003533 0.012871 -0.000332 0.000000 0.000000 0.000000
# 3 -0.007840 -0.000332 0.010656 0.000000 0.000000 0.000000
# 4 0.000000 0.000000 0.000000 0.040520 0.000000 0.000000
# 5 0.000000 0.000000 0.000000 0.000000 0.060762 0.000000
# 6 0.000000 0.000000 0.000000 0.000000 0.000000 0.049510
#
#
# Mechanical properties :
#
#
# Convention : Reuss Voigt Hill
#
# Bulk Modulus (GPa) = 49.13440 54.18111 51.65775
# Shear Modulus (GPa) = 22.24693 25.46540 23.85617
#
# Velocity S-wave (km/s) = 3.35287 3.58721 3.47201
# Velocity P-wave (km/s) = 6.31009 6.67352 6.49435
#
# Compressibility (1/GPa) = 0.02035234
#
# Stress axis : x y z
#
# Youngs Moduli (GPa) = 49.41737 77.69394 93.83984
#
# Poissons Ratio (x) = 0.27453 0.73572
# Poissons Ratio (y) = 0.17461 0.03114
# Poissons Ratio (z) = 0.38744 0.02578
#
# Static dielectric constant tensor:
#      x y z
#    x 1.675110 0.000000 0.000000 
#    y 0.000000 1.690110 0.000000 
#    z 0.000000 0.000000 1.681440 
# 
# From -- ./inp_files/24212.got.cif
#   From: 2010.05.17/outbox.cif.g08.bks.cpg/sg64_13_cif.got.tgz:24212.got - 2010.06.03 16:29:19.
