data_PCOD9480187
_publ_section_title
;
Structure prediction by ZEFSAII (Michael W. Deem and Ramdas Pophale) SiO2 
 PCOD9480187
Probable space group: C M C A
;
_chemical_formula_sum "Si O2"
_cell_formula_units_Z 112
_cell_length_a 13.866526
_cell_length_b 14.792838
_cell_length_c 26.688945
_cell_angle_alpha 90.000000
_cell_angle_beta 90.000000
_cell_angle_gamma 90.000000
_cell_volume 5474.577122
_symmetry_space_group_name_H-M "C M C A"
_symmetry_group_IT_number 64
_symmetry_cell_setting 'orthorhombic'
loop_
_space_group_symop_operation_xyz
x,y,z
-x,1/2-y,1/2+z
x,-y,-z
-x,1/2+y,1/2-z
-x,-y,-z
x,1/2+y,1/2-z
-x,y,z
x,1/2-y,1/2+z
1/2+x,1/2+y,z
1/2-x,-y,1/2+z
1/2+x,1/2-y,-z
1/2-x,y,1/2-z
1/2-x,1/2-y,-z
1/2+x,y,1/2-z
1/2-x,1/2+y,z
1/2+x,-y,1/2+z
loop_
_atom_site_type_symbol
_atom_site_label
_atom_site_fract_x
_atom_site_fract_y
_atom_site_fract_z
Si Si1 0.615537 0.953361 0.103118
Si Si2 0.246876 0.397641 0.482108
Si Si3 0.220643 0.145379 0.407216
Si Si4 0.116450 0.448432 0.301281
Si Si5 0.115035 0.672458 0.603329
Si Si6 0.116610 0.145089 0.170065
Si Si7 0.883647 0.658968 0.796600
O O1 0.500000 0.960992 0.098568
O O2 0.661789 0.902534 0.055420
O O3 0.638870 0.897872 0.153474
O O4 0.664379 0.052190 0.103955
O O5 0.226803 0.500000 0.500000
O O6 0.268804 0.344886 0.532992
O O7 0.159535 0.362187 0.448645
O O8 0.161693 0.230227 0.386205
O O9 0.325653 0.143061 0.382014
O O10 0.141842 0.397917 0.352784
O O11 0.145962 0.553050 0.301803
O O12 0.148232 0.391858 0.253318
O O13 0.000000 0.449728 0.299921
O O14 0.000000 0.679458 0.601162
O O15 0.146775 0.237060 0.197891
O O16 0.000000 0.145571 0.163259
O O17 0.000000 0.661907 0.794390
#
# Coordination Sequence:
#
# PCOD9480187 Si02
#       7
#    16  16  16  16  16  16  16
#     4  10  21  39  62  88 120 157 198 244 296 354
#     4  10  22  39  59  84 116 154 201 252 295 350
#     4  11  23  39  59  89 122 153 198 249 296 356
#     4   9  19  37  60  86 118 154 194 244 298 351
#     4  11  23  39  59  86 122 159 195 243 302 357
#     4  10  21  39  63  88 118 158 200 245 298 352
#     4   9  19  37  62  88 116 155 199 243 294 353
#
# _framework density 20.458202
#
# number of rings (size 3 to 8) (size 9 to 14) (size 15 to 20)
#    0.000    2.000    0.000    3.429    0.000    5.143 
#    0.000   13.571    0.000    0.000    0.000    0.000 
#    0.000    0.000    0.000    0.000    0.000    0.000 
#
# Total GULP energy -312944.952240 kJ/mol
# GULP energy per Si atom -5588.302719 kJ/mol
# Density = 2.041164 g / cm^3
# Si number density = 20.458202 Si / 1000 Ang^3
#
#
#
# Elastic Constant Matrix: (Units=GPa)
#
#
# Indices 1 2 3 4 5 6 
#
# 1 99.1314 38.2124 21.9175 0.0000 0.0000 0.0000
# 2 38.2124 152.0179 87.7712 0.0000 0.0000 0.0000
# 3 21.9175 87.7712 82.8975 0.0000 0.0000 0.0000
# 4 0.0000 0.0000 0.0000 22.6412 0.0000 0.0000
# 5 0.0000 0.0000 0.0000 0.0000 39.6741 0.0000
# 6 0.0000 0.0000 0.0000 0.0000 0.0000 18.0389
#
#
#
# Elastic Compliance Matrix: (Units=1/GPa)
#
#
# Indices 1 2 3 4 5 6 
#
# 1 0.011170 -0.002837 0.000050 0.000000 0.000000 0.000000
# 2 -0.002837 0.017645 -0.017932 0.000000 0.000000 0.000000
# 3 0.000050 -0.017932 0.031036 0.000000 0.000000 0.000000
# 4 0.000000 0.000000 0.000000 0.044167 0.000000 0.000000
# 5 0.000000 0.000000 0.000000 0.000000 0.025205 0.000000
# 6 0.000000 0.000000 0.000000 0.000000 0.000000 0.055436
#
#
# Mechanical properties :
#
#
# Convention : Reuss Voigt Hill
#
# Bulk Modulus (GPa) = 54.30718 69.98322 62.14520
# Shear Modulus (GPa) = 21.52992 28.48054 25.00523
#
# Velocity S-wave (km/s) = 3.24757 3.73518 3.49988
# Velocity P-wave (km/s) = 6.37694 7.27215 6.83921
#
# Compressibility (1/GPa) = 0.01841377
#
# Stress axis : x y z
#
# Youngs Moduli (GPa) = 89.52533 56.67365 32.22035
#
# Poissons Ratio (x) = 0.16078 -0.00162
# Poissons Ratio (y) = 0.25397 0.57778
# Poissons Ratio (z) = -0.00451 1.01628
#
# Static dielectric constant tensor:
#      x y z
#    x 1.722690 0.000000 0.000000 
#    y 0.000000 1.734480 0.000000 
#    z 0.000000 0.000000 1.703220 
# 
# From -- ./inp_files/45228.got.cif
#   From: 2010.05.17/outbox.cif.g08.bks.cpg/sg64_23_cif.got.tgz:45228.got - 2010.06.03 16:29:19.
