data_PCOD9480240
_publ_section_title
;
Structure prediction by ZEFSAII (Michael W. Deem and Ramdas Pophale) SiO2 
 PCOD9480240
Probable space group: C M C A
;
_chemical_formula_sum "Si O2"
_cell_formula_units_Z 88
_cell_length_a 17.454798
_cell_length_b 16.052753
_cell_length_c 15.782284
_cell_angle_alpha 90.000000
_cell_angle_beta 90.000000
_cell_angle_gamma 90.000000
_cell_volume 4422.157483
_symmetry_space_group_name_H-M "C M C A"
_symmetry_group_IT_number 64
_symmetry_cell_setting 'orthorhombic'
loop_
_space_group_symop_operation_xyz
x,y,z
-x,1/2-y,1/2+z
x,-y,-z
-x,1/2+y,1/2-z
-x,-y,-z
x,1/2+y,1/2-z
-x,y,z
x,1/2-y,1/2+z
1/2+x,1/2+y,z
1/2-x,-y,1/2+z
1/2+x,1/2-y,-z
1/2-x,y,1/2-z
1/2-x,1/2-y,-z
1/2+x,y,1/2-z
1/2-x,1/2+y,z
1/2+x,-y,1/2+z
loop_
_atom_site_type_symbol
_atom_site_label
_atom_site_fract_x
_atom_site_fract_y
_atom_site_fract_z
Si Si1 0.755257 0.659319 0.461748
Si Si2 0.591485 0.495733 0.683435
Si Si3 0.829810 0.500000 0.000000
Si Si4 0.411541 0.399839 0.003956
Si Si5 0.408284 0.649780 0.800043
Si Si6 0.332663 0.827166 0.791529
O O1 0.750000 0.750000 0.500000
O O2 0.724949 0.579885 0.513312
O O3 0.844962 0.639118 0.445217
O O4 0.692503 0.664485 0.388504
O O5 0.500000 0.497317 0.682789
O O6 0.620928 0.496891 0.586356
O O7 0.619121 0.575194 0.738541
O O8 0.618963 0.409867 0.727085
O O9 0.500000 0.375314 0.984187
O O10 0.393713 0.371638 0.100858
O O11 0.408285 0.500000 0.000000
O O12 0.500000 0.654963 0.791448
O O13 0.373033 0.739083 0.776945
O O14 0.250000 0.829191 0.750000
#
# Coordination Sequence:
#
# PCOD9480240 Si02
#       6
#    16  16   8  16  16  16
#     4  11  22  40  62  93 125 162 204 258 308 371
#     4  10  23  43  66  92 124 164 208 261 317 376
#     4  10  23  40  65  92 124 162 212 258 311 378
#     4  10  21  39  64  92 124 164 207 255 312 370
#     4  10  22  41  63  89 124 162 202 259 315 371
#     4  11  25  39  62  91 124 164 207 255 312 371
#
# _framework density 19.899789999999999
#
# number of rings (size 3 to 8) (size 9 to 14) (size 15 to 20)
#    0.000    1.636    2.727    0.818    5.091    0.727 
#    0.000    1.818    0.000    0.000    0.000    0.000 
#    0.000    0.000    0.000    0.000    0.000    0.000 
#
# Total GULP energy -245296.370944 kJ/mol
# GULP energy per Si atom -5574.917521 kJ/mol
# Density = 1.985450 g / cm^3
# Si number density = 19.899790 Si / 1000 Ang^3
#
#
#
# Elastic Constant Matrix: (Units=GPa)
#
#
# Indices 1 2 3 4 5 6 
#
# 1 79.9875 59.4350 6.9733 0.0000 0.0000 0.0000
# 2 59.4350 180.1897 34.4191 0.0000 0.0000 0.0000
# 3 6.9733 34.4191 25.8224 0.0000 0.0000 0.0000
# 4 0.0000 0.0000 0.0000 29.8029 0.0000 0.0000
# 5 0.0000 0.0000 0.0000 0.0000 28.4699 0.0000
# 6 0.0000 0.0000 0.0000 0.0000 0.0000 43.5105
#
#
#
# Elastic Compliance Matrix: (Units=1/GPa)
#
#
# Indices 1 2 3 4 5 6 
#
# 1 0.016839 -0.006286 0.003832 0.000000 0.000000 0.000000
# 2 -0.006286 0.009792 -0.011354 0.000000 0.000000 0.000000
# 3 0.003832 -0.011354 0.052826 0.000000 0.000000 0.000000
# 4 0.000000 0.000000 0.000000 0.033554 0.000000 0.000000
# 5 0.000000 0.000000 0.000000 0.000000 0.035125 0.000000
# 6 0.000000 0.000000 0.000000 0.000000 0.000000 0.022983
#
#
# Mechanical properties :
#
#
# Convention : Reuss Voigt Hill
#
# Bulk Modulus (GPa) = 19.29058 54.18382 36.73720
# Shear Modulus (GPa) = 23.14647 32.70148 27.92397
#
# Velocity S-wave (km/s) = 3.41420 4.05817 3.75003
# Velocity P-wave (km/s) = 5.02566 7.01753 6.10340
#
# Compressibility (1/GPa) = 0.05183878
#
# Stress axis : x y z
#
# Youngs Moduli (GPa) = 59.38643 102.12378 18.93017
#
# Poissons Ratio (x) = 0.64196 -0.07253
# Poissons Ratio (y) = 0.37331 0.21494
# Poissons Ratio (z) = -0.22755 1.15955
#
# Static dielectric constant tensor:
#      x y z
#    x 1.683010 0.000000 0.000000 
#    y 0.000000 1.745240 0.000000 
#    z 0.000000 0.000000 1.361650 
# 
# From -- ./inp_files/33126.got.cif
#   From: 2010.05.17/outbox.cif.g08.bks.cpg/sg64_17_cif.got.tgz:33126.got - 2010.06.03 16:29:19.
