data_PCOD9480112
_publ_section_title
;
Structure prediction by ZEFSAII (Michael W. Deem and Ramdas Pophale) SiO2 
 PCOD9480112
Probable space group: C M C A
;
_chemical_formula_sum "Si O2"
_cell_formula_units_Z 112
_cell_length_a 22.376758
_cell_length_b 14.613462
_cell_length_c 17.037582
_cell_angle_alpha 90.000000
_cell_angle_beta 90.000000
_cell_angle_gamma 90.000000
_cell_volume 5571.321732
_symmetry_space_group_name_H-M "C M C A"
_symmetry_group_IT_number 64
_symmetry_cell_setting 'orthorhombic'
loop_
_space_group_symop_operation_xyz
x,y,z
-x,1/2-y,1/2+z
x,-y,-z
-x,1/2+y,1/2-z
-x,-y,-z
x,1/2+y,1/2-z
-x,y,z
x,1/2-y,1/2+z
1/2+x,1/2+y,z
1/2-x,-y,1/2+z
1/2+x,1/2-y,-z
1/2-x,y,1/2-z
1/2-x,1/2-y,-z
1/2+x,y,1/2-z
1/2-x,1/2+y,z
1/2+x,-y,1/2+z
loop_
_atom_site_type_symbol
_atom_site_label
_atom_site_fract_x
_atom_site_fract_y
_atom_site_fract_z
Si Si1 0.836589 0.598409 0.038612
Si Si2 0.070157 0.621902 0.168026
Si Si3 0.431768 0.586462 0.048290
Si Si4 0.929531 0.313031 0.239479
Si Si5 0.615127 0.997921 0.302668
Si Si6 0.728626 0.393604 0.838688
Si Si7 0.855930 0.243733 0.589569
O O1 0.895629 0.627537 0.086251
O O2 0.781980 0.593081 0.100088
O O3 0.845262 0.500000 0.000000
O O4 0.827434 0.672241 0.970044
O O5 0.076181 0.716229 0.216269
O O6 0.103454 0.544406 0.218759
O O7 0.000000 0.601102 0.159915
O O8 0.500000 0.601868 0.023455
O O9 0.428848 0.550766 0.137722
O O10 0.394877 0.679420 0.043934
O O11 0.406823 0.500000 0.000000
O O12 0.899746 0.392221 0.291896
O O13 0.897498 0.304188 0.155177
O O14 0.000000 0.333178 0.229844
O O15 0.680683 0.023305 0.334928
O O16 0.750000 0.381821 0.750000
O O17 0.692919 0.303481 0.864745
#
# Coordination Sequence:
#
# PCOD9480112 Si02
#       7
#    16  16  16  16  16  16  16
#     4  12  27  47  65  99 140 178 227 280 345 412
#     4  11  23  43  69  99 137 174 220 276 337 415
#     4  10  21  38  63  97 135 175 219 273 334 399
#     4  11  22  40  70 105 136 177 226 279 344 412
#     4  11  22  41  68  94 130 175 225 276 329 396
#     4  11  23  48  69  91 132 179 234 284 326 401
#     4  11  24  42  68  99 137 176 221 283 346 403
#
# _framework density 20.10295
#
# number of rings (size 3 to 8) (size 9 to 14) (size 15 to 20)
#    0.000    1.000    4.286    3.000    2.000    3.714 
#    5.143    0.000    0.000    0.000    0.000    0.000 
#    0.000    0.000    0.000    0.000    0.000    0.000 
#
# Total GULP energy -313012.696610 kJ/mol
# GULP energy per Si atom -5589.512439 kJ/mol
# Density = 2.005719 g / cm^3
# Si number density = 20.102950 Si / 1000 Ang^3
#
#
#
# Elastic Constant Matrix: (Units=GPa)
#
#
# Indices 1 2 3 4 5 6 
#
# 1 108.9093 31.7690 44.6292 0.0000 0.0000 0.0000
# 2 31.7690 82.4695 23.7240 0.0000 0.0000 0.0000
# 3 44.6292 23.7240 81.7529 0.0000 0.0000 0.0000
# 4 0.0000 0.0000 0.0000 40.0786 0.0000 0.0000
# 5 0.0000 0.0000 0.0000 0.0000 21.9221 0.0000
# 6 0.0000 0.0000 0.0000 0.0000 0.0000 12.7898
#
#
#
# Elastic Compliance Matrix: (Units=1/GPa)
#
#
# Indices 1 2 3 4 5 6 
#
# 1 0.012522 -0.003117 -0.005931 0.000000 0.000000 0.000000
# 2 -0.003117 0.014006 -0.002363 0.000000 0.000000 0.000000
# 3 -0.005931 -0.002363 0.016155 0.000000 0.000000 0.000000
# 4 0.000000 0.000000 0.000000 0.024951 0.000000 0.000000
# 5 0.000000 0.000000 0.000000 0.000000 0.045616 0.000000
# 6 0.000000 0.000000 0.000000 0.000000 0.000000 0.078187
#
#
# Mechanical properties :
#
#
# Convention : Reuss Voigt Hill
#
# Bulk Modulus (GPa) = 50.34964 52.59734 51.47349
# Shear Modulus (GPa) = 22.63668 26.49207 24.56438
#
# Velocity S-wave (km/s) = 3.35929 3.63412 3.49940
# Velocity P-wave (km/s) = 6.33614 6.62041 6.47984
#
# Compressibility (1/GPa) = 0.01986111
#
# Stress axis : x y z
#
# Youngs Moduli (GPa) = 79.86102 71.39662 61.89893
#
# Poissons Ratio (x) = 0.22258 0.36712
# Poissons Ratio (y) = 0.24896 0.14625
# Poissons Ratio (z) = 0.47366 0.16869
#
# Static dielectric constant tensor:
#      x y z
#    x 1.720460 0.000000 0.000000 
#    y 0.000000 1.690750 0.000000 
#    z 0.000000 0.000000 1.732890 
# 
# From -- ./inp_files/27442.got.cif
#   From: 2010.05.17/outbox.cif.g08.bks.cpg/sg64_14_cif.got.tgz:27442.got - 2010.06.03 16:29:19.
