data_PCOD9480503
_publ_section_title
;
Structure prediction by ZEFSAII (Michael W. Deem and Ramdas Pophale) SiO2 
 PCOD9480503
Probable space group: C M C A
;
_chemical_formula_sum "Si O2"
_cell_formula_units_Z 68
_cell_length_a 23.348458
_cell_length_b 16.755695
_cell_length_c 8.159310
_cell_angle_alpha 90.000000
_cell_angle_beta 90.000000
_cell_angle_gamma 90.000000
_cell_volume 3192.082329
_symmetry_space_group_name_H-M "C M C A"
_symmetry_group_IT_number 64
_symmetry_cell_setting 'orthorhombic'
loop_
_space_group_symop_operation_xyz
x,y,z
-x,1/2-y,1/2+z
x,-y,-z
-x,1/2+y,1/2-z
-x,-y,-z
x,1/2+y,1/2-z
-x,y,z
x,1/2-y,1/2+z
1/2+x,1/2+y,z
1/2-x,-y,1/2+z
1/2+x,1/2-y,-z
1/2-x,y,1/2-z
1/2-x,1/2-y,-z
1/2+x,y,1/2-z
1/2-x,1/2+y,z
1/2+x,-y,1/2+z
loop_
_atom_site_type_symbol
_atom_site_label
_atom_site_fract_x
_atom_site_fract_y
_atom_site_fract_z
Si Si1 0.500000 0.500000 0.000000
Si Si2 0.326198 0.410152 0.426807
Si Si3 0.062413 0.321417 0.947845
Si Si4 0.583021 0.646799 0.068480
Si Si5 0.298605 0.093198 0.540734
O O1 0.549944 0.429792 0.999286
O O2 0.332449 0.500000 0.500000
O O3 0.383478 0.362795 0.468327
O O4 0.315986 0.405779 0.232019
O O5 0.265644 0.376064 0.494070
O O6 0.065454 0.342251 0.756759
O O7 0.000000 0.348245 0.012907
O O8 0.067233 0.226859 0.972224
O O9 0.651145 0.634823 0.058404
O O10 0.296868 0.000000 0.500000
#
# Coordination Sequence:
#
# PCOD9480503 Si02
#       5
#     4  16  16  16  16
#     4  12  24  44  72 102 130 188 224 264 348 408
#     4  10  23  41  67 101 135 177 229 281 338 400
#     4  12  25  45  64 101 139 173 225 281 340 401
#     4  12  25  44  72  98 138 180 224 280 341 403
#     4  10  21  42  68  97 134 179 229 279 334 403
#
# _framework density 21.302709
#
# number of rings (size 3 to 8) (size 9 to 14) (size 15 to 20)
#    0.000    0.941    3.529    2.824    0.000    4.235 
#    2.118    0.000    0.000    0.000    0.000    0.000 
#    0.000    0.000    0.000    0.000    0.000    0.000 
#
# Total GULP energy -189561.190589 kJ/mol
# GULP energy per Si atom -5575.329135 kJ/mol
# Density = 2.125422 g / cm^3
# Si number density = 21.302709 Si / 1000 Ang^3
#
#
#
# Elastic Constant Matrix: (Units=GPa)
#
#
# Indices 1 2 3 4 5 6 
#
# 1 256.2209 85.5569 42.8239 0.0000 0.0000 0.0000
# 2 85.5569 97.1919 17.2320 0.0000 0.0000 0.0000
# 3 42.8239 17.2320 29.3400 0.0000 0.0000 0.0000
# 4 0.0000 0.0000 0.0000 10.1509 0.0000 0.0000
# 5 0.0000 0.0000 0.0000 0.0000 27.6735 0.0000
# 6 0.0000 0.0000 0.0000 0.0000 0.0000 -52.6918
#
#
#
# Elastic Compliance Matrix: (Units=1/GPa)
#
#
# Indices 1 2 3 4 5 6 
#
# 1 0.006587 -0.004570 -0.006931 0.000000 0.000000 0.000000
# 2 -0.004570 0.014655 -0.001937 0.000000 0.000000 0.000000
# 3 -0.006931 -0.001937 0.045336 0.000000 0.000000 0.000000
# 4 0.000000 0.000000 0.000000 0.098514 0.000000 0.000000
# 5 0.000000 0.000000 0.000000 0.000000 0.036136 0.000000
# 6 0.000000 0.000000 0.000000 0.000000 0.000000 -0.018978
#
#
# Mechanical properties :
#
#
# Convention : Reuss Voigt Hill
#
# Bulk Modulus (GPa) = 25.18662 74.88649 50.03655
# Shear Modulus (GPa) = 22.48610 12.83585 17.66097
#
# Velocity S-wave (km/s) = 3.25245 2.45734 2.88244
# Velocity P-wave (km/s) = 5.09445 6.57884 5.88365
#
# Compressibility (1/GPa) = 0.03970362
#
# Stress axis : x y z
#
# Youngs Moduli (GPa) = 151.81008 68.23528 22.05730
#
# Poissons Ratio (x) = 0.31182 0.15287
# Poissons Ratio (y) = 0.69375 0.04273
# Poissons Ratio (z) = 1.05212 0.13219
#
# Static dielectric constant tensor:
#      x y z
#    x 1.810050 0.000000 0.000000 
#    y 0.000000 1.719790 0.000000 
#    z 0.000000 0.000000 1.775190 
# 
# From -- ./inp_files/7865.got.cif
#   From: 2010.05.17/outbox.cif.g08.bks.cpg/sg64_4_cif.got.tgz:7865.got - 2010.06.03 16:29:19.
