data_PCOD9480518
_publ_section_title
;
Structure prediction by ZEFSAII (Michael W. Deem and Ramdas Pophale) SiO2 
 PCOD9480518
Probable space group: C M C A
;
_chemical_formula_sum "Si O2"
_cell_formula_units_Z 80
_cell_length_a 19.419231
_cell_length_b 14.426952
_cell_length_c 13.310478
_cell_angle_alpha 90.000000
_cell_angle_beta 90.000000
_cell_angle_gamma 90.000000
_cell_volume 3729.067690
_symmetry_space_group_name_H-M "C M C A"
_symmetry_group_IT_number 64
_symmetry_cell_setting 'orthorhombic'
loop_
_space_group_symop_operation_xyz
x,y,z
-x,1/2-y,1/2+z
x,-y,-z
-x,1/2+y,1/2-z
-x,-y,-z
x,1/2+y,1/2-z
-x,y,z
x,1/2-y,1/2+z
1/2+x,1/2+y,z
1/2-x,-y,1/2+z
1/2+x,1/2-y,-z
1/2-x,y,1/2-z
1/2-x,1/2-y,-z
1/2+x,y,1/2-z
1/2-x,1/2+y,z
1/2+x,-y,1/2+z
loop_
_atom_site_type_symbol
_atom_site_label
_atom_site_fract_x
_atom_site_fract_y
_atom_site_fract_z
Si Si1 0.676341 0.867337 0.697342
Si Si2 0.672707 0.410340 0.220002
Si Si3 0.923953 0.323692 0.857532
Si Si4 0.327047 0.710954 0.980401
Si Si5 0.578183 0.536544 0.604699
O O1 0.750000 0.845830 0.750000
O O2 0.623281 0.806031 0.761759
O O3 0.661809 0.841780 0.583383
O O4 0.672030 0.978836 0.701473
O O5 0.750000 0.383343 0.250000
O O6 0.661048 0.356517 0.115480
O O7 0.622051 0.402802 0.317251
O O8 0.880773 0.293129 0.955206
O O9 0.930675 0.434362 0.848255
O O10 0.000000 0.281838 0.857441
O O11 0.250000 0.750000 0.000000
O O12 0.611806 0.500000 0.500000
O O13 0.500000 0.573223 0.584477
#
# Coordination Sequence:
#
# PCOD9480518 Si02
#       5
#    16  16  16  16  16
#     4  10  21  43  63  90 126 173 219 275 330 408
#     4  10  24  38  64  94 129 172 220 270 330 407
#     4  10  23  41  62  92 128 166 213 273 337 397
#     4  12  25  38  64  95 135 170 219 277 345 403
#     4   9  20  41  67  93 125 169 220 273 329 402
#
# _framework density 21.453084
#
# number of rings (size 3 to 8) (size 9 to 14) (size 15 to 20)
#    0.000    1.800    2.000    0.600    5.600    1.600 
#    0.000    2.000    0.000    6.000    0.000    0.000 
#    0.000    0.000    0.000    0.000    0.000    0.000 
#
# Total GULP energy -222737.695193 kJ/mol
# GULP energy per Si atom -5568.442380 kJ/mol
# Density = 2.140426 g / cm^3
# Si number density = 21.453084 Si / 1000 Ang^3
#
#
#
# Elastic Constant Matrix: (Units=GPa)
#
#
# Indices 1 2 3 4 5 6 
#
# 1 123.4426 24.0637 51.9575 0.0000 0.0000 0.0000
# 2 24.0637 60.7017 26.5977 0.0000 0.0000 0.0000
# 3 51.9575 26.5977 167.7282 0.0000 0.0000 0.0000
# 4 0.0000 0.0000 0.0000 44.4750 0.0000 0.0000
# 5 0.0000 0.0000 0.0000 0.0000 28.9564 0.0000
# 6 0.0000 0.0000 0.0000 0.0000 0.0000 -6.1281
#
#
#
# Elastic Compliance Matrix: (Units=1/GPa)
#
#
# Indices 1 2 3 4 5 6 
#
# 1 0.009717 -0.002722 -0.002578 0.000000 0.000000 0.000000
# 2 -0.002722 0.018467 -0.002085 0.000000 0.000000 0.000000
# 3 -0.002578 -0.002085 0.007091 0.000000 0.000000 0.000000
# 4 0.000000 0.000000 0.000000 0.022485 0.000000 0.000000
# 5 0.000000 0.000000 0.000000 0.000000 0.034535 0.000000
# 6 0.000000 0.000000 0.000000 0.000000 0.000000 -0.163182
#
#
# Mechanical properties :
#
#
# Convention : Reuss Voigt Hill
#
# Bulk Modulus (GPa) = 48.77188 61.90116 55.33652
# Shear Modulus (GPa) = -101.45694 30.07755 -35.68970
#
# Velocity S-wave (km/s) = -6.88441 3.74841 -4.08317
# Velocity P-wave (km/s) = 6.35688 6.90297 1.90276
#
# Compressibility (1/GPa) = 0.02050362
#
# Stress axis : x y z
#
# Youngs Moduli (GPa) = 102.91420 54.15122 141.01645
#
# Poissons Ratio (x) = 0.14741 0.36359
# Poissons Ratio (y) = 0.28016 0.29404
# Poissons Ratio (z) = 0.26535 0.11291
#
# Static dielectric constant tensor:
#      x y z
#    x 1.874320 0.000000 0.000000 
#    y 0.000000 1.827250 0.000000 
#    z 0.000000 0.000000 1.703370 
# 
# From -- ./inp_files/25302.got.cif
#   From: 2010.05.17/outbox.cif.g08.bks.cpg/sg64_13_cif.got.tgz:25302.got - 2010.06.03 16:29:19.
