data_PCOD9480105
_publ_section_title
;
Structure prediction by ZEFSAII (Michael W. Deem and Ramdas Pophale) SiO2 
 PCOD9480105
Probable space group: C M C A
;
_chemical_formula_sum "Si O2"
_cell_formula_units_Z 56
_cell_length_a 14.604475
_cell_length_b 8.894460
_cell_length_c 19.071363
_cell_angle_alpha 90.000000
_cell_angle_beta 90.000000
_cell_angle_gamma 90.000000
_cell_volume 2477.349432
_symmetry_space_group_name_H-M "C M C A"
_symmetry_group_IT_number 64
_symmetry_cell_setting 'orthorhombic'
loop_
_space_group_symop_operation_xyz
x,y,z
-x,1/2-y,1/2+z
x,-y,-z
-x,1/2+y,1/2-z
-x,-y,-z
x,1/2+y,1/2-z
-x,y,z
x,1/2-y,1/2+z
1/2+x,1/2+y,z
1/2-x,-y,1/2+z
1/2+x,1/2-y,-z
1/2-x,y,1/2-z
1/2-x,1/2-y,-z
1/2+x,y,1/2-z
1/2-x,1/2+y,z
1/2+x,-y,1/2+z
loop_
_atom_site_type_symbol
_atom_site_label
_atom_site_fract_x
_atom_site_fract_y
_atom_site_fract_z
Si Si1 0.803867 0.656033 0.320721
Si Si2 0.500000 0.305297 0.629574
Si Si3 0.000000 0.696821 0.961694
Si Si4 0.657516 0.475142 0.377476
Si Si5 0.500000 0.045245 0.351338
O O1 0.750000 0.621985 0.250000
O O2 0.750102 0.573862 0.385409
O O3 0.809730 0.833956 0.332239
O O4 0.906747 0.598728 0.316558
O O5 0.500000 0.297758 0.544714
O O6 0.587591 0.400974 0.652386
O O7 0.500000 0.133622 0.650985
O O8 0.908537 0.608070 0.934893
O O9 0.000000 0.861107 0.925221
#
# Coordination Sequence:
#
# PCOD9480105 Si02
#       5
#    16   8   8  16   8
#     4  11  23  42  64  92 126 165 211 265 317 373
#     4  11  21  42  66  93 131 167 206 266 316 370
#     4   9  21  42  64  95 131 167 208 263 316 368
#     4  10  21  38  63  93 126 164 213 254 310 383
#     4  10  23  42  68  96 124 166 218 259 315 386
#
# _framework density 22.604807000000001
#
# number of rings (size 3 to 8) (size 9 to 14) (size 15 to 20)
#    0.000    1.714    0.000    5.571    0.000    2.286 
#    0.000   34.286    0.000    0.000    0.000    0.000 
#    0.000    0.000    0.000    0.000    0.000    0.000 
#
# Total GULP energy -156220.535899 kJ/mol
# GULP energy per Si atom -5579.304854 kJ/mol
# Density = 2.255336 g / cm^3
# Si number density = 22.604807 Si / 1000 Ang^3
#
#
#
# Elastic Constant Matrix: (Units=GPa)
#
#
# Indices 1 2 3 4 5 6 
#
# 1 169.4892 54.1995 24.5552 0.0000 0.0000 0.0000
# 2 54.1995 209.7008 8.0824 0.0000 0.0000 0.0000
# 3 24.5552 8.0824 55.9862 0.0000 0.0000 0.0000
# 4 0.0000 0.0000 0.0000 22.5555 0.0000 0.0000
# 5 0.0000 0.0000 0.0000 0.0000 14.2757 0.0000
# 6 0.0000 0.0000 0.0000 0.0000 0.0000 23.2504
#
#
#
# Elastic Compliance Matrix: (Units=1/GPa)
#
#
# Indices 1 2 3 4 5 6 
#
# 1 0.006830 -0.001659 -0.002756 0.000000 0.000000 0.000000
# 2 -0.001659 0.005198 -0.000023 0.000000 0.000000 0.000000
# 3 -0.002756 -0.000023 0.019074 0.000000 0.000000 0.000000
# 4 0.000000 0.000000 0.000000 0.044335 0.000000 0.000000
# 5 0.000000 0.000000 0.000000 0.000000 0.070049 0.000000
# 6 0.000000 0.000000 0.000000 0.000000 0.000000 0.043010
#
#
# Mechanical properties :
#
#
# Convention : Reuss Voigt Hill
#
# Bulk Modulus (GPa) = 44.99217 67.65007 56.32112
# Shear Modulus (GPa) = 24.41636 35.23891 29.82763
#
# Velocity S-wave (km/s) = 3.29011 3.95259 3.63647
# Velocity P-wave (km/s) = 5.86346 7.12902 6.52698
#
# Compressibility (1/GPa) = 0.02222609
#
# Stress axis : x y z
#
# Youngs Moduli (GPa) = 146.41502 192.36780 52.42846
#
# Poissons Ratio (x) = 0.31915 0.14450
# Poissons Ratio (y) = 0.24291 0.00120
# Poissons Ratio (z) = 0.40353 0.00439
#
# Static dielectric constant tensor:
#      x y z
#    x 1.725580 0.000000 0.000000 
#    y 0.000000 1.811430 0.000000 
#    z 0.000000 0.000000 1.903250 
# 
# From -- ./inp_files/38768.got.cif
#   From: 2010.05.17/outbox.cif.g08.bks.cpg/sg64_20_cif.got.tgz:38768.got - 2010.06.03 16:29:19.
