data_PCOD9480239
_publ_section_title
;
Structure prediction by ZEFSAII (Michael W. Deem and Ramdas Pophale) SiO2 
 PCOD9480239
Probable space group: C M C A
;
_chemical_formula_sum "Si O2"
_cell_formula_units_Z 80
_cell_length_a 9.065071
_cell_length_b 25.108834
_cell_length_c 18.524002
_cell_angle_alpha 90.000000
_cell_angle_beta 90.000000
_cell_angle_gamma 90.000000
_cell_volume 4216.310390
_symmetry_space_group_name_H-M "C M C A"
_symmetry_group_IT_number 64
_symmetry_cell_setting 'orthorhombic'
loop_
_space_group_symop_operation_xyz
x,y,z
-x,1/2-y,1/2+z
x,-y,-z
-x,1/2+y,1/2-z
-x,-y,-z
x,1/2+y,1/2-z
-x,y,z
x,1/2-y,1/2+z
1/2+x,1/2+y,z
1/2-x,-y,1/2+z
1/2+x,1/2-y,-z
1/2-x,y,1/2-z
1/2-x,1/2-y,-z
1/2+x,y,1/2-z
1/2-x,1/2+y,z
1/2+x,-y,1/2+z
loop_
_atom_site_type_symbol
_atom_site_label
_atom_site_fract_x
_atom_site_fract_y
_atom_site_fract_z
Si Si1 0.175945 0.020728 0.918740
Si Si2 0.823149 0.635371 0.916779
Si Si3 0.325289 0.570962 0.326564
Si Si4 0.325544 0.324526 0.575400
Si Si5 0.824392 0.237280 0.673333
O O1 0.239626 0.079839 0.909845
O O2 0.000000 0.020380 0.908514
O O3 0.252586 0.980293 0.863646
O O4 0.207603 0.000000 0.000000
O O5 0.790698 0.677537 0.853892
O O6 0.000000 0.625636 0.918577
O O7 0.783407 0.662999 0.993073
O O8 0.500000 0.562862 0.317492
O O9 0.250000 0.581545 0.250000
O O10 0.303617 0.621492 0.378882
O O11 0.500000 0.311346 0.577052
O O12 0.235398 0.277968 0.613402
O O13 0.750000 0.248538 0.750000
O O14 0.000000 0.242839 0.679409
#
# Coordination Sequence:
#
# PCOD9480239 Si02
#       5
#    16  16  16  16  16
#     4  11  23  39  62  92 123 159 203 251 301 359
#     4  10  22  41  64  90 120 161 206 250 306 364
#     4  11  23  39  62  90 124 162 202 252 307 366
#     4  10  21  39  64  91 120 157 203 252 307 364
#     4  11  24  40  61  88 123 162 202 249 303 362
#
# _framework density 18.973935000000001
#
# number of rings (size 3 to 8) (size 9 to 14) (size 15 to 20)
#    0.000    1.400    2.000    3.000    0.000    7.200 
#    0.000    2.000    0.000    0.000    0.000    0.000 
#    0.000    0.000    0.000    0.000    0.000    0.000 
#
# Total GULP energy -223694.556090 kJ/mol
# GULP energy per Si atom -5592.363902 kJ/mol
# Density = 1.893075 g / cm^3
# Si number density = 18.973935 Si / 1000 Ang^3
#
#
#
# Elastic Constant Matrix: (Units=GPa)
#
#
# Indices 1 2 3 4 5 6 
#
# 1 42.9652 38.2331 9.9103 0.0000 0.0000 0.0000
# 2 38.2331 79.8644 -13.3651 0.0000 0.0000 0.0000
# 3 9.9103 -13.3651 36.4775 0.0000 0.0000 0.0000
# 4 0.0000 0.0000 0.0000 -14.8141 0.0000 0.0000
# 5 0.0000 0.0000 0.0000 0.0000 24.0713 0.0000
# 6 0.0000 0.0000 0.0000 0.0000 0.0000 35.2126
#
#
#
# Elastic Compliance Matrix: (Units=1/GPa)
#
#
# Indices 1 2 3 4 5 6 
#
# 1 0.059191 -0.033054 -0.028192 0.000000 0.000000 0.000000
# 2 -0.033054 0.031797 0.020630 0.000000 0.000000 0.000000
# 3 -0.028192 0.020630 0.042632 0.000000 0.000000 0.000000
# 4 0.000000 0.000000 0.000000 -0.067503 0.000000 0.000000
# 5 0.000000 0.000000 0.000000 0.000000 0.041543 0.000000
# 6 0.000000 0.000000 0.000000 0.000000 0.000000 0.028399
#
#
# Mechanical properties :
#
#
# Convention : Reuss Voigt Hill
#
# Bulk Modulus (GPa) = 19.08763 25.42932 22.25847
# Shear Modulus (GPa) = 21.29899 17.19587 19.24743
#
# Velocity S-wave (km/s) = 3.35407 3.01373 3.18844
# Velocity P-wave (km/s) = 5.00814 5.05385 5.03105
#
# Compressibility (1/GPa) = 0.05238995
#
# Stress axis : x y z
#
# Youngs Moduli (GPa) = 16.89456 31.44913 23.45645
#
# Poissons Ratio (x) = 1.03952 0.66128
# Poissons Ratio (y) = 0.55843 -0.48392
# Poissons Ratio (z) = 0.47629 -0.64881
#
# Static dielectric constant tensor:
#      x y z
#    x 1.627520 0.000000 0.000000 
#    y 0.000000 1.627420 0.000000 
#    z 0.000000 0.000000 1.639990 
# 
# From -- ./inp_files/29813.got.cif
#   From: 2010.05.17/outbox.cif.g08.bks.cpg/sg64_15_cif.got.tgz:29813.got - 2010.06.03 16:29:19.
