data_PCOD9480424
_publ_section_title
;
Structure prediction by ZEFSAII (Michael W. Deem and Ramdas Pophale) SiO2 
 PCOD9480424
Probable space group: C M C A
;
_chemical_formula_sum "Si O2"
_cell_formula_units_Z 116
_cell_length_a 15.785003
_cell_length_b 12.816032
_cell_length_c 25.224154
_cell_angle_alpha 90.000000
_cell_angle_beta 90.000000
_cell_angle_gamma 90.000000
_cell_volume 5102.874191
_symmetry_space_group_name_H-M "C M C A"
_symmetry_group_IT_number 64
_symmetry_cell_setting 'orthorhombic'
loop_
_space_group_symop_operation_xyz
x,y,z
-x,1/2-y,1/2+z
x,-y,-z
-x,1/2+y,1/2-z
-x,-y,-z
x,1/2+y,1/2-z
-x,y,z
x,1/2-y,1/2+z
1/2+x,1/2+y,z
1/2-x,-y,1/2+z
1/2+x,1/2-y,-z
1/2-x,y,1/2-z
1/2-x,1/2-y,-z
1/2+x,y,1/2-z
1/2-x,1/2+y,z
1/2+x,-y,1/2+z
loop_
_atom_site_type_symbol
_atom_site_label
_atom_site_fract_x
_atom_site_fract_y
_atom_site_fract_z
Si Si1 0.905693 0.977600 0.323890
Si Si2 0.399920 0.829220 0.000650
Si Si3 0.173352 0.014163 0.571690
Si Si4 0.836391 0.458808 0.719254
Si Si5 0.899560 0.749683 0.277084
Si Si6 0.101964 0.339073 0.335834
Si Si7 0.348454 0.127724 0.550519
Si Si8 0.000000 0.500000 0.500000
O O1 0.837198 0.011140 0.366732
O O2 0.888634 0.858351 0.307526
O O3 0.000000 0.990412 0.346560
O O4 0.902222 0.036978 0.268287
O O5 0.500000 0.813723 0.990309
O O6 0.352911 0.718995 0.993707
O O7 0.359405 0.914458 0.960852
O O8 0.387049 0.887149 0.056764
O O9 0.264744 0.058017 0.555577
O O10 0.750000 0.482505 0.750000
O O11 0.843882 0.342067 0.698465
O O12 0.862701 0.546125 0.677995
O O13 0.874598 0.770336 0.215558
O O14 0.000000 0.726722 0.279998
O O15 0.136870 0.312703 0.393532
O O16 0.000000 0.340520 0.337332
O O17 0.426155 0.052319 0.537762
#
# Coordination Sequence:
#
# PCOD9480424 Si02
#       8
#    16  16  16  16  16  16  16   4
#     4  10  21  41  63  93 128 172 220 271 336 400
#     4  11  23  46  70  97 132 178 224 269 343 414
#     4  11  24  42  70 101 137 165 225 295 336 396
#     4  11  22  36  59  92 130 171 214 271 331 392
#     4   9  20  38  62  88 124 169 216 262 319 395
#     4  10  21  42  63  87 126 168 220 265 318 407
#     4  12  25  45  69 100 131 180 224 281 343 405
#     4  12  24  48  68  98 134 172 228 272 328 420
#
# _framework density 22.732286999999999
#
# number of rings (size 3 to 8) (size 9 to 14) (size 15 to 20)
#    0.000    1.379    1.379    5.793    1.931    3.310 
#    4.966    0.000    0.000    0.000    0.000    0.000 
#    0.000    0.000    0.000    0.000    0.000    0.000 
#
# Total GULP energy -323649.575562 kJ/mol
# GULP energy per Si atom -5580.165096 kJ/mol
# Density = 2.268055 g / cm^3
# Si number density = 22.732287 Si / 1000 Ang^3
#
#
#
# Elastic Constant Matrix: (Units=GPa)
#
#
# Indices 1 2 3 4 5 6 
#
# 1 104.1681 11.1442 -8.6332 0.0000 0.0000 0.0000
# 2 11.1442 50.3518 -19.7176 0.0000 0.0000 0.0000
# 3 -8.6332 -19.7176 39.7868 0.0000 0.0000 0.0000
# 4 0.0000 0.0000 0.0000 4.3549 0.0000 0.0000
# 5 0.0000 0.0000 0.0000 0.0000 14.6327 0.0000
# 6 0.0000 0.0000 0.0000 0.0000 0.0000 15.6362
#
#
#
# Elastic Compliance Matrix: (Units=1/GPa)
#
#
# Indices 1 2 3 4 5 6 
#
# 1 0.009888 -0.001673 0.001316 0.000000 0.000000 0.000000
# 2 -0.001673 0.024926 0.011990 0.000000 0.000000 0.000000
# 3 0.001316 0.011990 0.031362 0.000000 0.000000 0.000000
# 4 0.000000 0.000000 0.000000 0.229624 0.000000 0.000000
# 5 0.000000 0.000000 0.000000 0.000000 0.068340 0.000000
# 6 0.000000 0.000000 0.000000 0.000000 0.000000 0.063954
#
#
# Mechanical properties :
#
#
# Convention : Reuss Voigt Hill
#
# Bulk Modulus (GPa) = 11.18048 17.76595 14.47322
# Shear Modulus (GPa) = 11.50375 21.02564 16.26470
#
# Velocity S-wave (km/s) = 2.25200 3.04456 2.67776
# Velocity P-wave (km/s) = 3.41922 4.49348 3.99264
#
# Compressibility (1/GPa) = 0.08944156
#
# Stress axis : x y z
#
# Youngs Moduli (GPa) = 101.13325 40.11928 31.88623
#
# Poissons Ratio (x) = 0.06712 -0.04198
# Poissons Ratio (y) = 0.16919 -0.38231
# Poissons Ratio (z) = -0.13314 -0.48102
#
# Static dielectric constant tensor:
#      x y z
#    x 1.859530 0.000000 0.000000 
#    y 0.000000 1.832030 0.000000 
#    z 0.000000 0.000000 1.843470 
# 
# From -- ./inp_files/50474.got.cif
#   From: 2010.05.17/outbox.cif.g08.bks.cpg/sg64_26_cif.got.tgz:50474.got - 2010.06.03 16:29:19.
