data_PCOD9480621
_publ_section_title
;
Structure prediction by ZEFSAII (Michael W. Deem and Ramdas Pophale) SiO2 
 PCOD9480621
Probable space group: C M C A
;
_chemical_formula_sum "Si O2"
_cell_formula_units_Z 96
_cell_length_a 14.304553
_cell_length_b 20.443802
_cell_length_c 17.396923
_cell_angle_alpha 90.000000
_cell_angle_beta 90.000000
_cell_angle_gamma 90.000000
_cell_volume 5087.546580
_symmetry_space_group_name_H-M "C M C A"
_symmetry_group_IT_number 64
_symmetry_cell_setting 'orthorhombic'
loop_
_space_group_symop_operation_xyz
x,y,z
-x,1/2-y,1/2+z
x,-y,-z
-x,1/2+y,1/2-z
-x,-y,-z
x,1/2+y,1/2-z
-x,y,z
x,1/2-y,1/2+z
1/2+x,1/2+y,z
1/2-x,-y,1/2+z
1/2+x,1/2-y,-z
1/2-x,y,1/2-z
1/2-x,1/2-y,-z
1/2+x,y,1/2-z
1/2-x,1/2+y,z
1/2+x,-y,1/2+z
loop_
_atom_site_type_symbol
_atom_site_label
_atom_site_fract_x
_atom_site_fract_y
_atom_site_fract_z
Si Si1 0.822763 0.993677 0.410292
Si Si2 0.000000 0.101560 0.193978
Si Si3 0.688630 0.370938 0.074627
Si Si4 0.000000 0.367122 0.329230
Si Si5 0.207647 0.760328 0.333962
Si Si6 0.000000 0.022602 0.697329
Si Si7 0.693076 0.117078 0.393064
Si Si8 0.500000 0.752977 0.214356
O O1 0.770206 0.060355 0.386069
O O2 0.851520 0.000000 0.500000
O O3 0.748289 0.935277 0.406317
O O4 0.908940 0.976551 0.356182
O O5 0.094517 0.095962 0.144051
O O6 0.000000 0.175120 0.228019
O O7 0.000000 0.045439 0.256804
O O8 0.591096 0.375232 0.118811
O O9 0.744566 0.308047 0.105270
O O10 0.676721 0.369105 0.983119
O O11 0.000000 0.418788 0.259124
O O12 0.000000 0.295311 0.291378
O O13 0.250000 0.775336 0.250000
O O14 0.225152 0.684497 0.353746
O O15 0.095538 0.769308 0.330465
#
# Coordination Sequence:
#
# PCOD9480621 Si02
#       8
#    16   8  16   8  16   8  16   8
#     4  10  24  42  62  88 124 162 204 252 306 370
#     4  10  23  39  61  93 120 160 201 256 300 366
#     4  11  23  41  63  90 124 165 203 251 312 363
#     4  12  23  37  61  93 120 160 203 256 300 370
#     4  11  22  39  64  91 124 159 208 256 302 363
#     4  12  25  38  63  92 122 160 208 248 315 356
#     4  10  23  42  63  90 124 164 203 252 308 366
#     4  10  22  38  56  90 126 152 200 258 302 346
#
# _framework density 18.869605
#
# number of rings (size 3 to 8) (size 9 to 14) (size 15 to 20)
#    0.000    1.333    1.667    3.250    4.667    1.333 
#    0.000    4.167    0.000    2.000    0.000    0.000 
#    0.000    0.000    0.000    0.000    0.000    0.000 
#
# Total GULP energy -268379.760884 kJ/mol
# GULP energy per Si atom -5591.245018 kJ/mol
# Density = 1.882666 g / cm^3
# Si number density = 18.869605 Si / 1000 Ang^3
#
#
#
# Elastic Constant Matrix: (Units=GPa)
#
#
# Indices 1 2 3 4 5 6 
#
# 1 88.8196 16.4279 33.8867 0.0000 0.0000 0.0000
# 2 16.4279 34.1286 11.3040 0.0000 0.0000 0.0000
# 3 33.8867 11.3040 51.7005 0.0000 0.0000 0.0000
# 4 0.0000 0.0000 0.0000 37.1418 0.0000 0.0000
# 5 0.0000 0.0000 0.0000 0.0000 130.5335 0.0000
# 6 0.0000 0.0000 0.0000 0.0000 0.0000 -53.8348
#
#
#
# Elastic Compliance Matrix: (Units=1/GPa)
#
#
# Indices 1 2 3 4 5 6 
#
# 1 0.015615 -0.004449 -0.009262 0.000000 0.000000 0.000000
# 2 -0.004449 0.032856 -0.004268 0.000000 0.000000 0.000000
# 3 -0.009262 -0.004268 0.026346 0.000000 0.000000 0.000000
# 4 0.000000 0.000000 0.000000 0.026924 0.000000 0.000000
# 5 0.000000 0.000000 0.000000 0.000000 0.007661 0.000000
# 6 0.000000 0.000000 0.000000 0.000000 0.000000 -0.018575
#
#
# Mechanical properties :
#
#
# Convention : Reuss Voigt Hill
#
# Bulk Modulus (GPa) = 25.73357 33.09844 29.41600
# Shear Modulus (GPa) = 35.78128 30.30343 33.04236
#
# Velocity S-wave (km/s) = 4.35931 4.01176 4.18914
# Velocity P-wave (km/s) = 6.24542 6.24802 6.24672
#
# Compressibility (1/GPa) = 0.03885975
#
# Stress axis : x y z
#
# Youngs Moduli (GPa) = 64.03947 30.43593 37.95612
#
# Poissons Ratio (x) = 0.13540 0.35156
# Poissons Ratio (y) = 0.28489 0.16199
# Poissons Ratio (z) = 0.59315 0.12990
#
# Static dielectric constant tensor:
#      x y z
#    x 1.643150 0.000000 0.000000 
#    y 0.000000 1.639930 0.000000 
#    z 0.000000 0.000000 1.623800 
# 
# From -- ./inp_files/24038.got.cif
#   From: 2010.05.17/outbox.cif.g08.bks.cpg/sg64_13_cif.got.tgz:24038.got - 2010.06.03 16:29:19.
