data_PCOD9480509
_publ_section_title
;
Structure prediction by ZEFSAII (Michael W. Deem and Ramdas Pophale) SiO2 
 PCOD9480509
Probable space group: C M C A
;
_chemical_formula_sum "Si O2"
_cell_formula_units_Z 88
_cell_length_a 22.989181
_cell_length_b 13.528713
_cell_length_c 13.701273
_cell_angle_alpha 90.000000
_cell_angle_beta 90.000000
_cell_angle_gamma 90.000000
_cell_volume 4261.288157
_symmetry_space_group_name_H-M "C M C A"
_symmetry_group_IT_number 64
_symmetry_cell_setting 'orthorhombic'
loop_
_space_group_symop_operation_xyz
x,y,z
-x,1/2-y,1/2+z
x,-y,-z
-x,1/2+y,1/2-z
-x,-y,-z
x,1/2+y,1/2-z
-x,y,z
x,1/2-y,1/2+z
1/2+x,1/2+y,z
1/2-x,-y,1/2+z
1/2+x,1/2-y,-z
1/2-x,y,1/2-z
1/2-x,1/2-y,-z
1/2+x,y,1/2-z
1/2-x,1/2+y,z
1/2+x,-y,1/2+z
loop_
_atom_site_type_symbol
_atom_site_label
_atom_site_fract_x
_atom_site_fract_y
_atom_site_fract_z
Si Si1 0.568243 0.757286 0.091570
Si Si2 0.639587 0.880283 0.248668
Si Si3 0.260664 0.601015 0.058386
Si Si4 0.931222 0.474531 0.611076
Si Si5 0.750000 0.502075 0.250000
Si Si6 0.840250 0.750234 0.064474
O O1 0.500000 0.780256 0.089972
O O2 0.603177 0.829265 0.163411
O O3 0.574806 0.642946 0.124983
O O4 0.597214 0.763933 0.984673
O O5 0.602416 0.960534 0.309763
O O6 0.698484 0.932166 0.210590
O O7 0.656652 0.798327 0.329266
O O8 0.277441 0.570584 0.167307
O O9 0.304868 0.674947 0.006131
O O10 0.259045 0.500000 0.000000
O O11 0.197872 0.651811 0.064465
O O12 0.911219 0.500000 0.500000
O O13 0.000000 0.499136 0.615377
#
# Coordination Sequence:
#
# PCOD9480509 Si02
#       6
#    16  16  16  16   8  16
#     4  11  25  43  67 100 134 175 226 276 336 404
#     4  12  25  42  67 102 132 177 219 283 331 401
#     4  11  24  45  64  99 134 171 219 278 334 411
#     4  10  21  42  70  95 126 173 227 277 331 397
#     4  12  26  40  72  96 136 176 224 270 350 392
#     4  11  25  42  69  94 135 174 223 271 347 396
#
# _framework density 20.651033000000002
#
# number of rings (size 3 to 8) (size 9 to 14) (size 15 to 20)
#    0.000    0.909    3.636    2.727    7.636    0.727 
#    0.000    0.000    0.000    1.636    0.000    0.000 
#    0.000    0.000    0.000    0.000    0.000    0.000 
#
# Total GULP energy -246250.155339 kJ/mol
# GULP energy per Si atom -5596.594440 kJ/mol
# Density = 2.060403 g / cm^3
# Si number density = 20.651033 Si / 1000 Ang^3
#
#
#
# Elastic Constant Matrix: (Units=GPa)
#
#
# Indices 1 2 3 4 5 6 
#
# 1 90.3583 30.5420 -6.6389 0.0000 0.0000 0.0000
# 2 30.5420 66.9849 6.3104 0.0000 0.0000 0.0000
# 3 -6.6389 6.3104 43.9739 0.0000 0.0000 0.0000
# 4 0.0000 0.0000 0.0000 32.3480 0.0000 0.0000
# 5 0.0000 0.0000 0.0000 0.0000 20.4643 0.0000
# 6 0.0000 0.0000 0.0000 0.0000 0.0000 -9.0674
#
#
#
# Elastic Compliance Matrix: (Units=1/GPa)
#
#
# Indices 1 2 3 4 5 6 
#
# 1 0.013451 -0.006411 0.002951 0.000000 0.000000 0.000000
# 2 -0.006411 0.018189 -0.003578 0.000000 0.000000 0.000000
# 3 0.002951 -0.003578 0.023700 0.000000 0.000000 0.000000
# 4 0.000000 0.000000 0.000000 0.030914 0.000000 0.000000
# 5 0.000000 0.000000 0.000000 0.000000 0.048866 0.000000
# 6 0.000000 0.000000 0.000000 0.000000 0.000000 -0.110285
#
#
# Mechanical properties :
#
#
# Convention : Reuss Voigt Hill
#
# Bulk Modulus (GPa) = 24.23488 29.08270 26.65879
# Shear Modulus (GPa) = 94.94050 20.15588 57.54819
#
# Velocity S-wave (km/s) = 6.78775 3.12753 5.28465
# Velocity P-wave (km/s) = 8.55525 5.21108 7.08335
#
# Compressibility (1/GPa) = 0.04126285
#
# Stress axis : x y z
#
# Youngs Moduli (GPa) = 74.34506 54.97863 42.19463
#
# Poissons Ratio (x) = 0.35246 -0.12450
# Poissons Ratio (y) = 0.47662 0.15097
# Poissons Ratio (z) = -0.21937 0.19672
#
# Static dielectric constant tensor:
#      x y z
#    x 1.749480 0.000000 0.000000 
#    y 0.000000 1.723540 0.000000 
#    z 0.000000 0.000000 1.744180 
# 
# From -- ./inp_files/27210.got.cif
#   From: 2010.05.17/outbox.cif.g08.bks.cpg/sg64_14_cif.got.tgz:27210.got - 2010.06.03 16:29:19.
