data_PCOD9480309
_publ_section_title
;
Structure prediction by ZEFSAII (Michael W. Deem and Ramdas Pophale) SiO2 
 PCOD9480309
Probable space group: C M C A
;
_chemical_formula_sum "Si O2"
_cell_formula_units_Z 88
_cell_length_a 19.608043
_cell_length_b 7.791634
_cell_length_c 23.904908
_cell_angle_alpha 90.000000
_cell_angle_beta 90.000000
_cell_angle_gamma 90.000000
_cell_volume 3652.160637
_symmetry_space_group_name_H-M "C M C A"
_symmetry_group_IT_number 64
_symmetry_cell_setting 'orthorhombic'
loop_
_space_group_symop_operation_xyz
x,y,z
-x,1/2-y,1/2+z
x,-y,-z
-x,1/2+y,1/2-z
-x,-y,-z
x,1/2+y,1/2-z
-x,y,z
x,1/2-y,1/2+z
1/2+x,1/2+y,z
1/2-x,-y,1/2+z
1/2+x,1/2-y,-z
1/2-x,y,1/2-z
1/2-x,1/2-y,-z
1/2+x,y,1/2-z
1/2-x,1/2+y,z
1/2+x,-y,1/2+z
loop_
_atom_site_type_symbol
_atom_site_label
_atom_site_fract_x
_atom_site_fract_y
_atom_site_fract_z
Si Si1 0.642110 0.836351 0.098662
Si Si2 0.282530 0.799898 0.907731
Si Si3 0.391933 0.697305 0.986815
Si Si4 0.421992 0.965543 0.208344
Si Si5 0.617809 0.650868 0.822571
Si Si6 0.000000 0.848203 0.102553
O O1 0.701583 0.694371 0.096811
O O2 0.602128 0.851535 0.156291
O O3 0.684839 0.012002 0.093058
O O4 0.598652 0.804229 0.043125
O O5 0.315295 0.714815 0.963176
O O6 0.313297 0.694236 0.855212
O O7 0.440780 0.746331 0.935967
O O8 0.409872 0.500000 0.000000
O O9 0.500000 0.925310 0.223183
O O10 0.375860 0.938549 0.262890
O O11 0.417360 0.162944 0.189036
O O12 0.561523 0.559835 0.861154
#
# Coordination Sequence:
#
# PCOD9480309 Si02
#       6
#    16  16  16  16  16   8
#     4  11  24  41  65  94 126 168 209 260 310 377
#     4  10  23  43  63  91 129 168 211 254 314 369
#     4  11  23  40  63  92 128 165 211 260 314 377
#     4  11  22  40  65  94 127 162 209 256 312 375
#     4  10  22  42  64  91 127 167 207 257 309 371
#     4  10  21  40  61  90 127 166 205 260 307 376
#
# _framework density 24.095327999999999
#
# number of rings (size 3 to 8) (size 9 to 14) (size 15 to 20)
#    0.000    1.455    1.818    2.455    1.273    5.091 
#    3.273    6.364    0.000    0.000    0.000    0.000 
#    0.000    0.000    0.000    0.000    0.000    0.000 
#
# Total GULP energy -245239.253815 kJ/mol
# GULP energy per Si atom -5573.619405 kJ/mol
# Density = 2.404049 g / cm^3
# Si number density = 24.095328 Si / 1000 Ang^3
#
#
#
# Elastic Constant Matrix: (Units=GPa)
#
#
# Indices 1 2 3 4 5 6 
#
# 1 43.2524 -6.2539 -4.7961 0.0000 0.0000 0.0000
# 2 -6.2539 66.2794 -7.2643 0.0000 0.0000 0.0000
# 3 -4.7961 -7.2643 85.5823 0.0000 0.0000 0.0000
# 4 0.0000 0.0000 0.0000 19.4374 0.0000 0.0000
# 5 0.0000 0.0000 0.0000 0.0000 16.4738 0.0000
# 6 0.0000 0.0000 0.0000 0.0000 0.0000 17.2891
#
#
#
# Elastic Compliance Matrix: (Units=1/GPa)
#
#
# Indices 1 2 3 4 5 6 
#
# 1 0.023636 0.002398 0.001528 0.000000 0.000000 0.000000
# 2 0.002398 0.015473 0.001448 0.000000 0.000000 0.000000
# 3 0.001528 0.001448 0.011893 0.000000 0.000000 0.000000
# 4 0.000000 0.000000 0.000000 0.051447 0.000000 0.000000
# 5 0.000000 0.000000 0.000000 0.000000 0.060702 0.000000
# 6 0.000000 0.000000 0.000000 0.000000 0.000000 0.057840
#
#
# Mechanical properties :
#
#
# Convention : Reuss Voigt Hill
#
# Bulk Modulus (GPa) = 16.19458 17.60950 16.90204
# Shear Modulus (GPa) = 21.66121 24.86864 23.26493
#
# Velocity S-wave (km/s) = 3.00155 3.21611 3.11068
# Velocity P-wave (km/s) = 4.32990 4.59513 4.46449
#
# Compressibility (1/GPa) = 0.06174905
#
# Stress axis : x y z
#
# Youngs Moduli (GPa) = 42.30789 64.63061 84.08184
#
# Poissons Ratio (x) = -0.15497 -0.12849
# Poissons Ratio (y) = -0.10144 -0.12172
# Poissons Ratio (z) = -0.06465 -0.09357
#
# Static dielectric constant tensor:
#      x y z
#    x 1.937920 0.000000 0.000000 
#    y 0.000000 1.983170 0.000000 
#    z 0.000000 0.000000 1.979300 
# 
# From -- ./inp_files/46180.got.cif
#   From: 2010.05.17/outbox.cif.g08.bks.cpg/sg64_24_cif.got.tgz:46180.got - 2010.06.03 16:29:19.
