data_PCOD9480417
_publ_section_title
;
Structure prediction by ZEFSAII (Michael W. Deem and Ramdas Pophale) SiO2 
 PCOD9480417
Probable space group: C M C A
;
_chemical_formula_sum "Si O2"
_cell_formula_units_Z 48
_cell_length_a 30.659335
_cell_length_b 5.186855
_cell_length_c 14.838652
_cell_angle_alpha 90.000000
_cell_angle_beta 90.000000
_cell_angle_gamma 90.000000
_cell_volume 2359.724425
_symmetry_space_group_name_H-M "C M C A"
_symmetry_group_IT_number 64
_symmetry_cell_setting 'orthorhombic'
loop_
_space_group_symop_operation_xyz
x,y,z
-x,1/2-y,1/2+z
x,-y,-z
-x,1/2+y,1/2-z
-x,-y,-z
x,1/2+y,1/2-z
-x,y,z
x,1/2-y,1/2+z
1/2+x,1/2+y,z
1/2-x,-y,1/2+z
1/2+x,1/2-y,-z
1/2-x,y,1/2-z
1/2-x,1/2-y,-z
1/2+x,y,1/2-z
1/2-x,1/2+y,z
1/2+x,-y,1/2+z
loop_
_atom_site_type_symbol
_atom_site_label
_atom_site_fract_x
_atom_site_fract_y
_atom_site_fract_z
Si Si1 0.929173 0.601767 0.700135
Si Si2 0.219684 0.000000 0.000000
Si Si3 0.000000 0.250749 0.439939
Si Si4 0.824536 0.586876 0.692961
O O1 0.940254 0.303723 0.719555
O O2 0.877219 0.605216 0.686797
O O3 0.956849 0.721472 0.620185
O O4 0.192698 0.022740 0.906755
O O5 0.250000 0.250000 0.000000
O O6 0.000000 0.500000 0.500000
O O7 0.000000 0.000000 0.500000
O O8 0.811091 0.359128 0.762285
#
# Coordination Sequence:
#
# PCOD9480417 Si02
#       4
#    16   8   8  16
#     4  10  21  41  63  85 123 169 209 253 311 372
#     4  12  26  42  66  99 128 167 210 270 332 388
#     4  12  24  36  58  98 126 162 210 262 314 366
#     4  10  23  43  66  94 127 170 212 261 320 383
#
# _framework density 20.341356999999999
#
# number of rings (size 3 to 8) (size 9 to 14) (size 15 to 20)
#    0.000    1.333    0.000    5.000    2.333    4.000 
#    3.000    0.000    0.000    0.000    0.000    0.000 
#    0.000    0.000    0.000    0.000    0.000    0.000 
#
# Total GULP energy -134032.187121 kJ/mol
# GULP energy per Si atom -5584.674463 kJ/mol
# Density = 2.029506 g / cm^3
# Si number density = 20.341357 Si / 1000 Ang^3
#
#
#
# Elastic Constant Matrix: (Units=GPa)
#
#
# Indices 1 2 3 4 5 6 
#
# 1 52.7916 47.5755 52.7572 0.0000 0.0000 0.0000
# 2 47.5755 169.9056 57.7790 0.0000 0.0000 0.0000
# 3 52.7572 57.7790 140.4197 0.0000 0.0000 0.0000
# 4 0.0000 0.0000 0.0000 51.6474 0.0000 0.0000
# 5 0.0000 0.0000 0.0000 0.0000 43.8912 0.0000
# 6 0.0000 0.0000 0.0000 0.0000 0.0000 20.1728
#
#
#
# Elastic Compliance Matrix: (Units=1/GPa)
#
#
# Indices 1 2 3 4 5 6 
#
# 1 0.035222 -0.006235 -0.010668 0.000000 0.000000 0.000000
# 2 -0.006235 0.007947 -0.000927 0.000000 0.000000 0.000000
# 3 -0.010668 -0.000927 0.011511 0.000000 0.000000 0.000000
# 4 0.000000 0.000000 0.000000 0.019362 0.000000 0.000000
# 5 0.000000 0.000000 0.000000 0.000000 0.022784 0.000000
# 6 0.000000 0.000000 0.000000 0.000000 0.000000 0.049572
#
#
# Mechanical properties :
#
#
# Convention : Reuss Voigt Hill
#
# Bulk Modulus (GPa) = 52.57663 75.48228 64.02945
# Shear Modulus (GPa) = 26.53963 36.80930 31.67447
#
# Velocity S-wave (km/s) = 3.61600 4.25853 3.95035
# Velocity P-wave (km/s) = 6.58310 7.83380 7.23553
#
# Compressibility (1/GPa) = 0.01901986
#
# Stress axis : x y z
#
# Youngs Moduli (GPa) = 28.39128 125.83641 86.87230
#
# Poissons Ratio (x) = 0.78457 0.92674
# Poissons Ratio (y) = 0.17701 0.08057
# Poissons Ratio (z) = 0.30287 0.11670
#
# Static dielectric constant tensor:
#      x y z
#    x 1.711820 0.000000 0.000000 
#    y 0.000000 1.702580 0.000000 
#    z 0.000000 0.000000 1.725430 
# 
# From -- ./inp_files/27705.got.cif
#   From: 2010.05.17/outbox.cif.g08.bks.cpg/sg64_14_cif.got.tgz:27705.got - 2010.06.03 16:29:19.
