data_PCOD9480728
_publ_section_title
;
Structure prediction by ZEFSAII (Michael W. Deem and Ramdas Pophale) SiO2 
 PCOD9480728
Probable space group: C M C A
;
_chemical_formula_sum "Si O2"
_cell_formula_units_Z 96
_cell_length_a 19.311645
_cell_length_b 14.710706
_cell_length_c 17.477644
_cell_angle_alpha 90.000000
_cell_angle_beta 90.000000
_cell_angle_gamma 90.000000
_cell_volume 4965.187740
_symmetry_space_group_name_H-M "C M C A"
_symmetry_group_IT_number 64
_symmetry_cell_setting 'orthorhombic'
loop_
_space_group_symop_operation_xyz
x,y,z
-x,1/2-y,1/2+z
x,-y,-z
-x,1/2+y,1/2-z
-x,-y,-z
x,1/2+y,1/2-z
-x,y,z
x,1/2-y,1/2+z
1/2+x,1/2+y,z
1/2-x,-y,1/2+z
1/2+x,1/2-y,-z
1/2-x,y,1/2-z
1/2-x,1/2-y,-z
1/2+x,y,1/2-z
1/2-x,1/2+y,z
1/2+x,-y,1/2+z
loop_
_atom_site_type_symbol
_atom_site_label
_atom_site_fract_x
_atom_site_fract_y
_atom_site_fract_z
Si Si1 0.916521 0.449038 0.215023
Si Si2 0.671662 0.292367 0.225549
Si Si3 0.173985 0.897058 0.788422
Si Si4 0.582314 0.089635 0.957995
Si Si5 0.208816 0.901279 0.963480
Si Si6 0.340464 0.233173 0.050709
O O1 0.882789 0.372690 0.268254
O O2 0.880501 0.542164 0.241903
O O3 0.893339 0.417491 0.129734
O O4 0.000000 0.454156 0.218768
O O5 0.750000 0.322129 0.250000
O O6 0.654851 0.208881 0.281540
O O7 0.665464 0.251059 0.140876
O O8 0.250000 0.907918 0.750000
O O9 0.181626 0.918053 0.877760
O O10 0.500000 0.082421 0.953140
O O11 0.599455 0.176788 0.009103
O O12 0.609681 0.000000 0.000000
O O13 0.277096 0.837623 0.963268
O O14 0.160799 0.832656 0.011941
O O15 0.219091 0.000000 0.000000
#
# Coordination Sequence:
#
# PCOD9480728 Si02
#       6
#    16  16  16  16  16  16
#     4  11  25  41  63  91 126 171 208 254 315 374
#     4  11  22  41  62  93 124 161 211 262 314 371
#     4  11  22  40  61  92 123 158 206 259 310 365
#     4  10  22  39  61  92 125 164 210 256 307 371
#     4  11  23  37  59  92 121 156 199 252 315 371
#     4  11  22  38  62  90 122 160 203 255 316 372
#
# _framework density 19.334616
#
# number of rings (size 3 to 8) (size 9 to 14) (size 15 to 20)
#    0.000    1.167    3.333    4.000    4.667    1.333 
#    0.000    0.833    0.000    2.000    0.000    0.000 
#    0.000    0.000    0.000    0.000    0.000    0.000 
#
# Total GULP energy -267670.549400 kJ/mol
# GULP energy per Si atom -5576.469779 kJ/mol
# Density = 1.929061 g / cm^3
# Si number density = 19.334616 Si / 1000 Ang^3
#
#
#
# Elastic Constant Matrix: (Units=GPa)
#
#
# Indices 1 2 3 4 5 6 
#
# 1 47.9486 26.0744 -3.5935 0.0000 0.0000 0.0000
# 2 26.0744 87.9765 6.8529 0.0000 0.0000 0.0000
# 3 -3.5935 6.8529 77.8263 0.0000 0.0000 0.0000
# 4 0.0000 0.0000 0.0000 15.6352 0.0000 0.0000
# 5 0.0000 0.0000 0.0000 0.0000 19.7666 0.0000
# 6 0.0000 0.0000 0.0000 0.0000 0.0000 166.4310
#
#
#
# Elastic Compliance Matrix: (Units=1/GPa)
#
#
# Indices 1 2 3 4 5 6 
#
# 1 0.025118 -0.007587 0.001828 0.000000 0.000000 0.000000
# 2 -0.007587 0.013737 -0.001560 0.000000 0.000000 0.000000
# 3 0.001828 -0.001560 0.013071 0.000000 0.000000 0.000000
# 4 0.000000 0.000000 0.000000 0.063958 0.000000 0.000000
# 5 0.000000 0.000000 0.000000 0.000000 0.050590 0.000000
# 6 0.000000 0.000000 0.000000 0.000000 0.000000 0.006008
#
#
# Mechanical properties :
#
#
# Convention : Reuss Voigt Hill
#
# Bulk Modulus (GPa) = 26.81820 30.26879 28.54350
# Shear Modulus (GPa) = 25.05631 52.66108 38.85869
#
# Velocity S-wave (km/s) = 3.60381 5.22454 4.48794
# Velocity P-wave (km/s) = 5.58724 7.21690 6.45372
#
# Compressibility (1/GPa) = 0.03728811
#
# Stress axis : x y z
#
# Youngs Moduli (GPa) = 39.81136 72.79710 76.50598
#
# Poissons Ratio (x) = 0.55231 -0.13984
# Poissons Ratio (y) = 0.30205 0.11934
# Poissons Ratio (z) = -0.07277 0.11356
#
# Static dielectric constant tensor:
#      x y z
#    x 1.681820 0.000000 0.000000 
#    y 0.000000 1.686570 0.000000 
#    z 0.000000 0.000000 1.695140 
# 
# From -- ./inp_files/26319.got.cif
#   From: 2010.05.17/outbox.cif.g08.bks.cpg/sg64_14_cif.got.tgz:26319.got - 2010.06.03 16:29:19.
