data_PCOD9480603
_publ_section_title
;
Structure prediction by ZEFSAII (Michael W. Deem and Ramdas Pophale) SiO2 
 PCOD9480603
Probable space group: C M C A
;
_chemical_formula_sum "Si O2"
_cell_formula_units_Z 112
_cell_length_a 24.763926
_cell_length_b 11.294375
_cell_length_c 18.876949
_cell_angle_alpha 90.000000
_cell_angle_beta 90.000000
_cell_angle_gamma 90.000000
_cell_volume 5279.751756
_symmetry_space_group_name_H-M "C M C A"
_symmetry_group_IT_number 64
_symmetry_cell_setting 'orthorhombic'
loop_
_space_group_symop_operation_xyz
x,y,z
-x,1/2-y,1/2+z
x,-y,-z
-x,1/2+y,1/2-z
-x,-y,-z
x,1/2+y,1/2-z
-x,y,z
x,1/2-y,1/2+z
1/2+x,1/2+y,z
1/2-x,-y,1/2+z
1/2+x,1/2-y,-z
1/2-x,y,1/2-z
1/2-x,1/2-y,-z
1/2+x,y,1/2-z
1/2-x,1/2+y,z
1/2+x,-y,1/2+z
loop_
_atom_site_type_symbol
_atom_site_label
_atom_site_fract_x
_atom_site_fract_y
_atom_site_fract_z
Si Si1 0.737279 0.456041 0.578916
Si Si2 0.558240 0.863377 0.015053
Si Si3 0.363914 0.264851 0.219708
Si Si4 0.159633 0.752965 0.561923
Si Si5 0.562098 0.722761 0.153837
Si Si6 0.854659 0.420116 0.560690
Si Si7 0.190721 0.501453 0.218523
O O1 0.728139 0.500000 0.500000
O O2 0.713559 0.323615 0.582240
O O3 0.800631 0.471123 0.596747
O O4 0.700247 0.522947 0.635104
O O5 0.500000 0.806530 0.994543
O O6 0.565322 0.831507 0.097828
O O7 0.609578 0.824408 0.970624
O O8 0.553919 0.000000 0.000000
O O9 0.364698 0.293115 0.135982
O O10 0.417292 0.255900 0.268260
O O11 0.333232 0.379809 0.250989
O O12 0.339326 0.129657 0.226137
O O13 0.172602 0.671999 0.494476
O O14 0.500000 0.681956 0.155363
O O15 0.603374 0.630324 0.116563
O O16 0.882931 0.500000 0.500000
O O17 0.250000 0.521511 0.250000
#
# Coordination Sequence:
#
# PCOD9480603 Si02
#       7
#    16  16  16  16  16  16  16
#     4  10  22  37  64  96 126 172 220 271 323 391
#     4   9  19  37  65  92 121 164 220 280 330 383
#     4  11  26  41  67  94 134 175 223 267 331 399
#     4  10  22  37  59  93 132 168 215 269 333 388
#     4  10  23  43  65  90 125 171 221 277 334 392
#     4  10  22  39  64  92 131 165 222 271 330 400
#     4  11  25  44  65  96 137 178 215 264 334 398
#
# _framework density 21.213118000000001
#
# number of rings (size 3 to 8) (size 9 to 14) (size 15 to 20)
#    0.000    1.857    0.000    2.143   14.000    2.000 
#    0.000    0.714    0.000    0.000    0.000    0.000 
#    0.000    0.000    0.000    0.000    0.000    0.000 
#
# Total GULP energy -311849.818497 kJ/mol
# GULP energy per Si atom -5568.746759 kJ/mol
# Density = 2.116484 g / cm^3
# Si number density = 21.213118 Si / 1000 Ang^3
#
#
#
# Elastic Constant Matrix: (Units=GPa)
#
#
# Indices 1 2 3 4 5 6 
#
# 1 92.3621 21.4694 44.1596 0.0000 0.0000 0.0000
# 2 21.4694 53.7282 20.6031 0.0000 0.0000 0.0000
# 3 44.1596 20.6031 111.2954 0.0000 0.0000 0.0000
# 4 0.0000 0.0000 0.0000 8.6941 0.0000 0.0000
# 5 0.0000 0.0000 0.0000 0.0000 25.4901 0.0000
# 6 0.0000 0.0000 0.0000 0.0000 0.0000 25.3637
#
#
#
# Elastic Compliance Matrix: (Units=1/GPa)
#
#
# Indices 1 2 3 4 5 6 
#
# 1 0.014025 -0.003736 -0.004873 0.000000 0.000000 0.000000
# 2 -0.003736 0.021029 -0.002411 0.000000 0.000000 0.000000
# 3 -0.004873 -0.002411 0.011365 0.000000 0.000000 0.000000
# 4 0.000000 0.000000 0.000000 0.115021 0.000000 0.000000
# 5 0.000000 0.000000 0.000000 0.000000 0.039231 0.000000
# 6 0.000000 0.000000 0.000000 0.000000 0.000000 0.039426
#
#
# Mechanical properties :
#
#
# Convention : Reuss Voigt Hill
#
# Bulk Modulus (GPa) = 41.01693 47.76109 44.38901
# Shear Modulus (GPa) = 18.50041 23.31982 20.91012
#
# Velocity S-wave (km/s) = 2.95637 3.31918 3.14302
# Velocity P-wave (km/s) = 5.57056 6.10353 5.84312
#
# Compressibility (1/GPa) = 0.02438018
#
# Stress axis : x y z
#
# Youngs Moduli (GPa) = 71.29961 47.55248 87.98912
#
# Poissons Ratio (x) = 0.17764 0.42881
# Poissons Ratio (y) = 0.26635 0.21212
# Poissons Ratio (z) = 0.34747 0.11464
#
# Static dielectric constant tensor:
#      x y z
#    x 1.804410 0.000000 0.000000 
#    y 0.000000 2.014510 0.000000 
#    z 0.000000 0.000000 1.815970 
# 
# From -- ./inp_files/41519.got.cif
#   From: 2010.05.17/outbox.cif.g08.bks.cpg/sg64_21_cif.got.tgz:41519.got - 2010.06.03 16:29:19.
