data_PCOD9480977
_publ_section_title
;
Structure prediction by ZEFSAII (Michael W. Deem and Ramdas Pophale) SiO2 
 PCOD9480977
Probable space group: C M C A
;
_chemical_formula_sum "Si O2"
_cell_formula_units_Z 64
_cell_length_a 14.226389
_cell_length_b 10.028066
_cell_length_c 22.008723
_cell_angle_alpha 90.000000
_cell_angle_beta 90.000000
_cell_angle_gamma 90.000000
_cell_volume 3139.834143
_symmetry_space_group_name_H-M "C M C A"
_symmetry_group_IT_number 64
_symmetry_cell_setting 'orthorhombic'
loop_
_space_group_symop_operation_xyz
x,y,z
-x,1/2-y,1/2+z
x,-y,-z
-x,1/2+y,1/2-z
-x,-y,-z
x,1/2+y,1/2-z
-x,y,z
x,1/2-y,1/2+z
1/2+x,1/2+y,z
1/2-x,-y,1/2+z
1/2+x,1/2-y,-z
1/2-x,y,1/2-z
1/2-x,1/2-y,-z
1/2+x,y,1/2-z
1/2-x,1/2+y,z
1/2+x,-y,1/2+z
loop_
_atom_site_type_symbol
_atom_site_label
_atom_site_fract_x
_atom_site_fract_y
_atom_site_fract_z
Si Si1 0.331050 0.000000 0.000000
Si Si2 0.201242 0.662582 0.686111
Si Si3 0.000000 0.197268 0.485817
Si Si4 0.500000 0.409736 0.919181
Si Si5 0.210500 0.395985 0.614243
Si Si6 0.500000 0.302251 0.143005
O O1 0.405663 0.121668 0.991549
O O2 0.262700 0.957417 0.944771
O O3 0.250000 0.688239 0.750000
O O4 0.216994 0.510682 0.665363
O O5 0.091176 0.696292 0.684755
O O6 0.241161 0.760873 0.634983
O O7 0.000000 0.346199 0.513451
O O8 0.000000 0.195011 0.411998
O O9 0.399007 0.363701 0.894841
O O10 0.500000 0.561716 0.896138
#
# Coordination Sequence:
#
# PCOD9480977 Si02
#       6
#     8  16   8   8  16   8
#     4  11  24  37  66  94 134 165 206 263 332 390
#     4  11  24  44  66  90 127 170 219 264 312 374
#     4  11  21  40  59  99 128 167 201 262 322 392
#     4  10  24  36  63  94 133 163 208 259 325 381
#     4  11  24  42  64  97 128 172 212 264 325 383
#     4  10  22  42  64  93 122 167 213 262 313 377
#
# _framework density 20.383241999999999
#
# number of rings (size 3 to 8) (size 9 to 14) (size 15 to 20)
#    0.000    1.250    2.500    2.625    7.000    3.000 
#    0.000    6.250    0.000    0.000    0.000    0.000 
#    0.000    0.000    0.000    0.000    0.000    0.000 
#
# Total GULP energy -178463.458779 kJ/mol
# GULP energy per Si atom -5576.983087 kJ/mol
# Density = 2.033685 g / cm^3
# Si number density = 20.383242 Si / 1000 Ang^3
#
#
#
# Elastic Constant Matrix: (Units=GPa)
#
#
# Indices 1 2 3 4 5 6 
#
# 1 160.6388 33.0682 35.4096 0.0000 0.0000 0.0000
# 2 33.0682 47.3316 19.1192 0.0000 0.0000 0.0000
# 3 35.4096 19.1192 88.4441 0.0000 0.0000 0.0000
# 4 0.0000 0.0000 0.0000 26.0377 0.0000 0.0000
# 5 0.0000 0.0000 0.0000 0.0000 104.1587 0.0000
# 6 0.0000 0.0000 0.0000 0.0000 0.0000 7.2336
#
#
#
# Elastic Compliance Matrix: (Units=1/GPa)
#
#
# Indices 1 2 3 4 5 6 
#
# 1 0.007604 -0.004473 -0.002077 0.000000 0.000000 0.000000
# 2 -0.004473 0.025781 -0.003782 0.000000 0.000000 0.000000
# 3 -0.002077 -0.003782 0.012956 0.000000 0.000000 0.000000
# 4 0.000000 0.000000 0.000000 0.038406 0.000000 0.000000
# 5 0.000000 0.000000 0.000000 0.000000 0.009601 0.000000
# 6 0.000000 0.000000 0.000000 0.000000 0.000000 0.138243
#
#
# Mechanical properties :
#
#
# Convention : Reuss Voigt Hill
#
# Bulk Modulus (GPa) = 38.94869 52.40097 45.67483
# Shear Modulus (GPa) = 19.09752 41.40717 30.25234
#
# Velocity S-wave (km/s) = 3.06424 4.51203 3.85668
# Velocity P-wave (km/s) = 5.62753 7.27381 6.50297
#
# Compressibility (1/GPa) = 0.02567481
#
# Stress axis : x y z
#
# Youngs Moduli (GPa) = 131.51135 38.78888 77.18534
#
# Poissons Ratio (x) = 0.17352 0.16034
# Poissons Ratio (y) = 0.58830 0.29192
# Poissons Ratio (z) = 0.27319 0.14670
#
# Static dielectric constant tensor:
#      x y z
#    x 1.538960 0.000000 0.000000 
#    y 0.000000 1.732750 0.000000 
#    z 0.000000 0.000000 1.703720 
# 
# From -- ./inp_files/31711.got.cif
#   From: 2010.05.17/outbox.cif.g08.bks.cpg/sg64_16_cif.got.tgz:31711.got - 2010.06.03 16:29:19.
