data_PCOD9480762
_publ_section_title
;
Structure prediction by ZEFSAII (Michael W. Deem and Ramdas Pophale) SiO2 
 PCOD9480762
Probable space group: C M C A
;
_chemical_formula_sum "Si O2"
_cell_formula_units_Z 64
_cell_length_a 10.819752
_cell_length_b 19.558708
_cell_length_c 14.318374
_cell_angle_alpha 90.000000
_cell_angle_beta 90.000000
_cell_angle_gamma 90.000000
_cell_volume 3030.059604
_symmetry_space_group_name_H-M "C M C A"
_symmetry_group_IT_number 64
_symmetry_cell_setting 'orthorhombic'
loop_
_space_group_symop_operation_xyz
x,y,z
-x,1/2-y,1/2+z
x,-y,-z
-x,1/2+y,1/2-z
-x,-y,-z
x,1/2+y,1/2-z
-x,y,z
x,1/2-y,1/2+z
1/2+x,1/2+y,z
1/2-x,-y,1/2+z
1/2+x,1/2-y,-z
1/2-x,y,1/2-z
1/2-x,1/2-y,-z
1/2+x,y,1/2-z
1/2-x,1/2+y,z
1/2+x,-y,1/2+z
loop_
_atom_site_type_symbol
_atom_site_label
_atom_site_fract_x
_atom_site_fract_y
_atom_site_fract_z
Si Si1 0.753824 0.198115 0.587670
Si Si2 0.356737 0.052659 0.915542
Si Si3 0.750000 0.463837 0.750000
Si Si4 0.500000 0.752439 0.603816
Si Si5 0.500000 0.625393 0.229040
Si Si6 0.000000 0.248026 0.378893
O O1 0.750000 0.250000 0.500000
O O2 0.783697 0.121288 0.558107
O O3 0.624015 0.208912 0.637352
O O4 0.874179 0.221888 0.644190
O O5 0.500000 0.069118 0.890157
O O6 0.285270 0.013542 0.834470
O O7 0.361781 0.000000 0.000000
O O8 0.626620 0.418133 0.765966
O O9 0.500000 0.831439 0.632686
O O10 0.500000 0.735335 0.492469
O O11 0.500000 0.679557 0.316177
#
# Coordination Sequence:
#
# PCOD9480762 Si02
#       6
#    16  16   8   8   8   8
#     4  10  22  42  71 100 138 181 242 296 362 423
#     4  11  26  47  77 105 151 201 245 301 376 456
#     4  12  28  46  74 108 150 196 254 298 384 444
#     4  10  22  39  70 100 141 181 245 301 360 429
#     4  12  26  44  72 108 148 194 244 316 376 442
#     4  10  24  39  68 104 143 181 243 301 368 431
#
# _framework density 21.121697000000001
#
# number of rings (size 3 to 8) (size 9 to 14) (size 15 to 20)
#    0.000    1.250    2.500    1.500   14.000    3.000 
#    0.000    1.250    0.000    0.000    0.000    0.000 
#    0.000    0.000    0.000    0.000    0.000    0.000 
#
# Total GULP energy -178620.727607 kJ/mol
# GULP energy per Si atom -5581.897738 kJ/mol
# Density = 2.107362 g / cm^3
# Si number density = 21.121697 Si / 1000 Ang^3
#
#
#
# Elastic Constant Matrix: (Units=GPa)
#
#
# Indices 1 2 3 4 5 6 
#
# 1 229.8908 79.5191 30.1051 0.0000 0.0000 0.0000
# 2 79.5191 165.3529 43.9058 0.0000 0.0000 0.0000
# 3 30.1051 43.9058 105.5900 0.0000 0.0000 0.0000
# 4 0.0000 0.0000 0.0000 42.7888 0.0000 0.0000
# 5 0.0000 0.0000 0.0000 0.0000 7.9084 0.0000
# 6 0.0000 0.0000 0.0000 0.0000 0.0000 53.0837
#
#
#
# Elastic Compliance Matrix: (Units=1/GPa)
#
#
# Indices 1 2 3 4 5 6 
#
# 1 0.005241 -0.002387 -0.000502 0.000000 0.000000 0.000000
# 2 -0.002387 0.007886 -0.002598 0.000000 0.000000 0.000000
# 3 -0.000502 -0.002598 0.010694 0.000000 0.000000 0.000000
# 4 0.000000 0.000000 0.000000 0.023371 0.000000 0.000000
# 5 0.000000 0.000000 0.000000 0.000000 0.126447 0.000000
# 6 0.000000 0.000000 0.000000 0.000000 0.000000 0.018838
#
#
# Mechanical properties :
#
#
# Convention : Reuss Voigt Hill
#
# Bulk Modulus (GPa) = 77.84304 89.76598 83.80451
# Shear Modulus (GPa) = 24.06921 43.90977 33.98949
#
# Velocity S-wave (km/s) = 3.37938 4.56444 4.01586
# Velocity P-wave (km/s) = 7.22229 8.38871 7.82726
#
# Compressibility (1/GPa) = 0.01284636
#
# Stress axis : x y z
#
# Youngs Moduli (GPa) = 190.78915 126.81165 93.51003
#
# Poissons Ratio (x) = 0.30275 0.04691
# Poissons Ratio (y) = 0.45549 0.24297
# Poissons Ratio (z) = 0.09571 0.32950
#
# Static dielectric constant tensor:
#      x y z
#    x 1.849790 0.000000 0.000000 
#    y 0.000000 1.749510 0.000000 
#    z 0.000000 0.000000 1.734470 
# 
# From -- ./inp_files/22048.got.cif
#   From: 2010.05.17/outbox.cif.g08.bks.cpg/sg64_12_cif.got.tgz:22048.got - 2010.06.03 16:29:19.
