data_PCOD9480500
_publ_section_title
;
Structure prediction by ZEFSAII (Michael W. Deem and Ramdas Pophale) SiO2 
 PCOD9480500
Probable space group: C M C A
;
_chemical_formula_sum "Si O2"
_cell_formula_units_Z 116
_cell_length_a 19.334781
_cell_length_b 16.078455
_cell_length_c 17.268087
_cell_angle_alpha 90.000000
_cell_angle_beta 90.000000
_cell_angle_gamma 90.000000
_cell_volume 5368.189025
_symmetry_space_group_name_H-M "C M C A"
_symmetry_group_IT_number 64
_symmetry_cell_setting 'orthorhombic'
loop_
_space_group_symop_operation_xyz
x,y,z
-x,1/2-y,1/2+z
x,-y,-z
-x,1/2+y,1/2-z
-x,-y,-z
x,1/2+y,1/2-z
-x,y,z
x,1/2-y,1/2+z
1/2+x,1/2+y,z
1/2-x,-y,1/2+z
1/2+x,1/2-y,-z
1/2-x,y,1/2-z
1/2-x,1/2-y,-z
1/2+x,y,1/2-z
1/2-x,1/2+y,z
1/2+x,-y,1/2+z
loop_
_atom_site_type_symbol
_atom_site_label
_atom_site_fract_x
_atom_site_fract_y
_atom_site_fract_z
Si Si1 0.169512 0.815311 0.608136
Si Si2 0.419450 0.204333 0.499432
Si Si3 0.925229 0.098100 0.280940
Si Si4 0.888516 0.492337 0.357267
Si Si5 0.925043 0.235518 0.676316
Si Si6 0.500000 0.500000 0.000000
Si Si7 0.818101 0.159518 0.786332
Si Si8 0.205598 0.086615 0.043440
O O1 0.106457 0.771405 0.561649
O O2 0.136287 0.888489 0.659289
O O3 0.198375 0.743683 0.665609
O O4 0.229454 0.852828 0.554555
O O5 0.500000 0.171702 0.512117
O O6 0.419441 0.244713 0.414091
O O7 0.357898 0.137132 0.494738
O O8 0.920119 0.020984 0.223733
O O9 0.923858 0.177910 0.223559
O O10 0.000000 0.098129 0.320964
O O11 0.859217 0.401179 0.342663
O O12 0.825345 0.555291 0.375048
O O13 0.940121 0.500010 0.429811
O O14 0.865538 0.182041 0.713549
O O15 0.000000 0.196202 0.690940
O O16 0.750000 0.120183 0.750000
O O17 0.221886 0.000000 0.000000
#
# Coordination Sequence:
#
# PCOD9480500 Si02
#       8
#    16  16  16  16  16   4  16  16
#     4  11  26  45  71  98 145 191 239 286 354 439
#     4  11  23  44  73 101 138 187 246 306 356 418
#     4  10  21  42  68 100 132 180 227 287 356 423
#     4  12  26  43  71 103 139 178 229 299 371 421
#     4   9  20  40  68  96 132 178 230 285 350 417
#     4  12  28  48  72 108 148 174 232 308 380 420
#     4  11  26  44  67 101 139 183 237 288 354 442
#     4  12  26  42  68 106 142 185 231 292 365 422
#
# _framework density 21.608778000000001
#
# number of rings (size 3 to 8) (size 9 to 14) (size 15 to 20)
#    0.000    1.103    2.759    2.483    5.793    1.931 
#    0.000    0.000    0.000    0.828    0.000    0.000 
#    0.000    0.000    0.000    0.000    0.000    0.000 
#
# Total GULP energy -323569.912063 kJ/mol
# GULP energy per Si atom -5578.791587 kJ/mol
# Density = 2.155960 g / cm^3
# Si number density = 21.608778 Si / 1000 Ang^3
#
#
#
# Elastic Constant Matrix: (Units=GPa)
#
#
# Indices 1 2 3 4 5 6 
#
# 1 117.6394 43.3287 46.7016 0.0000 0.0000 0.0000
# 2 43.3287 62.1038 17.9667 0.0000 0.0000 0.0000
# 3 46.7016 17.9667 75.8185 0.0000 0.0000 0.0000
# 4 0.0000 0.0000 0.0000 33.5182 0.0000 0.0000
# 5 0.0000 0.0000 0.0000 0.0000 19.8319 0.0000
# 6 0.0000 0.0000 0.0000 0.0000 0.0000 9.1056
#
#
#
# Elastic Compliance Matrix: (Units=1/GPa)
#
#
# Indices 1 2 3 4 5 6 
#
# 1 0.014108 -0.007868 -0.006826 0.000000 0.000000 0.000000
# 2 -0.007868 0.021676 -0.000290 0.000000 0.000000 0.000000
# 3 -0.006826 -0.000290 0.017462 0.000000 0.000000 0.000000
# 4 0.000000 0.000000 0.000000 0.029835 0.000000 0.000000
# 5 0.000000 0.000000 0.000000 0.000000 0.050424 0.000000
# 6 0.000000 0.000000 0.000000 0.000000 0.000000 0.109822
#
#
# Mechanical properties :
#
#
# Convention : Reuss Voigt Hill
#
# Bulk Modulus (GPa) = 42.95795 52.39508 47.67651
# Shear Modulus (GPa) = 17.79015 22.32881 20.05948
#
# Velocity S-wave (km/s) = 2.87240 3.21802 3.05011
# Velocity P-wave (km/s) = 5.56093 6.17311 5.87500
#
# Compressibility (1/GPa) = 0.02327858
#
# Stress axis : x y z
#
# Youngs Moduli (GPa) = 70.87990 46.13488 57.26580
#
# Poissons Ratio (x) = 0.36301 0.39088
# Poissons Ratio (y) = 0.55772 0.01659
# Poissons Ratio (z) = 0.48380 0.01337
#
# Static dielectric constant tensor:
#      x y z
#    x 1.632810 0.000000 0.000000 
#    y 0.000000 1.867600 0.000000 
#    z 0.000000 0.000000 1.782070 
# 
# From -- ./inp_files/33483.got.cif
#   From: 2010.05.17/outbox.cif.g08.bks.cpg/sg64_17_cif.got.tgz:33483.got - 2010.06.03 16:29:19.
