data_PCOD9480754
_publ_section_title
;
Structure prediction by ZEFSAII (Michael W. Deem and Ramdas Pophale) SiO2 
 PCOD9480754
Probable space group: C M C A
;
_chemical_formula_sum "Si O2"
_cell_formula_units_Z 112
_cell_length_a 28.179406
_cell_length_b 14.318387
_cell_length_c 11.724377
_cell_angle_alpha 90.000000
_cell_angle_beta 90.000000
_cell_angle_gamma 90.000000
_cell_volume 4730.594315
_symmetry_space_group_name_H-M "C M C A"
_symmetry_group_IT_number 64
_symmetry_cell_setting 'orthorhombic'
loop_
_space_group_symop_operation_xyz
x,y,z
-x,1/2-y,1/2+z
x,-y,-z
-x,1/2+y,1/2-z
-x,-y,-z
x,1/2+y,1/2-z
-x,y,z
x,1/2-y,1/2+z
1/2+x,1/2+y,z
1/2-x,-y,1/2+z
1/2+x,1/2-y,-z
1/2-x,y,1/2-z
1/2-x,1/2-y,-z
1/2+x,y,1/2-z
1/2-x,1/2+y,z
1/2+x,-y,1/2+z
loop_
_atom_site_type_symbol
_atom_site_label
_atom_site_fract_x
_atom_site_fract_y
_atom_site_fract_z
Si Si1 0.630901 0.709351 0.097151
Si Si2 0.630264 0.083400 0.919567
Si Si3 0.269036 0.006280 0.125624
Si Si4 0.447976 0.513802 0.735573
Si Si5 0.447257 0.293158 0.716706
Si Si6 0.947466 0.876483 0.041586
Si Si7 0.759253 0.208518 0.126725
O O1 0.631610 0.811119 0.036198
O O2 0.598822 0.726316 0.208167
O O3 0.684824 0.682879 0.123822
O O4 0.600194 0.632897 0.030839
O O5 0.594429 0.072773 0.815923
O O6 0.683344 0.052840 0.888514
O O7 0.613004 0.000000 0.000000
O O8 0.250000 0.978474 0.250000
O O9 0.274343 0.117800 0.135410
O O10 0.243491 0.000000 0.000000
O O11 0.500000 0.547075 0.695748
O O12 0.444706 0.405336 0.701310
O O13 0.446056 0.538213 0.869488
O O14 0.500000 0.276340 0.769600
O O15 0.447008 0.221909 0.611617
O O16 0.000000 0.879671 0.985962
O O17 0.750000 0.259300 0.250000
O O18 0.750000 0.250000 0.000000
#
# Coordination Sequence:
#
# PCOD9480754 Si02
#       7
#    16  16  16  16  16  16  16
#     4  12  25  40  71 100 132 189 232 290 365 430
#     4  11  23  41  68  97 134 176 234 292 353 428
#     4  10  24  45  68  98 135 185 233 307 369 426
#     4  10  22  39  65  98 139 185 225 281 351 425
#     4  10  22  41  65 100 142 180 230 291 351 426
#     4  10  22  42  66 102 146 181 231 293 356 434
#     4  11  27  46  70 102 141 184 243 303 365 440
#
# _framework density 23.675671999999999
#
# number of rings (size 3 to 8) (size 9 to 14) (size 15 to 20)
#    0.000    1.429    1.429    3.000    6.000    4.857 
#    0.000    2.143    0.000    0.000    0.000    0.000 
#    0.000    0.000    0.000    0.000    0.000    0.000 
#
# Total GULP energy -312226.623620 kJ/mol
# GULP energy per Si atom -5575.475422 kJ/mol
# Density = 2.362178 g / cm^3
# Si number density = 23.675672 Si / 1000 Ang^3
#
#
#
# Elastic Constant Matrix: (Units=GPa)
#
#
# Indices 1 2 3 4 5 6 
#
# 1 141.1058 11.4396 48.0129 0.0000 0.0000 0.0000
# 2 11.4396 125.5019 10.4136 0.0000 0.0000 0.0000
# 3 48.0129 10.4136 123.7583 0.0000 0.0000 0.0000
# 4 0.0000 0.0000 0.0000 31.5984 0.0000 0.0000
# 5 0.0000 0.0000 0.0000 0.0000 40.4900 0.0000
# 6 0.0000 0.0000 0.0000 0.0000 0.0000 69.1293
#
#
#
# Elastic Compliance Matrix: (Units=1/GPa)
#
#
# Indices 1 2 3 4 5 6 
#
# 1 0.008194 -0.000487 -0.003138 0.000000 0.000000 0.000000
# 2 -0.000487 0.008053 -0.000489 0.000000 0.000000 0.000000
# 3 -0.003138 -0.000489 0.009339 0.000000 0.000000 0.000000
# 4 0.000000 0.000000 0.000000 0.031647 0.000000 0.000000
# 5 0.000000 0.000000 0.000000 0.000000 0.024697 0.000000
# 6 0.000000 0.000000 0.000000 0.000000 0.000000 0.014466
#
#
# Mechanical properties :
#
#
# Convention : Reuss Voigt Hill
#
# Bulk Modulus (GPa) = 57.60694 58.89980 58.25337
# Shear Modulus (GPa) = 45.28609 49.61021 47.44815
#
# Velocity S-wave (km/s) = 4.37827 4.58253 4.48156
# Velocity P-wave (km/s) = 7.06707 7.27538 7.17198
#
# Compressibility (1/GPa) = 0.01735902
#
# Stress axis : x y z
#
# Youngs Moduli (GPa) = 122.03955 124.17865 107.08000
#
# Poissons Ratio (x) = 0.06042 0.33602
# Poissons Ratio (y) = 0.05937 0.05235
# Poissons Ratio (z) = 0.38296 0.06071
#
# Static dielectric constant tensor:
#      x y z
#    x 1.945700 0.000000 0.000000 
#    y 0.000000 1.947120 0.000000 
#    z 0.000000 0.000000 2.032210 
# 
# From -- ./inp_files/19829.got.cif
#   From: 2010.05.17/outbox.cif.g08.bks.cpg/sg64_10_cif.got.tgz:19829.got - 2010.06.03 16:29:19.
