data_PCOD9480628
_publ_section_title
;
Structure prediction by ZEFSAII (Michael W. Deem and Ramdas Pophale) SiO2 
 PCOD9480628
Probable space group: C M C A
;
_chemical_formula_sum "Si O2"
_cell_formula_units_Z 64
_cell_length_a 10.403158
_cell_length_b 9.454782
_cell_length_c 25.958675
_cell_angle_alpha 90.000000
_cell_angle_beta 90.000000
_cell_angle_gamma 90.000000
_cell_volume 2553.284656
_symmetry_space_group_name_H-M "C M C A"
_symmetry_group_IT_number 64
_symmetry_cell_setting 'orthorhombic'
loop_
_space_group_symop_operation_xyz
x,y,z
-x,1/2-y,1/2+z
x,-y,-z
-x,1/2+y,1/2-z
-x,-y,-z
x,1/2+y,1/2-z
-x,y,z
x,1/2-y,1/2+z
1/2+x,1/2+y,z
1/2-x,-y,1/2+z
1/2+x,1/2-y,-z
1/2-x,y,1/2-z
1/2-x,1/2-y,-z
1/2+x,y,1/2-z
1/2-x,1/2+y,z
1/2+x,-y,1/2+z
loop_
_atom_site_type_symbol
_atom_site_label
_atom_site_fract_x
_atom_site_fract_y
_atom_site_fract_z
Si Si1 0.653112 0.523949 0.203304
Si Si2 0.819351 0.006747 0.440054
Si Si3 0.361255 0.297050 0.038715
Si Si4 0.140689 0.320397 0.155197
O O1 0.500000 0.497063 0.214563
O O2 0.750000 0.568901 0.250000
O O3 0.734129 0.393215 0.180253
O O4 0.652445 0.653648 0.163110
O O5 0.671693 0.954218 0.442712
O O6 0.867372 0.885516 0.401976
O O7 0.864844 0.000000 0.500000
O O8 0.853831 0.164191 0.421917
O O9 0.500000 0.296206 0.014834
O O10 0.250000 0.250000 0.000000
O O11 0.000000 0.357948 0.179270
#
# Coordination Sequence:
#
# PCOD9480628 Si02
#       4
#    16  16  16  16
#     4  11  25  45  70  98 128 165 212 271 336 398
#     4  10  22  40  64  93 134 180 222 266 316 377
#     4  10  22  38  58  85 120 168 222 272 321 374
#     4  11  24  42  67 100 135 174 220 268 324 391
#
# _framework density 25.065753000000001
#
# number of rings (size 3 to 8) (size 9 to 14) (size 15 to 20)
#    0.000    1.500    0.000    3.750    0.000   18.500 
#    0.000    5.000    0.000    0.000    0.000    0.000 
#    0.000    0.000    0.000    0.000    0.000    0.000 
#
# Total GULP energy -178135.306812 kJ/mol
# GULP energy per Si atom -5566.728338 kJ/mol
# Density = 2.500870 g / cm^3
# Si number density = 25.065753 Si / 1000 Ang^3
#
#
#
# Elastic Constant Matrix: (Units=GPa)
#
#
# Indices 1 2 3 4 5 6 
#
# 1 245.7621 48.6546 22.9978 0.0000 0.0000 0.0000
# 2 48.6546 111.3376 -1.3721 0.0000 0.0000 0.0000
# 3 22.9978 -1.3721 69.7979 0.0000 0.0000 0.0000
# 4 0.0000 0.0000 0.0000 37.2529 0.0000 0.0000
# 5 0.0000 0.0000 0.0000 0.0000 13.9198 0.0000
# 6 0.0000 0.0000 0.0000 0.0000 0.0000 23.7479
#
#
#
# Elastic Compliance Matrix: (Units=1/GPa)
#
#
# Indices 1 2 3 4 5 6 
#
# 1 0.004619 -0.002038 -0.001562 0.000000 0.000000 0.000000
# 2 -0.002038 0.009883 0.000866 0.000000 0.000000 0.000000
# 3 -0.001562 0.000866 0.014859 0.000000 0.000000 0.000000
# 4 0.000000 0.000000 0.000000 0.026844 0.000000 0.000000
# 5 0.000000 0.000000 0.000000 0.000000 0.071840 0.000000
# 6 0.000000 0.000000 0.000000 0.000000 0.000000 0.042109
#
#
# Mechanical properties :
#
#
# Convention : Reuss Voigt Hill
#
# Bulk Modulus (GPa) = 41.85411 63.05093 52.45252
# Shear Modulus (GPa) = 27.23543 38.75860 32.99701
#
# Velocity S-wave (km/s) = 3.29988 3.93654 3.63218
# Velocity P-wave (km/s) = 5.59043 6.77278 6.20981
#
# Compressibility (1/GPa) = 0.02389252
#
# Stress axis : x y z
#
# Youngs Moduli (GPa) = 216.52027 101.18630 67.30063
#
# Poissons Ratio (x) = 0.20617 0.10511
# Poissons Ratio (y) = 0.44117 -0.05826
# Poissons Ratio (z) = 0.33816 -0.08759
#
# Static dielectric constant tensor:
#      x y z
#    x 2.060400 0.000000 0.000000 
#    y 0.000000 2.117450 0.000000 
#    z 0.000000 0.000000 2.108430 
# 
# From -- ./inp_files/51553.got.cif
#   From: 2010.05.17/outbox.cif.g08.bks.cpg/sg64_26_cif.got.tgz:51553.got - 2010.06.03 16:29:19.
