data_PCOD9480814
_publ_section_title
;
Structure prediction by ZEFSAII (Michael W. Deem and Ramdas Pophale) SiO2 
 PCOD9480814
Probable space group: C M C A
;
_chemical_formula_sum "Si O2"
_cell_formula_units_Z 48
_cell_length_a 16.059313
_cell_length_b 7.984004
_cell_length_c 14.240294
_cell_angle_alpha 90.000000
_cell_angle_beta 90.000000
_cell_angle_gamma 90.000000
_cell_volume 1825.856594
_symmetry_space_group_name_H-M "C M C A"
_symmetry_group_IT_number 64
_symmetry_cell_setting 'orthorhombic'
loop_
_space_group_symop_operation_xyz
x,y,z
-x,1/2-y,1/2+z
x,-y,-z
-x,1/2+y,1/2-z
-x,-y,-z
x,1/2+y,1/2-z
-x,y,z
x,1/2-y,1/2+z
1/2+x,1/2+y,z
1/2-x,-y,1/2+z
1/2+x,1/2-y,-z
1/2-x,y,1/2-z
1/2-x,1/2-y,-z
1/2+x,y,1/2-z
1/2-x,1/2+y,z
1/2+x,-y,1/2+z
loop_
_atom_site_type_symbol
_atom_site_label
_atom_site_fract_x
_atom_site_fract_y
_atom_site_fract_z
Si Si1 0.904375 0.049122 0.270452
Si Si2 0.636971 0.656750 0.564483
Si Si3 0.833359 0.152135 0.892908
O O1 0.851521 0.184900 0.328294
O O2 0.000000 0.100059 0.262938
O O3 0.903147 0.880623 0.335527
O O4 0.864322 0.000234 0.171081
O O5 0.610307 0.500000 0.500000
O O6 0.735790 0.642313 0.585018
O O7 0.623726 0.810934 0.493398
#
# Coordination Sequence:
#
# PCOD9480814 Si02
#       3
#    16  16  16
#     4  11  23  39  63  94 129 165 202 257 319 370
#     4   9  21  40  65  90 120 166 218 259 298 362
#     4  10  22  40  62  92 126 164 210 257 309 370
#
# _framework density 26.289028999999999
#
# number of rings (size 3 to 8) (size 9 to 14) (size 15 to 20)
#    0.000    2.000    0.000    2.000    0.000   20.667 
#    0.000    0.000    0.000    8.000    0.000    0.000 
#    0.000    0.000    0.000    0.000    0.000    0.000 
#
# Total GULP energy -134389.153652 kJ/mol
# GULP energy per Si atom -5599.548069 kJ/mol
# Density = 2.622919 g / cm^3
# Si number density = 26.289029 Si / 1000 Ang^3
#
#
#
# Elastic Constant Matrix: (Units=GPa)
#
#
# Indices 1 2 3 4 5 6 
#
# 1 58.4033 0.6638 8.7356 0.0000 0.0000 0.0000
# 2 0.6638 87.7221 35.3487 0.0000 0.0000 0.0000
# 3 8.7356 35.3487 204.0258 0.0000 0.0000 0.0000
# 4 0.0000 0.0000 0.0000 77.3862 0.0000 0.0000
# 5 0.0000 0.0000 0.0000 0.0000 -139.1551 0.0000
# 6 0.0000 0.0000 0.0000 0.0000 0.0000 29.0490
#
#
#
# Elastic Compliance Matrix: (Units=1/GPa)
#
#
# Indices 1 2 3 4 5 6 
#
# 1 0.017235 0.000179 -0.000769 0.000000 0.000000 0.000000
# 2 0.000179 0.012257 -0.002131 0.000000 0.000000 0.000000
# 3 -0.000769 -0.002131 0.005304 0.000000 0.000000 0.000000
# 4 0.000000 0.000000 0.000000 0.012922 0.000000 0.000000
# 5 0.000000 0.000000 0.000000 0.000000 -0.007186 0.000000
# 6 0.000000 0.000000 0.000000 0.000000 0.000000 0.034425
#
#
# Mechanical properties :
#
#
# Convention : Reuss Voigt Hill
#
# Bulk Modulus (GPa) = 34.06669 48.84971 41.45820
# Shear Modulus (GPa) = 55.44281 13.81623 34.62952
#
# Velocity S-wave (km/s) = 4.59734 2.29498 3.63335
# Velocity P-wave (km/s) = 6.41618 5.06406 5.77979
#
# Compressibility (1/GPa) = 0.02935419
#
# Stress axis : x y z
#
# Youngs Moduli (GPa) = 58.02047 81.58529 188.55369
#
# Poissons Ratio (x) = -0.01464 0.14501
# Poissons Ratio (y) = -0.01041 0.40186
# Poissons Ratio (z) = 0.04462 0.17388
#
# Static dielectric constant tensor:
#      x y z
#    x 1.916130 0.000000 0.000000 
#    y 0.000000 2.243910 0.000000 
#    z 0.000000 0.000000 2.071500 
# 
# From -- ./inp_files/15209.got.cif
#   From: 2010.05.17/outbox.cif.g08.bks.cpg/sg64_8_cif.got.tgz:15209.got - 2010.06.03 16:29:19.
