data_PCOD9480284
_publ_section_title
;
Structure prediction by ZEFSAII (Michael W. Deem and Ramdas Pophale) SiO2 
 PCOD9480284
Probable space group: C M C A
;
_chemical_formula_sum "Si O2"
_cell_formula_units_Z 112
_cell_length_a 14.403031
_cell_length_b 14.224412
_cell_length_c 25.418880
_cell_angle_alpha 90.000000
_cell_angle_beta 90.000000
_cell_angle_gamma 90.000000
_cell_volume 5207.684067
_symmetry_space_group_name_H-M "C M C A"
_symmetry_group_IT_number 64
_symmetry_cell_setting 'orthorhombic'
loop_
_space_group_symop_operation_xyz
x,y,z
-x,1/2-y,1/2+z
x,-y,-z
-x,1/2+y,1/2-z
-x,-y,-z
x,1/2+y,1/2-z
-x,y,z
x,1/2-y,1/2+z
1/2+x,1/2+y,z
1/2-x,-y,1/2+z
1/2+x,1/2-y,-z
1/2-x,y,1/2-z
1/2-x,1/2-y,-z
1/2+x,y,1/2-z
1/2-x,1/2+y,z
1/2+x,-y,1/2+z
loop_
_atom_site_type_symbol
_atom_site_label
_atom_site_fract_x
_atom_site_fract_y
_atom_site_fract_z
Si Si1 0.895436 0.049405 0.793949
Si Si2 0.612779 0.648739 0.252683
Si Si3 0.250666 0.558782 0.877270
Si Si4 0.208290 0.791162 0.446341
Si Si5 0.000000 0.361147 0.047477
Si Si6 0.105466 0.674101 0.808925
Si Si7 0.500000 0.420091 0.574683
Si Si8 0.812649 0.150273 0.368814
O O1 0.858980 0.954609 0.766578
O O2 0.000000 0.028447 0.809801
O O3 0.840774 0.084055 0.844100
O O4 0.894626 0.125904 0.748287
O O5 0.500000 0.650994 0.260140
O O6 0.635422 0.720913 0.205774
O O7 0.660288 0.671051 0.308307
O O8 0.245328 0.603283 0.934785
O O9 0.167535 0.609302 0.845425
O O10 0.241663 0.447870 0.873899
O O11 0.250000 0.750000 0.500000
O O12 0.253829 0.728549 0.399796
O O13 0.095981 0.802338 0.444272
O O14 0.000000 0.464693 0.076316
O O15 0.000000 0.390137 0.986014
O O16 0.000000 0.676263 0.829113
O O17 0.409739 0.375584 0.602188
#
# Coordination Sequence:
#
# PCOD9480284 Si02
#       8
#    16  16  16  16   8  16   8  16
#     4  10  22  43  63  93 142 186 230 283 346 427
#     4  10  21  39  68 101 138 184 235 282 348 431
#     4  12  26  43  68  99 141 185 239 294 358 435
#     4  12  28  48  72 108 141 181 242 310 371 430
#     4  11  24  50  76 103 144 183 242 315 367 424
#     4  10  22  39  63  96 135 179 227 285 342 413
#     4  11  22  44  84 104 133 192 243 303 360 428
#     4  12  24  42  76 109 139 185 241 294 360 436
#
# _framework density 21.506681
#
# number of rings (size 3 to 8) (size 9 to 14) (size 15 to 20)
#    0.000    1.000    5.000    1.286    4.000    0.571 
#    3.857    0.000    0.000    0.857    0.000    0.000 
#    0.000    0.000    0.000    0.000    0.000    0.000 
#
# Total GULP energy -313146.677962 kJ/mol
# GULP energy per Si atom -5591.904964 kJ/mol
# Density = 2.145773 g / cm^3
# Si number density = 21.506681 Si / 1000 Ang^3
#
#
#
# Elastic Constant Matrix: (Units=GPa)
#
#
# Indices 1 2 3 4 5 6 
#
# 1 131.2943 27.1289 35.2335 0.0000 0.0000 0.0000
# 2 27.1289 76.5400 4.9918 0.0000 0.0000 0.0000
# 3 35.2335 4.9918 63.7150 0.0000 0.0000 0.0000
# 4 0.0000 0.0000 0.0000 36.4999 0.0000 0.0000
# 5 0.0000 0.0000 0.0000 0.0000 32.6581 0.0000
# 6 0.0000 0.0000 0.0000 0.0000 0.0000 33.7288
#
#
#
# Elastic Compliance Matrix: (Units=1/GPa)
#
#
# Indices 1 2 3 4 5 6 
#
# 1 0.009614 -0.003077 -0.005075 0.000000 0.000000 0.000000
# 2 -0.003077 0.014117 0.000595 0.000000 0.000000 0.000000
# 3 -0.005075 0.000595 0.018455 0.000000 0.000000 0.000000
# 4 0.000000 0.000000 0.000000 0.027397 0.000000 0.000000
# 5 0.000000 0.000000 0.000000 0.000000 0.030620 0.000000
# 6 0.000000 0.000000 0.000000 0.000000 0.000000 0.029648
#
#
# Mechanical properties :
#
#
# Convention : Reuss Voigt Hill
#
# Bulk Modulus (GPa) = 36.93812 45.13974 41.03893
# Shear Modulus (GPa) = 32.46976 34.19036 33.33006
#
# Velocity S-wave (km/s) = 3.88977 3.99150 3.94096
# Velocity P-wave (km/s) = 6.11443 6.50208 6.31123
#
# Compressibility (1/GPa) = 0.02707231
#
# Stress axis : x y z
#
# Youngs Moduli (GPa) = 104.01249 70.83798 54.18608
#
# Poissons Ratio (x) = 0.21794 0.27502
# Poissons Ratio (y) = 0.32001 -0.03226
# Poissons Ratio (z) = 0.52791 -0.04217
#
# Static dielectric constant tensor:
#      x y z
#    x 1.809990 0.000000 0.000000 
#    y 0.000000 1.788940 0.000000 
#    z 0.000000 0.000000 1.791590 
# 
# From -- ./inp_files/50105.got.cif
#   From: 2010.05.17/outbox.cif.g08.bks.cpg/sg64_26_cif.got.tgz:50105.got - 2010.06.03 16:29:19.
