data_PCOD9480466
_publ_section_title
;
Structure prediction by ZEFSAII (Michael W. Deem and Ramdas Pophale) SiO2 
 PCOD9480466
Probable space group: C M C A
;
_chemical_formula_sum "Si O2"
_cell_formula_units_Z 116
_cell_length_a 15.571387
_cell_length_b 18.786059
_cell_length_c 16.427896
_cell_angle_alpha 90.000000
_cell_angle_beta 90.000000
_cell_angle_gamma 90.000000
_cell_volume 4805.570194
_symmetry_space_group_name_H-M "C M C A"
_symmetry_group_IT_number 64
_symmetry_cell_setting 'orthorhombic'
loop_
_space_group_symop_operation_xyz
x,y,z
-x,1/2-y,1/2+z
x,-y,-z
-x,1/2+y,1/2-z
-x,-y,-z
x,1/2+y,1/2-z
-x,y,z
x,1/2-y,1/2+z
1/2+x,1/2+y,z
1/2-x,-y,1/2+z
1/2+x,1/2-y,-z
1/2-x,y,1/2-z
1/2-x,1/2-y,-z
1/2+x,y,1/2-z
1/2-x,1/2+y,z
1/2+x,-y,1/2+z
loop_
_atom_site_type_symbol
_atom_site_label
_atom_site_fract_x
_atom_site_fract_y
_atom_site_fract_z
Si Si1 0.148024 0.694967 0.009290
Si Si2 0.661765 0.937733 0.395312
Si Si3 0.603173 0.344436 0.246647
Si Si4 0.337420 0.655677 0.034376
Si Si5 0.400411 0.805438 0.805675
Si Si6 0.165685 0.927487 0.801519
Si Si7 0.638893 0.565600 0.593271
Si Si8 0.000000 0.500000 0.000000
O O1 0.247841 0.677337 0.990428
O O2 0.141669 0.699132 0.105965
O O3 0.115560 0.768390 0.969339
O O4 0.104862 0.625735 0.970745
O O5 0.650940 0.872912 0.333038
O O6 0.623764 0.907729 0.479561
O O7 0.761604 0.956846 0.412993
O O8 0.624576 0.004213 0.345100
O O9 0.500000 0.350509 0.237264
O O10 0.626635 0.260896 0.251772
O O11 0.629182 0.394323 0.321250
O O12 0.317243 0.625410 0.122744
O O13 0.500000 0.795255 0.822283
O O14 0.386582 0.879865 0.761385
O O15 0.250000 0.949609 0.750000
O O16 0.575689 0.502313 0.571778
#
# Coordination Sequence:
#
# PCOD9480466 Si02
#       8
#    16  16  16  16  16  16  16   4
#     4  10  21  41  68  99 133 181 233 295 363 430
#     4  11  25  44  72 100 147 194 242 294 368 452
#     4  11  23  46  69 100 142 191 244 297 361 438
#     4  10  21  42  69 101 132 178 241 297 354 429
#     4  11  25  43  68 101 144 184 235 301 360 422
#     4  12  24  41  66 104 138 183 236 296 351 428
#     4  11  25  43  69 104 141 187 239 294 379 443
#     4  12  28  44  68 112 150 184 224 324 376 456
#
# _framework density 24.138653999999999
#
# number of rings (size 3 to 8) (size 9 to 14) (size 15 to 20)
#    0.000    1.103    3.448    2.483    4.828    2.759 
#    0.000    1.379    0.000    1.655    0.000    0.000 
#    0.000    0.000    0.000    0.000    0.000    0.000 
#
# Total GULP energy -323515.009392 kJ/mol
# GULP energy per Si atom -5577.844990 kJ/mol
# Density = 2.408371 g / cm^3
# Si number density = 24.138654 Si / 1000 Ang^3
#
#
#
# Elastic Constant Matrix: (Units=GPa)
#
#
# Indices 1 2 3 4 5 6 
#
# 1 18.4576 -4.9788 -16.0002 0.0000 0.0000 0.0000
# 2 -4.9788 89.8941 35.1566 0.0000 0.0000 0.0000
# 3 -16.0002 35.1566 129.1129 0.0000 0.0000 0.0000
# 4 0.0000 0.0000 0.0000 47.6422 0.0000 0.0000
# 5 0.0000 0.0000 0.0000 0.0000 11.0731 0.0000
# 6 0.0000 0.0000 0.0000 0.0000 0.0000 -14.6984
#
#
#
# Elastic Compliance Matrix: (Units=1/GPa)
#
#
# Indices 1 2 3 4 5 6 
#
# 1 0.060716 0.000470 0.007396 0.000000 0.000000 0.000000
# 2 0.000470 0.012454 -0.003333 0.000000 0.000000 0.000000
# 3 0.007396 -0.003333 0.009569 0.000000 0.000000 0.000000
# 4 0.000000 0.000000 0.000000 0.020990 0.000000 0.000000
# 5 0.000000 0.000000 0.000000 0.000000 0.090309 0.000000
# 6 0.000000 0.000000 0.000000 0.000000 0.000000 -0.068034
#
#
# Mechanical properties :
#
#
# Convention : Reuss Voigt Hill
#
# Bulk Modulus (GPa) = 10.89247 29.53554 20.21400
# Shear Modulus (GPa) = 33.88945 23.68919 28.78932
#
# Velocity S-wave (km/s) = 3.75100 3.13610 3.45724
# Velocity P-wave (km/s) = 4.82517 5.03744 4.93245
#
# Compressibility (1/GPa) = 0.09180657
#
# Stress axis : x y z
#
# Youngs Moduli (GPa) = 16.47000 80.29777 104.50172
#
# Poissons Ratio (x) = -0.03775 -0.77292
# Poissons Ratio (y) = -0.00774 0.34828
# Poissons Ratio (z) = -0.12182 0.26761
#
# Static dielectric constant tensor:
#      x y z
#    x 1.937980 0.000000 0.000000 
#    y 0.000000 2.149940 0.000000 
#    z 0.000000 0.000000 1.899370 
# 
# From -- ./inp_files/33482.got.cif
#   From: 2010.05.17/outbox.cif.g08.bks.cpg/sg64_17_cif.got.tgz:33482.got - 2010.06.03 16:29:19.
