data_PCOD9480047
_publ_section_title
;
Structure prediction by ZEFSAII (Michael W. Deem and Ramdas Pophale) SiO2 
 PCOD9480047
Probable space group: C M C A
;
_chemical_formula_sum "Si O2"
_cell_formula_units_Z 112
_cell_length_a 13.565284
_cell_length_b 21.851476
_cell_length_c 15.813229
_cell_angle_alpha 90.000000
_cell_angle_beta 90.000000
_cell_angle_gamma 90.000000
_cell_volume 4687.380708
_symmetry_space_group_name_H-M "C M C A"
_symmetry_group_IT_number 64
_symmetry_cell_setting 'orthorhombic'
loop_
_space_group_symop_operation_xyz
x,y,z
-x,1/2-y,1/2+z
x,-y,-z
-x,1/2+y,1/2-z
-x,-y,-z
x,1/2+y,1/2-z
-x,y,z
x,1/2-y,1/2+z
1/2+x,1/2+y,z
1/2-x,-y,1/2+z
1/2+x,1/2-y,-z
1/2-x,y,1/2-z
1/2-x,1/2-y,-z
1/2+x,y,1/2-z
1/2-x,1/2+y,z
1/2+x,-y,1/2+z
loop_
_atom_site_type_symbol
_atom_site_label
_atom_site_fract_x
_atom_site_fract_y
_atom_site_fract_z
Si Si1 0.608073 0.140579 0.193223
Si Si2 0.321273 0.064223 0.533737
Si Si3 0.114760 0.908508 0.412861
Si Si4 0.694313 0.224313 0.917684
Si Si5 0.608722 0.414171 0.225508
Si Si6 0.327315 0.641605 0.125634
Si Si7 0.895405 0.214681 0.827396
O O1 0.500000 0.121160 0.159429
O O2 0.622479 0.116608 0.289002
O O3 0.709475 0.130206 0.141868
O O4 0.605609 0.214830 0.198164
O O5 0.202112 0.065203 0.530511
O O6 0.350957 0.075310 0.631227
O O7 0.355876 0.113691 0.464461
O O8 0.359178 0.000000 0.500000
O O9 0.126209 0.834678 0.427380
O O10 0.146841 0.931648 0.317953
O O11 0.000000 0.924558 0.426075
O O12 0.650491 0.285756 0.877947
O O13 0.789384 0.202971 0.866170
O O14 0.750000 0.250000 0.000000
O O15 0.500000 0.441115 0.221714
O O16 0.601150 0.340276 0.238792
O O17 0.000000 0.206854 0.877155
#
# Coordination Sequence:
#
# PCOD9480047 Si02
#       7
#    16  16  16  16  16  16  16
#     4   9  19  36  60  92 132 168 203 259 329 402
#     4  12  26  45  67  90 129 180 231 286 332 382
#     4  11  24  42  68 101 133 170 219 273 337 408
#     4  11  19  34  60  97 136 166 200 263 332 399
#     4  10  21  41  67  97 128 167 218 272 334 399
#     4  10  21  38  60  94 127 167 218 261 328 403
#     4   9  17  31  58  93 127 167 203 245 317 401
#
# _framework density 23.893941000000002
#
# number of rings (size 3 to 8) (size 9 to 14) (size 15 to 20)
#    0.000    1.714    2.857    1.286    0.000    5.143 
#    5.143    0.000    0.000    0.000    0.000    0.000 
#    0.000    0.000    0.000    0.000    0.000    0.000 
#
# Total GULP energy -311881.400219 kJ/mol
# GULP energy per Si atom -5569.310718 kJ/mol
# Density = 2.383956 g / cm^3
# Si number density = 23.893941 Si / 1000 Ang^3
#
#
#
# Elastic Constant Matrix: (Units=GPa)
#
#
# Indices 1 2 3 4 5 6 
#
# 1 54.3494 5.5692 -1.8362 0.0000 0.0000 0.0000
# 2 5.5692 39.7778 12.0338 0.0000 0.0000 0.0000
# 3 -1.8362 12.0338 58.7623 0.0000 0.0000 0.0000
# 4 0.0000 0.0000 0.0000 0.9922 0.0000 0.0000
# 5 0.0000 0.0000 0.0000 0.0000 11.9763 0.0000
# 6 0.0000 0.0000 0.0000 0.0000 0.0000 -8.3701
#
#
#
# Elastic Compliance Matrix: (Units=1/GPa)
#
#
# Indices 1 2 3 4 5 6 
#
# 1 0.018746 -0.002987 0.001197 0.000000 0.000000 0.000000
# 2 -0.002987 0.027276 -0.005679 0.000000 0.000000 0.000000
# 3 0.001197 -0.005679 0.018218 0.000000 0.000000 0.000000
# 4 0.000000 0.000000 0.000000 1.007895 0.000000 0.000000
# 5 0.000000 0.000000 0.000000 0.000000 0.083498 0.000000
# 6 0.000000 0.000000 0.000000 0.000000 0.000000 -0.119473
#
#
# Mechanical properties :
#
#
# Convention : Reuss Voigt Hill
#
# Bulk Modulus (GPa) = 20.28273 20.49146 20.38710
# Shear Modulus (GPa) = 4.68370 10.06118 7.37244
#
# Velocity S-wave (km/s) = 1.40159 2.05424 1.75846
# Velocity P-wave (km/s) = 3.33562 3.77110 3.56002
#
# Compressibility (1/GPa) = 0.04930302
#
# Stress axis : x y z
#
# Youngs Moduli (GPa) = 53.34472 36.66237 54.89032
#
# Poissons Ratio (x) = 0.10950 -0.06573
# Poissons Ratio (y) = 0.15933 0.31173
# Poissons Ratio (z) = -0.06388 0.20821
#
# Static dielectric constant tensor:
#      x y z
#    x 1.929470 0.000000 0.000000 
#    y 0.000000 2.057010 0.000000 
#    z 0.000000 0.000000 -0.995970 
# 
# From -- ./inp_files/24273.got.cif
#   From: 2010.05.17/outbox.cif.g08.bks.cpg/sg64_13_cif.got.tgz:24273.got - 2010.06.03 16:29:19.
