data_PCOD9480268
_publ_section_title
;
Structure prediction by ZEFSAII (Michael W. Deem and Ramdas Pophale) SiO2 
 PCOD9480268
Probable space group: C M C A
;
_chemical_formula_sum "Si O2"
_cell_formula_units_Z 104
_cell_length_a 26.914306
_cell_length_b 20.405233
_cell_length_c 9.894211
_cell_angle_alpha 90.000000
_cell_angle_beta 90.000000
_cell_angle_gamma 90.000000
_cell_volume 5433.828305
_symmetry_space_group_name_H-M "C M C A"
_symmetry_group_IT_number 64
_symmetry_cell_setting 'orthorhombic'
loop_
_space_group_symop_operation_xyz
x,y,z
-x,1/2-y,1/2+z
x,-y,-z
-x,1/2+y,1/2-z
-x,-y,-z
x,1/2+y,1/2-z
-x,y,z
x,1/2-y,1/2+z
1/2+x,1/2+y,z
1/2-x,-y,1/2+z
1/2+x,1/2-y,-z
1/2-x,y,1/2-z
1/2-x,1/2-y,-z
1/2+x,y,1/2-z
1/2-x,1/2+y,z
1/2+x,-y,1/2+z
loop_
_atom_site_type_symbol
_atom_site_label
_atom_site_fract_x
_atom_site_fract_y
_atom_site_fract_z
Si Si1 0.364783 0.500000 0.000000
Si Si2 0.556919 0.000636 0.713114
Si Si3 0.558044 0.874063 0.125673
Si Si4 0.196983 0.908264 0.802288
Si Si5 0.629147 0.775648 0.265095
Si Si6 0.804807 0.273383 0.536198
Si Si7 0.398619 0.869177 0.828439
O O1 0.403978 0.529898 0.893850
O O2 0.329939 0.455054 0.909051
O O3 0.500000 0.003776 0.666267
O O4 0.561376 0.048761 0.840597
O O5 0.571101 0.925691 0.748682
O O6 0.500000 0.855867 0.129897
O O7 0.588959 0.831182 0.233049
O O8 0.580092 0.863017 0.977634
O O9 0.250000 0.931911 0.750000
O O10 0.202593 0.840182 0.881020
O O11 0.158298 0.894657 0.680756
O O12 0.667805 0.775011 0.140535
O O13 0.660025 0.782121 0.404645
O O14 0.603158 0.703632 0.265164
O O15 0.750000 0.250000 0.500000
#
# Coordination Sequence:
#
# PCOD9480268 Si02
#       7
#     8  16  16  16  16  16  16
#     4  10  21  42  60  88 128 154 207 262 312 382
#     4  10  21  39  66  90 119 167 212 259 316 381
#     4  11  23  39  61  94 127 163 213 258 312 384
#     4  10  22  40  61  90 123 164 208 257 320 376
#     4  11  22  39  61  92 128 163 209 260 322 371
#     4  11  21  39  63  89 121 162 207 259 308 375
#     4  10  21  40  61  87 128 164 208 263 314 377
#
# _framework density 19.139361999999998
#
# number of rings (size 3 to 8) (size 9 to 14) (size 15 to 20)
#    0.000    1.538    1.538    4.385    0.000    2.462 
#    5.538    1.538    0.000    0.000    0.000    0.000 
#    0.000    0.000    0.000    0.000    0.000    0.000 
#
# Total GULP energy -290069.455505 kJ/mol
# GULP energy per Si atom -5578.258760 kJ/mol
# Density = 1.909580 g / cm^3
# Si number density = 19.139362 Si / 1000 Ang^3
#
#
#
# Elastic Constant Matrix: (Units=GPa)
#
#
# Indices 1 2 3 4 5 6 
#
# 1 140.6579 42.2833 46.2612 0.0000 0.0000 0.0000
# 2 42.2833 69.0868 6.4982 0.0000 0.0000 0.0000
# 3 46.2612 6.4982 80.8668 0.0000 0.0000 0.0000
# 4 0.0000 0.0000 0.0000 23.7324 0.0000 0.0000
# 5 0.0000 0.0000 0.0000 0.0000 28.8654 0.0000
# 6 0.0000 0.0000 0.0000 0.0000 0.0000 -3.4400
#
#
#
# Elastic Compliance Matrix: (Units=1/GPa)
#
#
# Indices 1 2 3 4 5 6 
#
# 1 0.010811 -0.006081 -0.005696 0.000000 0.000000 0.000000
# 2 -0.006081 0.018005 0.002032 0.000000 0.000000 0.000000
# 3 -0.005696 0.002032 0.015461 0.000000 0.000000 0.000000
# 4 0.000000 0.000000 0.000000 0.042137 0.000000 0.000000
# 5 0.000000 0.000000 0.000000 0.000000 0.034644 0.000000
# 6 0.000000 0.000000 0.000000 0.000000 0.000000 -0.290697
#
#
# Mechanical properties :
#
#
# Convention : Reuss Voigt Hill
#
# Bulk Modulus (GPa) = 40.34327 53.41076 46.87701
# Shear Modulus (GPa) = -35.23915 22.86947 -6.18484
#
# Velocity S-wave (km/s) = -4.29556 3.46047 -1.79958
# Velocity P-wave (km/s) = 1.86494 6.62822 4.49752
#
# Compressibility (1/GPa) = 0.02478728
#
# Stress axis : x y z
#
# Youngs Moduli (GPa) = 92.50107 55.54000 64.67838
#
# Poissons Ratio (x) = 0.33772 0.36840
# Poissons Ratio (y) = 0.56247 -0.13141
# Poissons Ratio (z) = 0.52687 -0.11284
#
# Static dielectric constant tensor:
#      x y z
#    x 1.675430 0.000000 0.000000 
#    y 0.000000 1.687920 0.000000 
#    z 0.000000 0.000000 1.677790 
# 
# From -- ./inp_files/10433.got.cif
#   From: 2010.05.17/outbox.cif.g08.bks.cpg/sg64_6_cif.got.tgz:10433.got - 2010.06.03 16:29:19.
