data_PCOD9480258
_publ_section_title
;
Structure prediction by ZEFSAII (Michael W. Deem and Ramdas Pophale) SiO2 
 PCOD9480258
Probable space group: C M C A
;
_chemical_formula_sum "Si O2"
_cell_formula_units_Z 80
_cell_length_a 31.056233
_cell_length_b 5.036815
_cell_length_c 26.299511
_cell_angle_alpha 90.000000
_cell_angle_beta 90.000000
_cell_angle_gamma 90.000000
_cell_volume 4113.887864
_symmetry_space_group_name_H-M "C M C A"
_symmetry_group_IT_number 64
_symmetry_cell_setting 'orthorhombic'
loop_
_space_group_symop_operation_xyz
x,y,z
-x,1/2-y,1/2+z
x,-y,-z
-x,1/2+y,1/2-z
-x,-y,-z
x,1/2+y,1/2-z
-x,y,z
x,1/2-y,1/2+z
1/2+x,1/2+y,z
1/2-x,-y,1/2+z
1/2+x,1/2-y,-z
1/2-x,y,1/2-z
1/2-x,1/2-y,-z
1/2+x,y,1/2-z
1/2-x,1/2+y,z
1/2+x,-y,1/2+z
loop_
_atom_site_type_symbol
_atom_site_label
_atom_site_fract_x
_atom_site_fract_y
_atom_site_fract_z
Si Si1 0.500000 0.434826 0.168509
Si Si2 0.406809 0.062096 0.058031
Si Si3 0.632722 0.064814 0.390619
Si Si4 0.779092 0.954100 0.057988
Si Si5 0.906957 0.945033 0.217131
Si Si6 0.000000 0.436835 0.098408
O O1 0.456780 0.476013 0.200399
O O2 0.500000 0.641663 0.121529
O O3 0.500000 0.138731 0.146047
O O4 0.395275 0.359258 0.075143
O O5 0.380498 0.861077 0.093834
O O6 0.456921 0.998078 0.067290
O O7 0.395157 0.000000 0.000000
O O8 0.682109 0.012465 0.404337
O O9 0.620763 0.009713 0.332533
O O10 0.760153 0.660527 0.063870
O O11 0.795122 0.000000 0.000000
O O12 0.898869 0.651545 0.237723
#
# Coordination Sequence:
#
# PCOD9480258 Si02
#       6
#     8  16  16  16  16   8
#     4  12  22  41  61  83 122 163 215 267 310 338
#     4  12  23  38  60  88 126 169 203 242 303 367
#     4  12  24  42  63  91 126 158 207 258 304 365
#     4  10  21  39  65  95 123 154 193 241 307 378
#     4  12  24  41  63  88 119 164 211 265 311 351
#     4  12  21  39  56  85 126 167 200 253 293 366
#
# _framework density 19.446325999999999
#
# number of rings (size 3 to 8) (size 9 to 14) (size 15 to 20)
#    0.000    0.400    4.000    6.300    0.000    1.600 
#    0.000    3.000    0.000    3.600    0.000    0.000 
#    0.000    0.000    0.000    0.000    0.000    0.000 
#
# Total GULP energy -223945.057658 kJ/mol
# GULP energy per Si atom -5598.626441 kJ/mol
# Density = 1.940207 g / cm^3
# Si number density = 19.446326 Si / 1000 Ang^3
#
#
#
# Elastic Constant Matrix: (Units=GPa)
#
#
# Indices 1 2 3 4 5 6 
#
# 1 64.1471 -15.1524 27.2301 0.0000 0.0000 0.0000
# 2 -15.1524 45.0712 -17.5567 0.0000 0.0000 0.0000
# 3 27.2301 -17.5567 76.3199 0.0000 0.0000 0.0000
# 4 0.0000 0.0000 0.0000 30.9711 0.0000 0.0000
# 5 0.0000 0.0000 0.0000 0.0000 -11.5689 0.0000
# 6 0.0000 0.0000 0.0000 0.0000 0.0000 -6.7140
#
#
#
# Elastic Compliance Matrix: (Units=1/GPa)
#
#
# Indices 1 2 3 4 5 6 
#
# 1 0.019045 0.004126 -0.005846 0.000000 0.000000 0.000000
# 2 0.004126 0.025265 0.004340 0.000000 0.000000 0.000000
# 3 -0.005846 0.004340 0.016187 0.000000 0.000000 0.000000
# 4 0.000000 0.000000 0.000000 0.032288 0.000000 0.000000
# 5 0.000000 0.000000 0.000000 0.000000 -0.086439 0.000000
# 6 0.000000 0.000000 0.000000 0.000000 0.000000 -0.148942
#
#
# Mechanical properties :
#
#
# Convention : Reuss Voigt Hill
#
# Bulk Modulus (GPa) = 15.21242 19.39779 17.30511
# Shear Modulus (GPa) = -39.70699 15.27211 -12.21744
#
# Velocity S-wave (km/s) = -4.52361 2.80544 -2.50924
# Velocity P-wave (km/s) = 4.40958 4.52667 0.72331
#
# Compressibility (1/GPa) = 0.06573576
#
# Stress axis : x y z
#
# Youngs Moduli (GPa) = 52.50634 39.58097 61.77815
#
# Poissons Ratio (x) = -0.16329 0.36116
# Poissons Ratio (y) = -0.21662 -0.26812
# Poissons Ratio (z) = 0.30696 -0.17178
#
# Static dielectric constant tensor:
#      x y z
#    x 1.660610 0.000000 0.000000 
#    y 0.000000 1.659540 0.000000 
#    z 0.000000 0.000000 1.658400 
# 
# From -- ./inp_files/3283.got.cif
#   From: 2010.05.17/outbox.cif.g08.bks.cpg/sg64_2_cif.got.tgz:3283.got - 2010.06.03 16:29:19.
