data_PCOD9480179
_publ_section_title
;
Structure prediction by ZEFSAII (Michael W. Deem and Ramdas Pophale) SiO2 
 PCOD9480179
Probable space group: C M C A
;
_chemical_formula_sum "Si O2"
_cell_formula_units_Z 96
_cell_length_a 21.328592
_cell_length_b 14.051136
_cell_length_c 15.587256
_cell_angle_alpha 90.000000
_cell_angle_beta 90.000000
_cell_angle_gamma 90.000000
_cell_volume 4671.359510
_symmetry_space_group_name_H-M "C M C A"
_symmetry_group_IT_number 64
_symmetry_cell_setting 'orthorhombic'
loop_
_space_group_symop_operation_xyz
x,y,z
-x,1/2-y,1/2+z
x,-y,-z
-x,1/2+y,1/2-z
-x,-y,-z
x,1/2+y,1/2-z
-x,y,z
x,1/2-y,1/2+z
1/2+x,1/2+y,z
1/2-x,-y,1/2+z
1/2+x,1/2-y,-z
1/2-x,y,1/2-z
1/2-x,1/2-y,-z
1/2+x,y,1/2-z
1/2-x,1/2+y,z
1/2+x,-y,1/2+z
loop_
_atom_site_type_symbol
_atom_site_label
_atom_site_fract_x
_atom_site_fract_y
_atom_site_fract_z
Si Si1 0.203186 0.042081 0.357587
Si Si2 0.606782 0.500000 0.500000
Si Si3 0.000000 0.872130 0.281732
Si Si4 0.000000 0.351337 0.035706
Si Si5 0.500000 0.700570 0.340250
Si Si6 0.123484 0.835304 0.761981
Si Si7 0.635556 0.610644 0.745887
Si Si8 0.653555 0.481508 0.901260
O O1 0.182553 0.120183 0.288367
O O2 0.272820 0.045300 0.393536
O O3 0.152839 0.047987 0.432661
O O4 0.187624 0.942404 0.310262
O O5 0.560710 0.580790 0.534974
O O6 0.000000 0.807168 0.368741
O O7 0.065692 0.926459 0.279063
O O8 0.000000 0.807026 0.197434
O O9 0.000000 0.300594 0.943410
O O10 0.562011 0.654704 0.298169
O O11 0.134386 0.722704 0.771513
O O12 0.118479 0.896158 0.849779
O O13 0.644873 0.576522 0.843562
O O14 0.636353 0.500000 0.000000
#
# Coordination Sequence:
#
# PCOD9480179 Si02
#       8
#    16   8   8   8   8  16  16  16
#     4  11  21  39  63  87 123 162 203 255 305 360
#     4  11  20  32  60  92 114 147 214 256 292 353
#     4  10  21  39  61  94 123 155 199 264 309 371
#     4  11  20  36  66  88 116 159 206 255 326 354
#     4  10  21  39  61  94 123 155 199 264 309 371
#     4  10  22  42  63  89 124 161 204 257 315 364
#     4  10  22  42  63  89 124 161 204 257 315 364
#     4  11  25  42  61  89 128 170 209 251 313 379
#
# _framework density 20.550763
#
# number of rings (size 3 to 8) (size 9 to 14) (size 15 to 20)
#    0.000    1.500    4.167    2.000    0.000    5.333 
#   15.000    2.500    0.000    0.000    0.000    0.000 
#    0.000    0.000    0.000    0.000    0.000    0.000 
#
# Total GULP energy -267703.738803 kJ/mol
# GULP energy per Si atom -5577.161225 kJ/mol
# Density = 2.050399 g / cm^3
# Si number density = 20.550763 Si / 1000 Ang^3
#
#
#
# Elastic Constant Matrix: (Units=GPa)
#
#
# Indices 1 2 3 4 5 6 
#
# 1 74.0713 -9.0877 10.5635 0.0000 0.0000 0.0000
# 2 -9.0877 76.1032 -14.3444 0.0000 0.0000 0.0000
# 3 10.5635 -14.3444 84.8822 0.0000 0.0000 0.0000
# 4 0.0000 0.0000 0.0000 14.1565 0.0000 0.0000
# 5 0.0000 0.0000 0.0000 0.0000 100.0580 0.0000
# 6 0.0000 0.0000 0.0000 0.0000 0.0000 1.4053
#
#
#
# Elastic Compliance Matrix: (Units=1/GPa)
#
#
# Indices 1 2 3 4 5 6 
#
# 1 0.013883 0.001376 -0.001495 0.000000 0.000000 0.000000
# 2 0.001376 0.013709 0.002145 0.000000 0.000000 0.000000
# 3 -0.001495 0.002145 0.012330 0.000000 0.000000 0.000000
# 4 0.000000 0.000000 0.000000 0.070639 0.000000 0.000000
# 5 0.000000 0.000000 0.000000 0.000000 0.009994 0.000000
# 6 0.000000 0.000000 0.000000 0.000000 0.000000 0.711580
#
#
# Mechanical properties :
#
#
# Convention : Reuss Voigt Hill
#
# Bulk Modulus (GPa) = 22.74102 23.25772 22.99937
# Shear Modulus (GPa) = 5.93303 39.65232 22.79267
#
# Velocity S-wave (km/s) = 1.70096 4.39735 3.33392
# Velocity P-wave (km/s) = 3.86620 6.09295 5.10253
#
# Compressibility (1/GPa) = 0.04397340
#
# Stress axis : x y z
#
# Youngs Moduli (GPa) = 72.03292 72.94617 81.10526
#
# Poissons Ratio (x) = -0.10037 0.12126
# Poissons Ratio (y) = -0.09911 -0.17401
# Poissons Ratio (z) = 0.10770 -0.15650
#
# Static dielectric constant tensor:
#      x y z
#    x 1.768380 0.000000 0.000000 
#    y 0.000000 1.733260 0.000000 
#    z 0.000000 0.000000 1.773250 
# 
# From -- ./inp_files/26403.got.cif
#   From: 2010.05.17/outbox.cif.g08.bks.cpg/sg64_14_cif.got.tgz:26403.got - 2010.06.03 16:29:19.
