data_PCOD9480758
_publ_section_title
;
Structure prediction by ZEFSAII (Michael W. Deem and Ramdas Pophale) SiO2 
 PCOD9480758
Probable space group: C M C A
;
_chemical_formula_sum "Si O2"
_cell_formula_units_Z 68
_cell_length_a 18.264445
_cell_length_b 11.131553
_cell_length_c 12.644999
_cell_angle_alpha 90.000000
_cell_angle_beta 90.000000
_cell_angle_gamma 90.000000
_cell_volume 2570.875453
_symmetry_space_group_name_H-M "C M C A"
_symmetry_group_IT_number 64
_symmetry_cell_setting 'orthorhombic'
loop_
_space_group_symop_operation_xyz
x,y,z
-x,1/2-y,1/2+z
x,-y,-z
-x,1/2+y,1/2-z
-x,-y,-z
x,1/2+y,1/2-z
-x,y,z
x,1/2-y,1/2+z
1/2+x,1/2+y,z
1/2-x,-y,1/2+z
1/2+x,1/2-y,-z
1/2-x,y,1/2-z
1/2-x,1/2-y,-z
1/2+x,y,1/2-z
1/2-x,1/2+y,z
1/2+x,-y,1/2+z
loop_
_atom_site_type_symbol
_atom_site_label
_atom_site_fract_x
_atom_site_fract_y
_atom_site_fract_z
Si Si1 0.112803 0.599941 0.079038
Si Si2 0.000000 0.500000 0.500000
Si Si3 0.084178 0.318740 0.697013
Si Si4 0.383796 0.143508 0.622324
Si Si5 0.224313 0.054330 0.129291
O O1 0.086590 0.590308 0.200809
O O2 0.094745 0.738155 0.054917
O O3 0.201037 0.595095 0.075288
O O4 0.084205 0.500000 0.000000
O O5 0.061898 0.457259 0.415326
O O6 0.104266 0.193855 0.758682
O O7 0.155199 0.355073 0.628871
O O8 0.000000 0.314721 0.654821
O O9 0.305871 0.079609 0.604811
O O10 0.250000 0.049838 0.250000
#
# Coordination Sequence:
#
# PCOD9480758 Si02
#       5
#    16   4  16  16  16
#     4   9  21  42  65 100 136 183 228 286 350 416
#     4  12  24  48  58 108 140 176 218 300 350 412
#     4   9  20  41  65  94 133 180 228 286 342 415
#     4  10  23  41  69  92 142 174 228 285 344 420
#     4  10  22  39  67  97 134 177 232 284 347 405
#
# _framework density 26.450133999999998
#
# number of rings (size 3 to 8) (size 9 to 14) (size 15 to 20)
#    1.412    0.941    1.176    0.000    6.588    1.412 
#    0.000    0.000    0.000    0.000    0.000    0.000 
#    0.000    0.000    0.000    0.000    0.000    0.000 
#
# Total GULP energy -189302.586264 kJ/mol
# GULP energy per Si atom -5567.723125 kJ/mol
# Density = 2.638993 g / cm^3
# Si number density = 26.450134 Si / 1000 Ang^3
#
#
#
# Elastic Constant Matrix: (Units=GPa)
#
#
# Indices 1 2 3 4 5 6 
#
# 1 186.0387 20.0100 19.1953 0.0000 0.0000 0.0000
# 2 20.0100 54.6319 5.9007 0.0000 0.0000 0.0000
# 3 19.1953 5.9007 62.0307 0.0000 0.0000 0.0000
# 4 0.0000 0.0000 0.0000 58.6497 0.0000 0.0000
# 5 0.0000 0.0000 0.0000 0.0000 74.6079 0.0000
# 6 0.0000 0.0000 0.0000 0.0000 0.0000 -66.3924
#
#
#
# Elastic Compliance Matrix: (Units=1/GPa)
#
#
# Indices 1 2 3 4 5 6 
#
# 1 0.005748 -0.001933 -0.001595 0.000000 0.000000 0.000000
# 2 -0.001933 0.019144 -0.001223 0.000000 0.000000 0.000000
# 3 -0.001595 -0.001223 0.016731 0.000000 0.000000 0.000000
# 4 0.000000 0.000000 0.000000 0.017050 0.000000 0.000000
# 5 0.000000 0.000000 0.000000 0.000000 0.013403 0.000000
# 6 0.000000 0.000000 0.000000 0.000000 0.000000 -0.015062
#
#
# Mechanical properties :
#
#
# Convention : Reuss Voigt Hill
#
# Bulk Modulus (GPa) = 31.13165 43.65702 37.39434
# Shear Modulus (GPa) = 64.74730 30.54606 47.64668
#
# Velocity S-wave (km/s) = 4.95299 3.40200 4.24887
# Velocity P-wave (km/s) = 6.67121 5.65444 6.18376
#
# Compressibility (1/GPa) = 0.03212165
#
# Stress axis : x y z
#
# Youngs Moduli (GPa) = 173.98334 52.23460 59.76972
#
# Poissons Ratio (x) = 0.10097 0.09532
# Poissons Ratio (y) = 0.33630 0.07310
# Poissons Ratio (z) = 0.27746 0.06388
#
# Static dielectric constant tensor:
#      x y z
#    x -6.186370 0.000000 0.000000 
#    y 0.000000 2.161680 0.000000 
#    z 0.000000 0.000000 2.341700 
# 
# From -- ./inp_files/26061.got.cif
#   From: 2010.05.17/outbox.cif.g08.bks.cpg/sg64_14_cif.got.tgz:26061.got - 2010.06.03 16:29:19.
