data_PCOD9480640
_publ_section_title
;
Structure prediction by ZEFSAII (Michael W. Deem and Ramdas Pophale) SiO2 
 PCOD9480640
Probable space group: C M C A
;
_chemical_formula_sum "Si O2"
_cell_formula_units_Z 96
_cell_length_a 13.691301
_cell_length_b 14.460678
_cell_length_c 22.253324
_cell_angle_alpha 90.000000
_cell_angle_beta 90.000000
_cell_angle_gamma 90.000000
_cell_volume 4405.835371
_symmetry_space_group_name_H-M "C M C A"
_symmetry_group_IT_number 64
_symmetry_cell_setting 'orthorhombic'
loop_
_space_group_symop_operation_xyz
x,y,z
-x,1/2-y,1/2+z
x,-y,-z
-x,1/2+y,1/2-z
-x,-y,-z
x,1/2+y,1/2-z
-x,y,z
x,1/2-y,1/2+z
1/2+x,1/2+y,z
1/2-x,-y,1/2+z
1/2+x,1/2-y,-z
1/2-x,y,1/2-z
1/2-x,1/2-y,-z
1/2+x,y,1/2-z
1/2-x,1/2+y,z
1/2+x,-y,1/2+z
loop_
_atom_site_type_symbol
_atom_site_label
_atom_site_fract_x
_atom_site_fract_y
_atom_site_fract_z
Si Si1 0.816557 0.930904 0.453534
Si Si2 0.391473 0.586018 0.918362
Si Si3 0.112669 0.237259 0.017266
Si Si4 0.118555 0.829255 0.852573
Si Si5 0.616048 0.517128 0.791388
Si Si6 0.116112 0.874848 0.323974
O O1 0.705462 0.962916 0.441773
O O2 0.822255 0.828568 0.481903
O O3 0.863503 0.920503 0.388243
O O4 0.865265 0.000000 0.500000
O O5 0.500000 0.543217 0.928605
O O6 0.377931 0.589753 0.846701
O O7 0.389674 0.680933 0.955496
O O8 0.139031 0.175556 0.075796
O O9 0.000000 0.268195 0.028597
O O10 0.154330 0.730852 0.826330
O O11 0.000000 0.831424 0.848192
O O12 0.155688 0.919929 0.817695
O O13 0.500000 0.500970 0.781706
O O14 0.653011 0.560888 0.729731
O O15 0.000000 0.866144 0.316306
#
# Coordination Sequence:
#
# PCOD9480640 Si02
#       6
#    16  16  16  16  16  16
#     4  11  23  37  57  86 121 158 196 241 296 358
#     4  10  22  38  59  86 117 150 197 253 293 341
#     4   9  19  37  60  86 118 156 192 236 297 355
#     4   8  15  30  56  83 112 152 188 227 290 349
#     4   9  18  34  58  87 115 152 199 241 290 350
#     4   9  19  38  59  84 120 157 194 240 295 359
#
# _framework density 21.789285
#
# number of rings (size 3 to 8) (size 9 to 14) (size 15 to 20)
#    0.000    2.667    0.000    2.000    2.333    2.333 
#    3.000    0.000    0.000    2.000    0.000    0.000 
#    0.000    0.000    0.000    0.000    0.000    0.000 
#
# Total GULP energy -267683.395467 kJ/mol
# GULP energy per Si atom -5576.737406 kJ/mol
# Density = 2.173969 g / cm^3
# Si number density = 21.789285 Si / 1000 Ang^3
#
#
#
# Elastic Constant Matrix: (Units=GPa)
#
#
# Indices 1 2 3 4 5 6 
#
# 1 40.4219 13.9996 -7.0551 0.0000 0.0000 0.0000
# 2 13.9996 145.6191 114.0612 0.0000 0.0000 0.0000
# 3 -7.0551 114.0612 170.2260 0.0000 0.0000 0.0000
# 4 0.0000 0.0000 0.0000 40.6683 0.0000 0.0000
# 5 0.0000 0.0000 0.0000 0.0000 11.8441 0.0000
# 6 0.0000 0.0000 0.0000 0.0000 0.0000 9.3046
#
#
#
# Elastic Compliance Matrix: (Units=1/GPa)
#
#
# Indices 1 2 3 4 5 6 
#
# 1 0.028522 -0.007720 0.006355 0.000000 0.000000 0.000000
# 2 -0.007720 0.016542 -0.011404 0.000000 0.000000 0.000000
# 3 0.006355 -0.011404 0.013779 0.000000 0.000000 0.000000
# 4 0.000000 0.000000 0.000000 0.024589 0.000000 0.000000
# 5 0.000000 0.000000 0.000000 0.000000 0.084430 0.000000
# 6 0.000000 0.000000 0.000000 0.000000 0.000000 0.107474
#
#
# Mechanical properties :
#
#
# Convention : Reuss Voigt Hill
#
# Bulk Modulus (GPa) = 30.02540 66.47537 48.25038
# Shear Modulus (GPa) = 16.02690 28.04749 22.03719
#
# Velocity S-wave (km/s) = 2.71503 3.59167 3.18367
# Velocity P-wave (km/s) = 4.86192 6.91192 5.97549
#
# Compressibility (1/GPa) = 0.03330514
#
# Stress axis : x y z
#
# Youngs Moduli (GPa) = 35.06099 60.45239 72.57295
#
# Poissons Ratio (x) = 0.46666 -0.46117
# Poissons Ratio (y) = 0.27065 0.82762
# Poissons Ratio (z) = -0.22280 0.68940
#
# Static dielectric constant tensor:
#      x y z
#    x 1.872150 0.000000 0.000000 
#    y 0.000000 1.783180 0.000000 
#    z 0.000000 0.000000 1.784440 
# 
# From -- ./inp_files/39232.got.cif
#   From: 2010.05.17/outbox.cif.g08.bks.cpg/sg64_20_cif.got.tgz:39232.got - 2010.06.03 16:29:19.
