data_PCOD9480561
_publ_section_title
;
Structure prediction by ZEFSAII (Michael W. Deem and Ramdas Pophale) SiO2 
 PCOD9480561
Probable space group: C M C A
;
_chemical_formula_sum "Si O2"
_cell_formula_units_Z 64
_cell_length_a 17.564513
_cell_length_b 14.794001
_cell_length_c 14.816042
_cell_angle_alpha 90.000000
_cell_angle_beta 90.000000
_cell_angle_gamma 90.000000
_cell_volume 3849.939963
_symmetry_space_group_name_H-M "C M C A"
_symmetry_group_IT_number 64
_symmetry_cell_setting 'orthorhombic'
loop_
_space_group_symop_operation_xyz
x,y,z
-x,1/2-y,1/2+z
x,-y,-z
-x,1/2+y,1/2-z
-x,-y,-z
x,1/2+y,1/2-z
-x,y,z
x,1/2-y,1/2+z
1/2+x,1/2+y,z
1/2-x,-y,1/2+z
1/2+x,1/2-y,-z
1/2-x,y,1/2-z
1/2-x,1/2-y,-z
1/2+x,y,1/2-z
1/2-x,1/2+y,z
1/2+x,-y,1/2+z
loop_
_atom_site_type_symbol
_atom_site_label
_atom_site_fract_x
_atom_site_fract_y
_atom_site_fract_z
Si Si1 0.409455 0.371386 0.133193
Si Si2 0.819906 0.694851 0.459748
Si Si3 0.409735 0.225935 0.289874
Si Si4 0.820583 0.448226 0.685889
O O1 0.500000 0.385361 0.125897
O O2 0.394760 0.297297 0.211147
O O3 0.367697 0.463904 0.159435
O O4 0.375552 0.335275 0.039572
O O5 0.750000 0.750000 0.500000
O O6 0.866353 0.749989 0.383005
O O7 0.794193 0.605519 0.404250
O O8 0.500000 0.219763 0.304570
O O9 0.375015 0.127240 0.267528
O O10 0.750000 0.469362 0.750000
#
# Coordination Sequence:
#
# PCOD9480561 Si02
#       4
#    16  16  16  16
#     4  11  22  38  63  87 119 163 203 247 305 364
#     4  10  22  36  60  85 120 153 198 250 299 359
#     4   9  21  38  58  85 120 154 196 249 298 358
#     4  10  22  35  59  87 122 152 198 248 295 359
#
# _framework density 16.623636000000001
#
# number of rings (size 3 to 8) (size 9 to 14) (size 15 to 20)
#    1.500    0.500    0.000    3.750    3.500    1.000 
#    0.000    0.000    0.000    0.000    0.000   10.500 
#    0.000    0.000    0.000    0.000    0.000    0.000 
#
# Total GULP energy -178224.489294 kJ/mol
# GULP energy per Si atom -5569.515290 kJ/mol
# Density = 1.658580 g / cm^3
# Si number density = 16.623636 Si / 1000 Ang^3
#
#
#
# Elastic Constant Matrix: (Units=GPa)
#
#
# Indices 1 2 3 4 5 6 
#
# 1 73.3632 25.7389 66.0477 0.0000 0.0000 0.0000
# 2 25.7389 56.4954 42.2118 0.0000 0.0000 0.0000
# 3 66.0477 42.2118 123.6459 0.0000 0.0000 0.0000
# 4 0.0000 0.0000 0.0000 13.1781 0.0000 0.0000
# 5 0.0000 0.0000 0.0000 0.0000 37.8826 0.0000
# 6 0.0000 0.0000 0.0000 0.0000 0.0000 31.7784
#
#
#
# Elastic Compliance Matrix: (Units=1/GPa)
#
#
# Indices 1 2 3 4 5 6 
#
# 1 0.026427 -0.002004 -0.013432 0.000000 0.000000 0.000000
# 2 -0.002004 0.023914 -0.007094 0.000000 0.000000 0.000000
# 3 -0.013432 -0.007094 0.017684 0.000000 0.000000 0.000000
# 4 0.000000 0.000000 0.000000 0.075883 0.000000 0.000000
# 5 0.000000 0.000000 0.000000 0.000000 0.026397 0.000000
# 6 0.000000 0.000000 0.000000 0.000000 0.000000 0.031468
#
#
# Mechanical properties :
#
#
# Convention : Reuss Voigt Hill
#
# Bulk Modulus (GPa) = 43.54338 57.94460 50.74399
# Shear Modulus (GPa) = 19.64734 24.53489 22.09112
#
# Velocity S-wave (km/s) = 3.44160 3.84592 3.64936
# Velocity P-wave (km/s) = 6.48408 7.39283 6.95331
#
# Compressibility (1/GPa) = 0.02296560
#
# Stress axis : x y z
#
# Youngs Moduli (GPa) = 37.84070 41.81728 56.54694
#
# Poissons Ratio (x) = 0.08378 0.75955
# Poissons Ratio (y) = 0.07582 0.40113
# Poissons Ratio (z) = 0.50829 0.29664
#
# Static dielectric constant tensor:
#      x y z
#    x 1.536560 0.000000 0.000000 
#    y 0.000000 1.542030 0.000000 
#    z 0.000000 0.000000 1.552700 
# 
# From -- ./inp_files/15460.got.cif
#   From: 2010.05.17/outbox.cif.g08.bks.cpg/sg64_8_cif.got.tgz:15460.got - 2010.06.03 16:29:19.
