data_PCOD9480990
_publ_section_title
;
Structure prediction by ZEFSAII (Michael W. Deem and Ramdas Pophale) SiO2 
 PCOD9480990
Probable space group: C M C A
;
_chemical_formula_sum "Si O2"
_cell_formula_units_Z 112
_cell_length_a 15.095418
_cell_length_b 10.634875
_cell_length_c 32.944747
_cell_angle_alpha 90.000000
_cell_angle_beta 90.000000
_cell_angle_gamma 90.000000
_cell_volume 5288.879956
_symmetry_space_group_name_H-M "C M C A"
_symmetry_group_IT_number 64
_symmetry_cell_setting 'orthorhombic'
loop_
_space_group_symop_operation_xyz
x,y,z
-x,1/2-y,1/2+z
x,-y,-z
-x,1/2+y,1/2-z
-x,-y,-z
x,1/2+y,1/2-z
-x,y,z
x,1/2-y,1/2+z
1/2+x,1/2+y,z
1/2-x,-y,1/2+z
1/2+x,1/2-y,-z
1/2-x,y,1/2-z
1/2-x,1/2-y,-z
1/2+x,y,1/2-z
1/2-x,1/2+y,z
1/2+x,-y,1/2+z
loop_
_atom_site_type_symbol
_atom_site_label
_atom_site_fract_x
_atom_site_fract_y
_atom_site_fract_z
Si Si1 0.601492 0.102905 0.909835
Si Si2 0.601853 0.301972 0.184346
Si Si3 0.401208 0.514437 0.329699
Si Si4 0.603004 0.853298 0.641948
Si Si5 0.742308 0.124556 0.526719
Si Si6 0.897127 0.108417 0.903727
Si Si7 0.777235 0.009192 0.207252
O O1 0.500000 0.113216 0.924105
O O2 0.619410 0.221161 0.879862
O O3 0.670152 0.102562 0.946067
O O4 0.607172 0.985739 0.878656
O O5 0.500000 0.345233 0.186056
O O6 0.602476 0.153582 0.189164
O O7 0.633528 0.327518 0.138232
O O8 0.658309 0.390151 0.213220
O O9 0.500000 0.461393 0.321055
O O10 0.312286 0.454925 0.312720
O O11 0.500000 0.854736 0.656546
O O12 0.671049 0.895781 0.677081
O O13 0.609507 0.960624 0.607316
O O14 0.750000 0.250000 0.500000
O O15 0.662642 0.140958 0.558493
O O16 0.727277 0.000000 0.500000
O O17 0.000000 0.140463 0.910362
O O18 0.750000 0.067198 0.250000
#
# Coordination Sequence:
#
# PCOD9480990 Si02
#       7
#    16  16  16  16  16  16  16
#     4  10  22  42  66  88 123 169 215 262 314 385
#     4   9  20  41  65  88 117 164 218 260 306 373
#     4  10  23  40  61  91 123 165 215 257 308 377
#     4   9  19  39  67  95 119 164 223 268 312 375
#     4  12  27  40  59  96 133 165 205 266 340 400
#     4   9  19  38  65  86 112 161 213 259 307 375
#     4  11  23  36  63  94 132 162 205 259 329 376
#
# _framework density 21.176506
#
# number of rings (size 3 to 8) (size 9 to 14) (size 15 to 20)
#    0.000    2.000    0.000    3.857    6.000    2.857 
#    0.000    0.000    0.000    0.000    0.000    0.000 
#    0.000    0.000    0.000    0.000    0.000    0.000 
#
# Total GULP energy -312676.730919 kJ/mol
# GULP energy per Si atom -5583.513052 kJ/mol
# Density = 2.112831 g / cm^3
# Si number density = 21.176506 Si / 1000 Ang^3
#
#
#
# Elastic Constant Matrix: (Units=GPa)
#
#
# Indices 1 2 3 4 5 6 
#
# 1 103.2431 -9.1399 47.9266 0.0000 0.0000 0.0000
# 2 -9.1399 37.9787 -17.3668 0.0000 0.0000 0.0000
# 3 47.9266 -17.3668 66.7739 0.0000 0.0000 0.0000
# 4 0.0000 0.0000 0.0000 11.1808 0.0000 0.0000
# 5 0.0000 0.0000 0.0000 0.0000 9.0016 0.0000
# 6 0.0000 0.0000 0.0000 0.0000 0.0000 17.6607
#
#
#
# Elastic Compliance Matrix: (Units=1/GPa)
#
#
# Indices 1 2 3 4 5 6 
#
# 1 0.014596 -0.001450 -0.010853 0.000000 0.000000 0.000000
# 2 -0.001450 0.030029 0.008851 0.000000 0.000000 0.000000
# 3 -0.010853 0.008851 0.025068 0.000000 0.000000 0.000000
# 4 0.000000 0.000000 0.000000 0.089439 0.000000 0.000000
# 5 0.000000 0.000000 0.000000 0.000000 0.111091 0.000000
# 6 0.000000 0.000000 0.000000 0.000000 0.000000 0.056623
#
#
# Mechanical properties :
#
#
# Convention : Reuss Voigt Hill
#
# Bulk Modulus (GPa) = 15.92682 27.87061 21.89871
# Shear Modulus (GPa) = 14.09722 20.00700 17.05211
#
# Velocity S-wave (km/s) = 2.58292 3.07705 2.84075
# Velocity P-wave (km/s) = 4.05371 5.08075 4.59601
#
# Compressibility (1/GPa) = 0.06278718
#
# Stress axis : x y z
#
# Youngs Moduli (GPa) = 68.51360 33.30132 39.89196
#
# Poissons Ratio (x) = 0.04830 0.43295
# Poissons Ratio (y) = 0.09937 -0.35308
# Poissons Ratio (z) = 0.74359 -0.29475
#
# Static dielectric constant tensor:
#      x y z
#    x 1.789980 0.000000 0.000000 
#    y 0.000000 1.826830 0.000000 
#    z 0.000000 0.000000 1.749010 
# 
# From -- ./inp_files/53268.got.cif
#   From: 2010.05.17/outbox.cif.g08.bks.cpg/sg64_27_cif.got.tgz:53268.got - 2010.06.03 16:29:19.
