data_PCOD9480653
_publ_section_title
;
Structure prediction by ZEFSAII (Michael W. Deem and Ramdas Pophale) SiO2 
 PCOD9480653
Probable space group: C M C A
;
_chemical_formula_sum "Si O2"
_cell_formula_units_Z 96
_cell_length_a 21.907194
_cell_length_b 8.747129
_cell_length_c 23.944801
_cell_angle_alpha 90.000000
_cell_angle_beta 90.000000
_cell_angle_gamma 90.000000
_cell_volume 4588.423735
_symmetry_space_group_name_H-M "C M C A"
_symmetry_group_IT_number 64
_symmetry_cell_setting 'orthorhombic'
loop_
_space_group_symop_operation_xyz
x,y,z
-x,1/2-y,1/2+z
x,-y,-z
-x,1/2+y,1/2-z
-x,-y,-z
x,1/2+y,1/2-z
-x,y,z
x,1/2-y,1/2+z
1/2+x,1/2+y,z
1/2-x,-y,1/2+z
1/2+x,1/2-y,-z
1/2-x,y,1/2-z
1/2-x,1/2-y,-z
1/2+x,y,1/2-z
1/2-x,1/2+y,z
1/2+x,-y,1/2+z
loop_
_atom_site_type_symbol
_atom_site_label
_atom_site_fract_x
_atom_site_fract_y
_atom_site_fract_z
Si Si1 0.433368 0.845161 0.036035
Si Si2 0.698735 0.561643 0.795808
Si Si3 0.593016 0.121250 0.832950
Si Si4 0.780810 0.751323 0.850900
Si Si5 0.568057 0.050791 0.271168
Si Si6 0.808990 0.666732 0.474754
O O1 0.500000 0.771887 0.025468
O O2 0.429843 0.874120 0.103241
O O3 0.373899 0.750295 0.018408
O O4 0.431362 0.000000 0.000000
O O5 0.750000 0.609917 0.750000
O O6 0.716081 0.669979 0.847281
O O7 0.714503 0.387097 0.807405
O O8 0.626231 0.554574 0.787292
O O9 0.666318 0.127183 0.839144
O O10 0.571731 0.976691 0.796081
O O11 0.576243 0.280117 0.799088
O O12 0.796258 0.829603 0.908963
O O13 0.500000 0.998790 0.288033
O O14 0.812376 0.500000 0.500000
O O15 0.750000 0.750000 0.500000
#
# Coordination Sequence:
#
# PCOD9480653 Si02
#       6
#    16  16  16  16  16  16
#     4  10  22  43  70  95 128 172 224 279 329 393
#     4  11  21  36  59  87 122 160 206 247 304 375
#     4  10  22  41  62  92 128 168 210 258 325 387
#     4  10  22  38  61  89 121 162 205 259 306 373
#     4  11  22  37  60  90 131 168 206 260 317 388
#     4  11  23  42  64  93 129 168 215 270 330 384
#
# _framework density 20.922218000000001
#
# number of rings (size 3 to 8) (size 9 to 14) (size 15 to 20)
#    0.000    1.500    1.667    3.500    2.333    1.667 
#    0.000    5.000    0.000    9.000    0.000    0.000 
#    0.000    0.000    0.000    0.000    0.000    0.000 
#
# Total GULP energy -267435.838555 kJ/mol
# GULP energy per Si atom -5571.579970 kJ/mol
# Density = 2.087460 g / cm^3
# Si number density = 20.922218 Si / 1000 Ang^3
#
#
#
# Elastic Constant Matrix: (Units=GPa)
#
#
# Indices 1 2 3 4 5 6 
#
# 1 183.9742 59.7093 64.4509 0.0000 0.0000 0.0000
# 2 59.7093 72.8057 49.9253 0.0000 0.0000 0.0000
# 3 64.4509 49.9253 78.1973 0.0000 0.0000 0.0000
# 4 0.0000 0.0000 0.0000 38.4276 0.0000 0.0000
# 5 0.0000 0.0000 0.0000 0.0000 19.4774 0.0000
# 6 0.0000 0.0000 0.0000 0.0000 0.0000 24.6535
#
#
#
# Elastic Compliance Matrix: (Units=1/GPa)
#
#
# Indices 1 2 3 4 5 6 
#
# 1 0.008167 -0.003704 -0.004367 0.000000 0.000000 0.000000
# 2 -0.003704 0.026111 -0.013618 0.000000 0.000000 0.000000
# 3 -0.004367 -0.013618 0.025082 0.000000 0.000000 0.000000
# 4 0.000000 0.000000 0.000000 0.026023 0.000000 0.000000
# 5 0.000000 0.000000 0.000000 0.000000 0.051342 0.000000
# 6 0.000000 0.000000 0.000000 0.000000 0.000000 0.040562
#
#
# Mechanical properties :
#
#
# Convention : Reuss Voigt Hill
#
# Bulk Modulus (GPa) = 62.56682 75.90534 69.23608
# Shear Modulus (GPa) = 22.12464 27.23781 24.68122
#
# Velocity S-wave (km/s) = 3.25541 3.61204 3.43835
# Velocity P-wave (km/s) = 6.64076 7.33174 6.99478
#
# Compressibility (1/GPa) = 0.01598291
#
# Stress axis : x y z
#
# Youngs Moduli (GPa) = 122.43672 38.29817 39.86913
#
# Poissons Ratio (x) = 0.14184 0.17411
# Poissons Ratio (y) = 0.45346 0.54294
# Poissons Ratio (z) = 0.53470 0.52155
#
# Static dielectric constant tensor:
#      x y z
#    x 2.305340 0.000000 0.000000 
#    y 0.000000 1.716180 0.000000 
#    z 0.000000 0.000000 1.856050 
# 
# From -- ./inp_files/46586.got.cif
#   From: 2010.05.17/outbox.cif.g08.bks.cpg/sg64_24_cif.got.tgz:46586.got - 2010.06.03 16:29:19.
