data_PCOD9480099
_publ_section_title
;
Structure prediction by ZEFSAII (Michael W. Deem and Ramdas Pophale) SiO2 
 PCOD9480099
Probable space group: C M C A
;
_chemical_formula_sum "Si O2"
_cell_formula_units_Z 64
_cell_length_a 14.917663
_cell_length_b 24.698262
_cell_length_c 8.038771
_cell_angle_alpha 90.000000
_cell_angle_beta 90.000000
_cell_angle_gamma 90.000000
_cell_volume 2961.807594
_symmetry_space_group_name_H-M "C M C A"
_symmetry_group_IT_number 64
_symmetry_cell_setting 'orthorhombic'
loop_
_space_group_symop_operation_xyz
x,y,z
-x,1/2-y,1/2+z
x,-y,-z
-x,1/2+y,1/2-z
-x,-y,-z
x,1/2+y,1/2-z
-x,y,z
x,1/2-y,1/2+z
1/2+x,1/2+y,z
1/2-x,-y,1/2+z
1/2+x,1/2-y,-z
1/2-x,y,1/2-z
1/2-x,1/2-y,-z
1/2+x,y,1/2-z
1/2-x,1/2+y,z
1/2+x,-y,1/2+z
loop_
_atom_site_type_symbol
_atom_site_label
_atom_site_fract_x
_atom_site_fract_y
_atom_site_fract_z
Si Si1 0.905484 0.584352 0.439368
Si Si2 0.000000 0.834086 0.135282
Si Si3 0.659016 0.344285 0.647008
Si Si4 0.000000 0.721349 0.993475
Si Si5 0.777699 0.945259 0.442375
O O1 0.896843 0.621279 0.278921
O O2 0.814539 0.552829 0.452444
O O3 0.000000 0.554231 0.430089
O O4 0.917318 0.625697 0.595372
O O5 0.000000 0.786032 0.000486
O O6 0.000000 0.805941 0.312311
O O7 0.750000 0.327783 0.750000
O O8 0.592467 0.298168 0.581131
O O9 0.681535 0.387823 0.501427
O O10 0.750000 0.946131 0.250000
O O11 0.829280 0.000000 0.500000
#
# Coordination Sequence:
#
# PCOD9480099 Si02
#       5
#    16   8  16   8  16
#     4   9  19  39  59  84 120 151 197 242 297 343
#     4  10  22  36  63  90 119 162 194 252 288 358
#     4  10  21  38  63  87 119 160 196 248 296 353
#     4  12  20  40  61  86 125 156 202 242 302 348
#     4  11  22  39  60  88 121 156 198 245 295 352
#
# _framework density 21.608426000000001
#
# number of rings (size 3 to 8) (size 9 to 14) (size 15 to 20)
#    0.750    1.000    1.250    5.250    0.000    0.500 
#    0.000   13.125    0.000    0.000    0.000    0.000 
#    0.000    0.000    0.000    0.000    0.000    0.000 
#
# Total GULP energy -178229.740518 kJ/mol
# GULP energy per Si atom -5569.679391 kJ/mol
# Density = 2.155924 g / cm^3
# Si number density = 21.608426 Si / 1000 Ang^3
#
#
#
# Elastic Constant Matrix: (Units=GPa)
#
#
# Indices 1 2 3 4 5 6 
#
# 1 79.1181 12.5026 -6.6966 0.0000 0.0000 0.0000
# 2 12.5026 62.1216 -10.5939 0.0000 0.0000 0.0000
# 3 -6.6966 -10.5939 89.5521 0.0000 0.0000 0.0000
# 4 0.0000 0.0000 0.0000 27.4686 0.0000 0.0000
# 5 0.0000 0.0000 0.0000 0.0000 -37.6608 0.0000
# 6 0.0000 0.0000 0.0000 0.0000 0.0000 17.7678
#
#
#
# Elastic Compliance Matrix: (Units=1/GPa)
#
#
# Indices 1 2 3 4 5 6 
#
# 1 0.013095 -0.002519 0.000681 0.000000 0.000000 0.000000
# 2 -0.002519 0.016914 0.001812 0.000000 0.000000 0.000000
# 3 0.000681 0.001812 0.011432 0.000000 0.000000 0.000000
# 4 0.000000 0.000000 0.000000 0.036405 0.000000 0.000000
# 5 0.000000 0.000000 0.000000 0.000000 -0.026553 0.000000
# 6 0.000000 0.000000 0.000000 0.000000 0.000000 0.056282
#
#
# Mechanical properties :
#
#
# Convention : Reuss Voigt Hill
#
# Bulk Modulus (GPa) = 24.16079 24.57955 24.37017
# Shear Modulus (GPa) = 41.17850 17.22043 29.19947
#
# Velocity S-wave (km/s) = 4.37013 2.82606 3.67999
# Velocity P-wave (km/s) = 6.05554 4.69558 5.41840
#
# Compressibility (1/GPa) = 0.04138937
#
# Stress axis : x y z
#
# Youngs Moduli (GPa) = 76.36435 59.12404 87.47345
#
# Poissons Ratio (x) = 0.14895 -0.05959
# Poissons Ratio (y) = 0.19239 -0.15854
# Poissons Ratio (z) = -0.05202 -0.10716
#
# Static dielectric constant tensor:
#      x y z
#    x 1.796480 0.000000 0.000000 
#    y 0.000000 1.793710 0.000000 
#    z 0.000000 0.000000 1.804440 
# 
# From -- ./inp_files/5658.got.cif
#   From: 2010.05.17/outbox.cif.g08.bks.cpg/sg64_3_cif.got.tgz:5658.got - 2010.06.03 16:29:19.
