data_PCOD9480940
_publ_section_title
;
Structure prediction by ZEFSAII (Michael W. Deem and Ramdas Pophale) SiO2 
 PCOD9480940
Probable space group: C M C A
;
_chemical_formula_sum "Si O2"
_cell_formula_units_Z 64
_cell_length_a 14.723439
_cell_length_b 13.598041
_cell_length_c 13.039639
_cell_angle_alpha 90.000000
_cell_angle_beta 90.000000
_cell_angle_gamma 90.000000
_cell_volume 2610.665175
_symmetry_space_group_name_H-M "C M C A"
_symmetry_group_IT_number 64
_symmetry_cell_setting 'orthorhombic'
loop_
_space_group_symop_operation_xyz
x,y,z
-x,1/2-y,1/2+z
x,-y,-z
-x,1/2+y,1/2-z
-x,-y,-z
x,1/2+y,1/2-z
-x,y,z
x,1/2-y,1/2+z
1/2+x,1/2+y,z
1/2-x,-y,1/2+z
1/2+x,1/2-y,-z
1/2-x,y,1/2-z
1/2-x,1/2-y,-z
1/2+x,y,1/2-z
1/2-x,1/2+y,z
1/2+x,-y,1/2+z
loop_
_atom_site_type_symbol
_atom_site_label
_atom_site_fract_x
_atom_site_fract_y
_atom_site_fract_z
Si Si1 0.672238 0.577033 0.560537
Si Si2 0.688585 0.082583 0.343667
Si Si3 0.610081 0.774556 0.484664
Si Si4 0.396516 0.890648 0.278943
O O1 0.607082 0.500000 0.500000
O O2 0.747176 0.495070 0.595426
O O3 0.666528 0.673999 0.490656
O O4 0.650883 0.624425 0.670962
O O5 0.750000 0.123263 0.250000
O O6 0.640520 0.156557 0.420926
O O7 0.614014 0.007155 0.298988
O O8 0.500000 0.759065 0.488115
O O9 0.634181 0.830968 0.379112
O O10 0.500000 0.862736 0.263996
#
# Coordination Sequence:
#
# PCOD9480940 Si02
#       4
#    16  16  16  16
#     4  11  25  43  66  98 137 174 218 277 339 396
#     4  10  23  42  68 100 135 176 223 277 334 394
#     4  11  24  44  70  98 132 177 227 276 329 397
#     4  10  22  41  66  98 135 177 224 273 332 400
#
# _framework density 24.514825999999999
#
# number of rings (size 3 to 8) (size 9 to 14) (size 15 to 20)
#    0.000    1.500    0.000    3.750    0.000   15.000 
#    0.000    2.500    0.000    0.000    0.000    0.000 
#    0.000    0.000    0.000    0.000    0.000    0.000 
#
# Total GULP energy -178505.662496 kJ/mol
# GULP energy per Si atom -5578.301953 kJ/mol
# Density = 2.445903 g / cm^3
# Si number density = 24.514826 Si / 1000 Ang^3
#
#
#
# Elastic Constant Matrix: (Units=GPa)
#
#
# Indices 1 2 3 4 5 6 
#
# 1 83.3303 25.7395 6.9228 0.0000 0.0000 0.0000
# 2 25.7395 130.7631 27.9964 0.0000 0.0000 0.0000
# 3 6.9228 27.9964 120.9576 0.0000 0.0000 0.0000
# 4 0.0000 0.0000 0.0000 15.4006 0.0000 0.0000
# 5 0.0000 0.0000 0.0000 0.0000 30.7610 0.0000
# 6 0.0000 0.0000 0.0000 0.0000 0.0000 2.8920
#
#
#
# Elastic Compliance Matrix: (Units=1/GPa)
#
#
# Indices 1 2 3 4 5 6 
#
# 1 0.012780 -0.002482 -0.000157 0.000000 0.000000 0.000000
# 2 -0.002482 0.008528 -0.001832 0.000000 0.000000 0.000000
# 3 -0.000157 -0.001832 0.008700 0.000000 0.000000 0.000000
# 4 0.000000 0.000000 0.000000 0.064932 0.000000 0.000000
# 5 0.000000 0.000000 0.000000 0.000000 0.032509 0.000000
# 6 0.000000 0.000000 0.000000 0.000000 0.000000 0.345782
#
#
# Mechanical properties :
#
#
# Convention : Reuss Voigt Hill
#
# Bulk Modulus (GPa) = 47.46771 50.70760 49.08766
# Shear Modulus (GPa) = 10.22086 28.10354 19.16220
#
# Velocity S-wave (km/s) = 2.04409 3.38951 2.79885
# Velocity P-wave (km/s) = 4.99760 6.00398 5.52375
#
# Compressibility (1/GPa) = 0.02106695
#
# Stress axis : x y z
#
# Youngs Moduli (GPa) = 78.24634 117.25828 114.93808
#
# Poissons Ratio (x) = 0.29104 0.01804
# Poissons Ratio (y) = 0.19421 0.21055
# Poissons Ratio (z) = 0.01228 0.21480
#
# Static dielectric constant tensor:
#      x y z
#    x 2.101830 0.000000 0.000000 
#    y 0.000000 1.960920 0.000000 
#    z 0.000000 0.000000 2.197480 
# 
# From -- ./inp_files/15503.got.cif
#   From: 2010.05.17/outbox.cif.g08.bks.cpg/sg64_8_cif.got.tgz:15503.got - 2010.06.03 16:29:19.
