data_PCOD9480644
_publ_section_title
;
Structure prediction by ZEFSAII (Michael W. Deem and Ramdas Pophale) SiO2 
 PCOD9480644
Probable space group: C M C A
;
_chemical_formula_sum "Si O2"
_cell_formula_units_Z 112
_cell_length_a 24.553853
_cell_length_b 14.569492
_cell_length_c 14.238016
_cell_angle_alpha 90.000000
_cell_angle_beta 90.000000
_cell_angle_gamma 90.000000
_cell_volume 5093.467477
_symmetry_space_group_name_H-M "C M C A"
_symmetry_group_IT_number 64
_symmetry_cell_setting 'orthorhombic'
loop_
_space_group_symop_operation_xyz
x,y,z
-x,1/2-y,1/2+z
x,-y,-z
-x,1/2+y,1/2-z
-x,-y,-z
x,1/2+y,1/2-z
-x,y,z
x,1/2-y,1/2+z
1/2+x,1/2+y,z
1/2-x,-y,1/2+z
1/2+x,1/2-y,-z
1/2-x,y,1/2-z
1/2-x,1/2-y,-z
1/2+x,y,1/2-z
1/2-x,1/2+y,z
1/2+x,-y,1/2+z
loop_
_atom_site_type_symbol
_atom_site_label
_atom_site_fract_x
_atom_site_fract_y
_atom_site_fract_z
Si Si1 0.883563 0.861130 0.599905
Si Si2 0.603989 0.727113 0.585111
Si Si3 0.439015 0.704748 0.779285
Si Si4 0.791951 0.629575 0.826031
Si Si5 0.145000 0.584147 0.430250
Si Si6 0.615467 0.509969 0.745720
Si Si7 0.261253 0.143645 0.026656
O O1 0.907907 0.846032 0.495937
O O2 0.900252 0.773675 0.663258
O O3 0.818330 0.864047 0.580751
O O4 0.901713 0.952874 0.653902
O O5 0.562367 0.733907 0.669727
O O6 0.660145 0.697112 0.638095
O O7 0.616315 0.823104 0.535043
O O8 0.500000 0.711474 0.817511
O O9 0.419055 0.599142 0.774890
O O10 0.750000 0.669594 0.750000
O O11 0.824170 0.548627 0.774888
O O12 0.765002 0.597313 0.923335
O O13 0.137490 0.500000 0.500000
O O14 0.119141 0.559455 0.331170
O O15 0.208930 0.605635 0.420802
O O16 0.250000 0.250000 0.000000
#
# Coordination Sequence:
#
# PCOD9480644 Si02
#       7
#    16  16  16  16  16  16  16
#     4  11  24  45  69 104 142 180 231 289 344 425
#     4  10  23  44  68  97 137 182 228 290 346 413
#     4  11  26  50  74  97 132 178 239 306 364 407
#     4  10  22  38  59  95 139 185 227 273 327 411
#     4  12  23  40  63 104 146 185 227 274 338 418
#     4  11  26  41  67 100 136 180 232 286 346 421
#     4  11  24  39  63 100 142 192 231 263 342 422
#
# _framework density 21.988949000000002
#
# number of rings (size 3 to 8) (size 9 to 14) (size 15 to 20)
#    0.000    1.143    4.286    1.714    8.000    5.714 
#    0.000    0.714    0.000    1.714    0.000    0.000 
#    0.000    0.000    0.000    0.000    0.000    0.000 
#
# Total GULP energy -312885.130039 kJ/mol
# GULP energy per Si atom -5587.234465 kJ/mol
# Density = 2.193890 g / cm^3
# Si number density = 21.988949 Si / 1000 Ang^3
#
#
#
# Elastic Constant Matrix: (Units=GPa)
#
#
# Indices 1 2 3 4 5 6 
#
# 1 45.9439 7.1571 26.0017 0.0000 0.0000 0.0000
# 2 7.1571 77.7596 15.8333 0.0000 0.0000 0.0000
# 3 26.0017 15.8333 93.5183 0.0000 0.0000 0.0000
# 4 0.0000 0.0000 0.0000 43.5518 0.0000 0.0000
# 5 0.0000 0.0000 0.0000 0.0000 11.1920 0.0000
# 6 0.0000 0.0000 0.0000 0.0000 0.0000 10.4909
#
#
#
# Elastic Compliance Matrix: (Units=1/GPa)
#
#
# Indices 1 2 3 4 5 6 
#
# 1 0.025898 -0.000950 -0.007040 0.000000 0.000000 0.000000
# 2 -0.000950 0.013354 -0.001997 0.000000 0.000000 0.000000
# 3 -0.007040 -0.001997 0.012988 0.000000 0.000000 0.000000
# 4 0.000000 0.000000 0.000000 0.022961 0.000000 0.000000
# 5 0.000000 0.000000 0.000000 0.000000 0.089350 0.000000
# 6 0.000000 0.000000 0.000000 0.000000 0.000000 0.095321
#
#
# Mechanical properties :
#
#
# Convention : Reuss Voigt Hill
#
# Bulk Modulus (GPa) = 30.99139 35.02288 33.00714
# Shear Modulus (GPa) = 17.20570 24.26225 20.73398
#
# Velocity S-wave (km/s) = 2.80030 3.32533 3.07404
# Velocity P-wave (km/s) = 4.95785 5.54128 5.25766
#
# Compressibility (1/GPa) = 0.03226703
#
# Stress axis : x y z
#
# Youngs Moduli (GPa) = 38.61335 74.88293 76.99143
#
# Poissons Ratio (x) = 0.07116 0.54200
# Poissons Ratio (y) = 0.03669 0.15373
# Poissons Ratio (z) = 0.27183 0.14952
#
# Static dielectric constant tensor:
#      x y z
#    x 1.793950 0.000000 0.000000 
#    y 0.000000 1.891270 0.000000 
#    z 0.000000 0.000000 1.834210 
# 
# From -- ./inp_files/28094.got.cif
#   From: 2010.05.17/outbox.cif.g08.bks.cpg/sg64_15_cif.got.tgz:28094.got - 2010.06.03 16:29:19.
