data_PCOD9480785
_publ_section_title
;
Structure prediction by ZEFSAII (Michael W. Deem and Ramdas Pophale) SiO2 
 PCOD9480785
Probable space group: C M C A
;
_chemical_formula_sum "Si O2"
_cell_formula_units_Z 48
_cell_length_a 17.664822
_cell_length_b 7.869858
_cell_length_c 15.428719
_cell_angle_alpha 90.000000
_cell_angle_beta 90.000000
_cell_angle_gamma 90.000000
_cell_volume 2144.894972
_symmetry_space_group_name_H-M "C M C A"
_symmetry_group_IT_number 64
_symmetry_cell_setting 'orthorhombic'
loop_
_space_group_symop_operation_xyz
x,y,z
-x,1/2-y,1/2+z
x,-y,-z
-x,1/2+y,1/2-z
-x,-y,-z
x,1/2+y,1/2-z
-x,y,z
x,1/2-y,1/2+z
1/2+x,1/2+y,z
1/2-x,-y,1/2+z
1/2+x,1/2-y,-z
1/2-x,y,1/2-z
1/2-x,1/2-y,-z
1/2+x,y,1/2-z
1/2-x,1/2+y,z
1/2+x,-y,1/2+z
loop_
_atom_site_type_symbol
_atom_site_label
_atom_site_fract_x
_atom_site_fract_y
_atom_site_fract_z
Si Si1 0.625216 0.000000 0.500000
Si Si2 0.250000 0.481641 0.250000
Si Si3 0.000000 0.235837 0.933470
Si Si4 0.500000 0.395202 0.372312
Si Si5 0.840574 0.732816 0.349018
O O1 0.571633 0.890752 0.434496
O O2 0.665962 0.860970 0.558961
O O3 0.224265 0.371198 0.168129
O O4 0.178877 0.594623 0.276433
O O5 0.000000 0.399213 0.871338
O O6 0.000000 0.324083 0.028587
O O7 0.422468 0.316518 0.336487
#
# Coordination Sequence:
#
# PCOD9480785 Si02
#       5
#     8   8   8   8  16
#     4   9  18  36  64  92 116 155 204 250 300 359
#     4  10  24  42  54  84 132 162 192 252 312 362
#     4   8  16  32  59  96 120 132 190 268 298 327
#     4   9  18  36  63  88 112 153 198 243 296 355
#     4  10  22  40  61  85 120 160 202 251 305 362
#
# _framework density 22.378717999999999
#
# number of rings (size 3 to 8) (size 9 to 14) (size 15 to 20)
#    0.000    2.667    0.000    1.000    0.000    8.000 
#    0.000    3.333    0.000    0.000    0.000    0.000 
#    0.000    1.333    0.000    0.000    0.000    0.000 
#
# Total GULP energy -133835.638573 kJ/mol
# GULP energy per Si atom -5576.484941 kJ/mol
# Density = 2.232778 g / cm^3
# Si number density = 22.378718 Si / 1000 Ang^3
#
#
#
# Elastic Constant Matrix: (Units=GPa)
#
#
# Indices 1 2 3 4 5 6 
#
# 1 108.4782 71.1726 37.7630 0.0000 0.0000 0.0000
# 2 71.1726 149.4936 38.8873 0.0000 0.0000 0.0000
# 3 37.7630 38.8873 44.0632 0.0000 0.0000 0.0000
# 4 0.0000 0.0000 0.0000 24.9626 0.0000 0.0000
# 5 0.0000 0.0000 0.0000 0.0000 20.0271 0.0000
# 6 0.0000 0.0000 0.0000 0.0000 0.0000 2.9545
#
#
#
# Elastic Compliance Matrix: (Units=1/GPa)
#
#
# Indices 1 2 3 4 5 6 
#
# 1 0.015704 -0.005160 -0.008904 0.000000 0.000000 0.000000
# 2 -0.005160 0.010378 -0.004737 0.000000 0.000000 0.000000
# 3 -0.008904 -0.004737 0.034506 0.000000 0.000000 0.000000
# 4 0.000000 0.000000 0.000000 0.040060 0.000000 0.000000
# 5 0.000000 0.000000 0.000000 0.000000 0.049932 0.000000
# 6 0.000000 0.000000 0.000000 0.000000 0.000000 0.338468
#
#
# Mechanical properties :
#
#
# Convention : Reuss Voigt Hill
#
# Bulk Modulus (GPa) = 43.50553 66.40898 54.95726
# Shear Modulus (GPa) = 9.35782 19.86964 14.61373
#
# Velocity S-wave (km/s) = 2.04711 2.98297 2.55820
# Velocity P-wave (km/s) = 5.00703 6.45009 5.77382
#
# Compressibility (1/GPa) = 0.02298558
#
# Stress axis : x y z
#
# Youngs Moduli (GPa) = 63.67878 96.35679 28.98027
#
# Poissons Ratio (x) = 0.49722 0.25805
# Poissons Ratio (y) = 0.32859 0.13727
# Poissons Ratio (z) = 0.56703 0.45641
#
# Static dielectric constant tensor:
#      x y z
#    x 1.806260 0.000000 0.000000 
#    y 0.000000 1.867130 0.000000 
#    z 0.000000 0.000000 1.825640 
# 
# From -- ./inp_files/32627.got.cif
#   From: 2010.05.17/outbox.cif.g08.bks.cpg/sg64_17_cif.got.tgz:32627.got - 2010.06.03 16:29:19.
