data_PCOD9480339
_publ_section_title
;
Structure prediction by ZEFSAII (Michael W. Deem and Ramdas Pophale) SiO2 
 PCOD9480339
Probable space group: C M C A
;
_chemical_formula_sum "Si O2"
_cell_formula_units_Z 120
_cell_length_a 26.427471
_cell_length_b 9.036583
_cell_length_c 27.188996
_cell_angle_alpha 90.000000
_cell_angle_beta 90.000000
_cell_angle_gamma 90.000000
_cell_volume 6493.113847
_symmetry_space_group_name_H-M "C M C A"
_symmetry_group_IT_number 64
_symmetry_cell_setting 'orthorhombic'
loop_
_space_group_symop_operation_xyz
x,y,z
-x,1/2-y,1/2+z
x,-y,-z
-x,1/2+y,1/2-z
-x,-y,-z
x,1/2+y,1/2-z
-x,y,z
x,1/2-y,1/2+z
1/2+x,1/2+y,z
1/2-x,-y,1/2+z
1/2+x,1/2-y,-z
1/2-x,y,1/2-z
1/2-x,1/2-y,-z
1/2+x,y,1/2-z
1/2-x,1/2+y,z
1/2+x,-y,1/2+z
loop_
_atom_site_type_symbol
_atom_site_label
_atom_site_fract_x
_atom_site_fract_y
_atom_site_fract_z
Si Si1 0.696620 0.594970 0.278516
Si Si2 0.899413 0.584958 0.450254
Si Si3 0.500000 0.618657 0.410307
Si Si4 0.096318 0.433190 0.052781
Si Si5 0.054402 0.605821 0.636802
Si Si6 0.704253 0.414123 0.897800
Si Si7 0.344633 0.914742 0.305655
Si Si8 0.303459 0.066578 0.883230
O O1 0.750000 0.587654 0.250000
O O2 0.656938 0.523879 0.240653
O O3 0.683090 0.763031 0.291452
O O4 0.696950 0.499822 0.328350
O O5 0.912546 0.500000 0.500000
O O6 0.911719 0.757511 0.453418
O O7 0.928349 0.509909 0.404789
O O8 0.839504 0.571251 0.438453
O O9 0.455105 0.508666 0.429688
O O10 0.543228 0.738592 0.389807
O O11 0.142466 0.455237 0.090908
O O12 0.110845 0.500000 0.000000
O O13 0.098908 0.617451 0.675961
O O14 0.000000 0.559171 0.658480
O O15 0.684283 0.506088 0.850710
O O16 0.708002 0.241697 0.883428
O O17 0.758502 0.480717 0.911305
#
# Coordination Sequence:
#
# PCOD9480339 Si02
#       8
#    16  16   8  16  16  16  16  16
#     4  12  23  35  63  95 122 163 204 252 307 373
#     4  10  22  39  63  92 125 164 209 254 309 371
#     4  10  21  40  64  90 115 158 205 258 310 354
#     4  11  24  40  63  95 127 162 211 260 312 370
#     4   9  22  42  65  86 119 164 206 257 316 368
#     4  10  22  39  60  89 128 166 203 249 309 367
#     4  11  22  40  60  91 126 156 207 255 309 375
#     4  11  23  40  61  93 127 167 205 256 305 367
#
# _framework density 18.481117000000001
#
# number of rings (size 3 to 8) (size 9 to 14) (size 15 to 20)
#    0.400    1.067    1.333    3.800    0.933    4.000 
#    0.000    3.333    1.467    0.000    0.000    0.000 
#    0.000    0.000    0.000    0.000    0.000    0.000 
#
# Total GULP energy -334030.645951 kJ/mol
# GULP energy per Si atom -5567.177433 kJ/mol
# Density = 1.843905 g / cm^3
# Si number density = 18.481117 Si / 1000 Ang^3
#
#
#
# Elastic Constant Matrix: (Units=GPa)
#
#
# Indices 1 2 3 4 5 6 
#
# 1 109.9428 58.1805 46.7631 0.0000 0.0000 0.0000
# 2 58.1805 120.1416 54.5494 0.0000 0.0000 0.0000
# 3 46.7631 54.5494 63.7354 0.0000 0.0000 0.0000
# 4 0.0000 0.0000 0.0000 21.5614 0.0000 0.0000
# 5 0.0000 0.0000 0.0000 0.0000 12.2989 0.0000
# 6 0.0000 0.0000 0.0000 0.0000 0.0000 29.0794
#
#
#
# Elastic Compliance Matrix: (Units=1/GPa)
#
#
# Indices 1 2 3 4 5 6 
#
# 1 0.014056 -0.003475 -0.007339 0.000000 0.000000 0.000000
# 2 -0.003475 0.014473 -0.009838 0.000000 0.000000 0.000000
# 3 -0.007339 -0.009838 0.029494 0.000000 0.000000 0.000000
# 4 0.000000 0.000000 0.000000 0.046379 0.000000 0.000000
# 5 0.000000 0.000000 0.000000 0.000000 0.081308 0.000000
# 6 0.000000 0.000000 0.000000 0.000000 0.000000 0.034389
#
#
# Mechanical properties :
#
#
# Convention : Reuss Voigt Hill
#
# Bulk Modulus (GPa) = 59.80665 68.08953 63.94809
# Shear Modulus (GPa) = 18.72834 21.54307 20.13571
#
# Velocity S-wave (km/s) = 3.18681 3.41791 3.30438
# Velocity P-wave (km/s) = 6.78028 7.24561 7.01681
#
# Compressibility (1/GPa) = 0.01672055
#
# Stress axis : x y z
#
# Youngs Moduli (GPa) = 71.14405 69.09524 33.90469
#
# Poissons Ratio (x) = 0.24007 0.24883
# Poissons Ratio (y) = 0.24719 0.33354
# Poissons Ratio (z) = 0.52214 0.67973
#
# Static dielectric constant tensor:
#      x y z
#    x 1.647290 0.000000 0.000000 
#    y 0.000000 1.618110 0.000000 
#    z 0.000000 0.000000 1.625390 
# 
# From -- ./inp_files/51238.got.cif
#   From: 2010.05.17/outbox.cif.g08.bks.cpg/sg64_26_cif.got.tgz:51238.got - 2010.06.03 16:29:19.
