data_PCOD9480245
_publ_section_title
;
Structure prediction by ZEFSAII (Michael W. Deem and Ramdas Pophale) SiO2 
 PCOD9480245
Probable space group: C M C A
;
_chemical_formula_sum "Si O2"
_cell_formula_units_Z 48
_cell_length_a 15.683488
_cell_length_b 26.352638
_cell_length_c 4.975062
_cell_angle_alpha 90.000000
_cell_angle_beta 90.000000
_cell_angle_gamma 90.000000
_cell_volume 2056.199502
_symmetry_space_group_name_H-M "C M C A"
_symmetry_group_IT_number 64
_symmetry_cell_setting 'orthorhombic'
loop_
_space_group_symop_operation_xyz
x,y,z
-x,1/2-y,1/2+z
x,-y,-z
-x,1/2+y,1/2-z
-x,-y,-z
x,1/2+y,1/2-z
-x,y,z
x,1/2-y,1/2+z
1/2+x,1/2+y,z
1/2-x,-y,1/2+z
1/2+x,1/2-y,-z
1/2-x,y,1/2-z
1/2-x,1/2-y,-z
1/2+x,y,1/2-z
1/2-x,1/2+y,z
1/2+x,-y,1/2+z
loop_
_atom_site_type_symbol
_atom_site_label
_atom_site_fract_x
_atom_site_fract_y
_atom_site_fract_z
Si Si1 0.853060 0.219552 0.265687
Si Si2 0.655807 0.049050 0.649596
Si Si3 0.903426 0.892878 0.672526
O O1 0.879813 0.264220 0.468259
O O2 0.750000 0.216261 0.250000
O O3 0.887588 0.166411 0.372790
O O4 0.750000 0.034937 0.750000
O O5 0.658266 0.090459 0.414131
O O6 0.616875 0.000000 0.500000
O O7 0.610563 0.073099 0.908164
O O8 0.000000 0.900367 0.769107
#
# Coordination Sequence:
#
# PCOD9480245 Si02
#       3
#    16  16  16
#     4  10  21  39  64  93 128 173 222 268 316 381
#     4  12  25  45  70  95 128 174 227 273 321 391
#     4  12  26  42  66 101 138 173 213 273 339 392
#
# _framework density 23.344038999999999
#
# number of rings (size 3 to 8) (size 9 to 14) (size 15 to 20)
#    0.000    0.667    0.000    9.000    0.000    8.000 
#    0.000    0.000    0.000    0.000    0.000    0.000 
#    0.000    0.000    0.000    0.000    0.000    0.000 
#
# Total GULP energy -134301.944425 kJ/mol
# GULP energy per Si atom -5595.914351 kJ/mol
# Density = 2.329091 g / cm^3
# Si number density = 23.344039 Si / 1000 Ang^3
#
#
#
# Elastic Constant Matrix: (Units=GPa)
#
#
# Indices 1 2 3 4 5 6 
#
# 1 50.9372 12.4436 22.9798 0.0000 0.0000 0.0000
# 2 12.4436 98.8326 28.7887 0.0000 0.0000 0.0000
# 3 22.9798 28.7887 139.6018 0.0000 0.0000 0.0000
# 4 0.0000 0.0000 0.0000 44.3824 0.0000 0.0000
# 5 0.0000 0.0000 0.0000 0.0000 18.7299 0.0000
# 6 0.0000 0.0000 0.0000 0.0000 0.0000 -109.2736
#
#
#
# Elastic Compliance Matrix: (Units=1/GPa)
#
#
# Indices 1 2 3 4 5 6 
#
# 1 0.021498 -0.001783 -0.003171 0.000000 0.000000 0.000000
# 2 -0.001783 0.010913 -0.001957 0.000000 0.000000 0.000000
# 3 -0.003171 -0.001957 0.008089 0.000000 0.000000 0.000000
# 4 0.000000 0.000000 0.000000 0.022531 0.000000 0.000000
# 5 0.000000 0.000000 0.000000 0.000000 0.053390 0.000000
# 6 0.000000 0.000000 0.000000 0.000000 0.000000 -0.009151
#
#
# Mechanical properties :
#
#
# Convention : Reuss Voigt Hill
#
# Bulk Modulus (GPa) = 37.48473 46.42175 41.95324
# Shear Modulus (GPa) = 38.46602 5.77837 22.12219
#
# Velocity S-wave (km/s) = 4.06370 1.57502 3.08175
# Velocity P-wave (km/s) = 6.17338 4.82044 5.53838
#
# Compressibility (1/GPa) = 0.02667753
#
# Stress axis : x y z
#
# Youngs Moduli (GPa) = 46.51548 91.63691 123.62802
#
# Poissons Ratio (x) = 0.16339 0.39204
# Poissons Ratio (y) = 0.08294 0.24193
# Poissons Ratio (z) = 0.14751 0.17932
#
# Static dielectric constant tensor:
#      x y z
#    x 1.874980 0.000000 0.000000 
#    y 0.000000 1.884060 0.000000 
#    z 0.000000 0.000000 1.837420 
# 
# From -- ./inp_files/721.got.cif
#   From: 2010.05.17/outbox.cif.g08.bks.cpg/sg64_1_cif.got.tgz:721.got - 2010.06.03 16:29:19.
