data_PCOD9480863
_publ_section_title
;
Structure prediction by ZEFSAII (Michael W. Deem and Ramdas Pophale) SiO2 
 PCOD9480863
Probable space group: C M C A
;
_chemical_formula_sum "Si O2"
_cell_formula_units_Z 64
_cell_length_a 16.342250
_cell_length_b 11.877799
_cell_length_c 14.687564
_cell_angle_alpha 90.000000
_cell_angle_beta 90.000000
_cell_angle_gamma 90.000000
_cell_volume 2851.002471
_symmetry_space_group_name_H-M "C M C A"
_symmetry_group_IT_number 64
_symmetry_cell_setting 'orthorhombic'
loop_
_space_group_symop_operation_xyz
x,y,z
-x,1/2-y,1/2+z
x,-y,-z
-x,1/2+y,1/2-z
-x,-y,-z
x,1/2+y,1/2-z
-x,y,z
x,1/2-y,1/2+z
1/2+x,1/2+y,z
1/2-x,-y,1/2+z
1/2+x,1/2-y,-z
1/2-x,y,1/2-z
1/2-x,1/2-y,-z
1/2+x,y,1/2-z
1/2-x,1/2+y,z
1/2+x,-y,1/2+z
loop_
_atom_site_type_symbol
_atom_site_label
_atom_site_fract_x
_atom_site_fract_y
_atom_site_fract_z
Si Si1 0.701509 0.538129 0.158715
Si Si2 0.845931 0.384170 0.972244
Si Si3 0.592951 0.718817 0.106774
Si Si4 0.910367 0.659125 0.592769
O O1 0.750000 0.517972 0.250000
O O2 0.762526 0.580468 0.078191
O O3 0.637163 0.639057 0.177249
O O4 0.655548 0.423904 0.132882
O O5 0.889149 0.292410 0.907349
O O6 0.889617 0.500000 0.000000
O O7 0.847134 0.316572 0.068684
O O8 0.500000 0.756229 0.127829
O O9 0.586230 0.640194 0.016391
O O10 0.000000 0.638968 0.632423
#
# Coordination Sequence:
#
# PCOD9480863 Si02
#       4
#    16  16  16  16
#     4  12  24  37  63  99 139 174 221 275 344 401
#     4  10  22  40  68  99 130 169 231 281 322 380
#     4   9  20  41  68  91 126 176 229 273 326 395
#     4   9  21  42  69  94 126 172 225 273 328 394
#
# _framework density 22.448243999999999
#
# number of rings (size 3 to 8) (size 9 to 14) (size 15 to 20)
#    1.500    0.500    0.000    3.750    3.500    5.000 
#    0.000    5.000    0.000    0.000    0.000    0.000 
#    0.000    0.000    0.000    0.000    0.000    0.000 
#
# Total GULP energy -178195.724621 kJ/mol
# GULP energy per Si atom -5568.616394 kJ/mol
# Density = 2.239715 g / cm^3
# Si number density = 22.448244 Si / 1000 Ang^3
#
#
#
# Elastic Constant Matrix: (Units=GPa)
#
#
# Indices 1 2 3 4 5 6 
#
# 1 148.4281 57.7780 40.9737 0.0000 0.0000 0.0000
# 2 57.7780 127.9698 25.7891 0.0000 0.0000 0.0000
# 3 40.9737 25.7891 31.8061 0.0000 0.0000 0.0000
# 4 0.0000 0.0000 0.0000 -3.4642 0.0000 0.0000
# 5 0.0000 0.0000 0.0000 0.0000 20.9837 0.0000
# 6 0.0000 0.0000 0.0000 0.0000 0.0000 1.8567
#
#
#
# Elastic Compliance Matrix: (Units=1/GPa)
#
#
# Indices 1 2 3 4 5 6 
#
# 1 0.011110 -0.002548 -0.012246 0.000000 0.000000 0.000000
# 2 -0.002548 0.009925 -0.004765 0.000000 0.000000 0.000000
# 3 -0.012246 -0.004765 0.051079 0.000000 0.000000 0.000000
# 4 0.000000 0.000000 0.000000 -0.288664 0.000000 0.000000
# 5 0.000000 0.000000 0.000000 0.000000 0.047656 0.000000
# 6 0.000000 0.000000 0.000000 0.000000 0.000000 0.538594
#
#
# Mechanical properties :
#
#
# Convention : Reuss Voigt Hill
#
# Bulk Modulus (GPa) = 30.30615 61.92061 46.11338
# Shear Modulus (GPa) = 11.90997 16.11945 14.01471
#
# Velocity S-wave (km/s) = 2.30587 2.68259 2.50133
# Velocity P-wave (km/s) = 4.54083 6.10235 5.37856
#
# Compressibility (1/GPa) = 0.03299660
#
# Stress axis : x y z
#
# Youngs Moduli (GPa) = 90.01215 100.75504 19.57740
#
# Poissons Ratio (x) = 0.25674 0.23974
# Poissons Ratio (y) = 0.22936 0.09328
# Poissons Ratio (z) = 1.10226 0.48008
#
# Static dielectric constant tensor:
#      x y z
#    x 1.870540 0.000000 0.000000 
#    y 0.000000 1.868420 0.000000 
#    z 0.000000 0.000000 1.869020 
# 
# From -- ./inp_files/24856.got.cif
#   From: 2010.05.17/outbox.cif.g08.bks.cpg/sg64_13_cif.got.tgz:24856.got - 2010.06.03 16:29:19.
