data_PCOD9480432
_publ_section_title
;
Structure prediction by ZEFSAII (Michael W. Deem and Ramdas Pophale) SiO2 
 PCOD9480432
Probable space group: C M C A
;
_chemical_formula_sum "Si O2"
_cell_formula_units_Z 104
_cell_length_a 9.623389
_cell_length_b 19.221069
_cell_length_c 26.919164
_cell_angle_alpha 90.000000
_cell_angle_beta 90.000000
_cell_angle_gamma 90.000000
_cell_volume 4979.286865
_symmetry_space_group_name_H-M "C M C A"
_symmetry_group_IT_number 64
_symmetry_cell_setting 'orthorhombic'
loop_
_space_group_symop_operation_xyz
x,y,z
-x,1/2-y,1/2+z
x,-y,-z
-x,1/2+y,1/2-z
-x,-y,-z
x,1/2+y,1/2-z
-x,y,z
x,1/2-y,1/2+z
1/2+x,1/2+y,z
1/2-x,-y,1/2+z
1/2+x,1/2-y,-z
1/2-x,y,1/2-z
1/2-x,1/2-y,-z
1/2+x,y,1/2-z
1/2-x,1/2+y,z
1/2+x,-y,1/2+z
loop_
_atom_site_type_symbol
_atom_site_label
_atom_site_fract_x
_atom_site_fract_y
_atom_site_fract_z
Si Si1 0.000000 0.769530 0.739177
Si Si2 0.665125 0.902965 0.299202
Si Si3 0.162529 0.948302 0.844466
Si Si4 0.659114 0.326319 0.381883
Si Si5 0.735271 0.203468 0.323281
Si Si6 0.662715 0.441576 0.958069
Si Si7 0.663162 0.820589 0.003184
O O1 0.121074 0.767497 0.696562
O O2 0.119751 0.779935 0.782252
O O3 0.500000 0.887859 0.293094
O O4 0.750000 0.882701 0.250000
O O5 0.734648 0.866140 0.346310
O O6 0.683695 0.985309 0.309579
O O7 0.245943 0.879395 0.830453
O O8 0.186804 0.968085 0.901966
O O9 0.000000 0.928572 0.840097
O O10 0.500000 0.341551 0.366371
O O11 0.688196 0.244470 0.372616
O O12 0.673656 0.344582 0.439327
O O13 0.500000 0.419635 0.961081
O O14 0.683722 0.500000 0.000000
O O15 0.764973 0.378330 0.969255
O O16 0.500000 0.810393 0.991691
O O17 0.750000 0.750000 0.000000
#
# Coordination Sequence:
#
# PCOD9480432 Si02
#       7
#     8  16  16  16  16  16  16
#     4  10  24  36  62  88 118 158 204 250 306 350
#     4  11  26  41  63  91 130 169 208 253 307 369
#     4  10  21  41  64  91 123 163 205 253 308 367
#     4  11  24  43  64  90 125 166 206 255 311 373
#     4  11  22  40  62  89 118 157 206 252 300 362
#     4  10  21  41  68  92 123 166 211 257 316 379
#     4  11  24  42  66  95 128 163 207 265 324 376
#
# _framework density 20.886524000000001
#
# number of rings (size 3 to 8) (size 9 to 14) (size 15 to 20)
#    0.000    1.385    1.538    2.769    5.385    5.231 
#    5.538    0.000    0.000    0.000    0.000    0.000 
#    0.000    0.000    0.000    0.000    0.000    0.000 
#
# Total GULP energy -289706.965900 kJ/mol
# GULP energy per Si atom -5571.287806 kJ/mol
# Density = 2.083899 g / cm^3
# Si number density = 20.886524 Si / 1000 Ang^3
#
#
#
# Elastic Constant Matrix: (Units=GPa)
#
#
# Indices 1 2 3 4 5 6 
#
# 1 151.7978 36.2354 36.6354 0.0000 0.0000 0.0000
# 2 36.2354 64.5855 1.5951 0.0000 0.0000 0.0000
# 3 36.6354 1.5951 64.0517 0.0000 0.0000 0.0000
# 4 0.0000 0.0000 0.0000 -25.4969 0.0000 0.0000
# 5 0.0000 0.0000 0.0000 0.0000 26.4774 0.0000
# 6 0.0000 0.0000 0.0000 0.0000 0.0000 21.6646
#
#
#
# Elastic Compliance Matrix: (Units=1/GPa)
#
#
# Indices 1 2 3 4 5 6 
#
# 1 0.008968 -0.004908 -0.005007 0.000000 0.000000 0.000000
# 2 -0.004908 0.018179 0.002354 0.000000 0.000000 0.000000
# 3 -0.005007 0.002354 0.018418 0.000000 0.000000 0.000000
# 4 0.000000 0.000000 0.000000 -0.039220 0.000000 0.000000
# 5 0.000000 0.000000 0.000000 0.000000 0.037768 0.000000
# 6 0.000000 0.000000 0.000000 0.000000 0.000000 0.046158
#
#
# Mechanical properties :
#
#
# Convention : Reuss Voigt Hill
#
# Bulk Modulus (GPa) = 32.84802 47.70741 40.27772
# Shear Modulus (GPa) = 43.27584 18.26028 30.76806
#
# Velocity S-wave (km/s) = 4.55681 2.96000 3.84227
# Velocity P-wave (km/s) = 6.59144 5.87988 6.24580
#
# Compressibility (1/GPa) = 0.03044323
#
# Stress axis : x y z
#
# Youngs Moduli (GPa) = 111.51282 55.00982 54.29602
#
# Poissons Ratio (x) = 0.26996 0.27186
# Poissons Ratio (y) = 0.54726 -0.12783
# Poissons Ratio (z) = 0.55834 -0.12951
#
# Static dielectric constant tensor:
#      x y z
#    x 1.697200 0.000000 0.000000 
#    y 0.000000 1.791210 0.000000 
#    z 0.000000 0.000000 1.715890 
# 
# From -- ./inp_files/48263.got.cif
#   From: 2010.05.17/outbox.cif.g08.bks.cpg/sg64_25_cif.got.tgz:48263.got - 2010.06.03 16:29:19.
