data_PCOD9480129
_publ_section_title
;
Structure prediction by ZEFSAII (Michael W. Deem and Ramdas Pophale) SiO2 
 PCOD9480129
Probable space group: C M C A
;
_chemical_formula_sum "Si O2"
_cell_formula_units_Z 88
_cell_length_a 19.812709
_cell_length_b 10.833048
_cell_length_c 16.694442
_cell_angle_alpha 90.000000
_cell_angle_beta 90.000000
_cell_angle_gamma 90.000000
_cell_volume 3583.161936
_symmetry_space_group_name_H-M "C M C A"
_symmetry_group_IT_number 64
_symmetry_cell_setting 'orthorhombic'
loop_
_space_group_symop_operation_xyz
x,y,z
-x,1/2-y,1/2+z
x,-y,-z
-x,1/2+y,1/2-z
-x,-y,-z
x,1/2+y,1/2-z
-x,y,z
x,1/2-y,1/2+z
1/2+x,1/2+y,z
1/2-x,-y,1/2+z
1/2+x,1/2-y,-z
1/2-x,y,1/2-z
1/2-x,1/2-y,-z
1/2+x,y,1/2-z
1/2-x,1/2+y,z
1/2+x,-y,1/2+z
loop_
_atom_site_type_symbol
_atom_site_label
_atom_site_fract_x
_atom_site_fract_y
_atom_site_fract_z
Si Si1 0.642976 0.312883 0.192983
Si Si2 0.421119 0.317338 0.926391
Si Si3 0.750000 0.870215 0.750000
Si Si4 0.577734 0.927859 0.171051
Si Si5 0.204989 0.501393 0.409544
Si Si6 0.076760 0.847014 0.573840
O O1 0.685875 0.218473 0.244359
O O2 0.619656 0.426556 0.247647
O O3 0.689737 0.364576 0.122275
O O4 0.582256 0.240025 0.151703
O O5 0.500000 0.358579 0.938106
O O6 0.422287 0.213771 0.857381
O O7 0.367190 0.425822 0.915197
O O8 0.396160 0.234793 0.001661
O O9 0.754131 0.940769 0.834908
O O10 0.500000 0.964223 0.186357
O O11 0.604310 0.021150 0.103073
O O12 0.233579 0.500000 0.500000
O O13 0.000000 0.870755 0.548710
#
# Coordination Sequence:
#
# PCOD9480129 Si02
#       6
#    16  16   8  16  16  16
#     4  12  24  43  68  97 139 185 238 297 351 417
#     4  10  21  42  71 105 143 181 226 286 357 435
#     4  12  28  50  72 100 138 188 252 300 352 424
#     4  10  21  38  66 102 142 184 229 278 347 422
#     4  12  26  49  74 105 141 185 241 300 363 427
#     4  10  21  39  66 103 142 180 224 283 353 430
#
# _framework density 24.559313
#
# number of rings (size 3 to 8) (size 9 to 14) (size 15 to 20)
#    0.000    1.091    3.636    2.727    0.000    4.727 
#    0.000    0.000    0.000    0.000    0.000    0.000 
#    0.000    0.727    0.000    0.000    0.000    0.000 
#
# Total GULP energy -245873.584353 kJ/mol
# GULP energy per Si atom -5588.036008 kJ/mol
# Density = 2.450342 g / cm^3
# Si number density = 24.559313 Si / 1000 Ang^3
#
#
#
# Elastic Constant Matrix: (Units=GPa)
#
#
# Indices 1 2 3 4 5 6 
#
# 1 64.4242 12.4076 34.3565 0.0000 0.0000 0.0000
# 2 12.4076 59.2723 16.6319 0.0000 0.0000 0.0000
# 3 34.3565 16.6319 136.6559 0.0000 0.0000 0.0000
# 4 0.0000 0.0000 0.0000 56.3795 0.0000 0.0000
# 5 0.0000 0.0000 0.0000 0.0000 35.0042 0.0000
# 6 0.0000 0.0000 0.0000 0.0000 0.0000 17.6227
#
#
#
# Elastic Compliance Matrix: (Units=1/GPa)
#
#
# Indices 1 2 3 4 5 6 
#
# 1 0.018313 -0.002632 -0.004284 0.000000 0.000000 0.000000
# 2 -0.002632 0.017846 -0.001510 0.000000 0.000000 0.000000
# 3 -0.004284 -0.001510 0.008578 0.000000 0.000000 0.000000
# 4 0.000000 0.000000 0.000000 0.017737 0.000000 0.000000
# 5 0.000000 0.000000 0.000000 0.000000 0.028568 0.000000
# 6 0.000000 0.000000 0.000000 0.000000 0.000000 0.056745
#
#
# Mechanical properties :
#
#
# Convention : Reuss Voigt Hill
#
# Bulk Modulus (GPa) = 35.85991 43.01605 39.43798
# Shear Modulus (GPa) = 28.74639 34.93169 31.83904
#
# Velocity S-wave (km/s) = 3.42495 3.77548 3.60448
# Velocity P-wave (km/s) = 5.50213 6.04640 5.78067
#
# Compressibility (1/GPa) = 0.02788630
#
# Stress axis : x y z
#
# Youngs Moduli (GPa) = 54.60463 56.03506 116.57074
#
# Poissons Ratio (x) = 0.14746 0.49938
# Poissons Ratio (y) = 0.14369 0.17607
# Poissons Ratio (z) = 0.23392 0.08463
#
# Static dielectric constant tensor:
#      x y z
#    x 1.981860 0.000000 0.000000 
#    y 0.000000 1.937910 0.000000 
#    z 0.000000 0.000000 2.025210 
# 
# From -- ./inp_files/34114.got.cif
#   From: 2010.05.17/outbox.cif.g08.bks.cpg/sg64_18_cif.got.tgz:34114.got - 2010.06.03 16:29:19.
