data_PCOD9480156
_publ_section_title
;
Structure prediction by ZEFSAII (Michael W. Deem and Ramdas Pophale) SiO2 
 PCOD9480156
Probable space group: C M C A
;
_chemical_formula_sum "Si O2"
_cell_formula_units_Z 100
_cell_length_a 7.859623
_cell_length_b 27.512976
_cell_length_c 22.292683
_cell_angle_alpha 90.000000
_cell_angle_beta 90.000000
_cell_angle_gamma 90.000000
_cell_volume 4820.605863
_symmetry_space_group_name_H-M "C M C A"
_symmetry_group_IT_number 64
_symmetry_cell_setting 'orthorhombic'
loop_
_space_group_symop_operation_xyz
x,y,z
-x,1/2-y,1/2+z
x,-y,-z
-x,1/2+y,1/2-z
-x,-y,-z
x,1/2+y,1/2-z
-x,y,z
x,1/2-y,1/2+z
1/2+x,1/2+y,z
1/2-x,-y,1/2+z
1/2+x,1/2-y,-z
1/2-x,y,1/2-z
1/2-x,1/2-y,-z
1/2+x,y,1/2-z
1/2-x,1/2+y,z
1/2+x,-y,1/2+z
loop_
_atom_site_type_symbol
_atom_site_label
_atom_site_fract_x
_atom_site_fract_y
_atom_site_fract_z
Si Si1 0.794949 0.281355 0.940346
Si Si2 0.316017 0.521564 0.425669
Si Si3 0.795181 0.724533 0.680894
Si Si4 0.197621 0.616273 0.487398
Si Si5 0.702002 0.021557 0.681834
Si Si6 0.500000 0.000000 0.500000
Si Si7 0.206950 0.876632 0.126020
O O1 0.740663 0.257555 0.876560
O O2 0.712467 0.333815 0.951468
O O3 0.000000 0.285981 0.939160
O O4 0.750000 0.250000 0.000000
O O5 0.500000 0.499413 0.437723
O O6 0.301505 0.574221 0.455156
O O7 0.287417 0.521723 0.355082
O O8 0.153606 0.492263 0.450249
O O9 0.750000 0.737308 0.750000
O O10 0.733814 0.670088 0.663695
O O11 0.000000 0.724448 0.678568
O O12 0.252356 0.626299 0.555694
O O13 0.000000 0.597376 0.487845
O O14 0.500000 0.019099 0.676652
O O15 0.750000 0.020115 0.750000
O O16 0.764400 0.072763 0.654082
O O17 0.000000 0.875720 0.127440
#
# Coordination Sequence:
#
# PCOD9480156 Si02
#       7
#    16  16  16  16  16   4  16
#     4  11  22  39  62  93 126 167 216 269 325 390
#     4  12  25  42  65  97 131 174 221 273 331 393
#     4  10  21  39  59  88 127 166 210 261 320 388
#     4  11  21  40  67  93 130 167 214 275 333 386
#     4  11  22  40  64  91 132 177 222 268 326 397
#     4  12  22  44  64  98 136 164 214 278 332 386
#     4   9  19  35  60  89 126 168 204 259 326 388
#
# _framework density 20.744278999999999
#
# number of rings (size 3 to 8) (size 9 to 14) (size 15 to 20)
#    0.000    1.280    3.200    3.120    2.240    1.280 
#    0.000    4.000    0.000    1.920    0.000    0.000 
#    0.000    0.000    0.000    0.000    0.000    0.000 
#
# Total GULP energy -278870.298465 kJ/mol
# GULP energy per Si atom -5577.405969 kJ/mol
# Density = 2.069706 g / cm^3
# Si number density = 20.744279 Si / 1000 Ang^3
#
#
#
# Elastic Constant Matrix: (Units=GPa)
#
#
# Indices 1 2 3 4 5 6 
#
# 1 104.3362 18.4410 25.8663 0.0000 0.0000 0.0000
# 2 18.4410 59.9004 53.2878 0.0000 0.0000 0.0000
# 3 25.8663 53.2878 194.3727 0.0000 0.0000 0.0000
# 4 0.0000 0.0000 0.0000 35.7631 0.0000 0.0000
# 5 0.0000 0.0000 0.0000 0.0000 26.5271 0.0000
# 6 0.0000 0.0000 0.0000 0.0000 0.0000 23.5002
#
#
#
# Elastic Compliance Matrix: (Units=1/GPa)
#
#
# Indices 1 2 3 4 5 6 
#
# 1 0.010199 -0.002556 -0.000657 0.000000 0.000000 0.000000
# 2 -0.002556 0.022720 -0.005889 0.000000 0.000000 0.000000
# 3 -0.000657 -0.005889 0.006846 0.000000 0.000000 0.000000
# 4 0.000000 0.000000 0.000000 0.027962 0.000000 0.000000
# 5 0.000000 0.000000 0.000000 0.000000 0.037697 0.000000
# 6 0.000000 0.000000 0.000000 0.000000 0.000000 0.042553
#
#
# Mechanical properties :
#
#
# Convention : Reuss Voigt Hill
#
# Bulk Modulus (GPa) = 46.37500 61.53327 53.95413
# Shear Modulus (GPa) = 28.84062 34.55901 31.69982
#
# Velocity S-wave (km/s) = 3.73271 4.08604 3.91336
# Velocity P-wave (km/s) = 6.40168 7.21028 6.81798
#
# Compressibility (1/GPa) = 0.02156334
#
# Stress axis : x y z
#
# Youngs Moduli (GPa) = 98.04991 44.01461 146.06008
#
# Poissons Ratio (x) = 0.11249 0.09590
# Poissons Ratio (y) = 0.25059 0.86009
# Poissons Ratio (z) = 0.06438 0.25918
#
# Static dielectric constant tensor:
#      x y z
#    x 1.772820 0.000000 0.000000 
#    y 0.000000 1.557760 0.000000 
#    z 0.000000 0.000000 1.783110 
# 
# From -- ./inp_files/37192.got.cif
#   From: 2010.05.17/outbox.cif.g08.bks.cpg/sg64_19_cif.got.tgz:37192.got - 2010.06.03 16:29:19.
