data_PCOD9480556
_publ_section_title
;
Structure prediction by ZEFSAII (Michael W. Deem and Ramdas Pophale) SiO2 
 PCOD9480556
Probable space group: C M C A
;
_chemical_formula_sum "Si O2"
_cell_formula_units_Z 48
_cell_length_a 5.706772
_cell_length_b 13.807381
_cell_length_c 25.008568
_cell_angle_alpha 90.000000
_cell_angle_beta 90.000000
_cell_angle_gamma 90.000000
_cell_volume 1970.564503
_symmetry_space_group_name_H-M "C M C A"
_symmetry_group_IT_number 64
_symmetry_cell_setting 'orthorhombic'
loop_
_space_group_symop_operation_xyz
x,y,z
-x,1/2-y,1/2+z
x,-y,-z
-x,1/2+y,1/2-z
-x,-y,-z
x,1/2+y,1/2-z
-x,y,z
x,1/2-y,1/2+z
1/2+x,1/2+y,z
1/2-x,-y,1/2+z
1/2+x,1/2-y,-z
1/2-x,y,1/2-z
1/2-x,1/2-y,-z
1/2+x,y,1/2-z
1/2-x,1/2+y,z
1/2+x,-y,1/2+z
loop_
_atom_site_type_symbol
_atom_site_label
_atom_site_fract_x
_atom_site_fract_y
_atom_site_fract_z
Si Si1 0.250493 0.366408 0.998363
Si Si2 0.000000 0.584833 0.601582
Si Si3 0.500000 0.915234 0.750263
Si Si4 0.000000 0.291943 0.858869
Si Si5 0.000000 0.865720 0.867044
O O1 0.500000 0.397674 0.972690
O O2 0.285286 0.401225 0.059714
O O3 0.000000 0.400189 0.978209
O O4 0.250000 0.250000 0.000000
O O5 0.000000 0.675961 0.641118
O O6 0.000000 0.482013 0.629181
O O7 0.250000 0.969835 0.750000
O O8 0.500000 0.848798 0.803047
O O9 0.500000 0.848630 0.697371
O O10 0.750801 0.322657 0.885962
#
# Coordination Sequence:
#
# PCOD9480556 Si02
#       5
#    16   8   8   8   8
#     4   8  16  30  52  80 105 143 183 225 278 326
#     4  10  22  34  64  80 110 154 192 216 290 336
#     4   8  16  36  52  70 112 142 168 230 282 306
#     4  10  22  37  56  84 114 143 187 239 273 329
#     4  10  22  37  56  84 114 143 187 239 273 329
#
# _framework density 24.358504
#
# number of rings (size 3 to 8) (size 9 to 14) (size 15 to 20)
#    1.000    2.000    0.000    0.000    4.667    0.000 
#    0.000   15.000    0.000    6.000    0.000    0.000 
#    0.000    0.000    0.000    0.000    0.000    0.000 
#
# Total GULP energy -133810.632586 kJ/mol
# GULP energy per Si atom -5575.443024 kJ/mol
# Density = 2.430306 g / cm^3
# Si number density = 24.358504 Si / 1000 Ang^3
#
#
#
# Elastic Constant Matrix: (Units=GPa)
#
#
# Indices 1 2 3 4 5 6 
#
# 1 264.1989 31.5059 31.0479 0.0000 0.0000 0.0000
# 2 31.5059 152.0197 16.7154 0.0000 0.0000 0.0000
# 3 31.0479 16.7154 70.8525 0.0000 0.0000 0.0000
# 4 0.0000 0.0000 0.0000 7.7030 0.0000 0.0000
# 5 0.0000 0.0000 0.0000 0.0000 37.3914 0.0000
# 6 0.0000 0.0000 0.0000 0.0000 0.0000 19.2314
#
#
#
# Elastic Compliance Matrix: (Units=1/GPa)
#
#
# Indices 1 2 3 4 5 6 
#
# 1 0.004054 -0.000662 -0.001620 0.000000 0.000000 0.000000
# 2 -0.000662 0.006861 -0.001329 0.000000 0.000000 0.000000
# 3 -0.001620 -0.001329 0.015137 0.000000 0.000000 0.000000
# 4 0.000000 0.000000 0.000000 0.129820 0.000000 0.000000
# 5 0.000000 0.000000 0.000000 0.000000 0.026744 0.000000
# 6 0.000000 0.000000 0.000000 0.000000 0.000000 0.051998
#
#
# Mechanical properties :
#
#
# Convention : Reuss Voigt Hill
#
# Bulk Modulus (GPa) = 53.10429 71.73438 62.41934
# Shear Modulus (GPa) = 20.15200 40.05196 30.10198
#
# Velocity S-wave (km/s) = 2.87942 4.05936 3.51919
# Velocity P-wave (km/s) = 5.73613 7.17527 6.49568
#
# Compressibility (1/GPa) = 0.01883087
#
# Stress axis : x y z
#
# Youngs Moduli (GPa) = 246.64472 145.74290 66.06173
#
# Poissons Ratio (x) = 0.09650 0.10705
# Poissons Ratio (y) = 0.16330 0.08777
# Poissons Ratio (z) = 0.39968 0.19363
#
# Static dielectric constant tensor:
#      x y z
#    x 2.045480 0.000000 0.000000 
#    y 0.000000 1.844280 0.000000 
#    z 0.000000 0.000000 2.070790 
# 
# From -- ./inp_files/51367.got.cif
#   From: 2010.05.17/outbox.cif.g08.bks.cpg/sg64_26_cif.got.tgz:51367.got - 2010.06.03 16:29:19.
