data_PCOD9480851
_publ_section_title
;
Structure prediction by ZEFSAII (Michael W. Deem and Ramdas Pophale) SiO2 
 PCOD9480851
Probable space group: C M C A
;
_chemical_formula_sum "Si O2"
_cell_formula_units_Z 88
_cell_length_a 21.016154
_cell_length_b 22.113088
_cell_length_c 8.549700
_cell_angle_alpha 90.000000
_cell_angle_beta 90.000000
_cell_angle_gamma 90.000000
_cell_volume 3973.319718
_symmetry_space_group_name_H-M "C M C A"
_symmetry_group_IT_number 64
_symmetry_cell_setting 'orthorhombic'
loop_
_space_group_symop_operation_xyz
x,y,z
-x,1/2-y,1/2+z
x,-y,-z
-x,1/2+y,1/2-z
-x,-y,-z
x,1/2+y,1/2-z
-x,y,z
x,1/2-y,1/2+z
1/2+x,1/2+y,z
1/2-x,-y,1/2+z
1/2+x,1/2-y,-z
1/2-x,y,1/2-z
1/2-x,1/2-y,-z
1/2+x,y,1/2-z
1/2-x,1/2+y,z
1/2+x,-y,1/2+z
loop_
_atom_site_type_symbol
_atom_site_label
_atom_site_fract_x
_atom_site_fract_y
_atom_site_fract_z
Si Si1 0.500000 0.284140 0.915211
Si Si2 0.071586 0.561053 0.104356
Si Si3 0.217121 0.805692 0.586011
Si Si4 0.399359 0.773008 0.327713
Si Si5 0.156898 0.881583 0.359128
Si Si6 0.680692 0.508434 0.187255
O O1 0.556282 0.301828 0.040612
O O2 0.445310 0.257784 0.796716
O O3 0.123708 0.550047 0.240607
O O4 0.000000 0.576037 0.161439
O O5 0.068369 0.500000 0.000000
O O6 0.097493 0.608117 0.976911
O O7 0.250000 0.818344 0.750000
O O8 0.250000 0.750000 0.500000
O O9 0.146528 0.779983 0.612833
O O10 0.214727 0.863059 0.472242
O O11 0.357059 0.825330 0.251257
O O12 0.169329 0.942818 0.266656
O O13 0.750000 0.528924 0.250000
O O14 0.679024 0.500000 0.000000
#
# Coordination Sequence:
#
# PCOD9480851 Si02
#       6
#     8  16  16  16  16  16
#     4  10  22  40  66  88 144 181 241 281 323 400
#     4   9  21  44  71 101 136 172 227 291 357 418
#     4  12  24  42  64  99 148 181 232 286 339 417
#     4  11  22  42  63  98 137 189 230 284 332 407
#     4  11  24  41  69  98 135 189 228 282 363 407
#     4  11  25  48  73 100 136 176 235 302 357 425
#
# _framework density 22.147728000000001
#
# number of rings (size 3 to 8) (size 9 to 14) (size 15 to 20)
#    0.000    1.273    3.636    1.636    5.091    2.545 
#    3.273    0.000    0.000    0.000    0.000    0.000 
#    0.000    0.000    0.000    0.000    0.000    0.000 
#
# Total GULP energy -244992.228770 kJ/mol
# GULP energy per Si atom -5568.005199 kJ/mol
# Density = 2.209732 g / cm^3
# Si number density = 22.147728 Si / 1000 Ang^3
#
#
#
# Elastic Constant Matrix: (Units=GPa)
#
#
# Indices 1 2 3 4 5 6 
#
# 1 126.6184 13.3203 44.7296 0.0000 0.0000 0.0000
# 2 13.3203 65.4719 33.4798 0.0000 0.0000 0.0000
# 3 44.7296 33.4798 103.5750 0.0000 0.0000 0.0000
# 4 0.0000 0.0000 0.0000 37.2267 0.0000 0.0000
# 5 0.0000 0.0000 0.0000 0.0000 92.3946 0.0000
# 6 0.0000 0.0000 0.0000 0.0000 0.0000 11.1648
#
#
#
# Elastic Compliance Matrix: (Units=1/GPa)
#
#
# Indices 1 2 3 4 5 6 
#
# 1 0.009322 0.000194 -0.004088 0.000000 0.000000 0.000000
# 2 0.000194 0.018302 -0.006000 0.000000 0.000000 0.000000
# 3 -0.004088 -0.006000 0.013360 0.000000 0.000000 0.000000
# 4 0.000000 0.000000 0.000000 0.026862 0.000000 0.000000
# 5 0.000000 0.000000 0.000000 0.000000 0.010823 0.000000
# 6 0.000000 0.000000 0.000000 0.000000 0.000000 0.089567
#
#
# Mechanical properties :
#
#
# Convention : Reuss Voigt Hill
#
# Bulk Modulus (GPa) = 47.17978 53.19162 50.18570
# Shear Modulus (GPa) = 25.62924 41.76628 33.69776
#
# Velocity S-wave (km/s) = 3.40545 4.34730 3.90487
# Velocity P-wave (km/s) = 6.06723 7.01908 6.56044
#
# Compressibility (1/GPa) = 0.02119552
#
# Stress axis : x y z
#
# Youngs Moduli (GPa) = 107.27787 54.63776 74.85114
#
# Poissons Ratio (x) = -0.01061 0.30602
# Poissons Ratio (y) = -0.02083 0.44910
# Poissons Ratio (z) = 0.43859 0.32782
#
# Static dielectric constant tensor:
#      x y z
#    x 1.825900 0.000000 0.000000 
#    y 0.000000 1.806450 0.000000 
#    z 0.000000 0.000000 1.763080 
# 
# From -- ./inp_files/9331.got.cif
#   From: 2010.05.17/outbox.cif.g08.bks.cpg/sg64_5_cif.got.tgz:9331.got - 2010.06.03 16:29:19.
