data_PCOD9480322
_publ_section_title
;
Structure prediction by ZEFSAII (Michael W. Deem and Ramdas Pophale) SiO2 
 PCOD9480322
Probable space group: C M C A
;
_chemical_formula_sum "Si O2"
_cell_formula_units_Z 88
_cell_length_a 15.601004
_cell_length_b 8.641332
_cell_length_c 30.009613
_cell_angle_alpha 90.000000
_cell_angle_beta 90.000000
_cell_angle_gamma 90.000000
_cell_volume 4045.699615
_symmetry_space_group_name_H-M "C M C A"
_symmetry_group_IT_number 64
_symmetry_cell_setting 'orthorhombic'
loop_
_space_group_symop_operation_xyz
x,y,z
-x,1/2-y,1/2+z
x,-y,-z
-x,1/2+y,1/2-z
-x,-y,-z
x,1/2+y,1/2-z
-x,y,z
x,1/2-y,1/2+z
1/2+x,1/2+y,z
1/2-x,-y,1/2+z
1/2+x,1/2-y,-z
1/2-x,y,1/2-z
1/2-x,1/2-y,-z
1/2+x,y,1/2-z
1/2-x,1/2+y,z
1/2+x,-y,1/2+z
loop_
_atom_site_type_symbol
_atom_site_label
_atom_site_fract_x
_atom_site_fract_y
_atom_site_fract_z
Si Si1 0.760031 0.955311 0.414391
Si Si2 0.281492 0.786103 0.851905
Si Si3 0.655447 0.539342 0.268361
Si Si4 0.144348 0.000000 0.000000
Si Si5 0.904644 0.337220 0.027655
Si Si6 0.905276 0.772448 0.813528
O O1 0.706548 0.879474 0.374100
O O2 0.700937 0.998807 0.455481
O O3 0.830748 0.842503 0.435505
O O4 0.807522 0.096219 0.390719
O O5 0.326801 0.829930 0.805980
O O6 0.179106 0.795894 0.843252
O O7 0.750000 0.491787 0.250000
O O8 0.609707 0.396576 0.291864
O O9 0.603801 0.607695 0.227233
O O10 0.101083 0.828035 0.998339
O O11 0.000000 0.345727 0.046902
O O12 0.892752 0.500000 0.000000
O O13 0.000000 0.783511 0.833890
#
# Coordination Sequence:
#
# PCOD9480322 Si02
#       6
#    16  16  16   8  16  16
#     4  12  22  42  66  93 126 170 224 265 318 394
#     4  11  23  39  65  93 123 170 214 263 312 386
#     4  10  21  40  63  87 122 165 208 252 312 389
#     4  12  23  44  71  94 130 180 228 270 331 404
#     4  11  24  42  65  96 130 167 217 276 335 387
#     4  11  23  40  63  94 128 163 205 262 324 381
#
# _framework density 21.75149
#
# number of rings (size 3 to 8) (size 9 to 14) (size 15 to 20)
#    0.000    0.909    4.545    4.091    2.545    0.727 
#    0.000    0.000    0.000    4.364    0.000    0.000 
#    0.000    0.000    0.000    0.000    0.000    0.000 
#
# Total GULP energy -245539.058680 kJ/mol
# GULP energy per Si atom -5580.433152 kJ/mol
# Density = 2.170198 g / cm^3
# Si number density = 21.751490 Si / 1000 Ang^3
#
#
#
# Elastic Constant Matrix: (Units=GPa)
#
#
# Indices 1 2 3 4 5 6 
#
# 1 45.5090 -1.6438 9.2884 0.0000 0.0000 0.0000
# 2 -1.6438 112.6471 16.1383 0.0000 0.0000 0.0000
# 3 9.2884 16.1383 70.5924 0.0000 0.0000 0.0000
# 4 0.0000 0.0000 0.0000 43.8404 0.0000 0.0000
# 5 0.0000 0.0000 0.0000 0.0000 -0.9643 0.0000
# 6 0.0000 0.0000 0.0000 0.0000 0.0000 -661.6381
#
#
#
# Elastic Compliance Matrix: (Units=1/GPa)
#
#
# Indices 1 2 3 4 5 6 
#
# 1 0.022647 0.000783 -0.003159 0.000000 0.000000 0.000000
# 2 0.000783 0.009205 -0.002207 0.000000 0.000000 0.000000
# 3 -0.003159 -0.002207 0.015086 0.000000 0.000000 0.000000
# 4 0.000000 0.000000 0.000000 0.022810 0.000000 0.000000
# 5 0.000000 0.000000 0.000000 0.000000 -1.036975 0.000000
# 6 0.000000 0.000000 0.000000 0.000000 0.000000 -0.001511
#
#
# Mechanical properties :
#
#
# Convention : Reuss Voigt Hill
#
# Bulk Modulus (GPa) = 26.47510 30.70159 28.58835
# Shear Modulus (GPa) = -5.27993 -110.08805 -57.68399
#
# Velocity S-wave (km/s) = -1.55970 -7.12191 -5.15530
# Velocity P-wave (km/s) = 2.99241 7.31324 4.71852
#
# Compressibility (1/GPa) = 0.03777134
#
# Stress axis : x y z
#
# Youngs Moduli (GPa) = 44.15660 108.63722 66.28618
#
# Poissons Ratio (x) = -0.08506 0.20939
# Poissons Ratio (y) = -0.03458 0.14632
# Poissons Ratio (z) = 0.13948 0.23981
#
# Static dielectric constant tensor:
#      x y z
#    x 1.796330 0.000000 0.000000 
#    y 0.000000 1.893800 0.000000 
#    z 0.000000 0.000000 1.788490 
# 
# From -- ./inp_files/53581.got.cif
#   From: 2010.05.17/outbox.cif.g08.bks.cpg/sg64_27_cif.got.tgz:53581.got - 2010.06.03 16:29:19.
