data_PCOD9480243
_publ_section_title
;
Structure prediction by ZEFSAII (Michael W. Deem and Ramdas Pophale) SiO2 
 PCOD9480243
Probable space group: C M C A
;
_chemical_formula_sum "Si O2"
_cell_formula_units_Z 80
_cell_length_a 22.373231
_cell_length_b 33.016801
_cell_length_c 5.195025
_cell_angle_alpha 90.000000
_cell_angle_beta 90.000000
_cell_angle_gamma 90.000000
_cell_volume 3837.526086
_symmetry_space_group_name_H-M "C M C A"
_symmetry_group_IT_number 64
_symmetry_cell_setting 'orthorhombic'
loop_
_space_group_symop_operation_xyz
x,y,z
-x,1/2-y,1/2+z
x,-y,-z
-x,1/2+y,1/2-z
-x,-y,-z
x,1/2+y,1/2-z
-x,y,z
x,1/2-y,1/2+z
1/2+x,1/2+y,z
1/2-x,-y,1/2+z
1/2+x,1/2-y,-z
1/2-x,y,1/2-z
1/2-x,1/2-y,-z
1/2+x,y,1/2-z
1/2-x,1/2+y,z
1/2+x,-y,1/2+z
loop_
_atom_site_type_symbol
_atom_site_label
_atom_site_fract_x
_atom_site_fract_y
_atom_site_fract_z
Si Si1 0.931689 0.866348 0.259064
Si Si2 0.291577 0.500000 0.000000
Si Si3 0.683765 0.775361 0.901972
Si Si4 0.065975 0.186705 0.241817
Si Si5 0.750000 0.149383 0.250000
Si Si6 0.814665 0.911265 0.101912
O O1 0.934090 0.849293 0.547776
O O2 0.874582 0.895772 0.239092
O O3 0.000000 0.881520 0.200287
O O4 0.920156 0.831396 0.041499
O O5 0.250000 0.496814 0.750000
O O6 0.325600 0.542582 0.984090
O O7 0.697431 0.754944 0.629084
O O8 0.613789 0.783427 0.863352
O O9 0.715150 0.819117 0.934879
O O10 0.000000 0.204784 0.231113
O O11 0.701022 0.120647 0.377857
O O12 0.750000 0.911639 0.250000
#
# Coordination Sequence:
#
# PCOD9480243 Si02
#       6
#    16   8  16  16   8  16
#     4  10  21  39  64  93 123 163 212 254 304 378
#     4  10  22  40  59 102 129 160 202 268 308 370
#     4  12  26  40  57  86 124 157 206 264 310 364
#     4  10  21  40  63  86 117 161 212 257 307 369
#     4  12  24  40  62  86 120 168 206 246 326 374
#     4  11  23  39  69  94 129 165 211 257 316 382
#
# _framework density 20.846761999999998
#
# number of rings (size 3 to 8) (size 9 to 14) (size 15 to 20)
#    0.000    1.200    3.000    3.000    2.800    0.800 
#    0.000    0.500    0.000    0.000    0.000    7.700 
#    0.000    0.000    0.000    0.000    0.000    0.000 
#
# Total GULP energy -223254.094788 kJ/mol
# GULP energy per Si atom -5581.352370 kJ/mol
# Density = 2.079931 g / cm^3
# Si number density = 20.846762 Si / 1000 Ang^3
#
#
#
# Elastic Constant Matrix: (Units=GPa)
#
#
# Indices 1 2 3 4 5 6 
#
# 1 105.1080 23.4827 -0.9522 0.0000 0.0000 0.0000
# 2 23.4827 94.3145 16.6025 0.0000 0.0000 0.0000
# 3 -0.9522 16.6025 74.8947 0.0000 0.0000 0.0000
# 4 0.0000 0.0000 0.0000 20.0310 0.0000 0.0000
# 5 0.0000 0.0000 0.0000 0.0000 30.0790 0.0000
# 6 0.0000 0.0000 0.0000 0.0000 0.0000 19.5943
#
#
#
# Elastic Compliance Matrix: (Units=1/GPa)
#
#
# Indices 1 2 3 4 5 6 
#
# 1 0.010111 -0.002643 0.000715 0.000000 0.000000 0.000000
# 2 -0.002643 0.011724 -0.002633 0.000000 0.000000 0.000000
# 3 0.000715 -0.002633 0.013945 0.000000 0.000000 0.000000
# 4 0.000000 0.000000 0.000000 0.049923 0.000000 0.000000
# 5 0.000000 0.000000 0.000000 0.000000 0.033246 0.000000
# 6 0.000000 0.000000 0.000000 0.000000 0.000000 0.051035
#
#
# Mechanical properties :
#
#
# Convention : Reuss Voigt Hill
#
# Bulk Modulus (GPa) = 37.51305 39.17591 38.34448
# Shear Modulus (GPa) = 26.59680 29.61980 28.10830
#
# Velocity S-wave (km/s) = 3.57574 3.77349 3.67594
# Velocity P-wave (km/s) = 5.92298 6.14969 6.03740
#
# Compressibility (1/GPa) = 0.02665739
#
# Stress axis : x y z
#
# Youngs Moduli (GPa) = 98.90182 85.29239 71.71156
#
# Poissons Ratio (x) = 0.22545 -0.05124
# Poissons Ratio (y) = 0.26142 0.18879
# Poissons Ratio (z) = -0.07067 0.22454
#
# Static dielectric constant tensor:
#      x y z
#    x 1.847000 0.000000 0.000000 
#    y 0.000000 1.731790 0.000000 
#    z 0.000000 0.000000 1.720390 
# 
# From -- ./inp_files/2377.got.cif
#   From: 2010.05.17/outbox.cif.g08.bks.cpg/sg64_2_cif.got.tgz:2377.got - 2010.06.03 16:29:19.
