data_PCOD9480163
_publ_section_title
;
Structure prediction by ZEFSAII (Michael W. Deem and Ramdas Pophale) SiO2 
 PCOD9480163
Probable space group: C M C A
;
_chemical_formula_sum "Si O2"
_cell_formula_units_Z 56
_cell_length_a 11.712420
_cell_length_b 9.198901
_cell_length_c 22.279511
_cell_angle_alpha 90.000000
_cell_angle_beta 90.000000
_cell_angle_gamma 90.000000
_cell_volume 2400.425529
_symmetry_space_group_name_H-M "C M C A"
_symmetry_group_IT_number 64
_symmetry_cell_setting 'orthorhombic'
loop_
_space_group_symop_operation_xyz
x,y,z
-x,1/2-y,1/2+z
x,-y,-z
-x,1/2+y,1/2-z
-x,-y,-z
x,1/2+y,1/2-z
-x,y,z
x,1/2-y,1/2+z
1/2+x,1/2+y,z
1/2-x,-y,1/2+z
1/2+x,1/2-y,-z
1/2-x,y,1/2-z
1/2-x,1/2-y,-z
1/2+x,y,1/2-z
1/2-x,1/2+y,z
1/2+x,-y,1/2+z
loop_
_atom_site_type_symbol
_atom_site_label
_atom_site_fract_x
_atom_site_fract_y
_atom_site_fract_z
Si Si1 0.623569 0.870618 0.547478
Si Si2 0.127402 0.628718 0.680963
Si Si3 0.250000 0.382265 0.750000
Si Si4 0.126468 0.815199 0.566617
O O1 0.500000 0.866381 0.581046
O O2 0.748377 0.882988 0.577029
O O3 0.625961 0.729087 0.503604
O O4 0.616813 0.000000 0.500000
O O5 0.202360 0.492907 0.700453
O O6 0.129591 0.676719 0.611558
O O7 0.000000 0.589518 0.698146
O O8 0.162737 0.772497 0.718029
O O9 0.000000 0.884379 0.578721
#
# Coordination Sequence:
#
# PCOD9480163 Si02
#       4
#    16  16   8  16
#     4   9  18  33  53  79 110 145 185 227 279 344
#     4  10  21  39  60  85 115 151 193 242 295 348
#     4  10  22  38  60  84 114 150 192 244 294 352
#     4   9  19  34  53  78 111 145 184 233 285 341
#
# _framework density 23.329194999999999
#
# number of rings (size 3 to 8) (size 9 to 14) (size 15 to 20)
#    0.000    2.571    0.000    0.857    4.000    0.571 
#    0.000    7.143    0.000    0.000    0.000    0.000 
#    0.000    0.000    0.000    0.000    0.000    0.000 
#
# Total GULP energy -155988.842655 kJ/mol
# GULP energy per Si atom -5571.030095 kJ/mol
# Density = 2.327610 g / cm^3
# Si number density = 23.329195 Si / 1000 Ang^3
#
#
#
# Elastic Constant Matrix: (Units=GPa)
#
#
# Indices 1 2 3 4 5 6 
#
# 1 236.5470 34.7395 36.7751 0.0000 0.0000 0.0000
# 2 34.7395 64.5023 18.6178 0.0000 0.0000 0.0000
# 3 36.7751 18.6178 75.2367 0.0000 0.0000 0.0000
# 4 0.0000 0.0000 0.0000 20.7362 0.0000 0.0000
# 5 0.0000 0.0000 0.0000 0.0000 10.7780 0.0000
# 6 0.0000 0.0000 0.0000 0.0000 0.0000 -88.7045
#
#
#
# Elastic Compliance Matrix: (Units=1/GPa)
#
#
# Indices 1 2 3 4 5 6 
#
# 1 0.004817 -0.002062 -0.001844 0.000000 0.000000 0.000000
# 2 -0.002062 0.017579 -0.003342 0.000000 0.000000 0.000000
# 3 -0.001844 -0.003342 0.015020 0.000000 0.000000 0.000000
# 4 0.000000 0.000000 0.000000 0.048225 0.000000 0.000000
# 5 0.000000 0.000000 0.000000 0.000000 0.092781 0.000000
# 6 0.000000 0.000000 0.000000 0.000000 0.000000 -0.011273
#
#
# Mechanical properties :
#
#
# Convention : Reuss Voigt Hill
#
# Bulk Modulus (GPa) = 43.63231 61.83899 52.73565
# Shear Modulus (GPa) = 26.41527 7.63886 17.02706
#
# Velocity S-wave (km/s) = 3.36859 1.81149 2.70452
# Velocity P-wave (km/s) = 5.82008 5.56237 5.69269
#
# Compressibility (1/GPa) = 0.02291879
#
# Stress axis : x y z
#
# Youngs Moduli (GPa) = 207.59625 56.88767 66.57852
#
# Poissons Ratio (x) = 0.11730 0.12279
# Poissons Ratio (y) = 0.42807 0.22251
# Poissons Ratio (z) = 0.38286 0.19012
#
# Static dielectric constant tensor:
#      x y z
#    x 1.938130 0.000000 0.000000 
#    y 0.000000 1.880680 0.000000 
#    z 0.000000 0.000000 1.888530 
# 
# From -- ./inp_files/37645.got.cif
#   From: 2010.05.17/outbox.cif.g08.bks.cpg/sg64_19_cif.got.tgz:37645.got - 2010.06.03 16:29:19.
