data_PCOD9480886
_publ_section_title
;
Structure prediction by ZEFSAII (Michael W. Deem and Ramdas Pophale) SiO2 
 PCOD9480886
Probable space group: C M C A
;
_chemical_formula_sum "Si O2"
_cell_formula_units_Z 64
_cell_length_a 9.392711
_cell_length_b 14.136660
_cell_length_c 18.228278
_cell_angle_alpha 90.000000
_cell_angle_beta 90.000000
_cell_angle_gamma 90.000000
_cell_volume 2420.379223
_symmetry_space_group_name_H-M "C M C A"
_symmetry_group_IT_number 64
_symmetry_cell_setting 'orthorhombic'
loop_
_space_group_symop_operation_xyz
x,y,z
-x,1/2-y,1/2+z
x,-y,-z
-x,1/2+y,1/2-z
-x,-y,-z
x,1/2+y,1/2-z
-x,y,z
x,1/2-y,1/2+z
1/2+x,1/2+y,z
1/2-x,-y,1/2+z
1/2+x,1/2-y,-z
1/2-x,y,1/2-z
1/2-x,1/2-y,-z
1/2+x,y,1/2-z
1/2-x,1/2+y,z
1/2+x,-y,1/2+z
loop_
_atom_site_type_symbol
_atom_site_label
_atom_site_fract_x
_atom_site_fract_y
_atom_site_fract_z
Si Si1 0.755503 0.000000 0.500000
Si Si2 0.500000 0.247710 0.556397
Si Si3 0.500000 0.747488 0.199127
Si Si4 0.249358 0.869352 0.873490
Si Si5 0.000000 0.120051 0.823439
Si Si6 0.000000 0.126328 0.571934
Si Si7 0.750000 0.996338 0.250000
O O1 0.683956 0.934330 0.561374
O O2 0.862881 0.068308 0.545852
O O3 0.500000 0.222290 0.716868
O O4 0.639136 0.301002 0.587220
O O5 0.500000 0.272562 0.470662
O O6 0.635727 0.690047 0.172156
O O7 0.500000 0.847622 0.156278
O O8 0.319641 0.937720 0.812682
O O9 0.000000 0.143332 0.909781
O O10 0.137434 0.065414 0.794812
#
# Coordination Sequence:
#
# PCOD9480886 Si02
#       7
#     8   8   8  16   8   8   8
#     4   9  20  39  62  86 118 158 196 234 292 356
#     4  10  22  41  62  85 117 154 194 240 292 348
#     4  12  24  38  60  90 122 152 194 246 294 342
#     4  11  23  40  61  86 120 156 194 243 293 348
#     4  12  24  39  62  88 117 154 199 244 292 353
#     4   9  20  39  62  87 118 158 195 237 292 353
#     4  12  24  40  62  86 118 156 198 242 292 350
#
# _framework density 26.442135
#
# number of rings (size 3 to 8) (size 9 to 14) (size 15 to 20)
#    0.000    1.250    0.000    6.750    0.000    6.500 
#    0.000    0.000    0.000    0.000    0.000    0.000 
#    0.000    0.000    0.000    0.000    0.000    0.000 
#
# Total GULP energy -179474.882258 kJ/mol
# GULP energy per Si atom -5608.590071 kJ/mol
# Density = 2.638195 g / cm^3
# Si number density = 26.442135 Si / 1000 Ang^3
#
#
#
# Elastic Constant Matrix: (Units=GPa)
#
#
# Indices 1 2 3 4 5 6 
#
# 1 76.9057 12.2125 -16.1317 0.0000 0.0000 0.0000
# 2 12.2125 81.6068 12.3564 0.0000 0.0000 0.0000
# 3 -16.1317 12.3564 102.6335 0.0000 0.0000 0.0000
# 4 0.0000 0.0000 0.0000 57.0800 0.0000 0.0000
# 5 0.0000 0.0000 0.0000 0.0000 1351.0038 0.0000
# 6 0.0000 0.0000 0.0000 0.0000 0.0000 28.0464
#
#
#
# Elastic Compliance Matrix: (Units=1/GPa)
#
#
# Indices 1 2 3 4 5 6 
#
# 1 0.013914 -0.002458 0.002483 0.000000 0.000000 0.000000
# 2 -0.002458 0.012916 -0.001941 0.000000 0.000000 0.000000
# 3 0.002483 -0.001941 0.010367 0.000000 0.000000 0.000000
# 4 0.000000 0.000000 0.000000 0.017519 0.000000 0.000000
# 5 0.000000 0.000000 0.000000 0.000000 0.000740 0.000000
# 6 0.000000 0.000000 0.000000 0.000000 0.000000 0.035655
#
#
# Mechanical properties :
#
#
# Convention : Reuss Voigt Hill
#
# Bulk Modulus (GPa) = 29.97244 30.89117 30.43180
# Shear Modulus (GPa) = 47.14024 304.07327 175.60676
#
# Velocity S-wave (km/s) = 4.22687 10.73524 8.15818
# Velocity P-wave (km/s) = 5.93141 12.85957 10.01374
#
# Compressibility (1/GPa) = 0.03336399
#
# Stress axis : x y z
#
# Youngs Moduli (GPa) = 71.86943 77.42512 96.45626
#
# Poissons Ratio (x) = 0.19033 -0.23950
# Poissons Ratio (y) = 0.17667 0.18725
# Poissons Ratio (z) = -0.17845 0.15031
#
# Static dielectric constant tensor:
#      x y z
#    x 1.999970 0.000000 0.000000 
#    y 0.000000 2.097590 0.000000 
#    z 0.000000 0.000000 2.017970 
# 
# From -- ./inp_files/36367.got.cif
#   From: 2010.05.17/outbox.cif.g08.bks.cpg/sg64_19_cif.got.tgz:36367.got - 2010.06.03 16:29:19.
