data_PCOD9480302
_publ_section_title
;
Structure prediction by ZEFSAII (Michael W. Deem and Ramdas Pophale) SiO2 
 PCOD9480302
Probable space group: C M C A
;
_chemical_formula_sum "Si O2"
_cell_formula_units_Z 56
_cell_length_a 16.581380
_cell_length_b 9.370907
_cell_length_c 18.287195
_cell_angle_alpha 90.000000
_cell_angle_beta 90.000000
_cell_angle_gamma 90.000000
_cell_volume 2841.511356
_symmetry_space_group_name_H-M "C M C A"
_symmetry_group_IT_number 64
_symmetry_cell_setting 'orthorhombic'
loop_
_space_group_symop_operation_xyz
x,y,z
-x,1/2-y,1/2+z
x,-y,-z
-x,1/2+y,1/2-z
-x,-y,-z
x,1/2+y,1/2-z
-x,y,z
x,1/2-y,1/2+z
1/2+x,1/2+y,z
1/2-x,-y,1/2+z
1/2+x,1/2-y,-z
1/2-x,y,1/2-z
1/2-x,1/2-y,-z
1/2+x,y,1/2-z
1/2-x,1/2+y,z
1/2+x,-y,1/2+z
loop_
_atom_site_type_symbol
_atom_site_label
_atom_site_fract_x
_atom_site_fract_y
_atom_site_fract_z
Si Si1 0.000000 0.651030 0.322260
Si Si2 0.500000 0.488645 0.331189
Si Si3 0.911983 0.673251 0.062039
Si Si4 0.124417 0.516524 0.583276
Si Si5 0.780235 0.500000 0.000000
O O1 0.000000 0.576675 0.243467
O O2 0.921553 0.592448 0.365492
O O3 0.000000 0.821224 0.318840
O O4 0.574984 0.545509 0.380310
O O5 0.896092 0.820775 0.103235
O O6 0.839341 0.634880 0.008662
O O7 0.000000 0.682881 0.023901
O O8 0.092765 0.500000 0.500000
O O9 0.220092 0.500922 0.569418
#
# Coordination Sequence:
#
# PCOD9480302 Si02
#       5
#     8   8  16  16   8
#     4  12  21  45  58  97 118 173 211 255 314 377
#     4  10  26  36  72  81 127 170 215 255 302 384
#     4  10  21  40  60  93 127 164 213 246 311 370
#     4  10  23  35  65  92 132 161 204 259 316 359
#     4  10  23  35  64  98 132 160 204 261 315 358
#
# _framework density 19.707820999999999
#
# number of rings (size 3 to 8) (size 9 to 14) (size 15 to 20)
#    1.714    0.000    1.429    3.429    4.000    0.000 
#    0.000    1.429    0.000    6.857    0.000    0.000 
#    0.000    0.000    0.000    0.000    0.000    0.000 
#
# Total GULP energy -155974.042290 kJ/mol
# GULP energy per Si atom -5570.501510 kJ/mol
# Density = 1.966296 g / cm^3
# Si number density = 19.707821 Si / 1000 Ang^3
#
#
#
# Elastic Constant Matrix: (Units=GPa)
#
#
# Indices 1 2 3 4 5 6 
#
# 1 142.2749 37.9311 21.9852 0.0000 0.0000 0.0000
# 2 37.9311 170.7271 29.3952 0.0000 0.0000 0.0000
# 3 21.9852 29.3952 62.5744 0.0000 0.0000 0.0000
# 4 0.0000 0.0000 0.0000 33.7470 0.0000 0.0000
# 5 0.0000 0.0000 0.0000 0.0000 6.1975 0.0000
# 6 0.0000 0.0000 0.0000 0.0000 0.0000 9.6781
#
#
#
# Elastic Compliance Matrix: (Units=1/GPa)
#
#
# Indices 1 2 3 4 5 6 
#
# 1 0.007710 -0.001356 -0.002072 0.000000 0.000000 0.000000
# 2 -0.001356 0.006611 -0.002629 0.000000 0.000000 0.000000
# 3 -0.002072 -0.002629 0.017944 0.000000 0.000000 0.000000
# 4 0.000000 0.000000 0.000000 0.029632 0.000000 0.000000
# 5 0.000000 0.000000 0.000000 0.000000 0.161355 0.000000
# 6 0.000000 0.000000 0.000000 0.000000 0.000000 0.103326
#
#
# Mechanical properties :
#
#
# Convention : Reuss Voigt Hill
#
# Bulk Modulus (GPa) = 49.62548 61.57771 55.60159
# Shear Modulus (GPa) = 14.47550 29.00886 21.74218
#
# Velocity S-wave (km/s) = 2.71312 3.84076 3.32509
# Velocity P-wave (km/s) = 5.92030 7.14015 6.55864
#
# Compressibility (1/GPa) = 0.02015094
#
# Stress axis : x y z
#
# Youngs Moduli (GPa) = 129.69486 151.25552 55.72888
#
# Poissons Ratio (x) = 0.20515 0.11546
# Poissons Ratio (y) = 0.17591 0.14652
# Poissons Ratio (z) = 0.26871 0.39768
#
# Static dielectric constant tensor:
#      x y z
#    x 1.725210 0.000000 0.000000 
#    y 0.000000 1.739150 0.000000 
#    z 0.000000 0.000000 1.690750 
# 
# From -- ./inp_files/45569.got.cif
#   From: 2010.05.17/outbox.cif.g08.bks.cpg/sg64_23_cif.got.tgz:45569.got - 2010.06.03 16:29:19.
