data_PCOD9480464
_publ_section_title
;
Structure prediction by ZEFSAII (Michael W. Deem and Ramdas Pophale) SiO2 
 PCOD9480464
Probable space group: C M C A
;
_chemical_formula_sum "Si O2"
_cell_formula_units_Z 64
_cell_length_a 9.956077
_cell_length_b 14.067580
_cell_length_c 19.543512
_cell_angle_alpha 90.000000
_cell_angle_beta 90.000000
_cell_angle_gamma 90.000000
_cell_volume 2737.223439
_symmetry_space_group_name_H-M "C M C A"
_symmetry_group_IT_number 64
_symmetry_cell_setting 'orthorhombic'
loop_
_space_group_symop_operation_xyz
x,y,z
-x,1/2-y,1/2+z
x,-y,-z
-x,1/2+y,1/2-z
-x,-y,-z
x,1/2+y,1/2-z
-x,y,z
x,1/2-y,1/2+z
1/2+x,1/2+y,z
1/2-x,-y,1/2+z
1/2+x,1/2-y,-z
1/2-x,y,1/2-z
1/2-x,1/2-y,-z
1/2+x,y,1/2-z
1/2-x,1/2+y,z
1/2+x,-y,1/2+z
loop_
_atom_site_type_symbol
_atom_site_label
_atom_site_fract_x
_atom_site_fract_y
_atom_site_fract_z
Si Si1 0.846684 0.818030 0.688193
Si Si2 0.654449 0.953078 0.188257
Si Si3 0.358908 0.701837 0.067454
Si Si4 0.287994 0.593294 0.535501
O O1 0.750000 0.786996 0.750000
O O2 0.766042 0.797194 0.618768
O O3 0.000000 0.781241 0.689758
O O4 0.854761 0.932684 0.692073
O O5 0.500000 0.916305 0.190027
O O6 0.750000 0.922047 0.250000
O O7 0.721303 0.928065 0.115631
O O8 0.500000 0.686332 0.105331
O O9 0.362174 0.805295 0.032571
O O10 0.339719 0.620040 0.010992
O O11 0.349439 0.500000 0.500000
#
# Coordination Sequence:
#
# PCOD9480464 Si02
#       4
#    16  16  16  16
#     4  10  21  41  68  98 138 183 228 282 340 404
#     4  10  22  41  68  97 128 176 226 276 336 405
#     4  11  25  42  68 105 138 178 231 283 340 405
#     4  11  24  46  68 101 136 182 224 280 340 407
#
# _framework density 23.381359
#
# number of rings (size 3 to 8) (size 9 to 14) (size 15 to 20)
#    0.000    1.500    2.500    1.500    0.000   10.500 
#    0.000    2.500    0.000    0.000    0.000    0.000 
#    0.000    0.000    0.000    0.000    0.000    0.000 
#
# Total GULP energy -178649.158077 kJ/mol
# GULP energy per Si atom -5582.786190 kJ/mol
# Density = 2.332814 g / cm^3
# Si number density = 23.381359 Si / 1000 Ang^3
#
#
#
# Elastic Constant Matrix: (Units=GPa)
#
#
# Indices 1 2 3 4 5 6 
#
# 1 192.9401 31.9551 88.9942 0.0000 0.0000 0.0000
# 2 31.9551 112.0357 35.0219 0.0000 0.0000 0.0000
# 3 88.9942 35.0219 199.7180 0.0000 0.0000 0.0000
# 4 0.0000 0.0000 0.0000 20.9387 0.0000 0.0000
# 5 0.0000 0.0000 0.0000 0.0000 19.3057 0.0000
# 6 0.0000 0.0000 0.0000 0.0000 0.0000 -13.6672
#
#
#
# Elastic Compliance Matrix: (Units=1/GPa)
#
#
# Indices 1 2 3 4 5 6 
#
# 1 0.006633 -0.001024 -0.002776 0.000000 0.000000 0.000000
# 2 -0.001024 0.009601 -0.001227 0.000000 0.000000 0.000000
# 3 -0.002776 -0.001227 0.006459 0.000000 0.000000 0.000000
# 4 0.000000 0.000000 0.000000 0.047758 0.000000 0.000000
# 5 0.000000 0.000000 0.000000 0.000000 0.051798 0.000000
# 6 0.000000 0.000000 0.000000 0.000000 0.000000 -0.073168
#
#
# Mechanical properties :
#
#
# Convention : Reuss Voigt Hill
#
# Bulk Modulus (GPa) = 79.12170 90.73734 84.92952
# Shear Modulus (GPa) = 78.92568 28.56362 53.74465
#
# Velocity S-wave (km/s) = 5.81628 3.49899 4.79958
# Velocity P-wave (km/s) = 8.88924 7.43073 8.19250
#
# Compressibility (1/GPa) = 0.01263876
#
# Stress axis : x y z
#
# Youngs Moduli (GPa) = 150.76015 104.15059 154.81521
#
# Poissons Ratio (x) = 0.10666 0.42978
# Poissons Ratio (y) = 0.15439 0.19001
# Poissons Ratio (z) = 0.41853 0.12783
#
# Static dielectric constant tensor:
#      x y z
#    x 1.973870 0.000000 0.000000 
#    y 0.000000 1.899370 0.000000 
#    z 0.000000 0.000000 1.875430 
# 
# From -- ./inp_files/42478.got.cif
#   From: 2010.05.17/outbox.cif.g08.bks.cpg/sg64_22_cif.got.tgz:42478.got - 2010.06.03 16:29:19.
