data_PCOD9480149
_publ_section_title
;
Structure prediction by ZEFSAII (Michael W. Deem and Ramdas Pophale) SiO2 
 PCOD9480149
Probable space group: C M C A
;
_chemical_formula_sum "Si O2"
_cell_formula_units_Z 96
_cell_length_a 16.377984
_cell_length_b 22.040149
_cell_length_c 11.447168
_cell_angle_alpha 90.000000
_cell_angle_beta 90.000000
_cell_angle_gamma 90.000000
_cell_volume 4132.120952
_symmetry_space_group_name_H-M "C M C A"
_symmetry_group_IT_number 64
_symmetry_cell_setting 'orthorhombic'
loop_
_space_group_symop_operation_xyz
x,y,z
-x,1/2-y,1/2+z
x,-y,-z
-x,1/2+y,1/2-z
-x,-y,-z
x,1/2+y,1/2-z
-x,y,z
x,1/2-y,1/2+z
1/2+x,1/2+y,z
1/2-x,-y,1/2+z
1/2+x,1/2-y,-z
1/2-x,y,1/2-z
1/2-x,1/2-y,-z
1/2+x,y,1/2-z
1/2-x,1/2+y,z
1/2+x,-y,1/2+z
loop_
_atom_site_type_symbol
_atom_site_label
_atom_site_fract_x
_atom_site_fract_y
_atom_site_fract_z
Si Si1 0.847886 0.753865 0.022231
Si Si2 0.725181 0.437529 0.048240
Si Si3 0.186485 0.655666 0.343040
Si Si4 0.408898 0.568902 0.602518
Si Si5 0.909612 0.130106 0.368398
Si Si6 0.344467 0.652643 0.781459
O O1 0.877513 0.687791 0.057388
O O2 0.872431 0.794878 0.132699
O O3 0.750000 0.750000 0.000000
O O4 0.868443 0.793209 0.906375
O O5 0.813254 0.452050 0.108858
O O6 0.664870 0.407771 0.140817
O O7 0.692917 0.500000 0.000000
O O8 0.726972 0.387031 0.943061
O O9 0.250000 0.685277 0.250000
O O10 0.137590 0.615519 0.249971
O O11 0.500000 0.545061 0.637487
O O12 0.412557 0.576902 0.462632
O O13 0.398808 0.633117 0.672520
O O14 0.000000 0.146420 0.331839
O O15 0.250000 0.667397 0.750000
#
# Coordination Sequence:
#
# PCOD9480149 Si02
#       6
#    16  16  16  16  16  16
#     4  11  21  33  58  86 117 162 204 242 294 356
#     4  10  21  40  67  90 113 156 210 257 307 369
#     4  11  21  38  61  90 123 160 205 256 304 359
#     4  10  21  39  58  86 125 154 193 252 307 363
#     4  11  24  38  57  90 127 162 199 246 308 367
#     4   9  20  36  56  87 117 152 200 248 292 352
#
# _framework density 23.232621000000002
#
# number of rings (size 3 to 8) (size 9 to 14) (size 15 to 20)
#    0.000    1.667    3.333    2.000    4.667    3.667 
#    0.000    2.500    0.000    1.000    0.000    0.000 
#    0.000    0.000    0.000    0.000    0.000    0.000 
#
# Total GULP energy -267215.448414 kJ/mol
# GULP energy per Si atom -5566.988509 kJ/mol
# Density = 2.317974 g / cm^3
# Si number density = 23.232621 Si / 1000 Ang^3
#
#
#
# Elastic Constant Matrix: (Units=GPa)
#
#
# Indices 1 2 3 4 5 6 
#
# 1 55.8212 -13.4778 -1.1631 0.0000 0.0000 0.0000
# 2 -13.4778 60.9844 6.1104 0.0000 0.0000 0.0000
# 3 -1.1631 6.1104 118.4348 0.0000 0.0000 0.0000
# 4 0.0000 0.0000 0.0000 22.7394 0.0000 0.0000
# 5 0.0000 0.0000 0.0000 0.0000 12.3851 0.0000
# 6 0.0000 0.0000 0.0000 0.0000 0.0000 13.0712
#
#
#
# Elastic Compliance Matrix: (Units=1/GPa)
#
#
# Indices 1 2 3 4 5 6 
#
# 1 0.018924 0.004185 -0.000030 0.000000 0.000000 0.000000
# 2 0.004185 0.017408 -0.000857 0.000000 0.000000 0.000000
# 3 -0.000030 -0.000857 0.008487 0.000000 0.000000 0.000000
# 4 0.000000 0.000000 0.000000 0.043976 0.000000 0.000000
# 5 0.000000 0.000000 0.000000 0.000000 0.080742 0.000000
# 6 0.000000 0.000000 0.000000 0.000000 0.000000 0.076504
#
#
# Mechanical properties :
#
#
# Convention : Reuss Voigt Hill
#
# Bulk Modulus (GPa) = 19.44899 24.24216 21.84558
# Shear Modulus (GPa) = 19.48671 25.89054 22.68863
#
# Velocity S-wave (km/s) = 2.89929 3.34189 3.12843
# Velocity P-wave (km/s) = 4.42689 5.03470 4.74055
#
# Compressibility (1/GPa) = 0.05141655
#
# Stress axis : x y z
#
# Youngs Moduli (GPa) = 52.84223 57.44325 117.82191
#
# Poissons Ratio (x) = -0.24042 0.00354
# Poissons Ratio (y) = -0.22116 0.10098
# Poissons Ratio (z) = 0.00159 0.04923
#
# Static dielectric constant tensor:
#      x y z
#    x 1.972640 0.000000 0.000000 
#    y 0.000000 1.949770 0.000000 
#    z 0.000000 0.000000 1.954600 
# 
# From -- ./inp_files/16206.got.cif
#   From: 2010.05.17/outbox.cif.g08.bks.cpg/sg64_9_cif.got.tgz:16206.got - 2010.06.03 16:29:19.
