data_PCOD9480595
_publ_section_title
;
Structure prediction by ZEFSAII (Michael W. Deem and Ramdas Pophale) SiO2 
 PCOD9480595
Probable space group: C M C A
;
_chemical_formula_sum "Si O2"
_cell_formula_units_Z 80
_cell_length_a 12.347119
_cell_length_b 27.291476
_cell_length_c 10.891196
_cell_angle_alpha 90.000000
_cell_angle_beta 90.000000
_cell_angle_gamma 90.000000
_cell_volume 3670.018317
_symmetry_space_group_name_H-M "C M C A"
_symmetry_group_IT_number 64
_symmetry_cell_setting 'orthorhombic'
loop_
_space_group_symop_operation_xyz
x,y,z
-x,1/2-y,1/2+z
x,-y,-z
-x,1/2+y,1/2-z
-x,-y,-z
x,1/2+y,1/2-z
-x,y,z
x,1/2-y,1/2+z
1/2+x,1/2+y,z
1/2-x,-y,1/2+z
1/2+x,1/2-y,-z
1/2-x,y,1/2-z
1/2-x,1/2-y,-z
1/2+x,y,1/2-z
1/2-x,1/2+y,z
1/2+x,-y,1/2+z
loop_
_atom_site_type_symbol
_atom_site_label
_atom_site_fract_x
_atom_site_fract_y
_atom_site_fract_z
Si Si1 0.160755 0.948645 0.056806
Si Si2 0.876713 0.263802 0.701674
Si Si3 0.880884 0.826348 0.464470
Si Si4 0.383447 0.423999 0.336885
Si Si5 0.808218 0.367223 0.631933
O O1 0.289785 0.947917 0.082966
O O2 0.120085 0.937762 0.194036
O O3 0.137725 0.905965 0.958908
O O4 0.126853 0.000000 0.000000
O O5 0.750000 0.255509 0.750000
O O6 0.875078 0.228606 0.583331
O O7 0.878965 0.321557 0.675542
O O8 0.000000 0.251908 0.758386
O O9 0.870528 0.865095 0.351929
O O10 0.787715 0.841038 0.556048
O O11 0.000000 0.834579 0.518926
O O12 0.500000 0.437484 0.387689
O O13 0.750000 0.391527 0.750000
#
# Coordination Sequence:
#
# PCOD9480595 Si02
#       5
#    16  16  16  16  16
#     4  10  22  38  64  87 120 159 208 264 314 370
#     4  10  22  39  64  96 131 169 212 258 318 382
#     4   9  19  39  64  90 123 167 211 257 311 383
#     4   9  20  39  62  90 119 157 208 257 313 375
#     4  10  22  37  57  88 127 163 207 255 320 376
#
# _framework density 21.798255999999999
#
# number of rings (size 3 to 8) (size 9 to 14) (size 15 to 20)
#    0.000    2.400    0.000    0.600    8.400    4.800 
#    0.000    1.000    0.000    0.000    0.000    0.000 
#    0.000    0.000    0.000    0.000    0.000    0.000 
#
# Total GULP energy -222712.121740 kJ/mol
# GULP energy per Si atom -5567.803043 kJ/mol
# Density = 2.174864 g / cm^3
# Si number density = 21.798256 Si / 1000 Ang^3
#
#
#
# Elastic Constant Matrix: (Units=GPa)
#
#
# Indices 1 2 3 4 5 6 
#
# 1 151.1564 -4.2590 1.0376 0.0000 0.0000 0.0000
# 2 -4.2590 62.1732 23.2360 0.0000 0.0000 0.0000
# 3 1.0376 23.2360 65.0197 0.0000 0.0000 0.0000
# 4 0.0000 0.0000 0.0000 28.4551 0.0000 0.0000
# 5 0.0000 0.0000 0.0000 0.0000 -7.8174 0.0000
# 6 0.0000 0.0000 0.0000 0.0000 0.0000 1.9504
#
#
#
# Elastic Compliance Matrix: (Units=1/GPa)
#
#
# Indices 1 2 3 4 5 6 
#
# 1 0.006634 0.000570 -0.000310 0.000000 0.000000 0.000000
# 2 0.000570 0.018612 -0.006661 0.000000 0.000000 0.000000
# 3 -0.000310 -0.006661 0.017765 0.000000 0.000000 0.000000
# 4 0.000000 0.000000 0.000000 0.035143 0.000000 0.000000
# 5 0.000000 0.000000 0.000000 0.000000 -0.127920 0.000000
# 6 0.000000 0.000000 0.000000 0.000000 0.000000 0.512710
#
#
# Mechanical properties :
#
#
# Convention : Reuss Voigt Hill
#
# Bulk Modulus (GPa) = 33.10016 35.37539 34.23777
# Shear Modulus (GPa) = 10.29199 21.73995 16.01597
#
# Velocity S-wave (km/s) = 2.17525 3.16147 2.71354
# Velocity P-wave (km/s) = 4.63969 5.43970 5.05554
#
# Compressibility (1/GPa) = 0.03021133
#
# Stress axis : x y z
#
# Youngs Moduli (GPa) = 150.74191 53.72754 56.28985
#
# Poissons Ratio (x) = -0.03063 0.01743
# Poissons Ratio (y) = -0.08595 0.37492
# Poissons Ratio (z) = 0.04667 0.35786
#
# Static dielectric constant tensor:
#      x y z
#    x 1.888860 0.000000 0.000000 
#    y 0.000000 1.769650 0.000000 
#    z 0.000000 0.000000 1.799550 
# 
# From -- ./inp_files/13215.got.cif
#   From: 2010.05.17/outbox.cif.g08.bks.cpg/sg64_7_cif.got.tgz:13215.got - 2010.06.03 16:29:19.
