data_PCOD9480807
_publ_section_title
;
Structure prediction by ZEFSAII (Michael W. Deem and Ramdas Pophale) SiO2 
 PCOD9480807
Probable space group: C M C A
;
_chemical_formula_sum "Si O2"
_cell_formula_units_Z 80
_cell_length_a 15.972003
_cell_length_b 9.786858
_cell_length_c 26.062184
_cell_angle_alpha 90.000000
_cell_angle_beta 90.000000
_cell_angle_gamma 90.000000
_cell_volume 4073.929196
_symmetry_space_group_name_H-M "C M C A"
_symmetry_group_IT_number 64
_symmetry_cell_setting 'orthorhombic'
loop_
_space_group_symop_operation_xyz
x,y,z
-x,1/2-y,1/2+z
x,-y,-z
-x,1/2+y,1/2-z
-x,-y,-z
x,1/2+y,1/2-z
-x,y,z
x,1/2-y,1/2+z
1/2+x,1/2+y,z
1/2-x,-y,1/2+z
1/2+x,1/2-y,-z
1/2-x,y,1/2-z
1/2-x,1/2-y,-z
1/2+x,y,1/2-z
1/2-x,1/2+y,z
1/2+x,-y,1/2+z
loop_
_atom_site_type_symbol
_atom_site_label
_atom_site_fract_x
_atom_site_fract_y
_atom_site_fract_z
Si Si1 0.906064 0.103874 0.547852
Si Si2 0.724069 0.478163 0.624351
Si Si3 0.096005 0.365395 0.791520
Si Si4 0.830568 0.580268 0.715496
Si Si5 0.312634 0.854261 0.528580
O O1 0.895354 0.261597 0.531835
O O2 0.000000 0.077707 0.566742
O O3 0.891835 0.000000 0.500000
O O4 0.835919 0.073276 0.590103
O O5 0.660897 0.402553 0.663195
O O6 0.792963 0.551967 0.659516
O O7 0.773103 0.384716 0.584022
O O8 0.128404 0.447890 0.741757
O O9 0.000000 0.401863 0.803062
O O10 0.105492 0.204485 0.783065
O O11 0.750000 0.619333 0.750000
O O12 0.250000 0.750000 0.500000
O O13 0.321345 0.000000 0.500000
#
# Coordination Sequence:
#
# PCOD9480807 Si02
#       5
#    16  16  16  16  16
#     4  11  23  40  62  92 128 164 209 263 317 368
#     4  11  21  39  67  90 120 168 214 252 307 385
#     4  11  23  40  63  93 125 160 202 263 318 367
#     4  10  22  40  62  89 119 160 210 250 306 379
#     4  12  22  41  66  94 125 169 216 261 310 379
#
# _framework density 19.637060999999999
#
# number of rings (size 3 to 8) (size 9 to 14) (size 15 to 20)
#    0.000    1.000    4.000    4.200    0.000    2.000 
#    0.000    6.000    0.000    0.000    0.000    0.000 
#    0.000    0.000    0.000    0.000    0.000    0.000 
#
# Total GULP energy -223339.754372 kJ/mol
# GULP energy per Si atom -5583.493859 kJ/mol
# Density = 1.959237 g / cm^3
# Si number density = 19.637061 Si / 1000 Ang^3
#
#
#
# Elastic Constant Matrix: (Units=GPa)
#
#
# Indices 1 2 3 4 5 6 
#
# 1 88.5282 42.0866 31.0190 0.0000 0.0000 0.0000
# 2 42.0866 134.1401 57.0770 0.0000 0.0000 0.0000
# 3 31.0190 57.0770 99.7573 0.0000 0.0000 0.0000
# 4 0.0000 0.0000 0.0000 17.9820 0.0000 0.0000
# 5 0.0000 0.0000 0.0000 0.0000 16.6084 0.0000
# 6 0.0000 0.0000 0.0000 0.0000 0.0000 26.0348
#
#
#
# Elastic Compliance Matrix: (Units=1/GPa)
#
#
# Indices 1 2 3 4 5 6 
#
# 1 0.013690 -0.003283 -0.002378 0.000000 0.000000 0.000000
# 2 -0.003283 0.010641 -0.005068 0.000000 0.000000 0.000000
# 3 -0.002378 -0.005068 0.013663 0.000000 0.000000 0.000000
# 4 0.000000 0.000000 0.000000 0.055611 0.000000 0.000000
# 5 0.000000 0.000000 0.000000 0.000000 0.060210 0.000000
# 6 0.000000 0.000000 0.000000 0.000000 0.000000 0.038410
#
#
# Mechanical properties :
#
#
# Convention : Reuss Voigt Hill
#
# Bulk Modulus (GPa) = 60.47296 64.75455 62.61376
# Shear Modulus (GPa) = 22.81056 24.94125 23.87590
#
# Velocity S-wave (km/s) = 3.41193 3.56773 3.49070
# Velocity P-wave (km/s) = 6.81057 7.07240 6.94272
#
# Compressibility (1/GPa) = 0.01653632
#
# Stress axis : x y z
#
# Youngs Moduli (GPa) = 73.04583 93.97344 73.18872
#
# Poissons Ratio (x) = 0.30854 0.17406
# Poissons Ratio (y) = 0.23983 0.37089
# Poissons Ratio (z) = 0.17372 0.47622
#
# Static dielectric constant tensor:
#      x y z
#    x 1.674060 0.000000 0.000000 
#    y 0.000000 1.702580 0.000000 
#    z 0.000000 0.000000 1.699220 
# 
# From -- ./inp_files/53521.got.cif
#   From: 2010.05.17/outbox.cif.g08.bks.cpg/sg64_27_cif.got.tgz:53521.got - 2010.06.03 16:29:19.
