data_PCOD9480108
_publ_section_title
;
Structure prediction by ZEFSAII (Michael W. Deem and Ramdas Pophale) SiO2 
 PCOD9480108
Probable space group: C M C A
;
_chemical_formula_sum "Si O2"
_cell_formula_units_Z 96
_cell_length_a 14.154869
_cell_length_b 21.242821
_cell_length_c 14.459906
_cell_angle_alpha 90.000000
_cell_angle_beta 90.000000
_cell_angle_gamma 90.000000
_cell_volume 4347.939714
_symmetry_space_group_name_H-M "C M C A"
_symmetry_group_IT_number 64
_symmetry_cell_setting 'orthorhombic'
loop_
_space_group_symop_operation_xyz
x,y,z
-x,1/2-y,1/2+z
x,-y,-z
-x,1/2+y,1/2-z
-x,-y,-z
x,1/2+y,1/2-z
-x,y,z
x,1/2-y,1/2+z
1/2+x,1/2+y,z
1/2-x,-y,1/2+z
1/2+x,1/2-y,-z
1/2-x,y,1/2-z
1/2-x,1/2-y,-z
1/2+x,y,1/2-z
1/2-x,1/2+y,z
1/2+x,-y,1/2+z
loop_
_atom_site_type_symbol
_atom_site_label
_atom_site_fract_x
_atom_site_fract_y
_atom_site_fract_z
Si Si1 0.391568 0.949447 0.776046
Si Si2 0.338280 0.914520 0.181155
Si Si3 0.388952 0.673903 0.378686
Si Si4 0.744992 0.652873 0.972916
Si Si5 0.105788 0.304370 0.312636
Si Si6 0.386092 0.942058 0.567713
O O1 0.500000 0.929581 0.763561
O O2 0.353426 0.892659 0.838168
O O3 0.353049 0.954983 0.672111
O O4 0.390529 0.019202 0.816793
O O5 0.250000 0.924286 0.250000
O O6 0.308449 0.899732 0.077514
O O7 0.385440 0.851880 0.226272
O O8 0.500000 0.669626 0.407983
O O9 0.318816 0.690482 0.463495
O O10 0.385692 0.729057 0.301162
O O11 0.688228 0.680784 0.885550
O O12 0.664436 0.620564 0.033659
O O13 0.000000 0.315661 0.351906
O O14 0.500000 0.936505 0.563930
O O15 0.361352 0.000000 0.500000
#
# Coordination Sequence:
#
# PCOD9480108 Si02
#       6
#    16  16  16  16  16  16
#     4  10  22  41  62  91 125 170 213 257 320 381
#     4  10  22  38  62  91 126 164 213 256 316 383
#     4  10  24  42  62  92 132 170 214 265 325 387
#     4  11  23  39  63  96 128 164 220 259 324 376
#     4  10  21  44  67  89 127 172 215 268 318 381
#     4  10  21  38  63  95 128 164 214 268 316 373
#
# _framework density 22.079422999999998
#
# number of rings (size 3 to 8) (size 9 to 14) (size 15 to 20)
#    0.000    1.833    0.000    3.500    4.667    2.667 
#   12.000    1.667    0.000    0.000    0.000    0.000 
#    0.000    0.000    0.000    0.000    0.000    0.000 
#
# Total GULP energy -267633.545382 kJ/mol
# GULP energy per Si atom -5575.698862 kJ/mol
# Density = 2.202917 g / cm^3
# Si number density = 22.079423 Si / 1000 Ang^3
#
#
#
# Elastic Constant Matrix: (Units=GPa)
#
#
# Indices 1 2 3 4 5 6 
#
# 1 77.9268 24.5053 6.7490 0.0000 0.0000 0.0000
# 2 24.5053 85.8433 17.7145 0.0000 0.0000 0.0000
# 3 6.7490 17.7145 51.3661 0.0000 0.0000 0.0000
# 4 0.0000 0.0000 0.0000 25.8091 0.0000 0.0000
# 5 0.0000 0.0000 0.0000 0.0000 18.6714 0.0000
# 6 0.0000 0.0000 0.0000 0.0000 0.0000 103.6212
#
#
#
# Elastic Compliance Matrix: (Units=1/GPa)
#
#
# Indices 1 2 3 4 5 6 
#
# 1 0.014110 -0.003925 -0.000500 0.000000 0.000000 0.000000
# 2 -0.003925 0.013633 -0.004186 0.000000 0.000000 0.000000
# 3 -0.000500 -0.004186 0.020977 0.000000 0.000000 0.000000
# 4 0.000000 0.000000 0.000000 0.038746 0.000000 0.000000
# 5 0.000000 0.000000 0.000000 0.000000 0.053558 0.000000
# 6 0.000000 0.000000 0.000000 0.000000 0.000000 0.009651
#
#
# Mechanical properties :
#
#
# Convention : Reuss Voigt Hill
#
# Bulk Modulus (GPa) = 31.74746 34.78599 33.26672
# Shear Modulus (GPa) = 28.02738 40.69817 34.36277
#
# Velocity S-wave (km/s) = 3.56671 4.29798 3.94931
# Velocity P-wave (km/s) = 5.60106 6.35762 5.99129
#
# Compressibility (1/GPa) = 0.03149859
#
# Stress axis : x y z
#
# Youngs Moduli (GPa) = 70.87134 73.34970 47.67019
#
# Poissons Ratio (x) = 0.28787 0.02386
# Poissons Ratio (y) = 0.27815 0.19955
# Poissons Ratio (z) = 0.03547 0.30704
#
# Static dielectric constant tensor:
#      x y z
#    x 1.845240 0.000000 0.000000 
#    y 0.000000 1.877520 0.000000 
#    z 0.000000 0.000000 1.791120 
# 
# From -- ./inp_files/23879.got.cif
#   From: 2010.05.17/outbox.cif.g08.bks.cpg/sg64_12_cif.got.tgz:23879.got - 2010.06.03 16:29:19.
