data_PCOD9480103
_publ_section_title
;
Structure prediction by ZEFSAII (Michael W. Deem and Ramdas Pophale) SiO2 
 PCOD9480103
Probable space group: C M C A
;
_chemical_formula_sum "Si O2"
_cell_formula_units_Z 80
_cell_length_a 27.062489
_cell_length_b 18.042134
_cell_length_c 9.112430
_cell_angle_alpha 90.000000
_cell_angle_beta 90.000000
_cell_angle_gamma 90.000000
_cell_volume 4449.281116
_symmetry_space_group_name_H-M "C M C A"
_symmetry_group_IT_number 64
_symmetry_cell_setting 'orthorhombic'
loop_
_space_group_symop_operation_xyz
x,y,z
-x,1/2-y,1/2+z
x,-y,-z
-x,1/2+y,1/2-z
-x,-y,-z
x,1/2+y,1/2-z
-x,y,z
x,1/2-y,1/2+z
1/2+x,1/2+y,z
1/2-x,-y,1/2+z
1/2+x,1/2-y,-z
1/2-x,y,1/2-z
1/2-x,1/2-y,-z
1/2+x,y,1/2-z
1/2-x,1/2+y,z
1/2+x,-y,1/2+z
loop_
_atom_site_type_symbol
_atom_site_label
_atom_site_fract_x
_atom_site_fract_y
_atom_site_fract_z
Si Si1 0.118091 0.787770 0.015948
Si Si2 0.558724 0.578423 0.072735
Si Si3 0.375730 0.654775 0.296103
Si Si4 0.227214 0.180800 0.911222
Si Si5 0.279954 0.436256 0.606941
O O1 0.077232 0.852364 0.027122
O O2 0.131517 0.790479 0.843365
O O3 0.104020 0.707068 0.074987
O O4 0.168523 0.810896 0.095437
O O5 0.500000 0.580560 0.091706
O O6 0.587118 0.594309 0.226101
O O7 0.572573 0.500000 0.000000
O O8 0.324723 0.616508 0.342127
O O9 0.250000 0.177364 0.750000
O O10 0.250000 0.250000 0.000000
O O11 0.241975 0.110198 0.007711
O O12 0.299543 0.500000 0.500000
O O13 0.250000 0.463362 0.750000
#
# Coordination Sequence:
#
# PCOD9480103 Si02
#       5
#    16  16  16  16  16
#     4  10  21  38  63  91 122 159 212 255 307 379
#     4   9  21  42  66  88 125 166 203 260 327 380
#     4  10  22  39  62  91 123 155 207 262 312 374
#     4  12  22  35  60  84 124 167 202 251 313 371
#     4  12  24  40  55  86 124 168 213 257 311 378
#
# _framework density 17.980432
#
# number of rings (size 3 to 8) (size 9 to 14) (size 15 to 20)
#    1.200    0.200    4.000    2.400    0.000    5.600 
#    0.000    0.000    0.000    0.600    0.000    0.000 
#    0.000    0.000    0.000    0.000    0.000    0.000 
#
# Total GULP energy -222821.371173 kJ/mol
# GULP energy per Si atom -5570.534279 kJ/mol
# Density = 1.793951 g / cm^3
# Si number density = 17.980432 Si / 1000 Ang^3
#
#
#
# Elastic Constant Matrix: (Units=GPa)
#
#
# Indices 1 2 3 4 5 6 
#
# 1 60.1549 25.5656 19.3708 0.0000 0.0000 0.0000
# 2 25.5656 87.1050 44.1467 0.0000 0.0000 0.0000
# 3 19.3708 44.1467 110.3387 0.0000 0.0000 0.0000
# 4 0.0000 0.0000 0.0000 43.6632 0.0000 0.0000
# 5 0.0000 0.0000 0.0000 0.0000 18.2165 0.0000
# 6 0.0000 0.0000 0.0000 0.0000 0.0000 26.1906
#
#
#
# Elastic Compliance Matrix: (Units=1/GPa)
#
#
# Indices 1 2 3 4 5 6 
#
# 1 0.019163 -0.004916 -0.001397 0.000000 0.000000 0.000000
# 2 -0.004916 0.015662 -0.005403 0.000000 0.000000 0.000000
# 3 -0.001397 -0.005403 0.011470 0.000000 0.000000 0.000000
# 4 0.000000 0.000000 0.000000 0.022903 0.000000 0.000000
# 5 0.000000 0.000000 0.000000 0.000000 0.054895 0.000000
# 6 0.000000 0.000000 0.000000 0.000000 0.000000 0.038182
#
#
# Mechanical properties :
#
#
# Convention : Reuss Voigt Hill
#
# Bulk Modulus (GPa) = 43.74149 48.41829 46.07989
# Shear Modulus (GPa) = 25.86271 28.84842 27.35557
#
# Velocity S-wave (km/s) = 3.79671 4.00988 3.90475
# Velocity P-wave (km/s) = 6.60304 6.95886 6.78328
#
# Compressibility (1/GPa) = 0.02286159
#
# Stress axis : x y z
#
# Youngs Moduli (GPa) = 52.18366 63.84956 87.18295
#
# Poissons Ratio (x) = 0.31390 0.12181
# Poissons Ratio (y) = 0.25655 0.47107
# Poissons Ratio (z) = 0.07291 0.34499
#
# Static dielectric constant tensor:
#      x y z
#    x 1.600450 0.000000 0.000000 
#    y 0.000000 1.664330 0.000000 
#    z 0.000000 0.000000 1.664550 
# 
# From -- ./inp_files/11024.got.cif
#   From: 2010.05.17/outbox.cif.g08.bks.cpg/sg64_6_cif.got.tgz:11024.got - 2010.06.03 16:29:19.
