data_PCOD9480862
_publ_section_title
;
Structure prediction by ZEFSAII (Michael W. Deem and Ramdas Pophale) SiO2 
 PCOD9480862
Probable space group: C M C A
;
_chemical_formula_sum "Si O2"
_cell_formula_units_Z 64
_cell_length_a 28.330691
_cell_length_b 19.649357
_cell_length_c 5.182996
_cell_angle_alpha 90.000000
_cell_angle_beta 90.000000
_cell_angle_gamma 90.000000
_cell_volume 2885.269496
_symmetry_space_group_name_H-M "C M C A"
_symmetry_group_IT_number 64
_symmetry_cell_setting 'orthorhombic'
loop_
_space_group_symop_operation_xyz
x,y,z
-x,1/2-y,1/2+z
x,-y,-z
-x,1/2+y,1/2-z
-x,-y,-z
x,1/2+y,1/2-z
-x,y,z
x,1/2-y,1/2+z
1/2+x,1/2+y,z
1/2-x,-y,1/2+z
1/2+x,1/2-y,-z
1/2-x,y,1/2-z
1/2-x,1/2-y,-z
1/2+x,y,1/2-z
1/2-x,1/2+y,z
1/2+x,-y,1/2+z
loop_
_atom_site_type_symbol
_atom_site_label
_atom_site_fract_x
_atom_site_fract_y
_atom_site_fract_z
Si Si1 0.396054 0.712386 0.881507
Si Si2 0.353105 0.073316 0.644101
Si Si3 0.000000 0.831692 0.242596
Si Si4 0.750000 0.547392 0.750000
Si Si5 0.000000 0.421719 0.742847
Si Si6 0.918837 0.500000 0.000000
O O1 0.380188 0.733657 0.595645
O O2 0.377064 0.639425 0.975905
O O3 0.452643 0.707745 0.838203
O O4 0.298422 0.087373 0.703929
O O5 0.353977 0.000000 0.500000
O O6 0.385138 0.058237 0.892190
O O7 0.000000 0.862552 0.533223
O O8 0.000000 0.894687 0.044528
O O9 0.741823 0.500000 0.500000
O O10 0.046135 0.466663 0.794414
#
# Coordination Sequence:
#
# PCOD9480862 Si02
#       6
#    16  16   8   8   8   8
#     4  12  27  44  65  96 136 178 219 270 332 395
#     4  11  24  43  72  98 133 174 226 279 335 395
#     4  12  22  44  60  89 132 178 221 261 317 400
#     4  10  22  40  68 104 130 164 224 282 338 392
#     4  11  24  35  64  99 131 169 219 269 326 391
#     4  11  22  38  64 100 134 168 212 279 332 388
#
# _framework density 22.181636000000001
#
# number of rings (size 3 to 8) (size 9 to 14) (size 15 to 20)
#    0.000    0.750    3.750    3.750    3.500    1.000 
#    0.000    1.250    0.000    0.000    0.000    0.000 
#    0.000    0.000    0.000    0.000    0.000    0.000 
#
# Total GULP energy -178929.370770 kJ/mol
# GULP energy per Si atom -5591.542837 kJ/mol
# Density = 2.213115 g / cm^3
# Si number density = 22.181636 Si / 1000 Ang^3
#
#
#
# Elastic Constant Matrix: (Units=GPa)
#
#
# Indices 1 2 3 4 5 6 
#
# 1 113.2601 15.0325 6.3119 0.0000 0.0000 0.0000
# 2 15.0325 83.7913 22.8005 0.0000 0.0000 0.0000
# 3 6.3119 22.8005 79.5677 0.0000 0.0000 0.0000
# 4 0.0000 0.0000 0.0000 44.4610 0.0000 0.0000
# 5 0.0000 0.0000 0.0000 0.0000 11.0358 0.0000
# 6 0.0000 0.0000 0.0000 0.0000 0.0000 -8.0291
#
#
#
# Elastic Compliance Matrix: (Units=1/GPa)
#
#
# Indices 1 2 3 4 5 6 
#
# 1 0.009050 -0.001549 -0.000274 0.000000 0.000000 0.000000
# 2 -0.001549 0.013209 -0.003662 0.000000 0.000000 0.000000
# 3 -0.000274 -0.003662 0.013639 0.000000 0.000000 0.000000
# 4 0.000000 0.000000 0.000000 0.022492 0.000000 0.000000
# 5 0.000000 0.000000 0.000000 0.000000 0.090614 0.000000
# 6 0.000000 0.000000 0.000000 0.000000 0.000000 -0.124547
#
#
# Mechanical properties :
#
#
# Convention : Reuss Voigt Hill
#
# Bulk Modulus (GPa) = 40.11636 40.54543 40.33089
# Shear Modulus (GPa) = 114.32109 24.99184 69.65646
#
# Velocity S-wave (km/s) = 7.18683 3.36026 5.60990
# Velocity P-wave (km/s) = 9.32695 5.77699 7.75776
#
# Compressibility (1/GPa) = 0.02492749
#
# Stress axis : x y z
#
# Youngs Moduli (GPa) = 110.49600 75.70694 73.31882
#
# Poissons Ratio (x) = 0.11727 0.02009
# Poissons Ratio (y) = 0.17116 0.26851
# Poissons Ratio (z) = 0.03028 0.27725
#
# Static dielectric constant tensor:
#      x y z
#    x 1.798650 0.000000 0.000000 
#    y 0.000000 1.836410 0.000000 
#    z 0.000000 0.000000 1.858500 
# 
# From -- ./inp_files/2750.got.cif
#   From: 2010.05.17/outbox.cif.g08.bks.cpg/sg64_2_cif.got.tgz:2750.got - 2010.06.03 16:29:19.
