data_PCOD9480869
_publ_section_title
;
Structure prediction by ZEFSAII (Michael W. Deem and Ramdas Pophale) SiO2 
 PCOD9480869
Probable space group: C M C A
;
_chemical_formula_sum "Si O2"
_cell_formula_units_Z 64
_cell_length_a 17.245043
_cell_length_b 16.478643
_cell_length_c 8.600066
_cell_angle_alpha 90.000000
_cell_angle_beta 90.000000
_cell_angle_gamma 90.000000
_cell_volume 2443.922957
_symmetry_space_group_name_H-M "C M C A"
_symmetry_group_IT_number 64
_symmetry_cell_setting 'orthorhombic'
loop_
_space_group_symop_operation_xyz
x,y,z
-x,1/2-y,1/2+z
x,-y,-z
-x,1/2+y,1/2-z
-x,-y,-z
x,1/2+y,1/2-z
-x,y,z
x,1/2-y,1/2+z
1/2+x,1/2+y,z
1/2-x,-y,1/2+z
1/2+x,1/2-y,-z
1/2-x,y,1/2-z
1/2-x,1/2-y,-z
1/2+x,y,1/2-z
1/2-x,1/2+y,z
1/2+x,-y,1/2+z
loop_
_atom_site_type_symbol
_atom_site_label
_atom_site_fract_x
_atom_site_fract_y
_atom_site_fract_z
Si Si1 0.132561 0.500000 0.000000
Si Si2 0.750000 0.760296 0.750000
Si Si3 0.750000 0.976878 0.250000
Si Si4 0.000000 0.252585 0.347513
Si Si5 0.366148 0.500000 0.000000
Si Si6 0.356694 0.174935 0.989260
Si Si7 0.500000 0.879667 0.566179
O O1 0.186552 0.520004 0.146133
O O2 0.101099 0.411690 0.036076
O O3 0.684149 0.705020 0.668386
O O4 0.788551 0.813967 0.616097
O O5 0.808284 0.947400 0.111564
O O6 0.076516 0.229913 0.442749
O O7 0.000000 0.349399 0.384260
O O8 0.000000 0.193409 0.195544
O O9 0.424020 0.563384 0.084854
#
# Coordination Sequence:
#
# PCOD9480869 Si02
#       7
#     8   8   8   8   8  16   8
#     4  11  22  38  66 100 132 175 234 297 354 428
#     4  10  24  44  66  96 136 182 228 296 368 436
#     4  10  22  40  72 106 136 174 238 306 362 422
#     4  12  26  45  70 105 148 196 242 306 370 441
#     4  10  24  49  78 108 144 195 250 308 370 449
#     4  11  24  43  67  97 136 180 235 291 361 431
#     4  11  26  48  74 107 152 198 246 303 378 446
#
# _framework density 26.187405999999999
#
# number of rings (size 3 to 8) (size 9 to 14) (size 15 to 20)
#    0.000    1.250    0.000    4.500    0.000   14.500 
#    0.000    1.250    0.000    6.000    0.000    0.000 
#    0.000    0.000    0.000    0.000    0.000    0.000 
#
# Total GULP energy -178138.574653 kJ/mol
# GULP energy per Si atom -5566.830458 kJ/mol
# Density = 2.612780 g / cm^3
# Si number density = 26.187406 Si / 1000 Ang^3
#
#
#
# Elastic Constant Matrix: (Units=GPa)
#
#
# Indices 1 2 3 4 5 6 
#
# 1 117.6777 18.4910 49.8230 0.0000 0.0000 0.0000
# 2 18.4910 83.5093 30.3052 0.0000 0.0000 0.0000
# 3 49.8230 30.3052 138.8470 0.0000 0.0000 0.0000
# 4 0.0000 0.0000 0.0000 33.3734 0.0000 0.0000
# 5 0.0000 0.0000 0.0000 0.0000 -15.3349 0.0000
# 6 0.0000 0.0000 0.0000 0.0000 0.0000 27.7835
#
#
#
# Elastic Compliance Matrix: (Units=1/GPa)
#
#
# Indices 1 2 3 4 5 6 
#
# 1 0.010096 -0.001000 -0.003405 0.000000 0.000000 0.000000
# 2 -0.001000 0.013104 -0.002501 0.000000 0.000000 0.000000
# 3 -0.003405 -0.002501 0.008970 0.000000 0.000000 0.000000
# 4 0.000000 0.000000 0.000000 0.029964 0.000000 0.000000
# 5 0.000000 0.000000 0.000000 0.000000 -0.065211 0.000000
# 6 0.000000 0.000000 0.000000 0.000000 0.000000 0.035993
#
#
# Mechanical properties :
#
#
# Convention : Reuss Voigt Hill
#
# Bulk Modulus (GPa) = 54.47169 59.69693 57.08431
# Shear Modulus (GPa) = 94.61209 25.25871 59.93540
#
# Velocity S-wave (km/s) = 6.01725 3.10907 4.78924
# Velocity P-wave (km/s) = 8.31398 5.97779 7.24072
#
# Compressibility (1/GPa) = 0.01835816
#
# Stress axis : x y z
#
# Youngs Moduli (GPa) = 99.04506 76.31352 111.48508
#
# Poissons Ratio (x) = 0.07632 0.37957
# Poissons Ratio (y) = 0.09905 0.27885
# Poissons Ratio (z) = 0.33722 0.19088
#
# Static dielectric constant tensor:
#      x y z
#    x 2.016710 0.000000 0.000000 
#    y 0.000000 2.070390 0.000000 
#    z 0.000000 0.000000 1.977640 
# 
# From -- ./inp_files/7855.got.cif
#   From: 2010.05.17/outbox.cif.g08.bks.cpg/sg64_4_cif.got.tgz:7855.got - 2010.06.03 16:29:19.
