data_PCOD9480121
_publ_section_title
;
Structure prediction by ZEFSAII (Michael W. Deem and Ramdas Pophale) SiO2 
 PCOD9480121
Probable space group: C M C A
;
_chemical_formula_sum "Si O2"
_cell_formula_units_Z 88
_cell_length_a 10.542679
_cell_length_b 30.964626
_cell_length_c 15.023417
_cell_angle_alpha 90.000000
_cell_angle_beta 90.000000
_cell_angle_gamma 90.000000
_cell_volume 4904.396166
_symmetry_space_group_name_H-M "C M C A"
_symmetry_group_IT_number 64
_symmetry_cell_setting 'orthorhombic'
loop_
_space_group_symop_operation_xyz
x,y,z
-x,1/2-y,1/2+z
x,-y,-z
-x,1/2+y,1/2-z
-x,-y,-z
x,1/2+y,1/2-z
-x,y,z
x,1/2-y,1/2+z
1/2+x,1/2+y,z
1/2-x,-y,1/2+z
1/2+x,1/2-y,-z
1/2-x,y,1/2-z
1/2-x,1/2-y,-z
1/2+x,y,1/2-z
1/2-x,1/2+y,z
1/2+x,-y,1/2+z
loop_
_atom_site_type_symbol
_atom_site_label
_atom_site_fract_x
_atom_site_fract_y
_atom_site_fract_z
Si Si1 0.250000 0.612820 0.750000
Si Si2 0.353915 0.671762 0.902056
Si Si3 0.000000 0.938138 0.304376
Si Si4 0.854474 0.266034 0.827466
Si Si5 0.500000 0.539777 0.308632
Si Si6 0.275242 0.647259 0.421761
Si Si7 0.500000 0.413320 0.510938
Si Si8 0.250000 0.908645 0.750000
O O1 0.269035 0.643630 0.835285
O O2 0.125656 0.583786 0.764037
O O3 0.500000 0.662613 0.879917
O O4 0.332375 0.722425 0.883639
O O5 0.325689 0.659497 0.003354
O O6 0.000000 0.929578 0.410512
O O7 0.000000 0.989282 0.288543
O O8 0.750000 0.267415 0.750000
O O9 0.838208 0.308748 0.886396
O O10 0.000000 0.264577 0.793066
O O11 0.500000 0.549080 0.414779
O O12 0.625953 0.562808 0.270325
O O13 0.378832 0.616509 0.467950
O O14 0.225313 0.621614 0.335615
#
# Coordination Sequence:
#
# PCOD9480121 Si02
#       8
#     8  16   8  16   8  16   8   8
#     4  12  23  39  66  88 120 168 204 257 307 380
#     4  11  24  40  59  94 128 165 214 255 305 361
#     4  12  23  42  66  87 123 162 202 260 322 367
#     4  11  23  39  62  92 129 169 211 257 302 364
#     4  10  23  42  61  97 120 155 204 259 314 382
#     4  11  21  40  64  91 125 164 206 250 310 366
#     4  10  21  38  65  88 117 159 208 249 300 384
#     4  10  23  39  68  92 124 158 202 253 315 378
#
# _framework density 17.943083999999999
#
# number of rings (size 3 to 8) (size 9 to 14) (size 15 to 20)
#    0.000    1.091    5.455    1.364    1.273    0.727 
#    1.636    0.000    0.000    1.091    0.000    0.000 
#    0.000    0.000    0.000    0.000    0.000    0.000 
#
# Total GULP energy -245751.190196 kJ/mol
# GULP energy per Si atom -5585.254323 kJ/mol
# Density = 1.790225 g / cm^3
# Si number density = 17.943084 Si / 1000 Ang^3
#
#
#
# Elastic Constant Matrix: (Units=GPa)
#
#
# Indices 1 2 3 4 5 6 
#
# 1 88.7462 47.3870 33.2866 0.0000 0.0000 0.0000
# 2 47.3870 132.2721 44.5187 0.0000 0.0000 0.0000
# 3 33.2866 44.5187 102.1624 0.0000 0.0000 0.0000
# 4 0.0000 0.0000 0.0000 23.8555 0.0000 0.0000
# 5 0.0000 0.0000 0.0000 0.0000 27.4589 0.0000
# 6 0.0000 0.0000 0.0000 0.0000 0.0000 57.4385
#
#
#
# Elastic Compliance Matrix: (Units=1/GPa)
#
#
# Indices 1 2 3 4 5 6 
#
# 1 0.014637 -0.004264 -0.002911 0.000000 0.000000 0.000000
# 2 -0.004264 0.010102 -0.003013 0.000000 0.000000 0.000000
# 3 -0.002911 -0.003013 0.012050 0.000000 0.000000 0.000000
# 4 0.000000 0.000000 0.000000 0.041919 0.000000 0.000000
# 5 0.000000 0.000000 0.000000 0.000000 0.036418 0.000000
# 6 0.000000 0.000000 0.000000 0.000000 0.000000 0.017410
#
#
# Mechanical properties :
#
#
# Convention : Reuss Voigt Hill
#
# Bulk Modulus (GPa) = 60.92733 63.72948 62.32840
# Shear Modulus (GPa) = 31.56944 34.94980 33.25962
#
# Velocity S-wave (km/s) = 4.19910 4.41819 4.31004
# Velocity P-wave (km/s) = 7.58548 7.84996 7.71885
#
# Compressibility (1/GPa) = 0.01641300
#
# Stress axis : x y z
#
# Youngs Moduli (GPa) = 68.32166 98.99300 82.99053
#
# Poissons Ratio (x) = 0.42210 0.24157
# Poissons Ratio (y) = 0.29132 0.25002
# Poissons Ratio (z) = 0.19887 0.29823
#
# Static dielectric constant tensor:
#      x y z
#    x 1.598120 0.000000 0.000000 
#    y 0.000000 1.591200 0.000000 
#    z 0.000000 0.000000 1.591520 
# 
# From -- ./inp_files/13356.got.cif
#   From: 2010.05.17/outbox.cif.g08.bks.cpg/sg64_7_cif.got.tgz:13356.got - 2010.06.03 16:29:19.
