data_PCOD9480947
_publ_section_title
;
Structure prediction by ZEFSAII (Michael W. Deem and Ramdas Pophale) SiO2 
 PCOD9480947
Probable space group: C M C A
;
_chemical_formula_sum "Si O2"
_cell_formula_units_Z 116
_cell_length_a 23.055429
_cell_length_b 14.471080
_cell_length_c 14.648666
_cell_angle_alpha 90.000000
_cell_angle_beta 90.000000
_cell_angle_gamma 90.000000
_cell_volume 4887.336356
_symmetry_space_group_name_H-M "C M C A"
_symmetry_group_IT_number 64
_symmetry_cell_setting 'orthorhombic'
loop_
_space_group_symop_operation_xyz
x,y,z
-x,1/2-y,1/2+z
x,-y,-z
-x,1/2+y,1/2-z
-x,-y,-z
x,1/2+y,1/2-z
-x,y,z
x,1/2-y,1/2+z
1/2+x,1/2+y,z
1/2-x,-y,1/2+z
1/2+x,1/2-y,-z
1/2-x,y,1/2-z
1/2-x,1/2-y,-z
1/2+x,y,1/2-z
1/2-x,1/2+y,z
1/2+x,-y,1/2+z
loop_
_atom_site_type_symbol
_atom_site_label
_atom_site_fract_x
_atom_site_fract_y
_atom_site_fract_z
Si Si1 0.564383 0.187666 0.192036
Si Si2 0.735385 0.774417 0.893997
Si Si3 0.104941 0.012617 0.639474
Si Si4 0.000000 0.500000 0.000000
Si Si5 0.140585 0.797271 0.856358
Si Si6 0.882627 0.688025 0.563763
Si Si7 0.733959 0.992607 0.897115
Si Si8 0.645148 0.480533 0.163250
O O1 0.500000 0.155501 0.214762
O O2 0.597112 0.098231 0.152292
O O3 0.594821 0.229529 0.280551
O O4 0.564817 0.262813 0.112988
O O5 0.795366 0.755138 0.841234
O O6 0.674562 0.724429 0.881419
O O7 0.727060 0.883711 0.878284
O O8 0.750000 0.750000 0.000000
O O9 0.052168 0.036654 0.572033
O O10 0.169626 0.034951 0.602937
O O11 0.110593 0.045590 0.744669
O O12 0.142320 0.909201 0.849398
O O13 0.122359 0.779867 0.960109
O O14 0.880920 0.579370 0.581357
O O15 0.784944 0.034310 0.835229
O O16 0.757491 0.000000 0.000000
#
# Coordination Sequence:
#
# PCOD9480947 Si02
#       8
#    16  16  16   4  16  16  16  16
#     4  11  24  44  64  90 130 180 227 273 328 396
#     4   9  18  34  61  95 128 164 207 267 337 404
#     4  11  23  43  66  93 132 178 225 274 331 405
#     4  12  24  48  72  92 134 196 230 270 332 416
#     4   9  21  41  67  91 129 175 219 273 346 405
#     4  11  21  42  65  99 133 169 217 284 343 401
#     4  11  19  36  65  99 133 174 218 272 345 407
#     4  10  22  41  67  99 134 168 224 285 340 409
#
# _framework density 23.734808000000001
#
# number of rings (size 3 to 8) (size 9 to 14) (size 15 to 20)
#    0.000    1.655    2.759    3.310    0.000    1.103 
#   13.655    0.000    0.000    2.483    0.000    0.000 
#    0.000    0.000    0.000    0.000    0.000    0.000 
#
# Total GULP energy -323323.386343 kJ/mol
# GULP energy per Si atom -5574.541144 kJ/mol
# Density = 2.368079 g / cm^3
# Si number density = 23.734808 Si / 1000 Ang^3
#
#
#
# Elastic Constant Matrix: (Units=GPa)
#
#
# Indices 1 2 3 4 5 6 
#
# 1 123.6384 8.5251 47.7887 0.0000 0.0000 0.0000
# 2 8.5251 59.2685 -6.1971 0.0000 0.0000 0.0000
# 3 47.7887 -6.1971 105.4393 0.0000 0.0000 0.0000
# 4 0.0000 0.0000 0.0000 17.1639 0.0000 0.0000
# 5 0.0000 0.0000 0.0000 0.0000 27.6050 0.0000
# 6 0.0000 0.0000 0.0000 0.0000 0.0000 9.5400
#
#
#
# Elastic Compliance Matrix: (Units=1/GPa)
#
#
# Indices 1 2 3 4 5 6 
#
# 1 0.010020 -0.001928 -0.004655 0.000000 0.000000 0.000000
# 2 -0.001928 0.017348 0.001893 0.000000 0.000000 0.000000
# 3 -0.004655 0.001893 0.011705 0.000000 0.000000 0.000000
# 4 0.000000 0.000000 0.000000 0.058262 0.000000 0.000000
# 5 0.000000 0.000000 0.000000 0.000000 0.036225 0.000000
# 6 0.000000 0.000000 0.000000 0.000000 0.000000 0.104822
#
#
# Mechanical properties :
#
#
# Convention : Reuss Voigt Hill
#
# Bulk Modulus (GPa) = 33.67657 43.17552 38.42604
# Shear Modulus (GPa) = 19.40548 26.74375 23.07462
#
# Velocity S-wave (km/s) = 2.86247 3.36039 3.12137
# Velocity P-wave (km/s) = 5.01442 5.76945 5.40514
#
# Compressibility (1/GPa) = 0.02969424
#
# Stress axis : x y z
#
# Youngs Moduli (GPa) = 99.79820 57.64465 85.43256
#
# Poissons Ratio (x) = 0.11114 0.39767
# Poissons Ratio (y) = 0.19241 -0.16176
# Poissons Ratio (z) = 0.46454 -0.10915
#
# Static dielectric constant tensor:
#      x y z
#    x 1.916950 0.000000 0.000000 
#    y 0.000000 1.909960 0.000000 
#    z 0.000000 0.000000 1.900310 
# 
# From -- ./inp_files/27574.got.cif
#   From: 2010.05.17/outbox.cif.g08.bks.cpg/sg64_14_cif.got.tgz:27574.got - 2010.06.03 16:29:19.
