data_PCOD9480975
_publ_section_title
;
Structure prediction by ZEFSAII (Michael W. Deem and Ramdas Pophale) SiO2 
 PCOD9480975
Probable space group: C M C A
;
_chemical_formula_sum "Si O2"
_cell_formula_units_Z 88
_cell_length_a 27.142581
_cell_length_b 7.153802
_cell_length_c 20.338737
_cell_angle_alpha 90.000000
_cell_angle_beta 90.000000
_cell_angle_gamma 90.000000
_cell_volume 3949.226466
_symmetry_space_group_name_H-M "C M C A"
_symmetry_group_IT_number 64
_symmetry_cell_setting 'orthorhombic'
loop_
_space_group_symop_operation_xyz
x,y,z
-x,1/2-y,1/2+z
x,-y,-z
-x,1/2+y,1/2-z
-x,-y,-z
x,1/2+y,1/2-z
-x,y,z
x,1/2-y,1/2+z
1/2+x,1/2+y,z
1/2-x,-y,1/2+z
1/2+x,1/2-y,-z
1/2-x,y,1/2-z
1/2-x,1/2-y,-z
1/2+x,y,1/2-z
1/2-x,1/2+y,z
1/2+x,-y,1/2+z
loop_
_atom_site_type_symbol
_atom_site_label
_atom_site_fract_x
_atom_site_fract_y
_atom_site_fract_z
Si Si1 0.621356 0.847533 0.782518
Si Si2 0.317736 0.406674 0.840305
Si Si3 0.665095 0.500000 0.500000
Si Si4 0.941991 0.655870 0.827615
Si Si5 0.704856 0.972487 0.859134
Si Si6 0.108412 0.142514 0.053388
O O1 0.587565 0.962222 0.833794
O O2 0.670811 0.814392 0.825635
O O3 0.648628 0.956706 0.721889
O O4 0.581410 0.731752 0.740599
O O5 0.316004 0.177282 0.839953
O O6 0.261238 0.463934 0.837843
O O7 0.346057 0.453549 0.907461
O O8 0.698849 0.456477 0.562899
O O9 0.630887 0.324410 0.481842
O O10 0.927731 0.788760 0.888533
O O11 0.000000 0.633271 0.822553
O O12 0.087507 0.000000 0.000000
#
# Coordination Sequence:
#
# PCOD9480975 Si02
#       6
#    16  16   8  16  16  16
#     4  11  21  43  62  91 132 165 211 281 327 388
#     4  10  24  37  60  98 130 176 218 261 323 399
#     4  10  22  42  63  96 138 180 219 264 326 394
#     4  11  24  44  68  96 124 168 228 283 342 400
#     4  11  23  38  62  94 136 174 219 262 319 407
#     4  10  23  44  65  97 138 175 221 276 332 400
#
# _framework density 22.282847
#
# number of rings (size 3 to 8) (size 9 to 14) (size 15 to 20)
#    0.000    1.455    5.455    1.091    6.364    4.727 
#    0.000    0.455    0.000    0.000    0.000    0.000 
#    0.000    0.000    0.000    0.000    0.000    0.000 
#
# Total GULP energy -245559.051315 kJ/mol
# GULP energy per Si atom -5580.887530 kJ/mol
# Density = 2.223213 g / cm^3
# Si number density = 22.282847 Si / 1000 Ang^3
#
#
#
# Elastic Constant Matrix: (Units=GPa)
#
#
# Indices 1 2 3 4 5 6 
#
# 1 175.3066 10.6731 35.0900 0.0000 0.0000 0.0000
# 2 10.6731 22.9255 21.3368 0.0000 0.0000 0.0000
# 3 35.0900 21.3368 107.4568 0.0000 0.0000 0.0000
# 4 0.0000 0.0000 0.0000 37.9101 0.0000 0.0000
# 5 0.0000 0.0000 0.0000 0.0000 15.8454 0.0000
# 6 0.0000 0.0000 0.0000 0.0000 0.0000 18.5247
#
#
#
# Elastic Compliance Matrix: (Units=1/GPa)
#
#
# Indices 1 2 3 4 5 6 
#
# 1 0.006131 -0.001216 -0.001761 0.000000 0.000000 0.000000
# 2 -0.001216 0.053749 -0.010276 0.000000 0.000000 0.000000
# 3 -0.001761 -0.010276 0.011921 0.000000 0.000000 0.000000
# 4 0.000000 0.000000 0.000000 0.026378 0.000000 0.000000
# 5 0.000000 0.000000 0.000000 0.000000 0.063110 0.000000
# 6 0.000000 0.000000 0.000000 0.000000 0.000000 0.053982
#
#
# Mechanical properties :
#
#
# Convention : Reuss Voigt Hill
#
# Bulk Modulus (GPa) = 22.07626 48.87654 35.47640
# Shear Modulus (GPa) = 19.46480 30.36195 24.91337
#
# Velocity S-wave (km/s) = 2.95877 3.69531 3.34736
# Velocity P-wave (km/s) = 4.64771 6.33950 5.55835
#
# Compressibility (1/GPa) = 0.04529752
#
# Stress axis : x y z
#
# Youngs Moduli (GPa) = 163.11322 18.60499 83.88329
#
# Poissons Ratio (x) = 0.02262 0.14769
# Poissons Ratio (y) = 0.19828 0.86195
# Poissons Ratio (z) = 0.28718 0.19118
#
# Static dielectric constant tensor:
#      x y z
#    x 1.766730 0.000000 0.000000 
#    y 0.000000 2.057350 0.000000 
#    z 0.000000 0.000000 1.848980 
# 
# From -- ./inp_files/35709.got.cif
#   From: 2010.05.17/outbox.cif.g08.bks.cpg/sg64_18_cif.got.tgz:35709.got - 2010.06.03 16:29:19.
