data_PCOD9480290
_publ_section_title
;
Structure prediction by ZEFSAII (Michael W. Deem and Ramdas Pophale) SiO2 
 PCOD9480290
Probable space group: C M C A
;
_chemical_formula_sum "Si O2"
_cell_formula_units_Z 56
_cell_length_a 9.916203
_cell_length_b 17.516381
_cell_length_c 14.417297
_cell_angle_alpha 90.000000
_cell_angle_beta 90.000000
_cell_angle_gamma 90.000000
_cell_volume 2504.226673
_symmetry_space_group_name_H-M "C M C A"
_symmetry_group_IT_number 64
_symmetry_cell_setting 'orthorhombic'
loop_
_space_group_symop_operation_xyz
x,y,z
-x,1/2-y,1/2+z
x,-y,-z
-x,1/2+y,1/2-z
-x,-y,-z
x,1/2+y,1/2-z
-x,y,z
x,1/2-y,1/2+z
1/2+x,1/2+y,z
1/2-x,-y,1/2+z
1/2+x,1/2-y,-z
1/2-x,y,1/2-z
1/2-x,1/2-y,-z
1/2+x,y,1/2-z
1/2-x,1/2+y,z
1/2+x,-y,1/2+z
loop_
_atom_site_type_symbol
_atom_site_label
_atom_site_fract_x
_atom_site_fract_y
_atom_site_fract_z
Si Si1 0.209699 0.374312 0.909948
Si Si2 0.500000 0.631363 0.560202
Si Si3 0.500000 0.691361 0.103528
Si Si4 0.500000 0.591309 0.776010
Si Si5 0.750000 0.491938 0.750000
Si Si6 0.500000 0.734871 0.320703
O O1 0.365245 0.353764 0.922844
O O2 0.192732 0.438016 0.830932
O O3 0.131632 0.300182 0.869447
O O4 0.130840 0.395106 0.003217
O O5 0.500000 0.723790 0.561613
O O6 0.500000 0.604807 0.665084
O O7 0.500000 0.705063 0.214727
O O8 0.633774 0.543386 0.794767
O O9 0.500000 0.674137 0.822107
#
# Coordination Sequence:
#
# PCOD9480290 Si02
#       6
#    16   8   8   8   8   8
#     4  11  22  42  70  97 131 178 227 274 333 406
#     4  10  25  41  67  96 142 169 218 282 350 374
#     4  11  19  37  67 102 121 167 225 286 315 394
#     4  11  27  43  67 101 137 174 224 282 336 390
#     4  12  24  42  68  96 132 180 220 266 338 406
#     4  10  21  39  69  96 128 170 229 285 322 388
#
# _framework density 22.362193000000001
#
# number of rings (size 3 to 8) (size 9 to 14) (size 15 to 20)
#    0.000    1.143    2.857    3.429    8.000    2.286 
#    0.000    0.000    0.000    3.429    0.000    0.000 
#    0.000    0.000    0.000    0.000    0.000    0.000 
#
# Total GULP energy -156869.996334 kJ/mol
# GULP energy per Si atom -5602.499869 kJ/mol
# Density = 2.231130 g / cm^3
# Si number density = 22.362193 Si / 1000 Ang^3
#
#
#
# Elastic Constant Matrix: (Units=GPa)
#
#
# Indices 1 2 3 4 5 6 
#
# 1 151.1439 32.7672 2.2338 0.0000 0.0000 0.0000
# 2 32.7672 108.7631 15.6094 0.0000 0.0000 0.0000
# 3 2.2338 15.6094 61.2219 0.0000 0.0000 0.0000
# 4 0.0000 0.0000 0.0000 13.2195 0.0000 0.0000
# 5 0.0000 0.0000 0.0000 0.0000 31.8119 0.0000
# 6 0.0000 0.0000 0.0000 0.0000 0.0000 50.9602
#
#
#
# Elastic Compliance Matrix: (Units=1/GPa)
#
#
# Indices 1 2 3 4 5 6 
#
# 1 0.007084 -0.002177 0.000297 0.000000 0.000000 0.000000
# 2 -0.002177 0.010212 -0.002524 0.000000 0.000000 0.000000
# 3 0.000297 -0.002524 0.016967 0.000000 0.000000 0.000000
# 4 0.000000 0.000000 0.000000 0.075646 0.000000 0.000000
# 5 0.000000 0.000000 0.000000 0.000000 0.031435 0.000000
# 6 0.000000 0.000000 0.000000 0.000000 0.000000 0.019623
#
#
# Mechanical properties :
#
#
# Convention : Reuss Voigt Hill
#
# Bulk Modulus (GPa) = 39.28678 46.92773 43.10725
# Shear Modulus (GPa) = 28.04889 37.23291 32.64090
#
# Velocity S-wave (km/s) = 3.54545 4.08486 3.82468
# Velocity P-wave (km/s) = 5.86232 6.57867 6.23080
#
# Compressibility (1/GPa) = 0.02545386
#
# Stress axis : x y z
#
# Youngs Moduli (GPa) = 141.16879 97.92066 58.93853
#
# Poissons Ratio (x) = 0.21314 -0.01748
# Poissons Ratio (y) = 0.30728 0.14878
# Poissons Ratio (z) = -0.04186 0.24719
#
# Static dielectric constant tensor:
#      x y z
#    x 1.787970 0.000000 0.000000 
#    y 0.000000 1.793610 0.000000 
#    z 0.000000 0.000000 1.825600 
# 
# From -- ./inp_files/30583.got.cif
#   From: 2010.05.17/outbox.cif.g08.bks.cpg/sg64_16_cif.got.tgz:30583.got - 2010.06.03 16:29:19.
