data_PCOD9480175
_publ_section_title
;
Structure prediction by ZEFSAII (Michael W. Deem and Ramdas Pophale) SiO2 
 PCOD9480175
Probable space group: C M C A
;
_chemical_formula_sum "Si O2"
_cell_formula_units_Z 80
_cell_length_a 17.976228
_cell_length_b 8.815252
_cell_length_c 27.864757
_cell_angle_alpha 90.000000
_cell_angle_beta 90.000000
_cell_angle_gamma 90.000000
_cell_volume 4415.588156
_symmetry_space_group_name_H-M "C M C A"
_symmetry_group_IT_number 64
_symmetry_cell_setting 'orthorhombic'
loop_
_space_group_symop_operation_xyz
x,y,z
-x,1/2-y,1/2+z
x,-y,-z
-x,1/2+y,1/2-z
-x,-y,-z
x,1/2+y,1/2-z
-x,y,z
x,1/2-y,1/2+z
1/2+x,1/2+y,z
1/2-x,-y,1/2+z
1/2+x,1/2-y,-z
1/2-x,y,1/2-z
1/2-x,1/2-y,-z
1/2+x,y,1/2-z
1/2-x,1/2+y,z
1/2+x,-y,1/2+z
loop_
_atom_site_type_symbol
_atom_site_label
_atom_site_fract_x
_atom_site_fract_y
_atom_site_fract_z
Si Si1 0.913129 0.451327 0.198242
Si Si2 0.170698 0.757632 0.224003
Si Si3 0.911550 0.438351 0.552634
Si Si4 0.835914 0.297372 0.112487
Si Si5 0.190974 0.534366 0.631244
O O1 0.886164 0.331193 0.237987
O O2 0.862505 0.599468 0.205768
O O3 0.894986 0.378920 0.146551
O O4 0.000000 0.485907 0.203211
O O5 0.250000 0.738302 0.250000
O O6 0.179465 0.873935 0.179801
O O7 0.893662 0.500000 0.500000
O O8 0.873079 0.277246 0.565621
O O9 0.876965 0.547295 0.593662
O O10 0.000000 0.426728 0.557536
O O11 0.766192 0.407291 0.106342
O O12 0.805669 0.146282 0.139970
#
# Coordination Sequence:
#
# PCOD9480175 Si02
#       5
#    16  16  16  16  16
#     4  12  25  39  59  89 124 164 211 257 305 366
#     4  12  24  40  61  86 125 171 206 253 308 368
#     4   9  21  41  66  94 126 161 202 258 319 373
#     4  10  21  39  61  89 120 160 204 253 305 364
#     4  10  22  38  64  90 121 163 209 249 304 370
#
# _framework density 18.117630999999999
#
# number of rings (size 3 to 8) (size 9 to 14) (size 15 to 20)
#    1.200    0.200    2.000    4.200    0.000    2.400 
#    0.000    0.000    0.000    0.000    0.000    7.000 
#    0.000    0.000    0.000    0.000    0.000    0.000 
#
# Total GULP energy -223083.314208 kJ/mol
# GULP energy per Si atom -5577.082855 kJ/mol
# Density = 1.807639 g / cm^3
# Si number density = 18.117631 Si / 1000 Ang^3
#
#
#
# Elastic Constant Matrix: (Units=GPa)
#
#
# Indices 1 2 3 4 5 6 
#
# 1 81.4563 24.8487 6.8247 0.0000 0.0000 0.0000
# 2 24.8487 72.5343 6.8061 0.0000 0.0000 0.0000
# 3 6.8247 6.8061 20.5276 0.0000 0.0000 0.0000
# 4 0.0000 0.0000 0.0000 20.4527 0.0000 0.0000
# 5 0.0000 0.0000 0.0000 0.0000 32.4368 0.0000
# 6 0.0000 0.0000 0.0000 0.0000 0.0000 21.1951
#
#
#
# Elastic Compliance Matrix: (Units=1/GPa)
#
#
# Indices 1 2 3 4 5 6 
#
# 1 0.013903 -0.004468 -0.003141 0.000000 0.000000 0.000000
# 2 -0.004468 0.015665 -0.003708 0.000000 0.000000 0.000000
# 3 -0.003141 -0.003708 0.050989 0.000000 0.000000 0.000000
# 4 0.000000 0.000000 0.000000 0.048893 0.000000 0.000000
# 5 0.000000 0.000000 0.000000 0.000000 0.030829 0.000000
# 6 0.000000 0.000000 0.000000 0.000000 0.000000 0.047181
#
#
# Mechanical properties :
#
#
# Convention : Reuss Voigt Hill
#
# Bulk Modulus (GPa) = 17.26458 27.94191 22.60325
# Shear Modulus (GPa) = 20.04798 23.88616 21.96707
#
# Velocity S-wave (km/s) = 3.33009 3.63491 3.48583
# Velocity P-wave (km/s) = 4.93313 5.75089 5.35764
#
# Compressibility (1/GPa) = 0.05792204
#
# Stress axis : x y z
#
# Youngs Moduli (GPa) = 71.92866 63.83577 19.61220
#
# Poissons Ratio (x) = 0.28522 0.06160
# Poissons Ratio (y) = 0.32138 0.07273
# Poissons Ratio (z) = 0.22591 0.23673
#
# Static dielectric constant tensor:
#      x y z
#    x 1.610950 0.000000 0.000000 
#    y 0.000000 1.629720 0.000000 
#    z 0.000000 0.000000 1.618520 
# 
# From -- ./inp_files/50282.got.cif
#   From: 2010.05.17/outbox.cif.g08.bks.cpg/sg64_26_cif.got.tgz:50282.got - 2010.06.03 16:29:19.
