data_PCOD9480844
_publ_section_title
;
Structure prediction by ZEFSAII (Michael W. Deem and Ramdas Pophale) SiO2 
 PCOD9480844
Probable space group: C M C A
;
_chemical_formula_sum "Si O2"
_cell_formula_units_Z 72
_cell_length_a 14.978915
_cell_length_b 14.436439
_cell_length_c 14.611010
_cell_angle_alpha 90.000000
_cell_angle_beta 90.000000
_cell_angle_gamma 90.000000
_cell_volume 3159.516840
_symmetry_space_group_name_H-M "C M C A"
_symmetry_group_IT_number 64
_symmetry_cell_setting 'orthorhombic'
loop_
_space_group_symop_operation_xyz
x,y,z
-x,1/2-y,1/2+z
x,-y,-z
-x,1/2+y,1/2-z
-x,-y,-z
x,1/2+y,1/2-z
-x,y,z
x,1/2-y,1/2+z
1/2+x,1/2+y,z
1/2-x,-y,1/2+z
1/2+x,1/2-y,-z
1/2-x,y,1/2-z
1/2-x,1/2-y,-z
1/2+x,y,1/2-z
1/2-x,1/2+y,z
1/2+x,-y,1/2+z
loop_
_atom_site_type_symbol
_atom_site_label
_atom_site_fract_x
_atom_site_fract_y
_atom_site_fract_z
Si Si1 0.342869 0.886254 0.211538
Si Si2 0.801644 0.206813 0.089073
Si Si3 0.000000 0.801704 0.879426
Si Si4 0.330026 0.050529 0.085870
Si Si5 0.000000 0.838500 0.521999
Si Si6 0.000000 0.791649 0.191761
O O1 0.250000 0.921780 0.250000
O O2 0.316088 0.794493 0.154741
O O3 0.413505 0.853120 0.286341
O O4 0.371685 0.972906 0.150736
O O5 0.903329 0.165192 0.082816
O O6 0.736982 0.126603 0.126304
O O7 0.750000 0.250000 0.000000
O O8 0.000000 0.791059 0.769202
O O9 0.000000 0.696248 0.918370
O O10 0.412078 0.105508 0.042833
O O11 0.282189 0.000000 0.000000
O O12 0.000000 0.751975 0.591959
#
# Coordination Sequence:
#
# PCOD9480844 Si02
#       6
#    16  16   8  16   8   8
#     4  11  24  41  63  95 134 169 217 274 328 400
#     4  11  21  42  67  92 128 170 221 272 339 396
#     4  10  22  40  65  95 126 166 216 276 324 392
#     4  12  23  39  67  97 128 170 229 275 331 401
#     4  12  22  38  72  96 128 178 217 272 345 396
#     4  10  23  42  63  95 132 166 217 275 333 396
#
# _framework density 22.788294
#
# number of rings (size 3 to 8) (size 9 to 14) (size 15 to 20)
#    0.000    0.889    4.444    3.667    0.000    4.444 
#    0.000    1.667    0.000    0.000    0.000    0.000 
#    0.000    0.000    0.000    0.000    0.000    0.000 
#
# Total GULP energy -201037.642979 kJ/mol
# GULP energy per Si atom -5584.378972 kJ/mol
# Density = 2.273643 g / cm^3
# Si number density = 22.788294 Si / 1000 Ang^3
#
#
#
# Elastic Constant Matrix: (Units=GPa)
#
#
# Indices 1 2 3 4 5 6 
#
# 1 114.0310 6.3830 -14.5690 0.0000 0.0000 0.0000
# 2 6.3830 90.9634 0.4555 0.0000 0.0000 0.0000
# 3 -14.5690 0.4555 32.8188 0.0000 0.0000 0.0000
# 4 0.0000 0.0000 0.0000 17.6251 0.0000 0.0000
# 5 0.0000 0.0000 0.0000 0.0000 16.9142 0.0000
# 6 0.0000 0.0000 0.0000 0.0000 0.0000 -68.4282
#
#
#
# Elastic Compliance Matrix: (Units=1/GPa)
#
#
# Indices 1 2 3 4 5 6 
#
# 1 0.009338 -0.000676 0.004155 0.000000 0.000000 0.000000
# 2 -0.000676 0.011043 -0.000453 0.000000 0.000000 0.000000
# 3 0.004155 -0.000453 0.032321 0.000000 0.000000 0.000000
# 4 0.000000 0.000000 0.000000 0.056737 0.000000 0.000000
# 5 0.000000 0.000000 0.000000 0.000000 0.059122 0.000000
# 6 0.000000 0.000000 0.000000 0.000000 0.000000 -0.014614
#
#
# Mechanical properties :
#
#
# Convention : Reuss Voigt Hill
#
# Bulk Modulus (GPa) = 17.02035 24.70579 20.86307
# Shear Modulus (GPa) = 29.85404 9.59180 19.72292
#
# Velocity S-wave (km/s) = 3.62340 2.05383 2.94510
# Velocity P-wave (km/s) = 4.99905 4.06070 4.55411
#
# Compressibility (1/GPa) = 0.05875320
#
# Stress axis : x y z
#
# Youngs Moduli (GPa) = 107.08668 90.55395 30.93956
#
# Poissons Ratio (x) = 0.06122 -0.12855
# Poissons Ratio (y) = 0.07240 0.01403
# Poissons Ratio (z) = -0.44493 0.04106
#
# Static dielectric constant tensor:
#      x y z
#    x 1.553290 0.000000 0.000000 
#    y 0.000000 1.831870 0.000000 
#    z 0.000000 0.000000 1.881840 
# 
# From -- ./inp_files/31940.got.cif
#   From: 2010.05.17/outbox.cif.g08.bks.cpg/sg64_16_cif.got.tgz:31940.got - 2010.06.03 16:29:19.
