data_PCOD9480387
_publ_section_title
;
Structure prediction by ZEFSAII (Michael W. Deem and Ramdas Pophale) SiO2 
 PCOD9480387
Probable space group: C M C A
;
_chemical_formula_sum "Si O2"
_cell_formula_units_Z 64
_cell_length_a 8.482168
_cell_length_b 29.544361
_cell_length_c 13.674849
_cell_angle_alpha 90.000000
_cell_angle_beta 90.000000
_cell_angle_gamma 90.000000
_cell_volume 3426.920352
_symmetry_space_group_name_H-M "C M C A"
_symmetry_group_IT_number 64
_symmetry_cell_setting 'orthorhombic'
loop_
_space_group_symop_operation_xyz
x,y,z
-x,1/2-y,1/2+z
x,-y,-z
-x,1/2+y,1/2-z
-x,-y,-z
x,1/2+y,1/2-z
-x,y,z
x,1/2-y,1/2+z
1/2+x,1/2+y,z
1/2-x,-y,1/2+z
1/2+x,1/2-y,-z
1/2-x,y,1/2-z
1/2-x,1/2-y,-z
1/2+x,y,1/2-z
1/2-x,1/2+y,z
1/2+x,-y,1/2+z
loop_
_atom_site_type_symbol
_atom_site_label
_atom_site_fract_x
_atom_site_fract_y
_atom_site_fract_z
Si Si1 0.175062 0.970721 0.401905
Si Si2 0.500000 0.204545 0.381314
Si Si3 0.750000 0.043053 0.250000
Si Si4 0.500000 0.809080 0.383044
Si Si5 0.250000 0.757922 0.250000
Si Si6 0.000000 0.597786 0.367918
Si Si7 0.500000 0.583316 0.903625
O O1 0.332423 0.941068 0.377639
O O2 0.000000 0.947627 0.410215
O O3 0.203933 0.000000 0.500000
O O4 0.160887 0.008738 0.319955
O O5 0.500000 0.206509 0.501427
O O6 0.646626 0.227593 0.324767
O O7 0.500000 0.151374 0.359589
O O8 0.647285 0.075314 0.316361
O O9 0.353821 0.788705 0.322512
O O10 0.500000 0.863680 0.375478
O O11 0.000000 0.583535 0.479579
#
# Coordination Sequence:
#
# PCOD9480387 Si02
#       7
#    16   8   8   8   8   8   8
#     4  11  23  39  59  87 123 166 212 257 313 372
#     4  10  21  40  68  95 125 167 205 270 335 388
#     4  12  21  37  58  84 120 164 202 261 309 364
#     4  10  23  41  68  92 129 169 208 269 324 391
#     4  10  21  43  64  96 130 160 214 255 331 416
#     4  11  22  37  61  90 120 156 213 263 312 369
#     4  11  23  43  61  86 129 167 212 263 317 367
#
# _framework density 18.675661999999999
#
# number of rings (size 3 to 8) (size 9 to 14) (size 15 to 20)
#    0.000    1.250    3.750    2.625    0.000    1.000 
#    4.500    0.000    5.500    0.000    0.000    0.000 
#    0.000    0.000    0.000    0.000    0.000    0.000 
#
# Total GULP energy -178253.070913 kJ/mol
# GULP energy per Si atom -5570.408466 kJ/mol
# Density = 1.863316 g / cm^3
# Si number density = 18.675662 Si / 1000 Ang^3
#
#
#
# Elastic Constant Matrix: (Units=GPa)
#
#
# Indices 1 2 3 4 5 6 
#
# 1 166.0225 91.5326 56.6667 0.0000 0.0000 0.0000
# 2 91.5326 120.3231 76.3827 0.0000 0.0000 0.0000
# 3 56.6667 76.3827 124.9220 0.0000 0.0000 0.0000
# 4 0.0000 0.0000 0.0000 34.7196 0.0000 0.0000
# 5 0.0000 0.0000 0.0000 0.0000 31.0816 0.0000
# 6 0.0000 0.0000 0.0000 0.0000 0.0000 -95.4435
#
#
#
# Elastic Compliance Matrix: (Units=1/GPa)
#
#
# Indices 1 2 3 4 5 6 
#
# 1 0.010377 -0.008018 0.000195 0.000000 0.000000 0.000000
# 2 -0.008018 0.019779 -0.008456 0.000000 0.000000 0.000000
# 3 0.000195 -0.008456 0.013087 0.000000 0.000000 0.000000
# 4 0.000000 0.000000 0.000000 0.028802 0.000000 0.000000
# 5 0.000000 0.000000 0.000000 0.000000 0.032173 0.000000
# 6 0.000000 0.000000 0.000000 0.000000 0.000000 -0.010477
#
#
# Mechanical properties :
#
#
# Convention : Reuss Voigt Hill
#
# Bulk Modulus (GPa) = 93.59316 95.60351 94.59833
# Shear Modulus (GPa) = 38.50251 6.51723 22.50987
#
# Velocity S-wave (km/s) = 4.54546 1.87010 3.47552
# Velocity P-wave (km/s) = 8.81885 7.48102 8.17734
#
# Compressibility (1/GPa) = 0.01068454
#
# Stress axis : x y z
#
# Youngs Moduli (GPa) = 96.36440 50.55877 76.41168
#
# Poissons Ratio (x) = 0.40540 -0.01493
# Poissons Ratio (y) = 0.77268 0.64617
# Poissons Ratio (z) = -0.01883 0.42755
#
# Static dielectric constant tensor:
#      x y z
#    x 1.820950 0.000000 0.000000 
#    y 0.000000 1.603040 0.000000 
#    z 0.000000 0.000000 1.660290 
# 
# From -- ./inp_files/12211.got.cif
#   From: 2010.05.17/outbox.cif.g08.bks.cpg/sg64_7_cif.got.tgz:12211.got - 2010.06.03 16:29:19.
