data_PCOD9480274
_publ_section_title
;
Structure prediction by ZEFSAII (Michael W. Deem and Ramdas Pophale) SiO2 
 PCOD9480274
Probable space group: C M C A
;
_chemical_formula_sum "Si O2"
_cell_formula_units_Z 80
_cell_length_a 14.158419
_cell_length_b 9.381156
_cell_length_c 24.235023
_cell_angle_alpha 90.000000
_cell_angle_beta 90.000000
_cell_angle_gamma 90.000000
_cell_volume 3218.952401
_symmetry_space_group_name_H-M "C M C A"
_symmetry_group_IT_number 64
_symmetry_cell_setting 'orthorhombic'
loop_
_space_group_symop_operation_xyz
x,y,z
-x,1/2-y,1/2+z
x,-y,-z
-x,1/2+y,1/2-z
-x,-y,-z
x,1/2+y,1/2-z
-x,y,z
x,1/2-y,1/2+z
1/2+x,1/2+y,z
1/2-x,-y,1/2+z
1/2+x,1/2-y,-z
1/2-x,y,1/2-z
1/2-x,1/2-y,-z
1/2+x,y,1/2-z
1/2-x,1/2+y,z
1/2+x,-y,1/2+z
loop_
_atom_site_type_symbol
_atom_site_label
_atom_site_fract_x
_atom_site_fract_y
_atom_site_fract_z
Si Si1 0.109488 0.994193 0.702931
Si Si2 0.115556 0.819490 0.809704
Si Si3 0.104127 0.475409 0.918840
Si Si4 0.188837 0.476154 0.582245
Si Si5 0.603815 0.199528 0.510104
O O1 0.148007 0.154223 0.693813
O O2 0.000000 0.020465 0.716924
O O3 0.143314 0.899633 0.753375
O O4 0.110031 0.915178 0.643852
O O5 0.162604 0.904536 0.860145
O O6 0.000000 0.821642 0.816629
O O7 0.206917 0.544555 0.922091
O O8 0.105175 0.357763 0.966410
O O9 0.000000 0.548448 0.920520
O O10 0.118415 0.599070 0.563051
O O11 0.176763 0.353853 0.535567
O O12 0.500000 0.172873 0.486112
#
# Coordination Sequence:
#
# PCOD9480274 Si02
#       5
#    16  16  16  16  16
#     4   9  21  40  62  94 133 171 213 264 332 391
#     4  10  21  39  66  97 131 169 215 273 327 388
#     4  10  23  42  62  90 133 174 213 268 325 387
#     4  11  22  38  67  94 127 169 225 267 319 391
#     4  10  22  42  66  95 130 171 219 269 328 391
#
# _framework density 24.852806000000001
#
# number of rings (size 3 to 8) (size 9 to 14) (size 15 to 20)
#    0.000    2.000    0.000    3.000    5.600    0.800 
#    0.000    4.000    0.000    0.000    0.000    0.000 
#    0.000    0.000    0.000    0.000    0.000    0.000 
#
# Total GULP energy -223478.106817 kJ/mol
# GULP energy per Si atom -5586.952670 kJ/mol
# Density = 2.479624 g / cm^3
# Si number density = 24.852806 Si / 1000 Ang^3
#
#
#
# Elastic Constant Matrix: (Units=GPa)
#
#
# Indices 1 2 3 4 5 6 
#
# 1 140.5980 14.1261 21.4573 0.0000 0.0000 0.0000
# 2 14.1261 83.2882 30.7588 0.0000 0.0000 0.0000
# 3 21.4573 30.7588 128.8643 0.0000 0.0000 0.0000
# 4 0.0000 0.0000 0.0000 45.8508 0.0000 0.0000
# 5 0.0000 0.0000 0.0000 0.0000 17.1848 0.0000
# 6 0.0000 0.0000 0.0000 0.0000 0.0000 -0.3883
#
#
#
# Elastic Compliance Matrix: (Units=1/GPa)
#
#
# Indices 1 2 3 4 5 6 
#
# 1 0.007355 -0.000872 -0.001017 0.000000 0.000000 0.000000
# 2 -0.000872 0.013271 -0.003022 0.000000 0.000000 0.000000
# 3 -0.001017 -0.003022 0.008651 0.000000 0.000000 0.000000
# 4 0.000000 0.000000 0.000000 0.021810 0.000000 0.000000
# 5 0.000000 0.000000 0.000000 0.000000 0.058191 0.000000
# 6 0.000000 0.000000 0.000000 0.000000 0.000000 -2.575174
#
#
# Mechanical properties :
#
#
# Convention : Reuss Voigt Hill
#
# Bulk Modulus (GPa) = 51.40171 53.93721 52.66946
# Shear Modulus (GPa) = -2.04116 31.62336 14.79110
#
# Velocity S-wave (km/s) = -0.90724 3.57098 2.44221
# Velocity P-wave (km/s) = 4.43057 6.22513 5.40288
#
# Compressibility (1/GPa) = 0.01945460
#
# Stress axis : x y z
#
# Youngs Moduli (GPa) = 135.95751 75.35466 115.59645
#
# Poissons Ratio (x) = 0.06571 0.11751
# Poissons Ratio (y) = 0.11856 0.34937
# Poissons Ratio (z) = 0.13821 0.22775
#
# Static dielectric constant tensor:
#      x y z
#    x 2.010130 0.000000 0.000000 
#    y 0.000000 1.975240 0.000000 
#    z 0.000000 0.000000 1.932420 
# 
# From -- ./inp_files/44949.got.cif
#   From: 2010.05.17/outbox.cif.g08.bks.cpg/sg64_23_cif.got.tgz:44949.got - 2010.06.03 16:29:19.
