data_PCOD9480416
_publ_section_title
;
Structure prediction by ZEFSAII (Michael W. Deem and Ramdas Pophale) SiO2 
 PCOD9480416
Probable space group: C M C A
;
_chemical_formula_sum "Si O2"
_cell_formula_units_Z 88
_cell_length_a 17.826354
_cell_length_b 13.761341
_cell_length_c 18.219077
_cell_angle_alpha 90.000000
_cell_angle_beta 90.000000
_cell_angle_gamma 90.000000
_cell_volume 4469.404424
_symmetry_space_group_name_H-M "C M C A"
_symmetry_group_IT_number 64
_symmetry_cell_setting 'orthorhombic'
loop_
_space_group_symop_operation_xyz
x,y,z
-x,1/2-y,1/2+z
x,-y,-z
-x,1/2+y,1/2-z
-x,-y,-z
x,1/2+y,1/2-z
-x,y,z
x,1/2-y,1/2+z
1/2+x,1/2+y,z
1/2-x,-y,1/2+z
1/2+x,1/2-y,-z
1/2-x,y,1/2-z
1/2-x,1/2-y,-z
1/2+x,y,1/2-z
1/2-x,1/2+y,z
1/2+x,-y,1/2+z
loop_
_atom_site_type_symbol
_atom_site_label
_atom_site_fract_x
_atom_site_fract_y
_atom_site_fract_z
Si Si1 0.086667 0.879555 0.711919
Si Si2 0.413770 0.670849 0.855912
Si Si3 0.913084 0.399297 0.197975
Si Si4 0.308535 0.114064 0.511415
Si Si5 0.250000 0.313487 0.750000
Si Si6 0.694650 0.771152 0.105673
O O1 0.086149 0.787015 0.658038
O O2 0.167691 0.866308 0.753336
O O3 0.000000 0.877711 0.746129
O O4 0.093432 0.987310 0.678937
O O5 0.500000 0.639619 0.863876
O O6 0.384161 0.620907 0.780726
O O7 0.369909 0.639480 0.927495
O O8 0.872902 0.328643 0.142042
O O9 0.000000 0.372783 0.200059
O O10 0.324457 0.172181 0.436581
O O11 0.233093 0.158980 0.546180
O O12 0.302912 0.000000 0.500000
O O13 0.250998 0.253251 0.825766
#
# Coordination Sequence:
#
# PCOD9480416 Si02
#       6
#    16  16  16  16   8  16
#     4  10  22  39  65  99 131 165 220 279 330 390
#     4  10  21  41  62  90 131 165 211 274 330 387
#     4  10  22  40  68  97 125 168 221 277 331 391
#     4  11  26  41  59  91 132 174 215 271 325 406
#     4  12  22  40  72  94 122 180 212 276 338 372
#     4  11  24  41  61  94 129 166 224 270 328 395
#
# _framework density 19.689425
#
# number of rings (size 3 to 8) (size 9 to 14) (size 15 to 20)
#    0.000    1.455    3.636    0.000    5.091    1.818 
#    0.000    0.000    0.000    3.818    0.000    0.000 
#    0.000    0.000    0.000    0.000    0.000    0.000 
#
# Total GULP energy -245148.289855 kJ/mol
# GULP energy per Si atom -5571.552042 kJ/mol
# Density = 1.964461 g / cm^3
# Si number density = 19.689425 Si / 1000 Ang^3
#
#
#
# Elastic Constant Matrix: (Units=GPa)
#
#
# Indices 1 2 3 4 5 6 
#
# 1 107.4683 27.3897 20.2674 0.0000 0.0000 0.0000
# 2 27.3897 143.0023 47.5197 0.0000 0.0000 0.0000
# 3 20.2674 47.5197 91.3111 0.0000 0.0000 0.0000
# 4 0.0000 0.0000 0.0000 17.0949 0.0000 0.0000
# 5 0.0000 0.0000 0.0000 0.0000 18.7909 0.0000
# 6 0.0000 0.0000 0.0000 0.0000 0.0000 27.3915
#
#
#
# Elastic Compliance Matrix: (Units=1/GPa)
#
#
# Indices 1 2 3 4 5 6 
#
# 1 0.009943 -0.001416 -0.001470 0.000000 0.000000 0.000000
# 2 -0.001416 0.008657 -0.004191 0.000000 0.000000 0.000000
# 3 -0.001470 -0.004191 0.013459 0.000000 0.000000 0.000000
# 4 0.000000 0.000000 0.000000 0.058497 0.000000 0.000000
# 5 0.000000 0.000000 0.000000 0.000000 0.053217 0.000000
# 6 0.000000 0.000000 0.000000 0.000000 0.000000 0.036508
#
#
# Mechanical properties :
#
#
# Convention : Reuss Voigt Hill
#
# Bulk Modulus (GPa) = 55.85023 59.12613 57.48818
# Shear Modulus (GPa) = 24.94975 29.09579 27.02277
#
# Velocity S-wave (km/s) = 3.56359 3.84830 3.70868
# Velocity P-wave (km/s) = 6.73494 7.05978 6.89927
#
# Compressibility (1/GPa) = 0.01790503
#
# Stress axis : x y z
#
# Youngs Moduli (GPa) = 100.57144 115.51747 74.30061
#
# Poissons Ratio (x) = 0.16356 0.10923
# Poissons Ratio (y) = 0.14240 0.31138
# Poissons Ratio (z) = 0.14785 0.48411
#
# Static dielectric constant tensor:
#      x y z
#    x 1.769330 0.000000 0.000000 
#    y 0.000000 1.690190 0.000000 
#    z 0.000000 0.000000 1.685530 
# 
# From -- ./inp_files/33127.got.cif
#   From: 2010.05.17/outbox.cif.g08.bks.cpg/sg64_17_cif.got.tgz:33127.got - 2010.06.03 16:29:19.
