data_PCOD9480235
_publ_section_title
;
Structure prediction by ZEFSAII (Michael W. Deem and Ramdas Pophale) SiO2 
 PCOD9480235
Probable space group: C M C A
;
_chemical_formula_sum "Si O2"
_cell_formula_units_Z 112
_cell_length_a 15.979744
_cell_length_b 11.507894
_cell_length_c 29.913224
_cell_angle_alpha 90.000000
_cell_angle_beta 90.000000
_cell_angle_gamma 90.000000
_cell_volume 5500.838487
_symmetry_space_group_name_H-M "C M C A"
_symmetry_group_IT_number 64
_symmetry_cell_setting 'orthorhombic'
loop_
_space_group_symop_operation_xyz
x,y,z
-x,1/2-y,1/2+z
x,-y,-z
-x,1/2+y,1/2-z
-x,-y,-z
x,1/2+y,1/2-z
-x,y,z
x,1/2-y,1/2+z
1/2+x,1/2+y,z
1/2-x,-y,1/2+z
1/2+x,1/2-y,-z
1/2-x,y,1/2-z
1/2-x,1/2-y,-z
1/2+x,y,1/2-z
1/2-x,1/2+y,z
1/2+x,-y,1/2+z
loop_
_atom_site_type_symbol
_atom_site_label
_atom_site_fract_x
_atom_site_fract_y
_atom_site_fract_z
Si Si1 0.826234 0.055850 0.938119
Si Si2 0.367024 0.581900 0.541711
Si Si3 0.906451 0.654125 0.475064
Si Si4 0.401142 0.307056 0.138484
Si Si5 0.658468 0.499472 0.726480
Si Si6 0.650890 0.757234 0.260580
Si Si7 0.404920 0.453198 0.631971
O O1 0.732991 0.084442 0.952766
O O2 0.850044 0.099808 0.889534
O O3 0.842701 0.919565 0.944952
O O4 0.886056 0.119708 0.973996
O O5 0.389433 0.500000 0.500000
O O6 0.398022 0.710368 0.532124
O O7 0.398880 0.533512 0.588898
O O8 0.000000 0.616269 0.463585
O O9 0.500000 0.334774 0.139361
O O10 0.366776 0.290517 0.188211
O O11 0.390383 0.179455 0.116728
O O12 0.750000 0.505506 0.750000
O O13 0.619185 0.376910 0.744904
O O14 0.618743 0.627289 0.734910
O O15 0.656952 0.483160 0.672772
O O16 0.750000 0.748785 0.250000
O O17 0.500000 0.457549 0.650440
#
# Coordination Sequence:
#
# PCOD9480235 Si02
#       7
#    16  16  16  16  16  16  16
#     4  11  23  39  63  90 126 166 211 260 316 377
#     4  12  25  40  64  95 128 168 219 263 316 387
#     4  11  23  42  64  90 129 167 210 266 321 370
#     4  10  21  39  64  89 120 164 210 248 311 391
#     4   9  19  38  61  87 121 159 208 252 313 378
#     4   9  19  36  59  88 118 155 202 251 310 375
#     4  10  23  41  63  92 128 166 206 261 322 377
#
# _framework density 20.360531999999999
#
# number of rings (size 3 to 8) (size 9 to 14) (size 15 to 20)
#    0.000    1.714    1.429    3.429    6.000    2.857 
#    2.571    0.000    0.000    0.000    0.000    0.000 
#    0.000    0.000    0.000    0.000    0.000    0.000 
#
# Total GULP energy -312380.863468 kJ/mol
# GULP energy per Si atom -5578.229705 kJ/mol
# Density = 2.031419 g / cm^3
# Si number density = 20.360532 Si / 1000 Ang^3
#
#
#
# Elastic Constant Matrix: (Units=GPa)
#
#
# Indices 1 2 3 4 5 6 
#
# 1 58.3801 1.7522 5.7049 0.0000 0.0000 0.0000
# 2 1.7522 131.8817 33.1690 0.0000 0.0000 0.0000
# 3 5.7049 33.1690 55.1970 0.0000 0.0000 0.0000
# 4 0.0000 0.0000 0.0000 33.4545 0.0000 0.0000
# 5 0.0000 0.0000 0.0000 0.0000 26.6549 0.0000
# 6 0.0000 0.0000 0.0000 0.0000 0.0000 20.3897
#
#
#
# Elastic Compliance Matrix: (Units=1/GPa)
#
#
# Indices 1 2 3 4 5 6 
#
# 1 0.017311 0.000259 -0.001945 0.000000 0.000000 0.000000
# 2 0.000259 0.008936 -0.005397 0.000000 0.000000 0.000000
# 3 -0.001945 -0.005397 0.021561 0.000000 0.000000 0.000000
# 4 0.000000 0.000000 0.000000 0.029891 0.000000 0.000000
# 5 0.000000 0.000000 0.000000 0.000000 0.037517 0.000000
# 6 0.000000 0.000000 0.000000 0.000000 0.000000 0.049044
#
#
# Mechanical properties :
#
#
# Convention : Reuss Voigt Hill
#
# Bulk Modulus (GPa) = 29.72339 36.30121 33.01230
# Shear Modulus (GPa) = 26.36560 29.75533 28.06047
#
# Velocity S-wave (km/s) = 3.60243 3.82700 3.71641
# Velocity P-wave (km/s) = 5.65098 6.11521 5.88767
#
# Compressibility (1/GPa) = 0.03364354
#
# Stress axis : x y z
#
# Youngs Moduli (GPa) = 57.76540 111.90118 46.37995
#
# Poissons Ratio (x) = -0.02900 0.09021
# Poissons Ratio (y) = -0.01497 0.25031
# Poissons Ratio (z) = 0.11235 0.60392
#
# Static dielectric constant tensor:
#      x y z
#    x 1.735410 0.000000 0.000000 
#    y 0.000000 1.763370 0.000000 
#    z 0.000000 0.000000 1.691900 
# 
# From -- ./inp_files/53276.got.cif
#   From: 2010.05.17/outbox.cif.g08.bks.cpg/sg64_27_cif.got.tgz:53276.got - 2010.06.03 16:29:19.
