data_PCOD9480620
_publ_section_title
;
Structure prediction by ZEFSAII (Michael W. Deem and Ramdas Pophale) SiO2 
 PCOD9480620
Probable space group: C M C A
;
_chemical_formula_sum "Si O2"
_cell_formula_units_Z 88
_cell_length_a 21.725942
_cell_length_b 8.575976
_cell_length_c 19.683838
_cell_angle_alpha 90.000000
_cell_angle_beta 90.000000
_cell_angle_gamma 90.000000
_cell_volume 3667.515474
_symmetry_space_group_name_H-M "C M C A"
_symmetry_group_IT_number 64
_symmetry_cell_setting 'orthorhombic'
loop_
_space_group_symop_operation_xyz
x,y,z
-x,1/2-y,1/2+z
x,-y,-z
-x,1/2+y,1/2-z
-x,-y,-z
x,1/2+y,1/2-z
-x,y,z
x,1/2-y,1/2+z
1/2+x,1/2+y,z
1/2-x,-y,1/2+z
1/2+x,1/2-y,-z
1/2-x,y,1/2-z
1/2-x,1/2-y,-z
1/2+x,y,1/2-z
1/2-x,1/2+y,z
1/2+x,-y,1/2+z
loop_
_atom_site_type_symbol
_atom_site_label
_atom_site_fract_x
_atom_site_fract_y
_atom_site_fract_z
Si Si1 0.232702 0.222188 0.099551
Si Si2 0.842745 0.435545 0.438657
Si Si3 0.500000 0.344729 0.357607
Si Si4 0.000000 0.142206 0.255499
Si Si5 0.622862 0.233074 0.681626
Si Si6 0.250000 0.266194 0.750000
Si Si7 0.124400 0.534375 0.918757
O O1 0.295373 0.288684 0.067608
O O2 0.238507 0.158650 0.176856
O O3 0.183185 0.359879 0.098427
O O4 0.204028 0.079360 0.061336
O O5 0.884426 0.500000 0.500000
O O6 0.881123 0.410355 0.370452
O O7 0.500000 0.480073 0.297550
O O8 0.500000 0.172460 0.325036
O O9 0.438781 0.377005 0.401008
O O10 0.062023 0.232723 0.277065
O O11 0.682503 0.196238 0.729529
O O12 0.626705 0.387772 0.633197
O O13 0.125328 0.500000 0.000000
#
# Coordination Sequence:
#
# PCOD9480620 Si02
#       7
#    16  16   8   8  16   8  16
#     4  11  22  35  60  84 118 159 200 258 309 375
#     4  11  22  38  57  87 120 159 203 254 317 375
#     4  10  23  40  64  88 121 162 204 258 308 380
#     4  10  22  42  63  92 125 164 210 256 318 370
#     4  10  23  40  62  87 125 163 205 263 312 376
#     4  10  22  38  56  88 118 154 204 248 312 368
#     4  11  22  40  61  88 119 161 207 254 313 377
#
# _framework density 23.994444000000001
#
# number of rings (size 3 to 8) (size 9 to 14) (size 15 to 20)
#    0.000    1.455    0.000    5.727    0.000   10.909 
#    0.000    0.455    0.000    0.000    0.000    0.000 
#    0.000    0.000    0.000    0.182    0.000    0.000 
#
# Total GULP energy -245052.000170 kJ/mol
# GULP energy per Si atom -5569.363640 kJ/mol
# Density = 2.393983 g / cm^3
# Si number density = 23.994444 Si / 1000 Ang^3
#
#
#
# Elastic Constant Matrix: (Units=GPa)
#
#
# Indices 1 2 3 4 5 6 
#
# 1 113.0133 11.8106 11.5618 0.0000 0.0000 0.0000
# 2 11.8106 42.8787 20.0544 0.0000 0.0000 0.0000
# 3 11.5618 20.0544 121.8153 0.0000 0.0000 0.0000
# 4 0.0000 0.0000 0.0000 37.0809 0.0000 0.0000
# 5 0.0000 0.0000 0.0000 0.0000 -23.6891 0.0000
# 6 0.0000 0.0000 0.0000 0.0000 0.0000 7.3701
#
#
#
# Elastic Compliance Matrix: (Units=1/GPa)
#
#
# Indices 1 2 3 4 5 6 
#
# 1 0.009138 -0.002287 -0.000491 0.000000 0.000000 0.000000
# 2 -0.002287 0.025840 -0.004037 0.000000 0.000000 0.000000
# 3 -0.000491 -0.004037 0.008920 0.000000 0.000000 0.000000
# 4 0.000000 0.000000 0.000000 0.026968 0.000000 0.000000
# 5 0.000000 0.000000 0.000000 0.000000 -0.042213 0.000000
# 6 0.000000 0.000000 0.000000 0.000000 0.000000 0.135684
#
#
# Mechanical properties :
#
#
# Convention : Reuss Voigt Hill
#
# Bulk Modulus (GPa) = 33.03846 40.50677 36.77262
# Shear Modulus (GPa) = 26.58793 19.77106 23.17950
#
# Velocity S-wave (km/s) = 3.33241 2.87363 3.11148
# Velocity P-wave (km/s) = 5.34843 5.28476 5.31669
#
# Compressibility (1/GPa) = 0.03026775
#
# Stress axis : x y z
#
# Youngs Moduli (GPa) = 109.43592 38.70018 112.10365
#
# Poissons Ratio (x) = 0.08852 0.05501
# Poissons Ratio (y) = 0.25033 0.45255
# Poissons Ratio (z) = 0.05370 0.15623
#
# Static dielectric constant tensor:
#      x y z
#    x 1.910590 0.000000 0.000000 
#    y 0.000000 1.973480 0.000000 
#    z 0.000000 0.000000 2.137730 
# 
# From -- ./inp_files/41397.got.cif
#   From: 2010.05.17/outbox.cif.g08.bks.cpg/sg64_21_cif.got.tgz:41397.got - 2010.06.03 16:29:19.
