data_PCOD9480752
_publ_section_title
;
Structure prediction by ZEFSAII (Michael W. Deem and Ramdas Pophale) SiO2 
 PCOD9480752
Probable space group: C M C A
;
_chemical_formula_sum "Si O2"
_cell_formula_units_Z 72
_cell_length_a 24.959299
_cell_length_b 18.002168
_cell_length_c 8.245460
_cell_angle_alpha 90.000000
_cell_angle_beta 90.000000
_cell_angle_gamma 90.000000
_cell_volume 3704.862404
_symmetry_space_group_name_H-M "C M C A"
_symmetry_group_IT_number 64
_symmetry_cell_setting 'orthorhombic'
loop_
_space_group_symop_operation_xyz
x,y,z
-x,1/2-y,1/2+z
x,-y,-z
-x,1/2+y,1/2-z
-x,-y,-z
x,1/2+y,1/2-z
-x,y,z
x,1/2-y,1/2+z
1/2+x,1/2+y,z
1/2-x,-y,1/2+z
1/2+x,1/2-y,-z
1/2-x,y,1/2-z
1/2-x,1/2-y,-z
1/2+x,y,1/2-z
1/2-x,1/2+y,z
1/2+x,-y,1/2+z
loop_
_atom_site_type_symbol
_atom_site_label
_atom_site_fract_x
_atom_site_fract_y
_atom_site_fract_z
Si Si1 0.437127 0.847475 0.966363
Si Si2 0.297476 0.807762 0.447168
Si Si3 0.377568 0.268917 0.802873
Si Si4 0.803141 0.028488 0.822049
Si Si5 0.375439 0.000000 0.000000
O O1 0.500000 0.847868 0.000022
O O2 0.423278 0.811726 0.792989
O O3 0.405168 0.795525 0.092803
O O4 0.411805 0.928591 0.967927
O O5 0.250000 0.750000 0.500000
O O6 0.334401 0.766362 0.317467
O O7 0.339533 0.821517 0.591685
O O8 0.284884 0.887645 0.372359
O O9 0.750000 0.988692 0.750000
O O10 0.842570 0.020194 0.666508
O O11 0.821823 0.000000 0.000000
#
# Coordination Sequence:
#
# PCOD9480752 Si02
#       5
#    16  16  16  16   8
#     4  11  23  43  68  92 128 176 228 289 345 398
#     4  11  22  39  64  96 131 170 213 269 333 410
#     4  10  22  39  65  97 127 167 224 277 333 405
#     4  12  25  41  64  96 138 178 214 267 339 417
#     4  12  25  46  66 100 136 176 231 282 354 414
#
# _framework density 19.433921000000002
#
# number of rings (size 3 to 8) (size 9 to 14) (size 15 to 20)
#    0.000    0.889    3.333    4.333    3.111    1.778 
#    0.000    0.000    0.000    2.667    0.000    0.000 
#    0.000    0.000    0.000    0.000    0.000    0.000 
#
# Total GULP energy -200554.405674 kJ/mol
# GULP energy per Si atom -5570.955713 kJ/mol
# Density = 1.938969 g / cm^3
# Si number density = 19.433921 Si / 1000 Ang^3
#
#
#
# Elastic Constant Matrix: (Units=GPa)
#
#
# Indices 1 2 3 4 5 6 
#
# 1 104.7118 32.4187 36.5850 0.0000 0.0000 0.0000
# 2 32.4187 112.9139 34.4628 0.0000 0.0000 0.0000
# 3 36.5850 34.4628 113.4237 0.0000 0.0000 0.0000
# 4 0.0000 0.0000 0.0000 22.7318 0.0000 0.0000
# 5 0.0000 0.0000 0.0000 0.0000 28.4094 0.0000
# 6 0.0000 0.0000 0.0000 0.0000 0.0000 50.3368
#
#
#
# Elastic Compliance Matrix: (Units=1/GPa)
#
#
# Indices 1 2 3 4 5 6 
#
# 1 0.011302 -0.002350 -0.002931 0.000000 0.000000 0.000000
# 2 -0.002350 0.010250 -0.002356 0.000000 0.000000 0.000000
# 3 -0.002931 -0.002356 0.010478 0.000000 0.000000 0.000000
# 4 0.000000 0.000000 0.000000 0.043991 0.000000 0.000000
# 5 0.000000 0.000000 0.000000 0.000000 0.035200 0.000000
# 6 0.000000 0.000000 0.000000 0.000000 0.000000 0.019866
#
#
# Mechanical properties :
#
#
# Convention : Reuss Voigt Hill
#
# Bulk Modulus (GPa) = 59.68642 59.77581 59.73112
# Shear Modulus (GPa) = 32.90609 35.46781 34.18695
#
# Velocity S-wave (km/s) = 4.11935 4.27669 4.19876
# Velocity P-wave (km/s) = 7.30784 7.43048 7.36942
#
# Compressibility (1/GPa) = 0.01675423
#
# Stress axis : x y z
#
# Youngs Moduli (GPa) = 88.48148 97.55840 95.43826
#
# Poissons Ratio (x) = 0.22928 0.27976
# Poissons Ratio (y) = 0.20795 0.22489
# Poissons Ratio (z) = 0.25937 0.22989
#
# Static dielectric constant tensor:
#      x y z
#    x 1.663170 0.000000 0.000000 
#    y 0.000000 1.749970 0.000000 
#    z 0.000000 0.000000 1.798220 
# 
# From -- ./inp_files/9128.got.cif
#   From: 2010.05.17/outbox.cif.g08.bks.cpg/sg64_5_cif.got.tgz:9128.got - 2010.06.03 16:29:19.
