data_PCOD9480465
_publ_section_title
;
Structure prediction by ZEFSAII (Michael W. Deem and Ramdas Pophale) SiO2 
 PCOD9480465
Probable space group: C M C A
;
_chemical_formula_sum "Si O2"
_cell_formula_units_Z 88
_cell_length_a 18.089290
_cell_length_b 15.290584
_cell_length_c 14.400096
_cell_angle_alpha 90.000000
_cell_angle_beta 90.000000
_cell_angle_gamma 90.000000
_cell_volume 3983.006192
_symmetry_space_group_name_H-M "C M C A"
_symmetry_group_IT_number 64
_symmetry_cell_setting 'orthorhombic'
loop_
_space_group_symop_operation_xyz
x,y,z
-x,1/2-y,1/2+z
x,-y,-z
-x,1/2+y,1/2-z
-x,-y,-z
x,1/2+y,1/2-z
-x,y,z
x,1/2-y,1/2+z
1/2+x,1/2+y,z
1/2-x,-y,1/2+z
1/2+x,1/2-y,-z
1/2-x,y,1/2-z
1/2-x,1/2-y,-z
1/2+x,y,1/2-z
1/2-x,1/2+y,z
1/2+x,-y,1/2+z
loop_
_atom_site_type_symbol
_atom_site_label
_atom_site_fract_x
_atom_site_fract_y
_atom_site_fract_z
Si Si1 0.803678 0.132099 0.116303
Si Si2 0.137483 0.879684 0.561861
Si Si3 0.416657 0.439640 0.377885
Si Si4 0.146037 0.815687 0.085936
Si Si5 0.250000 0.270939 0.250000
Si Si6 0.415590 0.978245 0.331303
O O1 0.718234 0.102796 0.105400
O O2 0.805933 0.205759 0.195694
O O3 0.858040 0.052958 0.140202
O O4 0.820850 0.173364 0.016370
O O5 0.136332 0.890692 0.450141
O O6 0.114524 0.782443 0.589977
O O7 0.086079 0.957751 0.596157
O O8 0.500000 0.405531 0.390383
O O9 0.397412 0.438976 0.270210
O O10 0.207669 0.820509 0.167564
O O11 0.091408 0.896013 0.100495
O O12 0.500000 0.011201 0.328753
#
# Coordination Sequence:
#
# PCOD9480465 Si02
#       6
#    16  16  16  16   8  16
#     4  11  24  43  63 101 130 177 215 268 335 385
#     4  10  21  41  68  99 128 163 225 279 330 381
#     4  10  23  42  68  96 129 173 222 273 331 397
#     4  11  25  38  67  97 134 170 217 274 328 384
#     4  10  22  42  68 100 132 162 224 286 320 390
#     4  11  26  44  63  94 137 184 219 259 335 410
#
# _framework density 22.093864
#
# number of rings (size 3 to 8) (size 9 to 14) (size 15 to 20)
#    0.000    1.455    0.000    6.000   10.182    3.636 
#    0.000    0.909    0.000    0.000    0.000    0.000 
#    0.000    0.000    0.000    0.000    0.000    0.000 
#
# Total GULP energy -245895.456457 kJ/mol
# GULP energy per Si atom -5588.533101 kJ/mol
# Density = 2.204358 g / cm^3
# Si number density = 22.093864 Si / 1000 Ang^3
#
#
#
# Elastic Constant Matrix: (Units=GPa)
#
#
# Indices 1 2 3 4 5 6 
#
# 1 61.2992 15.8491 18.8517 0.0000 0.0000 0.0000
# 2 15.8491 31.8590 -14.8479 0.0000 0.0000 0.0000
# 3 18.8517 -14.8479 109.0678 0.0000 0.0000 0.0000
# 4 0.0000 0.0000 0.0000 34.0461 0.0000 0.0000
# 5 0.0000 0.0000 0.0000 0.0000 25.2030 0.0000
# 6 0.0000 0.0000 0.0000 0.0000 0.0000 11.5544
#
#
#
# Elastic Compliance Matrix: (Units=1/GPa)
#
#
# Indices 1 2 3 4 5 6 
#
# 1 0.021425 -0.013223 -0.005503 0.000000 0.000000 0.000000
# 2 -0.013223 0.041676 0.007959 0.000000 0.000000 0.000000
# 3 -0.005503 0.007959 0.011203 0.000000 0.000000 0.000000
# 4 0.000000 0.000000 0.000000 0.029372 0.000000 0.000000
# 5 0.000000 0.000000 0.000000 0.000000 0.039678 0.000000
# 6 0.000000 0.000000 0.000000 0.000000 0.000000 0.086547
#
#
# Mechanical properties :
#
#
# Convention : Reuss Voigt Hill
#
# Bulk Modulus (GPa) = 18.95042 26.88130 22.91586
# Shear Modulus (GPa) = 18.58564 26.31893 22.45228
#
# Velocity S-wave (km/s) = 2.90351 3.45517 3.19128
# Velocity P-wave (km/s) = 4.45380 5.30197 4.89629
#
# Compressibility (1/GPa) = 0.05276928
#
# Stress axis : x y z
#
# Youngs Moduli (GPa) = 46.67506 23.99474 89.25938
#
# Poissons Ratio (x) = 0.31728 0.49122
# Poissons Ratio (y) = 0.61719 -0.71042
# Poissons Ratio (z) = 0.25686 -0.19098
#
# Static dielectric constant tensor:
#      x y z
#    x 1.812010 0.000000 0.000000 
#    y 0.000000 1.796540 0.000000 
#    z 0.000000 0.000000 1.867070 
# 
# From -- ./inp_files/26245.got.cif
#   From: 2010.05.17/outbox.cif.g08.bks.cpg/sg64_14_cif.got.tgz:26245.got - 2010.06.03 16:29:19.
