data_PCOD9480594
_publ_section_title
;
Structure prediction by ZEFSAII (Michael W. Deem and Ramdas Pophale) SiO2 
 PCOD9480594
Probable space group: C M C A
;
_chemical_formula_sum "Si O2"
_cell_formula_units_Z 72
_cell_length_a 13.644053
_cell_length_b 6.825812
_cell_length_c 26.794742
_cell_angle_alpha 90.000000
_cell_angle_beta 90.000000
_cell_angle_gamma 90.000000
_cell_volume 2495.440964
_symmetry_space_group_name_H-M "C M C A"
_symmetry_group_IT_number 64
_symmetry_cell_setting 'orthorhombic'
loop_
_space_group_symop_operation_xyz
x,y,z
-x,1/2-y,1/2+z
x,-y,-z
-x,1/2+y,1/2-z
-x,-y,-z
x,1/2+y,1/2-z
-x,y,z
x,1/2-y,1/2+z
1/2+x,1/2+y,z
1/2-x,-y,1/2+z
1/2+x,1/2-y,-z
1/2-x,y,1/2-z
1/2-x,1/2-y,-z
1/2+x,y,1/2-z
1/2-x,1/2+y,z
1/2+x,-y,1/2+z
loop_
_atom_site_type_symbol
_atom_site_label
_atom_site_fract_x
_atom_site_fract_y
_atom_site_fract_z
Si Si1 0.250000 0.933804 0.250000
Si Si2 0.385225 0.018167 0.158963
Si Si3 0.113024 0.427862 0.564936
Si Si4 0.388909 0.485064 0.177171
Si Si5 0.665081 0.626850 0.452754
O O1 0.305930 0.908032 0.194030
O O2 0.337080 0.054699 0.273256
O O3 0.500000 0.962481 0.165835
O O4 0.377499 0.249607 0.172812
O O5 0.360198 0.017543 0.099618
O O6 0.132424 0.421633 0.624192
O O7 0.216372 0.347672 0.544237
O O8 0.115713 0.659522 0.550606
O O9 0.000000 0.360831 0.555651
O O10 0.500000 0.523588 0.186507
O O11 0.630910 0.500000 0.500000
#
# Coordination Sequence:
#
# PCOD9480594 Si02
#       5
#     8  16  16  16  16
#     4  12  18  34  60  82 116 150 204 262 310 380
#     4  10  22  37  57  87 119 159 208 256 315 383
#     4  10  22  42  65  92 129 168 211 266 322 381
#     4   9  19  35  54  78 115 157 193 248 322 372
#     4  11  22  42  68  94 129 173 215 264 325 384
#
# _framework density 28.852615
#
# number of rings (size 3 to 8) (size 9 to 14) (size 15 to 20)
#    0.000    1.778    2.222    4.000    0.000    2.222 
#    0.000    2.222    0.000    0.000    0.000    0.000 
#    0.000    0.000    0.000    0.000    0.000    0.000 
#
# Total GULP energy -201104.820711 kJ/mol
# GULP energy per Si atom -5586.245020 kJ/mol
# Density = 2.878695 g / cm^3
# Si number density = 28.852615 Si / 1000 Ang^3
#
#
#
# Elastic Constant Matrix: (Units=GPa)
#
#
# Indices 1 2 3 4 5 6 
#
# 1 147.0488 15.2332 92.5700 0.0000 0.0000 0.0000
# 2 15.2332 92.2266 4.9963 0.0000 0.0000 0.0000
# 3 92.5700 4.9963 203.7510 0.0000 0.0000 0.0000
# 4 0.0000 0.0000 0.0000 103.8678 0.0000 0.0000
# 5 0.0000 0.0000 0.0000 0.0000 208.9764 0.0000
# 6 0.0000 0.0000 0.0000 0.0000 0.0000 9.0102
#
#
#
# Elastic Compliance Matrix: (Units=1/GPa)
#
#
# Indices 1 2 3 4 5 6 
#
# 1 0.009693 -0.001364 -0.004370 0.000000 0.000000 0.000000
# 2 -0.001364 0.011049 0.000349 0.000000 0.000000 0.000000
# 3 -0.004370 0.000349 0.006885 0.000000 0.000000 0.000000
# 4 0.000000 0.000000 0.000000 0.009628 0.000000 0.000000
# 5 0.000000 0.000000 0.000000 0.000000 0.004785 0.000000
# 6 0.000000 0.000000 0.000000 0.000000 0.000000 0.110986
#
#
# Mechanical properties :
#
#
# Convention : Reuss Voigt Hill
#
# Bulk Modulus (GPa) = 59.32675 74.29172 66.80923
# Shear Modulus (GPa) = 29.51313 86.38600 57.94957
#
# Velocity S-wave (km/s) = 3.20174 5.47772 4.48646
# Velocity P-wave (km/s) = 5.85447 8.11245 7.07413
#
# Compressibility (1/GPa) = 0.01685580
#
# Stress axis : x y z
#
# Youngs Moduli (GPa) = 103.16709 90.50349 145.24377
#
# Poissons Ratio (x) = 0.12347 0.63477
# Poissons Ratio (y) = 0.14075 -0.05067
# Poissons Ratio (z) = 0.45088 -0.03157
#
# Static dielectric constant tensor:
#      x y z
#    x 2.229640 0.000000 0.000000 
#    y 0.000000 2.347790 0.000000 
#    z 0.000000 0.000000 2.169060 
# 
# From -- ./inp_files/49052.got.cif
#   From: 2010.05.17/outbox.cif.g08.bks.cpg/sg64_25_cif.got.tgz:49052.got - 2010.06.03 16:29:19.
