data_PCOD9480925
_publ_section_title
;
Structure prediction by ZEFSAII (Michael W. Deem and Ramdas Pophale) SiO2 
 PCOD9480925
Probable space group: C M C A
;
_chemical_formula_sum "Si O2"
_cell_formula_units_Z 88
_cell_length_a 16.483628
_cell_length_b 11.095119
_cell_length_c 21.043257
_cell_angle_alpha 90.000000
_cell_angle_beta 90.000000
_cell_angle_gamma 90.000000
_cell_volume 3848.555277
_symmetry_space_group_name_H-M "C M C A"
_symmetry_group_IT_number 64
_symmetry_cell_setting 'orthorhombic'
loop_
_space_group_symop_operation_xyz
x,y,z
-x,1/2-y,1/2+z
x,-y,-z
-x,1/2+y,1/2-z
-x,-y,-z
x,1/2+y,1/2-z
-x,y,z
x,1/2-y,1/2+z
1/2+x,1/2+y,z
1/2-x,-y,1/2+z
1/2+x,1/2-y,-z
1/2-x,y,1/2-z
1/2-x,1/2-y,-z
1/2+x,y,1/2-z
1/2-x,1/2+y,z
1/2+x,-y,1/2+z
loop_
_atom_site_type_symbol
_atom_site_label
_atom_site_fract_x
_atom_site_fract_y
_atom_site_fract_z
Si Si1 0.408927 0.109556 0.638916
Si Si2 0.409890 0.120014 0.910655
Si Si3 0.281241 0.500000 0.500000
Si Si4 0.342048 0.374050 0.918942
Si Si5 0.283235 0.707400 0.314704
Si Si6 0.909741 0.498675 0.779762
O O1 0.500000 0.156708 0.626679
O O2 0.337573 0.207255 0.640552
O O3 0.406971 0.056668 0.710584
O O4 0.389209 0.998322 0.592900
O O5 0.500000 0.078798 0.929251
O O6 0.339274 0.045222 0.944080
O O7 0.398210 0.259008 0.928616
O O8 0.402630 0.098372 0.835114
O O9 0.222762 0.604167 0.474283
O O10 0.289956 0.344764 0.855853
O O11 0.250000 0.768700 0.250000
O O12 0.341276 0.599918 0.291157
O O13 0.000000 0.442371 0.786687
#
# Coordination Sequence:
#
# PCOD9480925 Si02
#       6
#    16  16   8  16  16  16
#     4  11  25  43  65  98 135 173 209 259 329 400
#     4  11  24  45  69  97 130 173 218 269 328 387
#     4  12  25  46  67  96 128 170 228 278 323 380
#     4  12  25  43  68  95 131 169 220 273 326 380
#     4  12  23  38  67  97 134 167 216 262 324 386
#     4  10  22  41  65  98 134 168 209 260 325 397
#
# _framework density 22.865722999999999
#
# number of rings (size 3 to 8) (size 9 to 14) (size 15 to 20)
#    0.000    0.727    3.636    4.091    2.545    0.000 
#    0.000    3.636    0.000    0.000    0.000    0.000 
#    0.000    0.000    0.000    0.000    0.000    0.000 
#
# Total GULP energy -246340.652078 kJ/mol
# GULP energy per Si atom -5598.651184 kJ/mol
# Density = 2.281368 g / cm^3
# Si number density = 22.865723 Si / 1000 Ang^3
#
#
#
# Elastic Constant Matrix: (Units=GPa)
#
#
# Indices 1 2 3 4 5 6 
#
# 1 90.1862 9.2454 12.7790 0.0000 0.0000 0.0000
# 2 9.2454 47.8956 -14.4006 0.0000 0.0000 0.0000
# 3 12.7790 -14.4006 44.0801 0.0000 0.0000 0.0000
# 4 0.0000 0.0000 0.0000 16.4179 0.0000 0.0000
# 5 0.0000 0.0000 0.0000 0.0000 -1.5481 0.0000
# 6 0.0000 0.0000 0.0000 0.0000 0.0000 178.6391
#
#
#
# Elastic Compliance Matrix: (Units=1/GPa)
#
#
# Indices 1 2 3 4 5 6 
#
# 1 0.012149 -0.003775 -0.004755 0.000000 0.000000 0.000000
# 2 -0.003775 0.024326 0.009041 0.000000 0.000000 0.000000
# 3 -0.004755 0.009041 0.027018 0.000000 0.000000 0.000000
# 4 0.000000 0.000000 0.000000 0.060909 0.000000 0.000000
# 5 0.000000 0.000000 0.000000 0.000000 -0.645934 0.000000
# 6 0.000000 0.000000 0.000000 0.000000 0.000000 0.005598
#
#
# Mechanical properties :
#
#
# Convention : Reuss Voigt Hill
#
# Bulk Modulus (GPa) = 15.50012 21.93440 18.71726
# Shear Modulus (GPa) = -10.09180 50.33766 20.12293
#
# Velocity S-wave (km/s) = -2.10311 4.69705 2.96978
# Velocity P-wave (km/s) = 0.94659 6.24739 4.46799
#
# Compressibility (1/GPa) = 0.06451561
#
# Stress axis : x y z
#
# Youngs Moduli (GPa) = 82.31164 41.10853 37.01197
#
# Poissons Ratio (x) = 0.15518 0.17600
# Poissons Ratio (y) = 0.31072 -0.33464
# Poissons Ratio (z) = 0.39141 -0.37168
#
# Static dielectric constant tensor:
#      x y z
#    x 1.844690 0.000000 0.000000 
#    y 0.000000 1.824770 0.000000 
#    z 0.000000 0.000000 1.845270 
# 
# From -- ./inp_files/45078.got.cif
#   From: 2010.05.17/outbox.cif.g08.bks.cpg/sg64_23_cif.got.tgz:45078.got - 2010.06.03 16:29:19.
