data_PCOD9480113
_publ_section_title
;
Structure prediction by ZEFSAII (Michael W. Deem and Ramdas Pophale) SiO2 
 PCOD9480113
Probable space group: C M C A
;
_chemical_formula_sum "Si O2"
_cell_formula_units_Z 56
_cell_length_a 14.966183
_cell_length_b 25.734920
_cell_length_c 5.121297
_cell_angle_alpha 90.000000
_cell_angle_beta 90.000000
_cell_angle_gamma 90.000000
_cell_volume 1972.485578
_symmetry_space_group_name_H-M "C M C A"
_symmetry_group_IT_number 64
_symmetry_cell_setting 'orthorhombic'
loop_
_space_group_symop_operation_xyz
x,y,z
-x,1/2-y,1/2+z
x,-y,-z
-x,1/2+y,1/2-z
-x,-y,-z
x,1/2+y,1/2-z
-x,y,z
x,1/2-y,1/2+z
1/2+x,1/2+y,z
1/2-x,-y,1/2+z
1/2+x,1/2-y,-z
1/2-x,y,1/2-z
1/2-x,1/2-y,-z
1/2+x,y,1/2-z
1/2-x,1/2+y,z
1/2+x,-y,1/2+z
loop_
_atom_site_type_symbol
_atom_site_label
_atom_site_fract_x
_atom_site_fract_y
_atom_site_fract_z
Si Si1 0.500000 0.224473 0.791571
Si Si2 0.896345 0.043451 0.695270
Si Si3 0.690805 0.302584 0.050524
Si Si4 0.603247 0.391471 0.806322
O O1 0.500000 0.276050 0.603446
O O2 0.403969 0.205871 0.694084
O O3 0.864276 0.065066 0.977609
O O4 0.000000 0.025895 0.739476
O O5 0.853510 0.000000 0.500000
O O6 0.898416 0.090258 0.489976
O O7 0.750000 0.334590 0.250000
O O8 0.660661 0.339413 0.819859
O O9 0.750000 0.250000 0.000000
O O10 0.500000 0.382480 0.887945
#
# Coordination Sequence:
#
# PCOD9480113 Si02
#       4
#     8  16  16  16
#     4  12  26  48  72 100 139 194 251 310 360 428
#     4   9  18  36  66 102 139 183 236 302 370 435
#     4  12  26  45  72 105 148 203 249 303 369 434
#     4  10  21  38  64 101 144 187 243 297 357 438
#
# _framework density 28.390577
#
# number of rings (size 3 to 8) (size 9 to 14) (size 15 to 20)
#    0.000    1.429    4.286    0.857    0.000    8.000 
#    0.000    0.000    0.000    3.429    0.000    0.000 
#    0.000    0.000    0.000    1.857    0.000    0.000 
#
# Total GULP energy -156256.608985 kJ/mol
# GULP energy per Si atom -5580.593178 kJ/mol
# Density = 2.832596 g / cm^3
# Si number density = 28.390577 Si / 1000 Ang^3
#
#
#
# Elastic Constant Matrix: (Units=GPa)
#
#
# Indices 1 2 3 4 5 6 
#
# 1 141.0300 42.9944 12.4738 0.0000 0.0000 0.0000
# 2 42.9944 88.1817 23.0123 0.0000 0.0000 0.0000
# 3 12.4738 23.0123 171.7750 0.0000 0.0000 0.0000
# 4 0.0000 0.0000 0.0000 53.1070 0.0000 0.0000
# 5 0.0000 0.0000 0.0000 0.0000 46.4154 0.0000
# 6 0.0000 0.0000 0.0000 0.0000 0.0000 23.8611
#
#
#
# Elastic Compliance Matrix: (Units=1/GPa)
#
#
# Indices 1 2 3 4 5 6 
#
# 1 0.008329 -0.004045 -0.000063 0.000000 0.000000 0.000000
# 2 -0.004045 0.013715 -0.001544 0.000000 0.000000 0.000000
# 3 -0.000063 -0.001544 0.006033 0.000000 0.000000 0.000000
# 4 0.000000 0.000000 0.000000 0.018830 0.000000 0.000000
# 5 0.000000 0.000000 0.000000 0.000000 0.021545 0.000000
# 6 0.000000 0.000000 0.000000 0.000000 0.000000 0.041909
#
#
# Mechanical properties :
#
#
# Convention : Reuss Voigt Hill
#
# Bulk Modulus (GPa) = 59.61348 61.99417 60.80383
# Shear Modulus (GPa) = 39.29107 46.17710 42.73408
#
# Velocity S-wave (km/s) = 3.72418 4.03736 3.88393
# Velocity P-wave (km/s) = 6.28776 6.60434 6.44799
#
# Compressibility (1/GPa) = 0.01677473
#
# Stress axis : x y z
#
# Youngs Moduli (GPa) = 120.05795 72.91232 165.75649
#
# Poissons Ratio (x) = 0.29490 0.01044
# Poissons Ratio (y) = 0.48559 0.25587
# Poissons Ratio (z) = 0.00756 0.11255
#
# Static dielectric constant tensor:
#      x y z
#    x 2.360290 0.000000 0.000000 
#    y 0.000000 2.401930 0.000000 
#    z 0.000000 0.000000 2.418870 
# 
# From -- ./inp_files/862.got.cif
#   From: 2010.05.17/outbox.cif.g08.bks.cpg/sg64_1_cif.got.tgz:862.got - 2010.06.03 16:29:19.
