data_PCOD9480894
_publ_section_title
;
Structure prediction by ZEFSAII (Michael W. Deem and Ramdas Pophale) SiO2 
 PCOD9480894
Probable space group: C M C A
;
_chemical_formula_sum "Si O2"
_cell_formula_units_Z 104
_cell_length_a 9.503201
_cell_length_b 19.621092
_cell_length_c 27.494200
_cell_angle_alpha 90.000000
_cell_angle_beta 90.000000
_cell_angle_gamma 90.000000
_cell_volume 5126.655994
_symmetry_space_group_name_H-M "C M C A"
_symmetry_group_IT_number 64
_symmetry_cell_setting 'orthorhombic'
loop_
_space_group_symop_operation_xyz
x,y,z
-x,1/2-y,1/2+z
x,-y,-z
-x,1/2+y,1/2-z
-x,-y,-z
x,1/2+y,1/2-z
-x,y,z
x,1/2-y,1/2+z
1/2+x,1/2+y,z
1/2-x,-y,1/2+z
1/2+x,1/2-y,-z
1/2-x,y,1/2-z
1/2-x,1/2-y,-z
1/2+x,y,1/2-z
1/2-x,1/2+y,z
1/2+x,-y,1/2+z
loop_
_atom_site_type_symbol
_atom_site_label
_atom_site_fract_x
_atom_site_fract_y
_atom_site_fract_z
Si Si1 0.000000 0.788992 0.755614
Si Si2 0.834400 0.909227 0.298581
Si Si3 0.335167 0.959221 0.861025
Si Si4 0.666612 0.305509 0.385307
Si Si5 0.768383 0.192223 0.325049
Si Si6 0.665926 0.444190 0.957178
Si Si7 0.668771 0.821410 0.005274
O O1 0.119716 0.779764 0.713007
O O2 0.121941 0.803537 0.796703
O O3 0.750000 0.895464 0.250000
O O4 0.801013 0.856979 0.341626
O O5 0.000000 0.901401 0.287953
O O6 0.808194 0.984478 0.319611
O O7 0.500000 0.966120 0.875210
O O8 0.309026 0.884529 0.839227
O O9 0.234774 0.970052 0.907099
O O10 0.500000 0.289405 0.383643
O O11 0.753944 0.237838 0.373536
O O12 0.689811 0.338737 0.437601
O O13 0.500000 0.428204 0.950772
O O14 0.678026 0.500000 0.000000
O O15 0.755436 0.378279 0.973094
O O16 0.500000 0.816596 0.995818
O O17 0.750000 0.750000 0.000000
#
# Coordination Sequence:
#
# PCOD9480894 Si02
#       7
#     8  16  16  16  16  16  16
#     4  10  24  36  60  88 128 168 206 256 308 362
#     4  10  24  41  61  88 126 162 206 251 306 369
#     4  11  24  42  65  94 122 163 212 259 314 382
#     4  10  22  41  63  90 123 165 207 253 309 376
#     4  11  22  39  62  91 125 163 214 254 307 371
#     4  11  25  44  67  94 128 166 213 268 326 385
#     4  11  23  42  69  97 130 168 213 268 327 382
#
# _framework density 20.286127
#
# number of rings (size 3 to 8) (size 9 to 14) (size 15 to 20)
#    0.000    1.385    1.538    2.769    5.385    4.308 
#    2.769    0.000    0.000    0.000    0.000    0.000 
#    0.000    0.000    0.000    0.000    0.000    0.000 
#
# Total GULP energy -289600.037292 kJ/mol
# GULP energy per Si atom -5569.231486 kJ/mol
# Density = 2.023996 g / cm^3
# Si number density = 20.286127 Si / 1000 Ang^3
#
#
#
# Elastic Constant Matrix: (Units=GPa)
#
#
# Indices 1 2 3 4 5 6 
#
# 1 132.3919 11.7719 36.0483 0.0000 0.0000 0.0000
# 2 11.7719 43.2940 -15.6173 0.0000 0.0000 0.0000
# 3 36.0483 -15.6173 80.1881 0.0000 0.0000 0.0000
# 4 0.0000 0.0000 0.0000 -15.9427 0.0000 0.0000
# 5 0.0000 0.0000 0.0000 0.0000 31.6511 0.0000
# 6 0.0000 0.0000 0.0000 0.0000 0.0000 110.1821
#
#
#
# Elastic Compliance Matrix: (Units=1/GPa)
#
#
# Indices 1 2 3 4 5 6 
#
# 1 0.009310 -0.004347 -0.005032 0.000000 0.000000 0.000000
# 2 -0.004347 0.026872 0.007188 0.000000 0.000000 0.000000
# 3 -0.005032 0.007188 0.016133 0.000000 0.000000 0.000000
# 4 0.000000 0.000000 0.000000 -0.062725 0.000000 0.000000
# 5 0.000000 0.000000 0.000000 0.000000 0.031594 0.000000
# 6 0.000000 0.000000 0.000000 0.000000 0.000000 0.009076
#
#
# Mechanical properties :
#
#
# Convention : Reuss Voigt Hill
#
# Bulk Modulus (GPa) = 20.86218 35.58664 28.22441
# Shear Modulus (GPa) = 98.77574 40.08951 69.43262
#
# Velocity S-wave (km/s) = 6.98548 4.45027 5.85670
# Velocity P-wave (km/s) = 8.68153 6.63227 7.72515
#
# Compressibility (1/GPa) = 0.04793362
#
# Stress axis : x y z
#
# Youngs Moduli (GPa) = 107.41273 37.21277 61.98653
#
# Poissons Ratio (x) = 0.16175 0.31190
# Poissons Ratio (y) = 0.46687 -0.44554
# Poissons Ratio (z) = 0.54047 -0.26747
#
# Static dielectric constant tensor:
#      x y z
#    x 1.683320 0.000000 0.000000 
#    y 0.000000 1.748460 0.000000 
#    z 0.000000 0.000000 1.718680 
# 
# From -- ./inp_files/48262.got.cif
#   From: 2010.05.17/outbox.cif.g08.bks.cpg/sg64_25_cif.got.tgz:48262.got - 2010.06.03 16:29:19.
