data_PCOD9480959
_publ_section_title
;
Structure prediction by ZEFSAII (Michael W. Deem and Ramdas Pophale) SiO2 
 PCOD9480959
Probable space group: C M C A
;
_chemical_formula_sum "Si O2"
_cell_formula_units_Z 88
_cell_length_a 31.560585
_cell_length_b 11.691740
_cell_length_c 11.777225
_cell_angle_alpha 90.000000
_cell_angle_beta 90.000000
_cell_angle_gamma 90.000000
_cell_volume 4345.774285
_symmetry_space_group_name_H-M "C M C A"
_symmetry_group_IT_number 64
_symmetry_cell_setting 'orthorhombic'
loop_
_space_group_symop_operation_xyz
x,y,z
-x,1/2-y,1/2+z
x,-y,-z
-x,1/2+y,1/2-z
-x,-y,-z
x,1/2+y,1/2-z
-x,y,z
x,1/2-y,1/2+z
1/2+x,1/2+y,z
1/2-x,-y,1/2+z
1/2+x,1/2-y,-z
1/2-x,y,1/2-z
1/2-x,1/2-y,-z
1/2+x,y,1/2-z
1/2-x,1/2+y,z
1/2+x,-y,1/2+z
loop_
_atom_site_type_symbol
_atom_site_label
_atom_site_fract_x
_atom_site_fract_y
_atom_site_fract_z
Si Si1 0.710279 0.821552 0.953188
Si Si2 0.358440 0.665406 0.827317
Si Si3 0.927712 0.809831 0.812528
Si Si4 0.708540 0.451692 0.318059
Si Si5 0.094015 0.500000 0.500000
Si Si6 0.500000 0.350525 0.397446
Si Si7 0.500000 0.095015 0.159665
O O1 0.675340 0.744260 0.893254
O O2 0.720237 0.922151 0.863201
O O3 0.750000 0.750000 0.000000
O O4 0.696101 0.882545 0.069015
O O5 0.386814 0.745259 0.742692
O O6 0.331711 0.567464 0.761580
O O7 0.383573 0.596756 0.923200
O O8 0.957199 0.718053 0.875042
O O9 0.957595 0.851611 0.710365
O O10 0.924319 0.916923 0.899711
O O11 0.750000 0.407288 0.250000
O O12 0.500000 0.384915 0.527158
O O13 0.500000 0.460474 0.317031
#
# Coordination Sequence:
#
# PCOD9480959 Si02
#       7
#    16  16  16  16   8   8   8
#     4  11  25  42  64  94 127 173 226 289 346 419
#     4  12  25  44  68  97 140 181 231 288 359 408
#     4  11  24  44  68 104 141 182 231 286 346 413
#     4  11  25  41  65  94 126 174 227 288 345 419
#     4  12  26  41  70 100 136 186 228 288 336 435
#     4  10  22  41  70 100 140 179 230 276 344 406
#     4  10  22  41  70 102 136 189 222 282 336 416
#
# _framework density 20.249555999999998
#
# number of rings (size 3 to 8) (size 9 to 14) (size 15 to 20)
#    0.000    0.909    1.818    4.364    5.091    2.909 
#    0.000    3.636    0.000    0.000    0.000    0.000 
#    0.000    0.000    0.000    0.000    0.000    0.000 
#
# Total GULP energy -245175.636942 kJ/mol
# GULP energy per Si atom -5572.173567 kJ/mol
# Density = 2.020347 g / cm^3
# Si number density = 20.249556 Si / 1000 Ang^3
#
#
#
# Elastic Constant Matrix: (Units=GPa)
#
#
# Indices 1 2 3 4 5 6 
#
# 1 102.3201 46.1928 45.6849 0.0000 0.0000 0.0000
# 2 46.1928 100.5892 39.4931 0.0000 0.0000 0.0000
# 3 45.6849 39.4931 109.1604 0.0000 0.0000 0.0000
# 4 0.0000 0.0000 0.0000 37.4777 0.0000 0.0000
# 5 0.0000 0.0000 0.0000 0.0000 66.3718 0.0000
# 6 0.0000 0.0000 0.0000 0.0000 0.0000 28.7216
#
#
#
# Elastic Compliance Matrix: (Units=1/GPa)
#
#
# Indices 1 2 3 4 5 6 
#
# 1 0.013698 -0.004708 -0.004029 0.000000 0.000000 0.000000
# 2 -0.004708 0.013206 -0.002807 0.000000 0.000000 0.000000
# 3 -0.004029 -0.002807 0.011863 0.000000 0.000000 0.000000
# 4 0.000000 0.000000 0.000000 0.026683 0.000000 0.000000
# 5 0.000000 0.000000 0.000000 0.000000 0.015067 0.000000
# 6 0.000000 0.000000 0.000000 0.000000 0.000000 0.034817
#
#
# Mechanical properties :
#
#
# Convention : Reuss Voigt Hill
#
# Bulk Modulus (GPa) = 63.78905 63.86792 63.82848
# Shear Modulus (GPa) = 34.80732 38.56082 36.68407
#
# Velocity S-wave (km/s) = 4.15048 4.36854 4.26091
# Velocity P-wave (km/s) = 7.38502 7.55344 7.46970
#
# Compressibility (1/GPa) = 0.01567667
#
# Stress axis : x y z
#
# Youngs Moduli (GPa) = 73.00387 75.72444 84.29757
#
# Poissons Ratio (x) = 0.35654 0.33966
# Poissons Ratio (y) = 0.34373 0.23664
# Poissons Ratio (z) = 0.29415 0.21257
#
# Static dielectric constant tensor:
#      x y z
#    x 1.716060 0.000000 0.000000 
#    y 0.000000 1.852540 0.000000 
#    z 0.000000 0.000000 1.747290 
# 
# From -- ./inp_files/19708.got.cif
#   From: 2010.05.17/outbox.cif.g08.bks.cpg/sg64_10_cif.got.tgz:19708.got - 2010.06.03 16:29:19.
