data_PCOD9480943
_publ_section_title
;
Structure prediction by ZEFSAII (Michael W. Deem and Ramdas Pophale) SiO2 
 PCOD9480943
Probable space group: C M C A
;
_chemical_formula_sum "Si O2"
_cell_formula_units_Z 72
_cell_length_a 19.054374
_cell_length_b 8.817990
_cell_length_c 19.366789
_cell_angle_alpha 90.000000
_cell_angle_beta 90.000000
_cell_angle_gamma 90.000000
_cell_volume 3254.032665
_symmetry_space_group_name_H-M "C M C A"
_symmetry_group_IT_number 64
_symmetry_cell_setting 'orthorhombic'
loop_
_space_group_symop_operation_xyz
x,y,z
-x,1/2-y,1/2+z
x,-y,-z
-x,1/2+y,1/2-z
-x,-y,-z
x,1/2+y,1/2-z
-x,y,z
x,1/2-y,1/2+z
1/2+x,1/2+y,z
1/2-x,-y,1/2+z
1/2+x,1/2-y,-z
1/2-x,y,1/2-z
1/2-x,1/2-y,-z
1/2+x,y,1/2-z
1/2-x,1/2+y,z
1/2+x,-y,1/2+z
loop_
_atom_site_type_symbol
_atom_site_label
_atom_site_fract_x
_atom_site_fract_y
_atom_site_fract_z
Si Si1 0.296559 0.668132 0.867043
Si Si2 0.667086 0.000000 0.500000
Si Si3 0.837146 0.004665 0.651584
Si Si4 0.918682 0.988628 0.792279
Si Si5 0.419068 0.245109 0.413017
O O1 0.226784 0.615659 0.827676
O O2 0.366953 0.603351 0.831986
O O3 0.303412 0.847172 0.871797
O O4 0.290527 0.588565 0.941535
O O5 0.619470 0.127477 0.463119
O O6 0.887567 0.971244 0.716214
O O7 0.880867 0.094822 0.594153
O O8 0.000000 0.038306 0.791007
O O9 0.915757 0.833766 0.836935
O O10 0.500000 0.260594 0.432592
#
# Coordination Sequence:
#
# PCOD9480943 Si02
#       5
#    16   8  16  16  16
#     4  11  25  41  65  93 126 169 211 258 313 374
#     4  10  23  46  66  88 125 166 210 262 317 372
#     4  12  24  40  63  94 127 164 211 259 313 373
#     4  10  22  42  66  95 130 163 202 258 320 375
#     4  10  22  41  67  95 127 167 209 258 313 374
#
# _framework density 22.126391000000002
#
# number of rings (size 3 to 8) (size 9 to 14) (size 15 to 20)
#    0.000    1.333    0.000    5.667    0.000   10.667 
#    0.000    1.111    0.000    0.000    0.000    0.000 
#    0.000    0.000    0.000    0.000    0.000    0.000 
#
# Total GULP energy -201486.658916 kJ/mol
# GULP energy per Si atom -5596.851637 kJ/mol
# Density = 2.207603 g / cm^3
# Si number density = 22.126391 Si / 1000 Ang^3
#
#
#
# Elastic Constant Matrix: (Units=GPa)
#
#
# Indices 1 2 3 4 5 6 
#
# 1 95.8234 -10.9955 -2.2941 0.0000 0.0000 0.0000
# 2 -10.9955 71.3319 -18.1989 0.0000 0.0000 0.0000
# 3 -2.2941 -18.1989 55.7513 0.0000 0.0000 0.0000
# 4 0.0000 0.0000 0.0000 7.4149 0.0000 0.0000
# 5 0.0000 0.0000 0.0000 0.0000 22.8450 0.0000
# 6 0.0000 0.0000 0.0000 0.0000 0.0000 34.6329
#
#
#
# Elastic Compliance Matrix: (Units=1/GPa)
#
#
# Indices 1 2 3 4 5 6 
#
# 1 0.010682 0.001918 0.001066 0.000000 0.000000 0.000000
# 2 0.001918 0.015637 0.005183 0.000000 0.000000 0.000000
# 3 0.001066 0.005183 0.019673 0.000000 0.000000 0.000000
# 4 0.000000 0.000000 0.000000 0.134863 0.000000 0.000000
# 5 0.000000 0.000000 0.000000 0.000000 0.043773 0.000000
# 6 0.000000 0.000000 0.000000 0.000000 0.000000 0.028874
#
#
# Mechanical properties :
#
#
# Convention : Reuss Voigt Hill
#
# Bulk Modulus (GPa) = 16.04456 17.76994 16.90725
# Shear Modulus (GPa) = 19.38417 29.93824 24.66120
#
# Velocity S-wave (km/s) = 2.96305 3.68238 3.34213
# Velocity P-wave (km/s) = 4.35583 5.11160 4.74878
#
# Compressibility (1/GPa) = 0.06232641
#
# Stress axis : x y z
#
# Youngs Moduli (GPa) = 93.61964 63.95038 50.83194
#
# Poissons Ratio (x) = -0.12268 -0.05418
# Poissons Ratio (y) = -0.17960 -0.26348
# Poissons Ratio (z) = -0.09978 -0.33148
#
# Static dielectric constant tensor:
#      x y z
#    x 1.784310 0.000000 0.000000 
#    y 0.000000 1.796180 0.000000 
#    z 0.000000 0.000000 1.839820 
# 
# From -- ./inp_files/45607.got.cif
#   From: 2010.05.17/outbox.cif.g08.bks.cpg/sg64_23_cif.got.tgz:45607.got - 2010.06.03 16:29:19.
