data_PCOD9480604
_publ_section_title
;
Structure prediction by ZEFSAII (Michael W. Deem and Ramdas Pophale) SiO2 
 PCOD9480604
Probable space group: C M C A
;
_chemical_formula_sum "Si O2"
_cell_formula_units_Z 80
_cell_length_a 24.468485
_cell_length_b 30.637916
_cell_length_c 5.487552
_cell_angle_alpha 90.000000
_cell_angle_beta 90.000000
_cell_angle_gamma 90.000000
_cell_volume 4113.816825
_symmetry_space_group_name_H-M "C M C A"
_symmetry_group_IT_number 64
_symmetry_cell_setting 'orthorhombic'
loop_
_space_group_symop_operation_xyz
x,y,z
-x,1/2-y,1/2+z
x,-y,-z
-x,1/2+y,1/2-z
-x,-y,-z
x,1/2+y,1/2-z
-x,y,z
x,1/2-y,1/2+z
1/2+x,1/2+y,z
1/2-x,-y,1/2+z
1/2+x,1/2-y,-z
1/2-x,y,1/2-z
1/2-x,1/2-y,-z
1/2+x,y,1/2-z
1/2-x,1/2+y,z
1/2+x,-y,1/2+z
loop_
_atom_site_type_symbol
_atom_site_label
_atom_site_fract_x
_atom_site_fract_y
_atom_site_fract_z
Si Si1 0.663301 0.131920 0.986467
Si Si2 0.687447 0.267605 0.480372
Si Si3 0.824665 0.500000 0.500000
Si Si4 0.939485 0.095847 0.283538
Si Si5 0.399823 0.563765 0.775861
Si Si6 0.250000 0.428468 0.750000
O O1 0.683865 0.180557 0.948471
O O2 0.611242 0.128788 0.170981
O O3 0.711517 0.102114 0.089711
O O4 0.639615 0.106335 0.752745
O O5 0.662279 0.245619 0.240289
O O6 0.750000 0.250000 0.500000
O O7 0.863163 0.520823 0.705436
O O8 0.788086 0.539278 0.404116
O O9 0.933994 0.065838 0.526518
O O10 0.000000 0.115706 0.281733
O O11 0.930625 0.070203 0.031178
#
# Coordination Sequence:
#
# PCOD9480604 Si02
#       6
#    16  16   8  16  16   8
#     4  10  24  40  65  94 126 171 214 242 330 374
#     4  10  22  37  60  91 130 157 198 250 302 373
#     4  12  22  38  59  94 133 168 216 262 322 368
#     4  10  22  44  66  89 118 168 219 265 316 373
#     4  10  23  40  64  91 127 162 219 259 314 376
#     4  12  22  38  62  90 134 178 204 264 304 406
#
# _framework density 19.446660000000001
#
# number of rings (size 3 to 8) (size 9 to 14) (size 15 to 20)
#    1.200    0.400    2.000    3.000    2.800    5.600 
#    0.000    3.000    0.000    1.200    0.000    0.000 
#    0.000    0.000    0.000    0.000    0.000    0.000 
#
# Total GULP energy -222907.232865 kJ/mol
# GULP energy per Si atom -5572.680822 kJ/mol
# Density = 1.940240 g / cm^3
# Si number density = 19.446660 Si / 1000 Ang^3
#
#
#
# Elastic Constant Matrix: (Units=GPa)
#
#
# Indices 1 2 3 4 5 6 
#
# 1 80.8782 36.8323 18.4988 0.0000 0.0000 0.0000
# 2 36.8323 117.6154 30.2401 0.0000 0.0000 0.0000
# 3 18.4988 30.2401 133.4739 0.0000 0.0000 0.0000
# 4 0.0000 0.0000 0.0000 25.1897 0.0000 0.0000
# 5 0.0000 0.0000 0.0000 0.0000 12.0853 0.0000
# 6 0.0000 0.0000 0.0000 0.0000 0.0000 -1.2077
#
#
#
# Elastic Compliance Matrix: (Units=1/GPa)
#
#
# Indices 1 2 3 4 5 6 
#
# 1 0.014557 -0.004290 -0.001046 0.000000 0.000000 0.000000
# 2 -0.004290 0.010292 -0.001737 0.000000 0.000000 0.000000
# 3 -0.001046 -0.001737 0.008031 0.000000 0.000000 0.000000
# 4 0.000000 0.000000 0.000000 0.039699 0.000000 0.000000
# 5 0.000000 0.000000 0.000000 0.000000 0.082745 0.000000
# 6 0.000000 0.000000 0.000000 0.000000 0.000000 -0.828049
#
#
# Mechanical properties :
#
#
# Convention : Reuss Voigt Hill
#
# Bulk Modulus (GPa) = 53.37741 55.90110 54.63926
# Shear Modulus (GPa) = -7.66478 23.63990 7.98756
#
# Velocity S-wave (km/s) = -1.98746 3.49037 2.02888
# Velocity P-wave (km/s) = 4.71604 6.71207 5.80055
#
# Compressibility (1/GPa) = 0.01873452
#
# Stress axis : x y z
#
# Youngs Moduli (GPa) = 68.69532 97.15946 124.52326
#
# Poissons Ratio (x) = 0.41680 0.13020
# Poissons Ratio (y) = 0.29469 0.21633
# Poissons Ratio (z) = 0.07183 0.16880
#
# Static dielectric constant tensor:
#      x y z
#    x 1.700310 0.000000 0.000000 
#    y 0.000000 1.642560 0.000000 
#    z 0.000000 0.000000 1.745090 
# 
# From -- ./inp_files/2387.got.cif
#   From: 2010.05.17/outbox.cif.g08.bks.cpg/sg64_2_cif.got.tgz:2387.got - 2010.06.03 16:29:19.
