data_PCOD9480724
_publ_section_title
;
Structure prediction by ZEFSAII (Michael W. Deem and Ramdas Pophale) SiO2 
 PCOD9480724
Probable space group: C M C A
;
_chemical_formula_sum "Si O2"
_cell_formula_units_Z 64
_cell_length_a 26.925516
_cell_length_b 12.436097
_cell_length_c 8.737552
_cell_angle_alpha 90.000000
_cell_angle_beta 90.000000
_cell_angle_gamma 90.000000
_cell_volume 2925.754685
_symmetry_space_group_name_H-M "C M C A"
_symmetry_group_IT_number 64
_symmetry_cell_setting 'orthorhombic'
loop_
_space_group_symop_operation_xyz
x,y,z
-x,1/2-y,1/2+z
x,-y,-z
-x,1/2+y,1/2-z
-x,-y,-z
x,1/2+y,1/2-z
-x,y,z
x,1/2-y,1/2+z
1/2+x,1/2+y,z
1/2-x,-y,1/2+z
1/2+x,1/2-y,-z
1/2-x,y,1/2-z
1/2-x,1/2-y,-z
1/2+x,y,1/2-z
1/2-x,1/2+y,z
1/2+x,-y,1/2+z
loop_
_atom_site_type_symbol
_atom_site_label
_atom_site_fract_x
_atom_site_fract_y
_atom_site_fract_z
Si Si1 0.500000 0.077488 0.296600
Si Si2 0.500000 0.273729 0.485741
Si Si3 0.714012 0.377673 0.017277
Si Si4 0.076761 0.927293 0.352332
Si Si5 0.815178 0.173270 0.640472
O O1 0.500000 0.146345 0.453168
O O2 0.451693 0.999601 0.274538
O O3 0.500000 0.166188 0.152719
O O4 0.546719 0.319627 0.391238
O O5 0.774431 0.370503 0.017383
O O6 0.702708 0.337642 0.186669
O O7 0.698888 0.500000 0.000000
O O8 0.685467 0.299426 0.901939
O O9 0.133694 0.891490 0.352436
O O10 0.069451 0.000000 0.500000
#
# Coordination Sequence:
#
# PCOD9480724 Si02
#       5
#     8   8  16  16  16
#     4   9  19  37  58  84 115 152 194 241 301 358
#     4   9  19  35  56  82 110 142 190 239 284 358
#     4  10  23  40  60  89 122 158 204 255 305 360
#     4   9  19  36  58  81 112 156 193 237 300 359
#     4  10  22  39  61  87 119 158 204 252 302 365
#
# _framework density 21.874697999999999
#
# number of rings (size 3 to 8) (size 9 to 14) (size 15 to 20)
#    0.000    2.500    0.000    2.250    0.000   16.000 
#    0.000    2.500    0.000    0.000    0.000    2.625 
#    0.000    0.000    0.000    0.000    0.000    0.000 
#
# Total GULP energy -178170.359165 kJ/mol
# GULP energy per Si atom -5567.823724 kJ/mol
# Density = 2.182491 g / cm^3
# Si number density = 21.874698 Si / 1000 Ang^3
#
#
#
# Elastic Constant Matrix: (Units=GPa)
#
#
# Indices 1 2 3 4 5 6 
#
# 1 35.6630 4.3800 -4.4080 0.0000 0.0000 0.0000
# 2 4.3800 152.8495 46.2175 0.0000 0.0000 0.0000
# 3 -4.4080 46.2175 62.1193 0.0000 0.0000 0.0000
# 4 0.0000 0.0000 0.0000 35.6672 0.0000 0.0000
# 5 0.0000 0.0000 0.0000 0.0000 5.0015 0.0000
# 6 0.0000 0.0000 0.0000 0.0000 0.0000 25.2990
#
#
#
# Elastic Compliance Matrix: (Units=1/GPa)
#
#
# Indices 1 2 3 4 5 6 
#
# 1 0.028690 -0.001855 0.003416 0.000000 0.000000 0.000000
# 2 -0.001855 0.008561 -0.006501 0.000000 0.000000 0.000000
# 3 0.003416 -0.006501 0.021178 0.000000 0.000000 0.000000
# 4 0.000000 0.000000 0.000000 0.028037 0.000000 0.000000
# 5 0.000000 0.000000 0.000000 0.000000 0.199940 0.000000
# 6 0.000000 0.000000 0.000000 0.000000 0.000000 0.039527
#
#
# Mechanical properties :
#
#
# Convention : Reuss Voigt Hill
#
# Bulk Modulus (GPa) = 20.59792 38.11229 29.35511
# Shear Modulus (GPa) = 14.20465 26.82301 20.51383
#
# Velocity S-wave (km/s) = 2.55103 3.50553 3.06566
# Velocity P-wave (km/s) = 4.25603 5.81772 5.09704
#
# Compressibility (1/GPa) = 0.04854858
#
# Stress axis : x y z
#
# Youngs Moduli (GPa) = 34.85490 116.80340 47.21965
#
# Poissons Ratio (x) = 0.21668 -0.16131
# Poissons Ratio (y) = 0.06466 0.30700
# Poissons Ratio (z) = -0.11907 0.75939
#
# Static dielectric constant tensor:
#      x y z
#    x 1.792230 0.000000 0.000000 
#    y 0.000000 1.858250 0.000000 
#    z 0.000000 0.000000 1.792160 
# 
# From -- ./inp_files/10901.got.cif
#   From: 2010.05.17/outbox.cif.g08.bks.cpg/sg64_6_cif.got.tgz:10901.got - 2010.06.03 16:29:19.
