data_PCOD9480027
_publ_section_title
;
Structure prediction by ZEFSAII (Michael W. Deem and Ramdas Pophale) SiO2 
 PCOD9480027
Probable space group: C M C A
;
_chemical_formula_sum "Si O2"
_cell_formula_units_Z 72
_cell_length_a 14.314550
_cell_length_b 29.549833
_cell_length_c 7.305531
_cell_angle_alpha 90.000000
_cell_angle_beta 90.000000
_cell_angle_gamma 90.000000
_cell_volume 3090.185274
_symmetry_space_group_name_H-M "C M C A"
_symmetry_group_IT_number 64
_symmetry_cell_setting 'orthorhombic'
loop_
_space_group_symop_operation_xyz
x,y,z
-x,1/2-y,1/2+z
x,-y,-z
-x,1/2+y,1/2-z
-x,-y,-z
x,1/2+y,1/2-z
-x,y,z
x,1/2-y,1/2+z
1/2+x,1/2+y,z
1/2-x,-y,1/2+z
1/2+x,1/2-y,-z
1/2-x,y,1/2-z
1/2-x,1/2-y,-z
1/2+x,y,1/2-z
1/2-x,1/2+y,z
1/2+x,-y,1/2+z
loop_
_atom_site_type_symbol
_atom_site_label
_atom_site_fract_x
_atom_site_fract_y
_atom_site_fract_z
Si Si1 0.500000 0.815458 0.711173
Si Si2 0.358703 0.112088 0.209290
Si Si3 0.000000 0.565624 0.643259
Si Si4 0.000000 0.787172 0.367402
Si Si5 0.861056 0.990299 0.715322
Si Si6 0.360169 0.139275 0.785862
O O1 0.411428 0.847852 0.687317
O O2 0.500000 0.766703 0.621613
O O3 0.500000 0.803037 0.924573
O O4 0.250000 0.114342 0.250000
O O5 0.391614 0.061377 0.256878
O O6 0.374093 0.119559 0.992393
O O7 0.081032 0.526414 0.672886
O O8 0.081967 0.605040 0.661063
O O9 0.909464 0.811447 0.278832
O O10 0.750000 0.993998 0.750000
O O11 0.877979 0.000000 0.500000
O O12 0.250000 0.140806 0.750000
#
# Coordination Sequence:
#
# PCOD9480027 Si02
#       6
#     8  16   8   8  16  16
#     4  10  21  42  60  87 115 152 196 242 290 363
#     4  10  22  37  59  86 119 154 190 240 295 343
#     4  11  20  34  61  82 113 160 191 237 275 347
#     4   9  22  38  63  84 113 150 195 240 299 345
#     4  11  22  36  61  88 120 158 199 234 286 343
#     4  10  21  38  60  86 114 150 200 239 289 349
#
# _framework density 23.299574
#
# number of rings (size 3 to 8) (size 9 to 14) (size 15 to 20)
#    0.000    1.778    2.222    2.333    0.000    2.667 
#    0.000    6.111    0.000    0.000    0.000    0.000 
#    0.000    0.000    0.000    0.000    0.000    0.000 
#
# Total GULP energy -200601.029792 kJ/mol
# GULP energy per Si atom -5572.250828 kJ/mol
# Density = 2.324654 g / cm^3
# Si number density = 23.299574 Si / 1000 Ang^3
#
#
#
# Elastic Constant Matrix: (Units=GPa)
#
#
# Indices 1 2 3 4 5 6 
#
# 1 196.3781 95.1684 -0.5223 0.0000 0.0000 0.0000
# 2 95.1684 241.5239 47.5087 0.0000 0.0000 0.0000
# 3 -0.5223 47.5087 81.1599 0.0000 0.0000 0.0000
# 4 0.0000 0.0000 0.0000 24.8505 0.0000 0.0000
# 5 0.0000 0.0000 0.0000 0.0000 2.0668 0.0000
# 6 0.0000 0.0000 0.0000 0.0000 0.0000 46.2142
#
#
#
# Elastic Compliance Matrix: (Units=1/GPa)
#
#
# Indices 1 2 3 4 5 6 
#
# 1 0.006505 -0.002906 0.001743 0.000000 0.000000 0.000000
# 2 -0.002906 0.005977 -0.003518 0.000000 0.000000 0.000000
# 3 0.001743 -0.003518 0.014392 0.000000 0.000000 0.000000
# 4 0.000000 0.000000 0.000000 0.040241 0.000000 0.000000
# 5 0.000000 0.000000 0.000000 0.000000 0.483835 0.000000
# 6 0.000000 0.000000 0.000000 0.000000 0.000000 0.021638
#
#
# Mechanical properties :
#
#
# Convention : Reuss Voigt Hill
#
# Bulk Modulus (GPa) = 57.10123 89.26349 73.18236
# Shear Modulus (GPa) = 8.50647 39.75344 24.12996
#
# Velocity S-wave (km/s) = 1.91281 4.13508 3.22163
# Velocity P-wave (km/s) = 5.42578 7.82259 6.73172
#
# Compressibility (1/GPa) = 0.01751276
#
# Stress axis : x y z
#
# Youngs Moduli (GPa) = 153.72278 167.29565 69.48423
#
# Poissons Ratio (x) = 0.48618 -0.12111
# Poissons Ratio (y) = 0.44674 0.24443
# Poissons Ratio (z) = -0.26794 0.58850
#
# Static dielectric constant tensor:
#      x y z
#    x 1.836640 0.000000 0.000000 
#    y 0.000000 1.858960 0.000000 
#    z 0.000000 0.000000 2.011750 
# 
# From -- ./inp_files/5871.got.cif
#   From: 2010.05.17/outbox.cif.g08.bks.cpg/sg64_3_cif.got.tgz:5871.got - 2010.06.03 16:29:19.
