data_PCOD9480218
_publ_section_title
;
Structure prediction by ZEFSAII (Michael W. Deem and Ramdas Pophale) SiO2 
 PCOD9480218
Probable space group: C M C A
;
_chemical_formula_sum "Si O2"
_cell_formula_units_Z 112
_cell_length_a 20.350944
_cell_length_b 22.701259
_cell_length_c 12.237768
_cell_angle_alpha 90.000000
_cell_angle_beta 90.000000
_cell_angle_gamma 90.000000
_cell_volume 5653.751534
_symmetry_space_group_name_H-M "C M C A"
_symmetry_group_IT_number 64
_symmetry_cell_setting 'orthorhombic'
loop_
_space_group_symop_operation_xyz
x,y,z
-x,1/2-y,1/2+z
x,-y,-z
-x,1/2+y,1/2-z
-x,-y,-z
x,1/2+y,1/2-z
-x,y,z
x,1/2-y,1/2+z
1/2+x,1/2+y,z
1/2-x,-y,1/2+z
1/2+x,1/2-y,-z
1/2-x,y,1/2-z
1/2-x,1/2-y,-z
1/2+x,y,1/2-z
1/2-x,1/2+y,z
1/2+x,-y,1/2+z
loop_
_atom_site_type_symbol
_atom_site_label
_atom_site_fract_x
_atom_site_fract_y
_atom_site_fract_z
Si Si1 0.427447 0.435488 0.691001
Si Si2 0.857622 0.860321 0.524131
Si Si3 0.924129 0.653154 0.625572
Si Si4 0.220686 0.125028 0.128001
Si Si5 0.420744 0.068163 0.830436
Si Si6 0.901027 0.938925 0.938812
Si Si7 0.327083 0.231028 0.493050
O O1 0.500000 0.435420 0.640824
O O2 0.389724 0.380794 0.638457
O O3 0.396844 0.500436 0.673537
O O4 0.432464 0.432205 0.820767
O O5 0.780861 0.871503 0.543908
O O6 0.889732 0.901943 0.435190
O O7 0.865016 0.792990 0.485298
O O8 0.906114 0.610085 0.726466
O O9 0.925054 0.611060 0.520391
O O10 0.865297 0.698714 0.594087
O O11 0.000000 0.676005 0.642016
O O12 0.250000 0.122379 0.250000
O O13 0.175436 0.071023 0.091713
O O14 0.176383 0.183745 0.105948
O O15 0.500000 0.065763 0.835870
O O16 0.913113 0.000000 0.000000
O O17 0.250000 0.250000 0.500000
#
# Coordination Sequence:
#
# PCOD9480218 Si02
#       7
#    16  16  16  16  16  16  16
#     4  11  22  37  62  90 122 164 203 256 324 386
#     4  11  22  39  60  88 123 163 209 252 315 384
#     4  10  21  39  63  91 124 161 210 265 317 375
#     4  10  21  41  62  90 123 164 212 267 321 380
#     4  10  22  39  60  90 128 163 199 254 318 389
#     4  11  21  38  62  90 120 159 213 263 323 380
#     4   9  22  41  65  90 123 168 212 263 315 383
#
# _framework density 19.809856
#
# number of rings (size 3 to 8) (size 9 to 14) (size 15 to 20)
#    0.000    1.714    2.857    1.286    0.000    6.286 
#    0.000    5.714    0.000    0.000    0.000    0.000 
#    0.000    0.000    0.000    0.000    0.000    0.000 
#
# Total GULP energy -311790.254386 kJ/mol
# GULP energy per Si atom -5567.683114 kJ/mol
# Density = 1.976477 g / cm^3
# Si number density = 19.809856 Si / 1000 Ang^3
#
#
#
# Elastic Constant Matrix: (Units=GPa)
#
#
# Indices 1 2 3 4 5 6 
#
# 1 60.8576 16.2597 5.2518 0.0000 0.0000 0.0000
# 2 16.2597 36.3403 6.2181 0.0000 0.0000 0.0000
# 3 5.2518 6.2181 78.8911 0.0000 0.0000 0.0000
# 4 0.0000 0.0000 0.0000 28.5477 0.0000 0.0000
# 5 0.0000 0.0000 0.0000 0.0000 32.3388 0.0000
# 6 0.0000 0.0000 0.0000 0.0000 0.0000 21.9361
#
#
#
# Elastic Compliance Matrix: (Units=1/GPa)
#
#
# Indices 1 2 3 4 5 6 
#
# 1 0.018690 -0.008261 -0.000593 0.000000 0.000000 0.000000
# 2 -0.008261 0.031545 -0.001936 0.000000 0.000000 0.000000
# 3 -0.000593 -0.001936 0.012868 0.000000 0.000000 0.000000
# 4 0.000000 0.000000 0.000000 0.035029 0.000000 0.000000
# 5 0.000000 0.000000 0.000000 0.000000 0.030923 0.000000
# 6 0.000000 0.000000 0.000000 0.000000 0.000000 0.045587
#
#
# Mechanical properties :
#
#
# Convention : Reuss Voigt Hill
#
# Bulk Modulus (GPa) = 24.08354 25.72756 24.90555
# Shear Modulus (GPa) = 23.80233 26.45514 25.12874
#
# Velocity S-wave (km/s) = 3.47008 3.65835 3.56546
# Velocity P-wave (km/s) = 5.31404 5.55519 5.43595
#
# Compressibility (1/GPa) = 0.04152214
#
# Stress axis : x y z
#
# Youngs Moduli (GPa) = 53.50420 31.70059 77.71334
#
# Poissons Ratio (x) = 0.26188 0.04609
# Poissons Ratio (y) = 0.44200 0.15048
# Poissons Ratio (z) = 0.03173 0.06138
#
# Static dielectric constant tensor:
#      x y z
#    x 1.783770 0.000000 0.000000 
#    y 0.000000 1.726580 0.000000 
#    z 0.000000 0.000000 1.700240 
# 
# From -- ./inp_files/17572.got.cif
#   From: 2010.05.17/outbox.cif.g08.bks.cpg/sg64_9_cif.got.tgz:17572.got - 2010.06.03 16:29:19.
