data_PCOD9480827
_publ_section_title
;
Structure prediction by ZEFSAII (Michael W. Deem and Ramdas Pophale) SiO2 
 PCOD9480827
Probable space group: C M C A
;
_chemical_formula_sum "Si O2"
_cell_formula_units_Z 72
_cell_length_a 9.606638
_cell_length_b 21.392342
_cell_length_c 16.279801
_cell_angle_alpha 90.000000
_cell_angle_beta 90.000000
_cell_angle_gamma 90.000000
_cell_volume 3345.637249
_symmetry_space_group_name_H-M "C M C A"
_symmetry_group_IT_number 64
_symmetry_cell_setting 'orthorhombic'
loop_
_space_group_symop_operation_xyz
x,y,z
-x,1/2-y,1/2+z
x,-y,-z
-x,1/2+y,1/2-z
-x,-y,-z
x,1/2+y,1/2-z
-x,y,z
x,1/2-y,1/2+z
1/2+x,1/2+y,z
1/2-x,-y,1/2+z
1/2+x,1/2-y,-z
1/2-x,y,1/2-z
1/2-x,1/2-y,-z
1/2+x,y,1/2-z
1/2-x,1/2+y,z
1/2+x,-y,1/2+z
loop_
_atom_site_type_symbol
_atom_site_label
_atom_site_fract_x
_atom_site_fract_y
_atom_site_fract_z
Si Si1 0.838437 0.717487 0.166412
Si Si2 0.842854 0.825661 0.397687
Si Si3 0.157462 0.525164 0.325817
Si Si4 0.750000 0.596537 0.750000
Si Si5 0.340934 0.093680 0.055691
O O1 0.750000 0.714770 0.250000
O O2 0.767272 0.770083 0.109371
O O3 0.833754 0.652190 0.118301
O O4 0.000000 0.732533 0.183588
O O5 0.837736 0.860690 0.310457
O O6 0.809731 0.876426 0.467568
O O7 0.000000 0.802455 0.414415
O O8 0.250000 0.551467 0.250000
O O9 0.161861 0.451335 0.306049
O O10 0.235338 0.542916 0.409063
O O11 0.000000 0.548521 0.323563
O O12 0.500000 0.069518 0.055896
#
# Coordination Sequence:
#
# PCOD9480827 Si02
#       5
#    16  16  16   8  16
#     4  11  23  39  63  94 127 162 205 250 305 372
#     4  11  23  42  66  92 127 165 204 254 310 369
#     4  10  22  40  64  89 121 162 207 258 305 361
#     4  10  24  40  64  90 120 164 212 258 304 372
#     4  10  23  41  64  95 127 163 204 252 311 368
#
# _framework density 21.520564
#
# number of rings (size 3 to 8) (size 9 to 14) (size 15 to 20)
#    0.667    0.889    1.111    3.333    0.000    6.222 
#    0.000    3.333    0.000    0.000    0.000    0.000 
#    0.000    0.000    0.000    0.000    0.000    0.000 
#
# Total GULP energy -201131.391779 kJ/mol
# GULP energy per Si atom -5586.983105 kJ/mol
# Density = 2.147158 g / cm^3
# Si number density = 21.520564 Si / 1000 Ang^3
#
#
#
# Elastic Constant Matrix: (Units=GPa)
#
#
# Indices 1 2 3 4 5 6 
#
# 1 106.1056 19.3555 24.2283 0.0000 0.0000 0.0000
# 2 19.3555 54.8484 2.8091 0.0000 0.0000 0.0000
# 3 24.2283 2.8091 70.1586 0.0000 0.0000 0.0000
# 4 0.0000 0.0000 0.0000 31.8950 0.0000 0.0000
# 5 0.0000 0.0000 0.0000 0.0000 26.7103 0.0000
# 6 0.0000 0.0000 0.0000 0.0000 0.0000 6.0519
#
#
#
# Elastic Compliance Matrix: (Units=1/GPa)
#
#
# Indices 1 2 3 4 5 6 
#
# 1 0.010921 -0.003668 -0.003625 0.000000 0.000000 0.000000
# 2 -0.003668 0.019502 0.000486 0.000000 0.000000 0.000000
# 3 -0.003625 0.000486 0.015486 0.000000 0.000000 0.000000
# 4 0.000000 0.000000 0.000000 0.031353 0.000000 0.000000
# 5 0.000000 0.000000 0.000000 0.000000 0.037439 0.000000
# 6 0.000000 0.000000 0.000000 0.000000 0.000000 0.165238
#
#
# Mechanical properties :
#
#
# Convention : Reuss Voigt Hill
#
# Bulk Modulus (GPa) = 30.96486 35.98869 33.47677
# Shear Modulus (GPa) = 16.43020 25.24609 20.83814
#
# Velocity S-wave (km/s) = 2.76608 3.42879 3.11511
# Velocity P-wave (km/s) = 4.96199 5.69515 5.34116
#
# Compressibility (1/GPa) = 0.03229468
#
# Stress axis : x y z
#
# Youngs Moduli (GPa) = 91.56315 51.27747 64.57569
#
# Poissons Ratio (x) = 0.18811 0.23407
# Poissons Ratio (y) = 0.33589 -0.03138
# Poissons Ratio (z) = 0.33189 -0.02492
#
# Static dielectric constant tensor:
#      x y z
#    x 1.775170 0.000000 0.000000 
#    y 0.000000 1.794190 0.000000 
#    z 0.000000 0.000000 1.781650 
# 
# From -- ./inp_files/29512.got.cif
#   From: 2010.05.17/outbox.cif.g08.bks.cpg/sg64_15_cif.got.tgz:29512.got - 2010.06.03 16:29:19.
