data_PCOD9480533
_publ_section_title
;
Structure prediction by ZEFSAII (Michael W. Deem and Ramdas Pophale) SiO2 
 PCOD9480533
Probable space group: C M C A
;
_chemical_formula_sum "Si O2"
_cell_formula_units_Z 104
_cell_length_a 29.022113
_cell_length_b 19.843271
_cell_length_c 8.861116
_cell_angle_alpha 90.000000
_cell_angle_beta 90.000000
_cell_angle_gamma 90.000000
_cell_volume 5103.060465
_symmetry_space_group_name_H-M "C M C A"
_symmetry_group_IT_number 64
_symmetry_cell_setting 'orthorhombic'
loop_
_space_group_symop_operation_xyz
x,y,z
-x,1/2-y,1/2+z
x,-y,-z
-x,1/2+y,1/2-z
-x,-y,-z
x,1/2+y,1/2-z
-x,y,z
x,1/2-y,1/2+z
1/2+x,1/2+y,z
1/2-x,-y,1/2+z
1/2+x,1/2-y,-z
1/2-x,y,1/2-z
1/2-x,1/2-y,-z
1/2+x,y,1/2-z
1/2-x,1/2+y,z
1/2+x,-y,1/2+z
loop_
_atom_site_type_symbol
_atom_site_label
_atom_site_fract_x
_atom_site_fract_y
_atom_site_fract_z
Si Si1 0.275804 0.308719 0.410407
Si Si2 0.117846 0.715224 0.955200
Si Si3 0.380442 0.110098 0.201584
Si Si4 0.786437 0.440060 0.878216
Si Si5 0.074181 0.000000 0.500000
Si Si6 0.553997 0.651968 0.047851
Si Si7 0.049559 0.115472 0.709149
O O1 0.250000 0.319074 0.250000
O O2 0.250000 0.250000 0.500000
O O3 0.329445 0.284778 0.396769
O O4 0.274515 0.375915 0.514548
O O5 0.086710 0.781978 0.963045
O O6 0.089661 0.662360 0.853866
O O7 0.119730 0.683248 0.123267
O O8 0.328705 0.086419 0.226712
O O9 0.418725 0.108720 0.329422
O O10 0.396096 0.056671 0.078260
O O11 0.750000 0.460813 0.750000
O O12 0.795416 0.500000 0.000000
O O13 0.049517 0.042771 0.630087
O O14 0.500000 0.666293 0.086823
O O15 0.553766 0.614202 0.888274
O O16 0.000000 0.148074 0.671472
#
# Coordination Sequence:
#
# PCOD9480533 Si02
#       7
#    16  16  16  16   8  16  16
#     4  11  26  42  68 102 138 176 229 279 342 406
#     4  10  23  40  66  92 133 174 214 267 332 399
#     4  10  23  42  66  93 132 172 220 270 330 397
#     4  11  24  46  70 100 135 177 229 284 344 416
#     4  10  21  44  64  86 128 174 222 260 327 394
#     4  11  24  40  63  99 134 169 223 276 331 397
#     4  10  22  39  64  94 126 171 219 268 325 394
#
# _framework density 20.379926999999999
#
# number of rings (size 3 to 8) (size 9 to 14) (size 15 to 20)
#    0.000    1.538    0.769    2.538    8.615    5.538 
#    2.769    1.538    0.000    0.000    0.000    0.000 
#    0.000    0.000    0.000    0.000    0.000    0.000 
#
# Total GULP energy -289837.558012 kJ/mol
# GULP energy per Si atom -5573.799193 kJ/mol
# Density = 2.033354 g / cm^3
# Si number density = 20.379927 Si / 1000 Ang^3
#
#
#
# Elastic Constant Matrix: (Units=GPa)
#
#
# Indices 1 2 3 4 5 6 
#
# 1 157.4283 29.2594 58.1680 0.0000 0.0000 0.0000
# 2 29.2594 97.2680 30.9735 0.0000 0.0000 0.0000
# 3 58.1680 30.9735 89.4636 0.0000 0.0000 0.0000
# 4 0.0000 0.0000 0.0000 14.4336 0.0000 0.0000
# 5 0.0000 0.0000 0.0000 0.0000 31.6223 0.0000
# 6 0.0000 0.0000 0.0000 0.0000 0.0000 45.8169
#
#
#
# Elastic Compliance Matrix: (Units=1/GPa)
#
#
# Indices 1 2 3 4 5 6 
#
# 1 0.008428 -0.000888 -0.005172 0.000000 0.000000 0.000000
# 2 -0.000888 0.011648 -0.003455 0.000000 0.000000 0.000000
# 3 -0.005172 -0.003455 0.015737 0.000000 0.000000 0.000000
# 4 0.000000 0.000000 0.000000 0.069283 0.000000 0.000000
# 5 0.000000 0.000000 0.000000 0.000000 0.031623 0.000000
# 6 0.000000 0.000000 0.000000 0.000000 0.000000 0.021826
#
#
# Mechanical properties :
#
#
# Convention : Reuss Voigt Hill
#
# Bulk Modulus (GPa) = 59.58854 64.55129 62.06991
# Shear Modulus (GPa) = 27.29679 33.42516 30.36097
#
# Velocity S-wave (km/s) = 3.66375 4.05421 3.86391
# Velocity P-wave (km/s) = 6.87020 7.32518 7.10133
#
# Compressibility (1/GPa) = 0.01678175
#
# Stress axis : x y z
#
# Youngs Moduli (GPa) = 118.64700 85.84901 63.54420
#
# Poissons Ratio (x) = 0.07626 0.32868
# Poissons Ratio (y) = 0.10539 0.21956
# Poissons Ratio (z) = 0.61370 0.29663
#
# Static dielectric constant tensor:
#      x y z
#    x 1.860440 0.000000 0.000000 
#    y 0.000000 1.723380 0.000000 
#    z 0.000000 0.000000 1.709070 
# 
# From -- ./inp_files/10432.got.cif
#   From: 2010.05.17/outbox.cif.g08.bks.cpg/sg64_6_cif.got.tgz:10432.got - 2010.06.03 16:29:19.
