data_PCOD9480867
_publ_section_title
;
Structure prediction by ZEFSAII (Michael W. Deem and Ramdas Pophale) SiO2 
 PCOD9480867
Probable space group: C M C A
;
_chemical_formula_sum "Si O2"
_cell_formula_units_Z 96
_cell_length_a 21.706644
_cell_length_b 15.337800
_cell_length_c 14.242459
_cell_angle_alpha 90.000000
_cell_angle_beta 90.000000
_cell_angle_gamma 90.000000
_cell_volume 4741.772700
_symmetry_space_group_name_H-M "C M C A"
_symmetry_group_IT_number 64
_symmetry_cell_setting 'orthorhombic'
loop_
_space_group_symop_operation_xyz
x,y,z
-x,1/2-y,1/2+z
x,-y,-z
-x,1/2+y,1/2-z
-x,-y,-z
x,1/2+y,1/2-z
-x,y,z
x,1/2-y,1/2+z
1/2+x,1/2+y,z
1/2-x,-y,1/2+z
1/2+x,1/2-y,-z
1/2-x,y,1/2-z
1/2-x,1/2-y,-z
1/2+x,y,1/2-z
1/2-x,1/2+y,z
1/2+x,-y,1/2+z
loop_
_atom_site_type_symbol
_atom_site_label
_atom_site_fract_x
_atom_site_fract_y
_atom_site_fract_z
Si Si1 0.881879 0.079743 0.932082
Si Si2 0.883130 0.412104 0.016612
Si Si3 0.306486 0.743620 0.433395
Si Si4 0.500000 0.263731 0.771388
Si Si5 0.115889 0.367947 0.229818
Si Si6 0.250000 0.721134 0.750000
Si Si7 0.500000 0.132669 0.090230
Si Si8 0.000000 0.321511 0.511977
O O1 0.835070 0.160479 0.929254
O O2 0.890719 0.066437 0.819137
O O3 0.942137 0.121430 0.979720
O O4 0.863235 0.000000 0.000000
O O5 0.898420 0.402761 0.126044
O O6 0.844582 0.500000 0.000000
O O7 0.851591 0.325489 0.978253
O O8 0.941658 0.418002 0.948694
O O9 0.250000 0.750000 0.500000
O O10 0.278367 0.721079 0.332628
O O11 0.562888 0.206815 0.753792
O O12 0.500000 0.344287 0.699409
O O13 0.500000 0.297643 0.878177
O O14 0.187921 0.334333 0.222613
O O15 0.500000 0.228790 0.041393
#
# Coordination Sequence:
#
# PCOD9480867 Si02
#       8
#    16  16  16   8  16   8   8   8
#     4  11  24  42  67  99 134 168 223 279 336 401
#     4  12  25  43  67  99 137 175 228 278 338 405
#     4  11  22  44  68  92 132 178 219 273 334 397
#     4  12  22  38  78  94 132 180 228 268 350 406
#     4  11  21  42  65  97 134 180 215 284 341 394
#     4  10  22  40  70  96 130 176 228 268 342 400
#     4  12  21  42  65  98 128 176 216 273 334 405
#     4  12  21  40  69 100 126 172 218 271 334 409
#
# _framework density 20.245593
#
# number of rings (size 3 to 8) (size 9 to 14) (size 15 to 20)
#    0.000    0.667    6.667    1.500    0.000    2.000 
#    3.000    0.000    0.000    0.000    0.000    0.000 
#    0.000    0.000    0.000    0.000    0.000    0.000 
#
# Total GULP energy -267552.170398 kJ/mol
# GULP energy per Si atom -5574.003550 kJ/mol
# Density = 2.019951 g / cm^3
# Si number density = 20.245593 Si / 1000 Ang^3
#
#
#
# Elastic Constant Matrix: (Units=GPa)
#
#
# Indices 1 2 3 4 5 6 
#
# 1 93.2134 4.2995 10.3552 0.0000 0.0000 0.0000
# 2 4.2995 77.4393 36.4572 0.0000 0.0000 0.0000
# 3 10.3552 36.4572 165.1045 0.0000 0.0000 0.0000
# 4 0.0000 0.0000 0.0000 29.5545 0.0000 0.0000
# 5 0.0000 0.0000 0.0000 0.0000 29.8494 0.0000
# 6 0.0000 0.0000 0.0000 0.0000 0.0000 -430.6968
#
#
#
# Elastic Compliance Matrix: (Units=1/GPa)
#
#
# Indices 1 2 3 4 5 6 
#
# 1 0.010810 -0.000314 -0.000609 0.000000 0.000000 0.000000
# 2 -0.000314 0.014421 -0.003165 0.000000 0.000000 0.000000
# 3 -0.000609 -0.003165 0.006794 0.000000 0.000000 0.000000
# 4 0.000000 0.000000 0.000000 0.033836 0.000000 0.000000
# 5 0.000000 0.000000 0.000000 0.000000 0.033502 0.000000
# 6 0.000000 0.000000 0.000000 0.000000 0.000000 -0.002322
#
#
# Mechanical properties :
#
#
# Convention : Reuss Voigt Hill
#
# Bulk Modulus (GPa) = 41.92764 48.66454 45.29609
# Shear Modulus (GPa) = 44.18366 -55.28221 -5.54927
#
# Velocity S-wave (km/s) = 4.67667 -5.23116 -1.65739
# Velocity P-wave (km/s) = 7.06513 3.52101 4.33120
#
# Compressibility (1/GPa) = 0.02385061
#
# Stress axis : x y z
#
# Youngs Moduli (GPa) = 92.50558 69.34530 147.19459
#
# Poissons Ratio (x) = 0.02175 0.08961
# Poissons Ratio (y) = 0.02901 0.46581
# Poissons Ratio (z) = 0.05631 0.21945
#
# Static dielectric constant tensor:
#      x y z
#    x 1.736820 0.000000 0.000000 
#    y 0.000000 1.386570 0.000000 
#    z 0.000000 0.000000 1.664450 
# 
# From -- ./inp_files/26418.got.cif
#   From: 2010.05.17/outbox.cif.g08.bks.cpg/sg64_14_cif.got.tgz:26418.got - 2010.06.03 16:29:19.
