data_PCOD9480219
_publ_section_title
;
Structure prediction by ZEFSAII (Michael W. Deem and Ramdas Pophale) SiO2 
 PCOD9480219
Probable space group: C M C A
;
_chemical_formula_sum "Si O2"
_cell_formula_units_Z 72
_cell_length_a 16.996184
_cell_length_b 25.673447
_cell_length_c 7.898979
_cell_angle_alpha 90.000000
_cell_angle_beta 90.000000
_cell_angle_gamma 90.000000
_cell_volume 3446.724456
_symmetry_space_group_name_H-M "C M C A"
_symmetry_group_IT_number 64
_symmetry_cell_setting 'orthorhombic'
loop_
_space_group_symop_operation_xyz
x,y,z
-x,1/2-y,1/2+z
x,-y,-z
-x,1/2+y,1/2-z
-x,-y,-z
x,1/2+y,1/2-z
-x,y,z
x,1/2-y,1/2+z
1/2+x,1/2+y,z
1/2-x,-y,1/2+z
1/2+x,1/2-y,-z
1/2-x,y,1/2-z
1/2-x,1/2-y,-z
1/2+x,y,1/2-z
1/2-x,1/2+y,z
1/2+x,-y,1/2+z
loop_
_atom_site_type_symbol
_atom_site_label
_atom_site_fract_x
_atom_site_fract_y
_atom_site_fract_z
Si Si1 0.217182 0.805304 0.563892
Si Si2 0.250000 0.620803 0.750000
Si Si3 0.338754 0.470299 0.819818
Si Si4 0.087235 0.066147 0.687627
Si Si5 0.587740 0.874328 0.831632
O O1 0.250000 0.814633 0.750000
O O2 0.250000 0.750000 0.500000
O O3 0.243005 0.844954 0.418404
O O4 0.126421 0.820399 0.602386
O O5 0.168356 0.589377 0.735995
O O6 0.250000 0.472896 0.750000
O O7 0.397322 0.504861 0.704947
O O8 0.365773 0.410224 0.803912
O O9 0.341854 0.500000 0.000000
O O10 0.086652 0.089977 0.500275
O O11 0.000000 0.077927 0.761954
O O12 0.500000 0.865389 0.769487
#
# Coordination Sequence:
#
# PCOD9480219 Si02
#       5
#    16   8  16  16  16
#     4  11  23  43  70  94 124 174 225 285 353 421
#     4  10  22  42  64  96 132 170 226 274 346 418
#     4  12  24  37  60  94 133 180 226 268 330 411
#     4  10  21  39  63  91 129 175 219 268 331 409
#     4  10  23  42  64  93 130 170 218 279 344 411
#
# _framework density 20.889396999999999
#
# number of rings (size 3 to 8) (size 9 to 14) (size 15 to 20)
#    0.000    1.333    2.222    3.333    6.222    3.556 
#    0.000    2.222    0.000    0.000    0.000    0.000 
#    0.000    0.000    0.000    0.000    0.000    0.000 
#
# Total GULP energy -200588.118027 kJ/mol
# GULP energy per Si atom -5571.892167 kJ/mol
# Density = 2.084185 g / cm^3
# Si number density = 20.889397 Si / 1000 Ang^3
#
#
#
# Elastic Constant Matrix: (Units=GPa)
#
#
# Indices 1 2 3 4 5 6 
#
# 1 173.3033 67.5779 34.6537 0.0000 0.0000 0.0000
# 2 67.5779 115.2406 24.7218 0.0000 0.0000 0.0000
# 3 34.6537 24.7218 84.7653 0.0000 0.0000 0.0000
# 4 0.0000 0.0000 0.0000 24.8191 0.0000 0.0000
# 5 0.0000 0.0000 0.0000 0.0000 15.1321 0.0000
# 6 0.0000 0.0000 0.0000 0.0000 0.0000 24.6990
#
#
#
# Elastic Compliance Matrix: (Units=1/GPa)
#
#
# Indices 1 2 3 4 5 6 
#
# 1 0.007778 -0.004138 -0.001973 0.000000 0.000000 0.000000
# 2 -0.004138 0.011458 -0.001650 0.000000 0.000000 0.000000
# 3 -0.001973 -0.001650 0.013085 0.000000 0.000000 0.000000
# 4 0.000000 0.000000 0.000000 0.040292 0.000000 0.000000
# 5 0.000000 0.000000 0.000000 0.000000 0.066085 0.000000
# 6 0.000000 0.000000 0.000000 0.000000 0.000000 0.040487
#
#
# Mechanical properties :
#
#
# Convention : Reuss Voigt Hill
#
# Bulk Modulus (GPa) = 59.52642 69.69067 64.60854
# Shear Modulus (GPa) = 24.96167 29.35377 27.15772
#
# Velocity S-wave (km/s) = 3.46055 3.75267 3.60956
# Velocity P-wave (km/s) = 6.67271 7.22571 6.95471
#
# Compressibility (1/GPa) = 0.01679926
#
# Stress axis : x y z
#
# Youngs Moduli (GPa) = 128.56211 87.27511 76.42247
#
# Poissons Ratio (x) = 0.36114 0.15079
# Poissons Ratio (y) = 0.53199 0.12610
# Poissons Ratio (z) = 0.25366 0.14401
#
# Static dielectric constant tensor:
#      x y z
#    x 1.958160 0.000000 0.000000 
#    y 0.000000 1.798900 0.000000 
#    z 0.000000 0.000000 1.778650 
# 
# From -- ./inp_files/6895.got.cif
#   From: 2010.05.17/outbox.cif.g08.bks.cpg/sg64_4_cif.got.tgz:6895.got - 2010.06.03 16:29:19.
