data_PCOD9480115
_publ_section_title
;
Structure prediction by ZEFSAII (Michael W. Deem and Ramdas Pophale) SiO2 
 PCOD9480115
Probable space group: C M C A
;
_chemical_formula_sum "Si O2"
_cell_formula_units_Z 48
_cell_length_a 11.734733
_cell_length_b 9.215102
_cell_length_c 16.778736
_cell_angle_alpha 90.000000
_cell_angle_beta 90.000000
_cell_angle_gamma 90.000000
_cell_volume 1814.398174
_symmetry_space_group_name_H-M "C M C A"
_symmetry_group_IT_number 64
_symmetry_cell_setting 'orthorhombic'
loop_
_space_group_symop_operation_xyz
x,y,z
-x,1/2-y,1/2+z
x,-y,-z
-x,1/2+y,1/2-z
-x,-y,-z
x,1/2+y,1/2-z
-x,y,z
x,1/2-y,1/2+z
1/2+x,1/2+y,z
1/2-x,-y,1/2+z
1/2+x,1/2-y,-z
1/2-x,y,1/2-z
1/2-x,1/2-y,-z
1/2+x,y,1/2-z
1/2-x,1/2+y,z
1/2+x,-y,1/2+z
loop_
_atom_site_type_symbol
_atom_site_label
_atom_site_fract_x
_atom_site_fract_y
_atom_site_fract_z
Si Si1 0.127873 0.187845 0.647264
Si Si2 0.500000 0.858445 0.770714
Si Si3 0.000000 0.597357 0.641163
Si Si4 0.734377 0.042428 0.413639
O O1 0.108625 0.278794 0.727779
O O2 0.180238 0.028659 0.650367
O O3 0.211532 0.288538 0.596566
O O4 0.000000 0.181692 0.612098
O O5 0.500000 0.772391 0.854131
O O6 0.500000 0.017681 0.730070
O O7 0.888361 0.533774 0.599424
O O8 0.779711 0.000000 0.500000
#
# Coordination Sequence:
#
# PCOD9480115 Si02
#       4
#    16   8   8  16
#     4   9  22  41  58  89 122 153 204 248 293 358
#     4   8  20  40  55  88 117 154 204 250 292 352
#     4  10  21  38  64  86 123 158 202 246 300 360
#     4  11  21  40  64  90 125 161 194 250 306 356
#
# _framework density 26.455052999999999
#
# number of rings (size 3 to 8) (size 9 to 14) (size 15 to 20)
#    1.000    1.333    1.667    1.500    0.000    4.667 
#    3.000    6.667    0.000    0.000    0.000    0.000 
#    0.000    0.000    0.000    0.000    0.000    0.000 
#
# Total GULP energy -134070.263880 kJ/mol
# GULP energy per Si atom -5586.260995 kJ/mol
# Density = 2.639484 g / cm^3
# Si number density = 26.455053 Si / 1000 Ang^3
#
#
#
# Elastic Constant Matrix: (Units=GPa)
#
#
# Indices 1 2 3 4 5 6 
#
# 1 83.8506 24.6557 -1.7196 0.0000 0.0000 0.0000
# 2 24.6557 174.9680 -0.8992 0.0000 0.0000 0.0000
# 3 -1.7196 -0.8992 52.4573 0.0000 0.0000 0.0000
# 4 0.0000 0.0000 0.0000 34.1089 0.0000 0.0000
# 5 0.0000 0.0000 0.0000 0.0000 22.4227 0.0000
# 6 0.0000 0.0000 0.0000 0.0000 0.0000 17.0388
#
#
#
# Elastic Compliance Matrix: (Units=1/GPa)
#
#
# Indices 1 2 3 4 5 6 
#
# 1 0.012449 -0.001752 0.000378 0.000000 0.000000 0.000000
# 2 -0.001752 0.005962 0.000045 0.000000 0.000000 0.000000
# 3 0.000378 0.000045 0.019076 0.000000 0.000000 0.000000
# 4 0.000000 0.000000 0.000000 0.029318 0.000000 0.000000
# 5 0.000000 0.000000 0.000000 0.000000 0.044598 0.000000
# 6 0.000000 0.000000 0.000000 0.000000 0.000000 0.058690
#
#
# Mechanical properties :
#
#
# Convention : Reuss Voigt Hill
#
# Bulk Modulus (GPa) = 28.71192 39.48332 34.09762
# Shear Modulus (GPa) = 27.12064 33.99667 30.55865
#
# Velocity S-wave (km/s) = 3.20528 3.58868 3.40239
# Velocity P-wave (km/s) = 4.95733 5.66821 5.32465
#
# Compressibility (1/GPa) = 0.03482874
#
# Stress axis : x y z
#
# Youngs Moduli (GPa) = 80.32786 167.71517 52.42112
#
# Poissons Ratio (x) = 0.29389 -0.01982
# Poissons Ratio (y) = 0.14076 -0.00235
# Poissons Ratio (z) = -0.03037 -0.00751
#
# Static dielectric constant tensor:
#      x y z
#    x 2.049620 0.000000 0.000000 
#    y 0.000000 2.141450 0.000000 
#    z 0.000000 0.000000 2.207600 
# 
# From -- ./inp_files/43649.got.cif
#   From: 2010.05.17/outbox.cif.g08.bks.cpg/sg64_22_cif.got.tgz:43649.got - 2010.06.03 16:29:19.
