data_PCOD9480766
_publ_section_title
;
Structure prediction by ZEFSAII (Michael W. Deem and Ramdas Pophale) SiO2 
 PCOD9480766
Probable space group: C M C A
;
_chemical_formula_sum "Si O2"
_cell_formula_units_Z 64
_cell_length_a 14.446647
_cell_length_b 9.601725
_cell_length_c 19.665969
_cell_angle_alpha 90.000000
_cell_angle_beta 90.000000
_cell_angle_gamma 90.000000
_cell_volume 2727.920281
_symmetry_space_group_name_H-M "C M C A"
_symmetry_group_IT_number 64
_symmetry_cell_setting 'orthorhombic'
loop_
_space_group_symop_operation_xyz
x,y,z
-x,1/2-y,1/2+z
x,-y,-z
-x,1/2+y,1/2-z
-x,-y,-z
x,1/2+y,1/2-z
-x,y,z
x,1/2-y,1/2+z
1/2+x,1/2+y,z
1/2-x,-y,1/2+z
1/2+x,1/2-y,-z
1/2-x,y,1/2-z
1/2-x,1/2-y,-z
1/2+x,y,1/2-z
1/2-x,1/2+y,z
1/2+x,-y,1/2+z
loop_
_atom_site_type_symbol
_atom_site_label
_atom_site_fract_x
_atom_site_fract_y
_atom_site_fract_z
Si Si1 0.842909 0.500000 0.500000
Si Si2 0.500000 0.652661 0.836148
Si Si3 0.000000 0.373334 0.596677
Si Si4 0.701618 0.980005 0.819161
Si Si5 0.000000 0.396868 0.185914
Si Si6 0.698518 0.286438 0.106667
O O1 0.788434 0.622312 0.539107
O O2 0.911510 0.416193 0.551331
O O3 0.500000 0.484245 0.841780
O O4 0.500000 0.686982 0.757055
O O5 0.590092 0.703894 0.875212
O O6 0.000000 0.216867 0.625024
O O7 0.750000 0.927998 0.750000
O O8 0.723024 0.873044 0.880389
O O9 0.592627 0.010371 0.814712
O O10 0.748261 0.126357 0.836236
#
# Coordination Sequence:
#
# PCOD9480766 Si02
#       6
#     8   8   8  16   8  16
#     4   9  22  48  72  97 144 186 240 283 346 417
#     4  10  22  39  71  99 138 183 223 287 361 406
#     4   9  22  43  74 105 134 193 235 283 348 421
#     4  12  27  44  68 109 143 179 236 293 359 420
#     4  12  26  42  69 103 144 181 227 295 351 419
#     4  11  25  45  71 102 141 189 233 289 347 418
#
# _framework density 23.461095
#
# number of rings (size 3 to 8) (size 9 to 14) (size 15 to 20)
#    0.000    1.250    2.500    2.250   10.500    1.000 
#    0.000    1.250    0.000    0.000    0.000    0.000 
#    0.000    0.000    0.000    0.000    0.000    0.000 
#
# Total GULP energy -178957.611818 kJ/mol
# GULP energy per Si atom -5592.425369 kJ/mol
# Density = 2.340770 g / cm^3
# Si number density = 23.461095 Si / 1000 Ang^3
#
#
#
# Elastic Constant Matrix: (Units=GPa)
#
#
# Indices 1 2 3 4 5 6 
#
# 1 118.9974 32.8972 17.9111 0.0000 0.0000 0.0000
# 2 32.8972 135.4100 38.5336 0.0000 0.0000 0.0000
# 3 17.9111 38.5336 101.4948 0.0000 0.0000 0.0000
# 4 0.0000 0.0000 0.0000 29.1957 0.0000 0.0000
# 5 0.0000 0.0000 0.0000 0.0000 31.2865 0.0000
# 6 0.0000 0.0000 0.0000 0.0000 0.0000 22.3092
#
#
#
# Elastic Compliance Matrix: (Units=1/GPa)
#
#
# Indices 1 2 3 4 5 6 
#
# 1 0.009075 -0.001961 -0.000857 0.000000 0.000000 0.000000
# 2 -0.001961 0.008703 -0.002958 0.000000 0.000000 0.000000
# 3 -0.000857 -0.002958 0.011127 0.000000 0.000000 0.000000
# 4 0.000000 0.000000 0.000000 0.034252 0.000000 0.000000
# 5 0.000000 0.000000 0.000000 0.000000 0.031963 0.000000
# 6 0.000000 0.000000 0.000000 0.000000 0.000000 0.044825
#
#
# Mechanical properties :
#
#
# Convention : Reuss Voigt Hill
#
# Bulk Modulus (GPa) = 57.62734 59.39843 58.51289
# Shear Modulus (GPa) = 31.79047 34.32898 33.05972
#
# Velocity S-wave (km/s) = 3.68507 3.82937 3.75791
# Velocity P-wave (km/s) = 6.53625 6.70260 6.61995
#
# Compressibility (1/GPa) = 0.01735288
#
# Stress axis : x y z
#
# Youngs Moduli (GPa) = 110.19777 114.90083 89.87077
#
# Poissons Ratio (x) = 0.22529 0.07702
# Poissons Ratio (y) = 0.21607 0.26586
# Poissons Ratio (z) = 0.09444 0.33990
#
# Static dielectric constant tensor:
#      x y z
#    x 1.885410 0.000000 0.000000 
#    y 0.000000 1.856270 0.000000 
#    z 0.000000 0.000000 1.915520 
# 
# From -- ./inp_files/39843.got.cif
#   From: 2010.05.17/outbox.cif.g08.bks.cpg/sg64_20_cif.got.tgz:39843.got - 2010.06.03 16:29:19.
