data_PCOD9480908
_publ_section_title
;
Structure prediction by ZEFSAII (Michael W. Deem and Ramdas Pophale) SiO2 
 PCOD9480908
Probable space group: C M C A
;
_chemical_formula_sum "Si O2"
_cell_formula_units_Z 116
_cell_length_a 23.811754
_cell_length_b 27.179127
_cell_length_c 9.456514
_cell_angle_alpha 90.000000
_cell_angle_beta 90.000000
_cell_angle_gamma 90.000000
_cell_volume 6120.092131
_symmetry_space_group_name_H-M "C M C A"
_symmetry_group_IT_number 64
_symmetry_cell_setting 'orthorhombic'
loop_
_space_group_symop_operation_xyz
x,y,z
-x,1/2-y,1/2+z
x,-y,-z
-x,1/2+y,1/2-z
-x,-y,-z
x,1/2+y,1/2-z
-x,y,z
x,1/2-y,1/2+z
1/2+x,1/2+y,z
1/2-x,-y,1/2+z
1/2+x,1/2-y,-z
1/2-x,y,1/2-z
1/2-x,1/2-y,-z
1/2+x,y,1/2-z
1/2-x,1/2+y,z
1/2+x,-y,1/2+z
loop_
_atom_site_type_symbol
_atom_site_label
_atom_site_fract_x
_atom_site_fract_y
_atom_site_fract_z
Si Si1 0.565925 0.353375 0.632997
Si Si2 0.901485 0.062329 0.157791
Si Si3 0.842000 0.383424 0.399182
Si Si4 0.804829 0.988882 0.165665
Si Si5 0.802305 0.219377 0.940309
Si Si6 0.876290 0.236243 0.206402
Si Si7 0.934552 0.337653 0.193010
Si Si8 0.500000 0.000000 0.500000
O O1 0.500000 0.341225 0.642859
O O2 0.577055 0.404032 0.714737
O O3 0.600435 0.310882 0.712141
O O4 0.579731 0.354771 0.466448
O O5 0.858551 0.020613 0.210768
O O6 0.867627 0.096936 0.046919
O O7 0.950812 0.034923 0.073438
O O8 0.816700 0.430982 0.322739
O O9 0.797258 0.339407 0.420933
O O10 0.893247 0.362438 0.305699
O O11 0.750000 0.003611 0.250000
O O12 0.796586 0.000000 0.000000
O O13 0.823631 0.242422 0.794246
O O14 0.750000 0.250000 0.000000
O O15 0.853825 0.224544 0.050850
O O16 0.922284 0.279347 0.199432
O O17 0.000000 0.348283 0.221778
#
# Coordination Sequence:
#
# PCOD9480908 Si02
#       8
#    16  16  16  16  16  16  16   4
#     4  11  22  38  60  92 125 161 202 258 324 375
#     4  11  22  40  68  98 123 164 213 268 321 380
#     4  10  22  41  64  88 124 165 212 254 317 376
#     4  10  23  44  64  93 125 162 217 257 314 383
#     4  11  23  39  61  88 120 166 211 259 309 368
#     4  11  21  41  57  85 128 162 206 258 310 381
#     4  10  23  38  59  92 129 164 206 252 313 387
#     4  12  20  40  76  98 128 152 220 276 316 384
#
# _framework density 18.953963000000002
#
# number of rings (size 3 to 8) (size 9 to 14) (size 15 to 20)
#    0.000    1.379    5.517    0.828    0.966    3.310 
#    4.966    0.000    0.000    2.483    0.000    0.000 
#    0.000    0.000    0.000    0.000    0.000    0.000 
#
# Total GULP energy -323362.651792 kJ/mol
# GULP energy per Si atom -5575.218134 kJ/mol
# Density = 1.891082 g / cm^3
# Si number density = 18.953963 Si / 1000 Ang^3
#
#
#
# Elastic Constant Matrix: (Units=GPa)
#
#
# Indices 1 2 3 4 5 6 
#
# 1 67.5840 37.2240 3.3210 0.0000 0.0000 0.0000
# 2 37.2240 129.7238 21.6366 0.0000 0.0000 0.0000
# 3 3.3210 21.6366 47.6644 0.0000 0.0000 0.0000
# 4 0.0000 0.0000 0.0000 17.2512 0.0000 0.0000
# 5 0.0000 0.0000 0.0000 0.0000 28.0637 0.0000
# 6 0.0000 0.0000 0.0000 0.0000 0.0000 17.6177
#
#
#
# Elastic Compliance Matrix: (Units=1/GPa)
#
#
# Indices 1 2 3 4 5 6 
#
# 1 0.017633 -0.005252 0.001156 0.000000 0.000000 0.000000
# 2 -0.005252 0.009905 -0.004130 0.000000 0.000000 0.000000
# 3 0.001156 -0.004130 0.022774 0.000000 0.000000 0.000000
# 4 0.000000 0.000000 0.000000 0.057967 0.000000 0.000000
# 5 0.000000 0.000000 0.000000 0.000000 0.035633 0.000000
# 6 0.000000 0.000000 0.000000 0.000000 0.000000 0.056761
#
#
# Mechanical properties :
#
#
# Convention : Reuss Voigt Hill
#
# Bulk Modulus (GPa) = 29.53520 41.03725 35.28622
# Shear Modulus (GPa) = 21.89023 24.77255 23.33139
#
# Velocity S-wave (km/s) = 3.40209 3.61915 3.51230
# Velocity P-wave (km/s) = 5.57214 6.25798 5.92499
#
# Compressibility (1/GPa) = 0.03385791
#
# Stress axis : x y z
#
# Youngs Moduli (GPa) = 56.71337 100.96205 43.90911
#
# Poissons Ratio (x) = 0.53029 -0.05075
# Poissons Ratio (y) = 0.29788 0.18135
# Poissons Ratio (z) = -0.06554 0.41699
#
# Static dielectric constant tensor:
#      x y z
#    x 1.640830 0.000000 0.000000 
#    y 0.000000 1.666040 0.000000 
#    z 0.000000 0.000000 1.638120 
# 
# From -- ./inp_files/9731.got.cif
#   From: 2010.05.17/outbox.cif.g08.bks.cpg/sg64_5_cif.got.tgz:9731.got - 2010.06.03 16:29:19.
