data_PCOD9480747
_publ_section_title
;
Structure prediction by ZEFSAII (Michael W. Deem and Ramdas Pophale) SiO2 
 PCOD9480747
Probable space group: C M C A
;
_chemical_formula_sum "Si O2"
_cell_formula_units_Z 64
_cell_length_a 15.921137
_cell_length_b 20.557598
_cell_length_c 8.582939
_cell_angle_alpha 90.000000
_cell_angle_beta 90.000000
_cell_angle_gamma 90.000000
_cell_volume 2809.198803
_symmetry_space_group_name_H-M "C M C A"
_symmetry_group_IT_number 64
_symmetry_cell_setting 'orthorhombic'
loop_
_space_group_symop_operation_xyz
x,y,z
-x,1/2-y,1/2+z
x,-y,-z
-x,1/2+y,1/2-z
-x,-y,-z
x,1/2+y,1/2-z
-x,y,z
x,1/2-y,1/2+z
1/2+x,1/2+y,z
1/2-x,-y,1/2+z
1/2+x,1/2-y,-z
1/2-x,y,1/2-z
1/2-x,1/2-y,-z
1/2+x,y,1/2-z
1/2-x,1/2+y,z
1/2+x,-y,1/2+z
loop_
_atom_site_type_symbol
_atom_site_label
_atom_site_fract_x
_atom_site_fract_y
_atom_site_fract_z
Si Si1 0.654246 0.959086 0.214843
Si Si2 0.597529 0.294488 0.840704
Si Si3 0.341072 0.673222 0.832286
Si Si4 0.403568 0.591115 0.389591
O O1 0.750000 0.977293 0.250000
O O2 0.627340 0.901123 0.328362
O O3 0.602151 0.025147 0.211452
O O4 0.648478 0.925772 0.043803
O O5 0.500000 0.307655 0.882695
O O6 0.604502 0.222958 0.769213
O O7 0.623528 0.346737 0.709192
O O8 0.655141 0.302223 0.991535
O O9 0.250000 0.673139 0.750000
O O10 0.500000 0.601527 0.438357
#
# Coordination Sequence:
#
# PCOD9480747 Si02
#       4
#    16  16  16  16
#     4  10  22  39  63  94 125 163 206 252 307 367
#     4  11  24  41  65  94 124 163 210 258 309 370
#     4  11  24  41  62  92 127 165 206 255 313 372
#     4  10  23  43  66  92 126 167 208 255 311 369
#
# _framework density 22.782297
#
# number of rings (size 3 to 8) (size 9 to 14) (size 15 to 20)
#    0.000    1.500    0.000    4.500    0.000   18.000 
#    0.000    2.500    0.000    0.000    0.000    0.000 
#    0.000    0.000    0.000    0.000    0.000    0.000 
#
# Total GULP energy -178995.444203 kJ/mol
# GULP energy per Si atom -5593.607631 kJ/mol
# Density = 2.273044 g / cm^3
# Si number density = 22.782297 Si / 1000 Ang^3
#
#
#
# Elastic Constant Matrix: (Units=GPa)
#
#
# Indices 1 2 3 4 5 6 
#
# 1 66.5082 -2.8250 35.4764 0.0000 0.0000 0.0000
# 2 -2.8250 60.7397 -25.6219 0.0000 0.0000 0.0000
# 3 35.4764 -25.6219 33.8789 0.0000 0.0000 0.0000
# 4 0.0000 0.0000 0.0000 33.3859 0.0000 0.0000
# 5 0.0000 0.0000 0.0000 0.0000 -8.8436 0.0000
# 6 0.0000 0.0000 0.0000 0.0000 0.0000 26.5653
#
#
#
# Elastic Compliance Matrix: (Units=1/GPa)
#
#
# Indices 1 2 3 4 5 6 
#
# 1 0.064821 -0.037619 -0.096328 0.000000 0.000000 0.000000
# 2 -0.037619 0.046010 0.074189 0.000000 0.000000 0.000000
# 3 -0.096328 0.074189 0.186495 0.000000 0.000000 0.000000
# 4 0.000000 0.000000 0.000000 0.029953 0.000000 0.000000
# 5 0.000000 0.000000 0.000000 0.000000 -0.113076 0.000000
# 6 0.000000 0.000000 0.000000 0.000000 0.000000 0.037643
#
#
# Mechanical properties :
#
#
# Convention : Reuss Voigt Hill
#
# Bulk Modulus (GPa) = 5.62400 19.46509 12.54455
# Shear Modulus (GPa) = 11.61088 20.49465 16.05277
#
# Velocity S-wave (km/s) = 2.25998 3.00256 2.65734
# Velocity P-wave (km/s) = 3.04696 4.53685 3.86439
#
# Compressibility (1/GPa) = 0.17780935
#
# Stress axis : x y z
#
# Youngs Moduli (GPa) = 15.42721 21.73463 5.36207
#
# Poissons Ratio (x) = 0.81764 0.51652
# Poissons Ratio (y) = 0.58036 -0.39781
# Poissons Ratio (z) = 1.48607 -1.61248
#
# Static dielectric constant tensor:
#      x y z
#    x 1.838430 0.000000 0.000000 
#    y 0.000000 1.864270 0.000000 
#    z 0.000000 0.000000 1.840090 
# 
# From -- ./inp_files/5583.got.cif
#   From: 2010.05.17/outbox.cif.g08.bks.cpg/sg64_3_cif.got.tgz:5583.got - 2010.06.03 16:29:19.
