data_PCOD9480279
_publ_section_title
;
Structure prediction by ZEFSAII (Michael W. Deem and Ramdas Pophale) SiO2 
 PCOD9480279
Probable space group: C M C A
;
_chemical_formula_sum "Si O2"
_cell_formula_units_Z 68
_cell_length_a 12.771985
_cell_length_b 12.006237
_cell_length_c 20.245118
_cell_angle_alpha 90.000000
_cell_angle_beta 90.000000
_cell_angle_gamma 90.000000
_cell_volume 3104.456824
_symmetry_space_group_name_H-M "C M C A"
_symmetry_group_IT_number 64
_symmetry_cell_setting 'orthorhombic'
loop_
_space_group_symop_operation_xyz
x,y,z
-x,1/2-y,1/2+z
x,-y,-z
-x,1/2+y,1/2-z
-x,-y,-z
x,1/2+y,1/2-z
-x,y,z
x,1/2-y,1/2+z
1/2+x,1/2+y,z
1/2-x,-y,1/2+z
1/2+x,1/2-y,-z
1/2-x,y,1/2-z
1/2-x,1/2-y,-z
1/2+x,y,1/2-z
1/2-x,1/2+y,z
1/2+x,-y,1/2+z
loop_
_atom_site_type_symbol
_atom_site_label
_atom_site_fract_x
_atom_site_fract_y
_atom_site_fract_z
Si Si1 0.838407 0.813193 0.843241
Si Si2 0.113538 0.947103 0.105594
Si Si3 0.886655 0.229764 0.308153
Si Si4 0.689238 0.845821 0.039785
Si Si5 0.500000 0.500000 0.500000
O O1 0.875365 0.777600 0.770581
O O2 0.712792 0.831386 0.838612
O O3 0.856364 0.714928 0.894990
O O4 0.885352 0.929073 0.866229
O O5 0.119855 0.855824 0.164600
O O6 0.216589 0.927099 0.062519
O O7 0.000000 0.926525 0.072196
O O8 0.000000 0.183488 0.327926
O O9 0.593781 0.904321 0.003420
O O10 0.750000 0.750000 0.000000
#
# Coordination Sequence:
#
# PCOD9480279 Si02
#       5
#    16  16  16  16   4
#     4  10  21  39  67  96 135 178 227 285 349 429
#     4  10  22  43  70  99 135 184 231 280 366 439
#     4   9  20  38  63  96 135 172 223 281 347 429
#     4  11  26  47  68  99 138 183 243 300 353 420
#     4  12  28  48  70 106 136 184 244 302 360 414
#
# _framework density 21.903993
#
# number of rings (size 3 to 8) (size 9 to 14) (size 15 to 20)
#    0.000    1.882    0.000    2.118    4.941    7.529 
#   10.588    1.765    0.000    0.000    0.000    0.000 
#    0.000    0.000    0.000    0.000    0.000    0.000 
#
# Total GULP energy -189447.862140 kJ/mol
# GULP energy per Si atom -5571.995945 kJ/mol
# Density = 2.185414 g / cm^3
# Si number density = 21.903993 Si / 1000 Ang^3
#
#
#
# Elastic Constant Matrix: (Units=GPa)
#
#
# Indices 1 2 3 4 5 6 
#
# 1 209.8185 60.4712 19.4751 0.0000 0.0000 0.0000
# 2 60.4712 77.8333 21.7678 0.0000 0.0000 0.0000
# 3 19.4751 21.7678 49.2750 0.0000 0.0000 0.0000
# 4 0.0000 0.0000 0.0000 28.5726 0.0000 0.0000
# 5 0.0000 0.0000 0.0000 0.0000 7.8952 0.0000
# 6 0.0000 0.0000 0.0000 0.0000 0.0000 34.4310
#
#
#
# Elastic Compliance Matrix: (Units=1/GPa)
#
#
# Indices 1 2 3 4 5 6 
#
# 1 0.006147 -0.004674 -0.000365 0.000000 0.000000 0.000000
# 2 -0.004674 0.018213 -0.006198 0.000000 0.000000 0.000000
# 3 -0.000365 -0.006198 0.023177 0.000000 0.000000 0.000000
# 4 0.000000 0.000000 0.000000 0.034999 0.000000 0.000000
# 5 0.000000 0.000000 0.000000 0.000000 0.126659 0.000000
# 6 0.000000 0.000000 0.000000 0.000000 0.000000 0.029044
#
#
# Mechanical properties :
#
#
# Convention : Reuss Voigt Hill
#
# Bulk Modulus (GPa) = 39.90053 60.03947 49.97000
# Shear Modulus (GPa) = 18.58288 29.86063 24.22175
#
# Velocity S-wave (km/s) = 2.91585 3.69623 3.32899
# Velocity P-wave (km/s) = 5.43985 6.75914 6.13506
#
# Compressibility (1/GPa) = 0.02506232
#
# Stress axis : x y z
#
# Youngs Moduli (GPa) = 162.68436 54.90694 43.14684
#
# Poissons Ratio (x) = 0.25662 0.01574
# Poissons Ratio (y) = 0.76034 0.26744
# Poissons Ratio (z) = 0.05935 0.34034
#
# Static dielectric constant tensor:
#      x y z
#    x 1.835550 0.000000 0.000000 
#    y 0.000000 1.748560 0.000000 
#    z 0.000000 0.000000 1.748650 
# 
# From -- ./inp_files/38893.got.cif
#   From: 2010.05.17/outbox.cif.g08.bks.cpg/sg64_20_cif.got.tgz:38893.got - 2010.06.03 16:29:19.
