data_PCOD9480297
_publ_section_title
;
Structure prediction by ZEFSAII (Michael W. Deem and Ramdas Pophale) SiO2 
 PCOD9480297
Probable space group: C M C A
;
_chemical_formula_sum "Si O2"
_cell_formula_units_Z 68
_cell_length_a 23.891054
_cell_length_b 5.320826
_cell_length_c 28.922920
_cell_angle_alpha 90.000000
_cell_angle_beta 90.000000
_cell_angle_gamma 90.000000
_cell_volume 3676.685677
_symmetry_space_group_name_H-M "C M C A"
_symmetry_group_IT_number 64
_symmetry_cell_setting 'orthorhombic'
loop_
_space_group_symop_operation_xyz
x,y,z
-x,1/2-y,1/2+z
x,-y,-z
-x,1/2+y,1/2-z
-x,-y,-z
x,1/2+y,1/2-z
-x,y,z
x,1/2-y,1/2+z
1/2+x,1/2+y,z
1/2-x,-y,1/2+z
1/2+x,1/2-y,-z
1/2-x,y,1/2-z
1/2-x,1/2-y,-z
1/2+x,y,1/2-z
1/2-x,1/2+y,z
1/2+x,-y,1/2+z
loop_
_atom_site_type_symbol
_atom_site_label
_atom_site_fract_x
_atom_site_fract_y
_atom_site_fract_z
Si Si1 0.904929 0.756265 0.437340
Si Si2 0.000000 0.500000 0.000000
Si Si3 0.432681 0.748940 0.881980
Si Si4 0.725646 0.250747 0.948227
Si Si5 0.431808 0.651079 0.776476
O O1 0.917973 0.489611 0.413594
O O2 0.840842 0.749181 0.453068
O O3 0.950479 0.823190 0.476187
O O4 0.909739 0.989076 0.401412
O O5 0.500000 0.776497 0.883624
O O6 0.415042 0.693838 0.829486
O O7 0.749875 0.500951 0.924997
O O8 0.750000 0.250000 0.000000
O O9 0.413848 0.385780 0.755068
O O10 0.500000 0.648950 0.776389
#
# Coordination Sequence:
#
# PCOD9480297 Si02
#       5
#    16   4  16  16  16
#     4  12  24  37  58  81 117 156 196 237 291 343
#     4  12  24  38  52  82 112 162 192 216 288 358
#     4  11  21  38  52  85 125 150 186 234 285 347
#     4  10  21  40  58  78 100 144 199 257 283 312
#     4   9  17  30  53  78 109 155 188 215 267 344
#
# _framework density 18.49492
#
# number of rings (size 3 to 8) (size 9 to 14) (size 15 to 20)
#    0.000    1.412    2.353    4.235    0.000    7.529 
#    0.000    0.000    0.000    0.000    0.000    0.000 
#    0.000   65.882    0.000    0.000    0.000    0.000 
#
# Total GULP energy -189309.374429 kJ/mol
# GULP energy per Si atom -5567.922777 kJ/mol
# Density = 1.845282 g / cm^3
# Si number density = 18.494920 Si / 1000 Ang^3
#
#
#
# Elastic Constant Matrix: (Units=GPa)
#
#
# Indices 1 2 3 4 5 6 
#
# 1 118.0696 -1.2033 15.8369 0.0000 0.0000 0.0000
# 2 -1.2033 76.6362 -7.9150 0.0000 0.0000 0.0000
# 3 15.8369 -7.9150 32.0654 0.0000 0.0000 0.0000
# 4 0.0000 0.0000 0.0000 25.6813 0.0000 0.0000
# 5 0.0000 0.0000 0.0000 0.0000 -12.3431 0.0000
# 6 0.0000 0.0000 0.0000 0.0000 0.0000 -14.7698
#
#
#
# Elastic Compliance Matrix: (Units=1/GPa)
#
#
# Indices 1 2 3 4 5 6 
#
# 1 0.009079 -0.000329 -0.004565 0.000000 0.000000 0.000000
# 2 -0.000329 0.013402 0.003471 0.000000 0.000000 0.000000
# 3 -0.004565 0.003471 0.034298 0.000000 0.000000 0.000000
# 4 0.000000 0.000000 0.000000 0.038939 0.000000 0.000000
# 5 0.000000 0.000000 0.000000 0.000000 -0.081017 0.000000
# 6 0.000000 0.000000 0.000000 0.000000 0.000000 -0.067706
#
#
# Mechanical properties :
#
#
# Convention : Reuss Voigt Hill
#
# Bulk Modulus (GPa) = 18.54211 26.68983 22.61597
# Shear Modulus (GPa) = -155.36586 14.38386 -70.49100
#
# Velocity S-wave (km/s) = -9.17535 2.79179 -6.18033
# Velocity P-wave (km/s) = 10.10950 4.98541 6.21883
#
# Compressibility (1/GPa) = 0.05393129
#
# Stress axis : x y z
#
# Youngs Moduli (GPa) = 110.14980 74.61609 29.15658
#
# Poissons Ratio (x) = 0.02454 0.13310
# Poissons Ratio (y) = 0.03623 -0.10119
# Poissons Ratio (z) = 0.50284 -0.25896
#
# Static dielectric constant tensor:
#      x y z
#    x 1.607670 0.000000 0.000000 
#    y 0.000000 1.625680 0.000000 
#    z 0.000000 0.000000 1.639350 
# 
# From -- ./inp_files/50586.got.cif
#   From: 2010.05.17/outbox.cif.g08.bks.cpg/sg64_26_cif.got.tgz:50586.got - 2010.06.03 16:29:19.
