data_PCOD9480987
_publ_section_title
;
Structure prediction by ZEFSAII (Michael W. Deem and Ramdas Pophale) SiO2 
 PCOD9480987
Probable space group: C M C A
;
_chemical_formula_sum "Si O2"
_cell_formula_units_Z 64
_cell_length_a 16.358318
_cell_length_b 14.940018
_cell_length_c 11.196889
_cell_angle_alpha 90.000000
_cell_angle_beta 90.000000
_cell_angle_gamma 90.000000
_cell_volume 2736.447624
_symmetry_space_group_name_H-M "C M C A"
_symmetry_group_IT_number 64
_symmetry_cell_setting 'orthorhombic'
loop_
_space_group_symop_operation_xyz
x,y,z
-x,1/2-y,1/2+z
x,-y,-z
-x,1/2+y,1/2-z
-x,-y,-z
x,1/2+y,1/2-z
-x,y,z
x,1/2-y,1/2+z
1/2+x,1/2+y,z
1/2-x,-y,1/2+z
1/2+x,1/2-y,-z
1/2-x,y,1/2-z
1/2-x,1/2-y,-z
1/2+x,y,1/2-z
1/2-x,1/2+y,z
1/2+x,-y,1/2+z
loop_
_atom_site_type_symbol
_atom_site_label
_atom_site_fract_x
_atom_site_fract_y
_atom_site_fract_z
Si Si1 0.093608 0.692932 0.311726
Si Si2 0.678139 0.438452 0.651850
Si Si3 0.404459 0.392466 0.243444
Si Si4 0.789861 0.848142 0.019348
O O1 0.133246 0.653259 0.192415
O O2 0.101050 0.799853 0.316557
O O3 0.138753 0.648381 0.421643
O O4 0.000000 0.668259 0.312932
O O5 0.750000 0.450460 0.750000
O O6 0.617797 0.520858 0.678218
O O7 0.719574 0.414526 0.526287
O O8 0.500000 0.398772 0.200779
O O9 0.334903 0.376728 0.141225
O O10 0.750000 0.750000 0.000000
#
# Coordination Sequence:
#
# PCOD9480987 Si02
#       4
#    16  16  16  16
#     4  10  22  42  65  98 141 183 235 297 357 429
#     4  10  23  40  67 103 137 181 234 303 343 426
#     4  11  24  44  72 102 144 192 235 297 372 435
#     4  11  23  43  71 102 136 188 244 296 357 435
#
# _framework density 23.387986999999999
#
# number of rings (size 3 to 8) (size 9 to 14) (size 15 to 20)
#    0.000    1.500    2.500    1.500    3.500    4.000 
#    0.000    6.250    0.000    3.000    0.000    0.000 
#    0.000    0.000    0.000    0.000    0.000    0.000 
#
# Total GULP energy -178795.626928 kJ/mol
# GULP energy per Si atom -5587.363342 kJ/mol
# Density = 2.333476 g / cm^3
# Si number density = 23.387987 Si / 1000 Ang^3
#
#
#
# Elastic Constant Matrix: (Units=GPa)
#
#
# Indices 1 2 3 4 5 6 
#
# 1 120.5040 42.4653 37.5017 0.0000 0.0000 0.0000
# 2 42.4653 149.4392 1.0744 0.0000 0.0000 0.0000
# 3 37.5017 1.0744 53.5228 0.0000 0.0000 0.0000
# 4 0.0000 0.0000 0.0000 21.6026 0.0000 0.0000
# 5 0.0000 0.0000 0.0000 0.0000 35.8601 0.0000
# 6 0.0000 0.0000 0.0000 0.0000 0.0000 43.4665
#
#
#
# Elastic Compliance Matrix: (Units=1/GPa)
#
#
# Indices 1 2 3 4 5 6 
#
# 1 0.012109 -0.003380 -0.008417 0.000000 0.000000 0.000000
# 2 -0.003380 0.007636 0.002215 0.000000 0.000000 0.000000
# 3 -0.008417 0.002215 0.024536 0.000000 0.000000 0.000000
# 4 0.000000 0.000000 0.000000 0.046291 0.000000 0.000000
# 5 0.000000 0.000000 0.000000 0.000000 0.027886 0.000000
# 6 0.000000 0.000000 0.000000 0.000000 0.000000 0.023006
#
#
# Mechanical properties :
#
#
# Convention : Reuss Voigt Hill
#
# Bulk Modulus (GPa) = 39.81160 53.94988 46.88074
# Shear Modulus (GPa) = 29.58562 36.34748 32.96655
#
# Velocity S-wave (km/s) = 3.56053 3.94650 3.75847
# Velocity P-wave (km/s) = 5.82772 6.62449 6.23884
#
# Compressibility (1/GPa) = 0.02511830
#
# Stress axis : x y z
#
# Youngs Moduli (GPa) = 82.58309 130.95248 40.75590
#
# Poissons Ratio (x) = 0.44268 0.34302
# Poissons Ratio (y) = 0.27917 -0.09029
# Poissons Ratio (z) = 0.69506 -0.29009
#
# Static dielectric constant tensor:
#      x y z
#    x 1.875320 0.000000 0.000000 
#    y 0.000000 1.911940 0.000000 
#    z 0.000000 0.000000 1.954280 
# 
# From -- ./inp_files/23250.got.cif
#   From: 2010.05.17/outbox.cif.g08.bks.cpg/sg64_12_cif.got.tgz:23250.got - 2010.06.03 16:29:19.
