data_PCOD9480453
_publ_section_title
;
Structure prediction by ZEFSAII (Michael W. Deem and Ramdas Pophale) SiO2 
 PCOD9480453
Probable space group: C M C A
;
_chemical_formula_sum "Si O2"
_cell_formula_units_Z 68
_cell_length_a 20.119696
_cell_length_b 12.460045
_cell_length_c 12.153875
_cell_angle_alpha 90.000000
_cell_angle_beta 90.000000
_cell_angle_gamma 90.000000
_cell_volume 3046.883091
_symmetry_space_group_name_H-M "C M C A"
_symmetry_group_IT_number 64
_symmetry_cell_setting 'orthorhombic'
loop_
_space_group_symop_operation_xyz
x,y,z
-x,1/2-y,1/2+z
x,-y,-z
-x,1/2+y,1/2-z
-x,-y,-z
x,1/2+y,1/2-z
-x,y,z
x,1/2-y,1/2+z
1/2+x,1/2+y,z
1/2-x,-y,1/2+z
1/2+x,1/2-y,-z
1/2-x,y,1/2-z
1/2-x,1/2-y,-z
1/2+x,y,1/2-z
1/2-x,1/2+y,z
1/2+x,-y,1/2+z
loop_
_atom_site_type_symbol
_atom_site_label
_atom_site_fract_x
_atom_site_fract_y
_atom_site_fract_z
Si Si1 0.883141 0.041393 0.325427
Si Si2 0.500000 0.500000 0.500000
Si Si3 0.573889 0.904616 0.586480
Si Si4 0.242365 0.914747 0.415769
Si Si5 0.842443 0.751161 0.563808
O O1 0.896597 0.044633 0.196663
O O2 0.881269 0.167883 0.358016
O O3 0.812696 0.981195 0.348140
O O4 0.940697 0.993328 0.403383
O O5 0.500000 0.863128 0.612929
O O6 0.614554 0.811678 0.525932
O O7 0.568543 0.000000 0.500000
O O8 0.202017 0.833497 0.493803
O O9 0.298645 0.835835 0.369062
O O10 0.275148 0.000000 0.500000
#
# Coordination Sequence:
#
# PCOD9480453 Si02
#       5
#    16   4  16  16  16
#     4  11  23  44  74 102 138 186 235 292 345 420
#     4  12  20  44  74 104 134 184 244 280 342 424
#     4  11  26  44  65 103 146 183 230 288 355 419
#     4   9  19  41  68  95 136 175 232 284 340 411
#     4  10  21  41  66  99 132 178 232 282 343 410
#
# _framework density 22.317889000000001
#
# number of rings (size 3 to 8) (size 9 to 14) (size 15 to 20)
#    0.000    1.647    4.706    0.706    1.647    1.882 
#    0.000   30.588    0.000    0.000    0.000    0.000 
#    0.000    0.000    0.000    0.000    0.000    0.000 
#
# Total GULP energy -189275.913435 kJ/mol
# GULP energy per Si atom -5566.938630 kJ/mol
# Density = 2.226709 g / cm^3
# Si number density = 22.317889 Si / 1000 Ang^3
#
#
#
# Elastic Constant Matrix: (Units=GPa)
#
#
# Indices 1 2 3 4 5 6 
#
# 1 86.5188 31.4235 28.8261 0.0000 0.0000 0.0000
# 2 31.4235 98.6722 29.0317 0.0000 0.0000 0.0000
# 3 28.8261 29.0317 140.5045 0.0000 0.0000 0.0000
# 4 0.0000 0.0000 0.0000 37.2525 0.0000 0.0000
# 5 0.0000 0.0000 0.0000 0.0000 22.2642 0.0000
# 6 0.0000 0.0000 0.0000 0.0000 0.0000 0.6423
#
#
#
# Elastic Compliance Matrix: (Units=1/GPa)
#
#
# Indices 1 2 3 4 5 6 
#
# 1 0.013586 -0.003733 -0.002016 0.000000 0.000000 0.000000
# 2 -0.003733 0.011817 -0.001676 0.000000 0.000000 0.000000
# 3 -0.002016 -0.001676 0.007877 0.000000 0.000000 0.000000
# 4 0.000000 0.000000 0.000000 0.026844 0.000000 0.000000
# 5 0.000000 0.000000 0.000000 0.000000 0.044915 0.000000
# 6 0.000000 0.000000 0.000000 0.000000 0.000000 1.556931
#
#
# Mechanical properties :
#
#
# Convention : Reuss Voigt Hill
#
# Bulk Modulus (GPa) = 54.26094 56.02867 55.14481
# Shear Modulus (GPa) = 2.97095 27.79275 15.38185
#
# Velocity S-wave (km/s) = 1.15503 3.53273 2.62814
# Velocity P-wave (km/s) = 5.11315 6.46526 5.82854
#
# Compressibility (1/GPa) = 0.01842946
#
# Stress axis : x y z
#
# Youngs Moduli (GPa) = 73.60616 84.62709 126.95176
#
# Poissons Ratio (x) = 0.31595 0.25592
# Poissons Ratio (y) = 0.27481 0.21272
# Poissons Ratio (z) = 0.14838 0.14180
#
# Static dielectric constant tensor:
#      x y z
#    x 1.702920 0.000000 0.000000 
#    y 0.000000 3.905540 0.000000 
#    z 0.000000 0.000000 1.849930 
# 
# From -- ./inp_files/26053.got.cif
#   From: 2010.05.17/outbox.cif.g08.bks.cpg/sg64_14_cif.got.tgz:26053.got - 2010.06.03 16:29:19.
