data_PCOD9480972
_publ_section_title
;
Structure prediction by ZEFSAII (Michael W. Deem and Ramdas Pophale) SiO2 
 PCOD9480972
Probable space group: C M C A
;
_chemical_formula_sum "Si O2"
_cell_formula_units_Z 68
_cell_length_a 12.761171
_cell_length_b 12.984036
_cell_length_c 19.836452
_cell_angle_alpha 90.000000
_cell_angle_beta 90.000000
_cell_angle_gamma 90.000000
_cell_volume 3286.731559
_symmetry_space_group_name_H-M "C M C A"
_symmetry_group_IT_number 64
_symmetry_cell_setting 'orthorhombic'
loop_
_space_group_symop_operation_xyz
x,y,z
-x,1/2-y,1/2+z
x,-y,-z
-x,1/2+y,1/2-z
-x,-y,-z
x,1/2+y,1/2-z
-x,y,z
x,1/2-y,1/2+z
1/2+x,1/2+y,z
1/2-x,-y,1/2+z
1/2+x,1/2-y,-z
1/2-x,y,1/2-z
1/2-x,1/2-y,-z
1/2+x,y,1/2-z
1/2-x,1/2+y,z
1/2+x,-y,1/2+z
loop_
_atom_site_type_symbol
_atom_site_label
_atom_site_fract_x
_atom_site_fract_y
_atom_site_fract_z
Si Si1 0.657886 0.048678 0.123683
Si Si2 0.664562 0.282578 0.152828
Si Si3 0.615147 0.846076 0.195211
Si Si4 0.500000 0.000000 0.000000
Si Si5 0.385123 0.485679 0.079998
O O1 0.630219 0.967885 0.182566
O O2 0.782626 0.038121 0.111365
O O3 0.632181 0.166323 0.139772
O O4 0.591771 0.014009 0.058680
O O5 0.627218 0.319397 0.226414
O O6 0.790883 0.291691 0.155461
O O7 0.624288 0.364990 0.099038
O O8 0.500000 0.816143 0.171068
O O9 0.500000 0.522422 0.103937
O O10 0.380543 0.500000 0.000000
#
# Coordination Sequence:
#
# PCOD9480972 Si02
#       5
#    16  16  16   4  16
#     4  11  24  45  68  93 132 173 217 270 320 393
#     4  10  24  41  67  97 128 177 219 260 339 388
#     4  10  22  42  65  95 129 163 223 272 318 388
#     4  12  24  44  70  96 126 180 214 266 312 396
#     4  10  22  42  62  97 136 169 218 275 322 382
#
# _framework density 20.689246000000001
#
# number of rings (size 3 to 8) (size 9 to 14) (size 15 to 20)
#    0.000    1.647    2.353    0.706    3.294    9.412 
#    0.000    0.000    0.000    0.000    0.000    0.000 
#    0.000    0.000    0.000    0.000    0.000    0.000 
#
# Total GULP energy -189407.202531 kJ/mol
# GULP energy per Si atom -5570.800074 kJ/mol
# Density = 2.064216 g / cm^3
# Si number density = 20.689246 Si / 1000 Ang^3
#
#
#
# Elastic Constant Matrix: (Units=GPa)
#
#
# Indices 1 2 3 4 5 6 
#
# 1 182.7999 10.5368 29.9528 0.0000 0.0000 0.0000
# 2 10.5368 112.5639 50.2182 0.0000 0.0000 0.0000
# 3 29.9528 50.2182 69.7946 0.0000 0.0000 0.0000
# 4 0.0000 0.0000 0.0000 3.4512 0.0000 0.0000
# 5 0.0000 0.0000 0.0000 0.0000 -2.6887 0.0000
# 6 0.0000 0.0000 0.0000 0.0000 0.0000 -3.8944
#
#
#
# Elastic Compliance Matrix: (Units=1/GPa)
#
#
# Indices 1 2 3 4 5 6 
#
# 1 0.005940 0.000856 -0.003165 0.000000 0.000000 0.000000
# 2 0.000856 0.013207 -0.009870 0.000000 0.000000 0.000000
# 3 -0.003165 -0.009870 0.022788 0.000000 0.000000 0.000000
# 4 0.000000 0.000000 0.000000 0.289753 0.000000 0.000000
# 5 0.000000 0.000000 0.000000 0.000000 -0.371925 0.000000
# 6 0.000000 0.000000 0.000000 0.000000 0.000000 -0.256779
#
#
# Mechanical properties :
#
#
# Convention : Reuss Voigt Hill
#
# Bulk Modulus (GPa) = 56.89439 60.73045 58.81242
# Shear Modulus (GPa) = -18.74063 17.67032 -0.53515
#
# Velocity S-wave (km/s) = -3.01294 2.92564 -0.50914
# Velocity P-wave (km/s) = 3.93134 6.38982 5.30496
#
# Compressibility (1/GPa) = 0.01757643
#
# Stress axis : x y z
#
# Youngs Moduli (GPa) = 168.35810 75.71722 43.88341
#
# Poissons Ratio (x) = -0.06481 0.13889
# Poissons Ratio (y) = -0.14411 0.43313
# Poissons Ratio (z) = 0.53285 0.74733
#
# Static dielectric constant tensor:
#      x y z
#    x 1.785990 0.000000 0.000000 
#    y 0.000000 1.721720 0.000000 
#    z 0.000000 0.000000 1.702120 
# 
# From -- ./inp_files/38886.got.cif
#   From: 2010.05.17/outbox.cif.g08.bks.cpg/sg64_20_cif.got.tgz:38886.got - 2010.06.03 16:29:19.
