data_PCOD9480841
_publ_section_title
;
Structure prediction by ZEFSAII (Michael W. Deem and Ramdas Pophale) SiO2 
 PCOD9480841
Probable space group: C M C A
;
_chemical_formula_sum "Si O2"
_cell_formula_units_Z 96
_cell_length_a 14.204106
_cell_length_b 15.479084
_cell_length_c 21.275432
_cell_angle_alpha 90.000000
_cell_angle_beta 90.000000
_cell_angle_gamma 90.000000
_cell_volume 4677.755832
_symmetry_space_group_name_H-M "C M C A"
_symmetry_group_IT_number 64
_symmetry_cell_setting 'orthorhombic'
loop_
_space_group_symop_operation_xyz
x,y,z
-x,1/2-y,1/2+z
x,-y,-z
-x,1/2+y,1/2-z
-x,-y,-z
x,1/2+y,1/2-z
-x,y,z
x,1/2-y,1/2+z
1/2+x,1/2+y,z
1/2-x,-y,1/2+z
1/2+x,1/2-y,-z
1/2-x,y,1/2-z
1/2-x,1/2-y,-z
1/2+x,y,1/2-z
1/2-x,1/2+y,z
1/2+x,-y,1/2+z
loop_
_atom_site_type_symbol
_atom_site_label
_atom_site_fract_x
_atom_site_fract_y
_atom_site_fract_z
Si Si1 0.208953 0.061059 0.344292
Si Si2 0.500000 0.735108 0.734596
Si Si3 0.500000 0.189976 0.047149
Si Si4 0.296558 0.741176 0.185552
Si Si5 0.500000 0.595467 0.321756
Si Si6 0.831909 0.093680 0.488583
Si Si7 0.000000 0.140500 0.866460
Si Si8 0.791437 0.609735 0.609864
O O1 0.272821 0.138962 0.317810
O O2 0.104127 0.055892 0.314446
O O3 0.202844 0.089644 0.417442
O O4 0.247534 0.964467 0.346136
O O5 0.593600 0.736219 0.692184
O O6 0.500000 0.822765 0.775752
O O7 0.500000 0.665530 0.792017
O O8 0.500000 0.120965 0.104398
O O9 0.500000 0.276791 0.086855
O O10 0.592704 0.170439 0.006978
O O11 0.250000 0.772408 0.250000
O O12 0.241635 0.795734 0.132921
O O13 0.749935 0.099956 0.539870
O O14 0.879530 0.000000 0.500000
O O15 0.902379 0.096326 0.883712
#
# Coordination Sequence:
#
# PCOD9480841 Si02
#       8
#    16   8   8  16   8  16   8  16
#     4  10  22  40  65  93 124 165 204 251 315 373
#     4  11  22  41  61  89 123 161 206 261 299 356
#     4   9  17  31  63  89 118 162 196 244 314 367
#     4  12  23  41  62  89 126 159 207 261 297 363
#     4   9  16  36  63  85 118 163 201 236 311 371
#     4   9  19  37  61  94 126 153 200 261 306 373
#     4  11  22  40  60  83 124 176 208 245 313 382
#     4  11  24  41  64  92 126 162 208 259 314 367
#
# _framework density 20.522659999999998
#
# number of rings (size 3 to 8) (size 9 to 14) (size 15 to 20)
#    0.000    1.667    3.333    2.250    0.000    7.333 
#    0.000    6.250    0.000    0.000    0.000    0.000 
#    0.000    0.000    0.000    0.000    0.000    0.000 
#
# Total GULP energy -267542.532090 kJ/mol
# GULP energy per Si atom -5573.802752 kJ/mol
# Density = 2.047595 g / cm^3
# Si number density = 20.522660 Si / 1000 Ang^3
#
#
#
# Elastic Constant Matrix: (Units=GPa)
#
#
# Indices 1 2 3 4 5 6 
#
# 1 121.4603 0.8179 0.1124 0.0000 0.0000 0.0000
# 2 0.8179 42.9022 -7.4572 0.0000 0.0000 0.0000
# 3 0.1124 -7.4572 47.4447 0.0000 0.0000 0.0000
# 4 0.0000 0.0000 0.0000 18.9665 0.0000 0.0000
# 5 0.0000 0.0000 0.0000 0.0000 23.1425 0.0000
# 6 0.0000 0.0000 0.0000 0.0000 0.0000 15.7856
#
#
#
# Elastic Compliance Matrix: (Units=1/GPa)
#
#
# Indices 1 2 3 4 5 6 
#
# 1 0.008234 -0.000165 -0.000045 0.000000 0.000000 0.000000
# 2 -0.000165 0.023967 0.003767 0.000000 0.000000 0.000000
# 3 -0.000045 0.003767 0.021669 0.000000 0.000000 0.000000
# 4 0.000000 0.000000 0.000000 0.052724 0.000000 0.000000
# 5 0.000000 0.000000 0.000000 0.000000 0.043211 0.000000
# 6 0.000000 0.000000 0.000000 0.000000 0.000000 0.063349
#
#
# Mechanical properties :
#
#
# Convention : Reuss Voigt Hill
#
# Bulk Modulus (GPa) = 16.39752 22.08369 19.24061
# Shear Modulus (GPa) = 22.08787 26.13452 24.11119
#
# Velocity S-wave (km/s) = 3.28421 3.57241 3.43134
# Velocity P-wave (km/s) = 4.73167 5.27259 5.00943
#
# Compressibility (1/GPa) = 0.06098483
#
# Stress axis : x y z
#
# Youngs Moduli (GPa) = 121.44328 41.72433 46.14794
#
# Poissons Ratio (x) = 0.00688 0.00210
# Poissons Ratio (y) = 0.02002 -0.17386
# Poissons Ratio (z) = 0.00552 -0.15719
#
# Static dielectric constant tensor:
#      x y z
#    x 1.783390 0.000000 0.000000 
#    y 0.000000 1.763600 0.000000 
#    z 0.000000 0.000000 1.747460 
# 
# From -- ./inp_files/45209.got.cif
#   From: 2010.05.17/outbox.cif.g08.bks.cpg/sg64_23_cif.got.tgz:45209.got - 2010.06.03 16:29:19.
