data_PCOD9480605
_publ_section_title
;
Structure prediction by ZEFSAII (Michael W. Deem and Ramdas Pophale) SiO2 
 PCOD9480605
Probable space group: C M C A
;
_chemical_formula_sum "Si O2"
_cell_formula_units_Z 96
_cell_length_a 16.205796
_cell_length_b 20.750887
_cell_length_c 12.356760
_cell_angle_alpha 90.000000
_cell_angle_beta 90.000000
_cell_angle_gamma 90.000000
_cell_volume 4155.388607
_symmetry_space_group_name_H-M "C M C A"
_symmetry_group_IT_number 64
_symmetry_cell_setting 'orthorhombic'
loop_
_space_group_symop_operation_xyz
x,y,z
-x,1/2-y,1/2+z
x,-y,-z
-x,1/2+y,1/2-z
-x,-y,-z
x,1/2+y,1/2-z
-x,y,z
x,1/2-y,1/2+z
1/2+x,1/2+y,z
1/2-x,-y,1/2+z
1/2+x,1/2-y,-z
1/2-x,y,1/2-z
1/2-x,1/2-y,-z
1/2+x,y,1/2-z
1/2-x,1/2+y,z
1/2+x,-y,1/2+z
loop_
_atom_site_type_symbol
_atom_site_label
_atom_site_fract_x
_atom_site_fract_y
_atom_site_fract_z
Si Si1 0.849739 0.298180 0.768011
Si Si2 0.912872 0.055654 0.872637
Si Si3 0.598876 0.706640 0.498589
Si Si4 0.357592 0.848965 0.550881
Si Si5 0.845141 0.847256 0.285653
Si Si6 0.757906 0.965158 0.888479
O O1 0.750000 0.299392 0.750000
O O2 0.890951 0.337356 0.671047
O O3 0.871965 0.222507 0.759547
O O4 0.882877 0.321095 0.881409
O O5 0.896984 0.095197 0.763580
O O6 0.000000 0.022130 0.873050
O O7 0.841137 0.005913 0.888028
O O8 0.907962 0.109864 0.965392
O O9 0.500000 0.716135 0.515031
O O10 0.646780 0.775651 0.507937
O O11 0.638220 0.661163 0.588763
O O12 0.276791 0.892754 0.571585
O O13 0.750000 0.857702 0.250000
O O14 0.750000 0.962271 0.750000
O O15 0.714057 0.000000 0.000000
#
# Coordination Sequence:
#
# PCOD9480605 Si02
#       6
#    16  16  16  16  16  16
#     4  10  22  37  60  91 131 170 217 267 329 393
#     4  11  22  39  64  94 128 167 218 273 332 396
#     4  11  23  39  62  94 135 175 214 268 337 405
#     4  10  22  38  64  93 130 167 220 270 329 390
#     4  10  22  37  61  89 126 168 219 266 322 391
#     4  10  23  45  69  99 127 171 225 281 337 401
#
# _framework density 23.102532
#
# number of rings (size 3 to 8) (size 9 to 14) (size 15 to 20)
#    0.000    1.667    1.667    2.000    2.333    9.667 
#    3.000    0.000    0.000    0.500    0.000    0.000 
#    0.000    0.000    0.000    0.000    0.000    0.000 
#
# Total GULP energy -267317.198162 kJ/mol
# GULP energy per Si atom -5569.108295 kJ/mol
# Density = 2.304995 g / cm^3
# Si number density = 23.102532 Si / 1000 Ang^3
#
#
#
# Elastic Constant Matrix: (Units=GPa)
#
#
# Indices 1 2 3 4 5 6 
#
# 1 59.7541 18.0198 18.8893 0.0000 0.0000 0.0000
# 2 18.0198 53.2592 11.2712 0.0000 0.0000 0.0000
# 3 18.8893 11.2712 185.9012 0.0000 0.0000 0.0000
# 4 0.0000 0.0000 0.0000 39.1432 0.0000 0.0000
# 5 0.0000 0.0000 0.0000 0.0000 -52.7319 0.0000
# 6 0.0000 0.0000 0.0000 0.0000 0.0000 7.7298
#
#
#
# Elastic Compliance Matrix: (Units=1/GPa)
#
#
# Indices 1 2 3 4 5 6 
#
# 1 0.019077 -0.006123 -0.001567 0.000000 0.000000 0.000000
# 2 -0.006123 0.020985 -0.000650 0.000000 0.000000 0.000000
# 3 -0.001567 -0.000650 0.005578 0.000000 0.000000 0.000000
# 4 0.000000 0.000000 0.000000 0.025547 0.000000 0.000000
# 5 0.000000 0.000000 0.000000 0.000000 -0.018964 0.000000
# 6 0.000000 0.000000 0.000000 0.000000 0.000000 0.129369
#
#
# Mechanical properties :
#
#
# Convention : Reuss Voigt Hill
#
# Bulk Modulus (GPa) = 34.53069 43.91945 39.22507
# Shear Modulus (GPa) = 24.04696 15.54385 19.79541
#
# Velocity S-wave (km/s) = 3.22977 2.59669 2.93038
# Velocity P-wave (km/s) = 5.37473 5.29550 5.33526
#
# Compressibility (1/GPa) = 0.02895975
#
# Stress axis : x y z
#
# Youngs Moduli (GPa) = 52.41877 47.65232 179.28012
#
# Poissons Ratio (x) = 0.29177 0.28097
# Poissons Ratio (y) = 0.32096 0.11657
# Poissons Ratio (z) = 0.08215 0.03098
#
# Static dielectric constant tensor:
#      x y z
#    x 1.927890 0.000000 0.000000 
#    y 0.000000 1.874690 0.000000 
#    z 0.000000 0.000000 2.068040 
# 
# From -- ./inp_files/16225.got.cif
#   From: 2010.05.17/outbox.cif.g08.bks.cpg/sg64_9_cif.got.tgz:16225.got - 2010.06.03 16:29:19.
