data_PCOD9480007
_publ_section_title
;
Structure prediction by ZEFSAII (Michael W. Deem and Ramdas Pophale) SiO2 
 PCOD9480007
Probable space group: C M C A
;
_chemical_formula_sum "Si O2"
_cell_formula_units_Z 112
_cell_length_a 15.742792
_cell_length_b 29.596368
_cell_length_c 12.135438
_cell_angle_alpha 90.000000
_cell_angle_beta 90.000000
_cell_angle_gamma 90.000000
_cell_volume 5654.258139
_symmetry_space_group_name_H-M "C M C A"
_symmetry_group_IT_number 64
_symmetry_cell_setting 'orthorhombic'
loop_
_space_group_symop_operation_xyz
x,y,z
-x,1/2-y,1/2+z
x,-y,-z
-x,1/2+y,1/2-z
-x,-y,-z
x,1/2+y,1/2-z
-x,y,z
x,1/2-y,1/2+z
1/2+x,1/2+y,z
1/2-x,-y,1/2+z
1/2+x,1/2-y,-z
1/2-x,y,1/2-z
1/2-x,1/2-y,-z
1/2+x,y,1/2-z
1/2-x,1/2+y,z
1/2+x,-y,1/2+z
loop_
_atom_site_type_symbol
_atom_site_label
_atom_site_fract_x
_atom_site_fract_y
_atom_site_fract_z
Si Si1 0.404876 0.289041 0.253903
Si Si2 0.405465 0.931008 0.949834
Si Si3 0.094213 0.402709 0.694006
Si Si4 0.800393 0.133984 0.862765
Si Si5 0.863138 0.834463 0.479076
Si Si6 0.153497 0.689580 0.228747
Si Si7 0.291545 0.948469 0.513964
O O1 0.500000 0.278634 0.219109
O O2 0.367823 0.328331 0.175107
O O3 0.401578 0.307263 0.378454
O O4 0.355611 0.241907 0.257153
O O5 0.500000 0.951648 0.969354
O O6 0.400348 0.920417 0.819488
O O7 0.404664 0.883561 0.013891
O O8 0.312124 0.950068 0.981330
O O9 0.102205 0.348266 0.703524
O O10 0.167811 0.425655 0.622478
O O11 0.000000 0.413979 0.650191
O O12 0.750000 0.124095 0.750000
O O13 0.735637 0.157596 0.948236
O O14 0.822198 0.086081 0.917932
O O15 0.870250 0.814048 0.600069
O O16 0.250000 0.675470 0.250000
O O17 0.321077 0.000000 0.500000
#
# Coordination Sequence:
#
# PCOD9480007 Si02
#       7
#    16  16  16  16  16  16  16
#     4  11  23  36  54  84 120 157 198 245 299 361
#     4   9  18  36  62  86 112 150 197 249 299 352
#     4  10  21  38  59  86 120 155 197 247 298 358
#     4   9  20  39  57  77 110 154 199 245 296 350
#     4   9  19  37  57  79 112 153 195 242 298 354
#     4  11  21  36  61  89 116 152 198 249 307 364
#     4  11  23  38  61  89 121 159 200 249 306 363
#
# _framework density 19.808081000000001
#
# number of rings (size 3 to 8) (size 9 to 14) (size 15 to 20)
#    0.000    2.000    0.000    5.143    0.000    7.429 
#    0.000    0.000    0.000    3.429    0.000    0.000 
#    0.000    0.000    0.000    0.000    0.000    0.000 
#
# Total GULP energy -312080.173916 kJ/mol
# GULP energy per Si atom -5572.860248 kJ/mol
# Density = 1.976300 g / cm^3
# Si number density = 19.808081 Si / 1000 Ang^3
#
#
#
# Elastic Constant Matrix: (Units=GPa)
#
#
# Indices 1 2 3 4 5 6 
#
# 1 80.1531 17.2794 8.8451 0.0000 0.0000 0.0000
# 2 17.2794 115.1485 38.2886 0.0000 0.0000 0.0000
# 3 8.8451 38.2886 52.1509 0.0000 0.0000 0.0000
# 4 0.0000 0.0000 0.0000 -1.1044 0.0000 0.0000
# 5 0.0000 0.0000 0.0000 0.0000 4.6945 0.0000
# 6 0.0000 0.0000 0.0000 0.0000 0.0000 -5.7308
#
#
#
# Elastic Compliance Matrix: (Units=1/GPa)
#
#
# Indices 1 2 3 4 5 6 
#
# 1 0.012934 -0.001603 -0.001017 0.000000 0.000000 0.000000
# 2 -0.001603 0.011688 -0.008309 0.000000 0.000000 0.000000
# 3 -0.001017 -0.008309 0.025448 0.000000 0.000000 0.000000
# 4 0.000000 0.000000 0.000000 -0.905474 0.000000 0.000000
# 5 0.000000 0.000000 0.000000 0.000000 0.213015 0.000000
# 6 0.000000 0.000000 0.000000 0.000000 0.000000 -0.174497
#
#
# Mechanical properties :
#
#
# Convention : Reuss Voigt Hill
#
# Bulk Modulus (GPa) = 35.44592 41.80877 38.62734
# Shear Modulus (GPa) = -6.36437 11.77449 2.70506
#
# Velocity S-wave (km/s) = -1.79443 2.44074 1.16987
# Velocity P-wave (km/s) = 3.69326 5.39404 4.62255
#
# Compressibility (1/GPa) = 0.02821199
#
# Stress axis : x y z
#
# Youngs Moduli (GPa) = 77.31637 85.55847 39.29550
#
# Poissons Ratio (x) = 0.13713 0.03996
# Poissons Ratio (y) = 0.12392 0.32652
# Poissons Ratio (z) = 0.07863 0.71093
#
# Static dielectric constant tensor:
#      x y z
#    x 1.733950 0.000000 0.000000 
#    y 0.000000 1.682310 0.000000 
#    z 0.000000 0.000000 1.686790 
# 
# From -- ./inp_files/15014.got.cif
#   From: 2010.05.17/outbox.cif.g08.bks.cpg/sg64_8_cif.got.tgz:15014.got - 2010.06.03 16:29:19.
