data_PCOD9480899
_publ_section_title
;
Structure prediction by ZEFSAII (Michael W. Deem and Ramdas Pophale) SiO2 
 PCOD9480899
Probable space group: C M C A
;
_chemical_formula_sum "Si O2"
_cell_formula_units_Z 96
_cell_length_a 14.309478
_cell_length_b 13.336967
_cell_length_c 23.029249
_cell_angle_alpha 90.000000
_cell_angle_beta 90.000000
_cell_angle_gamma 90.000000
_cell_volume 4395.017852
_symmetry_space_group_name_H-M "C M C A"
_symmetry_group_IT_number 64
_symmetry_cell_setting 'orthorhombic'
loop_
_space_group_symop_operation_xyz
x,y,z
-x,1/2-y,1/2+z
x,-y,-z
-x,1/2+y,1/2-z
-x,-y,-z
x,1/2+y,1/2-z
-x,y,z
x,1/2-y,1/2+z
1/2+x,1/2+y,z
1/2-x,-y,1/2+z
1/2+x,1/2-y,-z
1/2-x,y,1/2-z
1/2-x,1/2-y,-z
1/2+x,y,1/2-z
1/2-x,1/2+y,z
1/2+x,-y,1/2+z
loop_
_atom_site_type_symbol
_atom_site_label
_atom_site_fract_x
_atom_site_fract_y
_atom_site_fract_z
Si Si1 0.650602 0.807248 0.721203
Si Si2 0.610674 0.104522 0.843764
Si Si3 0.779521 0.401299 0.038256
Si Si4 0.603837 0.271554 0.162522
Si Si5 0.887759 0.241077 0.961831
Si Si6 0.113179 0.973419 0.218311
O O1 0.750000 0.786955 0.750000
O O2 0.621857 0.720808 0.676855
O O3 0.594187 0.797297 0.781244
O O4 0.645303 0.918635 0.696707
O O5 0.500000 0.086815 0.856014
O O6 0.675825 0.082898 0.898339
O O7 0.638223 0.042542 0.785949
O O8 0.672417 0.361550 0.037284
O O9 0.787189 0.500000 0.000000
O O10 0.842861 0.315073 0.008483
O O11 0.500000 0.303000 0.144741
O O12 0.638867 0.220760 0.103864
O O13 0.648991 0.376158 0.183432
O O14 0.000000 0.234383 0.971120
O O15 0.000000 0.971751 0.216948
#
# Coordination Sequence:
#
# PCOD9480899 Si02
#       6
#    16  16  16  16  16  16
#     4  11  21  33  57  90 127 164 202 260 321 377
#     4  10  22  41  63  90 129 167 211 269 320 379
#     4  11  25  44  68  99 129 167 224 274 320 387
#     4   9  19  38  60  84 118 160 209 256 309 383
#     4  10  23  45  68  93 131 173 214 269 329 386
#     4   9  19  36  59  90 121 162 209 252 315 384
#
# _framework density 21.842915000000001
#
# number of rings (size 3 to 8) (size 9 to 14) (size 15 to 20)
#    0.000    2.000    0.000    4.000    2.333    5.667 
#    6.000    0.000    0.000    0.000    0.000    0.000 
#    0.000    0.000    0.000    0.000    0.000    0.000 
#
# Total GULP energy -267718.285003 kJ/mol
# GULP energy per Si atom -5577.464271 kJ/mol
# Density = 2.179320 g / cm^3
# Si number density = 21.842915 Si / 1000 Ang^3
#
#
#
# Elastic Constant Matrix: (Units=GPa)
#
#
# Indices 1 2 3 4 5 6 
#
# 1 112.2830 -3.4499 16.2070 0.0000 0.0000 0.0000
# 2 -3.4499 48.0357 -11.3717 0.0000 0.0000 0.0000
# 3 16.2070 -11.3717 70.9220 0.0000 0.0000 0.0000
# 4 0.0000 0.0000 0.0000 14.8183 0.0000 0.0000
# 5 0.0000 0.0000 0.0000 0.0000 13.9265 0.0000
# 6 0.0000 0.0000 0.0000 0.0000 0.0000 24.3881
#
#
#
# Elastic Compliance Matrix: (Units=1/GPa)
#
#
# Indices 1 2 3 4 5 6 
#
# 1 0.009211 0.000170 -0.002078 0.000000 0.000000 0.000000
# 2 0.000170 0.021642 0.003431 0.000000 0.000000 0.000000
# 3 -0.002078 0.003431 0.015125 0.000000 0.000000 0.000000
# 4 0.000000 0.000000 0.000000 0.067484 0.000000 0.000000
# 5 0.000000 0.000000 0.000000 0.000000 0.071806 0.000000
# 6 0.000000 0.000000 0.000000 0.000000 0.000000 0.041004
#
#
# Mechanical properties :
#
#
# Convention : Reuss Voigt Hill
#
# Bulk Modulus (GPa) = 20.39767 26.00128 23.19948
# Shear Modulus (GPa) = 20.87099 25.95026 23.41062
#
# Velocity S-wave (km/s) = 3.09448 3.45054 3.27734
# Velocity P-wave (km/s) = 4.70386 5.27300 4.99654
#
# Compressibility (1/GPa) = 0.04902521
#
# Stress axis : x y z
#
# Youngs Moduli (GPa) = 108.56379 46.20564 66.11582
#
# Poissons Ratio (x) = -0.00784 0.13737
# Poissons Ratio (y) = -0.01842 -0.22687
# Poissons Ratio (z) = 0.22556 -0.15855
#
# Static dielectric constant tensor:
#      x y z
#    x 1.467420 0.000000 0.000000 
#    y 0.000000 1.790160 0.000000 
#    z 0.000000 0.000000 1.839110 
# 
# From -- ./inp_files/39206.got.cif
#   From: 2010.05.17/outbox.cif.g08.bks.cpg/sg64_20_cif.got.tgz:39206.got - 2010.06.03 16:29:19.
