data_PCOD9480784
_publ_section_title
;
Structure prediction by ZEFSAII (Michael W. Deem and Ramdas Pophale) SiO2 
 PCOD9480784
Probable space group: C M C A
;
_chemical_formula_sum "Si O2"
_cell_formula_units_Z 64
_cell_length_a 15.383199
_cell_length_b 9.329692
_cell_length_c 17.545074
_cell_angle_alpha 90.000000
_cell_angle_beta 90.000000
_cell_angle_gamma 90.000000
_cell_volume 2518.077945
_symmetry_space_group_name_H-M "C M C A"
_symmetry_group_IT_number 64
_symmetry_cell_setting 'orthorhombic'
loop_
_space_group_symop_operation_xyz
x,y,z
-x,1/2-y,1/2+z
x,-y,-z
-x,1/2+y,1/2-z
-x,-y,-z
x,1/2+y,1/2-z
-x,y,z
x,1/2-y,1/2+z
1/2+x,1/2+y,z
1/2-x,-y,1/2+z
1/2+x,1/2-y,-z
1/2-x,y,1/2-z
1/2-x,1/2-y,-z
1/2+x,y,1/2-z
1/2-x,1/2+y,z
1/2+x,-y,1/2+z
loop_
_atom_site_type_symbol
_atom_site_label
_atom_site_fract_x
_atom_site_fract_y
_atom_site_fract_z
Si Si1 0.500000 0.154462 0.923972
Si Si2 0.187438 0.784549 0.645949
Si Si3 0.141137 0.877327 0.936257
Si Si4 0.500000 0.878163 0.686202
Si Si5 0.000000 0.849051 0.634975
Si Si6 0.250000 0.028410 0.750000
O O1 0.584810 0.235010 0.955976
O O2 0.500000 0.207758 0.834583
O O3 0.500000 0.986700 0.919327
O O4 0.261965 0.830023 0.586426
O O5 0.216355 0.639710 0.687074
O O6 0.089107 0.767458 0.620800
O O7 0.187862 0.917621 0.705782
O O8 0.085061 0.927265 0.861493
O O9 0.140390 0.000000 0.000000
O O10 0.500000 0.892990 0.775564
#
# Coordination Sequence:
#
# PCOD9480784 Si02
#       6
#     8  16  16   8   8   8
#     4   8  20  38  62  89 114 155 204 252 301 345
#     4  11  23  37  62  90 127 160 197 253 307 365
#     4   9  19  40  63  88 115 164 214 244 285 365
#     4   8  18  34  62  88 110 148 203 250 297 342
#     4  12  22  34  59  93 128 149 194 252 322 358
#     4  10  22  40  60  90 120 158 206 254 314 356
#
# _framework density 25.41621
#
# number of rings (size 3 to 8) (size 9 to 14) (size 15 to 20)
#    1.500    0.500    0.000    6.000    3.500    0.000 
#    0.000    6.875    0.000    0.000    0.000    0.000 
#    0.000    0.000    0.000    0.000    0.000    0.000 
#
# Total GULP energy -178806.940185 kJ/mol
# GULP energy per Si atom -5587.716881 kJ/mol
# Density = 2.535836 g / cm^3
# Si number density = 25.416210 Si / 1000 Ang^3
#
#
#
# Elastic Constant Matrix: (Units=GPa)
#
#
# Indices 1 2 3 4 5 6 
#
# 1 189.0276 9.8563 20.5237 0.0000 0.0000 0.0000
# 2 9.8563 115.3729 1.2179 0.0000 0.0000 0.0000
# 3 20.5237 1.2179 139.2055 0.0000 0.0000 0.0000
# 4 0.0000 0.0000 0.0000 49.4157 0.0000 0.0000
# 5 0.0000 0.0000 0.0000 0.0000 -1.1614 0.0000
# 6 0.0000 0.0000 0.0000 0.0000 0.0000 -94.7875
#
#
#
# Elastic Compliance Matrix: (Units=1/GPa)
#
#
# Indices 1 2 3 4 5 6 
#
# 1 0.005400 -0.000453 -0.000792 0.000000 0.000000 0.000000
# 2 -0.000453 0.008706 -0.000009 0.000000 0.000000 0.000000
# 3 -0.000792 -0.000009 0.007300 0.000000 0.000000 0.000000
# 4 0.000000 0.000000 0.000000 0.020236 0.000000 0.000000
# 5 0.000000 0.000000 0.000000 0.000000 -0.861002 0.000000
# 6 0.000000 0.000000 0.000000 0.000000 0.000000 -0.010550
#
#
# Mechanical properties :
#
#
# Convention : Reuss Voigt Hill
#
# Bulk Modulus (GPa) = 52.91652 56.31134 54.61393
# Shear Modulus (GPa) = -6.08939 18.16057 6.03559
#
# Velocity S-wave (km/s) = -1.54954 2.67596 1.54268
# Velocity P-wave (km/s) = 4.20283 5.63485 4.97068
#
# Compressibility (1/GPa) = 0.01889769
#
# Stress axis : x y z
#
# Youngs Moduli (GPa) = 185.19003 114.85876 136.97699
#
# Poissons Ratio (x) = 0.05203 0.10851
# Poissons Ratio (y) = 0.08388 0.00129
# Poissons Ratio (z) = 0.14670 0.00108
#
# Static dielectric constant tensor:
#      x y z
#    x 2.005940 0.000000 0.000000 
#    y 0.000000 1.908060 0.000000 
#    z 0.000000 0.000000 2.081970 
# 
# From -- ./inp_files/44827.got.cif
#   From: 2010.05.17/outbox.cif.g08.bks.cpg/sg64_23_cif.got.tgz:44827.got - 2010.06.03 16:29:19.
