data_PCOD9480352
_publ_section_title
;
Structure prediction by ZEFSAII (Michael W. Deem and Ramdas Pophale) SiO2 
 PCOD9480352
Probable space group: C M C A
;
_chemical_formula_sum "Si O2"
_cell_formula_units_Z 112
_cell_length_a 16.890053
_cell_length_b 22.351773
_cell_length_c 15.022672
_cell_angle_alpha 90.000000
_cell_angle_beta 90.000000
_cell_angle_gamma 90.000000
_cell_volume 5671.398652
_symmetry_space_group_name_H-M "C M C A"
_symmetry_group_IT_number 64
_symmetry_cell_setting 'orthorhombic'
loop_
_space_group_symop_operation_xyz
x,y,z
-x,1/2-y,1/2+z
x,-y,-z
-x,1/2+y,1/2-z
-x,-y,-z
x,1/2+y,1/2-z
-x,y,z
x,1/2-y,1/2+z
1/2+x,1/2+y,z
1/2-x,-y,1/2+z
1/2+x,1/2-y,-z
1/2-x,y,1/2-z
1/2-x,1/2-y,-z
1/2+x,y,1/2-z
1/2-x,1/2+y,z
1/2+x,-y,1/2+z
loop_
_atom_site_type_symbol
_atom_site_label
_atom_site_fract_x
_atom_site_fract_y
_atom_site_fract_z
Si Si1 0.684301 0.434815 0.011756
Si Si2 0.312373 0.930856 0.171111
Si Si3 0.149939 0.310816 0.427955
Si Si4 0.092562 0.965855 0.595883
Si Si5 0.304865 0.755319 0.602794
Si Si6 0.227303 0.880229 0.647345
Si Si7 0.907701 0.811951 0.268582
O O1 0.758882 0.434215 0.080885
O O2 0.633253 0.378880 0.044008
O O3 0.647984 0.500000 0.000000
O O4 0.714931 0.418685 0.914253
O O5 0.250000 0.938377 0.250000
O O6 0.362590 0.871352 0.195117
O O7 0.372829 0.985777 0.164631
O O8 0.243918 0.299757 0.408192
O O9 0.143530 0.268721 0.514545
O O10 0.104926 0.301503 0.336405
O O11 0.142380 0.905459 0.615265
O O12 0.000000 0.954519 0.606128
O O13 0.102667 0.000000 0.500000
O O14 0.248062 0.811846 0.622159
O O15 0.363545 0.742266 0.682520
O O16 0.250000 0.888819 0.750000
O O17 0.000000 0.815731 0.289796
#
# Coordination Sequence:
#
# PCOD9480352 Si02
#       7
#    16  16  16  16  16  16  16
#     4  11  20  35  61  95 119 153 219 260 314 362
#     4  12  20  38  65  90 123 165 218 261 305 384
#     4  10  21  40  65  88 124 164 215 268 307 381
#     4  11  23  38  58  94 137 164 201 269 342 390
#     4  10  22  40  64  89 122 165 220 264 309 372
#     4  11  21  36  61  88 121 170 216 257 308 386
#     4  12  24  39  63  97 130 166 212 266 328 381
#
# _framework density 19.748214000000001
#
# number of rings (size 3 to 8) (size 9 to 14) (size 15 to 20)
#    0.000    1.000    5.714    2.143    0.000    0.571 
#    0.000    2.857    0.000    1.286    0.000    0.000 
#    0.000    0.000    0.000    0.000    0.000    0.000 
#
# Total GULP energy -312207.182589 kJ/mol
# GULP energy per Si atom -5575.128261 kJ/mol
# Density = 1.970327 g / cm^3
# Si number density = 19.748214 Si / 1000 Ang^3
#
#
#
# Elastic Constant Matrix: (Units=GPa)
#
#
# Indices 1 2 3 4 5 6 
#
# 1 76.9183 40.4150 39.7431 0.0000 0.0000 0.0000
# 2 40.4150 105.3046 28.7815 0.0000 0.0000 0.0000
# 3 39.7431 28.7815 104.7077 0.0000 0.0000 0.0000
# 4 0.0000 0.0000 0.0000 16.1942 0.0000 0.0000
# 5 0.0000 0.0000 0.0000 0.0000 8.1915 0.0000
# 6 0.0000 0.0000 0.0000 0.0000 0.0000 13.8448
#
#
#
# Elastic Compliance Matrix: (Units=1/GPa)
#
#
# Indices 1 2 3 4 5 6 
#
# 1 0.018902 -0.005724 -0.005601 0.000000 0.000000 0.000000
# 2 -0.005724 0.012001 -0.001126 0.000000 0.000000 0.000000
# 3 -0.005601 -0.001126 0.011986 0.000000 0.000000 0.000000
# 4 0.000000 0.000000 0.000000 0.061751 0.000000 0.000000
# 5 0.000000 0.000000 0.000000 0.000000 0.122078 0.000000
# 6 0.000000 0.000000 0.000000 0.000000 0.000000 0.072229
#
#
# Mechanical properties :
#
#
# Convention : Reuss Voigt Hill
#
# Bulk Modulus (GPa) = 55.59650 56.08995 55.84322
# Shear Modulus (GPa) = 15.15865 19.51217 17.33541
#
# Velocity S-wave (km/s) = 2.77356 3.14673 2.96602
# Velocity P-wave (km/s) = 6.20247 6.45498 6.32998
#
# Compressibility (1/GPa) = 0.01798675
#
# Stress axis : x y z
#
# Youngs Moduli (GPa) = 52.90355 83.32805 83.43053
#
# Poissons Ratio (x) = 0.47694 0.46732
# Poissons Ratio (y) = 0.30280 0.09396
# Poissons Ratio (z) = 0.29633 0.09385
#
# Static dielectric constant tensor:
#      x y z
#    x 1.657810 0.000000 0.000000 
#    y 0.000000 1.769390 0.000000 
#    z 0.000000 0.000000 1.768100 
# 
# From -- ./inp_files/24191.got.cif
#   From: 2010.05.17/outbox.cif.g08.bks.cpg/sg64_13_cif.got.tgz:24191.got - 2010.06.03 16:29:19.
