data_PCOD9480348
_publ_section_title
;
Structure prediction by ZEFSAII (Michael W. Deem and Ramdas Pophale) SiO2 
 PCOD9480348
Probable space group: C M C A
;
_chemical_formula_sum "Si O2"
_cell_formula_units_Z 112
_cell_length_a 15.303735
_cell_length_b 14.535058
_cell_length_c 20.703978
_cell_angle_alpha 90.000000
_cell_angle_beta 90.000000
_cell_angle_gamma 90.000000
_cell_volume 4605.406859
_symmetry_space_group_name_H-M "C M C A"
_symmetry_group_IT_number 64
_symmetry_cell_setting 'orthorhombic'
loop_
_space_group_symop_operation_xyz
x,y,z
-x,1/2-y,1/2+z
x,-y,-z
-x,1/2+y,1/2-z
-x,-y,-z
x,1/2+y,1/2-z
-x,y,z
x,1/2-y,1/2+z
1/2+x,1/2+y,z
1/2-x,-y,1/2+z
1/2+x,1/2-y,-z
1/2-x,y,1/2-z
1/2-x,1/2-y,-z
1/2+x,y,1/2-z
1/2-x,1/2+y,z
1/2+x,-y,1/2+z
loop_
_atom_site_type_symbol
_atom_site_label
_atom_site_fract_x
_atom_site_fract_y
_atom_site_fract_z
Si Si1 0.151460 0.093046 0.734892
Si Si2 0.098631 0.596721 0.432880
Si Si3 0.099880 0.697627 0.055858
Si Si4 0.897770 0.595307 0.179663
Si Si5 0.230738 0.599048 0.977486
Si Si6 0.131816 0.395156 0.382993
Si Si7 0.605181 0.708666 0.196866
O O1 0.250000 0.065185 0.750000
O O2 0.109584 0.011919 0.693885
O O3 0.111866 0.103668 0.807074
O O4 0.145674 0.191155 0.701154
O O5 0.178888 0.608743 0.481654
O O6 0.095099 0.489256 0.413091
O O7 0.120659 0.653803 0.368737
O O8 0.000000 0.623010 0.455298
O O9 0.138877 0.631832 0.112361
O O10 0.162460 0.677967 0.995391
O O11 0.100951 0.798934 0.086857
O O12 0.000000 0.673481 0.039451
O O13 0.862651 0.649695 0.241767
O O14 0.000000 0.619464 0.175208
O O15 0.194064 0.500000 0.000000
O O16 0.265626 0.599624 0.904177
O O17 0.500000 0.718736 0.201829
#
# Coordination Sequence:
#
# PCOD9480348 Si02
#       7
#    16  16  16  16  16  16  16
#     4  12  26  38  66  97 135 175 218 269 343 404
#     4  10  22  41  68  99 135 177 221 279 341 392
#     4  11  24  43  71  99 134 183 229 276 338 405
#     4  10  22  40  64  94 130 170 221 275 327 400
#     4  10  25  44  68  94 140 175 229 287 331 397
#     4  11  23  43  66 100 133 176 225 281 333 404
#     4  10  21  40  64  94 131 172 215 269 330 396
#
# _framework density 24.319241000000002
#
# number of rings (size 3 to 8) (size 9 to 14) (size 15 to 20)
#    0.000    1.429    2.857    1.286    6.000    5.143 
#    0.000    0.000    0.000    0.000    0.000    0.000 
#    0.000    0.000    0.000    0.000    0.000    0.000 
#
# Total GULP energy -313534.161582 kJ/mol
# GULP energy per Si atom -5598.824314 kJ/mol
# Density = 2.426389 g / cm^3
# Si number density = 24.319241 Si / 1000 Ang^3
#
#
#
# Elastic Constant Matrix: (Units=GPa)
#
#
# Indices 1 2 3 4 5 6 
#
# 1 67.7142 6.7315 19.1172 0.0000 0.0000 0.0000
# 2 6.7315 135.1917 37.4605 0.0000 0.0000 0.0000
# 3 19.1172 37.4605 77.6007 0.0000 0.0000 0.0000
# 4 0.0000 0.0000 0.0000 45.8745 0.0000 0.0000
# 5 0.0000 0.0000 0.0000 0.0000 21.9430 0.0000
# 6 0.0000 0.0000 0.0000 0.0000 0.0000 22.3386
#
#
#
# Elastic Compliance Matrix: (Units=1/GPa)
#
#
# Indices 1 2 3 4 5 6 
#
# 1 0.015885 0.000339 -0.004077 0.000000 0.000000 0.000000
# 2 0.000339 0.008546 -0.004209 0.000000 0.000000 0.000000
# 3 -0.004077 -0.004209 0.015923 0.000000 0.000000 0.000000
# 4 0.000000 0.000000 0.000000 0.021799 0.000000 0.000000
# 5 0.000000 0.000000 0.000000 0.000000 0.045573 0.000000
# 6 0.000000 0.000000 0.000000 0.000000 0.000000 0.044765
#
#
# Mechanical properties :
#
#
# Convention : Reuss Voigt Hill
#
# Bulk Modulus (GPa) = 40.88338 45.23612 43.05975
# Shear Modulus (GPa) = 28.32240 32.51106 30.41673
#
# Velocity S-wave (km/s) = 3.41634 3.66026 3.54040
# Velocity P-wave (km/s) = 5.69293 6.04191 5.87001
#
# Compressibility (1/GPa) = 0.02445982
#
# Stress axis : x y z
#
# Youngs Moduli (GPa) = 62.95140 117.00925 62.80348
#
# Poissons Ratio (x) = -0.03963 0.25604
# Poissons Ratio (y) = -0.02132 0.26434
# Poissons Ratio (z) = 0.25665 0.49250
#
# Static dielectric constant tensor:
#      x y z
#    x 1.917720 0.000000 0.000000 
#    y 0.000000 1.916520 0.000000 
#    z 0.000000 0.000000 1.964980 
# 
# From -- ./inp_files/45215.got.cif
#   From: 2010.05.17/outbox.cif.g08.bks.cpg/sg64_23_cif.got.tgz:45215.got - 2010.06.03 16:29:19.
