data_PCOD9480044
_publ_section_title
;
Structure prediction by ZEFSAII (Michael W. Deem and Ramdas Pophale) SiO2 
 PCOD9480044
Probable space group: C M C A
;
_chemical_formula_sum "Si O2"
_cell_formula_units_Z 80
_cell_length_a 27.357720
_cell_length_b 5.726003
_cell_length_c 21.035627
_cell_angle_alpha 90.000000
_cell_angle_beta 90.000000
_cell_angle_gamma 90.000000
_cell_volume 3295.239106
_symmetry_space_group_name_H-M "C M C A"
_symmetry_group_IT_number 64
_symmetry_cell_setting 'orthorhombic'
loop_
_space_group_symop_operation_xyz
x,y,z
-x,1/2-y,1/2+z
x,-y,-z
-x,1/2+y,1/2-z
-x,-y,-z
x,1/2+y,1/2-z
-x,y,z
x,1/2-y,1/2+z
1/2+x,1/2+y,z
1/2-x,-y,1/2+z
1/2+x,1/2-y,-z
1/2-x,y,1/2-z
1/2-x,1/2-y,-z
1/2+x,y,1/2-z
1/2-x,1/2+y,z
1/2+x,-y,1/2+z
loop_
_atom_site_type_symbol
_atom_site_label
_atom_site_fract_x
_atom_site_fract_y
_atom_site_fract_z
Si Si1 0.766389 0.549983 0.926930
Si Si2 0.625905 0.008347 0.097564
Si Si3 0.448727 0.312783 0.055524
Si Si4 0.853405 0.346955 0.766593
Si Si5 0.943884 0.157490 0.170537
O O1 0.742267 0.786910 0.898964
O O2 0.824128 0.604568 0.924762
O O3 0.750209 0.500000 0.000000
O O4 0.600375 0.172319 0.047226
O O5 0.639560 0.164111 0.158680
O O6 0.583520 0.841988 0.124886
O O7 0.500000 0.176352 0.053305
O O8 0.447405 0.433551 0.124741
O O9 0.450414 0.500000 0.000000
O O10 0.829735 0.603087 0.755276
O O11 0.905772 0.368296 0.728857
O O12 0.000000 0.220485 0.188961
#
# Coordination Sequence:
#
# PCOD9480044 Si02
#       5
#    16  16  16  16  16
#     4  10  25  45  70 100 130 168 224 288 347 410
#     4  11  23  39  67  92 131 173 228 274 349 398
#     4  10  22  37  57  93 137 176 221 270 329 402
#     4  10  21  38  60  92 127 170 219 268 311 385
#     4  10  22  38  60  95 136 179 224 267 319 398
#
# _framework density 24.277449000000001
#
# number of rings (size 3 to 8) (size 9 to 14) (size 15 to 20)
#    0.000    1.800    2.000    0.600    5.600    4.800 
#    0.000    3.000    0.000   14.400    0.000    0.000 
#    0.000    0.000    0.000    0.000    0.000    0.000 
#
# Total GULP energy -223103.089619 kJ/mol
# GULP energy per Si atom -5577.577240 kJ/mol
# Density = 2.422219 g / cm^3
# Si number density = 24.277449 Si / 1000 Ang^3
#
#
#
# Elastic Constant Matrix: (Units=GPa)
#
#
# Indices 1 2 3 4 5 6 
#
# 1 81.8410 30.6777 10.6944 0.0000 0.0000 0.0000
# 2 30.6777 130.1249 13.2859 0.0000 0.0000 0.0000
# 3 10.6944 13.2859 44.5434 0.0000 0.0000 0.0000
# 4 0.0000 0.0000 0.0000 42.6236 0.0000 0.0000
# 5 0.0000 0.0000 0.0000 0.0000 26.7994 0.0000
# 6 0.0000 0.0000 0.0000 0.0000 0.0000 24.4058
#
#
#
# Elastic Compliance Matrix: (Units=1/GPa)
#
#
# Indices 1 2 3 4 5 6 
#
# 1 0.013645 -0.002973 -0.002389 0.000000 0.000000 0.000000
# 2 -0.002973 0.008574 -0.001844 0.000000 0.000000 0.000000
# 3 -0.002389 -0.001844 0.023574 0.000000 0.000000 0.000000
# 4 0.000000 0.000000 0.000000 0.023461 0.000000 0.000000
# 5 0.000000 0.000000 0.000000 0.000000 0.037314 0.000000
# 6 0.000000 0.000000 0.000000 0.000000 0.000000 0.040974
#
#
# Mechanical properties :
#
#
# Convention : Reuss Voigt Hill
#
# Bulk Modulus (GPa) = 31.86629 40.64724 36.25676
# Shear Modulus (GPa) = 28.99983 32.22251 30.61117
#
# Velocity S-wave (km/s) = 3.45993 3.64711 3.55475
# Velocity P-wave (km/s) = 5.39591 5.87489 5.64049
#
# Compressibility (1/GPa) = 0.03138113
#
# Stress axis : x y z
#
# Youngs Moduli (GPa) = 73.28439 116.63079 42.42043
#
# Poissons Ratio (x) = 0.34675 0.10136
# Poissons Ratio (y) = 0.21788 0.07821
# Poissons Ratio (z) = 0.17510 0.21502
#
# Static dielectric constant tensor:
#      x y z
#    x 1.932470 0.000000 0.000000 
#    y 0.000000 2.114250 0.000000 
#    z 0.000000 0.000000 1.935510 
# 
# From -- ./inp_files/47044.got.cif
#   From: 2010.05.17/outbox.cif.g08.bks.cpg/sg64_24_cif.got.tgz:47044.got - 2010.06.03 16:29:19.
