data_PCOD9480344
_publ_section_title
;
Structure prediction by ZEFSAII (Michael W. Deem and Ramdas Pophale) SiO2 
 PCOD9480344
Probable space group: C M C A
;
_chemical_formula_sum "Si O2"
_cell_formula_units_Z 68
_cell_length_a 16.829159
_cell_length_b 21.203099
_cell_length_c 10.213702
_cell_angle_alpha 90.000000
_cell_angle_beta 90.000000
_cell_angle_gamma 90.000000
_cell_volume 3644.558598
_symmetry_space_group_name_H-M "C M C A"
_symmetry_group_IT_number 64
_symmetry_cell_setting 'orthorhombic'
loop_
_space_group_symop_operation_xyz
x,y,z
-x,1/2-y,1/2+z
x,-y,-z
-x,1/2+y,1/2-z
-x,-y,-z
x,1/2+y,1/2-z
-x,y,z
x,1/2-y,1/2+z
1/2+x,1/2+y,z
1/2-x,-y,1/2+z
1/2+x,1/2-y,-z
1/2-x,y,1/2-z
1/2-x,1/2-y,-z
1/2+x,y,1/2-z
1/2-x,1/2+y,z
1/2+x,-y,1/2+z
loop_
_atom_site_type_symbol
_atom_site_label
_atom_site_fract_x
_atom_site_fract_y
_atom_site_fract_z
Si Si1 0.500000 0.500000 0.000000
Si Si2 0.409479 0.848947 0.800274
Si Si3 0.305405 0.729938 0.876853
Si Si4 0.627311 0.113537 0.485838
Si Si5 0.785468 0.046133 0.384480
O O1 0.430310 0.555315 0.981682
O O2 0.500000 0.852984 0.845095
O O3 0.365800 0.786843 0.849890
O O4 0.406930 0.851773 0.642701
O O5 0.357786 0.908768 0.845860
O O6 0.250000 0.722404 0.750000
O O7 0.354017 0.666255 0.906658
O O8 0.250000 0.750000 0.000000
O O9 0.712881 0.086748 0.441912
O O10 0.750000 0.016217 0.250000
O O11 0.809951 0.000000 0.500000
#
# Coordination Sequence:
#
# PCOD9480344 Si02
#       5
#     4  16  16  16  16
#     4  12  24  44  68 104 144 188 230 284 354 420
#     4  11  23  41  67  97 139 180 223 290 361 403
#     4  12  23  45  73 102 133 181 235 283 352 424
#     4  11  23  43  68  98 133 183 231 277 342 422
#     4  10  21  40  64  91 129 182 230 279 350 419
#
# _framework density 18.657952000000002
#
# number of rings (size 3 to 8) (size 9 to 14) (size 15 to 20)
#    0.000    0.941    7.059    0.706    1.647    1.412 
#    0.000    0.000   10.353    0.000    0.000    0.000 
#    0.000    0.000    0.000    0.000    0.000    0.000 
#
# Total GULP energy -189294.513881 kJ/mol
# GULP energy per Si atom -5567.485702 kJ/mol
# Density = 1.861549 g / cm^3
# Si number density = 18.657952 Si / 1000 Ang^3
#
#
#
# Elastic Constant Matrix: (Units=GPa)
#
#
# Indices 1 2 3 4 5 6 
#
# 1 157.9375 65.0002 52.2498 0.0000 0.0000 0.0000
# 2 65.0002 112.9866 69.4151 0.0000 0.0000 0.0000
# 3 52.2498 69.4151 106.1340 0.0000 0.0000 0.0000
# 4 0.0000 0.0000 0.0000 22.7004 0.0000 0.0000
# 5 0.0000 0.0000 0.0000 0.0000 8.5917 0.0000
# 6 0.0000 0.0000 0.0000 0.0000 0.0000 37.2488
#
#
#
# Elastic Compliance Matrix: (Units=1/GPa)
#
#
# Indices 1 2 3 4 5 6 
#
# 1 0.008464 -0.003860 -0.001642 0.000000 0.000000 0.000000
# 2 -0.003860 0.016556 -0.008928 0.000000 0.000000 0.000000
# 3 -0.001642 -0.008928 0.016070 0.000000 0.000000 0.000000
# 4 0.000000 0.000000 0.000000 0.044052 0.000000 0.000000
# 5 0.000000 0.000000 0.000000 0.000000 0.116391 0.000000
# 6 0.000000 0.000000 0.000000 0.000000 0.000000 0.026846
#
#
# Mechanical properties :
#
#
# Convention : Reuss Voigt Hill
#
# Bulk Modulus (GPa) = 81.77150 83.37646 82.57398
# Shear Modulus (GPa) = 19.13389 26.40105 22.76747
#
# Velocity S-wave (km/s) = 3.20583 3.76573 3.49701
# Velocity P-wave (km/s) = 7.59111 7.98070 7.78834
#
# Compressibility (1/GPa) = 0.01222920
#
# Stress axis : x y z
#
# Youngs Moduli (GPa) = 118.15434 60.39924 62.22947
#
# Poissons Ratio (x) = 0.23316 0.10217
# Poissons Ratio (y) = 0.45611 0.55559
# Poissons Ratio (z) = 0.19399 0.53925
#
# Static dielectric constant tensor:
#      x y z
#    x 1.639260 0.000000 0.000000 
#    y 0.000000 1.654080 0.000000 
#    z 0.000000 0.000000 1.673830 
# 
# From -- ./inp_files/6707.got.cif
#   From: 2010.05.17/outbox.cif.g08.bks.cpg/sg64_4_cif.got.tgz:6707.got - 2010.06.03 16:29:19.
