data_PCOD9480071
_publ_section_title
;
Structure prediction by ZEFSAII (Michael W. Deem and Ramdas Pophale) SiO2 
 PCOD9480071
Probable space group: C M C A
;
_chemical_formula_sum "Si O2"
_cell_formula_units_Z 56
_cell_length_a 30.185034
_cell_length_b 5.385210
_cell_length_c 13.629349
_cell_angle_alpha 90.000000
_cell_angle_beta 90.000000
_cell_angle_gamma 90.000000
_cell_volume 2215.488119
_symmetry_space_group_name_H-M "C M C A"
_symmetry_group_IT_number 64
_symmetry_cell_setting 'orthorhombic'
loop_
_space_group_symop_operation_xyz
x,y,z
-x,1/2-y,1/2+z
x,-y,-z
-x,1/2+y,1/2-z
-x,-y,-z
x,1/2+y,1/2-z
-x,y,z
x,1/2-y,1/2+z
1/2+x,1/2+y,z
1/2-x,-y,1/2+z
1/2+x,1/2-y,-z
1/2-x,y,1/2-z
1/2-x,1/2-y,-z
1/2+x,y,1/2-z
1/2-x,1/2+y,z
1/2+x,-y,1/2+z
loop_
_atom_site_type_symbol
_atom_site_label
_atom_site_fract_x
_atom_site_fract_y
_atom_site_fract_z
Si Si1 0.369559 0.366989 0.137775
Si Si2 0.000000 0.751727 0.433999
Si Si3 0.769401 0.544466 0.616355
Si Si4 0.094624 0.637513 0.860533
O O1 0.317140 0.333964 0.135892
O O2 0.388013 0.391248 0.249044
O O3 0.377689 0.638140 0.093238
O O4 0.396403 0.133932 0.095767
O O5 0.000000 0.500000 0.500000
O O6 0.044116 0.774490 0.368800
O O7 0.000000 0.000000 0.500000
O O8 0.763844 0.500000 0.500000
O O9 0.764694 0.258455 0.652072
#
# Coordination Sequence:
#
# PCOD9480071 Si02
#       4
#    16   8  16  16
#     4  10  21  40  65  93 128 170 214 263 318 380
#     4  12  26  44  66  94 127 164 210 266 331 396
#     4  10  21  38  61  92 131 171 211 259 314 373
#     4  10  23  41  62  93 126 165 212 266 324 385
#
# _framework density 25.276596000000001
#
# number of rings (size 3 to 8) (size 9 to 14) (size 15 to 20)
#    0.000    1.714    0.000    3.429    0.000    8.000 
#    0.000   17.143    0.000    0.000    0.000    0.000 
#    0.000    0.000    0.000    0.000    0.000    0.000 
#
# Total GULP energy -156522.432524 kJ/mol
# GULP energy per Si atom -5590.086876 kJ/mol
# Density = 2.521907 g / cm^3
# Si number density = 25.276596 Si / 1000 Ang^3
#
#
#
# Elastic Constant Matrix: (Units=GPa)
#
#
# Indices 1 2 3 4 5 6 
#
# 1 81.5957 30.3014 -42.8149 0.0000 0.0000 0.0000
# 2 30.3014 203.7950 21.2167 0.0000 0.0000 0.0000
# 3 -42.8149 21.2167 86.2757 0.0000 0.0000 0.0000
# 4 0.0000 0.0000 0.0000 2.4394 0.0000 0.0000
# 5 0.0000 0.0000 0.0000 0.0000 34.1895 0.0000
# 6 0.0000 0.0000 0.0000 0.0000 0.0000 48.6005
#
#
#
# Elastic Compliance Matrix: (Units=1/GPa)
#
#
# Indices 1 2 3 4 5 6 
#
# 1 0.019248 -0.003958 0.010525 0.000000 0.000000 0.000000
# 2 -0.003958 0.005850 -0.003403 0.000000 0.000000 0.000000
# 3 0.010525 -0.003403 0.017651 0.000000 0.000000 0.000000
# 4 0.000000 0.000000 0.000000 0.409942 0.000000 0.000000
# 5 0.000000 0.000000 0.000000 0.000000 0.029249 0.000000
# 6 0.000000 0.000000 0.000000 0.000000 0.000000 0.020576
#
#
# Mechanical properties :
#
#
# Convention : Reuss Voigt Hill
#
# Bulk Modulus (GPa) = 20.37556 43.23032 31.80294
# Shear Modulus (GPa) = 9.75525 41.24342 25.49933
#
# Velocity S-wave (km/s) = 1.96667 4.04379 3.17963
# Velocity P-wave (km/s) = 3.63807 6.24044 5.10777
#
# Compressibility (1/GPa) = 0.04907842
#
# Stress axis : x y z
#
# Youngs Moduli (GPa) = 51.95328 170.95270 56.65494
#
# Poissons Ratio (x) = 0.67657 -0.59631
# Poissons Ratio (y) = 0.20561 0.19277
# Poissons Ratio (z) = -0.54682 0.58167
#
# Static dielectric constant tensor:
#      x y z
#    x 1.943870 0.000000 0.000000 
#    y 0.000000 2.065030 0.000000 
#    z 0.000000 0.000000 1.733690 
# 
# From -- ./inp_files/35228.got.cif
#   From: 2010.05.17/outbox.cif.g08.bks.cpg/sg64_18_cif.got.tgz:35228.got - 2010.06.03 16:29:19.
