data_PCOD9480898
_publ_section_title
;
Structure prediction by ZEFSAII (Michael W. Deem and Ramdas Pophale) SiO2 
 PCOD9480898
Probable space group: C M C A
;
_chemical_formula_sum "Si O2"
_cell_formula_units_Z 96
_cell_length_a 14.231397
_cell_length_b 12.908339
_cell_length_c 22.328793
_cell_angle_alpha 90.000000
_cell_angle_beta 90.000000
_cell_angle_gamma 90.000000
_cell_volume 4101.881822
_symmetry_space_group_name_H-M "C M C A"
_symmetry_group_IT_number 64
_symmetry_cell_setting 'orthorhombic'
loop_
_space_group_symop_operation_xyz
x,y,z
-x,1/2-y,1/2+z
x,-y,-z
-x,1/2+y,1/2-z
-x,-y,-z
x,1/2+y,1/2-z
-x,y,z
x,1/2-y,1/2+z
1/2+x,1/2+y,z
1/2-x,-y,1/2+z
1/2+x,1/2-y,-z
1/2-x,y,1/2-z
1/2-x,1/2-y,-z
1/2+x,y,1/2-z
1/2-x,1/2+y,z
1/2+x,-y,1/2+z
loop_
_atom_site_type_symbol
_atom_site_label
_atom_site_fract_x
_atom_site_fract_y
_atom_site_fract_z
Si Si1 0.613940 0.851190 0.707290
Si Si2 0.604971 0.133042 0.847077
Si Si3 0.781415 0.402877 0.042863
Si Si4 0.608771 0.209733 0.164684
Si Si5 0.886757 0.242595 0.963635
Si Si6 0.149517 0.926096 0.220709
O O1 0.500000 0.845945 0.709235
O O2 0.639889 0.750084 0.668993
O O3 0.650905 0.840851 0.775810
O O4 0.642349 0.965048 0.687333
O O5 0.500000 0.137314 0.874132
O O6 0.679862 0.079750 0.890305
O O7 0.594014 0.076066 0.783451
O O8 0.674727 0.361822 0.039150
O O9 0.794187 0.500000 0.000000
O O10 0.848057 0.310015 0.018367
O O11 0.500000 0.178055 0.163066
O O12 0.643095 0.196581 0.097449
O O13 0.615786 0.331909 0.180046
O O14 0.000000 0.229438 0.964459
O O15 0.250000 0.905508 0.250000
#
# Coordination Sequence:
#
# PCOD9480898 Si02
#       6
#    16  16  16  16  16  16
#     4   9  19  36  59  87 120 161 203 252 315 377
#     4  10  22  41  63  90 129 167 211 268 319 379
#     4  11  25  44  68  98 129 168 223 273 321 388
#     4   9  19  38  60  84 118 159 208 257 310 382
#     4  10  23  45  68  93 130 172 215 270 328 385
#     4  11  21  33  57  92 127 164 206 257 320 382
#
# _framework density 23.403894000000001
#
# number of rings (size 3 to 8) (size 9 to 14) (size 15 to 20)
#    0.000    2.000    0.000    4.000    2.333    5.667 
#    9.000    0.000    0.000    0.000    0.000    0.000 
#    0.000    0.000    0.000    0.000    0.000    0.000 
#
# Total GULP energy -268131.271892 kJ/mol
# GULP energy per Si atom -5586.068164 kJ/mol
# Density = 2.335063 g / cm^3
# Si number density = 23.403894 Si / 1000 Ang^3
#
#
#
# Elastic Constant Matrix: (Units=GPa)
#
#
# Indices 1 2 3 4 5 6 
#
# 1 111.9796 3.4540 19.4774 0.0000 0.0000 0.0000
# 2 3.4540 70.1597 -2.5254 0.0000 0.0000 0.0000
# 3 19.4774 -2.5254 68.7312 0.0000 0.0000 0.0000
# 4 0.0000 0.0000 0.0000 17.6694 0.0000 0.0000
# 5 0.0000 0.0000 0.0000 0.0000 23.6670 0.0000
# 6 0.0000 0.0000 0.0000 0.0000 0.0000 15.5205
#
#
#
# Elastic Compliance Matrix: (Units=1/GPa)
#
#
# Indices 1 2 3 4 5 6 
#
# 1 0.009415 -0.000560 -0.002689 0.000000 0.000000 0.000000
# 2 -0.000560 0.014305 0.000684 0.000000 0.000000 0.000000
# 3 -0.002689 0.000684 0.015337 0.000000 0.000000 0.000000
# 4 0.000000 0.000000 0.000000 0.056595 0.000000 0.000000
# 5 0.000000 0.000000 0.000000 0.000000 0.042253 0.000000
# 6 0.000000 0.000000 0.000000 0.000000 0.000000 0.064431
#
#
# Mechanical properties :
#
#
# Convention : Reuss Voigt Hill
#
# Bulk Modulus (GPa) = 29.47430 32.40919 30.94174
# Shear Modulus (GPa) = 22.85462 26.73569 24.79515
#
# Velocity S-wave (km/s) = 3.12834 3.38355 3.25844
# Velocity P-wave (km/s) = 5.06653 5.39837 5.23508
#
# Compressibility (1/GPa) = 0.03392787
#
# Stress axis : x y z
#
# Youngs Moduli (GPa) = 106.21186 69.90365 65.20390
#
# Poissons Ratio (x) = 0.03917 0.17531
# Poissons Ratio (y) = 0.05951 -0.04463
# Poissons Ratio (z) = 0.28557 -0.04784
#
# Static dielectric constant tensor:
#      x y z
#    x 2.098780 0.000000 0.000000 
#    y 0.000000 1.860020 0.000000 
#    z 0.000000 0.000000 1.862300 
# 
# From -- ./inp_files/39205.got.cif
#   From: 2010.05.17/outbox.cif.g08.bks.cpg/sg64_20_cif.got.tgz:39205.got - 2010.06.03 16:29:19.
