data_PCOD9480880
_publ_section_title
;
Structure prediction by ZEFSAII (Michael W. Deem and Ramdas Pophale) SiO2 
 PCOD9480880
Probable space group: C M C A
;
_chemical_formula_sum "Si O2"
_cell_formula_units_Z 104
_cell_length_a 9.572317
_cell_length_b 28.246804
_cell_length_c 19.056580
_cell_angle_alpha 90.000000
_cell_angle_beta 90.000000
_cell_angle_gamma 90.000000
_cell_volume 5152.658397
_symmetry_space_group_name_H-M "C M C A"
_symmetry_group_IT_number 64
_symmetry_cell_setting 'orthorhombic'
loop_
_space_group_symop_operation_xyz
x,y,z
-x,1/2-y,1/2+z
x,-y,-z
-x,1/2+y,1/2-z
-x,-y,-z
x,1/2+y,1/2-z
-x,y,z
x,1/2-y,1/2+z
1/2+x,1/2+y,z
1/2-x,-y,1/2+z
1/2+x,1/2-y,-z
1/2-x,y,1/2-z
1/2-x,1/2-y,-z
1/2+x,y,1/2-z
1/2-x,1/2+y,z
1/2+x,-y,1/2+z
loop_
_atom_site_type_symbol
_atom_site_label
_atom_site_fract_x
_atom_site_fract_y
_atom_site_fract_z
Si Si1 0.847401 0.570248 0.641682
Si Si2 0.663797 0.178886 0.680615
Si Si3 0.665204 0.260918 0.429277
Si Si4 0.841798 0.943588 0.491650
Si Si5 0.837431 0.588770 0.145343
Si Si6 0.661839 0.679914 0.186248
Si Si7 0.750000 0.992510 0.750000
O O1 0.837485 0.621831 0.676260
O O2 0.739586 0.567891 0.578509
O O3 0.830533 0.528656 0.698653
O O4 0.000000 0.565458 0.608965
O O5 0.500000 0.194473 0.681938
O O6 0.750000 0.192033 0.750000
O O7 0.748911 0.199774 0.614591
O O8 0.500000 0.272991 0.440607
O O9 0.750000 0.250000 0.500000
O O10 0.668069 0.214192 0.380432
O O11 0.791073 0.923848 0.566209
O O12 0.000000 0.926561 0.482994
O O13 0.842722 0.000000 0.500000
O O14 0.736752 0.630224 0.170900
O O15 0.827683 0.543189 0.196455
O O16 0.000000 0.603764 0.143916
O O17 0.500000 0.673146 0.205620
O O18 0.750000 0.701556 0.250000
#
# Coordination Sequence:
#
# PCOD9480880 Si02
#       7
#    16  16  16  16  16  16   8
#     4  11  25  41  64  97 132 172 219 273 327 388
#     4  11  24  44  69 100 133 174 221 273 334 398
#     4  11  26  47  71 101 134 175 220 277 336 399
#     4  10  22  41  61  86 125 173 218 267 325 389
#     4  11  24  41  65  95 129 173 222 269 325 388
#     4  11  25  44  68  97 131 169 216 268 328 391
#     4  12  22  42  66  98 134 174 224 270 326 386
#
# _framework density 20.183757
#
# number of rings (size 3 to 8) (size 9 to 14) (size 15 to 20)
#    0.000    1.077    3.077    2.308    2.154    7.077 
#    0.000    0.000    0.000    0.000    0.000    0.000 
#    0.000    0.000    0.000    0.000    0.000    0.000 
#
# Total GULP energy -290428.816344 kJ/mol
# GULP energy per Si atom -5585.169545 kJ/mol
# Density = 2.013782 g / cm^3
# Si number density = 20.183757 Si / 1000 Ang^3
#
#
#
# Elastic Constant Matrix: (Units=GPa)
#
#
# Indices 1 2 3 4 5 6 
#
# 1 146.7174 42.0390 62.8398 0.0000 0.0000 0.0000
# 2 42.0390 86.0073 16.4960 0.0000 0.0000 0.0000
# 3 62.8398 16.4960 122.0950 0.0000 0.0000 0.0000
# 4 0.0000 0.0000 0.0000 30.5505 0.0000 0.0000
# 5 0.0000 0.0000 0.0000 0.0000 35.3400 0.0000
# 6 0.0000 0.0000 0.0000 0.0000 0.0000 18.1722
#
#
#
# Elastic Compliance Matrix: (Units=1/GPa)
#
#
# Indices 1 2 3 4 5 6 
#
# 1 0.009907 -0.003967 -0.004563 0.000000 0.000000 0.000000
# 2 -0.003967 0.013525 0.000215 0.000000 0.000000 0.000000
# 3 -0.004563 0.000215 0.010510 0.000000 0.000000 0.000000
# 4 0.000000 0.000000 0.000000 0.032733 0.000000 0.000000
# 5 0.000000 0.000000 0.000000 0.000000 0.028297 0.000000
# 6 0.000000 0.000000 0.000000 0.000000 0.000000 0.055029
#
#
# Mechanical properties :
#
#
# Convention : Reuss Voigt Hill
#
# Bulk Modulus (GPa) = 57.76858 66.39659 62.08259
# Shear Modulus (GPa) = 29.00218 32.37555 30.68886
#
# Velocity S-wave (km/s) = 3.79477 4.00939 3.90355
# Velocity P-wave (km/s) = 6.91981 7.37571 7.15139
#
# Compressibility (1/GPa) = 0.01731045
#
# Stress axis : x y z
#
# Youngs Moduli (GPa) = 100.94049 73.93790 95.14966
#
# Poissons Ratio (x) = 0.29332 0.43415
# Poissons Ratio (y) = 0.40045 -0.02041
# Poissons Ratio (z) = 0.46058 -0.01586
#
# Static dielectric constant tensor:
#      x y z
#    x 1.705450 0.000000 0.000000 
#    y 0.000000 1.709520 0.000000 
#    z 0.000000 0.000000 1.344490 
# 
# From -- ./inp_files/37268.got.cif
#   From: 2010.05.17/outbox.cif.g08.bks.cpg/sg64_19_cif.got.tgz:37268.got - 2010.06.03 16:29:19.
