data_PCOD9480984
_publ_section_title
;
Structure prediction by ZEFSAII (Michael W. Deem and Ramdas Pophale) SiO2 
 PCOD9480984
Probable space group: C M C A
;
_chemical_formula_sum "Si O2"
_cell_formula_units_Z 96
_cell_length_a 15.042729
_cell_length_b 11.276482
_cell_length_c 22.339958
_cell_angle_alpha 90.000000
_cell_angle_beta 90.000000
_cell_angle_gamma 90.000000
_cell_volume 3789.506139
_symmetry_space_group_name_H-M "C M C A"
_symmetry_group_IT_number 64
_symmetry_cell_setting 'orthorhombic'
loop_
_space_group_symop_operation_xyz
x,y,z
-x,1/2-y,1/2+z
x,-y,-z
-x,1/2+y,1/2-z
-x,-y,-z
x,1/2+y,1/2-z
-x,y,z
x,1/2-y,1/2+z
1/2+x,1/2+y,z
1/2-x,-y,1/2+z
1/2+x,1/2-y,-z
1/2-x,y,1/2-z
1/2-x,1/2-y,-z
1/2+x,y,1/2-z
1/2-x,1/2+y,z
1/2+x,-y,1/2+z
loop_
_atom_site_type_symbol
_atom_site_label
_atom_site_fract_x
_atom_site_fract_y
_atom_site_fract_z
Si Si1 0.352111 0.916007 0.944597
Si Si2 0.892396 0.146829 0.779038
Si Si3 0.407684 0.155387 0.543377
Si Si4 0.103545 0.613041 0.292646
Si Si5 0.754758 0.598798 0.879115
Si Si6 0.834645 0.662450 0.419993
O O1 0.405217 0.794438 0.937525
O O2 0.254731 0.864430 0.956575
O O3 0.325274 0.990350 0.885222
O O4 0.381045 0.000000 0.000000
O O5 0.874123 0.263441 0.739518
O O6 0.809091 0.143156 0.825375
O O7 0.000000 0.157862 0.796412
O O8 0.885388 0.009914 0.755764
O O9 0.500000 0.102619 0.566192
O O10 0.322317 0.090378 0.569976
O O11 0.406101 0.151750 0.471713
O O12 0.152418 0.597924 0.356295
O O13 0.000000 0.622630 0.307963
O O14 0.820319 0.704388 0.897849
#
# Coordination Sequence:
#
# PCOD9480984 Si02
#       6
#    16  16  16  16  16  16
#     4  11  19  39  62  90 129 170 211 263 324 388
#     4  10  22  43  68  93 128 170 221 279 335 394
#     4  11  23  37  60  98 135 170 213 264 332 399
#     4  10  22  42  65  93 128 169 219 278 334 391
#     4  11  21  40  64  89 126 173 215 264 325 397
#     4  11  21  38  63  91 128 169 213 269 327 398
#
# _framework density 25.333117000000001
#
# number of rings (size 3 to 8) (size 9 to 14) (size 15 to 20)
#    0.000    1.333    5.000    2.000    0.000    1.000 
#    6.000    2.500    0.000    0.000    0.000    0.000 
#    0.000    0.000    0.000    0.000    0.000    0.000 
#
# Total GULP energy -267313.060929 kJ/mol
# GULP energy per Si atom -5569.022103 kJ/mol
# Density = 2.527546 g / cm^3
# Si number density = 25.333117 Si / 1000 Ang^3
#
#
#
# Elastic Constant Matrix: (Units=GPa)
#
#
# Indices 1 2 3 4 5 6 
#
# 1 55.9377 11.6355 20.1658 0.0000 0.0000 0.0000
# 2 11.6355 157.0881 51.2152 0.0000 0.0000 0.0000
# 3 20.1658 51.2152 115.9065 0.0000 0.0000 0.0000
# 4 0.0000 0.0000 0.0000 42.7430 0.0000 0.0000
# 5 0.0000 0.0000 0.0000 0.0000 -137.5076 0.0000
# 6 0.0000 0.0000 0.0000 0.0000 0.0000 18.8125
#
#
#
# Elastic Compliance Matrix: (Units=1/GPa)
#
#
# Indices 1 2 3 4 5 6 
#
# 1 0.019093 -0.000387 -0.003151 0.000000 0.000000 0.000000
# 2 -0.000387 0.007445 -0.003222 0.000000 0.000000 0.000000
# 3 -0.003151 -0.003222 0.010600 0.000000 0.000000 0.000000
# 4 0.000000 0.000000 0.000000 0.023396 0.000000 0.000000
# 5 0.000000 0.000000 0.000000 0.000000 -0.007272 0.000000
# 6 0.000000 0.000000 0.000000 0.000000 0.000000 0.053156
#
#
# Mechanical properties :
#
#
# Convention : Reuss Voigt Hill
#
# Bulk Modulus (GPa) = 42.34124 54.99616 48.66870
# Shear Modulus (GPa) = 39.12024 1.20397 20.16210
#
# Velocity S-wave (km/s) = 3.93394 0.69013 2.82419
# Velocity P-wave (km/s) = 6.11429 4.73195 5.46699
#
# Compressibility (1/GPa) = 0.02361763
#
# Stress axis : x y z
#
# Youngs Moduli (GPa) = 52.37399 134.31620 94.34186
#
# Poissons Ratio (x) = 0.05197 0.29727
# Poissons Ratio (y) = 0.02027 0.30401
# Poissons Ratio (z) = 0.16503 0.43282
#
# Static dielectric constant tensor:
#      x y z
#    x 2.602890 0.000000 0.000000 
#    y 0.000000 2.157200 0.000000 
#    z 0.000000 0.000000 2.070630 
# 
# From -- ./inp_files/45721.got.cif
#   From: 2010.05.17/outbox.cif.g08.bks.cpg/sg64_23_cif.got.tgz:45721.got - 2010.06.03 16:29:19.
