data_PCOD9480550
_publ_section_title
;
Structure prediction by ZEFSAII (Michael W. Deem and Ramdas Pophale) SiO2 
 PCOD9480550
Probable space group: C M C A
;
_chemical_formula_sum "Si O2"
_cell_formula_units_Z 88
_cell_length_a 15.167728
_cell_length_b 15.360865
_cell_length_c 20.084502
_cell_angle_alpha 90.000000
_cell_angle_beta 90.000000
_cell_angle_gamma 90.000000
_cell_volume 4679.476515
_symmetry_space_group_name_H-M "C M C A"
_symmetry_group_IT_number 64
_symmetry_cell_setting 'orthorhombic'
loop_
_space_group_symop_operation_xyz
x,y,z
-x,1/2-y,1/2+z
x,-y,-z
-x,1/2+y,1/2-z
-x,-y,-z
x,1/2+y,1/2-z
-x,y,z
x,1/2-y,1/2+z
1/2+x,1/2+y,z
1/2-x,-y,1/2+z
1/2+x,1/2-y,-z
1/2-x,y,1/2-z
1/2-x,1/2-y,-z
1/2+x,y,1/2-z
1/2-x,1/2+y,z
1/2+x,-y,1/2+z
loop_
_atom_site_type_symbol
_atom_site_label
_atom_site_fract_x
_atom_site_fract_y
_atom_site_fract_z
Si Si1 0.750000 0.851083 0.250000
Si Si2 0.600162 0.744983 0.186372
Si Si3 0.397962 0.585321 0.097923
Si Si4 0.273866 0.578557 0.893856
Si Si5 0.400977 0.133060 0.946223
Si Si6 0.100808 0.796403 0.034697
O O1 0.666290 0.788717 0.237635
O O2 0.741378 0.909529 0.315502
O O3 0.500000 0.740758 0.211576
O O4 0.626101 0.650168 0.158445
O O5 0.598900 0.805812 0.120091
O O6 0.500000 0.558326 0.106752
O O7 0.335947 0.502920 0.092862
O O8 0.394452 0.641897 0.030561
O O9 0.181714 0.571484 0.933180
O O10 0.324781 0.666160 0.917328
O O11 0.500000 0.095864 0.951994
O O12 0.385137 0.198607 0.007863
O O13 0.000000 0.802853 0.060645
#
# Coordination Sequence:
#
# PCOD9480550 Si02
#       6
#     8  16  16  16  16  16
#     4  10  22  32  46  72  98 130 170 200 236 298
#     4   8  16  33  50  63  91 131 162 195 241 290
#     4   9  18  32  52  76  98 124 160 206 256 294
#     4  11  19  29  48  76 102 126 161 207 246 283
#     4   8  16  31  49  69  95 128 160 190 237 293
#     4   9  17  31  52  77 101 123 155 202 253 298
#
# _framework density 18.805520999999999
#
# number of rings (size 3 to 8) (size 9 to 14) (size 15 to 20)
#    0.000    2.909    0.000    3.818    0.000    3.636 
#    0.000    0.000    0.000    3.273    0.000    5.091 
#    0.000    0.000    0.000    0.000    0.000    0.000 
#
# Total GULP energy -245359.294487 kJ/mol
# GULP energy per Si atom -5576.347602 kJ/mol
# Density = 1.876272 g / cm^3
# Si number density = 18.805521 Si / 1000 Ang^3
#
#
#
# Elastic Constant Matrix: (Units=GPa)
#
#
# Indices 1 2 3 4 5 6 
#
# 1 64.9273 29.3402 11.7183 0.0000 0.0000 0.0000
# 2 29.3402 44.4607 0.9533 0.0000 0.0000 0.0000
# 3 11.7183 0.9533 33.8319 0.0000 0.0000 0.0000
# 4 0.0000 0.0000 0.0000 8.4984 0.0000 0.0000
# 5 0.0000 0.0000 0.0000 0.0000 21.4181 0.0000
# 6 0.0000 0.0000 0.0000 0.0000 0.0000 8.1913
#
#
#
# Elastic Compliance Matrix: (Units=1/GPa)
#
#
# Indices 1 2 3 4 5 6 
#
# 1 0.023850 -0.015571 -0.007822 0.000000 0.000000 0.000000
# 2 -0.015571 0.032672 0.004473 0.000000 0.000000 0.000000
# 3 -0.007822 0.004473 0.032141 0.000000 0.000000 0.000000
# 4 0.000000 0.000000 0.000000 0.117669 0.000000 0.000000
# 5 0.000000 0.000000 0.000000 0.000000 0.046690 0.000000
# 6 0.000000 0.000000 0.000000 0.000000 0.000000 0.122081
#
#
# Mechanical properties :
#
#
# Convention : Reuss Voigt Hill
#
# Bulk Modulus (GPa) = 19.67665 25.24926 22.46296
# Shear Modulus (GPa) = 11.63102 14.36875 12.99989
#
# Velocity S-wave (km/s) = 2.48964 2.76718 2.63207
# Velocity P-wave (km/s) = 4.33017 4.86471 4.60520
#
# Compressibility (1/GPa) = 0.05082165
#
# Stress axis : x y z
#
# Youngs Moduli (GPa) = 41.92837 30.60761 31.11264
#
# Poissons Ratio (x) = 0.47660 0.24337
# Poissons Ratio (y) = 0.65288 -0.13916
# Poissons Ratio (z) = 0.32797 -0.13690
#
# Static dielectric constant tensor:
#      x y z
#    x 1.677010 0.000000 0.000000 
#    y 0.000000 1.647170 0.000000 
#    z 0.000000 0.000000 1.649810 
# 
# From -- ./inp_files/39420.got.cif
#   From: 2010.05.17/outbox.cif.g08.bks.cpg/sg64_20_cif.got.tgz:39420.got - 2010.06.03 16:29:19.
