data_PCOD9480170
_publ_section_title
;
Structure prediction by ZEFSAII (Michael W. Deem and Ramdas Pophale) SiO2 
 PCOD9480170
Probable space group: C M C A
;
_chemical_formula_sum "Si O2"
_cell_formula_units_Z 104
_cell_length_a 9.663582
_cell_length_b 19.438354
_cell_length_c 27.409536
_cell_angle_alpha 90.000000
_cell_angle_beta 90.000000
_cell_angle_gamma 90.000000
_cell_volume 5148.720384
_symmetry_space_group_name_H-M "C M C A"
_symmetry_group_IT_number 64
_symmetry_cell_setting 'orthorhombic'
loop_
_space_group_symop_operation_xyz
x,y,z
-x,1/2-y,1/2+z
x,-y,-z
-x,1/2+y,1/2-z
-x,-y,-z
x,1/2+y,1/2-z
-x,y,z
x,1/2-y,1/2+z
1/2+x,1/2+y,z
1/2-x,-y,1/2+z
1/2+x,1/2-y,-z
1/2-x,y,1/2-z
1/2-x,1/2-y,-z
1/2+x,y,1/2-z
1/2-x,1/2+y,z
1/2+x,-y,1/2+z
loop_
_atom_site_type_symbol
_atom_site_label
_atom_site_fract_x
_atom_site_fract_y
_atom_site_fract_z
Si Si1 0.500000 0.025507 0.749565
Si Si2 0.662325 0.917553 0.996514
Si Si3 0.750195 0.549097 0.824869
Si Si4 0.164450 0.301181 0.349689
Si Si5 0.664607 0.936720 0.888668
Si Si6 0.834101 0.701127 0.537156
Si Si7 0.836626 0.660560 0.203008
O O1 0.380804 0.028772 0.707059
O O2 0.381062 0.028753 0.792458
O O3 0.500000 0.899344 0.005825
O O4 0.699080 0.902534 0.940063
O O5 0.766364 0.873978 0.029199
O O6 0.673271 0.000000 0.000000
O O7 0.745407 0.630400 0.835241
O O8 0.758864 0.506993 0.875292
O O9 0.187532 0.280093 0.405911
O O10 0.194944 0.238360 0.313429
O O11 0.000000 0.316264 0.345106
O O12 0.500000 0.950447 0.891536
O O13 0.692072 0.886395 0.843611
O O14 0.750000 0.750000 0.500000
O O15 0.000000 0.702776 0.527963
O O16 0.750000 0.640056 0.250000
O O17 0.000000 0.654003 0.214212
#
# Coordination Sequence:
#
# PCOD9480170 Si02
#       7
#     8  16  16  16  16  16  16
#     4  10  24  34  60  86 124 160 200 250 294 356
#     4  10  21  40  66  94 124 160 204 258 313 369
#     4  11  21  39  60  89 120 158 207 244 301 350
#     4  10  22  41  63  87 117 157 198 246 305 362
#     4  10  21  39  61  87 121 162 198 239 301 366
#     4  11  23  42  66  91 122 162 205 256 316 375
#     4  10  23  39  58  81 117 156 195 237 290 349
#
# _framework density 20.199193000000001
#
# number of rings (size 3 to 8) (size 9 to 14) (size 15 to 20)
#    0.000    1.692    1.538    2.308    4.308    2.769 
#    4.154    1.538    0.000    0.000    0.000    0.000 
#    0.000    0.000    0.000    0.000    0.000    0.000 
#
# Total GULP energy -289501.174799 kJ/mol
# GULP energy per Si atom -5567.330285 kJ/mol
# Density = 2.015322 g / cm^3
# Si number density = 20.199193 Si / 1000 Ang^3
#
#
#
# Elastic Constant Matrix: (Units=GPa)
#
#
# Indices 1 2 3 4 5 6 
#
# 1 100.7237 10.6395 29.2692 0.0000 0.0000 0.0000
# 2 10.6395 50.6080 -4.8701 0.0000 0.0000 0.0000
# 3 29.2692 -4.8701 78.2489 0.0000 0.0000 0.0000
# 4 0.0000 0.0000 0.0000 -4.0829 0.0000 0.0000
# 5 0.0000 0.0000 0.0000 0.0000 22.7921 0.0000
# 6 0.0000 0.0000 0.0000 0.0000 0.0000 2.1810
#
#
#
# Elastic Compliance Matrix: (Units=1/GPa)
#
#
# Indices 1 2 3 4 5 6 
#
# 1 0.011536 -0.002857 -0.004493 0.000000 0.000000 0.000000
# 2 -0.002857 0.020587 0.002350 0.000000 0.000000 0.000000
# 3 -0.004493 0.002350 0.014607 0.000000 0.000000 0.000000
# 4 0.000000 0.000000 0.000000 -0.244926 0.000000 0.000000
# 5 0.000000 0.000000 0.000000 0.000000 0.043875 0.000000
# 6 0.000000 0.000000 0.000000 0.000000 0.000000 0.458500
#
#
# Mechanical properties :
#
#
# Convention : Reuss Voigt Hill
#
# Bulk Modulus (GPa) = 27.22684 33.29532 30.26108
# Shear Modulus (GPa) = 15.31769 17.14752 16.23260
#
# Velocity S-wave (km/s) = 2.75677 2.91679 2.83791
# Velocity P-wave (km/s) = 4.86225 5.27852 5.07466
#
# Compressibility (1/GPa) = 0.03672846
#
# Stress axis : x y z
#
# Youngs Moduli (GPa) = 86.68870 48.57523 68.46255
#
# Poissons Ratio (x) = 0.13880 0.30758
# Poissons Ratio (y) = 0.24771 -0.16090
# Poissons Ratio (z) = 0.38947 -0.11416
#
# Static dielectric constant tensor:
#      x y z
#    x 1.670460 0.000000 0.000000 
#    y 0.000000 1.779730 0.000000 
#    z 0.000000 0.000000 1.705060 
# 
# From -- ./inp_files/48256.got.cif
#   From: 2010.05.17/outbox.cif.g08.bks.cpg/sg64_25_cif.got.tgz:48256.got - 2010.06.03 16:29:19.
