data_PCOD9480096
_publ_section_title
;
Structure prediction by ZEFSAII (Michael W. Deem and Ramdas Pophale) SiO2 
 PCOD9480096
Probable space group: C M C A
;
_chemical_formula_sum "Si O2"
_cell_formula_units_Z 96
_cell_length_a 25.730770
_cell_length_b 20.169623
_cell_length_c 9.088497
_cell_angle_alpha 90.000000
_cell_angle_beta 90.000000
_cell_angle_gamma 90.000000
_cell_volume 4716.747540
_symmetry_space_group_name_H-M "C M C A"
_symmetry_group_IT_number 64
_symmetry_cell_setting 'orthorhombic'
loop_
_space_group_symop_operation_xyz
x,y,z
-x,1/2-y,1/2+z
x,-y,-z
-x,1/2+y,1/2-z
-x,-y,-z
x,1/2+y,1/2-z
-x,y,z
x,1/2-y,1/2+z
1/2+x,1/2+y,z
1/2-x,-y,1/2+z
1/2+x,1/2-y,-z
1/2-x,y,1/2-z
1/2-x,1/2-y,-z
1/2+x,y,1/2-z
1/2-x,1/2+y,z
1/2+x,-y,1/2+z
loop_
_atom_site_type_symbol
_atom_site_label
_atom_site_fract_x
_atom_site_fract_y
_atom_site_fract_z
Si Si1 0.440958 0.999618 0.680223
Si Si2 0.438491 0.853057 0.346842
Si Si3 0.757721 0.929211 0.927385
Si Si4 0.856513 0.747942 0.200869
Si Si5 0.705569 0.299634 0.444808
Si Si6 0.371292 0.386117 0.872859
O O1 0.500000 0.982206 0.724618
O O2 0.398081 0.945350 0.719094
O O3 0.440711 0.000000 0.500000
O O4 0.429402 0.074921 0.728512
O O5 0.500000 0.843283 0.354512
O O6 0.408096 0.791158 0.280201
O O7 0.413099 0.862682 0.507156
O O8 0.750000 0.929564 0.750000
O O9 0.722915 0.871975 0.002005
O O10 0.818776 0.911971 0.949629
O O11 0.746442 0.000000 0.000000
O O12 0.844109 0.729182 0.033348
O O13 0.810317 0.790968 0.275471
O O14 0.857015 0.676955 0.277445
O O15 0.750000 0.250000 0.500000
#
# Coordination Sequence:
#
# PCOD9480096 Si02
#       6
#    16  16  16  16  16  16
#     4   8  16  32  56  85 117 152 198 253 303 360
#     4  10  21  38  62  97 125 158 210 261 319 385
#     4  12  25  41  62  96 132 169 221 269 317 388
#     4  12  23  40  65  90 126 167 208 264 317 386
#     4  12  23  43  63  88 127 169 213 261 322 377
#     4  11  20  37  64  88 127 160 213 260 314 370
#
# _framework density 20.353007999999999
#
# number of rings (size 3 to 8) (size 9 to 14) (size 15 to 20)
#    0.000    1.167    5.000    3.500    0.000    5.333 
#    0.000    0.000    0.000    0.000    0.000    2.333 
#    0.000    0.000    0.000    0.000    0.000    0.000 
#
# Total GULP energy -267904.861266 kJ/mol
# GULP energy per Si atom -5581.351276 kJ/mol
# Density = 2.030668 g / cm^3
# Si number density = 20.353008 Si / 1000 Ang^3
#
#
#
# Elastic Constant Matrix: (Units=GPa)
#
#
# Indices 1 2 3 4 5 6 
#
# 1 94.1940 52.4647 0.0430 0.0000 0.0000 0.0000
# 2 52.4647 146.5433 15.2724 0.0000 0.0000 0.0000
# 3 0.0430 15.2724 34.4726 0.0000 0.0000 0.0000
# 4 0.0000 0.0000 0.0000 13.7967 0.0000 0.0000
# 5 0.0000 0.0000 0.0000 0.0000 14.5159 0.0000
# 6 0.0000 0.0000 0.0000 0.0000 0.0000 42.0612
#
#
#
# Elastic Compliance Matrix: (Units=1/GPa)
#
#
# Indices 1 2 3 4 5 6 
#
# 1 0.013420 -0.005035 0.002214 0.000000 0.000000 0.000000
# 2 -0.005035 0.009044 -0.004000 0.000000 0.000000 0.000000
# 3 0.002214 -0.004000 0.030778 0.000000 0.000000 0.000000
# 4 0.000000 0.000000 0.000000 0.072481 0.000000 0.000000
# 5 0.000000 0.000000 0.000000 0.000000 0.068890 0.000000
# 6 0.000000 0.000000 0.000000 0.000000 0.000000 0.023775
#
#
# Mechanical properties :
#
#
# Convention : Reuss Voigt Hill
#
# Bulk Modulus (GPa) = 25.25349 45.64112 35.44730
# Shear Modulus (GPa) = 20.38902 27.90342 24.14622
#
# Velocity S-wave (km/s) = 3.16851 3.70668 3.44811
# Velocity P-wave (km/s) = 5.08140 6.38692 5.77119
#
# Compressibility (1/GPa) = 0.03959849
#
# Stress axis : x y z
#
# Youngs Moduli (GPa) = 74.51588 110.57627 32.49068
#
# Poissons Ratio (x) = 0.55678 -0.07194
# Poissons Ratio (y) = 0.37521 0.12997
# Poissons Ratio (z) = -0.16498 0.44234
#
# Static dielectric constant tensor:
#      x y z
#    x 1.724900 0.000000 0.000000 
#    y 0.000000 1.743290 0.000000 
#    z 0.000000 0.000000 1.760470 
# 
# From -- ./inp_files/10384.got.cif
#   From: 2010.05.17/outbox.cif.g08.bks.cpg/sg64_6_cif.got.tgz:10384.got - 2010.06.03 16:29:19.
