data_PCOD9480241
_publ_section_title
;
Structure prediction by ZEFSAII (Michael W. Deem and Ramdas Pophale) SiO2 
 PCOD9480241
Probable space group: C M C A
;
_chemical_formula_sum "Si O2"
_cell_formula_units_Z 56
_cell_length_a 22.520581
_cell_length_b 24.299994
_cell_length_c 4.934573
_cell_angle_alpha 90.000000
_cell_angle_beta 90.000000
_cell_angle_gamma 90.000000
_cell_volume 2700.444991
_symmetry_space_group_name_H-M "C M C A"
_symmetry_group_IT_number 64
_symmetry_cell_setting 'orthorhombic'
loop_
_space_group_symop_operation_xyz
x,y,z
-x,1/2-y,1/2+z
x,-y,-z
-x,1/2+y,1/2-z
-x,-y,-z
x,1/2+y,1/2-z
-x,y,z
x,1/2-y,1/2+z
1/2+x,1/2+y,z
1/2-x,-y,1/2+z
1/2+x,1/2-y,-z
1/2-x,y,1/2-z
1/2-x,1/2-y,-z
1/2+x,y,1/2-z
1/2-x,1/2+y,z
1/2+x,-y,1/2+z
loop_
_atom_site_type_symbol
_atom_site_label
_atom_site_fract_x
_atom_site_fract_y
_atom_site_fract_z
Si Si1 0.429909 0.785903 0.096716
Si Si2 0.186750 0.438443 0.380276
Si Si3 0.880436 0.602649 0.123371
Si Si4 0.500000 0.959001 0.749223
O O1 0.500000 0.800181 0.070375
O O2 0.419204 0.733582 0.902018
O O3 0.392013 0.837041 0.995767
O O4 0.189342 0.500000 0.500000
O O5 0.250000 0.423937 0.250000
O O6 0.166455 0.401061 0.632095
O O7 0.140830 0.433686 0.132197
O O8 0.941641 0.578553 0.240806
O O9 0.500000 0.000000 0.500000
O O10 0.500000 0.000000 0.000000
#
# Coordination Sequence:
#
# PCOD9480241 Si02
#       4
#    16  16  16   8
#     4  10  21  39  64  92 125 162 208 256 311 382
#     4  12  25  42  65  89 125 171 220 253 297 372
#     4  12  23  41  64  93 127 163 207 262 316 373
#     4  12  24  36  56  92 130 158 188 248 325 378
#
# _framework density 20.737321000000001
#
# number of rings (size 3 to 8) (size 9 to 14) (size 15 to 20)
#    0.000    0.571    1.429    9.429    0.000    0.000 
#    0.000    0.000    0.000   17.143    0.000    0.000 
#    0.000    0.000    0.000    0.000    0.000    0.000 
#
# Total GULP energy -156766.657935 kJ/mol
# GULP energy per Si atom -5598.809212 kJ/mol
# Density = 2.069012 g / cm^3
# Si number density = 20.737321 Si / 1000 Ang^3
#
#
#
# Elastic Constant Matrix: (Units=GPa)
#
#
# Indices 1 2 3 4 5 6 
#
# 1 71.8322 13.1059 18.6901 0.0000 0.0000 0.0000
# 2 13.1059 34.5948 -10.0609 0.0000 0.0000 0.0000
# 3 18.6901 -10.0609 107.8302 0.0000 0.0000 0.0000
# 4 0.0000 0.0000 0.0000 24.3908 0.0000 0.0000
# 5 0.0000 0.0000 0.0000 0.0000 30.4197 0.0000
# 6 0.0000 0.0000 0.0000 0.0000 0.0000 5.1910
#
#
#
# Elastic Compliance Matrix: (Units=1/GPa)
#
#
# Indices 1 2 3 4 5 6 
#
# 1 0.016118 -0.007112 -0.003457 0.000000 0.000000 0.000000
# 2 -0.007112 0.032850 0.004298 0.000000 0.000000 0.000000
# 3 -0.003457 0.004298 0.010274 0.000000 0.000000 0.000000
# 4 0.000000 0.000000 0.000000 0.040999 0.000000 0.000000
# 5 0.000000 0.000000 0.000000 0.000000 0.032873 0.000000
# 6 0.000000 0.000000 0.000000 0.000000 0.000000 0.192640
#
#
# Mechanical properties :
#
#
# Convention : Reuss Voigt Hill
#
# Bulk Modulus (GPa) = 21.41336 28.63637 25.02487
# Shear Modulus (GPa) = 14.12971 24.83512 19.48242
#
# Velocity S-wave (km/s) = 2.61313 3.46440 3.06843
# Velocity P-wave (km/s) = 4.41056 5.46277 4.96462
#
# Compressibility (1/GPa) = 0.04669982
#
# Stress axis : x y z
#
# Youngs Moduli (GPa) = 62.04069 30.44129 97.33227
#
# Poissons Ratio (x) = 0.21649 0.33651
# Poissons Ratio (y) = 0.44122 -0.41830
# Poissons Ratio (z) = 0.21450 -0.13083
#
# Static dielectric constant tensor:
#      x y z
#    x 1.754720 0.000000 0.000000 
#    y 0.000000 1.717660 0.000000 
#    z 0.000000 0.000000 1.718470 
# 
# From -- ./inp_files/1655.got.cif
#   From: 2010.05.17/outbox.cif.g08.bks.cpg/sg64_1_cif.got.tgz:1655.got - 2010.06.03 16:29:19.
