data_PCOD9480704
_publ_section_title
;
Structure prediction by ZEFSAII (Michael W. Deem and Ramdas Pophale) SiO2 
 PCOD9480704
Probable space group: C M C A
;
_chemical_formula_sum "Si O2"
_cell_formula_units_Z 72
_cell_length_a 9.689115
_cell_length_b 24.067142
_cell_length_c 14.662041
_cell_angle_alpha 90.000000
_cell_angle_beta 90.000000
_cell_angle_gamma 90.000000
_cell_volume 3419.031174
_symmetry_space_group_name_H-M "C M C A"
_symmetry_group_IT_number 64
_symmetry_cell_setting 'orthorhombic'
loop_
_space_group_symop_operation_xyz
x,y,z
-x,1/2-y,1/2+z
x,-y,-z
-x,1/2+y,1/2-z
-x,-y,-z
x,1/2+y,1/2-z
-x,y,z
x,1/2-y,1/2+z
1/2+x,1/2+y,z
1/2-x,-y,1/2+z
1/2+x,1/2-y,-z
1/2-x,y,1/2-z
1/2-x,1/2-y,-z
1/2+x,y,1/2-z
1/2-x,1/2+y,z
1/2+x,-y,1/2+z
loop_
_atom_site_type_symbol
_atom_site_label
_atom_site_fract_x
_atom_site_fract_y
_atom_site_fract_z
Si Si1 0.000000 0.185632 0.359190
Si Si2 0.500000 0.920465 0.303282
Si Si3 0.730514 0.862967 0.544122
Si Si4 0.000000 0.689288 0.580385
Si Si5 0.262847 0.466153 0.077187
Si Si6 0.500000 0.995891 0.833535
Si Si7 0.500000 0.105822 0.310481
O O1 0.862285 0.164072 0.409146
O O2 0.000000 0.251883 0.370194
O O3 0.000000 0.158518 0.258428
O O4 0.500000 0.858814 0.342281
O O5 0.635869 0.950002 0.342510
O O6 0.500000 0.939527 0.200019
O O7 0.631844 0.821725 0.485483
O O8 0.778998 0.909178 0.471752
O O9 0.632377 0.889619 0.622835
O O10 0.138769 0.505546 0.108508
O O11 0.343495 0.500000 0.000000
O O12 0.500000 0.948870 0.754846
#
# Coordination Sequence:
#
# PCOD9480704 Si02
#       7
#     8   8  16   8  16   8   8
#     4  12  21  38  65  93 116 155 214 267 305 366
#     4  10  22  39  58  84 119 157 193 242 309 368
#     4  10  22  41  62  89 124 166 206 253 317 384
#     4   9  22  42  62  86 125 162 200 250 319 382
#     4  11  21  37  59  85 117 158 198 242 304 375
#     4  12  23  38  60  91 123 155 202 261 305 361
#     4  11  24  41  61  92 131 165 207 268 323 365
#
# _framework density 21.058596999999999
#
# number of rings (size 3 to 8) (size 9 to 14) (size 15 to 20)
#    0.000    1.333    0.000    6.667    0.000    1.778 
#    0.000   13.333    0.000    0.000    0.000    0.000 
#    0.000    0.000    0.000    0.000    0.000    0.000 
#
# Total GULP energy -201079.964873 kJ/mol
# GULP energy per Si atom -5585.554580 kJ/mol
# Density = 2.101067 g / cm^3
# Si number density = 21.058597 Si / 1000 Ang^3
#
#
#
# Elastic Constant Matrix: (Units=GPa)
#
#
# Indices 1 2 3 4 5 6 
#
# 1 124.7584 51.0263 33.2291 0.0000 0.0000 0.0000
# 2 51.0263 95.9016 44.2649 0.0000 0.0000 0.0000
# 3 33.2291 44.2649 86.6666 0.0000 0.0000 0.0000
# 4 0.0000 0.0000 0.0000 38.1364 0.0000 0.0000
# 5 0.0000 0.0000 0.0000 0.0000 14.8983 0.0000
# 6 0.0000 0.0000 0.0000 0.0000 0.0000 25.4386
#
#
#
# Elastic Compliance Matrix: (Units=1/GPa)
#
#
# Indices 1 2 3 4 5 6 
#
# 1 0.010396 -0.004830 -0.001519 0.000000 0.000000 0.000000
# 2 -0.004830 0.015888 -0.006263 0.000000 0.000000 0.000000
# 3 -0.001519 -0.006263 0.015320 0.000000 0.000000 0.000000
# 4 0.000000 0.000000 0.000000 0.026222 0.000000 0.000000
# 5 0.000000 0.000000 0.000000 0.000000 0.067122 0.000000
# 6 0.000000 0.000000 0.000000 0.000000 0.000000 0.039310
#
#
# Mechanical properties :
#
#
# Convention : Reuss Voigt Hill
#
# Bulk Modulus (GPa) = 61.05177 62.70746 61.87962
# Shear Modulus (GPa) = 24.39737 27.61509 26.00623
#
# Velocity S-wave (km/s) = 3.40744 3.62518 3.51799
# Velocity P-wave (km/s) = 6.67347 6.88221 6.77864
#
# Compressibility (1/GPa) = 0.01637954
#
# Stress axis : x y z
#
# Youngs Moduli (GPa) = 96.19507 62.94042 65.27603
#
# Poissons Ratio (x) = 0.30401 0.09914
# Poissons Ratio (y) = 0.46463 0.40882
# Poissons Ratio (z) = 0.14610 0.39419
#
# Static dielectric constant tensor:
#      x y z
#    x 1.770010 0.000000 0.000000 
#    y 0.000000 1.766650 0.000000 
#    z 0.000000 0.000000 1.756660 
# 
# From -- ./inp_files/21207.got.cif
#   From: 2010.05.17/outbox.cif.g08.bks.cpg/sg64_11_cif.got.tgz:21207.got - 2010.06.03 16:29:19.
