data_PCOD9480520
_publ_section_title
;
Structure prediction by ZEFSAII (Michael W. Deem and Ramdas Pophale) SiO2 
 PCOD9480520
Probable space group: C M C A
;
_chemical_formula_sum "Si O2"
_cell_formula_units_Z 104
_cell_length_a 21.302348
_cell_length_b 24.767646
_cell_length_c 8.783707
_cell_angle_alpha 90.000000
_cell_angle_beta 90.000000
_cell_angle_gamma 90.000000
_cell_volume 4634.362992
_symmetry_space_group_name_H-M "C M C A"
_symmetry_group_IT_number 64
_symmetry_cell_setting 'orthorhombic'
loop_
_space_group_symop_operation_xyz
x,y,z
-x,1/2-y,1/2+z
x,-y,-z
-x,1/2+y,1/2-z
-x,-y,-z
x,1/2+y,1/2-z
-x,y,z
x,1/2-y,1/2+z
1/2+x,1/2+y,z
1/2-x,-y,1/2+z
1/2+x,1/2-y,-z
1/2-x,y,1/2-z
1/2-x,1/2-y,-z
1/2+x,y,1/2-z
1/2-x,1/2+y,z
1/2+x,-y,1/2+z
loop_
_atom_site_type_symbol
_atom_site_label
_atom_site_fract_x
_atom_site_fract_y
_atom_site_fract_z
Si Si1 0.871365 0.281992 0.774837
Si Si2 0.000000 0.251594 0.126108
Si Si3 0.299446 0.291025 0.430299
Si Si4 0.387209 0.556432 0.435765
Si Si5 0.000000 0.635864 0.054225
Si Si6 0.130981 0.898823 0.888443
Si Si7 0.000000 0.364173 0.569073
Si Si8 0.255191 0.912894 0.078843
O O1 0.938356 0.258450 0.728258
O O2 0.824263 0.235583 0.722107
O O3 0.858292 0.338182 0.683594
O O4 0.857312 0.293177 0.950092
O O5 0.000000 0.198044 0.018470
O O6 0.000000 0.307431 0.034299
O O7 0.250000 0.250000 0.500000
O O8 0.270208 0.349250 0.413438
O O9 0.411159 0.500000 0.500000
O O10 0.437265 0.602179 0.483822
O O11 0.380912 0.561758 0.253718
O O12 0.316853 0.564005 0.498360
O O13 0.000000 0.638109 0.242080
O O14 0.064836 0.892448 0.976321
O O15 0.190461 0.917383 0.985716
O O16 0.250000 0.934766 0.250000
#
# Coordination Sequence:
#
# PCOD9480520 Si02
#       8
#    16   8  16  16   8  16   8  16
#     4  11  23  37  60  91 134 184 220 266 337 405
#     4  10  22  35  61  93 135 174 217 270 330 418
#     4  12  23  37  58  89 134 181 223 261 328 417
#     4  11  24  44  73  99 128 180 238 298 359 404
#     4  10  21  44  68  99 141 173 231 289 339 431
#     4  10  21  43  67  94 141 179 229 284 347 413
#     4   8  20  39  65  98 135 190 220 262 346 420
#     4  12  25  41  64 100 139 180 236 290 345 417
#
# _framework density 22.441054999999999
#
# number of rings (size 3 to 8) (size 9 to 14) (size 15 to 20)
#    0.000    1.231    3.077    3.000    4.308    1.231 
#    0.000    0.769    0.000    0.000    0.000    4.846 
#    0.000    0.000    0.000    0.000    0.000    0.000 
#
# Total GULP energy -290842.495537 kJ/mol
# GULP energy per Si atom -5593.124914 kJ/mol
# Density = 2.238998 g / cm^3
# Si number density = 22.441055 Si / 1000 Ang^3
#
#
#
# Elastic Constant Matrix: (Units=GPa)
#
#
# Indices 1 2 3 4 5 6 
#
# 1 166.8542 32.1108 49.2265 0.0000 0.0000 0.0000
# 2 32.1108 80.9476 18.3111 0.0000 0.0000 0.0000
# 3 49.2265 18.3111 80.8341 0.0000 0.0000 0.0000
# 4 0.0000 0.0000 0.0000 17.3243 0.0000 0.0000
# 5 0.0000 0.0000 0.0000 0.0000 24.2555 0.0000
# 6 0.0000 0.0000 0.0000 0.0000 0.0000 15.9334
#
#
#
# Elastic Compliance Matrix: (Units=1/GPa)
#
#
# Indices 1 2 3 4 5 6 
#
# 1 0.007625 -0.002081 -0.004172 0.000000 0.000000 0.000000
# 2 -0.002081 0.013589 -0.001811 0.000000 0.000000 0.000000
# 3 -0.004172 -0.001811 0.015322 0.000000 0.000000 0.000000
# 4 0.000000 0.000000 0.000000 0.057722 0.000000 0.000000
# 5 0.000000 0.000000 0.000000 0.000000 0.041228 0.000000
# 6 0.000000 0.000000 0.000000 0.000000 0.000000 0.062761
#
#
# Mechanical properties :
#
#
# Convention : Reuss Voigt Hill
#
# Bulk Modulus (GPa) = 49.00103 58.65919 53.83011
# Shear Modulus (GPa) = 22.60640 26.76848 24.68744
#
# Velocity S-wave (km/s) = 3.17735 3.45749 3.32038
# Velocity P-wave (km/s) = 5.94505 6.49115 6.22409
#
# Compressibility (1/GPa) = 0.02040773
#
# Stress axis : x y z
#
# Youngs Moduli (GPa) = 131.15592 73.59012 65.26637
#
# Poissons Ratio (x) = 0.15313 0.27228
# Poissons Ratio (y) = 0.27291 0.11820
# Poissons Ratio (z) = 0.54716 0.13327
#
# Static dielectric constant tensor:
#      x y z
#    x 1.874420 0.000000 0.000000 
#    y 0.000000 1.739630 0.000000 
#    z 0.000000 0.000000 1.825370 
# 
# From -- ./inp_files/8586.got.cif
#   From: 2010.05.17/outbox.cif.g08.bks.cpg/sg64_5_cif.got.tgz:8586.got - 2010.06.03 16:29:19.
