data_PCOD9480804
_publ_section_title
;
Structure prediction by ZEFSAII (Michael W. Deem and Ramdas Pophale) SiO2 
 PCOD9480804
Probable space group: C M C A
;
_chemical_formula_sum "Si O2"
_cell_formula_units_Z 56
_cell_length_a 33.644244
_cell_length_b 5.002648
_cell_length_c 14.796410
_cell_angle_alpha 90.000000
_cell_angle_beta 90.000000
_cell_angle_gamma 90.000000
_cell_volume 2490.388353
_symmetry_space_group_name_H-M "C M C A"
_symmetry_group_IT_number 64
_symmetry_cell_setting 'orthorhombic'
loop_
_space_group_symop_operation_xyz
x,y,z
-x,1/2-y,1/2+z
x,-y,-z
-x,1/2+y,1/2-z
-x,-y,-z
x,1/2+y,1/2-z
-x,y,z
x,1/2-y,1/2+z
1/2+x,1/2+y,z
1/2-x,-y,1/2+z
1/2+x,1/2-y,-z
1/2-x,y,1/2-z
1/2-x,1/2-y,-z
1/2+x,y,1/2-z
1/2-x,1/2+y,z
1/2+x,-y,1/2+z
loop_
_atom_site_type_symbol
_atom_site_label
_atom_site_fract_x
_atom_site_fract_y
_atom_site_fract_z
Si Si1 0.000000 0.206229 0.310937
Si Si2 0.361577 0.478537 0.192234
Si Si3 0.223946 0.019877 0.108012
Si Si4 0.072755 0.244952 0.940243
O O1 0.039037 0.162823 0.370620
O O2 0.000000 0.505641 0.272954
O O3 0.368994 0.780928 0.223486
O O4 0.316163 0.455655 0.160329
O O5 0.390317 0.380726 0.113299
O O6 0.241047 0.311255 0.128914
O O7 0.216161 0.000000 0.000000
O O8 0.084454 0.500000 0.000000
O O9 0.056154 0.000000 0.000000
#
# Coordination Sequence:
#
# PCOD9480804 Si02
#       4
#     8  16  16  16
#     4  12  24  44  70 100 134 164 206 262 318 370
#     4  12  25  41  63  94 129 166 212 267 323 372
#     4  10  22  40  62  88 122 165 211 259 315 379
#     4  12  25  44  68  95 129 171 215 255 310 381
#
# _framework density 22.486452
#
# number of rings (size 3 to 8) (size 9 to 14) (size 15 to 20)
#    0.000    0.571    0.000    8.571    0.000    6.857 
#    0.000    0.000    0.000    0.000    0.000    0.000 
#    0.000    0.000    0.000    0.000    0.000    0.000 
#
# Total GULP energy -156983.871718 kJ/mol
# GULP energy per Si atom -5606.566847 kJ/mol
# Density = 2.243527 g / cm^3
# Si number density = 22.486452 Si / 1000 Ang^3
#
#
#
# Elastic Constant Matrix: (Units=GPa)
#
#
# Indices 1 2 3 4 5 6 
#
# 1 83.4090 -5.6344 31.4482 0.0000 0.0000 0.0000
# 2 -5.6344 75.0096 7.3108 0.0000 0.0000 0.0000
# 3 31.4482 7.3108 64.5682 0.0000 0.0000 0.0000
# 4 0.0000 0.0000 0.0000 46.3727 0.0000 0.0000
# 5 0.0000 0.0000 0.0000 0.0000 25.3731 0.0000
# 6 0.0000 0.0000 0.0000 0.0000 0.0000 54.7331
#
#
#
# Elastic Compliance Matrix: (Units=1/GPa)
#
#
# Indices 1 2 3 4 5 6 
#
# 1 0.014936 0.001851 -0.007484 0.000000 0.000000 0.000000
# 2 0.001851 0.013710 -0.002454 0.000000 0.000000 0.000000
# 3 -0.007484 -0.002454 0.019411 0.000000 0.000000 0.000000
# 4 0.000000 0.000000 0.000000 0.021564 0.000000 0.000000
# 5 0.000000 0.000000 0.000000 0.000000 0.039412 0.000000
# 6 0.000000 0.000000 0.000000 0.000000 0.000000 0.018270
#
#
# Mechanical properties :
#
#
# Convention : Reuss Voigt Hill
#
# Bulk Modulus (GPa) = 31.36503 32.13733 31.75118
# Shear Modulus (GPa) = 32.44551 37.95329 35.19940
#
# Velocity S-wave (km/s) = 3.80266 4.11278 3.96076
# Velocity P-wave (km/s) = 5.76706 6.07257 5.92179
#
# Compressibility (1/GPa) = 0.03188265
#
# Stress axis : x y z
#
# Youngs Moduli (GPa) = 66.95227 72.94012 51.51828
#
# Poissons Ratio (x) = -0.13504 0.38558
# Poissons Ratio (y) = -0.12395 0.12643
# Poissons Ratio (z) = 0.50109 0.17900
#
# Static dielectric constant tensor:
#      x y z
#    x 1.755440 0.000000 0.000000 
#    y 0.000000 1.775910 0.000000 
#    z 0.000000 0.000000 1.841400 
# 
# From -- ./inp_files/28218.got.cif
#   From: 2010.05.17/outbox.cif.g08.bks.cpg/sg64_15_cif.got.tgz:28218.got - 2010.06.03 16:29:19.
