data_PCOD9480398
_publ_section_title
;
Structure prediction by ZEFSAII (Michael W. Deem and Ramdas Pophale) SiO2 
 PCOD9480398
Probable space group: C M C A
;
_chemical_formula_sum "Si O2"
_cell_formula_units_Z 88
_cell_length_a 19.075982
_cell_length_b 22.336050
_cell_length_c 9.403391
_cell_angle_alpha 90.000000
_cell_angle_beta 90.000000
_cell_angle_gamma 90.000000
_cell_volume 4006.616469
_symmetry_space_group_name_H-M "C M C A"
_symmetry_group_IT_number 64
_symmetry_cell_setting 'orthorhombic'
loop_
_space_group_symop_operation_xyz
x,y,z
-x,1/2-y,1/2+z
x,-y,-z
-x,1/2+y,1/2-z
-x,-y,-z
x,1/2+y,1/2-z
-x,y,z
x,1/2-y,1/2+z
1/2+x,1/2+y,z
1/2-x,-y,1/2+z
1/2+x,1/2-y,-z
1/2-x,y,1/2-z
1/2-x,1/2-y,-z
1/2+x,y,1/2-z
1/2-x,1/2+y,z
1/2+x,-y,1/2+z
loop_
_atom_site_type_symbol
_atom_site_label
_atom_site_fract_x
_atom_site_fract_y
_atom_site_fract_z
Si Si1 0.417473 0.360766 0.381757
Si Si2 0.421419 0.650096 0.933382
Si Si3 0.918397 0.460111 0.635299
Si Si4 0.673661 0.241716 0.432536
Si Si5 0.669755 0.942791 0.915179
Si Si6 0.250000 0.653490 0.250000
O O1 0.500000 0.348335 0.407681
O O2 0.409962 0.381754 0.217814
O O3 0.369152 0.301652 0.398377
O O4 0.388591 0.410812 0.487518
O O5 0.500000 0.674572 0.928446
O O6 0.416633 0.605980 0.066699
O O7 0.369423 0.703942 0.953949
O O8 0.898019 0.500000 0.500000
O O9 0.867491 0.463176 0.769114
O O10 0.000000 0.474196 0.672566
O O11 0.750000 0.250000 0.500000
O O12 0.687892 0.197612 0.298901
O O13 0.725689 0.891401 0.874766
O O14 0.698675 0.000000 0.000000
#
# Coordination Sequence:
#
# PCOD9480398 Si02
#       6
#    16  16  16  16  16   8
#     4  11  25  44  72 110 142 183 240 296 362 431
#     4  10  22  41  67 100 136 176 229 289 352 421
#     4  10  21  40  69  99 134 178 225 285 354 418
#     4  12  23  45  71  97 142 188 232 294 361 422
#     4  12  26  47  70 102 144 193 237 297 353 423
#     4  12  26  48  66 106 142 188 248 294 352 428
#
# _framework density 21.963667999999998
#
# number of rings (size 3 to 8) (size 9 to 14) (size 15 to 20)
#    0.000    0.909    3.636    3.273    0.000    3.636 
#    3.273    0.000    0.000    0.000    0.000    0.000 
#    0.000    0.000    0.000    0.000    0.000    0.000 
#
# Total GULP energy -246016.277044 kJ/mol
# GULP energy per Si atom -5591.279024 kJ/mol
# Density = 2.191368 g / cm^3
# Si number density = 21.963668 Si / 1000 Ang^3
#
#
#
# Elastic Constant Matrix: (Units=GPa)
#
#
# Indices 1 2 3 4 5 6 
#
# 1 55.1896 25.1264 11.5327 0.0000 0.0000 0.0000
# 2 25.1264 88.0256 19.7372 0.0000 0.0000 0.0000
# 3 11.5327 19.7372 75.6169 0.0000 0.0000 0.0000
# 4 0.0000 0.0000 0.0000 48.8663 0.0000 0.0000
# 5 0.0000 0.0000 0.0000 0.0000 34.8078 0.0000
# 6 0.0000 0.0000 0.0000 0.0000 0.0000 28.2183
#
#
#
# Elastic Compliance Matrix: (Units=1/GPa)
#
#
# Indices 1 2 3 4 5 6 
#
# 1 0.021040 -0.005615 -0.001743 0.000000 0.000000 0.000000
# 2 -0.005615 0.013565 -0.002684 0.000000 0.000000 0.000000
# 3 -0.001743 -0.002684 0.014191 0.000000 0.000000 0.000000
# 4 0.000000 0.000000 0.000000 0.020464 0.000000 0.000000
# 5 0.000000 0.000000 0.000000 0.000000 0.028729 0.000000
# 6 0.000000 0.000000 0.000000 0.000000 0.000000 0.035438
#
#
# Mechanical properties :
#
#
# Convention : Reuss Voigt Hill
#
# Bulk Modulus (GPa) = 34.82988 36.84719 35.83853
# Shear Modulus (GPa) = 30.65933 33.20754 31.93344
#
# Velocity S-wave (km/s) = 3.74024 3.89257 3.81717
# Velocity P-wave (km/s) = 5.87749 6.08405 5.98166
#
# Compressibility (1/GPa) = 0.02871098
#
# Stress axis : x y z
#
# Youngs Moduli (GPa) = 47.52865 73.71949 70.46672
#
# Poissons Ratio (x) = 0.41392 0.12285
# Poissons Ratio (y) = 0.26687 0.18916
# Poissons Ratio (z) = 0.08286 0.19789
#
# Static dielectric constant tensor:
#      x y z
#    x 1.818380 0.000000 0.000000 
#    y 0.000000 1.813690 0.000000 
#    z 0.000000 0.000000 1.838440 
# 
# From -- ./inp_files/8198.got.cif
#   From: 2010.05.17/outbox.cif.g08.bks.cpg/sg64_5_cif.got.tgz:8198.got - 2010.06.03 16:29:19.
