data_PCOD9480695
_publ_section_title
;
Structure prediction by ZEFSAII (Michael W. Deem and Ramdas Pophale) SiO2 
 PCOD9480695
Probable space group: C M C A
;
_chemical_formula_sum "Si O2"
_cell_formula_units_Z 80
_cell_length_a 8.693617
_cell_length_b 18.622697
_cell_length_c 26.454776
_cell_angle_alpha 90.000000
_cell_angle_beta 90.000000
_cell_angle_gamma 90.000000
_cell_volume 4282.991071
_symmetry_space_group_name_H-M "C M C A"
_symmetry_group_IT_number 64
_symmetry_cell_setting 'orthorhombic'
loop_
_space_group_symop_operation_xyz
x,y,z
-x,1/2-y,1/2+z
x,-y,-z
-x,1/2+y,1/2-z
-x,-y,-z
x,1/2+y,1/2-z
-x,y,z
x,1/2-y,1/2+z
1/2+x,1/2+y,z
1/2-x,-y,1/2+z
1/2+x,1/2-y,-z
1/2-x,y,1/2-z
1/2-x,1/2-y,-z
1/2+x,y,1/2-z
1/2-x,1/2+y,z
1/2+x,-y,1/2+z
loop_
_atom_site_type_symbol
_atom_site_label
_atom_site_fract_x
_atom_site_fract_y
_atom_site_fract_z
Si Si1 0.684556 0.169893 0.498476
Si Si2 0.814591 0.666794 0.695784
Si Si3 0.814013 0.421953 0.402564
Si Si4 0.815193 0.418240 0.904077
Si Si5 0.314749 0.166704 0.195841
O O1 0.500000 0.172692 0.496150
O O2 0.750000 0.250000 0.500000
O O3 0.727857 0.126840 0.549349
O O4 0.748248 0.127458 0.450270
O O5 0.750000 0.643423 0.750000
O O6 0.765270 0.617575 0.649093
O O7 0.767411 0.750041 0.687602
O O8 0.000000 0.665471 0.697728
O O9 0.742449 0.500412 0.406918
O O10 0.000000 0.428322 0.402033
O O11 0.765628 0.382022 0.851091
O O12 0.000000 0.416041 0.906414
O O13 0.500000 0.165313 0.198154
O O14 0.250000 0.143217 0.250000
#
# Coordination Sequence:
#
# PCOD9480695 Si02
#       5
#    16  16  16  16  16
#     4  11  23  40  62  85 111 146 188 232 281 337
#     4   9  18  35  57  79 107 143 184 229 276 327
#     4  10  22  39  57  80 114 151 184 226 281 334
#     4  11  23  38  57  84 117 149 186 233 281 332
#     4   9  19  36  57  81 110 146 188 233 279 329
#
# _framework density 18.678535
#
# number of rings (size 3 to 8) (size 9 to 14) (size 15 to 20)
#    0.000    2.000    0.000    3.000    0.000   10.400 
#    0.000    8.000    0.000    0.000    0.000    0.000 
#    0.000    0.000    0.000    0.000    0.000    0.000 
#
# Total GULP energy -223479.252450 kJ/mol
# GULP energy per Si atom -5586.981311 kJ/mol
# Density = 1.863602 g / cm^3
# Si number density = 18.678535 Si / 1000 Ang^3
#
#
#
# Elastic Constant Matrix: (Units=GPa)
#
#
# Indices 1 2 3 4 5 6 
#
# 1 26.6520 46.7935 53.5099 0.0000 0.0000 0.0000
# 2 46.7935 169.9255 135.3723 0.0000 0.0000 0.0000
# 3 53.5099 135.3723 211.9524 0.0000 0.0000 0.0000
# 4 0.0000 0.0000 0.0000 -23.2034 0.0000 0.0000
# 5 0.0000 0.0000 0.0000 0.0000 34.4343 0.0000
# 6 0.0000 0.0000 0.0000 0.0000 0.0000 29.9248
#
#
#
# Elastic Compliance Matrix: (Units=1/GPa)
#
#
# Indices 1 2 3 4 5 6 
#
# 1 0.089004 -0.013455 -0.013877 0.000000 0.000000 0.000000
# 2 -0.013455 0.014015 -0.005555 0.000000 0.000000 0.000000
# 3 -0.013877 -0.005555 0.011769 0.000000 0.000000 0.000000
# 4 0.000000 0.000000 0.000000 -0.043097 0.000000 0.000000
# 5 0.000000 0.000000 0.000000 0.000000 0.029041 0.000000
# 6 0.000000 0.000000 0.000000 0.000000 0.000000 0.033417
#
#
# Mechanical properties :
#
#
# Convention : Reuss Voigt Hill
#
# Bulk Modulus (GPa) = 20.40137 97.76456 59.08296
# Shear Modulus (GPa) = 23.12038 19.75476 21.43757
#
# Velocity S-wave (km/s) = 3.52206 3.25563 3.39146
# Velocity P-wave (km/s) = 5.24271 8.16005 6.85829
#
# Compressibility (1/GPa) = 0.04901633
#
# Stress axis : x y z
#
# Youngs Moduli (GPa) = 11.23545 71.35176 84.96875
#
# Poissons Ratio (x) = 0.96001 1.17909
# Poissons Ratio (y) = 0.15117 0.47196
# Poissons Ratio (z) = 0.15591 0.39633
#
# Static dielectric constant tensor:
#      x y z
#    x 1.635480 0.000000 0.000000 
#    y 0.000000 1.613560 0.000000 
#    z 0.000000 0.000000 1.625360 
# 
# From -- ./inp_files/47787.got.cif
#   From: 2010.05.17/outbox.cif.g08.bks.cpg/sg64_24_cif.got.tgz:47787.got - 2010.06.03 16:29:19.
