data_PCOD9480161
_publ_section_title
;
Structure prediction by ZEFSAII (Michael W. Deem and Ramdas Pophale) SiO2 
 PCOD9480161
Probable space group: C M C A
;
_chemical_formula_sum "Si O2"
_cell_formula_units_Z 104
_cell_length_a 8.425318
_cell_length_b 29.937799
_cell_length_c 20.376348
_cell_angle_alpha 90.000000
_cell_angle_beta 90.000000
_cell_angle_gamma 90.000000
_cell_volume 5139.637853
_symmetry_space_group_name_H-M "C M C A"
_symmetry_group_IT_number 64
_symmetry_cell_setting 'orthorhombic'
loop_
_space_group_symop_operation_xyz
x,y,z
-x,1/2-y,1/2+z
x,-y,-z
-x,1/2+y,1/2-z
-x,-y,-z
x,1/2+y,1/2-z
-x,y,z
x,1/2-y,1/2+z
1/2+x,1/2+y,z
1/2-x,-y,1/2+z
1/2+x,1/2-y,-z
1/2-x,y,1/2-z
1/2-x,1/2-y,-z
1/2+x,y,1/2-z
1/2-x,1/2+y,z
1/2+x,-y,1/2+z
loop_
_atom_site_type_symbol
_atom_site_label
_atom_site_fract_x
_atom_site_fract_y
_atom_site_fract_z
Si Si1 0.750000 0.578912 0.250000
Si Si2 0.690513 0.325794 0.324609
Si Si3 0.184563 0.934804 0.538567
Si Si4 0.177536 0.861144 0.872527
Si Si5 0.315343 0.510642 0.150974
Si Si6 0.688606 0.730659 0.325002
Si Si7 0.191060 0.080533 0.612703
O O1 0.826646 0.613681 0.301575
O O2 0.799873 0.541601 0.195569
O O3 0.500000 0.321967 0.324402
O O4 0.750000 0.330824 0.250000
O O5 0.761374 0.279350 0.350916
O O6 0.736673 0.370145 0.363885
O O7 0.210161 0.889399 0.579837
O O8 0.286112 0.971489 0.577427
O O9 0.230626 0.926792 0.463614
O O10 0.000000 0.948268 0.540337
O O11 0.235028 0.810992 0.862216
O O12 0.000000 0.862741 0.899541
O O13 0.500000 0.518978 0.169268
O O14 0.272489 0.458938 0.153719
O O15 0.500000 0.726201 0.324958
O O16 0.750000 0.728723 0.250000
O O17 0.000000 0.076280 0.619639
#
# Coordination Sequence:
#
# PCOD9480161 Si02
#       7
#     8  16  16  16  16  16  16
#     4  10  22  36  54  84 120 148 184 234 292 342
#     4  10  21  39  60  86 117 150 194 242 290 344
#     4  10  21  39  60  84 116 156 198 239 290 350
#     4  11  22  37  60  89 120 152 191 239 292 345
#     4  11  24  38  58  86 118 154 197 244 291 345
#     4  11  21  35  59  88 119 154 190 234 290 349
#     4  10  23  41  61  83 115 157 197 242 292 343
#
# _framework density 20.234888999999999
#
# number of rings (size 3 to 8) (size 9 to 14) (size 15 to 20)
#    0.000    1.538    0.769    6.000    1.077   11.077 
#    0.000    0.769    0.000    0.000    0.000    0.000 
#    0.000    0.000    0.000    0.000    0.000    0.000 
#
# Total GULP energy -290063.678250 kJ/mol
# GULP energy per Si atom -5578.147659 kJ/mol
# Density = 2.018883 g / cm^3
# Si number density = 20.234889 Si / 1000 Ang^3
#
#
#
# Elastic Constant Matrix: (Units=GPa)
#
#
# Indices 1 2 3 4 5 6 
#
# 1 56.5369 19.9277 11.1891 0.0000 0.0000 0.0000
# 2 19.9277 162.3779 29.9144 0.0000 0.0000 0.0000
# 3 11.1891 29.9144 51.5490 0.0000 0.0000 0.0000
# 4 0.0000 0.0000 0.0000 41.6176 0.0000 0.0000
# 5 0.0000 0.0000 0.0000 0.0000 14.9070 0.0000
# 6 0.0000 0.0000 0.0000 0.0000 0.0000 19.5448
#
#
#
# Elastic Compliance Matrix: (Units=1/GPa)
#
#
# Indices 1 2 3 4 5 6 
#
# 1 0.018917 -0.001752 -0.003089 0.000000 0.000000 0.000000
# 2 -0.001752 0.007058 -0.003715 0.000000 0.000000 0.000000
# 3 -0.003089 -0.003715 0.022226 0.000000 0.000000 0.000000
# 4 0.000000 0.000000 0.000000 0.024028 0.000000 0.000000
# 5 0.000000 0.000000 0.000000 0.000000 0.067083 0.000000
# 6 0.000000 0.000000 0.000000 0.000000 0.000000 0.051165
#
#
# Mechanical properties :
#
#
# Convention : Reuss Voigt Hill
#
# Bulk Modulus (GPa) = 32.16839 43.61400 37.89120
# Shear Modulus (GPa) = 22.94086 29.17604 26.05845
#
# Velocity S-wave (km/s) = 3.37074 3.80131 3.59248
# Velocity P-wave (km/s) = 5.57505 6.39275 5.99785
#
# Compressibility (1/GPa) = 0.03108642
#
# Stress axis : x y z
#
# Youngs Moduli (GPa) = 52.86364 141.68258 44.99305
#
# Poissons Ratio (x) = 0.24829 0.13898
# Poissons Ratio (y) = 0.09264 0.16717
# Poissons Ratio (z) = 0.16330 0.52642
#
# Static dielectric constant tensor:
#      x y z
#    x 1.732440 0.000000 0.000000 
#    y 0.000000 1.723810 0.000000 
#    z 0.000000 0.000000 1.720540 
# 
# From -- ./inp_files/37478.got.cif
#   From: 2010.05.17/outbox.cif.g08.bks.cpg/sg64_19_cif.got.tgz:37478.got - 2010.06.03 16:29:19.
