data_PCOD9480144
_publ_section_title
;
Structure prediction by ZEFSAII (Michael W. Deem and Ramdas Pophale) SiO2 
 PCOD9480144
Probable space group: C M C A
;
_chemical_formula_sum "Si O2"
_cell_formula_units_Z 72
_cell_length_a 13.487187
_cell_length_b 6.891889
_cell_length_c 29.366762
_cell_angle_alpha 90.000000
_cell_angle_beta 90.000000
_cell_angle_gamma 90.000000
_cell_volume 2729.705009
_symmetry_space_group_name_H-M "C M C A"
_symmetry_group_IT_number 64
_symmetry_cell_setting 'orthorhombic'
loop_
_space_group_symop_operation_xyz
x,y,z
-x,1/2-y,1/2+z
x,-y,-z
-x,1/2+y,1/2-z
-x,-y,-z
x,1/2+y,1/2-z
-x,y,z
x,1/2-y,1/2+z
1/2+x,1/2+y,z
1/2-x,-y,1/2+z
1/2+x,1/2-y,-z
1/2-x,y,1/2-z
1/2-x,1/2-y,-z
1/2+x,y,1/2-z
1/2-x,1/2+y,z
1/2+x,-y,1/2+z
loop_
_atom_site_type_symbol
_atom_site_label
_atom_site_fract_x
_atom_site_fract_y
_atom_site_fract_z
Si Si1 0.000000 0.195552 0.722196
Si Si2 0.611068 0.280563 0.040651
Si Si3 0.170271 0.669539 0.711002
Si Si4 0.335160 0.152795 0.940399
Si Si5 0.847898 0.801857 0.842179
O O1 0.914045 0.148862 0.684567
O O2 0.914514 0.265448 0.759151
O O3 0.500000 0.356841 0.050409
O O4 0.715291 0.373352 0.056644
O O5 0.618276 0.060916 0.059829
O O6 0.625972 0.256700 0.986033
O O7 0.250000 0.599109 0.750000
O O8 0.118395 0.503400 0.680547
O O9 0.235026 0.785843 0.674566
O O10 0.358942 0.269235 0.894983
#
# Coordination Sequence:
#
# PCOD9480144 Si02
#       5
#     8  16  16  16  16
#     4  10  22  36  58  83 118 159 200 254 322 368
#     4  10  22  42  66  93 140 174 208 266 338 379
#     4  10  21  39  57  85 120 159 200 259 319 365
#     4  10  21  40  65  97 128 171 217 269 313 393
#     4  11  22  38  64  89 121 161 215 260 307 389
#
# _framework density 26.376479
#
# number of rings (size 3 to 8) (size 9 to 14) (size 15 to 20)
#    0.000    1.778    0.000    5.333    3.111    1.778 
#    2.000   10.000    0.000    0.000    0.000    0.000 
#    0.000    0.000    0.000    0.000    0.000    0.000 
#
# Total GULP energy -200479.615469 kJ/mol
# GULP energy per Si atom -5568.878207 kJ/mol
# Density = 2.631645 g / cm^3
# Si number density = 26.376479 Si / 1000 Ang^3
#
#
#
# Elastic Constant Matrix: (Units=GPa)
#
#
# Indices 1 2 3 4 5 6 
#
# 1 210.2989 13.6822 19.0206 0.0000 0.0000 0.0000
# 2 13.6822 29.3334 8.9394 0.0000 0.0000 0.0000
# 3 19.0206 8.9394 111.0067 0.0000 0.0000 0.0000
# 4 0.0000 0.0000 0.0000 3.5335 0.0000 0.0000
# 5 0.0000 0.0000 0.0000 0.0000 -4.6966 0.0000
# 6 0.0000 0.0000 0.0000 0.0000 0.0000 -70.8749
#
#
#
# Elastic Compliance Matrix: (Units=1/GPa)
#
#
# Indices 1 2 3 4 5 6 
#
# 1 0.004953 -0.002103 -0.000679 0.000000 0.000000 0.000000
# 2 -0.002103 0.035842 -0.002526 0.000000 0.000000 0.000000
# 3 -0.000679 -0.002526 0.009328 0.000000 0.000000 0.000000
# 4 0.000000 0.000000 0.000000 0.283004 0.000000 0.000000
# 5 0.000000 0.000000 0.000000 0.000000 -0.212922 0.000000
# 6 0.000000 0.000000 0.000000 0.000000 0.000000 -0.014109
#
#
# Mechanical properties :
#
#
# Convention : Reuss Voigt Hill
#
# Bulk Modulus (GPa) = 25.31258 48.21370 36.76314
# Shear Modulus (GPa) = 38.49618 6.19218 22.34418
#
# Velocity S-wave (km/s) = 3.82447 1.53385 2.91370
# Velocity P-wave (km/s) = 5.39626 4.63203 5.02868
#
# Compressibility (1/GPa) = 0.03950605
#
# Stress axis : x y z
#
# Youngs Moduli (GPa) = 201.88017 27.90039 107.20078
#
# Poissons Ratio (x) = 0.05869 0.07283
# Poissons Ratio (y) = 0.42464 0.27078
# Poissons Ratio (z) = 0.13715 0.07047
#
# Static dielectric constant tensor:
#      x y z
#    x 2.038270 0.000000 0.000000 
#    y 0.000000 2.363760 0.000000 
#    z 0.000000 0.000000 2.193600 
# 
# From -- ./inp_files/49042.got.cif
#   From: 2010.05.17/outbox.cif.g08.bks.cpg/sg64_25_cif.got.tgz:49042.got - 2010.06.03 16:29:19.
