data_PCOD9480836
_publ_section_title
;
Structure prediction by ZEFSAII (Michael W. Deem and Ramdas Pophale) SiO2 
 PCOD9480836
Probable space group: C M C A
;
_chemical_formula_sum "Si O2"
_cell_formula_units_Z 96
_cell_length_a 20.113922
_cell_length_b 14.832047
_cell_length_c 14.192570
_cell_angle_alpha 90.000000
_cell_angle_beta 90.000000
_cell_angle_gamma 90.000000
_cell_volume 4234.078441
_symmetry_space_group_name_H-M "C M C A"
_symmetry_group_IT_number 64
_symmetry_cell_setting 'orthorhombic'
loop_
_space_group_symop_operation_xyz
x,y,z
-x,1/2-y,1/2+z
x,-y,-z
-x,1/2+y,1/2-z
-x,-y,-z
x,1/2+y,1/2-z
-x,y,z
x,1/2-y,1/2+z
1/2+x,1/2+y,z
1/2-x,-y,1/2+z
1/2+x,1/2-y,-z
1/2-x,y,1/2-z
1/2-x,1/2-y,-z
1/2+x,y,1/2-z
1/2-x,1/2+y,z
1/2+x,-y,1/2+z
loop_
_atom_site_type_symbol
_atom_site_label
_atom_site_fract_x
_atom_site_fract_y
_atom_site_fract_z
Si Si1 0.423350 0.356867 0.842828
Si Si2 0.751157 0.339683 0.139711
Si Si3 0.423092 0.093549 0.543451
Si Si4 0.786385 0.546042 0.346827
Si Si5 0.921625 0.241899 0.342406
Si Si6 0.312963 0.169107 0.039207
O O1 0.500000 0.388583 0.826678
O O2 0.362809 0.426387 0.830290
O O3 0.410732 0.279155 0.767423
O O4 0.419667 0.337934 0.954368
O O5 0.750000 0.312783 0.250000
O O6 0.597309 0.344912 0.130960
O O7 0.722711 0.440319 0.136666
O O8 0.817509 0.340869 0.073794
O O9 0.500000 0.070684 0.562284
O O10 0.393565 0.000000 0.500000
O O11 0.750000 0.570080 0.250000
O O12 0.744601 0.600459 0.425315
O O13 0.787511 0.265368 0.421105
O O14 0.881829 0.167286 0.403427
O O15 0.000000 0.234156 0.361838
#
# Coordination Sequence:
#
# PCOD9480836 Si02
#       6
#    16  16  16  16  16  16
#     4  10  22  40  67  99 134 177 225 284 349 412
#     4  10  25  41  64  98 128 171 229 284 340 419
#     4   9  20  37  61  96 135 176 229 291 348 410
#     4  11  22  42  66  96 134 174 223 279 345 410
#     4  10  22  40  64  96 136 183 231 283 350 421
#     4  11  23  41  66  97 133 181 223 280 351 411
#
# _framework density 22.673173999999999
#
# number of rings (size 3 to 8) (size 9 to 14) (size 15 to 20)
#    0.000    1.833    1.667    1.000    7.000    0.000 
#    0.000    0.000    0.000    6.000    0.000    0.000 
#    0.000    0.000    0.000    0.000    0.000    0.000 
#
# Total GULP energy -267405.310158 kJ/mol
# GULP energy per Si atom -5570.943962 kJ/mol
# Density = 2.262157 g / cm^3
# Si number density = 22.673174 Si / 1000 Ang^3
#
#
#
# Elastic Constant Matrix: (Units=GPa)
#
#
# Indices 1 2 3 4 5 6 
#
# 1 85.8721 30.1162 14.9341 0.0000 0.0000 0.0000
# 2 30.1162 106.4833 57.0034 0.0000 0.0000 0.0000
# 3 14.9341 57.0034 160.0035 0.0000 0.0000 0.0000
# 4 0.0000 0.0000 0.0000 49.4385 0.0000 0.0000
# 5 0.0000 0.0000 0.0000 0.0000 25.2723 0.0000
# 6 0.0000 0.0000 0.0000 0.0000 0.0000 21.9266
#
#
#
# Elastic Compliance Matrix: (Units=1/GPa)
#
#
# Indices 1 2 3 4 5 6 
#
# 1 0.012929 -0.003720 0.000119 0.000000 0.000000 0.000000
# 2 -0.003720 0.012675 -0.004168 0.000000 0.000000 0.000000
# 3 0.000119 -0.004168 0.007724 0.000000 0.000000 0.000000
# 4 0.000000 0.000000 0.000000 0.020227 0.000000 0.000000
# 5 0.000000 0.000000 0.000000 0.000000 0.039569 0.000000
# 6 0.000000 0.000000 0.000000 0.000000 0.000000 0.045607
#
#
# Mechanical properties :
#
#
# Convention : Reuss Voigt Hill
#
# Bulk Modulus (GPa) = 56.21769 61.82957 59.02363
# Shear Modulus (GPa) = 31.21101 36.01451 33.61276
#
# Velocity S-wave (km/s) = 3.71423 3.98982 3.85449
# Velocity P-wave (km/s) = 6.57591 6.96807 6.77483
#
# Compressibility (1/GPa) = 0.01778799
#
# Stress axis : x y z
#
# Youngs Moduli (GPa) = 77.34355 78.89711 129.46983
#
# Poissons Ratio (x) = 0.29352 -0.01536
# Poissons Ratio (y) = 0.28774 0.53967
# Poissons Ratio (z) = -0.00917 0.32887
#
# Static dielectric constant tensor:
#      x y z
#    x 2.000140 0.000000 0.000000 
#    y 0.000000 1.876050 0.000000 
#    z 0.000000 0.000000 1.935950 
# 
# From -- ./inp_files/33529.got.cif
#   From: 2010.05.17/outbox.cif.g08.bks.cpg/sg64_17_cif.got.tgz:33529.got - 2010.06.03 16:29:19.
