data_PCOD9480717
_publ_section_title
;
Structure prediction by ZEFSAII (Michael W. Deem and Ramdas Pophale) SiO2 
 PCOD9480717
Probable space group: C M C A
;
_chemical_formula_sum "Si O2"
_cell_formula_units_Z 64
_cell_length_a 16.873174
_cell_length_b 29.595360
_cell_length_c 5.296643
_cell_angle_alpha 90.000000
_cell_angle_beta 90.000000
_cell_angle_gamma 90.000000
_cell_volume 2644.972215
_symmetry_space_group_name_H-M "C M C A"
_symmetry_group_IT_number 64
_symmetry_cell_setting 'orthorhombic'
loop_
_space_group_symop_operation_xyz
x,y,z
-x,1/2-y,1/2+z
x,-y,-z
-x,1/2+y,1/2-z
-x,-y,-z
x,1/2+y,1/2-z
-x,y,z
x,1/2-y,1/2+z
1/2+x,1/2+y,z
1/2-x,-y,1/2+z
1/2+x,1/2-y,-z
1/2-x,y,1/2-z
1/2-x,1/2-y,-z
1/2+x,y,1/2-z
1/2-x,1/2+y,z
1/2+x,-y,1/2+z
loop_
_atom_site_type_symbol
_atom_site_label
_atom_site_fract_x
_atom_site_fract_y
_atom_site_fract_z
Si Si1 0.911148 0.856254 0.943768
Si Si2 0.904845 0.274407 0.218839
Si Si3 0.750000 0.930636 0.250000
Si Si4 0.750000 0.370237 0.750000
Si Si5 0.582978 0.543833 0.827228
O O1 0.836546 0.847224 0.762968
O O2 0.000000 0.843293 0.848335
O O3 0.894426 0.826124 0.192680
O O4 0.915766 0.909084 0.016231
O O5 0.873762 0.244977 0.456063
O O6 0.000000 0.268481 0.203021
O O7 0.747459 0.899789 0.497330
O O8 0.669403 0.958160 0.207756
O O9 0.500000 0.545806 0.673127
O O10 0.578892 0.500000 0.000000
#
# Coordination Sequence:
#
# PCOD9480717 Si02
#       5
#    16  16   8   8  16
#     4   9  19  37  59  84 119 156 192 244 297 345
#     4   9  18  33  55  82 110 146 192 237 288 348
#     4  10  22  39  60  85 120 158 196 245 292 343
#     4  10  22  39  60  89 116 152 202 239 290 361
#     4   9  19  37  62  92 123 159 202 244 294 355
#
# _framework density 24.196850999999999
#
# number of rings (size 3 to 8) (size 9 to 14) (size 15 to 20)
#    0.000    2.750    0.000    0.000    0.000    9.000 
#    0.000    8.750    0.000   14.250    0.000    0.000 
#    0.000    0.000    0.000    0.000    0.000    0.000 
#
# Total GULP energy -178393.263659 kJ/mol
# GULP energy per Si atom -5574.789489 kJ/mol
# Density = 2.414178 g / cm^3
# Si number density = 24.196851 Si / 1000 Ang^3
#
#
#
# Elastic Constant Matrix: (Units=GPa)
#
#
# Indices 1 2 3 4 5 6 
#
# 1 211.8654 5.4247 18.0654 0.0000 0.0000 0.0000
# 2 5.4247 151.3511 33.7850 0.0000 0.0000 0.0000
# 3 18.0654 33.7850 103.5293 0.0000 0.0000 0.0000
# 4 0.0000 0.0000 0.0000 38.2745 0.0000 0.0000
# 5 0.0000 0.0000 0.0000 0.0000 5.7470 0.0000
# 6 0.0000 0.0000 0.0000 0.0000 0.0000 -17.4715
#
#
#
# Elastic Compliance Matrix: (Units=1/GPa)
#
#
# Indices 1 2 3 4 5 6 
#
# 1 0.004791 0.000016 -0.000841 0.000000 0.000000 0.000000
# 2 0.000016 0.007126 -0.002328 0.000000 0.000000 0.000000
# 3 -0.000841 -0.002328 0.010566 0.000000 0.000000 0.000000
# 4 0.000000 0.000000 0.000000 0.026127 0.000000 0.000000
# 5 0.000000 0.000000 0.000000 0.000000 0.174003 0.000000
# 6 0.000000 0.000000 0.000000 0.000000 0.000000 -0.057236
#
#
# Mechanical properties :
#
#
# Convention : Reuss Voigt Hill
#
# Bulk Modulus (GPa) = 61.81934 64.58844 63.20389
# Shear Modulus (GPa) = 28.23638 32.60805 30.42221
#
# Velocity S-wave (km/s) = 3.41976 3.67497 3.54966
# Velocity P-wave (km/s) = 6.41849 6.69015 6.55573
#
# Compressibility (1/GPa) = 0.01617617
#
# Stress axis : x y z
#
# Youngs Moduli (GPa) = 208.71150 140.32485 94.64562
#
# Poissons Ratio (x) = -0.00225 0.07963
# Poissons Ratio (y) = -0.00335 0.22037
# Poissons Ratio (z) = 0.17559 0.32673
#
# Static dielectric constant tensor:
#      x y z
#    x 2.094760 0.000000 0.000000 
#    y 0.000000 1.980470 0.000000 
#    z 0.000000 0.000000 1.937350 
# 
# From -- ./inp_files/1360.got.cif
#   From: 2010.05.17/outbox.cif.g08.bks.cpg/sg64_1_cif.got.tgz:1360.got - 2010.06.03 16:29:19.
