data_PCOD9480744
_publ_section_title
;
Structure prediction by ZEFSAII (Michael W. Deem and Ramdas Pophale) SiO2 
 PCOD9480744
Probable space group: C M C A
;
_chemical_formula_sum "Si O2"
_cell_formula_units_Z 96
_cell_length_a 21.362168
_cell_length_b 12.940577
_cell_length_c 17.753545
_cell_angle_alpha 90.000000
_cell_angle_beta 90.000000
_cell_angle_gamma 90.000000
_cell_volume 4907.768319
_symmetry_space_group_name_H-M "C M C A"
_symmetry_group_IT_number 64
_symmetry_cell_setting 'orthorhombic'
loop_
_space_group_symop_operation_xyz
x,y,z
-x,1/2-y,1/2+z
x,-y,-z
-x,1/2+y,1/2-z
-x,-y,-z
x,1/2+y,1/2-z
-x,y,z
x,1/2-y,1/2+z
1/2+x,1/2+y,z
1/2-x,-y,1/2+z
1/2+x,1/2-y,-z
1/2-x,y,1/2-z
1/2-x,1/2-y,-z
1/2+x,y,1/2-z
1/2-x,1/2+y,z
1/2+x,-y,1/2+z
loop_
_atom_site_type_symbol
_atom_site_label
_atom_site_fract_x
_atom_site_fract_y
_atom_site_fract_z
Si Si1 0.198072 0.897725 0.537442
Si Si2 0.811300 0.600040 0.212680
Si Si3 0.928920 0.883868 0.907916
Si Si4 0.872493 0.432656 0.312948
Si Si5 0.572764 0.737020 0.238000
Si Si6 0.668941 0.163883 0.533460
O O1 0.204204 0.918447 0.626055
O O2 0.265150 0.875977 0.498851
O O3 0.163858 0.788007 0.529070
O O4 0.169602 0.000000 0.500000
O O5 0.750000 0.652075 0.250000
O O6 0.825501 0.496410 0.259916
O O7 0.874529 0.667256 0.221161
O O8 0.918596 0.787581 0.850719
O O9 0.000000 0.884363 0.933729
O O10 0.914888 0.982635 0.855519
O O11 0.883333 0.880978 0.978264
O O12 0.912215 0.352979 0.263327
O O13 0.838701 0.372082 0.380747
O O14 0.500000 0.711075 0.255735
#
# Coordination Sequence:
#
# PCOD9480744 Si02
#       6
#    16  16  16  16  16  16
#     4  11  23  41  63  92 131 170 205 263 329 385
#     4  11  23  41  65  95 128 168 218 269 327 393
#     4  10  22  39  63  92 123 165 216 268 322 385
#     4  11  22  40  65  94 128 169 217 271 326 392
#     4  10  22  41  63  93 131 170 216 271 331 390
#     4  11  23  41  64  94 128 166 214 269 320 388
#
# _framework density 19.560825999999999
#
# number of rings (size 3 to 8) (size 9 to 14) (size 15 to 20)
#    0.000    1.333    1.667    5.000    2.333    3.333 
#    0.000    0.000    0.000    1.000    0.000    0.000 
#    0.000    0.000    0.000    0.000    0.000    0.000 
#
# Total GULP energy -268077.270817 kJ/mol
# GULP energy per Si atom -5584.943142 kJ/mol
# Density = 1.951630 g / cm^3
# Si number density = 19.560826 Si / 1000 Ang^3
#
#
#
# Elastic Constant Matrix: (Units=GPa)
#
#
# Indices 1 2 3 4 5 6 
#
# 1 73.7226 22.6889 19.8987 0.0000 0.0000 0.0000
# 2 22.6889 120.8497 40.1904 0.0000 0.0000 0.0000
# 3 19.8987 40.1904 80.9379 0.0000 0.0000 0.0000
# 4 0.0000 0.0000 0.0000 31.1923 0.0000 0.0000
# 5 0.0000 0.0000 0.0000 0.0000 17.9472 0.0000
# 6 0.0000 0.0000 0.0000 0.0000 0.0000 -10.2771
#
#
#
# Elastic Compliance Matrix: (Units=1/GPa)
#
#
# Indices 1 2 3 4 5 6 
#
# 1 0.014880 -0.001889 -0.002720 0.000000 0.000000 0.000000
# 2 -0.001889 0.010151 -0.004576 0.000000 0.000000 0.000000
# 3 -0.002720 -0.004576 0.015296 0.000000 0.000000 0.000000
# 4 0.000000 0.000000 0.000000 0.032059 0.000000 0.000000
# 5 0.000000 0.000000 0.000000 0.000000 0.055719 0.000000
# 6 0.000000 0.000000 0.000000 0.000000 0.000000 -0.097304
#
#
# Mechanical properties :
#
#
# Convention : Reuss Voigt Hill
#
# Bulk Modulus (GPa) = 45.54462 49.00737 47.27599
# Shear Modulus (GPa) = 88.50762 20.62127 54.56444
#
# Velocity S-wave (km/s) = 6.73391 3.25039 5.28728
# Velocity P-wave (km/s) = 9.15396 6.26058 7.84187
#
# Compressibility (1/GPa) = 0.02195649
#
# Stress axis : x y z
#
# Youngs Moduli (GPa) = 67.20449 98.50945 65.37503
#
# Poissons Ratio (x) = 0.18608 0.17784
# Poissons Ratio (y) = 0.12695 0.29918
# Poissons Ratio (z) = 0.18282 0.45081
#
# Static dielectric constant tensor:
#      x y z
#    x 1.670250 0.000000 0.000000 
#    y 0.000000 1.730520 0.000000 
#    z 0.000000 0.000000 1.656100 
# 
# From -- ./inp_files/34941.got.cif
#   From: 2010.05.17/outbox.cif.g08.bks.cpg/sg64_18_cif.got.tgz:34941.got - 2010.06.03 16:29:19.
