data_PCOD9480221
_publ_section_title
;
Structure prediction by ZEFSAII (Michael W. Deem and Ramdas Pophale) SiO2 
 PCOD9480221
Probable space group: C M C A
;
_chemical_formula_sum "Si O2"
_cell_formula_units_Z 104
_cell_length_a 9.547892
_cell_length_b 19.308649
_cell_length_c 26.695759
_cell_angle_alpha 90.000000
_cell_angle_beta 90.000000
_cell_angle_gamma 90.000000
_cell_volume 4921.547247
_symmetry_space_group_name_H-M "C M C A"
_symmetry_group_IT_number 64
_symmetry_cell_setting 'orthorhombic'
loop_
_space_group_symop_operation_xyz
x,y,z
-x,1/2-y,1/2+z
x,-y,-z
-x,1/2+y,1/2-z
-x,-y,-z
x,1/2+y,1/2-z
-x,y,z
x,1/2-y,1/2+z
1/2+x,1/2+y,z
1/2-x,-y,1/2+z
1/2+x,1/2-y,-z
1/2-x,y,1/2-z
1/2-x,1/2-y,-z
1/2+x,y,1/2-z
1/2-x,1/2+y,z
1/2+x,-y,1/2+z
loop_
_atom_site_type_symbol
_atom_site_label
_atom_site_fract_x
_atom_site_fract_y
_atom_site_fract_z
Si Si1 0.000000 0.764295 0.764020
Si Si2 0.662630 0.913402 0.296272
Si Si3 0.165814 0.942347 0.843352
Si Si4 0.840268 0.322303 0.395671
Si Si5 0.771854 0.208455 0.323733
Si Si6 0.661869 0.438562 0.959749
Si Si7 0.667290 0.821317 0.009350
O O1 0.881052 0.774617 0.719692
O O2 0.876959 0.761623 0.806830
O O3 0.500000 0.911904 0.281320
O O4 0.750000 0.885890 0.250000
O O5 0.674446 0.868726 0.346165
O O6 0.704879 0.991583 0.310124
O O7 0.251281 0.873848 0.830275
O O8 0.178753 0.961228 0.902032
O O9 0.000000 0.927720 0.833952
O O10 0.819072 0.244587 0.375307
O O11 0.724799 0.342651 0.435905
O O12 0.000000 0.331182 0.415035
O O13 0.500000 0.413281 0.964499
O O14 0.678924 0.500000 0.000000
O O15 0.771953 0.378819 0.971967
O O16 0.500000 0.814025 0.007026
O O17 0.750000 0.750000 0.000000
#
# Coordination Sequence:
#
# PCOD9480221 Si02
#       7
#     8  16  16  16  16  16  16
#     4  10  24  36  58  88 124 166 208 258 312 368
#     4  10  24  41  62  90 129 167 209 254 308 370
#     4  10  21  39  63  92 121 163 210 256 309 371
#     4  11  24  43  65  93 126 166 211 258 318 387
#     4  11  22  38  62  88 124 162 214 257 311 373
#     4  10  21  42  71  95 127 171 216 264 324 387
#     4  12  26  43  68  97 131 166 212 271 327 384
#
# _framework density 21.131564999999998
#
# number of rings (size 3 to 8) (size 9 to 14) (size 15 to 20)
#    0.000    1.385    1.538    3.231    5.385    4.615 
#    1.385    0.000    0.000    0.000    0.000    0.000 
#    0.000    0.000    0.000    0.000    0.000    0.000 
#
# Total GULP energy -289793.756406 kJ/mol
# GULP energy per Si atom -5572.956854 kJ/mol
# Density = 2.108347 g / cm^3
# Si number density = 21.131565 Si / 1000 Ang^3
#
#
#
# Elastic Constant Matrix: (Units=GPa)
#
#
# Indices 1 2 3 4 5 6 
#
# 1 154.1229 30.0199 37.3218 0.0000 0.0000 0.0000
# 2 30.0199 69.5415 2.4022 0.0000 0.0000 0.0000
# 3 37.3218 2.4022 67.7511 0.0000 0.0000 0.0000
# 4 0.0000 0.0000 0.0000 12.1864 0.0000 0.0000
# 5 0.0000 0.0000 0.0000 0.0000 36.2476 0.0000
# 6 0.0000 0.0000 0.0000 0.0000 0.0000 12.4603
#
#
#
# Elastic Compliance Matrix: (Units=1/GPa)
#
#
# Indices 1 2 3 4 5 6 
#
# 1 0.008216 -0.003395 -0.004406 0.000000 0.000000 0.000000
# 2 -0.003395 0.015800 0.001310 0.000000 0.000000 0.000000
# 3 -0.004406 0.001310 0.017140 0.000000 0.000000 0.000000
# 4 0.000000 0.000000 0.000000 0.082058 0.000000 0.000000
# 5 0.000000 0.000000 0.000000 0.000000 0.027588 0.000000
# 6 0.000000 0.000000 0.000000 0.000000 0.000000 0.080255
#
#
# Mechanical properties :
#
#
# Convention : Reuss Voigt Hill
#
# Bulk Modulus (GPa) = 35.49163 47.87814 41.68489
# Shear Modulus (GPa) = 19.72919 26.95698 23.34308
#
# Velocity S-wave (km/s) = 3.05886 3.57553 3.32724
# Velocity P-wave (km/s) = 5.41364 6.30494 5.87621
#
# Compressibility (1/GPa) = 0.02817566
#
# Stress axis : x y z
#
# Youngs Moduli (GPa) = 121.70723 63.29071 58.34144
#
# Poissons Ratio (x) = 0.21485 0.25704
# Poissons Ratio (y) = 0.41316 -0.07642
# Poissons Ratio (z) = 0.53622 -0.08290
#
# Static dielectric constant tensor:
#      x y z
#    x 1.724180 0.000000 0.000000 
#    y 0.000000 1.812150 0.000000 
#    z 0.000000 0.000000 1.795840 
# 
# From -- ./inp_files/48264.got.cif
#   From: 2010.05.17/outbox.cif.g08.bks.cpg/sg64_25_cif.got.tgz:48264.got - 2010.06.03 16:29:19.
