data_PCOD9480358
_publ_section_title
;
Structure prediction by ZEFSAII (Michael W. Deem and Ramdas Pophale) SiO2 
 PCOD9480358
Probable space group: C M C A
;
_chemical_formula_sum "Si O2"
_cell_formula_units_Z 80
_cell_length_a 14.518272
_cell_length_b 9.880238
_cell_length_c 26.741231
_cell_angle_alpha 90.000000
_cell_angle_beta 90.000000
_cell_angle_gamma 90.000000
_cell_volume 3835.868677
_symmetry_space_group_name_H-M "C M C A"
_symmetry_group_IT_number 64
_symmetry_cell_setting 'orthorhombic'
loop_
_space_group_symop_operation_xyz
x,y,z
-x,1/2-y,1/2+z
x,-y,-z
-x,1/2+y,1/2-z
-x,-y,-z
x,1/2+y,1/2-z
-x,y,z
x,1/2-y,1/2+z
1/2+x,1/2+y,z
1/2-x,-y,1/2+z
1/2+x,1/2-y,-z
1/2-x,y,1/2-z
1/2-x,1/2-y,-z
1/2+x,y,1/2-z
1/2-x,1/2+y,z
1/2+x,-y,1/2+z
loop_
_atom_site_type_symbol
_atom_site_label
_atom_site_fract_x
_atom_site_fract_y
_atom_site_fract_z
Si Si1 0.633560 0.550998 0.945436
Si Si2 0.356170 0.444460 0.448026
Si Si3 0.639698 0.692764 0.381950
Si Si4 0.639551 0.296525 0.883955
Si Si5 0.500000 0.179996 0.804486
Si Si6 0.000000 0.350900 0.797245
O O1 0.744916 0.552510 0.950037
O O2 0.609411 0.697737 0.923677
O O3 0.611175 0.445781 0.901062
O O4 0.601020 0.500000 0.000000
O O5 0.391625 0.500000 0.500000
O O6 0.383092 0.546494 0.404494
O O7 0.382154 0.294738 0.432621
O O8 0.750128 0.705751 0.375814
O O9 0.587217 0.699310 0.329892
O O10 0.586822 0.229140 0.838021
O O11 0.500000 0.271511 0.754811
O O12 0.500000 0.016950 0.794273
#
# Coordination Sequence:
#
# PCOD9480358 Si02
#       6
#    16  16  16  16   8   8
#     4   9  18  33  61  96 133 171 204 240 300 370
#     4   9  16  33  61  94 131 171 204 244 300 372
#     4  10  21  40  65  95 130 166 207 254 309 374
#     4  10  21  40  65  95 130 166 207 254 309 374
#     4  12  28  48  67  90 120 162 215 274 325 370
#     4  12  28  48  67  90 120 162 215 274 325 370
#
# _framework density 20.855771000000001
#
# number of rings (size 3 to 8) (size 9 to 14) (size 15 to 20)
#    0.000    2.000    2.000    1.200    2.800    5.600 
#    0.000    8.000    0.000    0.000    0.000    0.000 
#    0.000    0.000    0.000    0.000    0.000    0.000 
#
# Total GULP energy -223277.628724 kJ/mol
# GULP energy per Si atom -5581.940718 kJ/mol
# Density = 2.080830 g / cm^3
# Si number density = 20.855771 Si / 1000 Ang^3
#
#
#
# Elastic Constant Matrix: (Units=GPa)
#
#
# Indices 1 2 3 4 5 6 
#
# 1 99.3705 8.3793 25.9882 0.0000 0.0000 0.0000
# 2 8.3793 79.1606 4.0163 0.0000 0.0000 0.0000
# 3 25.9882 4.0163 100.6725 0.0000 0.0000 0.0000
# 4 0.0000 0.0000 0.0000 32.7705 0.0000 0.0000
# 5 0.0000 0.0000 0.0000 0.0000 26.5058 0.0000
# 6 0.0000 0.0000 0.0000 0.0000 0.0000 8.4047
#
#
#
# Elastic Compliance Matrix: (Units=1/GPa)
#
#
# Indices 1 2 3 4 5 6 
#
# 1 0.010872 -0.001010 -0.002766 0.000000 0.000000 0.000000
# 2 -0.001010 0.012752 -0.000248 0.000000 0.000000 0.000000
# 3 -0.002766 -0.000248 0.010657 0.000000 0.000000 0.000000
# 4 0.000000 0.000000 0.000000 0.030515 0.000000 0.000000
# 5 0.000000 0.000000 0.000000 0.000000 0.037728 0.000000
# 6 0.000000 0.000000 0.000000 0.000000 0.000000 0.118980
#
#
# Mechanical properties :
#
#
# Convention : Reuss Voigt Hill
#
# Bulk Modulus (GPa) = 38.12131 39.55235 38.83683
# Shear Modulus (GPa) = 20.98214 29.59086 25.28650
#
# Velocity S-wave (km/s) = 3.17529 3.77083 3.48580
# Velocity P-wave (km/s) = 5.63573 6.16155 5.90450
#
# Compressibility (1/GPa) = 0.02623205
#
# Stress axis : x y z
#
# Youngs Moduli (GPa) = 91.97933 78.41855 93.83338
#
# Poissons Ratio (x) = 0.07924 0.25957
# Poissons Ratio (y) = 0.09294 0.02326
# Poissons Ratio (z) = 0.25444 0.01944
#
# Static dielectric constant tensor:
#      x y z
#    x 1.794360 0.000000 0.000000 
#    y 0.000000 1.721030 0.000000 
#    z 0.000000 0.000000 1.705300 
# 
# From -- ./inp_files/50336.got.cif
#   From: 2010.05.17/outbox.cif.g08.bks.cpg/sg64_26_cif.got.tgz:50336.got - 2010.06.03 16:29:19.
