data_PCOD9480119
_publ_section_title
;
Structure prediction by ZEFSAII (Michael W. Deem and Ramdas Pophale) SiO2 
 PCOD9480119
Probable space group: C M C A
;
_chemical_formula_sum "Si O2"
_cell_formula_units_Z 112
_cell_length_a 14.997903
_cell_length_b 11.205609
_cell_length_c 31.433638
_cell_angle_alpha 90.000000
_cell_angle_beta 90.000000
_cell_angle_gamma 90.000000
_cell_volume 5282.757220
_symmetry_space_group_name_H-M "C M C A"
_symmetry_group_IT_number 64
_symmetry_cell_setting 'orthorhombic'
loop_
_space_group_symop_operation_xyz
x,y,z
-x,1/2-y,1/2+z
x,-y,-z
-x,1/2+y,1/2-z
-x,-y,-z
x,1/2+y,1/2-z
-x,y,z
x,1/2-y,1/2+z
1/2+x,1/2+y,z
1/2-x,-y,1/2+z
1/2+x,1/2-y,-z
1/2-x,y,1/2-z
1/2-x,1/2-y,-z
1/2+x,y,1/2-z
1/2-x,1/2+y,z
1/2+x,-y,1/2+z
loop_
_atom_site_type_symbol
_atom_site_label
_atom_site_fract_x
_atom_site_fract_y
_atom_site_fract_z
Si Si1 0.602245 0.933304 0.041266
Si Si2 0.838512 0.784241 0.766683
Si Si3 0.396099 0.066689 0.346583
Si Si4 0.902414 0.322775 0.912607
Si Si5 0.595607 0.631293 0.317712
Si Si6 0.732311 0.083416 0.826877
Si Si7 0.205601 0.746369 0.407730
O O1 0.500000 0.903077 0.031021
O O2 0.600737 0.035443 0.077555
O O3 0.650171 0.814998 0.056572
O O4 0.641480 0.000000 0.000000
O O5 0.750000 0.853514 0.750000
O O6 0.889663 0.847694 0.805061
O O7 0.893623 0.784921 0.723261
O O8 0.798815 0.665055 0.787623
O O9 0.500000 0.042791 0.356137
O O10 0.334485 0.956846 0.331816
O O11 0.344656 0.132442 0.386144
O O12 0.904541 0.300372 0.862187
O O13 0.805140 0.276598 0.925465
O O14 0.000000 0.281687 0.929933
O O15 0.500000 0.567455 0.313611
O O16 0.673339 0.535479 0.323829
O O17 0.711867 0.161383 0.868462
#
# Coordination Sequence:
#
# PCOD9480119 Si02
#       7
#    16  16  16  16  16  16  16
#     4  10  21  38  64  98 129 159 200 249 307 377
#     4  11  23  39  57  77 115 157 200 250 307 357
#     4  11  23  40  60  87 117 153 206 257 301 356
#     4  10  21  40  62  88 122 161 207 250 303 370
#     4  11  21  39  61  84 115 155 206 254 303 362
#     4  11  23  39  62  83 119 159 198 257 307 358
#     4  11  20  39  66  89 121 164 201 248 305 364
#
# _framework density 21.201049000000001
#
# number of rings (size 3 to 8) (size 9 to 14) (size 15 to 20)
#    0.000    1.286    4.286    1.714    2.000    4.000 
#    0.000    1.429    0.000    0.429    0.000    0.000 
#    0.000    0.000    0.000    0.000    0.000    0.000 
#
# Total GULP energy -312164.088950 kJ/mol
# GULP energy per Si atom -5574.358731 kJ/mol
# Density = 2.115279 g / cm^3
# Si number density = 21.201049 Si / 1000 Ang^3
#
#
#
# Elastic Constant Matrix: (Units=GPa)
#
#
# Indices 1 2 3 4 5 6 
#
# 1 146.9519 32.5425 8.9637 0.0000 0.0000 0.0000
# 2 32.5425 53.5651 10.1355 0.0000 0.0000 0.0000
# 3 8.9637 10.1355 55.1554 0.0000 0.0000 0.0000
# 4 0.0000 0.0000 0.0000 29.8563 0.0000 0.0000
# 5 0.0000 0.0000 0.0000 0.0000 13.3660 0.0000
# 6 0.0000 0.0000 0.0000 0.0000 0.0000 6.1010
#
#
#
# Elastic Compliance Matrix: (Units=1/GPa)
#
#
# Indices 1 2 3 4 5 6 
#
# 1 0.007872 -0.004704 -0.000415 0.000000 0.000000 0.000000
# 2 -0.004704 0.022152 -0.003306 0.000000 0.000000 0.000000
# 3 -0.000415 -0.003306 0.018806 0.000000 0.000000 0.000000
# 4 0.000000 0.000000 0.000000 0.033494 0.000000 0.000000
# 5 0.000000 0.000000 0.000000 0.000000 0.074817 0.000000
# 6 0.000000 0.000000 0.000000 0.000000 0.000000 0.163907
#
#
# Mechanical properties :
#
#
# Convention : Reuss Voigt Hill
#
# Bulk Modulus (GPa) = 31.27004 39.88399 35.57701
# Shear Modulus (GPa) = 14.34483 23.46671 18.90577
#
# Velocity S-wave (km/s) = 2.60399 3.33057 2.98944
# Velocity P-wave (km/s) = 4.88081 5.80029 5.36030
#
# Compressibility (1/GPa) = 0.03197950
#
# Stress axis : x y z
#
# Youngs Moduli (GPa) = 127.03341 45.14209 53.17562
#
# Poissons Ratio (x) = 0.21235 0.02206
# Poissons Ratio (y) = 0.59756 0.17581
# Poissons Ratio (z) = 0.05271 0.14925
#
# Static dielectric constant tensor:
#      x y z
#    x 1.851010 0.000000 0.000000 
#    y 0.000000 1.789000 0.000000 
#    z 0.000000 0.000000 1.796950 
# 
# From -- ./inp_files/53253.got.cif
#   From: 2010.05.17/outbox.cif.g08.bks.cpg/sg64_27_cif.got.tgz:53253.got - 2010.06.03 16:29:19.
