data_PCOD9480789
_publ_section_title
;
Structure prediction by ZEFSAII (Michael W. Deem and Ramdas Pophale) SiO2 
 PCOD9480789
Probable space group: C M C A
;
_chemical_formula_sum "Si O2"
_cell_formula_units_Z 80
_cell_length_a 18.201715
_cell_length_b 9.480042
_cell_length_c 24.355209
_cell_angle_alpha 90.000000
_cell_angle_beta 90.000000
_cell_angle_gamma 90.000000
_cell_volume 4202.564931
_symmetry_space_group_name_H-M "C M C A"
_symmetry_group_IT_number 64
_symmetry_cell_setting 'orthorhombic'
loop_
_space_group_symop_operation_xyz
x,y,z
-x,1/2-y,1/2+z
x,-y,-z
-x,1/2+y,1/2-z
-x,-y,-z
x,1/2+y,1/2-z
-x,y,z
x,1/2-y,1/2+z
1/2+x,1/2+y,z
1/2-x,-y,1/2+z
1/2+x,1/2-y,-z
1/2-x,y,1/2-z
1/2-x,1/2-y,-z
1/2+x,y,1/2-z
1/2-x,1/2+y,z
1/2+x,-y,1/2+z
loop_
_atom_site_type_symbol
_atom_site_label
_atom_site_fract_x
_atom_site_fract_y
_atom_site_fract_z
Si Si1 0.166220 0.919534 0.815080
Si Si2 0.201514 0.104781 0.649280
Si Si3 0.584609 0.142741 0.618111
Si Si4 0.214791 0.632298 0.538175
Si Si5 0.086171 0.405886 0.801411
O O1 0.194453 0.768325 0.835414
O O2 0.127470 0.902411 0.756654
O O3 0.234991 0.026657 0.815747
O O4 0.109271 0.992199 0.857218
O O5 0.228288 0.091837 0.586593
O O6 0.126237 0.024773 0.662434
O O7 0.500000 0.142539 0.600832
O O8 0.641441 0.179818 0.570055
O O9 0.593283 0.257642 0.666702
O O10 0.197434 0.500000 0.500000
O O11 0.250000 0.750000 0.500000
O O12 0.000000 0.435749 0.793521
#
# Coordination Sequence:
#
# PCOD9480789 Si02
#       5
#    16  16  16  16  16
#     4  11  22  38  61  88 121 157 192 233 288 355
#     4  11  23  39  60  89 118 153 202 244 287 350
#     4  10  22  40  61  89 121 153 196 245 293 351
#     4  11  22  40  62  83 112 153 200 251 300 341
#     4  11  23  39  59  87 125 159 187 231 292 353
#
# _framework density 19.035993000000001
#
# number of rings (size 3 to 8) (size 9 to 14) (size 15 to 20)
#    0.000    1.200    0.000    8.400    0.000    6.800 
#    0.000    1.000    0.000    3.600    0.000    0.000 
#    0.000    0.000    0.000    0.000    0.000    0.000 
#
# Total GULP energy -223662.086694 kJ/mol
# GULP energy per Si atom -5591.552167 kJ/mol
# Density = 1.899267 g / cm^3
# Si number density = 19.035993 Si / 1000 Ang^3
#
#
#
# Elastic Constant Matrix: (Units=GPa)
#
#
# Indices 1 2 3 4 5 6 
#
# 1 117.9302 48.4346 66.6275 0.0000 0.0000 0.0000
# 2 48.4346 92.6645 23.2773 0.0000 0.0000 0.0000
# 3 66.6275 23.2773 119.4315 0.0000 0.0000 0.0000
# 4 0.0000 0.0000 0.0000 27.2454 0.0000 0.0000
# 5 0.0000 0.0000 0.0000 0.0000 24.8930 0.0000
# 6 0.0000 0.0000 0.0000 0.0000 0.0000 25.9265
#
#
#
# Elastic Compliance Matrix: (Units=1/GPa)
#
#
# Indices 1 2 3 4 5 6 
#
# 1 0.015037 -0.006049 -0.007210 0.000000 0.000000 0.000000
# 2 -0.006049 0.013780 0.000689 0.000000 0.000000 0.000000
# 3 -0.007210 0.000689 0.012261 0.000000 0.000000 0.000000
# 4 0.000000 0.000000 0.000000 0.036703 0.000000 0.000000
# 5 0.000000 0.000000 0.000000 0.000000 0.040172 0.000000
# 6 0.000000 0.000000 0.000000 0.000000 0.000000 0.038571
#
#
# Mechanical properties :
#
#
# Convention : Reuss Voigt Hill
#
# Bulk Modulus (GPa) = 62.74141 67.41166 65.07654
# Shear Modulus (GPa) = 26.74120 28.39209 27.56664
#
# Velocity S-wave (km/s) = 3.75209 3.86618 3.80956
# Velocity P-wave (km/s) = 7.19735 7.44442 7.32193
#
# Compressibility (1/GPa) = 0.01593844
#
# Stress axis : x y z
#
# Youngs Moduli (GPa) = 66.50149 72.56798 81.55911
#
# Poissons Ratio (x) = 0.43894 0.58804
# Poissons Ratio (y) = 0.40224 -0.05616
# Poissons Ratio (z) = 0.47947 -0.04997
#
# Static dielectric constant tensor:
#      x y z
#    x 1.664110 0.000000 0.000000 
#    y 0.000000 1.652090 0.000000 
#    z 0.000000 0.000000 1.654990 
# 
# From -- ./inp_files/50280.got.cif
#   From: 2010.05.17/outbox.cif.g08.bks.cpg/sg64_26_cif.got.tgz:50280.got - 2010.06.03 16:29:19.
