data_PCOD9480287
_publ_section_title
;
Structure prediction by ZEFSAII (Michael W. Deem and Ramdas Pophale) SiO2 
 PCOD9480287
Probable space group: C M C A
;
_chemical_formula_sum "Si O2"
_cell_formula_units_Z 96
_cell_length_a 14.786832
_cell_length_b 23.560767
_cell_length_c 14.439700
_cell_angle_alpha 90.000000
_cell_angle_beta 90.000000
_cell_angle_gamma 90.000000
_cell_volume 5030.634137
_symmetry_space_group_name_H-M "C M C A"
_symmetry_group_IT_number 64
_symmetry_cell_setting 'orthorhombic'
loop_
_space_group_symop_operation_xyz
x,y,z
-x,1/2-y,1/2+z
x,-y,-z
-x,1/2+y,1/2-z
-x,-y,-z
x,1/2+y,1/2-z
-x,y,z
x,1/2-y,1/2+z
1/2+x,1/2+y,z
1/2-x,-y,1/2+z
1/2+x,1/2-y,-z
1/2-x,y,1/2-z
1/2-x,1/2-y,-z
1/2+x,y,1/2-z
1/2-x,1/2+y,z
1/2+x,-y,1/2+z
loop_
_atom_site_type_symbol
_atom_site_label
_atom_site_fract_x
_atom_site_fract_y
_atom_site_fract_z
Si Si1 0.500000 0.153168 0.979972
Si Si2 0.810587 0.483722 0.841186
Si Si3 0.500000 0.582158 0.333040
Si Si4 0.845811 0.381458 0.160159
Si Si5 0.150204 0.351853 0.366659
Si Si6 0.500000 0.124546 0.363886
Si Si7 0.000000 0.784853 0.028226
Si Si8 0.653324 0.940494 0.533351
O O1 0.415185 0.136698 0.917192
O O2 0.500000 0.116422 0.072231
O O3 0.500000 0.219110 0.005427
O O4 0.750000 0.474729 0.750000
O O5 0.820887 0.551923 0.851224
O O6 0.751588 0.454600 0.923042
O O7 0.909477 0.456311 0.831083
O O8 0.500000 0.626073 0.246813
O O9 0.881415 0.372262 0.265068
O O10 0.756893 0.342385 0.147448
O O11 0.149782 0.401163 0.443408
O O12 0.086955 0.303827 0.410708
O O13 0.500000 0.179467 0.431222
O O14 0.588736 0.089042 0.392519
O O15 0.614145 0.000000 0.500000
#
# Coordination Sequence:
#
# PCOD9480287 Si02
#       8
#     8  16   8  16  16   8   8  16
#     4  12  28  45  66  86 135 178 220 278 330 378
#     4  12  22  40  65  99 143 171 196 259 326 408
#     4  12  27  39  60 100 135 170 215 251 339 416
#     4  11  22  42  65 101 128 174 213 266 322 406
#     4  10  21  39  68  97 127 161 233 266 321 387
#     4  10  23  38  61  93 126 165 227 266 320 379
#     4  10  25  46  65  91 121 174 225 297 316 364
#     4  11  19  36  62  95 133 173 203 262 322 387
#
# _framework density 19.083082000000001
#
# number of rings (size 3 to 8) (size 9 to 14) (size 15 to 20)
#    0.000    1.000    5.000    2.250    0.000    2.667 
#    0.000    0.000    3.667    0.000    0.000    0.000 
#    0.000    0.000    0.000    0.000    0.000    0.000 
#
# Total GULP energy -267921.835694 kJ/mol
# GULP energy per Si atom -5581.704910 kJ/mol
# Density = 1.903965 g / cm^3
# Si number density = 19.083082 Si / 1000 Ang^3
#
#
#
# Elastic Constant Matrix: (Units=GPa)
#
#
# Indices 1 2 3 4 5 6 
#
# 1 138.8923 58.3085 70.3978 0.0000 0.0000 0.0000
# 2 58.3085 83.4496 54.8707 0.0000 0.0000 0.0000
# 3 70.3978 54.8707 171.3766 0.0000 0.0000 0.0000
# 4 0.0000 0.0000 0.0000 18.4757 0.0000 0.0000
# 5 0.0000 0.0000 0.0000 0.0000 41.1044 0.0000
# 6 0.0000 0.0000 0.0000 0.0000 0.0000 411.0854
#
#
#
# Elastic Compliance Matrix: (Units=1/GPa)
#
#
# Indices 1 2 3 4 5 6 
#
# 1 0.011043 -0.005996 -0.002617 0.000000 0.000000 0.000000
# 2 -0.005996 0.018434 -0.003439 0.000000 0.000000 0.000000
# 3 -0.002617 -0.003439 0.008011 0.000000 0.000000 0.000000
# 4 0.000000 0.000000 0.000000 0.054125 0.000000 0.000000
# 5 0.000000 0.000000 0.000000 0.000000 0.024328 0.000000
# 6 0.000000 0.000000 0.000000 0.000000 0.000000 0.002433
#
#
# Mechanical properties :
#
#
# Convention : Reuss Voigt Hill
#
# Bulk Modulus (GPa) = 74.70910 84.54140 79.62525
# Shear Modulus (GPa) = 34.02772 108.14251 71.08511
#
# Velocity S-wave (km/s) = 4.22730 7.53607 6.10993
# Velocity P-wave (km/s) = 7.94110 10.95997 9.57032
#
# Compressibility (1/GPa) = 0.01338525
#
# Stress axis : x y z
#
# Youngs Moduli (GPa) = 90.55450 54.24758 124.82648
#
# Poissons Ratio (x) = 0.32525 0.32662
# Poissons Ratio (y) = 0.54293 0.42931
# Poissons Ratio (z) = 0.23695 0.18657
#
# Static dielectric constant tensor:
#      x y z
#    x 1.694410 0.000000 0.000000 
#    y 0.000000 1.621950 0.000000 
#    z 0.000000 0.000000 1.692110 
# 
# From -- ./inp_files/24024.got.cif
#   From: 2010.05.17/outbox.cif.g08.bks.cpg/sg64_13_cif.got.tgz:24024.got - 2010.06.03 16:29:19.
