data_PCOD9480868
_publ_section_title
;
Structure prediction by ZEFSAII (Michael W. Deem and Ramdas Pophale) SiO2 
 PCOD9480868
Probable space group: C M C A
;
_chemical_formula_sum "Si O2"
_cell_formula_units_Z 48
_cell_length_a 17.490657
_cell_length_b 9.407186
_cell_length_c 10.431038
_cell_angle_alpha 90.000000
_cell_angle_beta 90.000000
_cell_angle_gamma 90.000000
_cell_volume 1716.300708
_symmetry_space_group_name_H-M "C M C A"
_symmetry_group_IT_number 64
_symmetry_cell_setting 'orthorhombic'
loop_
_space_group_symop_operation_xyz
x,y,z
-x,1/2-y,1/2+z
x,-y,-z
-x,1/2+y,1/2-z
-x,-y,-z
x,1/2+y,1/2-z
-x,y,z
x,1/2-y,1/2+z
1/2+x,1/2+y,z
1/2-x,-y,1/2+z
1/2+x,1/2-y,-z
1/2-x,y,1/2-z
1/2-x,1/2-y,-z
1/2+x,y,1/2-z
1/2-x,1/2+y,z
1/2+x,-y,1/2+z
loop_
_atom_site_type_symbol
_atom_site_label
_atom_site_fract_x
_atom_site_fract_y
_atom_site_fract_z
Si Si1 0.210649 0.623439 0.079721
Si Si2 0.500000 0.509539 0.309694
Si Si3 0.631295 0.101493 0.333579
Si Si4 0.000000 0.248416 0.502520
O O1 0.287585 0.542435 0.124484
O O2 0.161795 0.677981 0.201213
O O3 0.166855 0.500000 0.000000
O O4 0.250000 0.750000 0.000000
O O5 0.426743 0.488084 0.221844
O O6 0.500000 0.673797 0.361975
O O7 0.500000 0.392454 0.413970
O O8 0.578127 0.174769 0.443837
#
# Coordination Sequence:
#
# PCOD9480868 Si02
#       4
#    16   8  16   8
#     4  11  26  43  69  98 136 179 229 284 342 406
#     4  10  22  40  71  93 137 176 224 284 343 409
#     4  10  24  42  66 100 133 177 228 283 341 415
#     4  10  22  42  66 100 133 178 225 279 348 404
#
# _framework density 27.967126
#
# number of rings (size 3 to 8) (size 9 to 14) (size 15 to 20)
#    0.000    1.667    0.000    2.000   14.000    2.667 
#    0.000    1.667    0.000    0.000    0.000    0.000 
#    0.000    0.000    0.000    0.000    0.000    0.000 
#
# Total GULP energy -133762.772301 kJ/mol
# GULP energy per Si atom -5573.448846 kJ/mol
# Density = 2.790347 g / cm^3
# Si number density = 27.967126 Si / 1000 Ang^3
#
#
#
# Elastic Constant Matrix: (Units=GPa)
#
#
# Indices 1 2 3 4 5 6 
#
# 1 194.4375 -1.1070 18.5667 0.0000 0.0000 0.0000
# 2 -1.1070 77.3994 33.0949 0.0000 0.0000 0.0000
# 3 18.5667 33.0949 120.6645 0.0000 0.0000 0.0000
# 4 0.0000 0.0000 0.0000 30.5326 0.0000 0.0000
# 5 0.0000 0.0000 0.0000 0.0000 49.4844 0.0000
# 6 0.0000 0.0000 0.0000 0.0000 0.0000 15.1012
#
#
#
# Elastic Compliance Matrix: (Units=1/GPa)
#
#
# Indices 1 2 3 4 5 6 
#
# 1 0.005235 0.000475 -0.000936 0.000000 0.000000 0.000000
# 2 0.000475 0.014680 -0.004099 0.000000 0.000000 0.000000
# 3 -0.000936 -0.004099 0.009556 0.000000 0.000000 0.000000
# 4 0.000000 0.000000 0.000000 0.032752 0.000000 0.000000
# 5 0.000000 0.000000 0.000000 0.000000 0.020208 0.000000
# 6 0.000000 0.000000 0.000000 0.000000 0.000000 0.066220
#
#
# Mechanical properties :
#
#
# Convention : Reuss Voigt Hill
#
# Bulk Modulus (GPa) = 49.13936 54.84561 51.99249
# Shear Modulus (GPa) = 30.38511 41.82009 36.10260
#
# Velocity S-wave (km/s) = 3.29972 3.87115 3.59680
# Velocity P-wave (km/s) = 5.66799 6.29558 5.99001
#
# Compressibility (1/GPa) = 0.02035028
#
# Stress axis : x y z
#
# Youngs Moduli (GPa) = 191.01812 68.12176 104.64892
#
# Poissons Ratio (x) = -0.03236 0.09793
# Poissons Ratio (y) = -0.09074 0.42899
# Poissons Ratio (z) = 0.17876 0.27925
#
# Static dielectric constant tensor:
#      x y z
#    x 2.222540 0.000000 0.000000 
#    y 0.000000 2.151710 0.000000 
#    z 0.000000 0.000000 3.508500 
# 
# From -- ./inp_files/15220.got.cif
#   From: 2010.05.17/outbox.cif.g08.bks.cpg/sg64_8_cif.got.tgz:15220.got - 2010.06.03 16:29:19.
