data_PCOD9480590
_publ_section_title
;
Structure prediction by ZEFSAII (Michael W. Deem and Ramdas Pophale) SiO2 
 PCOD9480590
Probable space group: C M C A
;
_chemical_formula_sum "Si O2"
_cell_formula_units_Z 64
_cell_length_a 9.316671
_cell_length_b 27.988551
_cell_length_c 8.892090
_cell_angle_alpha 90.000000
_cell_angle_beta 90.000000
_cell_angle_gamma 90.000000
_cell_volume 2318.702468
_symmetry_space_group_name_H-M "C M C A"
_symmetry_group_IT_number 64
_symmetry_cell_setting 'orthorhombic'
loop_
_space_group_symop_operation_xyz
x,y,z
-x,1/2-y,1/2+z
x,-y,-z
-x,1/2+y,1/2-z
-x,-y,-z
x,1/2+y,1/2-z
-x,y,z
x,1/2-y,1/2+z
1/2+x,1/2+y,z
1/2-x,-y,1/2+z
1/2+x,1/2-y,-z
1/2-x,y,1/2-z
1/2-x,1/2-y,-z
1/2+x,y,1/2-z
1/2-x,1/2+y,z
1/2+x,-y,1/2+z
loop_
_atom_site_type_symbol
_atom_site_label
_atom_site_fract_x
_atom_site_fract_y
_atom_site_fract_z
Si Si1 0.000000 0.885537 0.087979
Si Si2 0.000000 0.128341 0.406549
Si Si3 0.750000 0.250000 0.000000
Si Si4 0.250000 0.171568 0.750000
Si Si5 0.000000 0.058389 0.659841
Si Si6 0.248842 0.000000 0.000000
Si Si7 0.500000 0.686724 0.150671
Si Si8 0.250000 0.569762 0.250000
O O1 0.138265 0.861367 0.163794
O O2 0.000000 0.937665 0.160319
O O3 0.000000 0.866588 0.919622
O O4 0.860005 0.102766 0.339165
O O5 0.000000 0.110632 0.577639
O O6 0.000000 0.181630 0.332588
O O7 0.801808 0.292336 0.119587
O O8 0.861475 0.212927 0.085281
O O9 0.859923 0.031671 0.600029
O O10 0.180422 0.964057 0.878890
#
# Coordination Sequence:
#
# PCOD9480590 Si02
#       8
#     8   8   8   8   8   8   8   8
#     4  10  22  37  56  83 115 147 194 242 290 347
#     4  10  23  40  60  90 122 155 204 250 299 356
#     4  10  22  40  60  84 116 150 196 242 298 360
#     4  10  22  38  56  84 112 148 192 238 294 350
#     4   9  20  39  59  85 122 162 198 239 296 357
#     4   9  20  37  60  88 122 162 198 240 298 354
#     4  10  23  41  61  88 117 154 198 246 299 353
#     4  10  22  40  60  92 124 158 204 244 296 358
#
# _framework density 27.601645000000001
#
# number of rings (size 3 to 8) (size 9 to 14) (size 15 to 20)
#    0.000    2.250    0.000    1.500    0.000   14.500 
#    0.000    1.250    0.000    0.000    0.000    0.000 
#    0.000    0.000    0.000    0.000    0.000    0.000 
#
# Total GULP energy -178142.144147 kJ/mol
# GULP energy per Si atom -5566.942005 kJ/mol
# Density = 2.753882 g / cm^3
# Si number density = 27.601645 Si / 1000 Ang^3
#
#
#
# Elastic Constant Matrix: (Units=GPa)
#
#
# Indices 1 2 3 4 5 6 
#
# 1 49.9041 2.0777 11.6158 0.0000 0.0000 0.0000
# 2 2.0777 70.2513 14.2156 0.0000 0.0000 0.0000
# 3 11.6158 14.2156 134.4259 0.0000 0.0000 0.0000
# 4 0.0000 0.0000 0.0000 70.1215 0.0000 0.0000
# 5 0.0000 0.0000 0.0000 0.0000 33.2745 0.0000
# 6 0.0000 0.0000 0.0000 0.0000 0.0000 37.4385
#
#
#
# Elastic Compliance Matrix: (Units=1/GPa)
#
#
# Indices 1 2 3 4 5 6 
#
# 1 0.020454 -0.000253 -0.001741 0.000000 0.000000 0.000000
# 2 -0.000253 0.014549 -0.001517 0.000000 0.000000 0.000000
# 3 -0.001741 -0.001517 0.007750 0.000000 0.000000 0.000000
# 4 0.000000 0.000000 0.000000 0.014261 0.000000 0.000000
# 5 0.000000 0.000000 0.000000 0.000000 0.030053 0.000000
# 6 0.000000 0.000000 0.000000 0.000000 0.000000 0.026710
#
#
# Mechanical properties :
#
#
# Convention : Reuss Voigt Hill
#
# Bulk Modulus (GPa) = 27.98561 34.48886 31.23723
# Shear Modulus (GPa) = 37.67651 43.27838 40.47744
#
# Velocity S-wave (km/s) = 3.69861 3.96405 3.83363
# Velocity P-wave (km/s) = 5.32924 5.78566 5.56213
#
# Compressibility (1/GPa) = 0.03573266
#
# Stress axis : x y z
#
# Youngs Moduli (GPa) = 48.88990 68.73326 129.03468
#
# Poissons Ratio (x) = 0.01737 0.22462
# Poissons Ratio (y) = 0.01235 0.19571
# Poissons Ratio (z) = 0.08510 0.10425
#
# Static dielectric constant tensor:
#      x y z
#    x 2.110780 0.000000 0.000000 
#    y 0.000000 2.265290 0.000000 
#    z 0.000000 0.000000 2.143100 
# 
# From -- ./inp_files/4699.got.cif
#   From: 2010.05.17/outbox.cif.g08.bks.cpg/sg64_3_cif.got.tgz:4699.got - 2010.06.03 16:29:19.
