data_PCOD9480385
_publ_section_title
;
Structure prediction by ZEFSAII (Michael W. Deem and Ramdas Pophale) SiO2 
 PCOD9480385
Probable space group: C M C A
;
_chemical_formula_sum "Si O2"
_cell_formula_units_Z 80
_cell_length_a 26.382674
_cell_length_b 12.734303
_cell_length_c 10.723346
_cell_angle_alpha 90.000000
_cell_angle_beta 90.000000
_cell_angle_gamma 90.000000
_cell_volume 3602.668560
_symmetry_space_group_name_H-M "C M C A"
_symmetry_group_IT_number 64
_symmetry_cell_setting 'orthorhombic'
loop_
_space_group_symop_operation_xyz
x,y,z
-x,1/2-y,1/2+z
x,-y,-z
-x,1/2+y,1/2-z
-x,-y,-z
x,1/2+y,1/2-z
-x,y,z
x,1/2-y,1/2+z
1/2+x,1/2+y,z
1/2-x,-y,1/2+z
1/2+x,1/2-y,-z
1/2-x,y,1/2-z
1/2-x,1/2-y,-z
1/2+x,y,1/2-z
1/2-x,1/2+y,z
1/2+x,-y,1/2+z
loop_
_atom_site_type_symbol
_atom_site_label
_atom_site_fract_x
_atom_site_fract_y
_atom_site_fract_z
Si Si1 0.944176 0.359340 0.890884
Si Si2 0.682472 0.083749 0.393225
Si Si3 0.412168 0.263828 0.867648
Si Si4 0.333377 0.392461 0.282335
Si Si5 0.643565 0.000000 0.000000
Si Si6 0.250000 0.267757 0.750000
O O1 0.940576 0.317456 0.748663
O O2 0.000000 0.408455 0.903810
O O3 0.939047 0.274414 0.005039
O O4 0.896175 0.434592 0.915359
O O5 0.633972 0.159612 0.409654
O O6 0.729298 0.157536 0.358188
O O7 0.691491 0.000000 0.500000
O O8 0.670619 0.004351 0.280769
O O9 0.387576 0.162021 0.798930
O O10 0.321431 0.418731 0.426077
O O11 0.296404 0.309252 0.218635
#
# Coordination Sequence:
#
# PCOD9480385 Si02
#       6
#    16  16  16  16   8   8
#     4  11  21  39  65  98 131 169 224 278 335 407
#     4  11  22  42  65  90 131 174 219 275 335 403
#     4  10  22  39  66  96 130 178 217 272 344 399
#     4  10  21  42  63  90 129 167 221 265 326 398
#     4  10  21  40  68  88 126 182 218 268 335 406
#     4  10  24  42  60 100 122 166 222 272 328 380
#
# _framework density 22.205763000000001
#
# number of rings (size 3 to 8) (size 9 to 14) (size 15 to 20)
#    0.000    1.600    2.000    2.700    0.000    0.800 
#    7.200    0.000    0.000    2.400    0.000    0.000 
#    0.000    0.000    0.000    0.000    0.000    0.000 
#
# Total GULP energy -222992.052410 kJ/mol
# GULP energy per Si atom -5574.801310 kJ/mol
# Density = 2.215522 g / cm^3
# Si number density = 22.205763 Si / 1000 Ang^3
#
#
#
# Elastic Constant Matrix: (Units=GPa)
#
#
# Indices 1 2 3 4 5 6 
#
# 1 58.6443 26.0005 47.8606 0.0000 0.0000 0.0000
# 2 26.0005 99.5495 31.7815 0.0000 0.0000 0.0000
# 3 47.8606 31.7815 94.4103 0.0000 0.0000 0.0000
# 4 0.0000 0.0000 0.0000 30.1111 0.0000 0.0000
# 5 0.0000 0.0000 0.0000 0.0000 -9.1840 0.0000
# 6 0.0000 0.0000 0.0000 0.0000 0.0000 6.6996
#
#
#
# Elastic Compliance Matrix: (Units=1/GPa)
#
#
# Indices 1 2 3 4 5 6 
#
# 1 0.030047 -0.003344 -0.014106 0.000000 0.000000 0.000000
# 2 -0.003344 0.011627 -0.002219 0.000000 0.000000 0.000000
# 3 -0.014106 -0.002219 0.018490 0.000000 0.000000 0.000000
# 4 0.000000 0.000000 0.000000 0.033210 0.000000 0.000000
# 5 0.000000 0.000000 0.000000 0.000000 -0.108885 0.000000
# 6 0.000000 0.000000 0.000000 0.000000 0.000000 0.149262
#
#
# Mechanical properties :
#
#
# Convention : Reuss Voigt Hill
#
# Bulk Modulus (GPa) = 48.01783 51.54324 49.78053
# Shear Modulus (GPa) = 27.77274 15.32278 21.54776
#
# Velocity S-wave (km/s) = 3.54036 2.62970 3.11845
# Velocity P-wave (km/s) = 6.19542 5.69934 5.95255
#
# Compressibility (1/GPa) = 0.02082560
#
# Stress axis : x y z
#
# Youngs Moduli (GPa) = 33.28102 86.00651 54.08302
#
# Poissons Ratio (x) = 0.28763 0.76292
# Poissons Ratio (y) = 0.11130 0.11999
# Poissons Ratio (z) = 0.46948 0.19082
#
# Static dielectric constant tensor:
#      x y z
#    x 1.812790 0.000000 0.000000 
#    y 0.000000 1.859120 0.000000 
#    z 0.000000 0.000000 1.015500 
# 
# From -- ./inp_files/19625.got.cif
#   From: 2010.05.17/outbox.cif.g08.bks.cpg/sg64_10_cif.got.tgz:19625.got - 2010.06.03 16:29:19.
