data_PCOD9480873
_publ_section_title
;
Structure prediction by ZEFSAII (Michael W. Deem and Ramdas Pophale) SiO2 
 PCOD9480873
Probable space group: C M C A
;
_chemical_formula_sum "Si O2"
_cell_formula_units_Z 72
_cell_length_a 26.946371
_cell_length_b 14.141736
_cell_length_c 8.526816
_cell_angle_alpha 90.000000
_cell_angle_beta 90.000000
_cell_angle_gamma 90.000000
_cell_volume 3249.300683
_symmetry_space_group_name_H-M "C M C A"
_symmetry_group_IT_number 64
_symmetry_cell_setting 'orthorhombic'
loop_
_space_group_symop_operation_xyz
x,y,z
-x,1/2-y,1/2+z
x,-y,-z
-x,1/2+y,1/2-z
-x,-y,-z
x,1/2+y,1/2-z
-x,y,z
x,1/2-y,1/2+z
1/2+x,1/2+y,z
1/2-x,-y,1/2+z
1/2+x,1/2-y,-z
1/2-x,y,1/2-z
1/2-x,1/2-y,-z
1/2+x,y,1/2-z
1/2-x,1/2+y,z
1/2+x,-y,1/2+z
loop_
_atom_site_type_symbol
_atom_site_label
_atom_site_fract_x
_atom_site_fract_y
_atom_site_fract_z
Si Si1 0.553980 0.108633 0.195602
Si Si2 0.583466 0.216012 0.886471
Si Si3 0.819563 0.678605 0.512208
Si Si4 0.399989 0.948606 0.348390
Si Si5 0.750000 0.205796 0.250000
O O1 0.500000 0.061212 0.201566
O O2 0.558495 0.187359 0.330553
O O3 0.596832 0.031657 0.220910
O O4 0.560078 0.163219 0.033276
O O5 0.638886 0.248858 0.940998
O O6 0.579866 0.144422 0.739386
O O7 0.848387 0.591414 0.587581
O O8 0.786191 0.730573 0.642053
O O9 0.784431 0.649182 0.369311
O O10 0.424842 0.000000 0.500000
#
# Coordination Sequence:
#
# PCOD9480873 Si02
#       5
#    16  16  16  16   8
#     4  12  26  44  72 106 141 191 245 292 342 426
#     4  12  23  47  74  98 148 192 229 294 363 417
#     4  11  21  44  72 102 135 186 222 293 363 411
#     4  12  25  44  71 101 147 182 233 293 358 418
#     4  10  22  40  80  98 132 178 244 286 348 444
#
# _framework density 22.158614
#
# number of rings (size 3 to 8) (size 9 to 14) (size 15 to 20)
#    0.000    0.444    6.667    1.333    0.000    3.111 
#    0.000    1.111    0.000    0.000    0.000    0.000 
#    0.000    0.000    0.000    0.000    0.000    0.000 
#
# Total GULP energy -201006.541859 kJ/mol
# GULP energy per Si atom -5583.515052 kJ/mol
# Density = 2.210818 g / cm^3
# Si number density = 22.158614 Si / 1000 Ang^3
#
#
#
# Elastic Constant Matrix: (Units=GPa)
#
#
# Indices 1 2 3 4 5 6 
#
# 1 97.3717 39.2032 51.5249 0.0000 0.0000 0.0000
# 2 39.2032 119.0325 28.9164 0.0000 0.0000 0.0000
# 3 51.5249 28.9164 101.4691 0.0000 0.0000 0.0000
# 4 0.0000 0.0000 0.0000 51.7933 0.0000 0.0000
# 5 0.0000 0.0000 0.0000 0.0000 20.1120 0.0000
# 6 0.0000 0.0000 0.0000 0.0000 0.0000 19.0842
#
#
#
# Elastic Compliance Matrix: (Units=1/GPa)
#
#
# Indices 1 2 3 4 5 6 
#
# 1 0.015202 -0.003364 -0.006761 0.000000 0.000000 0.000000
# 2 -0.003364 0.009771 -0.001076 0.000000 0.000000 0.000000
# 3 -0.006761 -0.001076 0.013595 0.000000 0.000000 0.000000
# 4 0.000000 0.000000 0.000000 0.019308 0.000000 0.000000
# 5 0.000000 0.000000 0.000000 0.000000 0.049722 0.000000
# 6 0.000000 0.000000 0.000000 0.000000 0.000000 0.052399
#
#
# Mechanical properties :
#
#
# Convention : Reuss Voigt Hill
#
# Bulk Modulus (GPa) = 61.86086 61.90691 61.88389
# Shear Modulus (GPa) = 26.62604 31.41314 29.01959
#
# Velocity S-wave (km/s) = 3.47019 3.76925 3.62281
# Velocity P-wave (km/s) = 6.63582 6.85141 6.74448
#
# Compressibility (1/GPa) = 0.01616531
#
# Stress axis : x y z
#
# Youngs Moduli (GPa) = 65.78137 102.34877 73.55758
#
# Poissons Ratio (x) = 0.34434 0.49729
# Poissons Ratio (y) = 0.22131 0.07915
# Poissons Ratio (z) = 0.44472 0.11013
#
# Static dielectric constant tensor:
#      x y z
#    x 1.838410 0.000000 0.000000 
#    y 0.000000 1.793950 0.000000 
#    z 0.000000 0.000000 1.864490 
# 
# From -- ./inp_files/10012.got.cif
#   From: 2010.05.17/outbox.cif.g08.bks.cpg/sg64_6_cif.got.tgz:10012.got - 2010.06.03 16:29:19.
