data_PCOD9480120
_publ_section_title
;
Structure prediction by ZEFSAII (Michael W. Deem and Ramdas Pophale) SiO2 
 PCOD9480120
Probable space group: C M C A
;
_chemical_formula_sum "Si O2"
_cell_formula_units_Z 96
_cell_length_a 14.805533
_cell_length_b 20.177459
_cell_length_c 14.024227
_cell_angle_alpha 90.000000
_cell_angle_beta 90.000000
_cell_angle_gamma 90.000000
_cell_volume 4189.570018
_symmetry_space_group_name_H-M "C M C A"
_symmetry_group_IT_number 64
_symmetry_cell_setting 'orthorhombic'
loop_
_space_group_symop_operation_xyz
x,y,z
-x,1/2-y,1/2+z
x,-y,-z
-x,1/2+y,1/2-z
-x,-y,-z
x,1/2+y,1/2-z
-x,y,z
x,1/2-y,1/2+z
1/2+x,1/2+y,z
1/2-x,-y,1/2+z
1/2+x,1/2-y,-z
1/2-x,y,1/2-z
1/2-x,1/2-y,-z
1/2+x,y,1/2-z
1/2-x,1/2+y,z
1/2+x,-y,1/2+z
loop_
_atom_site_type_symbol
_atom_site_label
_atom_site_fract_x
_atom_site_fract_y
_atom_site_fract_z
Si Si1 0.895508 0.945368 0.417830
Si Si2 0.399872 0.164640 0.178573
Si Si3 0.107108 0.448367 0.299011
Si Si4 0.324722 0.200454 0.671739
Si Si5 0.241677 0.653129 0.006399
Si Si6 0.107568 0.585079 0.376288
O O1 0.878944 0.970461 0.310801
O O2 0.823542 0.888763 0.437148
O O3 0.000000 0.921761 0.419988
O O4 0.885582 0.000000 0.500000
O O5 0.500000 0.142270 0.145570
O O6 0.399897 0.244223 0.190502
O O7 0.321833 0.155682 0.100435
O O8 0.381306 0.126232 0.277229
O O9 0.145825 0.375632 0.315676
O O10 0.139942 0.509465 0.362288
O O11 0.000000 0.443876 0.314381
O O12 0.250000 0.215611 0.750000
O O13 0.281375 0.207657 0.566868
O O14 0.332345 0.617982 0.043320
O O15 0.000000 0.585744 0.397668
#
# Coordination Sequence:
#
# PCOD9480120 Si02
#       6
#    16  16  16  16  16  16
#     4  10  21  38  64  99 134 174 225 279 334 394
#     4  11  25  47  70  97 133 182 231 286 340 405
#     4  10  22  43  66  96 136 180 223 277 341 407
#     4  12  25  42  64 101 140 178 226 281 344 404
#     4  12  24  41  70  99 135 176 232 275 341 405
#     4  10  24  45  71  99 138 181 228 279 341 410
#
# _framework density 22.914045999999999
#
# number of rings (size 3 to 8) (size 9 to 14) (size 15 to 20)
#    0.000    1.167    1.667    4.000    2.333    5.333 
#    0.000    3.333    0.000    0.000    0.000    0.000 
#    0.000    0.000    0.000    0.000    0.000    0.000 
#
# Total GULP energy -268289.575740 kJ/mol
# GULP energy per Si atom -5589.366161 kJ/mol
# Density = 2.286189 g / cm^3
# Si number density = 22.914046 Si / 1000 Ang^3
#
#
#
# Elastic Constant Matrix: (Units=GPa)
#
#
# Indices 1 2 3 4 5 6 
#
# 1 62.6554 3.0773 9.3718 0.0000 0.0000 0.0000
# 2 3.0773 47.0465 5.6018 0.0000 0.0000 0.0000
# 3 9.3718 5.6018 67.2795 0.0000 0.0000 0.0000
# 4 0.0000 0.0000 0.0000 13.2868 0.0000 0.0000
# 5 0.0000 0.0000 0.0000 0.0000 13.0739 0.0000
# 6 0.0000 0.0000 0.0000 0.0000 0.0000 43.1492
#
#
#
# Elastic Compliance Matrix: (Units=1/GPa)
#
#
# Indices 1 2 3 4 5 6 
#
# 1 0.016330 -0.000805 -0.002208 0.000000 0.000000 0.000000
# 2 -0.000805 0.021508 -0.001679 0.000000 0.000000 0.000000
# 3 -0.002208 -0.001679 0.015311 0.000000 0.000000 0.000000
# 4 0.000000 0.000000 0.000000 0.075263 0.000000 0.000000
# 5 0.000000 0.000000 0.000000 0.000000 0.076488 0.000000
# 6 0.000000 0.000000 0.000000 0.000000 0.000000 0.023175
#
#
# Mechanical properties :
#
#
# Convention : Reuss Voigt Hill
#
# Bulk Modulus (GPa) = 22.84895 23.67592 23.26243
# Shear Modulus (GPa) = 19.83754 24.49731 22.16743
#
# Velocity S-wave (km/s) = 2.94553 3.27325 3.11371
# Velocity P-wave (km/s) = 4.64343 4.96392 4.80635
#
# Compressibility (1/GPa) = 0.04376568
#
# Stress axis : x y z
#
# Youngs Moduli (GPa) = 61.23661 46.49403 65.31393
#
# Poissons Ratio (x) = 0.03744 0.14419
# Poissons Ratio (y) = 0.04931 0.10964
# Poissons Ratio (z) = 0.13519 0.07805
#
# Static dielectric constant tensor:
#      x y z
#    x 1.814720 0.000000 0.000000 
#    y 0.000000 1.896230 0.000000 
#    z 0.000000 0.000000 1.857600 
# 
# From -- ./inp_files/23863.got.cif
#   From: 2010.05.17/outbox.cif.g08.bks.cpg/sg64_12_cif.got.tgz:23863.got - 2010.06.03 16:29:19.
