data_PCOD9480727
_publ_section_title
;
Structure prediction by ZEFSAII (Michael W. Deem and Ramdas Pophale) SiO2 
 PCOD9480727
Probable space group: C M C A
;
_chemical_formula_sum "Si O2"
_cell_formula_units_Z 80
_cell_length_a 16.223388
_cell_length_b 24.118813
_cell_length_c 8.264126
_cell_angle_alpha 90.000000
_cell_angle_beta 90.000000
_cell_angle_gamma 90.000000
_cell_volume 3233.660453
_symmetry_space_group_name_H-M "C M C A"
_symmetry_group_IT_number 64
_symmetry_cell_setting 'orthorhombic'
loop_
_space_group_symop_operation_xyz
x,y,z
-x,1/2-y,1/2+z
x,-y,-z
-x,1/2+y,1/2-z
-x,-y,-z
x,1/2+y,1/2-z
-x,y,z
x,1/2-y,1/2+z
1/2+x,1/2+y,z
1/2-x,-y,1/2+z
1/2+x,1/2-y,-z
1/2-x,y,1/2-z
1/2-x,1/2-y,-z
1/2+x,y,1/2-z
1/2-x,1/2+y,z
1/2+x,-y,1/2+z
loop_
_atom_site_type_symbol
_atom_site_label
_atom_site_fract_x
_atom_site_fract_y
_atom_site_fract_z
Si Si1 0.404423 0.760844 0.012267
Si Si2 0.903269 0.429819 0.880682
Si Si3 0.841419 0.865695 0.311237
Si Si4 0.901449 0.027540 0.838087
Si Si5 0.844480 0.168725 0.208196
O O1 0.500000 0.746167 0.015072
O O2 0.386710 0.808712 0.145695
O O3 0.353031 0.705446 0.047997
O O4 0.381028 0.790825 0.846322
O O5 0.876088 0.489432 0.815065
O O6 0.894501 0.387974 0.727803
O O7 0.000000 0.430980 0.932220
O O8 0.849890 0.401198 0.021129
O O9 0.750000 0.854394 0.250000
O O10 0.879930 0.908635 0.184519
O O11 0.000000 0.022354 0.841545
O O12 0.866534 0.000000 0.000000
O O13 0.750000 0.157864 0.250000
#
# Coordination Sequence:
#
# PCOD9480727 Si02
#       5
#    16  16  16  16  16
#     4  11  23  42  64  88 121 163 207 246 300 370
#     4  10  22  43  66  88 122 169 211 247 302 372
#     4  11  23  38  60  89 121 158 203 253 307 359
#     4  10  22  39  61  90 122 159 204 249 297 362
#     4  11  23  39  62  92 125 158 200 254 308 358
#
# _framework density 24.739767000000001
#
# number of rings (size 3 to 8) (size 9 to 14) (size 15 to 20)
#    0.000    1.400    0.000    6.600    0.000   10.400 
#    0.000    4.000    0.000    0.000    0.000    0.000 
#    0.000    0.000    0.000    0.000    0.000    0.000 
#
# Total GULP energy -223988.770582 kJ/mol
# GULP energy per Si atom -5599.719265 kJ/mol
# Density = 2.468346 g / cm^3
# Si number density = 24.739767 Si / 1000 Ang^3
#
#
#
# Elastic Constant Matrix: (Units=GPa)
#
#
# Indices 1 2 3 4 5 6 
#
# 1 75.6977 -4.4270 7.8897 0.0000 0.0000 0.0000
# 2 -4.4270 114.2436 13.2842 0.0000 0.0000 0.0000
# 3 7.8897 13.2842 66.9777 0.0000 0.0000 0.0000
# 4 0.0000 0.0000 0.0000 21.3658 0.0000 0.0000
# 5 0.0000 0.0000 0.0000 0.0000 35.3671 0.0000
# 6 0.0000 0.0000 0.0000 0.0000 0.0000 29.9407
#
#
#
# Elastic Compliance Matrix: (Units=1/GPa)
#
#
# Indices 1 2 3 4 5 6 
#
# 1 0.013432 0.000721 -0.001725 0.000000 0.000000 0.000000
# 2 0.000721 0.008999 -0.001870 0.000000 0.000000 0.000000
# 3 -0.001725 -0.001870 0.015504 0.000000 0.000000 0.000000
# 4 0.000000 0.000000 0.000000 0.046804 0.000000 0.000000
# 5 0.000000 0.000000 0.000000 0.000000 0.028275 0.000000
# 6 0.000000 0.000000 0.000000 0.000000 0.000000 0.033399
#
#
# Mechanical properties :
#
#
# Convention : Reuss Voigt Hill
#
# Bulk Modulus (GPa) = 31.06781 32.26809 31.66795
# Shear Modulus (GPa) = 30.69549 33.34619 32.02084
#
# Velocity S-wave (km/s) = 3.52623 3.67533 3.60155
# Velocity P-wave (km/s) = 5.40038 5.57513 5.48845
#
# Compressibility (1/GPa) = 0.03218765
#
# Stress axis : x y z
#
# Youngs Moduli (GPa) = 74.44669 111.12862 64.49780
#
# Poissons Ratio (x) = -0.08014 0.11128
# Poissons Ratio (y) = -0.05369 0.12059
# Poissons Ratio (z) = 0.12844 0.20778
#
# Static dielectric constant tensor:
#      x y z
#    x 1.877920 0.000000 0.000000 
#    y 0.000000 1.912330 0.000000 
#    z 0.000000 0.000000 2.098030 
# 
# From -- ./inp_files/7139.got.cif
#   From: 2010.05.17/outbox.cif.g08.bks.cpg/sg64_4_cif.got.tgz:7139.got - 2010.06.03 16:29:19.
