data_PCOD9480070
_publ_section_title
;
Structure prediction by ZEFSAII (Michael W. Deem and Ramdas Pophale) SiO2 
 PCOD9480070
Probable space group: C M C A
;
_chemical_formula_sum "Si O2"
_cell_formula_units_Z 52
_cell_length_a 23.387578
_cell_length_b 18.124607
_cell_length_c 5.103737
_cell_angle_alpha 90.000000
_cell_angle_beta 90.000000
_cell_angle_gamma 90.000000
_cell_volume 2163.426445
_symmetry_space_group_name_H-M "C M C A"
_symmetry_group_IT_number 64
_symmetry_cell_setting 'orthorhombic'
loop_
_space_group_symop_operation_xyz
x,y,z
-x,1/2-y,1/2+z
x,-y,-z
-x,1/2+y,1/2-z
-x,-y,-z
x,1/2+y,1/2-z
-x,y,z
x,1/2-y,1/2+z
1/2+x,1/2+y,z
1/2-x,-y,1/2+z
1/2+x,1/2-y,-z
1/2-x,y,1/2-z
1/2-x,1/2-y,-z
1/2+x,y,1/2-z
1/2-x,1/2+y,z
1/2+x,-y,1/2+z
loop_
_atom_site_type_symbol
_atom_site_label
_atom_site_fract_x
_atom_site_fract_y
_atom_site_fract_z
Si Si1 0.931665 0.204067 0.630202
Si Si2 0.391069 0.434364 0.684715
Si Si3 0.281917 0.412047 0.995961
Si Si4 0.500000 0.000000 0.500000
O O1 0.919118 0.230557 0.923028
O O2 0.902119 0.132433 0.514208
O O3 0.000000 0.189658 0.621892
O O4 0.366512 0.500000 0.500000
O O5 0.449580 0.462484 0.814430
O O6 0.348320 0.410031 0.915760
O O7 0.250000 0.381436 0.250000
O O8 0.270886 0.500000 0.000000
O O9 0.250000 0.377396 0.750000
#
# Coordination Sequence:
#
# PCOD9480070 Si02
#       4
#    16  16  16   4
#     4  10  24  41  62  92 140 192 231 269 338 428
#     4  12  25  41  69 102 145 177 233 295 351 407
#     4  10  21  38  61  92 128 171 220 278 341 395
#     4  12  26  36  64 110 144 172 220 296 354 402
#
# _framework density 24.035945999999999
#
# number of rings (size 3 to 8) (size 9 to 14) (size 15 to 20)
#    0.000    1.231    3.077    3.231    4.308    0.000 
#    0.000    0.000    0.000    5.538    0.000    0.000 
#    0.000    5.538    0.000    0.000    0.000    0.000 
#
# Total GULP energy -144917.944129 kJ/mol
# GULP energy per Si atom -5573.767082 kJ/mol
# Density = 2.398124 g / cm^3
# Si number density = 24.035946 Si / 1000 Ang^3
#
#
#
# Elastic Constant Matrix: (Units=GPa)
#
#
# Indices 1 2 3 4 5 6 
#
# 1 158.9584 15.9432 67.8372 0.0000 0.0000 0.0000
# 2 15.9432 59.1837 -2.7661 0.0000 0.0000 0.0000
# 3 67.8372 -2.7661 131.0179 0.0000 0.0000 0.0000
# 4 0.0000 0.0000 0.0000 22.0848 0.0000 0.0000
# 5 0.0000 0.0000 0.0000 0.0000 -24.1287 0.0000
# 6 0.0000 0.0000 0.0000 0.0000 0.0000 -120.5338
#
#
#
# Elastic Compliance Matrix: (Units=1/GPa)
#
#
# Indices 1 2 3 4 5 6 
#
# 1 0.008423 -0.002475 -0.004413 0.000000 0.000000 0.000000
# 2 -0.002475 0.017641 0.001654 0.000000 0.000000 0.000000
# 3 -0.004413 0.001654 0.009953 0.000000 0.000000 0.000000
# 4 0.000000 0.000000 0.000000 0.045280 0.000000 0.000000
# 5 0.000000 0.000000 0.000000 0.000000 -0.041444 0.000000
# 6 0.000000 0.000000 0.000000 0.000000 0.000000 -0.008296
#
#
# Mechanical properties :
#
#
# Convention : Reuss Voigt Hill
#
# Bulk Modulus (GPa) = 39.14363 56.79874 47.97118
# Shear Modulus (GPa) = 98.93297 -6.63915 46.14691
#
# Velocity S-wave (km/s) = 6.42260 -1.66378 4.38643
# Velocity P-wave (km/s) = 8.44515 4.47115 6.75691
#
# Compressibility (1/GPa) = 0.02554694
#
# Stress axis : x y z
#
# Youngs Moduli (GPa) = 118.72800 56.68728 100.47714
#
# Poissons Ratio (x) = 0.14031 0.44343
# Poissons Ratio (y) = 0.29388 -0.16619
# Poissons Ratio (z) = 0.52398 -0.09376
#
# Static dielectric constant tensor:
#      x y z
#    x 1.947390 0.000000 0.000000 
#    y 0.000000 1.920020 0.000000 
#    z 0.000000 0.000000 1.976480 
# 
# From -- ./inp_files/1560.got.cif
#   From: 2010.05.17/outbox.cif.g08.bks.cpg/sg64_1_cif.got.tgz:1560.got - 2010.06.03 16:29:19.
