data_PCOD9480831
_publ_section_title
;
Structure prediction by ZEFSAII (Michael W. Deem and Ramdas Pophale) SiO2 
 PCOD9480831
Probable space group: C M C A
;
_chemical_formula_sum "Si O2"
_cell_formula_units_Z 80
_cell_length_a 18.176347
_cell_length_b 13.628942
_cell_length_c 15.337589
_cell_angle_alpha 90.000000
_cell_angle_beta 90.000000
_cell_angle_gamma 90.000000
_cell_volume 3799.494711
_symmetry_space_group_name_H-M "C M C A"
_symmetry_group_IT_number 64
_symmetry_cell_setting 'orthorhombic'
loop_
_space_group_symop_operation_xyz
x,y,z
-x,1/2-y,1/2+z
x,-y,-z
-x,1/2+y,1/2-z
-x,-y,-z
x,1/2+y,1/2-z
-x,y,z
x,1/2-y,1/2+z
1/2+x,1/2+y,z
1/2-x,-y,1/2+z
1/2+x,1/2-y,-z
1/2-x,y,1/2-z
1/2-x,1/2-y,-z
1/2+x,y,1/2-z
1/2-x,1/2+y,z
1/2+x,-y,1/2+z
loop_
_atom_site_type_symbol
_atom_site_label
_atom_site_fract_x
_atom_site_fract_y
_atom_site_fract_z
Si Si1 0.234627 0.948807 0.583187
Si Si2 0.783983 0.649560 0.847413
Si Si3 0.850950 0.770768 0.602480
Si Si4 0.643473 0.662558 0.195936
Si Si5 0.500000 0.155351 0.561819
Si Si6 0.000000 0.940645 0.869896
O O1 0.177390 0.866412 0.551155
O O2 0.290730 0.899188 0.650945
O O3 0.273111 0.000000 0.500000
O O4 0.195029 0.039584 0.629821
O O5 0.750000 0.648156 0.750000
O O6 0.714772 0.691507 0.902345
O O7 0.848017 0.730564 0.849306
O O8 0.852523 0.812302 0.701847
O O9 0.927236 0.720649 0.577385
O O10 0.571260 0.601551 0.177291
O O11 0.500000 0.108557 0.465718
O O12 0.500000 0.058529 0.623226
#
# Coordination Sequence:
#
# PCOD9480831 Si02
#       6
#    16  16  16  16   8   8
#     4  11  23  35  64  96 126 161 208 263 317 368
#     4   9  19  37  62  87 119 158 204 254 313 377
#     4  10  22  42  62  89 127 167 209 258 313 388
#     4  10  22  40  64  90 125 165 213 259 313 386
#     4  11  25  40  64  89 127 165 210 265 319 370
#     4  11  25  40  65  94 124 162 215 266 313 374
#
# _framework density 21.055432
#
# number of rings (size 3 to 8) (size 9 to 14) (size 15 to 20)
#    0.000    1.800    0.000    4.800    8.400    3.200 
#    0.000    1.500    0.000    0.000    0.000    0.000 
#    0.000    0.000    0.000    0.000    0.000    0.000 
#
# Total GULP energy -223337.276143 kJ/mol
# GULP energy per Si atom -5583.431904 kJ/mol
# Density = 2.100751 g / cm^3
# Si number density = 21.055432 Si / 1000 Ang^3
#
#
#
# Elastic Constant Matrix: (Units=GPa)
#
#
# Indices 1 2 3 4 5 6 
#
# 1 108.1816 55.2052 11.1600 0.0000 0.0000 0.0000
# 2 55.2052 168.2369 30.7641 0.0000 0.0000 0.0000
# 3 11.1600 30.7641 61.0422 0.0000 0.0000 0.0000
# 4 0.0000 0.0000 0.0000 34.4816 0.0000 0.0000
# 5 0.0000 0.0000 0.0000 0.0000 23.3941 0.0000
# 6 0.0000 0.0000 0.0000 0.0000 0.0000 1.7927
#
#
#
# Elastic Compliance Matrix: (Units=1/GPa)
#
#
# Indices 1 2 3 4 5 6 
#
# 1 0.011105 -0.003605 -0.000213 0.000000 0.000000 0.000000
# 2 -0.003605 0.007718 -0.003230 0.000000 0.000000 0.000000
# 3 -0.000213 -0.003230 0.018049 0.000000 0.000000 0.000000
# 4 0.000000 0.000000 0.000000 0.029001 0.000000 0.000000
# 5 0.000000 0.000000 0.000000 0.000000 0.042746 0.000000
# 6 0.000000 0.000000 0.000000 0.000000 0.000000 0.557831
#
#
# Mechanical properties :
#
#
# Convention : Reuss Voigt Hill
#
# Bulk Modulus (GPa) = 43.90906 59.07990 51.49448
# Shear Modulus (GPa) = 7.26597 27.95576 17.61086
#
# Velocity S-wave (km/s) = 1.85967 3.64775 2.89520
# Velocity P-wave (km/s) = 5.05079 6.77211 5.97378
#
# Compressibility (1/GPa) = 0.02277434
#
# Stress axis : x y z
#
# Youngs Moduli (GPa) = 90.04613 129.57220 55.40400
#
# Poissons Ratio (x) = 0.46712 0.01183
# Poissons Ratio (y) = 0.32463 0.17898
# Poissons Ratio (z) = 0.01922 0.41858
#
# Static dielectric constant tensor:
#      x y z
#    x 1.722470 0.000000 0.000000 
#    y 0.000000 1.776430 0.000000 
#    z 0.000000 0.000000 1.859800 
# 
# From -- ./inp_files/39982.got.cif
#   From: 2010.05.17/outbox.cif.g08.bks.cpg/sg64_20_cif.got.tgz:39982.got - 2010.06.03 16:29:19.
