data_PCOD9480436
_publ_section_title
;
Structure prediction by ZEFSAII (Michael W. Deem and Ramdas Pophale) SiO2 
 PCOD9480436
Probable space group: C M C A
;
_chemical_formula_sum "Si O2"
_cell_formula_units_Z 104
_cell_length_a 20.581502
_cell_length_b 24.181296
_cell_length_c 10.347293
_cell_angle_alpha 90.000000
_cell_angle_beta 90.000000
_cell_angle_gamma 90.000000
_cell_volume 5149.717267
_symmetry_space_group_name_H-M "C M C A"
_symmetry_group_IT_number 64
_symmetry_cell_setting 'orthorhombic'
loop_
_space_group_symop_operation_xyz
x,y,z
-x,1/2-y,1/2+z
x,-y,-z
-x,1/2+y,1/2-z
-x,-y,-z
x,1/2+y,1/2-z
-x,y,z
x,1/2-y,1/2+z
1/2+x,1/2+y,z
1/2-x,-y,1/2+z
1/2+x,1/2-y,-z
1/2-x,y,1/2-z
1/2-x,1/2-y,-z
1/2+x,y,1/2-z
1/2-x,1/2+y,z
1/2+x,-y,1/2+z
loop_
_atom_site_type_symbol
_atom_site_label
_atom_site_fract_x
_atom_site_fract_y
_atom_site_fract_z
Si Si1 0.608528 0.800283 0.748704
Si Si2 0.750000 0.044945 0.750000
Si Si3 0.355767 0.970512 0.881637
Si Si4 0.832717 0.119586 0.937148
Si Si5 0.074092 0.577730 0.351913
Si Si6 0.782545 0.136188 0.375212
Si Si7 0.425575 0.281911 0.034344
O O1 0.580221 0.860783 0.712508
O O2 0.679337 0.812886 0.810674
O O3 0.603677 0.769944 0.609322
O O4 0.574240 0.767680 0.863525
O O5 0.800185 0.084219 0.825644
O O6 0.707697 0.006714 0.845555
O O7 0.399683 0.963817 0.755764
O O8 0.332921 0.909339 0.925218
O O9 0.390399 0.000000 0.000000
O O10 0.881374 0.169546 0.904884
O O11 0.875482 0.080291 0.030249
O O12 0.773625 0.145482 0.021827
O O13 0.000000 0.567386 0.389283
O O14 0.750000 0.107890 0.250000
O O15 0.500000 0.300313 0.014386
#
# Coordination Sequence:
#
# PCOD9480436 Si02
#       7
#    16   8  16  16  16  16  16
#     4  10  22  37  64  88 117 159 200 249 304 360
#     4  12  24  36  60  94 124 152 202 254 314 350
#     4  11  21  36  63  88 122 162 198 250 304 362
#     4  11  22  38  60  88 122 158 201 254 300 357
#     4  10  21  41  65  88 118 166 209 238 295 372
#     4  11  18  38  60  87 115 154 201 243 300 363
#     4  11  22  41  62  86 119 161 205 244 301 368
#
# _framework density 20.195284000000001
#
# number of rings (size 3 to 8) (size 9 to 14) (size 15 to 20)
#    0.000    1.231    6.923    2.769    0.000    2.154 
#    1.385    2.308    0.000    0.000    0.000    0.000 
#    0.000    0.000    0.000    0.000    0.000    0.000 
#
# Total GULP energy -290004.813268 kJ/mol
# GULP energy per Si atom -5577.015640 kJ/mol
# Density = 2.014932 g / cm^3
# Si number density = 20.195284 Si / 1000 Ang^3
#
#
#
# Elastic Constant Matrix: (Units=GPa)
#
#
# Indices 1 2 3 4 5 6 
#
# 1 121.5332 22.5869 37.0624 0.0000 0.0000 0.0000
# 2 22.5869 39.7499 43.8271 0.0000 0.0000 0.0000
# 3 37.0624 43.8271 95.0458 0.0000 0.0000 0.0000
# 4 0.0000 0.0000 0.0000 26.9304 0.0000 0.0000
# 5 0.0000 0.0000 0.0000 0.0000 15.9999 0.0000
# 6 0.0000 0.0000 0.0000 0.0000 0.0000 19.1186
#
#
#
# Elastic Compliance Matrix: (Units=1/GPa)
#
#
# Indices 1 2 3 4 5 6 
#
# 1 0.009476 -0.002666 -0.002466 0.000000 0.000000 0.000000
# 2 -0.002666 0.051925 -0.022904 0.000000 0.000000 0.000000
# 3 -0.002466 -0.022904 0.022044 0.000000 0.000000 0.000000
# 4 0.000000 0.000000 0.000000 0.037133 0.000000 0.000000
# 5 0.000000 0.000000 0.000000 0.000000 0.062500 0.000000
# 6 0.000000 0.000000 0.000000 0.000000 0.000000 0.052305
#
#
# Mechanical properties :
#
#
# Convention : Reuss Voigt Hill
#
# Bulk Modulus (GPa) = 36.53083 51.47574 44.00328
# Shear Modulus (GPa) = 16.63456 22.59997 19.61727
#
# Velocity S-wave (km/s) = 2.87311 3.34888 3.12008
# Velocity P-wave (km/s) = 5.39763 6.36378 5.90051
#
# Compressibility (1/GPa) = 0.02737414
#
# Stress axis : x y z
#
# Youngs Moduli (GPa) = 105.53468 19.25839 45.36333
#
# Poissons Ratio (x) = 0.05133 0.11186
# Poissons Ratio (y) = 0.28131 1.03901
# Poissons Ratio (z) = 0.26023 0.44110
#
# Static dielectric constant tensor:
#      x y z
#    x 1.766460 0.000000 0.000000 
#    y 0.000000 1.738730 0.000000 
#    z 0.000000 0.000000 1.729300 
# 
# From -- ./inp_files/8492.got.cif
#   From: 2010.05.17/outbox.cif.g08.bks.cpg/sg64_5_cif.got.tgz:8492.got - 2010.06.03 16:29:19.
