data_PCOD9480679
_publ_section_title
;
Structure prediction by ZEFSAII (Michael W. Deem and Ramdas Pophale) SiO2 
 PCOD9480679
Probable space group: C M C A
;
_chemical_formula_sum "Si O2"
_cell_formula_units_Z 96
_cell_length_a 18.721661
_cell_length_b 16.567152
_cell_length_c 13.779357
_cell_angle_alpha 90.000000
_cell_angle_beta 90.000000
_cell_angle_gamma 90.000000
_cell_volume 4273.868800
_symmetry_space_group_name_H-M "C M C A"
_symmetry_group_IT_number 64
_symmetry_cell_setting 'orthorhombic'
loop_
_space_group_symop_operation_xyz
x,y,z
-x,1/2-y,1/2+z
x,-y,-z
-x,1/2+y,1/2-z
-x,-y,-z
x,1/2+y,1/2-z
-x,y,z
x,1/2-y,1/2+z
1/2+x,1/2+y,z
1/2-x,-y,1/2+z
1/2+x,1/2-y,-z
1/2-x,y,1/2-z
1/2-x,1/2-y,-z
1/2+x,y,1/2-z
1/2-x,1/2+y,z
1/2+x,-y,1/2+z
loop_
_atom_site_type_symbol
_atom_site_label
_atom_site_fract_x
_atom_site_fract_y
_atom_site_fract_z
Si Si1 0.351330 0.883124 0.828833
Si Si2 0.229640 0.954194 0.362502
Si Si3 0.500000 0.896968 0.906194
Si Si4 0.583555 0.856188 0.617330
Si Si5 0.750000 0.229929 0.250000
Si Si6 0.500000 0.579275 0.637439
Si Si7 0.143328 0.500000 0.500000
Si Si8 0.865820 0.317110 0.135568
O O1 0.424455 0.856750 0.880526
O O2 0.372531 0.881102 0.714353
O O3 0.281859 0.826176 0.835017
O O4 0.325029 0.970398 0.863504
O O5 0.250000 0.941242 0.250000
O O6 0.188634 0.879722 0.413967
O O7 0.302727 0.972534 0.416036
O O8 0.500000 0.983129 0.848200
O O9 0.500000 0.911048 0.020765
O O10 0.500000 0.853435 0.642593
O O11 0.598329 0.924116 0.537677
O O12 0.606166 0.765036 0.586652
O O13 0.817125 0.282819 0.221240
O O14 0.569364 0.627512 0.672141
#
# Coordination Sequence:
#
# PCOD9480679 Si02
#       8
#    16  16   8  16   8   8   8  16
#     4  11  21  42  68  94 130 174 228 271 334 406
#     4  12  23  43  67 101 137 174 231 285 341 403
#     4  11  24  39  66  95 122 177 226 271 327 415
#     4  11  23  45  68  97 136 182 222 280 341 411
#     4  10  22  38  64  96 124 174 220 272 344 398
#     4  11  24  41  60  93 134 171 218 277 342 391
#     4  12  27  42  72 101 136 184 230 284 344 415
#     4  11  23  42  65  94 137 174 220 284 344 392
#
# _framework density 22.462084000000001
#
# number of rings (size 3 to 8) (size 9 to 14) (size 15 to 20)
#    0.000    0.833    6.667    1.250    2.333    0.667 
#    3.000    0.000    0.000    0.000    0.000    0.000 
#    0.000    0.000    0.000    0.000    0.000    0.000 
#
# Total GULP energy -268051.839019 kJ/mol
# GULP energy per Si atom -5584.413313 kJ/mol
# Density = 2.241096 g / cm^3
# Si number density = 22.462084 Si / 1000 Ang^3
#
#
#
# Elastic Constant Matrix: (Units=GPa)
#
#
# Indices 1 2 3 4 5 6 
#
# 1 85.8594 0.0702 -3.9545 0.0000 0.0000 0.0000
# 2 0.0702 90.8811 0.3097 0.0000 0.0000 0.0000
# 3 -3.9545 0.3097 48.2684 0.0000 0.0000 0.0000
# 4 0.0000 0.0000 0.0000 17.9586 0.0000 0.0000
# 5 0.0000 0.0000 0.0000 0.0000 14.4315 0.0000
# 6 0.0000 0.0000 0.0000 0.0000 0.0000 29.1181
#
#
#
# Elastic Compliance Matrix: (Units=1/GPa)
#
#
# Indices 1 2 3 4 5 6 
#
# 1 0.011691 -0.000012 0.000958 0.000000 0.000000 0.000000
# 2 -0.000012 0.011004 -0.000072 0.000000 0.000000 0.000000
# 3 0.000958 -0.000072 0.020796 0.000000 0.000000 0.000000
# 4 0.000000 0.000000 0.000000 0.055684 0.000000 0.000000
# 5 0.000000 0.000000 0.000000 0.000000 0.069293 0.000000
# 6 0.000000 0.000000 0.000000 0.000000 0.000000 0.034343
#
#
# Mechanical properties :
#
#
# Convention : Reuss Voigt Hill
#
# Bulk Modulus (GPa) = 22.10475 24.20663 23.15569
# Shear Modulus (GPa) = 23.13290 27.54053 25.33672
#
# Velocity S-wave (km/s) = 3.21263 3.50536 3.36218
# Velocity P-wave (km/s) = 4.86041 5.21377 5.04019
#
# Compressibility (1/GPa) = 0.04523914
#
# Stress axis : x y z
#
# Youngs Moduli (GPa) = 85.53528 90.87897 48.08520
#
# Poissons Ratio (x) = 0.00112 -0.04606
# Poissons Ratio (y) = 0.00105 0.00344
# Poissons Ratio (z) = -0.08193 0.00651
#
# Static dielectric constant tensor:
#      x y z
#    x 1.840230 0.000000 0.000000 
#    y 0.000000 1.906890 0.000000 
#    z 0.000000 0.000000 2.107100 
# 
# From -- ./inp_files/26411.got.cif
#   From: 2010.05.17/outbox.cif.g08.bks.cpg/sg64_14_cif.got.tgz:26411.got - 2010.06.03 16:29:19.
