data_PCOD9480802
_publ_section_title
;
Structure prediction by ZEFSAII (Michael W. Deem and Ramdas Pophale) SiO2 
 PCOD9480802
Probable space group: C M C A
;
_chemical_formula_sum "Si O2"
_cell_formula_units_Z 56
_cell_length_a 24.070496
_cell_length_b 23.797994
_cell_length_c 5.055859
_cell_angle_alpha 90.000000
_cell_angle_beta 90.000000
_cell_angle_gamma 90.000000
_cell_volume 2896.145281
_symmetry_space_group_name_H-M "C M C A"
_symmetry_group_IT_number 64
_symmetry_cell_setting 'orthorhombic'
loop_
_space_group_symop_operation_xyz
x,y,z
-x,1/2-y,1/2+z
x,-y,-z
-x,1/2+y,1/2-z
-x,-y,-z
x,1/2+y,1/2-z
-x,y,z
x,1/2-y,1/2+z
1/2+x,1/2+y,z
1/2-x,-y,1/2+z
1/2+x,1/2-y,-z
1/2-x,y,1/2-z
1/2-x,1/2-y,-z
1/2+x,y,1/2-z
1/2-x,1/2+y,z
1/2+x,-y,1/2+z
loop_
_atom_site_type_symbol
_atom_site_label
_atom_site_fract_x
_atom_site_fract_y
_atom_site_fract_z
Si Si1 0.627628 0.102714 0.971153
Si Si2 0.064572 0.433351 0.518632
Si Si3 0.316746 0.215676 0.760003
Si Si4 0.711406 0.000000 0.000000
O O1 0.577654 0.090849 0.768857
O O2 0.655403 0.160577 0.880751
O O3 0.603771 0.096451 0.266273
O O4 0.672709 0.053188 0.937543
O O5 0.077117 0.500000 0.500000
O O6 0.000000 0.427175 0.590152
O O7 0.331590 0.233940 0.462951
O O8 0.250000 0.208048 0.750000
O O9 0.750000 0.012995 0.250000
#
# Coordination Sequence:
#
# PCOD9480802 Si02
#       4
#    16  16  16   8
#     4  12  22  40  62  89 124 159 198 253 307 361
#     4  11  22  39  62  90 122 158 205 249 302 372
#     4  10  22  40  62  88 118 163 210 244 289 359
#     4  12  24  36  55  90 127 154 184 238 312 366
#
# _framework density 19.336048000000002
#
# number of rings (size 3 to 8) (size 9 to 14) (size 15 to 20)
#    0.000    0.857    2.857    5.143    0.000    5.714 
#    0.000    0.000    0.000   17.143    0.000    0.000 
#    0.000    0.000    0.000    0.000    0.000    0.000 
#
# Total GULP energy -156477.465033 kJ/mol
# GULP energy per Si atom -5588.480894 kJ/mol
# Density = 1.929204 g / cm^3
# Si number density = 19.336048 Si / 1000 Ang^3
#
#
#
# Elastic Constant Matrix: (Units=GPa)
#
#
# Indices 1 2 3 4 5 6 
#
# 1 63.3074 35.8201 18.2358 0.0000 0.0000 0.0000
# 2 35.8201 97.8791 6.3796 0.0000 0.0000 0.0000
# 3 18.2358 6.3796 85.2076 0.0000 0.0000 0.0000
# 4 0.0000 0.0000 0.0000 31.2646 0.0000 0.0000
# 5 0.0000 0.0000 0.0000 0.0000 37.2892 0.0000
# 6 0.0000 0.0000 0.0000 0.0000 0.0000 16.3392
#
#
#
# Elastic Compliance Matrix: (Units=1/GPa)
#
#
# Indices 1 2 3 4 5 6 
#
# 1 0.021179 -0.007492 -0.003972 0.000000 0.000000 0.000000
# 2 -0.007492 0.012917 0.000636 0.000000 0.000000 0.000000
# 3 -0.003972 0.000636 0.012538 0.000000 0.000000 0.000000
# 4 0.000000 0.000000 0.000000 0.031985 0.000000 0.000000
# 5 0.000000 0.000000 0.000000 0.000000 0.026817 0.000000
# 6 0.000000 0.000000 0.000000 0.000000 0.000000 0.061203
#
#
# Mechanical properties :
#
#
# Convention : Reuss Voigt Hill
#
# Bulk Modulus (GPa) = 40.03243 40.80724 40.41983
# Shear Modulus (GPa) = 25.42968 29.37583 27.40275
#
# Velocity S-wave (km/s) = 3.63042 3.90195 3.76864
# Velocity P-wave (km/s) = 6.19046 6.43820 6.31554
#
# Compressibility (1/GPa) = 0.02497975
#
# Stress axis : x y z
#
# Youngs Moduli (GPa) = 47.21658 77.41762 79.75487
#
# Poissons Ratio (x) = 0.58000 0.31676
# Poissons Ratio (y) = 0.35374 -0.05075
# Poissons Ratio (z) = 0.18753 -0.04926
#
# Static dielectric constant tensor:
#      x y z
#    x 1.639090 0.000000 0.000000 
#    y 0.000000 1.660410 0.000000 
#    z 0.000000 0.000000 1.659040 
# 
# From -- ./inp_files/2104.got.cif
#   From: 2010.05.17/outbox.cif.g08.bks.cpg/sg64_2_cif.got.tgz:2104.got - 2010.06.03 16:29:19.
