data_PCOD9480206
_publ_section_title
;
Structure prediction by ZEFSAII (Michael W. Deem and Ramdas Pophale) SiO2 
 PCOD9480206
Probable space group: C M C A
;
_chemical_formula_sum "Si O2"
_cell_formula_units_Z 112
_cell_length_a 17.218856
_cell_length_b 9.833938
_cell_length_c 28.304233
_cell_angle_alpha 90.000000
_cell_angle_beta 90.000000
_cell_angle_gamma 90.000000
_cell_volume 4792.732064
_symmetry_space_group_name_H-M "C M C A"
_symmetry_group_IT_number 64
_symmetry_cell_setting 'orthorhombic'
loop_
_space_group_symop_operation_xyz
x,y,z
-x,1/2-y,1/2+z
x,-y,-z
-x,1/2+y,1/2-z
-x,-y,-z
x,1/2+y,1/2-z
-x,y,z
x,1/2-y,1/2+z
1/2+x,1/2+y,z
1/2-x,-y,1/2+z
1/2+x,1/2-y,-z
1/2-x,y,1/2-z
1/2-x,1/2-y,-z
1/2+x,y,1/2-z
1/2-x,1/2+y,z
1/2+x,-y,1/2+z
loop_
_atom_site_type_symbol
_atom_site_label
_atom_site_fract_x
_atom_site_fract_y
_atom_site_fract_z
Si Si1 0.837391 0.084147 0.409210
Si Si2 0.679639 0.389441 0.212793
Si Si3 0.093291 0.145228 0.951735
Si Si4 0.088777 0.616429 0.242497
Si Si5 0.084952 0.894048 0.341561
Si Si6 0.316237 0.885525 0.549674
Si Si7 0.228117 0.752058 0.361549
O O1 0.883561 0.220732 0.422737
O O2 0.894442 0.970490 0.390490
O O3 0.698277 0.242343 0.415776
O O4 0.781858 0.119310 0.363881
O O5 0.750000 0.406147 0.250000
O O6 0.633426 0.252758 0.227456
O O7 0.628399 0.523384 0.217623
O O8 0.714238 0.361252 0.161064
O O9 0.000000 0.137779 0.958825
O O10 0.127057 0.004013 0.930466
O O11 0.142969 0.153626 0.000730
O O12 0.087426 0.509447 0.198559
O O13 0.000000 0.651847 0.253431
O O14 0.000000 0.834397 0.343947
O O15 0.149902 0.780672 0.333540
O O16 0.227853 0.944519 0.550896
#
# Coordination Sequence:
#
# PCOD9480206 Si02
#       7
#    16  16  16  16  16  16  16
#     4  10  21  39  63  88 127 171 220 261 329 401
#     4  12  23  43  71  94 131 177 235 275 334 415
#     4  11  21  39  65  98 131 175 221 279 344 404
#     4  11  24  42  65  97 134 175 220 281 345 394
#     4  11  22  40  61  90 129 169 214 276 334 387
#     4   9  21  38  65  87 130 168 219 268 337 396
#     4  10  23  40  66  90 125 173 224 266 336 398
#
# _framework density 23.368717
#
# number of rings (size 3 to 8) (size 9 to 14) (size 15 to 20)
#    0.857    0.571    2.857    3.429    0.000    1.143 
#    0.000    0.000    0.000    1.714    0.000    0.000 
#    0.000    0.000    0.000    0.000    0.000    0.000 
#
# Total GULP energy -312048.608157 kJ/mol
# GULP energy per Si atom -5572.296574 kJ/mol
# Density = 2.331553 g / cm^3
# Si number density = 23.368717 Si / 1000 Ang^3
#
#
#
# Elastic Constant Matrix: (Units=GPa)
#
#
# Indices 1 2 3 4 5 6 
#
# 1 148.1872 23.4215 42.2829 0.0000 0.0000 0.0000
# 2 23.4215 78.3054 54.4676 0.0000 0.0000 0.0000
# 3 42.2829 54.4676 89.2049 0.0000 0.0000 0.0000
# 4 0.0000 0.0000 0.0000 45.2813 0.0000 0.0000
# 5 0.0000 0.0000 0.0000 0.0000 23.5093 0.0000
# 6 0.0000 0.0000 0.0000 0.0000 0.0000 29.7185
#
#
#
# Elastic Compliance Matrix: (Units=1/GPa)
#
#
# Indices 1 2 3 4 5 6 
#
# 1 0.007811 0.000415 -0.003956 0.000000 0.000000 0.000000
# 2 0.000415 0.022221 -0.013765 0.000000 0.000000 0.000000
# 3 -0.003956 -0.013765 0.021490 0.000000 0.000000 0.000000
# 4 0.000000 0.000000 0.000000 0.022084 0.000000 0.000000
# 5 0.000000 0.000000 0.000000 0.000000 0.042536 0.000000
# 6 0.000000 0.000000 0.000000 0.000000 0.000000 0.033649
#
#
# Mechanical properties :
#
#
# Convention : Reuss Voigt Hill
#
# Bulk Modulus (GPa) = 59.13258 61.78236 60.45747
# Shear Modulus (GPa) = 26.31034 32.73686 29.52360
#
# Velocity S-wave (km/s) = 3.35905 3.74690 3.55826
# Velocity P-wave (km/s) = 6.35637 6.72417 6.54285
#
# Compressibility (1/GPa) = 0.01691115
#
# Stress axis : x y z
#
# Youngs Moduli (GPa) = 128.01778 45.00326 46.53345
#
# Poissons Ratio (x) = -0.01870 0.18410
# Poissons Ratio (y) = -0.05319 0.64051
# Poissons Ratio (z) = 0.50647 0.61945
#
# Static dielectric constant tensor:
#      x y z
#    x 1.870210 0.000000 0.000000 
#    y 0.000000 1.888290 0.000000 
#    z 0.000000 0.000000 1.966710 
# 
# From -- ./inp_files/53294.got.cif
#   From: 2010.05.17/outbox.cif.g08.bks.cpg/sg64_27_cif.got.tgz:53294.got - 2010.06.03 16:29:19.
