data_PCOD9480992
_publ_section_title
;
Structure prediction by ZEFSAII (Michael W. Deem and Ramdas Pophale) SiO2 
 PCOD9480992
Probable space group: C M C A
;
_chemical_formula_sum "Si O2"
_cell_formula_units_Z 104
_cell_length_a 25.024076
_cell_length_b 9.309827
_cell_length_c 22.244981
_cell_angle_alpha 90.000000
_cell_angle_beta 90.000000
_cell_angle_gamma 90.000000
_cell_volume 5182.409184
_symmetry_space_group_name_H-M "C M C A"
_symmetry_group_IT_number 64
_symmetry_cell_setting 'orthorhombic'
loop_
_space_group_symop_operation_xyz
x,y,z
-x,1/2-y,1/2+z
x,-y,-z
-x,1/2+y,1/2-z
-x,-y,-z
x,1/2+y,1/2-z
-x,y,z
x,1/2-y,1/2+z
1/2+x,1/2+y,z
1/2-x,-y,1/2+z
1/2+x,1/2-y,-z
1/2-x,y,1/2-z
1/2-x,1/2-y,-z
1/2+x,y,1/2-z
1/2-x,1/2+y,z
1/2+x,-y,1/2+z
loop_
_atom_site_type_symbol
_atom_site_label
_atom_site_fract_x
_atom_site_fract_y
_atom_site_fract_z
Si Si1 0.288405 0.332897 0.453422
Si Si2 0.437343 0.964867 0.430273
Si Si3 0.883167 0.500000 0.000000
Si Si4 0.645704 0.823284 0.794635
Si Si5 0.249093 0.089199 0.373120
Si Si6 0.939274 0.131384 0.390802
Si Si7 0.856332 0.497701 0.675458
O O1 0.250000 0.250000 0.500000
O O2 0.345288 0.363719 0.483945
O O3 0.282078 0.227112 0.396825
O O4 0.272268 0.490312 0.428050
O O5 0.500000 0.007956 0.421237
O O6 0.434334 0.794020 0.416835
O O7 0.423561 0.000000 0.500000
O O8 0.395796 0.028534 0.381243
O O9 0.919753 0.530029 0.056427
O O10 0.701505 0.864192 0.828431
O O11 0.599962 0.892055 0.835628
O O12 0.633159 0.654522 0.797279
O O13 0.641826 0.880599 0.727545
O O14 0.294649 0.993608 0.343682
O O15 0.000000 0.107758 0.373520
#
# Coordination Sequence:
#
# PCOD9480992 Si02
#       7
#    16  16   8  16  16  16  16
#     4  12  23  39  61  95 137 178 212 264 324 395
#     4   9  21  44  68  95 128 164 216 274 333 396
#     4  12  23  38  64  96 136 164 229 260 328 398
#     4  11  24  45  61  95 130 171 222 273 323 396
#     4  12  24  41  63  94 134 175 220 265 325 393
#     4  10  22  42  66  91 128 171 212 277 335 381
#     4  11  26  40  69  94 129 175 219 266 331 390
#
# _framework density 20.067886000000001
#
# number of rings (size 3 to 8) (size 9 to 14) (size 15 to 20)
#    0.000    1.077    4.615    0.692    6.462    1.846 
#    0.000    0.000    0.000    0.000    0.000    0.000 
#    0.000    0.000    0.000    0.000    0.000    0.000 
#
# Total GULP energy -290149.846620 kJ/mol
# GULP energy per Si atom -5579.804743 kJ/mol
# Density = 2.002221 g / cm^3
# Si number density = 20.067886 Si / 1000 Ang^3
#
#
#
# Elastic Constant Matrix: (Units=GPa)
#
#
# Indices 1 2 3 4 5 6 
#
# 1 96.7059 -2.0196 46.4292 0.0000 0.0000 0.0000
# 2 -2.0196 38.8515 9.3762 0.0000 0.0000 0.0000
# 3 46.4292 9.3762 110.9754 0.0000 0.0000 0.0000
# 4 0.0000 0.0000 0.0000 38.8628 0.0000 0.0000
# 5 0.0000 0.0000 0.0000 0.0000 18.5209 0.0000
# 6 0.0000 0.0000 0.0000 0.0000 0.0000 32.3966
#
#
#
# Elastic Compliance Matrix: (Units=1/GPa)
#
#
# Indices 1 2 3 4 5 6 
#
# 1 0.013097 0.002045 -0.005652 0.000000 0.000000 0.000000
# 2 0.002045 0.026594 -0.003102 0.000000 0.000000 0.000000
# 3 -0.005652 -0.003102 0.011638 0.000000 0.000000 0.000000
# 4 0.000000 0.000000 0.000000 0.025732 0.000000 0.000000
# 5 0.000000 0.000000 0.000000 0.000000 0.053993 0.000000
# 6 0.000000 0.000000 0.000000 0.000000 0.000000 0.030867
#
#
# Mechanical properties :
#
#
# Convention : Reuss Voigt Hill
#
# Bulk Modulus (GPa) = 26.37870 39.34494 32.86182
# Shear Modulus (GPa) = 26.59900 30.80585 28.70242
#
# Velocity S-wave (km/s) = 3.64462 3.92226 3.78599
# Velocity P-wave (km/s) = 5.55737 6.33725 5.96008
#
# Compressibility (1/GPa) = 0.03790938
#
# Stress axis : x y z
#
# Youngs Moduli (GPa) = 76.35341 37.60241 85.92647
#
# Poissons Ratio (x) = -0.07689 0.48567
# Poissons Ratio (y) = -0.15613 0.26658
# Poissons Ratio (z) = 0.43156 0.11666
#
# Static dielectric constant tensor:
#      x y z
#    x 1.700760 0.000000 0.000000 
#    y 0.000000 1.759090 0.000000 
#    z 0.000000 0.000000 1.856160 
# 
# From -- ./inp_files/41881.got.cif
#   From: 2010.05.17/outbox.cif.g08.bks.cpg/sg64_21_cif.got.tgz:41881.got - 2010.06.03 16:29:19.
