data_PCOD9480488
_publ_section_title
;
Structure prediction by ZEFSAII (Michael W. Deem and Ramdas Pophale) SiO2 
 PCOD9480488
Probable space group: C M C A
;
_chemical_formula_sum "Si O2"
_cell_formula_units_Z 88
_cell_length_a 26.558512
_cell_length_b 16.804590
_cell_length_c 10.036188
_cell_angle_alpha 90.000000
_cell_angle_beta 90.000000
_cell_angle_gamma 90.000000
_cell_volume 4479.199934
_symmetry_space_group_name_H-M "C M C A"
_symmetry_group_IT_number 64
_symmetry_cell_setting 'orthorhombic'
loop_
_space_group_symop_operation_xyz
x,y,z
-x,1/2-y,1/2+z
x,-y,-z
-x,1/2+y,1/2-z
-x,-y,-z
x,1/2+y,1/2-z
-x,y,z
x,1/2-y,1/2+z
1/2+x,1/2+y,z
1/2-x,-y,1/2+z
1/2+x,1/2-y,-z
1/2-x,y,1/2-z
1/2-x,1/2-y,-z
1/2+x,y,1/2-z
1/2-x,1/2+y,z
1/2+x,-y,1/2+z
loop_
_atom_site_type_symbol
_atom_site_label
_atom_site_fract_x
_atom_site_fract_y
_atom_site_fract_z
Si Si1 0.894856 0.928958 0.906849
Si Si2 0.691319 0.293423 0.240474
Si Si3 0.371544 0.500000 0.500000
Si Si4 0.627577 0.245703 0.503455
Si Si5 0.692324 0.981368 0.264245
Si Si6 0.440501 0.372586 0.622996
O O1 0.924390 0.902668 0.771508
O O2 0.840977 0.965036 0.861681
O O3 0.886257 0.846435 0.982292
O O4 0.917497 0.000000 0.000000
O O5 0.750000 0.271118 0.250000
O O6 0.654852 0.277564 0.368226
O O7 0.668810 0.244802 0.118347
O O8 0.690939 0.387371 0.204291
O O9 0.335888 0.510867 0.624760
O O10 0.408741 0.427400 0.523479
O O11 0.578975 0.287413 0.570494
O O12 0.750000 0.006958 0.250000
O O13 0.500000 0.379744 0.610601
#
# Coordination Sequence:
#
# PCOD9480488 Si02
#       6
#    16  16   8  16  16  16
#     4  11  24  43  68  96 137 173 226 283 330 402
#     4  11  23  40  65  98 139 184 225 274 344 409
#     4  10  21  42  64  94 130 166 227 276 326 408
#     4  12  23  44  65 101 138 174 227 285 336 411
#     4  10  22  37  64  96 134 180 219 265 328 405
#     4  11  25  45  69  95 126 176 230 287 348 398
#
# _framework density 19.646364999999999
#
# number of rings (size 3 to 8) (size 9 to 14) (size 15 to 20)
#    0.000    1.091    5.455    0.818    1.273    1.818 
#    0.000    0.000    0.000    0.000    0.000    0.000 
#    0.000    0.000    0.000    0.000    0.000    0.000 
#
# Total GULP energy -245329.768168 kJ/mol
# GULP energy per Si atom -5575.676549 kJ/mol
# Density = 1.960165 g / cm^3
# Si number density = 19.646365 Si / 1000 Ang^3
#
#
#
# Elastic Constant Matrix: (Units=GPa)
#
#
# Indices 1 2 3 4 5 6 
#
# 1 135.5194 22.8651 54.2438 0.0000 0.0000 0.0000
# 2 22.8651 64.1980 44.3141 0.0000 0.0000 0.0000
# 3 54.2438 44.3141 101.6443 0.0000 0.0000 0.0000
# 4 0.0000 0.0000 0.0000 20.9891 0.0000 0.0000
# 5 0.0000 0.0000 0.0000 0.0000 9.7374 0.0000
# 6 0.0000 0.0000 0.0000 0.0000 0.0000 48.7318
#
#
#
# Elastic Compliance Matrix: (Units=1/GPa)
#
#
# Indices 1 2 3 4 5 6 
#
# 1 0.009385 0.000164 -0.005080 0.000000 0.000000 0.000000
# 2 0.000164 0.022285 -0.009803 0.000000 0.000000 0.000000
# 3 -0.005080 -0.009803 0.016823 0.000000 0.000000 0.000000
# 4 0.000000 0.000000 0.000000 0.047644 0.000000 0.000000
# 5 0.000000 0.000000 0.000000 0.000000 0.102697 0.000000
# 6 0.000000 0.000000 0.000000 0.000000 0.000000 0.020520
#
#
# Mechanical properties :
#
#
# Convention : Reuss Voigt Hill
#
# Bulk Modulus (GPa) = 52.47999 60.46752 56.47376
# Shear Modulus (GPa) = 19.59681 27.88758 23.74220
#
# Velocity S-wave (km/s) = 3.16171 3.77168 3.48009
# Velocity P-wave (km/s) = 6.33237 7.05778 6.70489
#
# Compressibility (1/GPa) = 0.01905488
#
# Stress axis : x y z
#
# Youngs Moduli (GPa) = 106.55785 44.87256 59.44248
#
# Poissons Ratio (x) = -0.00735 0.30195
# Poissons Ratio (y) = -0.01746 0.58273
# Poissons Ratio (z) = 0.54128 0.43990
#
# Static dielectric constant tensor:
#      x y z
#    x 1.662480 0.000000 0.000000 
#    y 0.000000 1.808480 0.000000 
#    z 0.000000 0.000000 1.726690 
# 
# From -- ./inp_files/18222.got.cif
#   From: 2010.05.17/outbox.cif.g08.bks.cpg/sg64_10_cif.got.tgz:18222.got - 2010.06.03 16:29:19.
