data_PCOD9480350
_publ_section_title
;
Structure prediction by ZEFSAII (Michael W. Deem and Ramdas Pophale) SiO2 
 PCOD9480350
Probable space group: C M C A
;
_chemical_formula_sum "Si O2"
_cell_formula_units_Z 88
_cell_length_a 22.691828
_cell_length_b 12.400517
_cell_length_c 12.999588
_cell_angle_alpha 90.000000
_cell_angle_beta 90.000000
_cell_angle_gamma 90.000000
_cell_volume 3657.959253
_symmetry_space_group_name_H-M "C M C A"
_symmetry_group_IT_number 64
_symmetry_cell_setting 'orthorhombic'
loop_
_space_group_symop_operation_xyz
x,y,z
-x,1/2-y,1/2+z
x,-y,-z
-x,1/2+y,1/2-z
-x,-y,-z
x,1/2+y,1/2-z
-x,y,z
x,1/2-y,1/2+z
1/2+x,1/2+y,z
1/2-x,-y,1/2+z
1/2+x,1/2-y,-z
1/2-x,y,1/2-z
1/2-x,1/2-y,-z
1/2+x,y,1/2-z
1/2-x,1/2+y,z
1/2+x,-y,1/2+z
loop_
_atom_site_type_symbol
_atom_site_label
_atom_site_fract_x
_atom_site_fract_y
_atom_site_fract_z
Si Si1 0.228211 0.374002 0.027645
Si Si2 0.500000 0.722438 0.441454
Si Si3 0.101711 0.815224 0.412798
Si Si4 0.500000 0.571966 0.851802
Si Si5 0.250000 0.035040 0.750000
Si Si6 0.320444 0.857063 0.640716
Si Si7 0.500000 0.983068 0.138720
Si Si8 0.600616 0.500000 0.000000
O O1 0.158176 0.352732 0.021908
O O2 0.244340 0.388248 0.150205
O O3 0.236438 0.500000 0.000000
O O4 0.264400 0.318109 0.930746
O O5 0.556240 0.746041 0.512908
O O6 0.500000 0.797814 0.341009
O O7 0.500000 0.594366 0.421800
O O8 0.135299 0.740188 0.328276
O O9 0.059645 0.911995 0.374829
O O10 0.500000 0.491998 0.757836
O O11 0.558072 0.546461 0.914323
O O12 0.301740 0.946909 0.723770
O O13 0.357791 0.914956 0.553310
#
# Coordination Sequence:
#
# PCOD9480350 Si02
#       8
#    16   8  16   8   8  16   8   8
#     4  10  21  40  64  95 133 181 223 280 357 405
#     4  11  23  48  70  93 140 188 228 282 367 411
#     4  11  23  43  67  96 136 187 229 281 347 422
#     4  11  26  44  74 102 133 189 233 292 352 415
#     4  10  22  38  64  98 136 180 228 292 340 408
#     4  11  22  42  69  99 138 185 237 282 360 422
#     4  11  27  44  68 108 134 178 250 293 340 417
#     4  11  22  46  70  94 146 185 224 288 352 425
#
# _framework density 24.057129
#
# number of rings (size 3 to 8) (size 9 to 14) (size 15 to 20)
#    0.000    1.273    4.545    2.727    2.545    2.182 
#    6.545    0.000    0.000    0.000    0.000    0.000 
#    0.000    0.000    0.000    0.000    0.000    0.000 
#
# Total GULP energy -245072.680280 kJ/mol
# GULP energy per Si atom -5569.833643 kJ/mol
# Density = 2.400237 g / cm^3
# Si number density = 24.057129 Si / 1000 Ang^3
#
#
#
# Elastic Constant Matrix: (Units=GPa)
#
#
# Indices 1 2 3 4 5 6 
#
# 1 157.8246 46.8080 21.8736 0.0000 0.0000 0.0000
# 2 46.8080 64.0305 28.6991 0.0000 0.0000 0.0000
# 3 21.8736 28.6991 76.8982 0.0000 0.0000 0.0000
# 4 0.0000 0.0000 0.0000 37.0576 0.0000 0.0000
# 5 0.0000 0.0000 0.0000 0.0000 35.6583 0.0000
# 6 0.0000 0.0000 0.0000 0.0000 0.0000 -24.5195
#
#
#
# Elastic Compliance Matrix: (Units=1/GPa)
#
#
# Indices 1 2 3 4 5 6 
#
# 1 0.008091 -0.005864 -0.000113 0.000000 0.000000 0.000000
# 2 -0.005864 0.023005 -0.006918 0.000000 0.000000 0.000000
# 3 -0.000113 -0.006918 0.015618 0.000000 0.000000 0.000000
# 4 0.000000 0.000000 0.000000 0.026985 0.000000 0.000000
# 5 0.000000 0.000000 0.000000 0.000000 0.028044 0.000000
# 6 0.000000 0.000000 0.000000 0.000000 0.000000 -0.040784
#
#
# Mechanical properties :
#
#
# Convention : Reuss Voigt Hill
#
# Bulk Modulus (GPa) = 47.79049 54.83495 51.31272
# Shear Modulus (GPa) = 53.34856 23.06412 38.20634
#
# Velocity S-wave (km/s) = 4.71423 3.09968 3.98948
# Velocity P-wave (km/s) = 7.03850 5.97108 6.52665
#
# Compressibility (1/GPa) = 0.02092467
#
# Stress axis : x y z
#
# Youngs Moduli (GPa) = 123.59421 43.46895 64.02854
#
# Poissons Ratio (x) = 0.25491 0.00723
# Poissons Ratio (y) = 0.72477 0.44292
# Poissons Ratio (z) = 0.01396 0.30070
#
# Static dielectric constant tensor:
#      x y z
#    x 1.893740 0.000000 0.000000 
#    y 0.000000 2.195920 0.000000 
#    z 0.000000 0.000000 2.001630 
# 
# From -- ./inp_files/18290.got.cif
#   From: 2010.05.17/outbox.cif.g08.bks.cpg/sg64_10_cif.got.tgz:18290.got - 2010.06.03 16:29:19.
