data_PCOD9480935
_publ_section_title
;
Structure prediction by ZEFSAII (Michael W. Deem and Ramdas Pophale) SiO2 
 PCOD9480935
Probable space group: C M C A
;
_chemical_formula_sum "Si O2"
_cell_formula_units_Z 64
_cell_length_a 10.096915
_cell_length_b 8.924362
_cell_length_c 31.947850
_cell_angle_alpha 90.000000
_cell_angle_beta 90.000000
_cell_angle_gamma 90.000000
_cell_volume 2878.773626
_symmetry_space_group_name_H-M "C M C A"
_symmetry_group_IT_number 64
_symmetry_cell_setting 'orthorhombic'
loop_
_space_group_symop_operation_xyz
x,y,z
-x,1/2-y,1/2+z
x,-y,-z
-x,1/2+y,1/2-z
-x,-y,-z
x,1/2+y,1/2-z
-x,y,z
x,1/2-y,1/2+z
1/2+x,1/2+y,z
1/2-x,-y,1/2+z
1/2+x,1/2-y,-z
1/2-x,y,1/2-z
1/2-x,1/2-y,-z
1/2+x,y,1/2-z
1/2-x,1/2+y,z
1/2+x,-y,1/2+z
loop_
_atom_site_type_symbol
_atom_site_label
_atom_site_fract_x
_atom_site_fract_y
_atom_site_fract_z
Si Si1 0.219168 0.697390 0.101432
Si Si2 0.646911 0.560537 0.542742
Si Si3 0.500000 0.580888 0.691237
Si Si4 0.702917 0.955552 0.340737
Si Si5 0.500000 0.076379 0.277036
O O1 0.280262 0.809273 0.067509
O O2 0.139075 0.577549 0.074808
O O3 0.320543 0.593211 0.127451
O O4 0.156017 0.803975 0.136692
O O5 0.711818 0.500000 0.500000
O O6 0.500000 0.614457 0.531476
O O7 0.361728 0.561204 0.666301
O O8 0.500000 0.458693 0.728216
O O9 0.500000 0.747711 0.711593
O O10 0.626907 0.997069 0.298619
#
# Coordination Sequence:
#
# PCOD9480935 Si02
#       5
#    16  16   8  16   8
#     4  10  23  39  66  94 132 170 218 270 324 389
#     4  10  22  41  66  95 132 172 218 275 334 391
#     4  12  28  48  66 102 137 170 226 278 335 400
#     4  11  25  43  71  98 135 177 223 275 329 399
#     4  12  28  46  70  98 135 176 220 280 335 400
#
# _framework density 22.231688999999999
#
# number of rings (size 3 to 8) (size 9 to 14) (size 15 to 20)
#    0.000    1.250    2.500    1.500   14.000    2.000 
#    0.000    0.000    0.000    7.500    0.000    0.000 
#    0.000    0.000    0.000    0.000    0.000    0.000 
#
# Total GULP energy -178700.354861 kJ/mol
# GULP energy per Si atom -5584.386089 kJ/mol
# Density = 2.218109 g / cm^3
# Si number density = 22.231689 Si / 1000 Ang^3
#
#
#
# Elastic Constant Matrix: (Units=GPa)
#
#
# Indices 1 2 3 4 5 6 
#
# 1 91.6077 8.6153 13.1822 0.0000 0.0000 0.0000
# 2 8.6153 119.7294 18.1722 0.0000 0.0000 0.0000
# 3 13.1822 18.1722 98.2317 0.0000 0.0000 0.0000
# 4 0.0000 0.0000 0.0000 45.8222 0.0000 0.0000
# 5 0.0000 0.0000 0.0000 0.0000 29.4590 0.0000
# 6 0.0000 0.0000 0.0000 0.0000 0.0000 -0.2012
#
#
#
# Elastic Compliance Matrix: (Units=1/GPa)
#
#
# Indices 1 2 3 4 5 6 
#
# 1 0.011172 -0.000593 -0.001389 0.000000 0.000000 0.000000
# 2 -0.000593 0.008625 -0.001516 0.000000 0.000000 0.000000
# 3 -0.001389 -0.001516 0.010647 0.000000 0.000000 0.000000
# 4 0.000000 0.000000 0.000000 0.021824 0.000000 0.000000
# 5 0.000000 0.000000 0.000000 0.000000 0.033945 0.000000
# 6 0.000000 0.000000 0.000000 0.000000 0.000000 -4.969226
#
#
# Mechanical properties :
#
#
# Convention : Reuss Voigt Hill
#
# Bulk Modulus (GPa) = 42.64984 43.27868 42.96426
# Shear Modulus (GPa) = -1.02707 32.98926 15.98109
#
# Velocity S-wave (km/s) = -0.68043 3.85630 2.68403
# Velocity P-wave (km/s) = 4.31377 6.27196 5.38266
#
# Compressibility (1/GPa) = 0.02344674
#
# Stress axis : x y z
#
# Youngs Moduli (GPa) = 89.51087 115.94298 93.92389
#
# Poissons Ratio (x) = 0.06875 0.13051
# Poissons Ratio (y) = 0.05308 0.14239
# Poissons Ratio (z) = 0.12438 0.17577
#
# Static dielectric constant tensor:
#      x y z
#    x 1.852510 0.000000 0.000000 
#    y 0.000000 1.809800 0.000000 
#    z 0.000000 0.000000 1.810010 
# 
# From -- ./inp_files/52469.got.cif
#   From: 2010.05.17/outbox.cif.g08.bks.cpg/sg64_27_cif.got.tgz:52469.got - 2010.06.03 16:29:19.
