data_PCOD9480364
_publ_section_title
;
Structure prediction by ZEFSAII (Michael W. Deem and Ramdas Pophale) SiO2 
 PCOD9480364
Probable space group: C M C A
;
_chemical_formula_sum "Si O2"
_cell_formula_units_Z 88
_cell_length_a 16.865421
_cell_length_b 8.942511
_cell_length_c 31.012827
_cell_angle_alpha 90.000000
_cell_angle_beta 90.000000
_cell_angle_gamma 90.000000
_cell_volume 4677.330155
_symmetry_space_group_name_H-M "C M C A"
_symmetry_group_IT_number 64
_symmetry_cell_setting 'orthorhombic'
loop_
_space_group_symop_operation_xyz
x,y,z
-x,1/2-y,1/2+z
x,-y,-z
-x,1/2+y,1/2-z
-x,-y,-z
x,1/2+y,1/2-z
-x,y,z
x,1/2-y,1/2+z
1/2+x,1/2+y,z
1/2-x,-y,1/2+z
1/2+x,1/2-y,-z
1/2-x,y,1/2-z
1/2-x,1/2-y,-z
1/2+x,y,1/2-z
1/2-x,1/2+y,z
1/2+x,-y,1/2+z
loop_
_atom_site_type_symbol
_atom_site_label
_atom_site_fract_x
_atom_site_fract_y
_atom_site_fract_z
Si Si1 0.000000 0.026054 0.621046
Si Si2 0.862671 0.504494 0.193752
Si Si3 0.742535 0.274600 0.913915
Si Si4 0.693879 0.476724 0.147000
Si Si5 0.405166 0.340398 0.219618
Si Si6 0.139147 0.479898 0.049024
O O1 0.069771 0.027872 0.658693
O O2 0.069122 0.017487 0.583430
O O3 0.776709 0.485441 0.172671
O O4 0.873688 0.675199 0.209232
O O5 0.872543 0.399305 0.235135
O O6 0.689169 0.373182 0.881184
O O7 0.798824 0.388790 0.938942
O O8 0.796604 0.162928 0.885455
O O9 0.687550 0.174096 0.944074
O O10 0.624932 0.447030 0.181028
O O11 0.500000 0.337448 0.221058
O O12 0.112605 0.500000 0.000000
#
# Coordination Sequence:
#
# PCOD9480364 Si02
#       6
#     8  16  16  16  16  16
#     4  12  21  42  64  88 128 166 208 264 311 378
#     4  12  25  42  62  89 132 170 218 255 312 367
#     4  10  21  40  66  90 125 160 206 250 316 376
#     4  11  22  42  63  93 125 175 207 253 311 381
#     4  12  25  40  62  94 125 171 216 265 301 356
#     4  11  23  41  68  96 121 159 209 265 325 383
#
# _framework density 18.814152
#
# number of rings (size 3 to 8) (size 9 to 14) (size 15 to 20)
#    0.000    0.727    7.273    1.364    2.545    1.455 
#    4.909    0.000    0.000    0.000    0.000    7.636 
#    0.000    0.000    0.000    0.000    0.000    0.000 
#
# Total GULP energy -244978.003561 kJ/mol
# GULP energy per Si atom -5567.681899 kJ/mol
# Density = 1.877133 g / cm^3
# Si number density = 18.814152 Si / 1000 Ang^3
#
#
#
# Elastic Constant Matrix: (Units=GPa)
#
#
# Indices 1 2 3 4 5 6 
#
# 1 28.6912 12.0332 -12.0020 0.0000 0.0000 0.0000
# 2 12.0332 58.6808 9.4966 0.0000 0.0000 0.0000
# 3 -12.0020 9.4966 99.3375 0.0000 0.0000 0.0000
# 4 0.0000 0.0000 0.0000 15.4273 0.0000 0.0000
# 5 0.0000 0.0000 0.0000 0.0000 8.6228 0.0000
# 6 0.0000 0.0000 0.0000 0.0000 0.0000 5.6212
#
#
#
# Elastic Compliance Matrix: (Units=1/GPa)
#
#
# Indices 1 2 3 4 5 6 
#
# 1 0.041264 -0.009414 0.005886 0.000000 0.000000 0.000000
# 2 -0.009414 0.019457 -0.002998 0.000000 0.000000 0.000000
# 3 0.005886 -0.002998 0.011064 0.000000 0.000000 0.000000
# 4 0.000000 0.000000 0.000000 0.064820 0.000000 0.000000
# 5 0.000000 0.000000 0.000000 0.000000 0.115972 0.000000
# 6 0.000000 0.000000 0.000000 0.000000 0.000000 0.177897
#
#
# Mechanical properties :
#
#
# Convention : Reuss Voigt Hill
#
# Bulk Modulus (GPa) = 17.02612 22.86278 19.94445
# Shear Modulus (GPa) = 10.79668 17.74637 14.27152
#
# Velocity S-wave (km/s) = 2.39814 3.07456 2.75717
# Velocity P-wave (km/s) = 4.09113 4.97817 4.55629
#
# Compressibility (1/GPa) = 0.05873330
#
# Stress axis : x y z
#
# Youngs Moduli (GPa) = 24.23401 51.39550 90.38039
#
# Poissons Ratio (x) = 0.48385 -0.53194
# Poissons Ratio (y) = 0.22814 0.27092
# Poissons Ratio (z) = -0.14263 0.15406
#
# Static dielectric constant tensor:
#      x y z
#    x 1.608990 0.000000 0.000000 
#    y 0.000000 1.685490 0.000000 
#    z 0.000000 0.000000 1.643210 
# 
# From -- ./inp_files/53565.got.cif
#   From: 2010.05.17/outbox.cif.g08.bks.cpg/sg64_27_cif.got.tgz:53565.got - 2010.06.03 16:29:19.
