data_PCOD9480638
_publ_section_title
;
Structure prediction by ZEFSAII (Michael W. Deem and Ramdas Pophale) SiO2 
 PCOD9480638
Probable space group: C M C A
;
_chemical_formula_sum "Si O2"
_cell_formula_units_Z 96
_cell_length_a 17.288867
_cell_length_b 25.193072
_cell_length_c 11.733548
_cell_angle_alpha 90.000000
_cell_angle_beta 90.000000
_cell_angle_gamma 90.000000
_cell_volume 5110.660308
_symmetry_space_group_name_H-M "C M C A"
_symmetry_group_IT_number 64
_symmetry_cell_setting 'orthorhombic'
loop_
_space_group_symop_operation_xyz
x,y,z
-x,1/2-y,1/2+z
x,-y,-z
-x,1/2+y,1/2-z
-x,-y,-z
x,1/2+y,1/2-z
-x,y,z
x,1/2-y,1/2+z
1/2+x,1/2+y,z
1/2-x,-y,1/2+z
1/2+x,1/2-y,-z
1/2-x,y,1/2-z
1/2-x,1/2-y,-z
1/2+x,y,1/2-z
1/2-x,1/2+y,z
1/2+x,-y,1/2+z
loop_
_atom_site_type_symbol
_atom_site_label
_atom_site_fract_x
_atom_site_fract_y
_atom_site_fract_z
Si Si1 0.588503 0.825725 0.370932
Si Si2 0.084356 0.286102 0.751691
Si Si3 0.406870 0.397952 0.344083
Si Si4 0.349372 0.124968 0.098208
Si Si5 0.792512 0.800665 0.941488
Si Si6 0.589237 0.014269 0.134661
O O1 0.500000 0.840725 0.402438
O O2 0.587856 0.764325 0.334109
O O3 0.611337 0.859001 0.259268
O O4 0.650907 0.829703 0.469537
O O5 0.093638 0.338077 0.828858
O O6 0.152927 0.281940 0.661262
O O7 0.000000 0.285458 0.693826
O O8 0.500000 0.398316 0.359587
O O9 0.372018 0.379711 0.464607
O O10 0.384646 0.458441 0.312369
O O11 0.357160 0.065555 0.147536
O O12 0.269209 0.156571 0.102514
O O13 0.750000 0.750000 0.000000
O O14 0.500000 0.026599 0.167981
O O15 0.587074 0.000000 0.000000
#
# Coordination Sequence:
#
# PCOD9480638 Si02
#       6
#    16  16  16  16  16  16
#     4  10  22  38  59  84 114 157 198 232 282 351
#     4  11  23  38  58  84 114 152 198 238 282 346
#     4   9  18  35  61  89 116 149 195 244 287 337
#     4  11  20  33  60  87 117 150 186 239 297 339
#     4  12  24  38  55  81 124 156 188 232 294 349
#     4   8  15  31  57  87 113 144 192 242 286 333
#
# _framework density 18.784265999999999
#
# number of rings (size 3 to 8) (size 9 to 14) (size 15 to 20)
#    0.000    1.833    1.667    4.500    0.000    2.000 
#    0.000    0.000   22.000    0.000    0.000    4.667 
#    0.000    0.000    0.000    0.000    0.000    0.000 
#
# Total GULP energy -267809.060782 kJ/mol
# GULP energy per Si atom -5579.355433 kJ/mol
# Density = 1.874151 g / cm^3
# Si number density = 18.784266 Si / 1000 Ang^3
#
#
#
# Elastic Constant Matrix: (Units=GPa)
#
#
# Indices 1 2 3 4 5 6 
#
# 1 86.9788 14.1385 17.4237 0.0000 0.0000 0.0000
# 2 14.1385 86.0133 -1.4467 0.0000 0.0000 0.0000
# 3 17.4237 -1.4467 29.0204 0.0000 0.0000 0.0000
# 4 0.0000 0.0000 0.0000 23.6605 0.0000 0.0000
# 5 0.0000 0.0000 0.0000 0.0000 38.8283 0.0000
# 6 0.0000 0.0000 0.0000 0.0000 0.0000 20.8904
#
#
#
# Elastic Compliance Matrix: (Units=1/GPa)
#
#
# Indices 1 2 3 4 5 6 
#
# 1 0.013532 -0.002363 -0.008242 0.000000 0.000000 0.000000
# 2 -0.002363 0.012048 0.002019 0.000000 0.000000 0.000000
# 3 -0.008242 0.002019 0.039508 0.000000 0.000000 0.000000
# 4 0.000000 0.000000 0.000000 0.042264 0.000000 0.000000
# 5 0.000000 0.000000 0.000000 0.000000 0.025754 0.000000
# 6 0.000000 0.000000 0.000000 0.000000 0.000000 0.047869
#
#
# Mechanical properties :
#
#
# Convention : Reuss Voigt Hill
#
# Bulk Modulus (GPa) = 20.86968 29.13815 25.00392
# Shear Modulus (GPa) = 23.35130 28.13567 25.74349
#
# Velocity S-wave (km/s) = 3.52963 3.87438 3.70602
# Velocity P-wave (km/s) = 5.26739 5.96323 5.62608
#
# Compressibility (1/GPa) = 0.04791640
#
# Stress axis : x y z
#
# Youngs Moduli (GPa) = 73.89721 82.99790 25.31141
#
# Poissons Ratio (x) = 0.19613 0.20863
# Poissons Ratio (y) = 0.17462 -0.05111
# Poissons Ratio (z) = 0.60910 -0.16760
#
# Static dielectric constant tensor:
#      x y z
#    x 1.686880 0.000000 0.000000 
#    y 0.000000 1.656240 0.000000 
#    z 0.000000 0.000000 1.638190 
# 
# From -- ./inp_files/16209.got.cif
#   From: 2010.05.17/outbox.cif.g08.bks.cpg/sg64_9_cif.got.tgz:16209.got - 2010.06.03 16:29:19.
