data_PCOD9480787
_publ_section_title
;
Structure prediction by ZEFSAII (Michael W. Deem and Ramdas Pophale) SiO2 
 PCOD9480787
Probable space group: C M C A
;
_chemical_formula_sum "Si O2"
_cell_formula_units_Z 56
_cell_length_a 7.546715
_cell_length_b 14.252609
_cell_length_c 20.442050
_cell_angle_alpha 90.000000
_cell_angle_beta 90.000000
_cell_angle_gamma 90.000000
_cell_volume 2198.754628
_symmetry_space_group_name_H-M "C M C A"
_symmetry_group_IT_number 64
_symmetry_cell_setting 'orthorhombic'
loop_
_space_group_symop_operation_xyz
x,y,z
-x,1/2-y,1/2+z
x,-y,-z
-x,1/2+y,1/2-z
-x,-y,-z
x,1/2+y,1/2-z
-x,y,z
x,1/2-y,1/2+z
1/2+x,1/2+y,z
1/2-x,-y,1/2+z
1/2+x,1/2-y,-z
1/2-x,y,1/2-z
1/2-x,1/2-y,-z
1/2+x,y,1/2-z
1/2-x,1/2+y,z
1/2+x,-y,1/2+z
loop_
_atom_site_type_symbol
_atom_site_label
_atom_site_fract_x
_atom_site_fract_y
_atom_site_fract_z
Si Si1 0.217053 0.865872 0.358624
Si Si2 0.709745 0.139301 0.003546
Si Si3 0.704955 0.854885 0.648235
Si Si4 0.750000 0.504094 0.250000
O O1 0.268603 0.895609 0.432386
O O2 0.255493 0.754966 0.350194
O O3 0.310734 0.927857 0.304083
O O4 0.000000 0.876034 0.352222
O O5 0.500000 0.123792 0.006784
O O6 0.785004 0.110823 0.073326
O O7 0.750000 0.250000 0.000000
O O8 0.500000 0.862638 0.669457
O O9 0.815430 0.919839 0.696443
#
# Coordination Sequence:
#
# PCOD9480787 Si02
#       4
#    16  16  16   8
#     4   9  20  39  59  83 116 154 195 241 296 354
#     4   9  18  37  64  88 115 154 200 248 299 354
#     4  10  22  40  61  88 121 155 198 249 300 356
#     4  12  22  36  58  88 120 160 200 242 290 354
#
# _framework density 25.468964
#
# number of rings (size 3 to 8) (size 9 to 14) (size 15 to 20)
#    0.000    2.286    0.000    4.286    0.000    3.429 
#    0.000   21.429    0.000    0.000    0.000    0.000 
#    0.000    0.000    0.000    0.000    0.000    0.000 
#
# Total GULP energy -156011.920127 kJ/mol
# GULP energy per Si atom -5571.854290 kJ/mol
# Density = 2.541100 g / cm^3
# Si number density = 25.468964 Si / 1000 Ang^3
#
#
#
# Elastic Constant Matrix: (Units=GPa)
#
#
# Indices 1 2 3 4 5 6 
#
# 1 98.0428 28.0148 39.0530 0.0000 0.0000 0.0000
# 2 28.0148 186.6997 87.4327 0.0000 0.0000 0.0000
# 3 39.0530 87.4327 275.6112 0.0000 0.0000 0.0000
# 4 0.0000 0.0000 0.0000 138.7188 0.0000 0.0000
# 5 0.0000 0.0000 0.0000 0.0000 -15.0000 0.0000
# 6 0.0000 0.0000 0.0000 0.0000 0.0000 -31.9892
#
#
#
# Elastic Compliance Matrix: (Units=1/GPa)
#
#
# Indices 1 2 3 4 5 6 
#
# 1 0.010992 -0.001081 -0.001215 0.000000 0.000000 0.000000
# 2 -0.001081 0.006397 -0.001876 0.000000 0.000000 0.000000
# 3 -0.001215 -0.001876 0.004396 0.000000 0.000000 0.000000
# 4 0.000000 0.000000 0.000000 0.007209 0.000000 0.000000
# 5 0.000000 0.000000 0.000000 0.000000 -0.066667 0.000000
# 6 0.000000 0.000000 0.000000 0.000000 0.000000 -0.031261
#
#
# Mechanical properties :
#
#
# Convention : Reuss Voigt Hill
#
# Bulk Modulus (GPa) = 74.39480 96.59498 85.49489
# Shear Modulus (GPa) = -89.11095 45.40280 -21.85408
#
# Velocity S-wave (km/s) = -5.92149 4.22675 -2.93246
# Velocity P-wave (km/s) = 4.18074 7.86317 4.70908
#
# Compressibility (1/GPa) = 0.01344180
#
# Stress axis : x y z
#
# Youngs Moduli (GPa) = 90.97313 156.32386 227.49894
#
# Poissons Ratio (x) = 0.16891 0.27636
# Poissons Ratio (y) = 0.09830 0.42684
# Poissons Ratio (z) = 0.11051 0.29330
#
# Static dielectric constant tensor:
#      x y z
#    x 2.233730 0.000000 0.000000 
#    y 0.000000 1.956810 0.000000 
#    z 0.000000 0.000000 1.967250 
# 
# From -- ./inp_files/36156.got.cif
#   From: 2010.05.17/outbox.cif.g08.bks.cpg/sg64_19_cif.got.tgz:36156.got - 2010.06.03 16:29:19.
