data_PCOD9480357
_publ_section_title
;
Structure prediction by ZEFSAII (Michael W. Deem and Ramdas Pophale) SiO2 
 PCOD9480357
Probable space group: C M C A
;
_chemical_formula_sum "Si O2"
_cell_formula_units_Z 104
_cell_length_a 20.155525
_cell_length_b 9.334290
_cell_length_c 27.321512
_cell_angle_alpha 90.000000
_cell_angle_beta 90.000000
_cell_angle_gamma 90.000000
_cell_volume 5140.201386
_symmetry_space_group_name_H-M "C M C A"
_symmetry_group_IT_number 64
_symmetry_cell_setting 'orthorhombic'
loop_
_space_group_symop_operation_xyz
x,y,z
-x,1/2-y,1/2+z
x,-y,-z
-x,1/2+y,1/2-z
-x,-y,-z
x,1/2+y,1/2-z
-x,y,z
x,1/2-y,1/2+z
1/2+x,1/2+y,z
1/2-x,-y,1/2+z
1/2+x,1/2-y,-z
1/2-x,y,1/2-z
1/2-x,1/2-y,-z
1/2+x,y,1/2-z
1/2-x,1/2+y,z
1/2+x,-y,1/2+z
loop_
_atom_site_type_symbol
_atom_site_label
_atom_site_fract_x
_atom_site_fract_y
_atom_site_fract_z
Si Si1 0.500000 0.112878 0.625397
Si Si2 0.320478 0.830722 0.005580
Si Si3 0.613742 0.070713 0.702418
Si Si4 0.663334 0.820910 0.117236
Si Si5 0.923242 0.759655 0.293246
Si Si6 0.776814 0.479246 0.629302
Si Si7 0.878647 0.089548 0.949879
O O1 0.558259 0.075071 0.584757
O O2 0.559037 0.140442 0.666700
O O3 0.366726 0.754187 0.965659
O O4 0.250000 0.750000 0.000000
O O5 0.349718 0.805961 0.059780
O O6 0.312537 0.000000 0.000000
O O7 0.586552 0.910258 0.711959
O O8 0.682836 0.048698 0.674188
O O9 0.618395 0.157830 0.752346
O O10 0.601237 0.800642 0.152515
O O11 0.713218 0.690707 0.130754
O O12 0.702067 0.967535 0.127035
O O13 0.000000 0.796617 0.286945
O O14 0.815035 0.534193 0.580696
O O15 0.884002 0.000000 0.000000
#
# Coordination Sequence:
#
# PCOD9480357 Si02
#       7
#     8  16  16  16  16  16  16
#     4  10  21  40  65  92 119 164 212 253 302 384
#     4  12  23  39  60  88 123 161 204 253 312 372
#     4  10  22  41  65  89 123 156 211 257 311 373
#     4  11  23  39  62  90 127 159 209 255 309 370
#     4  11  22  42  64  92 121 163 203 260 311 369
#     4  10  22  38  61  92 120 162 207 258 306 369
#     4  11  21  38  63  92 124 162 208 253 312 370
#
# _framework density 20.232669000000001
#
# number of rings (size 3 to 8) (size 9 to 14) (size 15 to 20)
#    0.000    1.231    4.615    1.615    0.000    1.846 
#    4.154    3.462    0.000    0.000    0.000    0.000 
#    0.000    0.000    0.000    0.000    0.000    0.000 
#
# Total GULP energy -289563.333185 kJ/mol
# GULP energy per Si atom -5568.525638 kJ/mol
# Density = 2.018662 g / cm^3
# Si number density = 20.232669 Si / 1000 Ang^3
#
#
#
# Elastic Constant Matrix: (Units=GPa)
#
#
# Indices 1 2 3 4 5 6 
#
# 1 11.7440 -0.5480 -3.5342 0.0000 0.0000 0.0000
# 2 -0.5480 55.0926 9.3684 0.0000 0.0000 0.0000
# 3 -3.5342 9.3684 104.0372 0.0000 0.0000 0.0000
# 4 0.0000 0.0000 0.0000 12.9234 0.0000 0.0000
# 5 0.0000 0.0000 0.0000 0.0000 21.0648 0.0000
# 6 0.0000 0.0000 0.0000 0.0000 0.0000 11.6642
#
#
#
# Elastic Compliance Matrix: (Units=1/GPa)
#
#
# Indices 1 2 3 4 5 6 
#
# 1 0.086037 0.000364 0.002890 0.000000 0.000000 0.000000
# 2 0.000364 0.018435 -0.001648 0.000000 0.000000 0.000000
# 3 0.002890 -0.001648 0.009858 0.000000 0.000000 0.000000
# 4 0.000000 0.000000 0.000000 0.077379 0.000000 0.000000
# 5 0.000000 0.000000 0.000000 0.000000 0.047473 0.000000
# 6 0.000000 0.000000 0.000000 0.000000 0.000000 0.085732
#
#
# Mechanical properties :
#
#
# Convention : Reuss Voigt Hill
#
# Bulk Modulus (GPa) = 8.50748 20.16068 14.33408
# Shear Modulus (GPa) = 13.85492 20.16964 17.01228
#
# Velocity S-wave (km/s) = 2.61967 3.16077 2.90286
# Velocity P-wave (km/s) = 3.65570 4.82770 4.28199
#
# Compressibility (1/GPa) = 0.11754366
#
# Stress axis : x y z
#
# Youngs Moduli (GPa) = 11.62292 54.24447 101.43547
#
# Poissons Ratio (x) = -0.01976 -0.29314
# Poissons Ratio (y) = -0.00423 0.16713
# Poissons Ratio (z) = -0.03359 0.08938
#
# Static dielectric constant tensor:
#      x y z
#    x 1.674370 0.000000 0.000000 
#    y 0.000000 1.742150 0.000000 
#    z 0.000000 0.000000 1.727490 
# 
# From -- ./inp_files/51019.got.cif
#   From: 2010.05.17/outbox.cif.g08.bks.cpg/sg64_26_cif.got.tgz:51019.got - 2010.06.03 16:29:19.
