data_PCOD9480482
_publ_section_title
;
Structure prediction by ZEFSAII (Michael W. Deem and Ramdas Pophale) SiO2 
 PCOD9480482
Probable space group: C M C A
;
_chemical_formula_sum "Si O2"
_cell_formula_units_Z 44
_cell_length_a 30.188450
_cell_length_b 13.379310
_cell_length_c 4.895552
_cell_angle_alpha 90.000000
_cell_angle_beta 90.000000
_cell_angle_gamma 90.000000
_cell_volume 1977.316542
_symmetry_space_group_name_H-M "C M C A"
_symmetry_group_IT_number 64
_symmetry_cell_setting 'orthorhombic'
loop_
_space_group_symop_operation_xyz
x,y,z
-x,1/2-y,1/2+z
x,-y,-z
-x,1/2+y,1/2-z
-x,-y,-z
x,1/2+y,1/2-z
-x,y,z
x,1/2-y,1/2+z
1/2+x,1/2+y,z
1/2-x,-y,1/2+z
1/2+x,1/2-y,-z
1/2-x,y,1/2-z
1/2-x,1/2-y,-z
1/2+x,y,1/2-z
1/2-x,1/2+y,z
1/2+x,-y,1/2+z
loop_
_atom_site_type_symbol
_atom_site_label
_atom_site_fract_x
_atom_site_fract_y
_atom_site_fract_z
Si Si1 0.250000 0.937395 0.250000
Si Si2 0.000000 0.000000 0.000000
Si Si3 0.830372 0.186091 0.995432
Si Si4 0.570235 0.677606 0.883946
O O1 0.211179 0.875941 0.105416
O O2 0.229927 0.000000 0.500000
O O3 0.961831 0.086003 0.939598
O O4 0.828133 0.287499 0.813797
O O5 0.878723 0.144018 0.923927
O O6 0.563415 0.729031 0.590710
#
# Coordination Sequence:
#
# PCOD9480482 Si02
#       4
#     8   4  16  16
#     4  12  24  36  62  98 128 160 216 272 314 392
#     4  12  24  42  72  96 132 174 212 274 340 374
#     4  10  21  42  63  86 125 173 208 257 321 385
#     4  10  24  43  65  96 131 167 219 266 320 395
#
# _framework density 22.252381
#
# number of rings (size 3 to 8) (size 9 to 14) (size 15 to 20)
#    0.000    1.455    0.000    4.364    2.545    2.909 
#    0.000    0.000    0.000    0.000    0.000    0.000 
#    0.000    0.000    0.000    0.000    0.000    0.000 
#
# Total GULP energy -122485.605271 kJ/mol
# GULP energy per Si atom -5567.527512 kJ/mol
# Density = 2.220173 g / cm^3
# Si number density = 22.252381 Si / 1000 Ang^3
#
#
#
# Elastic Constant Matrix: (Units=GPa)
#
#
# Indices 1 2 3 4 5 6 
#
# 1 164.7953 81.2764 -11.3602 0.0000 0.0000 0.0000
# 2 81.2764 54.0297 -9.1970 0.0000 0.0000 0.0000
# 3 -11.3602 -9.1970 61.3580 0.0000 0.0000 0.0000
# 4 0.0000 0.0000 0.0000 16.8581 0.0000 0.0000
# 5 0.0000 0.0000 0.0000 0.0000 161.0587 0.0000
# 6 0.0000 0.0000 0.0000 0.0000 0.0000 55.9721
#
#
#
# Elastic Compliance Matrix: (Units=1/GPa)
#
#
# Indices 1 2 3 4 5 6 
#
# 1 0.023569 -0.035620 -0.000976 0.000000 0.000000 0.000000
# 2 -0.035620 0.072827 0.004321 0.000000 0.000000 0.000000
# 3 -0.000976 0.004321 0.016765 0.000000 0.000000 0.000000
# 4 0.000000 0.000000 0.000000 0.059319 0.000000 0.000000
# 5 0.000000 0.000000 0.000000 0.000000 0.006209 0.000000
# 6 0.000000 0.000000 0.000000 0.000000 0.000000 0.017866
#
#
# Mechanical properties :
#
#
# Convention : Reuss Voigt Hill
#
# Bulk Modulus (GPa) = 20.57121 44.62459 32.59790
# Shear Modulus (GPa) = 18.03059 61.40869 39.71964
#
# Velocity S-wave (km/s) = 2.84962 5.25893 4.22946
# Velocity P-wave (km/s) = 4.48238 7.54802 6.20743
#
# Compressibility (1/GPa) = 0.04861164
#
# Stress axis : x y z
#
# Youngs Moduli (GPa) = 42.42945 13.73120 59.64845
#
# Poissons Ratio (x) = 0.48911 0.05819
# Poissons Ratio (y) = 1.51134 -0.25775
# Poissons Ratio (z) = 0.04139 -0.05934
#
# Static dielectric constant tensor:
#      x y z
#    x 1.814860 0.000000 0.000000 
#    y 0.000000 1.817330 0.000000 
#    z 0.000000 0.000000 1.802490 
# 
# From -- ./inp_files/3050.got.cif
#   From: 2010.05.17/outbox.cif.g08.bks.cpg/sg64_2_cif.got.tgz:3050.got - 2010.06.03 16:29:19.
