data_PCOD9480334
_publ_section_title
;
Structure prediction by ZEFSAII (Michael W. Deem and Ramdas Pophale) SiO2 
 PCOD9480334
Probable space group: C M C A
;
_chemical_formula_sum "Si O2"
_cell_formula_units_Z 96
_cell_length_a 24.915289
_cell_length_b 13.569198
_cell_length_c 13.945312
_cell_angle_alpha 90.000000
_cell_angle_beta 90.000000
_cell_angle_gamma 90.000000
_cell_volume 4714.637910
_symmetry_space_group_name_H-M "C M C A"
_symmetry_group_IT_number 64
_symmetry_cell_setting 'orthorhombic'
loop_
_space_group_symop_operation_xyz
x,y,z
-x,1/2-y,1/2+z
x,-y,-z
-x,1/2+y,1/2-z
-x,-y,-z
x,1/2+y,1/2-z
-x,y,z
x,1/2-y,1/2+z
1/2+x,1/2+y,z
1/2-x,-y,1/2+z
1/2+x,1/2-y,-z
1/2-x,y,1/2-z
1/2-x,1/2-y,-z
1/2+x,y,1/2-z
1/2-x,1/2+y,z
1/2+x,-y,1/2+z
loop_
_atom_site_type_symbol
_atom_site_label
_atom_site_fract_x
_atom_site_fract_y
_atom_site_fract_z
Si Si1 0.401248 0.462010 0.313523
Si Si2 0.800132 0.017827 0.817684
Si Si3 0.159720 0.848519 0.480220
Si Si4 0.803476 0.215852 0.191501
Si Si5 0.599067 0.803172 0.835878
Si Si6 0.000000 0.667635 0.731664
Si Si7 0.245862 0.000000 0.500000
O O1 0.354414 0.451219 0.233351
O O2 0.377146 0.417758 0.412159
O O3 0.411444 0.579152 0.323916
O O4 0.452964 0.402760 0.280110
O O5 0.750000 0.040632 0.750000
O O6 0.801630 0.900015 0.830118
O O7 0.783269 0.052542 0.922355
O O8 0.188791 0.776899 0.405183
O O9 0.123839 0.792846 0.557922
O O10 0.203992 0.915772 0.535088
O O11 0.750000 0.241766 0.250000
O O12 0.855037 0.226844 0.259934
O O13 0.547090 0.739013 0.815231
#
# Coordination Sequence:
#
# PCOD9480334 Si02
#       7
#    16  16  16  16  16   8   8
#     4  11  23  45  70  99 138 182 233 292 352 402
#     4  10  21  40  63  99 144 177 220 279 347 421
#     4  12  22  40  70 103 137 177 230 283 351 412
#     4  10  23  40  64 102 144 180 217 282 347 416
#     4  11  24  45  68 100 137 175 240 291 339 420
#     4  12  26  44  70  97 127 190 236 289 348 391
#     4  12  22  36  70 106 134 180 216 276 358 430
#
# _framework density 20.362114999999999
#
# number of rings (size 3 to 8) (size 9 to 14) (size 15 to 20)
#    0.000    1.000    5.000    2.500    2.333    4.667 
#    0.000    1.667    0.000    4.500    0.000    0.000 
#    0.000    0.000    0.000    0.000    0.000    0.000 
#
# Total GULP energy -267300.921084 kJ/mol
# GULP energy per Si atom -5568.769189 kJ/mol
# Density = 2.031577 g / cm^3
# Si number density = 20.362115 Si / 1000 Ang^3
#
#
#
# Elastic Constant Matrix: (Units=GPa)
#
#
# Indices 1 2 3 4 5 6 
#
# 1 178.9232 19.2379 54.7027 0.0000 0.0000 0.0000
# 2 19.2379 78.9104 7.8725 0.0000 0.0000 0.0000
# 3 54.7027 7.8725 76.8157 0.0000 0.0000 0.0000
# 4 0.0000 0.0000 0.0000 30.8966 0.0000 0.0000
# 5 0.0000 0.0000 0.0000 0.0000 6.9941 0.0000
# 6 0.0000 0.0000 0.0000 0.0000 0.0000 121.7431
#
#
#
# Elastic Compliance Matrix: (Units=1/GPa)
#
#
# Indices 1 2 3 4 5 6 
#
# 1 0.007268 -0.001269 -0.005046 0.000000 0.000000 0.000000
# 2 -0.001269 0.013025 -0.000432 0.000000 0.000000 0.000000
# 3 -0.005046 -0.000432 0.016656 0.000000 0.000000 0.000000
# 4 0.000000 0.000000 0.000000 0.032366 0.000000 0.000000
# 5 0.000000 0.000000 0.000000 0.000000 0.142978 0.000000
# 6 0.000000 0.000000 0.000000 0.000000 0.000000 0.008214
#
#
# Mechanical properties :
#
#
# Convention : Reuss Voigt Hill
#
# Bulk Modulus (GPa) = 42.63129 55.36398 48.99763
# Shear Modulus (GPa) = 20.67675 48.78249 34.72962
#
# Velocity S-wave (km/s) = 3.19007 4.89995 4.13437
# Velocity P-wave (km/s) = 5.87799 7.69814 6.84880
#
# Compressibility (1/GPa) = 0.02345695
#
# Stress axis : x y z
#
# Youngs Moduli (GPa) = 137.58863 76.77597 60.03972
#
# Poissons Ratio (x) = 0.09739 0.30295
# Poissons Ratio (y) = 0.17453 0.02591
# Poissons Ratio (z) = 0.69424 0.03313
#
# Static dielectric constant tensor:
#      x y z
#    x 1.834170 0.000000 0.000000 
#    y 0.000000 1.774160 0.000000 
#    z 0.000000 0.000000 1.759880 
# 
# From -- ./inp_files/26388.got.cif
#   From: 2010.05.17/outbox.cif.g08.bks.cpg/sg64_14_cif.got.tgz:26388.got - 2010.06.03 16:29:19.
