data_PCOD9480815
_publ_section_title
;
Structure prediction by ZEFSAII (Michael W. Deem and Ramdas Pophale) SiO2 
 PCOD9480815
Probable space group: C M C A
;
_chemical_formula_sum "Si O2"
_cell_formula_units_Z 96
_cell_length_a 13.633143
_cell_length_b 20.702029
_cell_length_c 14.037022
_cell_angle_alpha 90.000000
_cell_angle_beta 90.000000
_cell_angle_gamma 90.000000
_cell_volume 3961.720961
_symmetry_space_group_name_H-M "C M C A"
_symmetry_group_IT_number 64
_symmetry_cell_setting 'orthorhombic'
loop_
_space_group_symop_operation_xyz
x,y,z
-x,1/2-y,1/2+z
x,-y,-z
-x,1/2+y,1/2-z
-x,-y,-z
x,1/2+y,1/2-z
-x,y,z
x,1/2-y,1/2+z
1/2+x,1/2+y,z
1/2-x,-y,1/2+z
1/2+x,1/2-y,-z
1/2-x,y,1/2-z
1/2-x,1/2-y,-z
1/2+x,y,1/2-z
1/2-x,1/2+y,z
1/2+x,-y,1/2+z
loop_
_atom_site_type_symbol
_atom_site_label
_atom_site_fract_x
_atom_site_fract_y
_atom_site_fract_z
Si Si1 0.884121 0.197653 0.642375
Si Si2 0.882442 0.447693 0.420044
Si Si3 0.755381 0.843844 0.994396
Si Si4 0.385898 0.165869 0.304459
Si Si5 0.616501 0.424958 0.621383
Si Si6 0.118083 0.445234 0.206393
O O1 0.808617 0.208141 0.554376
O O2 0.877604 0.257263 0.716338
O O3 0.855445 0.128501 0.685636
O O4 0.000000 0.195985 0.612525
O O5 0.854437 0.500000 0.500000
O O6 0.833269 0.378907 0.438319
O O7 0.855887 0.466954 0.312944
O O8 0.000000 0.441415 0.424919
O O9 0.815445 0.840656 0.895050
O O10 0.668782 0.893258 0.967129
O O11 0.500000 0.152879 0.331955
O O12 0.364851 0.119194 0.215859
O O13 0.500000 0.424224 0.606944
O O14 0.650566 0.497928 0.637196
O O15 0.000000 0.445862 0.202063
#
# Coordination Sequence:
#
# PCOD9480815 Si02
#       6
#    16  16  16  16  16  16
#     4  10  23  43  65  93 132 168 212 269 328 385
#     4  10  22  40  62  92 129 169 216 264 314 377
#     4  12  23  38  63  99 128 164 218 264 323 374
#     4  10  22  44  66  89 128 177 217 261 318 385
#     4  10  22  42  69  93 128 172 215 261 318 387
#     4   9  20  42  66  91 125 171 213 259 320 382
#
# _framework density 24.231894
#
# number of rings (size 3 to 8) (size 9 to 14) (size 15 to 20)
#    0.000    1.833    0.000    3.000    2.333    3.333 
#    9.000    2.500    0.000    0.000    0.000    0.000 
#    0.000    0.000    0.000    0.000    0.000    0.000 
#
# Total GULP energy -268271.639094 kJ/mol
# GULP energy per Si atom -5588.992481 kJ/mol
# Density = 2.417674 g / cm^3
# Si number density = 24.231894 Si / 1000 Ang^3
#
#
#
# Elastic Constant Matrix: (Units=GPa)
#
#
# Indices 1 2 3 4 5 6 
#
# 1 108.1023 10.6355 15.6663 0.0000 0.0000 0.0000
# 2 10.6355 72.3488 6.8514 0.0000 0.0000 0.0000
# 3 15.6663 6.8514 52.6785 0.0000 0.0000 0.0000
# 4 0.0000 0.0000 0.0000 37.3944 0.0000 0.0000
# 5 0.0000 0.0000 0.0000 0.0000 31.7615 0.0000
# 6 0.0000 0.0000 0.0000 0.0000 0.0000 -19.8628
#
#
#
# Elastic Compliance Matrix: (Units=1/GPa)
#
#
# Indices 1 2 3 4 5 6 
#
# 1 0.009765 -0.001175 -0.002751 0.000000 0.000000 0.000000
# 2 -0.001175 0.014136 -0.001489 0.000000 0.000000 0.000000
# 3 -0.002751 -0.001489 0.019995 0.000000 0.000000 0.000000
# 4 0.000000 0.000000 0.000000 0.026742 0.000000 0.000000
# 5 0.000000 0.000000 0.000000 0.000000 0.031485 0.000000
# 6 0.000000 0.000000 0.000000 0.000000 0.000000 -0.050345
#
#
# Mechanical properties :
#
#
# Convention : Reuss Voigt Hill
#
# Bulk Modulus (GPa) = 30.24343 33.27067 31.75705
# Shear Modulus (GPa) = 67.90829 23.19039 45.54934
#
# Velocity S-wave (km/s) = 5.29955 3.09693 4.34029
# Velocity P-wave (km/s) = 7.06787 5.15246 6.18477
#
# Compressibility (1/GPa) = 0.03306503
#
# Stress axis : x y z
#
# Youngs Moduli (GPa) = 102.40872 70.74312 50.01264
#
# Poissons Ratio (x) = 0.08312 0.13759
# Poissons Ratio (y) = 0.12032 0.07447
# Poissons Ratio (z) = 0.28175 0.10534
#
# Static dielectric constant tensor:
#      x y z
#    x 1.957070 0.000000 0.000000 
#    y 0.000000 1.988860 0.000000 
#    z 0.000000 0.000000 1.893400 
# 
# From -- ./inp_files/23896.got.cif
#   From: 2010.05.17/outbox.cif.g08.bks.cpg/sg64_12_cif.got.tgz:23896.got - 2010.06.03 16:29:19.
