data_PCOD9480726
_publ_section_title
;
Structure prediction by ZEFSAII (Michael W. Deem and Ramdas Pophale) SiO2 
 PCOD9480726
Probable space group: C M C A
;
_chemical_formula_sum "Si O2"
_cell_formula_units_Z 96
_cell_length_a 16.413603
_cell_length_b 19.729438
_cell_length_c 14.599420
_cell_angle_alpha 90.000000
_cell_angle_beta 90.000000
_cell_angle_gamma 90.000000
_cell_volume 4727.747154
_symmetry_space_group_name_H-M "C M C A"
_symmetry_group_IT_number 64
_symmetry_cell_setting 'orthorhombic'
loop_
_space_group_symop_operation_xyz
x,y,z
-x,1/2-y,1/2+z
x,-y,-z
-x,1/2+y,1/2-z
-x,-y,-z
x,1/2+y,1/2-z
-x,y,z
x,1/2-y,1/2+z
1/2+x,1/2+y,z
1/2-x,-y,1/2+z
1/2+x,1/2-y,-z
1/2-x,y,1/2-z
1/2-x,1/2-y,-z
1/2+x,y,1/2-z
1/2-x,1/2+y,z
1/2+x,-y,1/2+z
loop_
_atom_site_type_symbol
_atom_site_label
_atom_site_fract_x
_atom_site_fract_y
_atom_site_fract_z
Si Si1 0.655757 0.660985 0.781415
Si Si2 0.904963 0.720768 0.333177
Si Si3 0.767691 0.064770 0.451363
Si Si4 0.337020 0.494153 0.198083
Si Si5 0.595179 0.611062 0.312692
Si Si6 0.315597 0.192750 0.520462
O O1 0.750000 0.662002 0.750000
O O2 0.612293 0.703012 0.701060
O O3 0.631787 0.582931 0.799975
O O4 0.646011 0.698946 0.879063
O O5 0.872718 0.670558 0.254140
O O6 0.872677 0.699774 0.432283
O O7 0.000000 0.709398 0.334124
O O8 0.837505 0.100966 0.391607
O O9 0.729940 0.120308 0.518541
O O10 0.806970 0.000000 0.500000
O O11 0.692054 0.031833 0.394574
O O12 0.250000 0.492331 0.250000
O O13 0.397708 0.542752 0.252535
O O14 0.500000 0.622197 0.340081
O O15 0.250000 0.250000 0.500000
#
# Coordination Sequence:
#
# PCOD9480726 Si02
#       6
#    16  16  16  16  16  16
#     4  11  22  39  65  96 123 163 215 266 318 374
#     4  11  25  43  62  92 133 172 211 263 323 383
#     4  11  21  38  64  94 126 165 215 272 311 373
#     4   9  19  36  61  88 120 161 210 255 308 366
#     4  10  22  39  61  89 128 173 209 255 324 384
#     4  12  23  38  67  96 124 169 219 260 313 385
#
# _framework density 20.305655000000002
#
# number of rings (size 3 to 8) (size 9 to 14) (size 15 to 20)
#    0.000    1.333    5.000    1.000    0.000    1.667 
#    0.000    0.833    0.000    3.000    0.000    0.000 
#    0.000    0.000    0.000    0.000    0.000    0.000 
#
# Total GULP energy -267729.711831 kJ/mol
# GULP energy per Si atom -5577.702330 kJ/mol
# Density = 2.025944 g / cm^3
# Si number density = 20.305655 Si / 1000 Ang^3
#
#
#
# Elastic Constant Matrix: (Units=GPa)
#
#
# Indices 1 2 3 4 5 6 
#
# 1 27.8076 -8.6032 10.4575 0.0000 0.0000 0.0000
# 2 -8.6032 79.5793 3.7905 0.0000 0.0000 0.0000
# 3 10.4575 3.7905 69.6119 0.0000 0.0000 0.0000
# 4 0.0000 0.0000 0.0000 32.8385 0.0000 0.0000
# 5 0.0000 0.0000 0.0000 0.0000 18.5483 0.0000
# 6 0.0000 0.0000 0.0000 0.0000 0.0000 7.2945
#
#
#
# Elastic Compliance Matrix: (Units=1/GPa)
#
#
# Indices 1 2 3 4 5 6 
#
# 1 0.039719 0.004590 -0.006217 0.000000 0.000000 0.000000
# 2 0.004590 0.013129 -0.001404 0.000000 0.000000 0.000000
# 3 -0.006217 -0.001404 0.015376 0.000000 0.000000 0.000000
# 4 0.000000 0.000000 0.000000 0.030452 0.000000 0.000000
# 5 0.000000 0.000000 0.000000 0.000000 0.053913 0.000000
# 6 0.000000 0.000000 0.000000 0.000000 0.000000 0.137091
#
#
# Mechanical properties :
#
#
# Convention : Reuss Voigt Hill
#
# Bulk Modulus (GPa) = 16.08699 20.92094 18.50397
# Shear Modulus (GPa) = 15.79961 23.15984 19.47973
#
# Velocity S-wave (km/s) = 2.79245 3.38088 3.10066
# Velocity P-wave (km/s) = 4.28213 5.05627 4.68522
#
# Compressibility (1/GPa) = 0.06216203
#
# Stress axis : x y z
#
# Youngs Moduli (GPa) = 25.17659 76.16609 65.03742
#
# Poissons Ratio (x) = -0.34961 0.40433
# Poissons Ratio (y) = -0.11556 0.09134
# Poissons Ratio (z) = 0.15652 0.10697
#
# Static dielectric constant tensor:
#      x y z
#    x 2.663130 0.000000 0.000000 
#    y 0.000000 1.759620 0.000000 
#    z 0.000000 0.000000 1.735700 
# 
# From -- ./inp_files/23852.got.cif
#   From: 2010.05.17/outbox.cif.g08.bks.cpg/sg64_12_cif.got.tgz:23852.got - 2010.06.03 16:29:19.
