data_PCOD9480372
_publ_section_title
;
Structure prediction by ZEFSAII (Michael W. Deem and Ramdas Pophale) SiO2 
 PCOD9480372
Probable space group: C M C A
;
_chemical_formula_sum "Si O2"
_cell_formula_units_Z 80
_cell_length_a 33.961268
_cell_length_b 22.999713
_cell_length_c 5.119663
_cell_angle_alpha 90.000000
_cell_angle_beta 90.000000
_cell_angle_gamma 90.000000
_cell_volume 3998.965785
_symmetry_space_group_name_H-M "C M C A"
_symmetry_group_IT_number 64
_symmetry_cell_setting 'orthorhombic'
loop_
_space_group_symop_operation_xyz
x,y,z
-x,1/2-y,1/2+z
x,-y,-z
-x,1/2+y,1/2-z
-x,-y,-z
x,1/2+y,1/2-z
-x,y,z
x,1/2-y,1/2+z
1/2+x,1/2+y,z
1/2-x,-y,1/2+z
1/2+x,1/2-y,-z
1/2-x,y,1/2-z
1/2-x,1/2-y,-z
1/2+x,y,1/2-z
1/2-x,1/2+y,z
1/2+x,-y,1/2+z
loop_
_atom_site_type_symbol
_atom_site_label
_atom_site_fract_x
_atom_site_fract_y
_atom_site_fract_z
Si Si1 0.000000 0.213701 0.562922
Si Si2 0.352431 0.789711 0.017650
Si Si3 0.778294 0.000000 0.500000
Si Si4 0.721629 0.127849 0.000355
Si Si5 0.047174 0.066132 0.911281
Si Si6 0.427370 0.368887 0.577604
O O1 0.961583 0.176892 0.493170
O O2 0.000000 0.268193 0.365071
O O3 0.356119 0.739388 0.801068
O O4 0.310861 0.822452 0.995840
O O5 0.386388 0.836547 0.963163
O O6 0.798517 0.063225 0.501761
O O7 0.750000 0.000192 0.250000
O O8 0.750000 0.131609 0.250000
O O9 0.750000 0.132518 0.750000
O O10 0.066144 0.079847 0.632096
O O11 0.000000 0.076493 0.895980
O O12 0.065596 0.107689 0.131667
O O13 0.052943 0.000000 0.000000
#
# Coordination Sequence:
#
# PCOD9480372 Si02
#       6
#     8  16   8  16  16  16
#     4  12  22  36  59  86 113 164 216 248 298 368
#     4  12  26  43  63  92 135 169 209 269 314 363
#     4   8  16  34  60  90 118 151 196 257 302 360
#     4  10  21  40  67  93 124 164 211 254 316 381
#     4  11  22  41  66  93 124 161 209 265 318 379
#     4  12  23  42  62  91 129 165 211 258 313 375
#
# _framework density 20.005172000000002
#
# number of rings (size 3 to 8) (size 9 to 14) (size 15 to 20)
#    0.000    1.000    2.000    5.400    0.000    4.000 
#    3.600    0.000    4.400    0.000    0.000    0.000 
#    0.000    0.000    0.000    0.000    0.000    0.000 
#
# Total GULP energy -223656.546573 kJ/mol
# GULP energy per Si atom -5591.413664 kJ/mol
# Density = 1.995964 g / cm^3
# Si number density = 20.005172 Si / 1000 Ang^3
#
#
#
# Elastic Constant Matrix: (Units=GPa)
#
#
# Indices 1 2 3 4 5 6 
#
# 1 83.4805 20.8290 1.9348 0.0000 0.0000 0.0000
# 2 20.8290 46.4925 -14.8575 0.0000 0.0000 0.0000
# 3 1.9348 -14.8575 81.0452 0.0000 0.0000 0.0000
# 4 0.0000 0.0000 0.0000 45.1304 0.0000 0.0000
# 5 0.0000 0.0000 0.0000 0.0000 21.4263 0.0000
# 6 0.0000 0.0000 0.0000 0.0000 0.0000 24.5534
#
#
#
# Elastic Compliance Matrix: (Units=1/GPa)
#
#
# Indices 1 2 3 4 5 6 
#
# 1 0.013665 -0.006614 -0.001539 0.000000 0.000000 0.000000
# 2 -0.006614 0.026048 0.004933 0.000000 0.000000 0.000000
# 3 -0.001539 0.004933 0.013280 0.000000 0.000000 0.000000
# 4 0.000000 0.000000 0.000000 0.022158 0.000000 0.000000
# 5 0.000000 0.000000 0.000000 0.000000 0.046672 0.000000
# 6 0.000000 0.000000 0.000000 0.000000 0.000000 0.040728
#
#
# Mechanical properties :
#
#
# Convention : Reuss Voigt Hill
#
# Bulk Modulus (GPa) = 21.48013 25.20342 23.34178
# Shear Modulus (GPa) = 27.09933 31.76280 29.43107
#
# Velocity S-wave (km/s) = 3.68450 3.98896 3.83975
# Velocity P-wave (km/s) = 5.37228 5.81734 5.59923
#
# Compressibility (1/GPa) = 0.04655464
#
# Stress axis : x y z
#
# Youngs Moduli (GPa) = 73.18157 38.39030 75.30191
#
# Poissons Ratio (x) = 0.25390 0.11586
# Poissons Ratio (y) = 0.48399 -0.37147
# Poissons Ratio (z) = 0.11260 -0.18938
#
# Static dielectric constant tensor:
#      x y z
#    x 1.659010 0.000000 0.000000 
#    y 0.000000 1.742300 0.000000 
#    z 0.000000 0.000000 1.646570 
# 
# From -- ./inp_files/3286.got.cif
#   From: 2010.05.17/outbox.cif.g08.bks.cpg/sg64_2_cif.got.tgz:3286.got - 2010.06.03 16:29:19.
