data_PCOD9480254
_publ_section_title
;
Structure prediction by ZEFSAII (Michael W. Deem and Ramdas Pophale) SiO2 
 PCOD9480254
Probable space group: C M C A
;
_chemical_formula_sum "Si O2"
_cell_formula_units_Z 88
_cell_length_a 8.764663
_cell_length_b 29.950618
_cell_length_c 14.572956
_cell_angle_alpha 90.000000
_cell_angle_beta 90.000000
_cell_angle_gamma 90.000000
_cell_volume 3825.504031
_symmetry_space_group_name_H-M "C M C A"
_symmetry_group_IT_number 64
_symmetry_cell_setting 'orthorhombic'
loop_
_space_group_symop_operation_xyz
x,y,z
-x,1/2-y,1/2+z
x,-y,-z
-x,1/2+y,1/2-z
-x,-y,-z
x,1/2+y,1/2-z
-x,y,z
x,1/2-y,1/2+z
1/2+x,1/2+y,z
1/2-x,-y,1/2+z
1/2+x,1/2-y,-z
1/2-x,y,1/2-z
1/2-x,1/2-y,-z
1/2+x,y,1/2-z
1/2-x,1/2+y,z
1/2+x,-y,1/2+z
loop_
_atom_site_type_symbol
_atom_site_label
_atom_site_fract_x
_atom_site_fract_y
_atom_site_fract_z
Si Si1 0.678583 0.691641 0.592652
Si Si2 0.750000 0.361293 0.750000
Si Si3 0.819785 0.009101 0.651538
Si Si4 0.323965 0.577037 0.100547
Si Si5 0.171648 0.291249 0.599503
Si Si6 0.171943 0.101767 0.891360
O O1 0.500000 0.682678 0.604142
O O2 0.718213 0.695127 0.483696
O O3 0.714224 0.741131 0.630042
O O4 0.771431 0.650697 0.634774
O O5 0.789468 0.396960 0.830466
O O6 0.833249 0.325908 0.683140
O O7 0.750000 0.997087 0.750000
O O8 0.733993 0.973249 0.588021
O O9 0.000000 0.002947 0.646217
O O10 0.777631 0.060627 0.636442
O O11 0.500000 0.577960 0.136832
O O12 0.328730 0.600230 0.002166
O O13 0.000000 0.288648 0.559829
O O14 0.000000 0.093090 0.858151
#
# Coordination Sequence:
#
# PCOD9480254 Si02
#       6
#    16   8  16  16  16  16
#     4  10  21  39  65  92 125 167 217 268 321 390
#     4  12  22  38  68  96 130 170 218 268 326 392
#     4  12  26  44  67  96 131 170 219 271 326 391
#     4  11  24  42  66  97 133 172 215 268 330 389
#     4  10  22  41  62  92 129 167 212 266 326 385
#     4  11  23  44  70  95 132 176 218 268 331 393
#
# _framework density 23.003505000000001
#
# number of rings (size 3 to 8) (size 9 to 14) (size 15 to 20)
#    0.000    1.091    2.727    3.818    0.000    6.545 
#    1.636    0.000    0.000    0.000    0.000    0.000 
#    0.000    0.000    0.000    0.000    0.000    0.000 
#
# Total GULP energy -245565.572902 kJ/mol
# GULP energy per Si atom -5581.035748 kJ/mol
# Density = 2.295115 g / cm^3
# Si number density = 23.003505 Si / 1000 Ang^3
#
#
#
# Elastic Constant Matrix: (Units=GPa)
#
#
# Indices 1 2 3 4 5 6 
#
# 1 76.1238 38.1355 9.7690 0.0000 0.0000 0.0000
# 2 38.1355 169.5613 12.5330 0.0000 0.0000 0.0000
# 3 9.7690 12.5330 53.2281 0.0000 0.0000 0.0000
# 4 0.0000 0.0000 0.0000 41.9024 0.0000 0.0000
# 5 0.0000 0.0000 0.0000 0.0000 14.2874 0.0000
# 6 0.0000 0.0000 0.0000 0.0000 0.0000 62.4355
#
#
#
# Elastic Compliance Matrix: (Units=1/GPa)
#
#
# Indices 1 2 3 4 5 6 
#
# 1 0.015010 -0.003228 -0.001995 0.000000 0.000000 0.000000
# 2 -0.003228 0.006696 -0.000984 0.000000 0.000000 0.000000
# 3 -0.001995 -0.000984 0.019385 0.000000 0.000000 0.000000
# 4 0.000000 0.000000 0.000000 0.023865 0.000000 0.000000
# 5 0.000000 0.000000 0.000000 0.000000 0.069992 0.000000
# 6 0.000000 0.000000 0.000000 0.000000 0.000000 0.016017
#
#
# Mechanical properties :
#
#
# Convention : Reuss Voigt Hill
#
# Bulk Modulus (GPa) = 34.87158 46.64314 40.75736
# Shear Modulus (GPa) = 28.91220 39.62345 34.26782
#
# Velocity S-wave (km/s) = 3.54907 4.15480 3.86382
# Velocity P-wave (km/s) = 5.65568 6.58309 6.13693
#
# Compressibility (1/GPa) = 0.02867665
#
# Stress axis : x y z
#
# Youngs Moduli (GPa) = 66.62323 149.33393 51.58663
#
# Poissons Ratio (x) = 0.48211 0.10290
# Poissons Ratio (y) = 0.21508 0.05077
# Poissons Ratio (z) = 0.13289 0.14698
#
# Static dielectric constant tensor:
#      x y z
#    x 1.825800 0.000000 0.000000 
#    y 0.000000 1.869140 0.000000 
#    z 0.000000 0.000000 1.715400 
# 
# From -- ./inp_files/30100.got.cif
#   From: 2010.05.17/outbox.cif.g08.bks.cpg/sg64_16_cif.got.tgz:30100.got - 2010.06.03 16:29:19.
