data_PCOD9480433
_publ_section_title
;
Structure prediction by ZEFSAII (Michael W. Deem and Ramdas Pophale) SiO2 
 PCOD9480433
Probable space group: C M C A
;
_chemical_formula_sum "Si O2"
_cell_formula_units_Z 88
_cell_length_a 13.834616
_cell_length_b 17.190979
_cell_length_c 19.244092
_cell_angle_alpha 90.000000
_cell_angle_beta 90.000000
_cell_angle_gamma 90.000000
_cell_volume 4576.833815
_symmetry_space_group_name_H-M "C M C A"
_symmetry_group_IT_number 64
_symmetry_cell_setting 'orthorhombic'
loop_
_space_group_symop_operation_xyz
x,y,z
-x,1/2-y,1/2+z
x,-y,-z
-x,1/2+y,1/2-z
-x,-y,-z
x,1/2+y,1/2-z
-x,y,z
x,1/2-y,1/2+z
1/2+x,1/2+y,z
1/2-x,-y,1/2+z
1/2+x,1/2-y,-z
1/2-x,y,1/2-z
1/2-x,1/2-y,-z
1/2+x,y,1/2-z
1/2-x,1/2+y,z
1/2+x,-y,1/2+z
loop_
_atom_site_type_symbol
_atom_site_label
_atom_site_fract_x
_atom_site_fract_y
_atom_site_fract_z
Si Si1 0.854749 0.093408 0.731835
Si Si2 0.809422 0.769510 0.812757
Si Si3 0.000000 0.038588 0.615867
Si Si4 0.500000 0.878419 0.968536
Si Si5 0.167668 0.254870 0.941930
Si Si6 0.000000 0.634561 0.529263
Si Si7 0.000000 0.960972 0.156874
Si Si8 0.000000 0.360793 0.637284
O O1 0.750000 0.061692 0.750000
O O2 0.845635 0.184708 0.713118
O O3 0.909275 0.053695 0.666991
O O4 0.912462 0.078945 0.802443
O O5 0.750000 0.808556 0.750000
O O6 0.728749 0.758048 0.871690
O O7 0.903036 0.815820 0.839236
O O8 0.000000 0.097095 0.549900
O O9 0.000000 0.954153 0.580443
O O10 0.595782 0.827878 0.953053
O O11 0.095202 0.182346 0.948082
O O12 0.250000 0.250000 0.000000
O O13 0.000000 0.557324 0.575409
O O14 0.000000 0.631200 0.446244
O O15 0.000000 0.052903 0.168727
#
# Coordination Sequence:
#
# PCOD9480433 Si02
#       8
#    16  16   8   8  16   8   8   8
#     4  10  22  42  68  87 123 171 214 261 320 383
#     4  11  24  42  67  98 123 167 223 266 314 381
#     4  10  21  41  64  92 134 169 213 260 326 389
#     4  10  24  38  62  99 131 172 212 270 321 375
#     4  11  22  40  66  93 123 166 218 262 310 372
#     4  11  22  42  65  89 131 166 212 261 320 385
#     4  11  25  40  59  95 125 169 208 252 329 390
#     4  12  25  41  64  93 132 168 203 273 322 375
#
# _framework density 19.227264999999999
#
# number of rings (size 3 to 8) (size 9 to 14) (size 15 to 20)
#    0.000    1.273    1.818    4.636    2.545    6.545 
#    0.000    1.818    0.000    0.000    0.000    0.000 
#    0.000    0.000    0.000    0.000    0.000    0.000 
#
# Total GULP energy -245664.138282 kJ/mol
# GULP energy per Si atom -5583.275870 kJ/mol
# Density = 1.918350 g / cm^3
# Si number density = 19.227265 Si / 1000 Ang^3
#
#
#
# Elastic Constant Matrix: (Units=GPa)
#
#
# Indices 1 2 3 4 5 6 
#
# 1 170.5143 49.5807 68.6674 0.0000 0.0000 0.0000
# 2 49.5807 86.6538 42.5219 0.0000 0.0000 0.0000
# 3 68.6674 42.5219 149.4228 0.0000 0.0000 0.0000
# 4 0.0000 0.0000 0.0000 27.0045 0.0000 0.0000
# 5 0.0000 0.0000 0.0000 0.0000 -122.8720 0.0000
# 6 0.0000 0.0000 0.0000 0.0000 0.0000 -5.6826
#
#
#
# Elastic Compliance Matrix: (Units=1/GPa)
#
#
# Indices 1 2 3 4 5 6 
#
# 1 0.007883 -0.003176 -0.002719 0.000000 0.000000 0.000000
# 2 -0.003176 0.014693 -0.002722 0.000000 0.000000 0.000000
# 3 -0.002719 -0.002722 0.008716 0.000000 0.000000 0.000000
# 4 0.000000 0.000000 0.000000 0.037031 0.000000 0.000000
# 5 0.000000 0.000000 0.000000 0.000000 -0.008139 0.000000
# 6 0.000000 0.000000 0.000000 0.000000 0.000000 -0.175976
#
#
# Mechanical properties :
#
#
# Convention : Reuss Voigt Hill
#
# Bulk Modulus (GPa) = 71.12830 80.90345 76.01587
# Shear Modulus (GPa) = -53.26425 -3.92195 -28.59310
#
# Velocity S-wave (km/s) = -5.26902 -1.42976 -3.86049
# Velocity P-wave (km/s) = 0.23867 6.28038 4.44411
#
# Compressibility (1/GPa) = 0.01405910
#
# Stress axis : x y z
#
# Youngs Moduli (GPa) = 126.85422 68.05923 114.72728
#
# Poissons Ratio (x) = 0.21618 0.31192
# Poissons Ratio (y) = 0.40293 0.31224
# Poissons Ratio (z) = 0.34489 0.18523
#
# Static dielectric constant tensor:
#      x y z
#    x 1.666920 0.000000 0.000000 
#    y 0.000000 1.660120 0.000000 
#    z 0.000000 0.000000 1.695220 
# 
# From -- ./inp_files/38150.got.cif
#   From: 2010.05.17/outbox.cif.g08.bks.cpg/sg64_20_cif.got.tgz:38150.got - 2010.06.03 16:29:19.
