data_PCOD9480808
_publ_section_title
;
Structure prediction by ZEFSAII (Michael W. Deem and Ramdas Pophale) SiO2 
 PCOD9480808
Probable space group: C M C A
;
_chemical_formula_sum "Si O2"
_cell_formula_units_Z 104
_cell_length_a 26.197042
_cell_length_b 22.619947
_cell_length_c 8.762103
_cell_angle_alpha 90.000000
_cell_angle_beta 90.000000
_cell_angle_gamma 90.000000
_cell_volume 5192.209333
_symmetry_space_group_name_H-M "C M C A"
_symmetry_group_IT_number 64
_symmetry_cell_setting 'orthorhombic'
loop_
_space_group_symop_operation_xyz
x,y,z
-x,1/2-y,1/2+z
x,-y,-z
-x,1/2+y,1/2-z
-x,-y,-z
x,1/2+y,1/2-z
-x,y,z
x,1/2-y,1/2+z
1/2+x,1/2+y,z
1/2-x,-y,1/2+z
1/2+x,1/2-y,-z
1/2-x,y,1/2-z
1/2-x,1/2-y,-z
1/2+x,y,1/2-z
1/2-x,1/2+y,z
1/2+x,-y,1/2+z
loop_
_atom_site_type_symbol
_atom_site_label
_atom_site_fract_x
_atom_site_fract_y
_atom_site_fract_z
Si Si1 0.196762 0.714191 0.674506
Si Si2 0.890333 0.876099 0.227030
Si Si3 0.000000 0.052936 0.289087
Si Si4 0.154458 0.991941 0.333596
Si Si5 0.000000 0.086482 0.644940
Si Si6 0.686711 0.169003 0.337238
Si Si7 0.898218 0.913348 0.873688
Si Si8 0.750000 0.061167 0.250000
O O1 0.250000 0.690974 0.750000
O O2 0.143615 0.683844 0.732402
O O3 0.194807 0.702288 0.495147
O O4 0.197676 0.784150 0.706192
O O5 0.946962 0.881359 0.302508
O O6 0.852193 0.923625 0.301941
O O7 0.897195 0.899884 0.053312
O O8 0.000000 0.075944 0.462880
O O9 0.952806 0.078088 0.196744
O O10 0.000000 0.980970 0.288488
O O11 0.129617 0.028305 0.193675
O O12 0.210598 0.019926 0.338229
O O13 0.128857 0.000000 0.500000
O O14 0.630711 0.143514 0.307081
O O15 0.719096 0.108530 0.350884
#
# Coordination Sequence:
#
# PCOD9480808 Si02
#       8
#    16  16   8  16   8  16  16   8
#     4  11  24  40  66  90 122 162 207 252 303 363
#     4  11  24  39  62  93 126 163 203 253 304 369
#     4  11  21  39  64  91 121 166 199 257 296 364
#     4  11  23  36  58  87 124 164 203 251 301 366
#     4  11  23  39  60  95 125 158 211 243 306 360
#     4  10  23  42  61  90 119 160 206 252 304 361
#     4  10  22  40  62  89 124 160 204 249 310 360
#     4  10  24  38  58  84 128 160 204 256 302 360
#
# _framework density 20.030009
#
# number of rings (size 3 to 8) (size 9 to 14) (size 15 to 20)
#    0.000    1.385    2.308    2.308    3.231    5.538 
#    0.000    0.769    0.000    0.000    0.000    0.000 
#    0.000    0.000    0.000    0.000    0.000    0.000 
#
# Total GULP energy -289732.049520 kJ/mol
# GULP energy per Si atom -5571.770183 kJ/mol
# Density = 1.998442 g / cm^3
# Si number density = 20.030009 Si / 1000 Ang^3
#
#
#
# Elastic Constant Matrix: (Units=GPa)
#
#
# Indices 1 2 3 4 5 6 
#
# 1 124.6627 39.7349 8.1734 0.0000 0.0000 0.0000
# 2 39.7349 50.4808 -2.2056 0.0000 0.0000 0.0000
# 3 8.1734 -2.2056 15.9361 0.0000 0.0000 0.0000
# 4 0.0000 0.0000 0.0000 19.2298 0.0000 0.0000
# 5 0.0000 0.0000 0.0000 0.0000 19.0890 0.0000
# 6 0.0000 0.0000 0.0000 0.0000 0.0000 26.2200
#
#
#
# Elastic Compliance Matrix: (Units=1/GPa)
#
#
# Indices 1 2 3 4 5 6 
#
# 1 0.011470 -0.009342 -0.007176 0.000000 0.000000 0.000000
# 2 -0.009342 0.027538 0.008603 0.000000 0.000000 0.000000
# 3 -0.007176 0.008603 0.067622 0.000000 0.000000 0.000000
# 4 0.000000 0.000000 0.000000 0.052003 0.000000 0.000000
# 5 0.000000 0.000000 0.000000 0.000000 0.052386 0.000000
# 6 0.000000 0.000000 0.000000 0.000000 0.000000 0.038139
#
#
# Mechanical properties :
#
#
# Convention : Reuss Voigt Hill
#
# Bulk Modulus (GPa) = 11.01315 31.38721 21.20018
# Shear Modulus (GPa) = 16.93463 22.59956 19.76709
#
# Velocity S-wave (km/s) = 2.91084 3.36264 3.14486
# Velocity P-wave (km/s) = 4.09970 5.54802 4.87792
#
# Compressibility (1/GPa) = 0.09080055
#
# Stress axis : x y z
#
# Youngs Moduli (GPa) = 87.18677 36.31295 14.78818
#
# Poissons Ratio (x) = 0.33922 0.10611
# Poissons Ratio (y) = 0.81446 -0.12722
# Poissons Ratio (z) = 0.62561 -0.31239
#
# Static dielectric constant tensor:
#      x y z
#    x 1.607440 0.000000 0.000000 
#    y 0.000000 1.682590 0.000000 
#    z 0.000000 0.000000 1.728670 
# 
# From -- ./inp_files/10475.got.cif
#   From: 2010.05.17/outbox.cif.g08.bks.cpg/sg64_6_cif.got.tgz:10475.got - 2010.06.03 16:29:19.
