data_PCOD9480961
_publ_section_title
;
Structure prediction by ZEFSAII (Michael W. Deem and Ramdas Pophale) SiO2 
 PCOD9480961
Probable space group: C M C A
;
_chemical_formula_sum "Si O2"
_cell_formula_units_Z 56
_cell_length_a 18.341159
_cell_length_b 16.629902
_cell_length_c 8.673033
_cell_angle_alpha 90.000000
_cell_angle_beta 90.000000
_cell_angle_gamma 90.000000
_cell_volume 2645.376338
_symmetry_space_group_name_H-M "C M C A"
_symmetry_group_IT_number 64
_symmetry_cell_setting 'orthorhombic'
loop_
_space_group_symop_operation_xyz
x,y,z
-x,1/2-y,1/2+z
x,-y,-z
-x,1/2+y,1/2-z
-x,-y,-z
x,1/2+y,1/2-z
-x,y,z
x,1/2-y,1/2+z
1/2+x,1/2+y,z
1/2-x,-y,1/2+z
1/2+x,1/2-y,-z
1/2-x,y,1/2-z
1/2-x,1/2-y,-z
1/2+x,y,1/2-z
1/2-x,1/2+y,z
1/2+x,-y,1/2+z
loop_
_atom_site_type_symbol
_atom_site_label
_atom_site_fract_x
_atom_site_fract_y
_atom_site_fract_z
Si Si1 0.000000 0.786647 0.460987
Si Si2 0.883522 0.000000 0.000000
Si Si3 0.148616 0.712775 0.130468
Si Si4 0.194912 0.849154 0.942052
Si Si5 0.500000 0.878620 0.370900
O O1 0.073225 0.812311 0.552650
O O2 0.000000 0.826268 0.288805
O O3 0.000000 0.688763 0.490979
O O4 0.933337 0.941170 0.103555
O O5 0.830777 0.061291 0.086555
O O6 0.152744 0.701997 0.312239
O O7 0.218904 0.663540 0.070474
O O8 0.167792 0.805590 0.095954
#
# Coordination Sequence:
#
# PCOD9480961 Si02
#       5
#     8   8  16  16   8
#     4  12  22  43  72 102 128 176 231 281 312 428
#     4  11  24  44  64  97 142 174 208 291 346 378
#     4  10  22  41  70  97 124 180 231 265 324 414
#     4  10  22  44  66  95 133 176 228 270 333 402
#     4  11  26  41  72 100 135 177 224 270 352 386
#
# _framework density 21.169011999999999
#
# number of rings (size 3 to 8) (size 9 to 14) (size 15 to 20)
#    0.000    1.429    2.857    1.714    0.000    1.143 
#   10.286    1.429    0.000    0.000    0.000    0.000 
#    0.000    0.000    0.000    0.000    0.000    0.000 
#
# Total GULP energy -156072.239098 kJ/mol
# GULP energy per Si atom -5574.008539 kJ/mol
# Density = 2.112083 g / cm^3
# Si number density = 21.169012 Si / 1000 Ang^3
#
#
#
# Elastic Constant Matrix: (Units=GPa)
#
#
# Indices 1 2 3 4 5 6 
#
# 1 176.4247 61.7699 34.0012 0.0000 0.0000 0.0000
# 2 61.7699 136.8982 47.3850 0.0000 0.0000 0.0000
# 3 34.0012 47.3850 71.9691 0.0000 0.0000 0.0000
# 4 0.0000 0.0000 0.0000 15.1063 0.0000 0.0000
# 5 0.0000 0.0000 0.0000 0.0000 20.3152 0.0000
# 6 0.0000 0.0000 0.0000 0.0000 0.0000 35.6811
#
#
#
# Elastic Compliance Matrix: (Units=1/GPa)
#
#
# Indices 1 2 3 4 5 6 
#
# 1 0.006864 -0.002558 -0.001559 0.000000 0.000000 0.000000
# 2 -0.002558 0.010414 -0.005648 0.000000 0.000000 0.000000
# 3 -0.001559 -0.005648 0.018350 0.000000 0.000000 0.000000
# 4 0.000000 0.000000 0.000000 0.066198 0.000000 0.000000
# 5 0.000000 0.000000 0.000000 0.000000 0.049224 0.000000
# 6 0.000000 0.000000 0.000000 0.000000 0.000000 0.028026
#
#
# Mechanical properties :
#
#
# Convention : Reuss Voigt Hill
#
# Bulk Modulus (GPa) = 62.11728 74.62268 68.36998
# Shear Modulus (GPa) = 24.51325 30.36291 27.43808
#
# Velocity S-wave (km/s) = 3.40660 3.79134 3.60411
# Velocity P-wave (km/s) = 6.69929 7.38194 7.04888
#
# Compressibility (1/GPa) = 0.01609858
#
# Stress axis : x y z
#
# Youngs Moduli (GPa) = 145.68705 96.02746 54.49538
#
# Poissons Ratio (x) = 0.24559 0.08496
# Poissons Ratio (y) = 0.37260 0.30780
# Poissons Ratio (z) = 0.22712 0.54238
#
# Static dielectric constant tensor:
#      x y z
#    x 1.855360 0.000000 0.000000 
#    y 0.000000 1.769840 0.000000 
#    z 0.000000 0.000000 1.812150 
# 
# From -- ./inp_files/6491.got.cif
#   From: 2010.05.17/outbox.cif.g08.bks.cpg/sg64_4_cif.got.tgz:6491.got - 2010.06.03 16:29:19.
