data_PCOD9480217
_publ_section_title
;
Structure prediction by ZEFSAII (Michael W. Deem and Ramdas Pophale) SiO2 
 PCOD9480217
Probable space group: C M C A
;
_chemical_formula_sum "Si O2"
_cell_formula_units_Z 96
_cell_length_a 13.853236
_cell_length_b 17.763698
_cell_length_c 18.490511
_cell_angle_alpha 90.000000
_cell_angle_beta 90.000000
_cell_angle_gamma 90.000000
_cell_volume 4550.231864
_symmetry_space_group_name_H-M "C M C A"
_symmetry_group_IT_number 64
_symmetry_cell_setting 'orthorhombic'
loop_
_space_group_symop_operation_xyz
x,y,z
-x,1/2-y,1/2+z
x,-y,-z
-x,1/2+y,1/2-z
-x,-y,-z
x,1/2+y,1/2-z
-x,y,z
x,1/2-y,1/2+z
1/2+x,1/2+y,z
1/2-x,-y,1/2+z
1/2+x,1/2-y,-z
1/2-x,y,1/2-z
1/2-x,1/2-y,-z
1/2+x,y,1/2-z
1/2-x,1/2+y,z
1/2+x,-y,1/2+z
loop_
_atom_site_type_symbol
_atom_site_label
_atom_site_fract_x
_atom_site_fract_y
_atom_site_fract_z
Si Si1 0.886563 0.118731 0.707921
Si Si2 0.194264 0.103222 0.118684
Si Si3 0.387850 0.790921 0.733412
Si Si4 0.610682 0.828601 0.900419
Si Si5 0.695418 0.431450 0.139028
Si Si6 0.386488 0.178097 0.520745
O O1 0.862578 0.207943 0.704652
O O2 0.808569 0.075132 0.659673
O O3 0.864162 0.093701 0.790045
O O4 0.000000 0.108093 0.691300
O O5 0.171892 0.144051 0.194415
O O6 0.307163 0.109180 0.099073
O O7 0.166712 0.016374 0.119941
O O8 0.137899 0.152589 0.059704
O O9 0.500000 0.804695 0.716178
O O10 0.381002 0.791437 0.820383
O O11 0.500000 0.853888 0.909211
O O12 0.633746 0.764771 0.959555
O O13 0.671916 0.375342 0.074462
O O14 0.500000 0.167426 0.535322
#
# Coordination Sequence:
#
# PCOD9480217 Si02
#       6
#    16  16  16  16  16  16
#     4  10  22  41  64  88 123 168 215 259 306 374
#     4  12  25  38  62  98 129 162 207 265 315 373
#     4  10  21  39  63  91 121 161 211 261 310 365
#     4  10  22  40  63  88 123 168 211 257 314 369
#     4  11  24  39  62  95 127 166 208 254 321 375
#     4  11  23  44  67  90 125 170 211 257 316 379
#
# _framework density 21.097826000000001
#
# number of rings (size 3 to 8) (size 9 to 14) (size 15 to 20)
#    0.000    1.333    1.667    3.500    7.000    4.000 
#    0.000    2.500    0.000    2.000    0.000    0.000 
#    0.000    0.000    0.000    0.000    0.000    0.000 
#
# Total GULP energy -268415.700833 kJ/mol
# GULP energy per Si atom -5591.993767 kJ/mol
# Density = 2.104981 g / cm^3
# Si number density = 21.097826 Si / 1000 Ang^3
#
#
#
# Elastic Constant Matrix: (Units=GPa)
#
#
# Indices 1 2 3 4 5 6 
#
# 1 64.0967 -0.2214 -9.3820 0.0000 0.0000 0.0000
# 2 -0.2214 31.6116 -19.7385 0.0000 0.0000 0.0000
# 3 -9.3820 -19.7385 38.5839 0.0000 0.0000 0.0000
# 4 0.0000 0.0000 0.0000 -20.3442 0.0000 0.0000
# 5 0.0000 0.0000 0.0000 0.0000 26.5865 0.0000
# 6 0.0000 0.0000 0.0000 0.0000 0.0000 -20.9155
#
#
#
# Elastic Compliance Matrix: (Units=1/GPa)
#
#
# Indices 1 2 3 4 5 6 
#
# 1 0.016490 0.003848 0.005978 0.000000 0.000000 0.000000
# 2 0.003848 0.047380 0.025174 0.000000 0.000000 0.000000
# 3 0.005978 0.025174 0.040250 0.000000 0.000000 0.000000
# 4 0.000000 0.000000 0.000000 -0.049154 0.000000 0.000000
# 5 0.000000 0.000000 0.000000 0.000000 0.037613 0.000000
# 6 0.000000 0.000000 0.000000 0.000000 0.000000 -0.047811
#
#
# Mechanical properties :
#
#
# Convention : Reuss Voigt Hill
#
# Bulk Modulus (GPa) = 5.74312 8.40092 7.07202
# Shear Modulus (GPa) = 152.41401 7.97430 80.19415
#
# Velocity S-wave (km/s) = 8.50872 1.94625 6.17196
# Velocity P-wave (km/s) = 9.96289 3.00683 7.35868
#
# Compressibility (1/GPa) = 0.17412128
#
# Stress axis : x y z
#
# Youngs Moduli (GPa) = 60.64356 21.10602 24.84493
#
# Poissons Ratio (x) = -0.08123 -0.14853
# Poissons Ratio (y) = -0.23339 -0.62545
# Poissons Ratio (z) = -0.36255 -0.53132
#
# Static dielectric constant tensor:
#      x y z
#    x 1.778260 0.000000 0.000000 
#    y 0.000000 1.705180 0.000000 
#    z 0.000000 0.000000 1.756010 
# 
# From -- ./inp_files/39251.got.cif
#   From: 2010.05.17/outbox.cif.g08.bks.cpg/sg64_20_cif.got.tgz:39251.got - 2010.06.03 16:29:19.
