data_PCOD9480089
_publ_section_title
;
Structure prediction by ZEFSAII (Michael W. Deem and Ramdas Pophale) SiO2 
 PCOD9480089
Probable space group: C M C A
;
_chemical_formula_sum "Si O2"
_cell_formula_units_Z 96
_cell_length_a 22.015695
_cell_length_b 9.018076
_cell_length_c 21.734933
_cell_angle_alpha 90.000000
_cell_angle_beta 90.000000
_cell_angle_gamma 90.000000
_cell_volume 4315.236442
_symmetry_space_group_name_H-M "C M C A"
_symmetry_group_IT_number 64
_symmetry_cell_setting 'orthorhombic'
loop_
_space_group_symop_operation_xyz
x,y,z
-x,1/2-y,1/2+z
x,-y,-z
-x,1/2+y,1/2-z
-x,-y,-z
x,1/2+y,1/2-z
-x,y,z
x,1/2-y,1/2+z
1/2+x,1/2+y,z
1/2-x,-y,1/2+z
1/2+x,1/2-y,-z
1/2-x,y,1/2-z
1/2-x,1/2-y,-z
1/2+x,y,1/2-z
1/2-x,1/2+y,z
1/2+x,-y,1/2+z
loop_
_atom_site_type_symbol
_atom_site_label
_atom_site_fract_x
_atom_site_fract_y
_atom_site_fract_z
Si Si1 0.697049 0.779134 0.115963
Si Si2 0.566268 0.186130 0.856639
Si Si3 0.302282 0.410178 0.563249
Si Si4 0.434946 0.845176 0.901062
Si Si5 0.188178 0.579992 0.268675
Si Si6 0.606752 0.694762 0.785862
O O1 0.624585 0.751286 0.106779
O O2 0.746810 0.702096 0.073014
O O3 0.705906 0.704453 0.181973
O O4 0.704075 0.955901 0.112803
O O5 0.500000 0.251260 0.870575
O O6 0.577750 0.197998 0.782706
O O7 0.564504 0.012456 0.873932
O O8 0.298218 0.500000 0.500000
O O9 0.369233 0.335641 0.566097
O O10 0.500000 0.827544 0.935331
O O11 0.434024 0.732291 0.843817
O O12 0.250000 0.502595 0.250000
O O13 0.155273 0.671209 0.215160
O O14 0.140962 0.460096 0.293296
#
# Coordination Sequence:
#
# PCOD9480089 Si02
#       6
#    16  16  16  16  16  16
#     4  10  24  39  63  94 121 160 204 258 313 369
#     4   9  19  38  59  88 126 166 201 235 292 372
#     4  11  24  44  67  89 119 161 214 273 327 370
#     4  10  21  38  62  92 124 159 208 253 302 368
#     4  11  23  33  57  89 131 162 198 238 297 369
#     4  11  20  36  55  89 125 167 198 236 291 367
#
# _framework density 22.246752999999998
#
# number of rings (size 3 to 8) (size 9 to 14) (size 15 to 20)
#    0.000    1.667    1.667    2.500    9.333    0.333 
#    0.000    0.833    0.000    0.500    0.000    0.000 
#    0.000    0.000    0.000    0.000    0.000    0.000 
#
# Total GULP energy -267862.859488 kJ/mol
# GULP energy per Si atom -5580.476239 kJ/mol
# Density = 2.219612 g / cm^3
# Si number density = 22.246753 Si / 1000 Ang^3
#
#
#
# Elastic Constant Matrix: (Units=GPa)
#
#
# Indices 1 2 3 4 5 6 
#
# 1 187.7815 42.2723 20.2564 0.0000 0.0000 0.0000
# 2 42.2723 74.0372 8.6316 0.0000 0.0000 0.0000
# 3 20.2564 8.6316 35.4589 0.0000 0.0000 0.0000
# 4 0.0000 0.0000 0.0000 25.7078 0.0000 0.0000
# 5 0.0000 0.0000 0.0000 0.0000 0.4165 0.0000
# 6 0.0000 0.0000 0.0000 0.0000 0.0000 7.5517
#
#
#
# Elastic Compliance Matrix: (Units=1/GPa)
#
#
# Indices 1 2 3 4 5 6 
#
# 1 0.006376 -0.003310 -0.002837 0.000000 0.000000 0.000000
# 2 -0.003310 0.015619 -0.001911 0.000000 0.000000 0.000000
# 3 -0.002837 -0.001911 0.030288 0.000000 0.000000 0.000000
# 4 0.000000 0.000000 0.000000 0.038899 0.000000 0.000000
# 5 0.000000 0.000000 0.000000 0.000000 2.401150 0.000000
# 6 0.000000 0.000000 0.000000 0.000000 0.000000 0.132421
#
#
# Mechanical properties :
#
#
# Convention : Reuss Voigt Hill
#
# Bulk Modulus (GPa) = 27.64946 48.84424 38.24685
# Shear Modulus (GPa) = 1.88471 21.80968 11.84720
#
# Velocity S-wave (km/s) = 0.92143 3.13446 2.31018
# Velocity P-wave (km/s) = 3.68613 5.92479 4.93410
#
# Compressibility (1/GPa) = 0.03616707
#
# Stress axis : x y z
#
# Youngs Moduli (GPa) = 156.82621 64.02291 33.01681
#
# Poissons Ratio (x) = 0.21191 0.09367
# Poissons Ratio (y) = 0.51909 0.06311
# Poissons Ratio (z) = 0.44490 0.12237
#
# Static dielectric constant tensor:
#      x y z
#    x 1.925630 0.000000 0.000000 
#    y 0.000000 1.784280 0.000000 
#    z 0.000000 0.000000 1.873240 
# 
# From -- ./inp_files/50653.got.cif
#   From: 2010.05.17/outbox.cif.g08.bks.cpg/sg64_26_cif.got.tgz:50653.got - 2010.06.03 16:29:19.
