data_PCOD9480004
_publ_section_title
;
Structure prediction by ZEFSAII (Michael W. Deem and Ramdas Pophale) SiO2 
 PCOD9480004
Probable space group: C M C A
;
_chemical_formula_sum "Si O2"
_cell_formula_units_Z 64
_cell_length_a 26.353230
_cell_length_b 8.259844
_cell_length_c 14.657319
_cell_angle_alpha 90.000000
_cell_angle_beta 90.000000
_cell_angle_gamma 90.000000
_cell_volume 3190.510934
_symmetry_space_group_name_H-M "C M C A"
_symmetry_group_IT_number 64
_symmetry_cell_setting 'orthorhombic'
loop_
_space_group_symop_operation_xyz
x,y,z
-x,1/2-y,1/2+z
x,-y,-z
-x,1/2+y,1/2-z
-x,-y,-z
x,1/2+y,1/2-z
-x,y,z
x,1/2-y,1/2+z
1/2+x,1/2+y,z
1/2-x,-y,1/2+z
1/2+x,1/2-y,-z
1/2-x,y,1/2-z
1/2-x,1/2-y,-z
1/2+x,y,1/2-z
1/2-x,1/2+y,z
1/2+x,-y,1/2+z
loop_
_atom_site_type_symbol
_atom_site_label
_atom_site_fract_x
_atom_site_fract_y
_atom_site_fract_z
Si Si1 0.303628 0.189114 0.798837
Si Si2 0.859112 0.321636 0.539628
Si Si3 0.557026 0.416529 0.400216
Si Si4 0.645981 0.632399 0.353193
O O1 0.250000 0.205827 0.750000
O O2 0.315266 0.306462 0.884195
O O3 0.344870 0.230888 0.721348
O O4 0.313258 0.008741 0.834856
O O5 0.865621 0.500000 0.500000
O O6 0.909669 0.245696 0.585919
O O7 0.847942 0.205114 0.453775
O O8 0.553492 0.500000 0.500000
O O9 0.500000 0.390430 0.366100
O O10 0.591805 0.543132 0.345034
#
# Coordination Sequence:
#
# PCOD9480004 Si02
#       4
#    16  16  16  16
#     4  11  22  38  59  84 118 158 200 246 298 355
#     4  10  21  38  61  89 123 157 197 249 300 357
#     4   8  16  34  59  85 116 153 190 235 292 349
#     4  10  21  38  59  86 118 153 198 250 298 355
#
# _framework density 20.059483
#
# number of rings (size 3 to 8) (size 9 to 14) (size 15 to 20)
#    0.000    2.250    0.000    4.500    0.000    1.500 
#    0.000   12.500    0.000    6.000    0.000    0.000 
#    0.000    0.000    0.000    0.000    0.000    0.000 
#
# Total GULP energy -178561.537646 kJ/mol
# GULP energy per Si atom -5580.048051 kJ/mol
# Density = 2.001383 g / cm^3
# Si number density = 20.059483 Si / 1000 Ang^3
#
#
#
# Elastic Constant Matrix: (Units=GPa)
#
#
# Indices 1 2 3 4 5 6 
#
# 1 148.2892 72.1079 68.1080 0.0000 0.0000 0.0000
# 2 72.1079 76.8904 19.1312 0.0000 0.0000 0.0000
# 3 68.1080 19.1312 91.3310 0.0000 0.0000 0.0000
# 4 0.0000 0.0000 0.0000 36.7329 0.0000 0.0000
# 5 0.0000 0.0000 0.0000 0.0000 20.2719 0.0000
# 6 0.0000 0.0000 0.0000 0.0000 0.0000 9.1300
#
#
#
# Elastic Compliance Matrix: (Units=1/GPa)
#
#
# Indices 1 2 3 4 5 6 
#
# 1 0.019382 -0.015382 -0.011231 0.000000 0.000000 0.000000
# 2 -0.015382 0.025928 0.006039 0.000000 0.000000 0.000000
# 3 -0.011231 0.006039 0.018060 0.000000 0.000000 0.000000
# 4 0.000000 0.000000 0.000000 0.027224 0.000000 0.000000
# 5 0.000000 0.000000 0.000000 0.000000 0.049329 0.000000
# 6 0.000000 0.000000 0.000000 0.000000 0.000000 0.109529
#
#
# Mechanical properties :
#
#
# Convention : Reuss Voigt Hill
#
# Bulk Modulus (GPa) = 45.00094 70.57829 57.78962
# Shear Modulus (GPa) = 16.77824 23.70453 20.24139
#
# Velocity S-wave (km/s) = 2.89524 3.44133 3.18003
# Velocity P-wave (km/s) = 5.80164 7.14502 6.50808
#
# Compressibility (1/GPa) = 0.02222176
#
# Stress axis : x y z
#
# Youngs Moduli (GPa) = 51.59544 38.56878 55.37206
#
# Poissons Ratio (x) = 0.59325 0.62190
# Poissons Ratio (y) = 0.79362 -0.33441
# Poissons Ratio (z) = 0.57949 -0.23293
#
# Static dielectric constant tensor:
#      x y z
#    x 1.735750 0.000000 0.000000 
#    y 0.000000 1.715510 0.000000 
#    z 0.000000 0.000000 1.724910 
# 
# From -- ./inp_files/26926.got.cif
#   From: 2010.05.17/outbox.cif.g08.bks.cpg/sg64_14_cif.got.tgz:26926.got - 2010.06.03 16:29:19.
