data_PCOD9480445
_publ_section_title
;
Structure prediction by ZEFSAII (Michael W. Deem and Ramdas Pophale) SiO2 
 PCOD9480445
Probable space group: C M C A
;
_chemical_formula_sum "Si O2"
_cell_formula_units_Z 112
_cell_length_a 23.954180
_cell_length_b 13.372181
_cell_length_c 16.020280
_cell_angle_alpha 90.000000
_cell_angle_beta 90.000000
_cell_angle_gamma 90.000000
_cell_volume 5131.610173
_symmetry_space_group_name_H-M "C M C A"
_symmetry_group_IT_number 64
_symmetry_cell_setting 'orthorhombic'
loop_
_space_group_symop_operation_xyz
x,y,z
-x,1/2-y,1/2+z
x,-y,-z
-x,1/2+y,1/2-z
-x,-y,-z
x,1/2+y,1/2-z
-x,y,z
x,1/2-y,1/2+z
1/2+x,1/2+y,z
1/2-x,-y,1/2+z
1/2+x,1/2-y,-z
1/2-x,y,1/2-z
1/2-x,1/2-y,-z
1/2+x,y,1/2-z
1/2-x,1/2+y,z
1/2+x,-y,1/2+z
loop_
_atom_site_type_symbol
_atom_site_label
_atom_site_fract_x
_atom_site_fract_y
_atom_site_fract_z
Si Si1 0.562721 0.666239 0.996041
Si Si2 0.775510 0.639929 0.915657
Si Si3 0.798749 0.017020 0.806440
Si Si4 0.128033 0.976226 0.349379
Si Si5 0.437116 0.219790 0.828220
Si Si6 0.934872 0.819975 0.658514
Si Si7 0.682341 0.857764 0.551742
O O1 0.500000 0.617927 0.985799
O O2 0.562091 0.710164 0.090396
O O3 0.625925 0.622745 0.998064
O O4 0.565625 0.745321 0.920121
O O5 0.730082 0.617341 0.842981
O O6 0.819234 0.550170 0.906417
O O7 0.810298 0.743765 0.912860
O O8 0.738220 0.633626 0.997292
O O9 0.750000 0.968458 0.750000
O O10 0.849994 0.034274 0.745441
O O11 0.815456 0.940523 0.877529
O O12 0.101085 0.082898 0.362949
O O13 0.086212 0.885063 0.358851
O O14 0.500000 0.199512 0.800661
O O15 0.411986 0.270929 0.744924
O O16 0.000000 0.849884 0.672221
#
# Coordination Sequence:
#
# PCOD9480445 Si02
#       7
#    16  16  16  16  16  16  16
#     4  10  22  41  67  99 128 171 223 272 332 395
#     4  10  24  41  61  95 125 168 224 264 330 394
#     4  10  24  41  59  93 128 170 223 271 325 405
#     4  11  22  40  64  93 132 173 222 274 329 397
#     4  10  21  41  65  95 135 171 222 277 328 395
#     4  10  23  41  67  99 132 174 223 275 339 401
#     4  11  22  43  69  89 133 178 212 280 336 394
#
# _framework density 21.825509
#
# number of rings (size 3 to 8) (size 9 to 14) (size 15 to 20)
#    0.000    1.714    1.429    1.714    2.000    8.000 
#    0.000    2.857    0.000    1.714    0.000    0.000 
#    0.000    0.000    0.000    0.000    0.000    0.000 
#
# Total GULP energy -312272.414666 kJ/mol
# GULP energy per Si atom -5576.293119 kJ/mol
# Density = 2.177583 g / cm^3
# Si number density = 21.825509 Si / 1000 Ang^3
#
#
#
# Elastic Constant Matrix: (Units=GPa)
#
#
# Indices 1 2 3 4 5 6 
#
# 1 65.6715 14.3134 4.5266 0.0000 0.0000 0.0000
# 2 14.3134 53.3989 27.2154 0.0000 0.0000 0.0000
# 3 4.5266 27.2154 83.2348 0.0000 0.0000 0.0000
# 4 0.0000 0.0000 0.0000 24.7181 0.0000 0.0000
# 5 0.0000 0.0000 0.0000 0.0000 25.6628 0.0000
# 6 0.0000 0.0000 0.0000 0.0000 0.0000 17.9387
#
#
#
# Elastic Compliance Matrix: (Units=1/GPa)
#
#
# Indices 1 2 3 4 5 6 
#
# 1 0.016201 -0.004672 0.000647 0.000000 0.000000 0.000000
# 2 -0.004672 0.023819 -0.007534 0.000000 0.000000 0.000000
# 3 0.000647 -0.007534 0.014442 0.000000 0.000000 0.000000
# 4 0.000000 0.000000 0.000000 0.040456 0.000000 0.000000
# 5 0.000000 0.000000 0.000000 0.000000 0.038967 0.000000
# 6 0.000000 0.000000 0.000000 0.000000 0.000000 0.055745
#
#
# Mechanical properties :
#
#
# Convention : Reuss Voigt Hill
#
# Bulk Modulus (GPa) = 31.90471 32.71290 32.30880
# Shear Modulus (GPa) = 22.40160 24.08057 23.24109
#
# Velocity S-wave (km/s) = 3.20722 3.32523 3.26676
# Velocity P-wave (km/s) = 5.32586 5.45562 5.39113
#
# Compressibility (1/GPa) = 0.03134334
#
# Stress axis : x y z
#
# Youngs Moduli (GPa) = 61.72434 41.98298 69.24017
#
# Poissons Ratio (x) = 0.19615 -0.04477
# Poissons Ratio (y) = 0.28839 0.52166
# Poissons Ratio (z) = -0.03991 0.31630
#
# Static dielectric constant tensor:
#      x y z
#    x 1.801430 0.000000 0.000000 
#    y 0.000000 1.797580 0.000000 
#    z 0.000000 0.000000 1.828620 
# 
# From -- ./inp_files/27445.got.cif
#   From: 2010.05.17/outbox.cif.g08.bks.cpg/sg64_14_cif.got.tgz:27445.got - 2010.06.03 16:29:19.
