data_PCOD9480075
_publ_section_title
;
Structure prediction by ZEFSAII (Michael W. Deem and Ramdas Pophale) SiO2 
 PCOD9480075
Probable space group: C M C A
;
_chemical_formula_sum "Si O2"
_cell_formula_units_Z 72
_cell_length_a 12.986208
_cell_length_b 8.119574
_cell_length_c 28.891729
_cell_angle_alpha 90.000000
_cell_angle_beta 90.000000
_cell_angle_gamma 90.000000
_cell_volume 3046.415466
_symmetry_space_group_name_H-M "C M C A"
_symmetry_group_IT_number 64
_symmetry_cell_setting 'orthorhombic'
loop_
_space_group_symop_operation_xyz
x,y,z
-x,1/2-y,1/2+z
x,-y,-z
-x,1/2+y,1/2-z
-x,-y,-z
x,1/2+y,1/2-z
-x,y,z
x,1/2-y,1/2+z
1/2+x,1/2+y,z
1/2-x,-y,1/2+z
1/2+x,1/2-y,-z
1/2-x,y,1/2-z
1/2-x,1/2-y,-z
1/2+x,y,1/2-z
1/2-x,1/2+y,z
1/2+x,-y,1/2+z
loop_
_atom_site_type_symbol
_atom_site_label
_atom_site_fract_x
_atom_site_fract_y
_atom_site_fract_z
Si Si1 0.877330 0.711170 0.383989
Si Si2 0.250000 0.076349 0.750000
Si Si3 0.615959 0.070805 0.082945
Si Si4 0.624915 0.088476 0.546059
Si Si5 0.314020 0.678561 0.319786
O O1 0.857631 0.543757 0.412897
O O2 0.801999 0.697804 0.340347
O O3 0.000000 0.721028 0.374169
O O4 0.848007 0.881783 0.410850
O O5 0.326005 0.172444 0.715449
O O6 0.317896 0.972776 0.785241
O O7 0.500000 0.050014 0.065861
O O8 0.660767 0.223124 0.053445
O O9 0.619188 0.148071 0.134880
O O10 0.500000 0.099831 0.542547
O O11 0.664413 0.000000 0.500000
#
# Coordination Sequence:
#
# PCOD9480075 Si02
#       5
#    16   8  16  16  16
#     4  10  21  38  62  87 115 156 197 237 293 349
#     4  10  22  34  60  84 110 154 190 240 296 348
#     4  10  21  38  62  87 115 156 197 237 293 349
#     4   9  19  36  59  88 119 152 194 241 288 345
#     4  11  20  40  57  82 118 150 191 242 294 347
#
# _framework density 23.634333000000002
#
# number of rings (size 3 to 8) (size 9 to 14) (size 15 to 20)
#    0.000    2.000    2.222    1.333    0.000    0.889 
#    0.000   12.222    0.000    0.000    0.000    0.000 
#    0.000    0.000    0.000    0.000    0.000    0.000 
#
# Total GULP energy -200754.670897 kJ/mol
# GULP energy per Si atom -5576.518636 kJ/mol
# Density = 2.358054 g / cm^3
# Si number density = 23.634333 Si / 1000 Ang^3
#
#
#
# Elastic Constant Matrix: (Units=GPa)
#
#
# Indices 1 2 3 4 5 6 
#
# 1 96.5137 33.0966 5.4220 0.0000 0.0000 0.0000
# 2 33.0966 108.0655 1.2203 0.0000 0.0000 0.0000
# 3 5.4220 1.2203 50.7703 0.0000 0.0000 0.0000
# 4 0.0000 0.0000 0.0000 45.3335 0.0000 0.0000
# 5 0.0000 0.0000 0.0000 0.0000 17.8482 0.0000
# 6 0.0000 0.0000 0.0000 0.0000 0.0000 10.9884
#
#
#
# Elastic Compliance Matrix: (Units=1/GPa)
#
#
# Indices 1 2 3 4 5 6 
#
# 1 0.011645 -0.003553 -0.001158 0.000000 0.000000 0.000000
# 2 -0.003553 0.010340 0.000131 0.000000 0.000000 0.000000
# 3 -0.001158 0.000131 0.019817 0.000000 0.000000 0.000000
# 4 0.000000 0.000000 0.000000 0.022059 0.000000 0.000000
# 5 0.000000 0.000000 0.000000 0.000000 0.056028 0.000000
# 6 0.000000 0.000000 0.000000 0.000000 0.000000 0.091005
#
#
# Mechanical properties :
#
#
# Convention : Reuss Voigt Hill
#
# Bulk Modulus (GPa) = 30.63614 37.20302 33.91958
# Shear Modulus (GPa) = 21.65106 29.20805 25.42956
#
# Velocity S-wave (km/s) = 3.02997 3.51925 3.28374
# Velocity P-wave (km/s) = 5.02311 5.68232 5.36286
#
# Compressibility (1/GPa) = 0.03264118
#
# Stress axis : x y z
#
# Youngs Moduli (GPa) = 85.87531 96.70790 50.46148
#
# Poissons Ratio (x) = 0.34363 0.05844
# Poissons Ratio (y) = 0.30514 -0.00661
# Poissons Ratio (z) = 0.09946 -0.01266
#
# Static dielectric constant tensor:
#      x y z
#    x 1.905590 0.000000 0.000000 
#    y 0.000000 1.975430 0.000000 
#    z 0.000000 0.000000 1.807780 
# 
# From -- ./inp_files/28269.got.cif
#   From: 2010.05.17/outbox.cif.g08.bks.cpg/sg64_15_cif.got.tgz:28269.got - 2010.06.03 16:29:19.
