data_PCOD9480670
_publ_section_title
;
Structure prediction by ZEFSAII (Michael W. Deem and Ramdas Pophale) SiO2 
 PCOD9480670
Probable space group: C M C A
;
_chemical_formula_sum "Si O2"
_cell_formula_units_Z 112
_cell_length_a 20.170434
_cell_length_b 23.509630
_cell_length_c 12.270024
_cell_angle_alpha 90.000000
_cell_angle_beta 90.000000
_cell_angle_gamma 90.000000
_cell_volume 5818.438513
_symmetry_space_group_name_H-M "C M C A"
_symmetry_group_IT_number 64
_symmetry_cell_setting 'orthorhombic'
loop_
_space_group_symop_operation_xyz
x,y,z
-x,1/2-y,1/2+z
x,-y,-z
-x,1/2+y,1/2-z
-x,-y,-z
x,1/2+y,1/2-z
-x,y,z
x,1/2-y,1/2+z
1/2+x,1/2+y,z
1/2-x,-y,1/2+z
1/2+x,1/2-y,-z
1/2-x,y,1/2-z
1/2-x,1/2-y,-z
1/2+x,y,1/2-z
1/2-x,1/2+y,z
1/2+x,-y,1/2+z
loop_
_atom_site_type_symbol
_atom_site_label
_atom_site_fract_x
_atom_site_fract_y
_atom_site_fract_z
Si Si1 0.572756 0.922676 0.782251
Si Si2 0.577574 0.526819 0.880170
Si Si3 0.883165 0.807301 0.804205
Si Si4 0.783143 0.311874 0.497012
Si Si5 0.823904 0.878052 0.207273
Si Si6 0.424119 0.816733 0.130923
Si Si7 0.151953 0.152022 0.420712
O O1 0.500000 0.928748 0.831206
O O2 0.574196 0.864796 0.709533
O O3 0.624778 0.907703 0.875936
O O4 0.586229 0.976361 0.707514
O O5 0.500000 0.547046 0.872629
O O6 0.632749 0.573672 0.852867
O O7 0.585865 0.500000 0.000000
O O8 0.919229 0.747761 0.824275
O O9 0.844561 0.808807 0.688127
O O10 0.835675 0.815179 0.906755
O O11 0.750000 0.250000 0.500000
O O12 0.812179 0.328300 0.380977
O O13 0.722632 0.353668 0.524394
O O14 0.750000 0.894549 0.250000
O O15 0.871025 0.854056 0.302596
O O16 0.500000 0.836510 0.141025
O O17 0.399473 0.820522 0.005811
#
# Coordination Sequence:
#
# PCOD9480670 Si02
#       7
#    16  16  16  16  16  16  16
#     4   9  20  40  64  92 124 161 214 270 325 385
#     4  10  22  46  71  94 127 172 223 279 333 392
#     4  10  22  38  63  95 126 168 218 262 324 394
#     4  12  21  41  64  93 134 176 213 262 332 391
#     4  12  25  44  65  98 136 173 221 271 329 398
#     4  12  24  41  65  97 135 175 217 270 332 399
#     4  10  22  39  63  91 128 173 211 269 326 393
#
# _framework density 19.24915
#
# number of rings (size 3 to 8) (size 9 to 14) (size 15 to 20)
#    0.857    0.429    2.857    3.429    0.000    0.000 
#    5.143    2.143    0.000    2.571    0.000    0.000 
#    0.000    0.000    0.000    0.000    0.000    0.000 
#
# Total GULP energy -312182.909124 kJ/mol
# GULP energy per Si atom -5574.694806 kJ/mol
# Density = 1.920534 g / cm^3
# Si number density = 19.249150 Si / 1000 Ang^3
#
#
#
# Elastic Constant Matrix: (Units=GPa)
#
#
# Indices 1 2 3 4 5 6 
#
# 1 109.2106 19.5060 20.8294 0.0000 0.0000 0.0000
# 2 19.5060 53.2811 -5.3944 0.0000 0.0000 0.0000
# 3 20.8294 -5.3944 73.2178 0.0000 0.0000 0.0000
# 4 0.0000 0.0000 0.0000 22.4805 0.0000 0.0000
# 5 0.0000 0.0000 0.0000 0.0000 32.3372 0.0000
# 6 0.0000 0.0000 0.0000 0.0000 0.0000 18.2793
#
#
#
# Elastic Compliance Matrix: (Units=1/GPa)
#
#
# Indices 1 2 3 4 5 6 
#
# 1 0.010536 -0.004192 -0.003306 0.000000 0.000000 0.000000
# 2 -0.004192 0.020577 0.002709 0.000000 0.000000 0.000000
# 3 -0.003306 0.002709 0.014798 0.000000 0.000000 0.000000
# 4 0.000000 0.000000 0.000000 0.044483 0.000000 0.000000
# 5 0.000000 0.000000 0.000000 0.000000 0.030924 0.000000
# 6 0.000000 0.000000 0.000000 0.000000 0.000000 0.054707
#
#
# Mechanical properties :
#
#
# Convention : Reuss Voigt Hill
#
# Bulk Modulus (GPa) = 27.52378 33.95463 30.73921
# Shear Modulus (GPa) = 25.28898 28.00397 26.64648
#
# Velocity S-wave (km/s) = 3.62853 3.81834 3.72465
# Velocity P-wave (km/s) = 5.64666 6.09241 5.87376
#
# Compressibility (1/GPa) = 0.03633221
#
# Stress axis : x y z
#
# Youngs Moduli (GPa) = 94.91353 48.59734 67.57677
#
# Poissons Ratio (x) = 0.20371 0.22342
# Poissons Ratio (y) = 0.39787 -0.18304
# Poissons Ratio (z) = 0.31380 -0.13163
#
# Static dielectric constant tensor:
#      x y z
#    x 1.137920 0.000000 0.000000 
#    y 0.000000 1.648400 0.000000 
#    z 0.000000 0.000000 1.641850 
# 
# From -- ./inp_files/17523.got.cif
#   From: 2010.05.17/outbox.cif.g08.bks.cpg/sg64_9_cif.got.tgz:17523.got - 2010.06.03 16:29:19.
