data_PCOD9480654
_publ_section_title
;
Structure prediction by ZEFSAII (Michael W. Deem and Ramdas Pophale) SiO2 
 PCOD9480654
Probable space group: C M C A
;
_chemical_formula_sum "Si O2"
_cell_formula_units_Z 96
_cell_length_a 22.251695
_cell_length_b 10.055468
_cell_length_c 21.483950
_cell_angle_alpha 90.000000
_cell_angle_beta 90.000000
_cell_angle_gamma 90.000000
_cell_volume 4807.059744
_symmetry_space_group_name_H-M "C M C A"
_symmetry_group_IT_number 64
_symmetry_cell_setting 'orthorhombic'
loop_
_space_group_symop_operation_xyz
x,y,z
-x,1/2-y,1/2+z
x,-y,-z
-x,1/2+y,1/2-z
-x,-y,-z
x,1/2+y,1/2-z
-x,y,z
x,1/2-y,1/2+z
1/2+x,1/2+y,z
1/2-x,-y,1/2+z
1/2+x,1/2-y,-z
1/2-x,y,1/2-z
1/2-x,1/2-y,-z
1/2+x,y,1/2-z
1/2-x,1/2+y,z
1/2+x,-y,1/2+z
loop_
_atom_site_type_symbol
_atom_site_label
_atom_site_fract_x
_atom_site_fract_y
_atom_site_fract_z
Si Si1 0.571162 0.596418 0.051984
Si Si2 0.930401 0.934693 0.809307
Si Si3 0.124083 0.301524 0.271846
Si Si4 0.733787 0.325083 0.675431
Si Si5 0.181312 0.597851 0.850699
Si Si6 0.068799 0.400916 0.057645
O O1 0.500000 0.561385 0.057987
O O2 0.596207 0.584493 0.121660
O O3 0.574232 0.750056 0.033533
O O4 0.597624 0.500000 0.000000
O O5 0.923722 0.090394 0.794117
O O6 0.000000 0.896796 0.810021
O O7 0.900200 0.830548 0.762100
O O8 0.170143 0.252128 0.323899
O O9 0.160569 0.386287 0.220692
O O10 0.750000 0.337279 0.750000
O O11 0.781512 0.233401 0.639889
O O12 0.723733 0.469472 0.646671
O O13 0.121672 0.581000 0.892165
O O14 0.000000 0.415221 0.083401
O O15 0.075167 0.500000 0.000000
#
# Coordination Sequence:
#
# PCOD9480654 Si02
#       6
#    16  16  16  16  16  16
#     4   9  19  37  58  83 121 169 213 250 302 380
#     4  11  22  36  58  93 136 172 207 264 328 392
#     4  11  21  37  59  91 130 166 211 260 328 392
#     4  10  22  38  61  90 120 166 214 256 311 390
#     4  11  22  39  63  89 125 163 215 263 321 382
#     4  10  22  41  65  92 124 164 212 268 331 388
#
# _framework density 19.970627
#
# number of rings (size 3 to 8) (size 9 to 14) (size 15 to 20)
#    0.000    1.667    3.333    2.000    2.333    2.000 
#    0.000    2.500    0.000    1.000    0.000    0.000 
#    0.000    0.000    0.000    0.000    0.000    0.000 
#
# Total GULP energy -267726.070454 kJ/mol
# GULP energy per Si atom -5577.626468 kJ/mol
# Density = 1.992517 g / cm^3
# Si number density = 19.970627 Si / 1000 Ang^3
#
#
#
# Elastic Constant Matrix: (Units=GPa)
#
#
# Indices 1 2 3 4 5 6 
#
# 1 87.2438 49.1108 27.7011 0.0000 0.0000 0.0000
# 2 49.1108 123.6245 38.0561 0.0000 0.0000 0.0000
# 3 27.7011 38.0561 38.9977 0.0000 0.0000 0.0000
# 4 0.0000 0.0000 0.0000 20.2035 0.0000 0.0000
# 5 0.0000 0.0000 0.0000 0.0000 18.6086 0.0000
# 6 0.0000 0.0000 0.0000 0.0000 0.0000 31.8354
#
#
#
# Elastic Compliance Matrix: (Units=1/GPa)
#
#
# Indices 1 2 3 4 5 6 
#
# 1 0.016147 -0.004122 -0.007447 0.000000 0.000000 0.000000
# 2 -0.004122 0.012615 -0.009382 0.000000 0.000000 0.000000
# 3 -0.007447 -0.009382 0.040088 0.000000 0.000000 0.000000
# 4 0.000000 0.000000 0.000000 0.049496 0.000000 0.000000
# 5 0.000000 0.000000 0.000000 0.000000 0.053739 0.000000
# 6 0.000000 0.000000 0.000000 0.000000 0.000000 0.031412
#
#
# Mechanical properties :
#
#
# Convention : Reuss Voigt Hill
#
# Bulk Modulus (GPa) = 37.10968 53.28910 45.19939
# Shear Modulus (GPa) = 19.65553 23.12936 21.39245
#
# Velocity S-wave (km/s) = 3.14063 3.40688 3.27646
# Velocity P-wave (km/s) = 5.63684 6.49750 6.08241
#
# Compressibility (1/GPa) = 0.02694715
#
# Stress axis : x y z
#
# Youngs Moduli (GPa) = 61.93077 79.27272 24.94510
#
# Poissons Ratio (x) = 0.32676 0.18577
# Poissons Ratio (y) = 0.25528 0.23404
# Poissons Ratio (z) = 0.46121 0.74375
#
# Static dielectric constant tensor:
#      x y z
#    x 1.743100 0.000000 0.000000 
#    y 0.000000 1.724070 0.000000 
#    z 0.000000 0.000000 1.701050 
# 
# From -- ./inp_files/50976.got.cif
#   From: 2010.05.17/outbox.cif.g08.bks.cpg/sg64_26_cif.got.tgz:50976.got - 2010.06.03 16:29:19.
