data_PCOD9480994
_publ_section_title
;
Structure prediction by ZEFSAII (Michael W. Deem and Ramdas Pophale) SiO2 
 PCOD9480994
Probable space group: C M C A
;
_chemical_formula_sum "Si O2"
_cell_formula_units_Z 116
_cell_length_a 22.053930
_cell_length_b 29.163204
_cell_length_c 9.925755
_cell_angle_alpha 90.000000
_cell_angle_beta 90.000000
_cell_angle_gamma 90.000000
_cell_volume 6383.880940
_symmetry_space_group_name_H-M "C M C A"
_symmetry_group_IT_number 64
_symmetry_cell_setting 'orthorhombic'
loop_
_space_group_symop_operation_xyz
x,y,z
-x,1/2-y,1/2+z
x,-y,-z
-x,1/2+y,1/2-z
-x,-y,-z
x,1/2+y,1/2-z
-x,y,z
x,1/2-y,1/2+z
1/2+x,1/2+y,z
1/2-x,-y,1/2+z
1/2+x,1/2-y,-z
1/2-x,y,1/2-z
1/2-x,1/2-y,-z
1/2+x,y,1/2-z
1/2-x,1/2+y,z
1/2+x,-y,1/2+z
loop_
_atom_site_type_symbol
_atom_site_label
_atom_site_fract_x
_atom_site_fract_y
_atom_site_fract_z
Si Si1 0.070174 0.651956 0.893017
Si Si2 0.891855 0.930126 0.901855
Si Si3 0.384252 0.250496 0.955407
Si Si4 0.500000 0.500000 0.000000
Si Si5 0.148203 0.110342 0.373417
Si Si6 0.745772 0.460344 0.903194
Si Si7 0.427954 0.344765 0.083159
Si Si8 0.317518 0.286874 0.698523
O O1 0.075617 0.704749 0.942382
O O2 0.092803 0.650521 0.738510
O O3 0.000000 0.638017 0.895988
O O4 0.108838 0.621030 0.994525
O O5 0.888358 0.916794 0.743024
O O6 0.824130 0.948554 0.933377
O O7 0.900558 0.883845 0.988360
O O8 0.945716 0.965021 0.940444
O O9 0.361979 0.264534 0.808006
O O10 0.414472 0.294538 0.024203
O O11 0.329480 0.235715 0.053717
O O12 0.209311 0.082930 0.409171
O O13 0.167316 0.159431 0.312933
O O14 0.750000 0.477154 0.750000
O O15 0.767999 0.500000 0.000000
O O16 0.500000 0.351358 0.084080
O O17 0.250000 0.280409 0.750000
#
# Coordination Sequence:
#
# PCOD9480994 Si02
#       8
#    16  16  16   4  16  16  16  16
#     4  10  23  41  58  88 129 161 211 255 305 374
#     4  11  22  41  65  95 124 159 206 260 316 372
#     4  11  21  38  57  88 122 164 203 248 304 368
#     4  12  24  40  68 102 124 152 214 262 320 380
#     4  10  23  41  65  90 124 169 208 258 317 372
#     4  10  22  42  66  92 125 161 206 261 313 385
#     4  11  22  38  60  86 121 160 202 253 309 366
#     4  11  21  37  60  87 126 162 206 251 302 368
#
# _framework density 18.170763999999998
#
# number of rings (size 3 to 8) (size 9 to 14) (size 15 to 20)
#    0.000    1.379    4.138    2.069    0.966    1.103 
#    0.000    0.000    0.000    1.241    0.000    0.000 
#    0.000    0.000    0.000    0.000    0.000    0.000 
#
# Total GULP energy -323135.626895 kJ/mol
# GULP energy per Si atom -5571.303912 kJ/mol
# Density = 1.812941 g / cm^3
# Si number density = 18.170764 Si / 1000 Ang^3
#
#
#
# Elastic Constant Matrix: (Units=GPa)
#
#
# Indices 1 2 3 4 5 6 
#
# 1 90.7914 39.0101 39.2953 0.0000 0.0000 0.0000
# 2 39.0101 90.8101 45.2498 0.0000 0.0000 0.0000
# 3 39.2953 45.2498 71.8321 0.0000 0.0000 0.0000
# 4 0.0000 0.0000 0.0000 31.0650 0.0000 0.0000
# 5 0.0000 0.0000 0.0000 0.0000 21.7324 0.0000
# 6 0.0000 0.0000 0.0000 0.0000 0.0000 50.2705
#
#
#
# Elastic Compliance Matrix: (Units=1/GPa)
#
#
# Indices 1 2 3 4 5 6 
#
# 1 0.015144 -0.003465 -0.006102 0.000000 0.000000 0.000000
# 2 -0.003465 0.016843 -0.008714 0.000000 0.000000 0.000000
# 3 -0.006102 -0.008714 0.022749 0.000000 0.000000 0.000000
# 4 0.000000 0.000000 0.000000 0.032191 0.000000 0.000000
# 5 0.000000 0.000000 0.000000 0.000000 0.046014 0.000000
# 6 0.000000 0.000000 0.000000 0.000000 0.000000 0.019892
#
#
# Mechanical properties :
#
#
# Convention : Reuss Voigt Hill
#
# Bulk Modulus (GPa) = 55.02581 55.61602 55.32091
# Shear Modulus (GPa) = 25.58164 29.27213 27.42689
#
# Velocity S-wave (km/s) = 3.75620 4.01801 3.88931
# Velocity P-wave (km/s) = 7.01145 7.22494 7.11899
#
# Compressibility (1/GPa) = 0.01817329
#
# Stress axis : x y z
#
# Youngs Moduli (GPa) = 66.03310 59.37238 43.95862
#
# Poissons Ratio (x) = 0.20574 0.26822
# Poissons Ratio (y) = 0.22882 0.38307
# Poissons Ratio (z) = 0.40290 0.51739
#
# Static dielectric constant tensor:
#      x y z
#    x 1.607660 0.000000 0.000000 
#    y 0.000000 1.608890 0.000000 
#    z 0.000000 0.000000 1.631810 
# 
# From -- ./inp_files/9727.got.cif
#   From: 2010.05.17/outbox.cif.g08.bks.cpg/sg64_5_cif.got.tgz:9727.got - 2010.06.03 16:29:19.
