data_PCOD9480172
_publ_section_title
;
Structure prediction by ZEFSAII (Michael W. Deem and Ramdas Pophale) SiO2 
 PCOD9480172
Probable space group: C M C A
;
_chemical_formula_sum "Si O2"
_cell_formula_units_Z 112
_cell_length_a 11.430430
_cell_length_b 13.911265
_cell_length_c 33.906551
_cell_angle_alpha 90.000000
_cell_angle_beta 90.000000
_cell_angle_gamma 90.000000
_cell_volume 5391.539699
_symmetry_space_group_name_H-M "C M C A"
_symmetry_group_IT_number 64
_symmetry_cell_setting 'orthorhombic'
loop_
_space_group_symop_operation_xyz
x,y,z
-x,1/2-y,1/2+z
x,-y,-z
-x,1/2+y,1/2-z
-x,-y,-z
x,1/2+y,1/2-z
-x,y,z
x,1/2-y,1/2+z
1/2+x,1/2+y,z
1/2-x,-y,1/2+z
1/2+x,1/2-y,-z
1/2-x,y,1/2-z
1/2-x,1/2-y,-z
1/2+x,y,1/2-z
1/2-x,1/2+y,z
1/2+x,-y,1/2+z
loop_
_atom_site_type_symbol
_atom_site_label
_atom_site_fract_x
_atom_site_fract_y
_atom_site_fract_z
Si Si1 0.362080 0.787827 0.858279
Si Si2 0.136704 0.522277 0.455854
Si Si3 0.731244 0.864981 0.093985
Si Si4 0.373638 0.032627 0.248160
Si Si5 0.134142 0.676492 0.724399
Si Si6 0.132599 0.499908 0.843579
Si Si7 0.365761 0.740897 0.028326
O O1 0.500000 0.795955 0.865128
O O2 0.308786 0.725487 0.893181
O O3 0.351139 0.730791 0.816935
O O4 0.312081 0.895769 0.853548
O O5 0.180407 0.500000 0.500000
O O6 0.201630 0.453564 0.425860
O O7 0.146130 0.636489 0.451119
O O8 0.000000 0.496444 0.454489
O O9 0.643358 0.823472 0.061313
O O10 0.684734 0.909427 0.134544
O O11 0.500000 0.081455 0.254022
O O12 0.250000 0.087242 0.250000
O O13 0.373989 0.992476 0.203526
O O14 0.367556 0.940648 0.277052
O O15 0.250000 0.697719 0.750000
O O16 0.000000 0.699339 0.738839
O O17 0.000000 0.495439 0.858326
O O18 0.500000 0.742430 0.010692
O O19 0.250000 0.750000 0.000000
#
# Coordination Sequence:
#
# PCOD9480172 Si02
#       7
#    16  16  16  16  16  16  16
#     4  10  22  38  59  88 122 162 208 250 301 368
#     4  10  21  39  61  88 122 157 193 242 310 367
#     4  12  21  38  65  88 117 159 205 252 297 363
#     4   9  17  32  55  81 115 157 198 245 298 349
#     4   9  17  32  54  83 116 155 203 248 294 353
#     4  10  22  39  57  84 123 161 197 251 314 356
#     4  11  24  42  64  93 123 155 197 247 302 367
#
# _framework density 20.773285999999999
#
# number of rings (size 3 to 8) (size 9 to 14) (size 15 to 20)
#    0.000    1.857    1.429    3.429    0.000    1.143 
#    0.000    3.571    0.000    3.429    0.000    0.000 
#    0.000    0.000    0.000    0.000    0.000    0.000 
#
# Total GULP energy -311962.836437 kJ/mol
# GULP energy per Si atom -5570.764936 kJ/mol
# Density = 2.072600 g / cm^3
# Si number density = 20.773286 Si / 1000 Ang^3
#
#
#
# Elastic Constant Matrix: (Units=GPa)
#
#
# Indices 1 2 3 4 5 6 
#
# 1 142.7461 17.3316 19.9837 0.0000 0.0000 0.0000
# 2 17.3316 82.8709 -7.0422 0.0000 0.0000 0.0000
# 3 19.9837 -7.0422 21.1544 0.0000 0.0000 0.0000
# 4 0.0000 0.0000 0.0000 20.5076 0.0000 0.0000
# 5 0.0000 0.0000 0.0000 0.0000 16.2905 0.0000
# 6 0.0000 0.0000 0.0000 0.0000 0.0000 15.5500
#
#
#
# Elastic Compliance Matrix: (Units=1/GPa)
#
#
# Indices 1 2 3 4 5 6 
#
# 1 0.008567 -0.002552 -0.008942 0.000000 0.000000 0.000000
# 2 -0.002552 0.013178 0.006797 0.000000 0.000000 0.000000
# 3 -0.008942 0.006797 0.057982 0.000000 0.000000 0.000000
# 4 0.000000 0.000000 0.000000 0.048762 0.000000 0.000000
# 5 0.000000 0.000000 0.000000 0.000000 0.061386 0.000000
# 6 0.000000 0.000000 0.000000 0.000000 0.000000 0.064309
#
#
# Mechanical properties :
#
#
# Convention : Reuss Voigt Hill
#
# Bulk Modulus (GPa) = 14.21786 34.14638 24.18212
# Shear Modulus (GPa) = 17.42026 24.90283 21.16154
#
# Velocity S-wave (km/s) = 2.89898 3.46611 3.19516
# Velocity P-wave (km/s) = 4.25025 5.70017 5.02775
#
# Compressibility (1/GPa) = 0.07033407
#
# Stress axis : x y z
#
# Youngs Moduli (GPa) = 116.72480 75.88256 17.24672
#
# Poissons Ratio (x) = 0.19363 0.15423
# Poissons Ratio (y) = 0.29784 -0.11723
# Poissons Ratio (z) = 1.04381 -0.51581
#
# Static dielectric constant tensor:
#      x y z
#    x 1.800360 0.000000 0.000000 
#    y 0.000000 1.774080 0.000000 
#    z 0.000000 0.000000 1.763420 
# 
# From -- ./inp_files/52827.got.cif
#   From: 2010.05.17/outbox.cif.g08.bks.cpg/sg64_27_cif.got.tgz:52827.got - 2010.06.03 16:29:19.
