data_PCOD9480650
_publ_section_title
;
Structure prediction by ZEFSAII (Michael W. Deem and Ramdas Pophale) SiO2 
 PCOD9480650
Probable space group: C M C A
;
_chemical_formula_sum "Si O2"
_cell_formula_units_Z 80
_cell_length_a 25.016939
_cell_length_b 14.417474
_cell_length_c 11.420655
_cell_angle_alpha 90.000000
_cell_angle_beta 90.000000
_cell_angle_gamma 90.000000
_cell_volume 4119.214038
_symmetry_space_group_name_H-M "C M C A"
_symmetry_group_IT_number 64
_symmetry_cell_setting 'orthorhombic'
loop_
_space_group_symop_operation_xyz
x,y,z
-x,1/2-y,1/2+z
x,-y,-z
-x,1/2+y,1/2-z
-x,-y,-z
x,1/2+y,1/2-z
-x,y,z
x,1/2-y,1/2+z
1/2+x,1/2+y,z
1/2-x,-y,1/2+z
1/2+x,1/2-y,-z
1/2-x,y,1/2-z
1/2-x,1/2-y,-z
1/2+x,y,1/2-z
1/2-x,1/2+y,z
1/2+x,-y,1/2+z
loop_
_atom_site_type_symbol
_atom_site_label
_atom_site_fract_x
_atom_site_fract_y
_atom_site_fract_z
Si Si1 0.769751 0.101724 0.379028
Si Si2 0.060404 0.940766 0.621180
Si Si3 0.133218 0.797236 0.507282
Si Si4 0.654260 0.061966 0.802246
Si Si5 0.663366 0.097018 0.534855
O O1 0.750000 0.127188 0.250000
O O2 0.812384 0.175330 0.425338
O O3 0.718986 0.099293 0.463647
O O4 0.800917 0.003260 0.363503
O O5 0.085629 0.843116 0.581959
O O6 0.000000 0.934552 0.664947
O O7 0.060176 0.000000 0.500000
O O8 0.102243 0.995048 0.702889
O O9 0.139204 0.851645 0.384592
O O10 0.130627 0.687577 0.498980
O O11 0.671973 0.093579 0.674359
O O12 0.636675 0.000000 0.500000
#
# Coordination Sequence:
#
# PCOD9480650 Si02
#       5
#    16  16  16  16  16
#     4  11  22  37  56  84 119 164 206 243 304 366
#     4   8  16  38  68  92 114 150 203 261 310 366
#     4  10  23  37  58  91 118 158 213 249 302 377
#     4  10  22  38  61  88 123 156 210 255 305 378
#     4  12  24  38  56  85 130 169 200 256 307 358
#
# _framework density 19.42118
#
# number of rings (size 3 to 8) (size 9 to 14) (size 15 to 20)
#    0.000    1.800    2.000    3.600    2.800    0.000 
#    0.000    1.000    0.000    7.200    0.000    0.000 
#    0.000    0.000    0.000    0.000    0.000    0.000 
#
# Total GULP energy -223406.821513 kJ/mol
# GULP energy per Si atom -5585.170538 kJ/mol
# Density = 1.937698 g / cm^3
# Si number density = 19.421180 Si / 1000 Ang^3
#
#
#
# Elastic Constant Matrix: (Units=GPa)
#
#
# Indices 1 2 3 4 5 6 
#
# 1 103.4074 35.8366 38.2387 0.0000 0.0000 0.0000
# 2 35.8366 150.0676 22.2123 0.0000 0.0000 0.0000
# 3 38.2387 22.2123 115.2077 0.0000 0.0000 0.0000
# 4 0.0000 0.0000 0.0000 17.2776 0.0000 0.0000
# 5 0.0000 0.0000 0.0000 0.0000 11.5538 0.0000
# 6 0.0000 0.0000 0.0000 0.0000 0.0000 11.0454
#
#
#
# Elastic Compliance Matrix: (Units=1/GPa)
#
#
# Indices 1 2 3 4 5 6 
#
# 1 0.011743 -0.002293 -0.003456 0.000000 0.000000 0.000000
# 2 -0.002293 0.007307 -0.000648 0.000000 0.000000 0.000000
# 3 -0.003456 -0.000648 0.009952 0.000000 0.000000 0.000000
# 4 0.000000 0.000000 0.000000 0.057878 0.000000 0.000000
# 5 0.000000 0.000000 0.000000 0.000000 0.086552 0.000000
# 6 0.000000 0.000000 0.000000 0.000000 0.000000 0.090536
#
#
# Mechanical properties :
#
#
# Convention : Reuss Voigt Hill
#
# Bulk Modulus (GPa) = 61.69224 62.36200 62.02712
# Shear Modulus (GPa) = 17.72026 26.13502 21.92764
#
# Velocity S-wave (km/s) = 3.02390 3.67235 3.36379
# Velocity P-wave (km/s) = 6.63524 7.08248 6.86251
#
# Compressibility (1/GPa) = 0.01620950
#
# Stress axis : x y z
#
# Youngs Moduli (GPa) = 85.15804 136.85369 100.48428
#
# Poissons Ratio (x) = 0.31377 0.34723
# Poissons Ratio (y) = 0.19525 0.06510
# Poissons Ratio (z) = 0.29427 0.08866
#
# Static dielectric constant tensor:
#      x y z
#    x 1.666430 0.000000 0.000000 
#    y 0.000000 1.715520 0.000000 
#    z 0.000000 0.000000 1.688180 
# 
# From -- ./inp_files/18086.got.cif
#   From: 2010.05.17/outbox.cif.g08.bks.cpg/sg64_10_cif.got.tgz:18086.got - 2010.06.03 16:29:19.
