data_PCOD9480693
_publ_section_title
;
Structure prediction by ZEFSAII (Michael W. Deem and Ramdas Pophale) SiO2 
 PCOD9480693
Probable space group: C M C A
;
_chemical_formula_sum "Si O2"
_cell_formula_units_Z 80
_cell_length_a 22.301163
_cell_length_b 13.038561
_cell_length_c 14.021026
_cell_angle_alpha 90.000000
_cell_angle_beta 90.000000
_cell_angle_gamma 90.000000
_cell_volume 4076.964875
_symmetry_space_group_name_H-M "C M C A"
_symmetry_group_IT_number 64
_symmetry_cell_setting 'orthorhombic'
loop_
_space_group_symop_operation_xyz
x,y,z
-x,1/2-y,1/2+z
x,-y,-z
-x,1/2+y,1/2-z
-x,-y,-z
x,1/2+y,1/2-z
-x,y,z
x,1/2-y,1/2+z
1/2+x,1/2+y,z
1/2-x,-y,1/2+z
1/2+x,1/2-y,-z
1/2-x,y,1/2-z
1/2-x,1/2-y,-z
1/2+x,y,1/2-z
1/2-x,1/2+y,z
1/2+x,-y,1/2+z
loop_
_atom_site_type_symbol
_atom_site_label
_atom_site_fract_x
_atom_site_fract_y
_atom_site_fract_z
Si Si1 0.065194 0.395647 0.940149
Si Si2 0.363063 0.278178 0.418777
Si Si3 0.319337 0.867774 0.274419
Si Si4 0.313747 0.444550 0.898042
Si Si5 0.311172 0.659687 0.394262
O O1 0.078941 0.307330 0.018834
O O2 0.000000 0.381972 0.894751
O O3 0.065407 0.500000 0.000000
O O4 0.125055 0.395752 0.876316
O O5 0.356017 0.336609 0.319468
O O6 0.353054 0.158138 0.404509
O O7 0.311384 0.320351 0.491317
O O8 0.250000 0.885514 0.250000
O O9 0.316892 0.768577 0.343027
O O10 0.339703 0.969978 0.327621
O O11 0.247686 0.403011 0.867972
O O12 0.307693 0.500000 0.000000
#
# Coordination Sequence:
#
# PCOD9480693 Si02
#       5
#    16  16  16  16  16
#     4   9  20  39  65  85 112 161 208 247 293 348
#     4  10  23  39  56  86 126 153 201 250 299 362
#     4  12  24  34  56  91 125 159 193 240 311 380
#     4  12  21  36  58  84 127 162 190 243 316 378
#     4  10  22  39  56  86 124 150 200 247 300 362
#
# _framework density 19.622439
#
# number of rings (size 3 to 8) (size 9 to 14) (size 15 to 20)
#    1.200    0.200    4.000    2.400    5.600    0.000 
#    0.000    1.000    0.000    6.600    0.000    0.000 
#    0.000    0.000    0.000    0.000    0.000    0.000 
#
# Total GULP energy -223065.715714 kJ/mol
# GULP energy per Si atom -5576.642893 kJ/mol
# Density = 1.957778 g / cm^3
# Si number density = 19.622439 Si / 1000 Ang^3
#
#
#
# Elastic Constant Matrix: (Units=GPa)
#
#
# Indices 1 2 3 4 5 6 
#
# 1 35.2495 25.8054 -11.7870 0.0000 0.0000 0.0000
# 2 25.8054 114.9465 29.5298 0.0000 0.0000 0.0000
# 3 -11.7870 29.5298 77.5175 0.0000 0.0000 0.0000
# 4 0.0000 0.0000 0.0000 -18.7444 0.0000 0.0000
# 5 0.0000 0.0000 0.0000 0.0000 -0.7508 0.0000
# 6 0.0000 0.0000 0.0000 0.0000 0.0000 30.4757
#
#
#
# Elastic Compliance Matrix: (Units=1/GPa)
#
#
# Indices 1 2 3 4 5 6 
#
# 1 0.040640 -0.011873 0.010703 0.000000 0.000000 0.000000
# 2 -0.011873 0.013112 -0.006800 0.000000 0.000000 0.000000
# 3 0.010703 -0.006800 0.017118 0.000000 0.000000 0.000000
# 4 0.000000 0.000000 0.000000 -0.053349 0.000000 0.000000
# 5 0.000000 0.000000 0.000000 0.000000 -1.331972 0.000000
# 6 0.000000 0.000000 0.000000 0.000000 0.000000 0.032813
#
#
# Mechanical properties :
#
#
# Convention : Reuss Voigt Hill
#
# Bulk Modulus (GPa) = 18.20543 34.97885 26.59214
# Shear Modulus (GPa) = -4.00838 14.47381 5.23272
#
# Velocity S-wave (km/s) = -1.43080 2.71885 1.63477
# Velocity P-wave (km/s) = 2.56289 5.26506 4.14061
#
# Compressibility (1/GPa) = 0.05492866
#
# Stress axis : x y z
#
# Youngs Moduli (GPa) = 24.60623 76.26467 58.41712
#
# Poissons Ratio (x) = 0.90550 -0.62521
# Poissons Ratio (y) = 0.29215 0.39726
# Poissons Ratio (z) = -0.26335 0.51863
#
# Static dielectric constant tensor:
#      x y z
#    x 1.685230 0.000000 0.000000 
#    y 0.000000 1.708050 0.000000 
#    z 0.000000 0.000000 1.775970 
# 
# From -- ./inp_files/27906.got.cif
#   From: 2010.05.17/outbox.cif.g08.bks.cpg/sg64_14_cif.got.tgz:27906.got - 2010.06.03 16:29:19.
