data_PCOD9480923
_publ_section_title
;
Structure prediction by ZEFSAII (Michael W. Deem and Ramdas Pophale) SiO2 
 PCOD9480923
Probable space group: C M C A
;
_chemical_formula_sum "Si O2"
_cell_formula_units_Z 64
_cell_length_a 10.129955
_cell_length_b 20.139867
_cell_length_c 14.311904
_cell_angle_alpha 90.000000
_cell_angle_beta 90.000000
_cell_angle_gamma 90.000000
_cell_volume 2919.856640
_symmetry_space_group_name_H-M "C M C A"
_symmetry_group_IT_number 64
_symmetry_cell_setting 'orthorhombic'
loop_
_space_group_symop_operation_xyz
x,y,z
-x,1/2-y,1/2+z
x,-y,-z
-x,1/2+y,1/2-z
-x,-y,-z
x,1/2+y,1/2-z
-x,y,z
x,1/2-y,1/2+z
1/2+x,1/2+y,z
1/2-x,-y,1/2+z
1/2+x,1/2-y,-z
1/2-x,y,1/2-z
1/2-x,1/2-y,-z
1/2+x,y,1/2-z
1/2-x,1/2+y,z
1/2+x,-y,1/2+z
loop_
_atom_site_type_symbol
_atom_site_label
_atom_site_fract_x
_atom_site_fract_y
_atom_site_fract_z
Si Si1 0.355056 0.765376 0.332548
Si Si2 0.718354 0.378331 0.640857
Si Si3 0.145789 0.394664 0.458554
Si Si4 0.349121 0.474519 0.339309
O O1 0.500000 0.769995 0.288730
O O2 0.250000 0.773585 0.250000
O O3 0.344219 0.693112 0.380534
O O4 0.343210 0.823698 0.407707
O O5 0.750000 0.372710 0.750000
O O6 0.838697 0.386686 0.569381
O O7 0.642441 0.447725 0.635158
O O8 0.267802 0.437131 0.419785
O O9 0.000000 0.422799 0.435946
O O10 0.500000 0.450207 0.323540
O O11 0.250000 0.467821 0.250000
#
# Coordination Sequence:
#
# PCOD9480923 Si02
#       4
#    16  16  16  16
#     4  10  22  41  65  94 126 163 208 258 314 375
#     4  10  23  41  63  90 124 165 212 260 311 369
#     4  11  24  42  66  95 128 167 210 259 316 376
#     4  11  24  42  66  95 128 166 209 259 314 374
#
# _framework density 21.918885
#
# number of rings (size 3 to 8) (size 9 to 14) (size 15 to 20)
#    0.000    1.500    0.000    3.750    0.000   16.000 
#    0.000    0.000    0.000    0.000    0.000    0.000 
#    0.000    0.000    0.000    0.000    0.000    0.000 
#
# Total GULP energy -178572.872172 kJ/mol
# GULP energy per Si atom -5580.402255 kJ/mol
# Density = 2.186900 g / cm^3
# Si number density = 21.918885 Si / 1000 Ang^3
#
#
#
# Elastic Constant Matrix: (Units=GPa)
#
#
# Indices 1 2 3 4 5 6 
#
# 1 192.4454 43.0630 57.6458 0.0000 0.0000 0.0000
# 2 43.0630 104.3574 19.6987 0.0000 0.0000 0.0000
# 3 57.6458 19.6987 96.1913 0.0000 0.0000 0.0000
# 4 0.0000 0.0000 0.0000 26.3623 0.0000 0.0000
# 5 0.0000 0.0000 0.0000 0.0000 29.4026 0.0000
# 6 0.0000 0.0000 0.0000 0.0000 0.0000 20.2922
#
#
#
# Elastic Compliance Matrix: (Units=1/GPa)
#
#
# Indices 1 2 3 4 5 6 
#
# 1 0.006749 -0.002103 -0.003614 0.000000 0.000000 0.000000
# 2 -0.002103 0.010623 -0.000915 0.000000 0.000000 0.000000
# 3 -0.003614 -0.000915 0.012749 0.000000 0.000000 0.000000
# 4 0.000000 0.000000 0.000000 0.037933 0.000000 0.000000
# 5 0.000000 0.000000 0.000000 0.000000 0.034011 0.000000
# 6 0.000000 0.000000 0.000000 0.000000 0.000000 0.049280
#
#
# Mechanical properties :
#
#
# Convention : Reuss Voigt Hill
#
# Bulk Modulus (GPa) = 59.32217 70.42324 64.87270
# Shear Modulus (GPa) = 29.37220 33.38385 31.37803
#
# Velocity S-wave (km/s) = 3.66463 3.90688 3.78769
# Velocity P-wave (km/s) = 6.71038 7.24916 6.98497
#
# Compressibility (1/GPa) = 0.01685710
#
# Stress axis : x y z
#
# Youngs Moduli (GPa) = 148.16016 94.13552 78.43580
#
# Poissons Ratio (x) = 0.19796 0.28348
# Poissons Ratio (y) = 0.31157 0.07178
# Poissons Ratio (z) = 0.53548 0.08615
#
# Static dielectric constant tensor:
#      x y z
#    x 0.416830 0.000000 0.000000 
#    y 0.000000 1.833890 0.000000 
#    z 0.000000 0.000000 1.815370 
# 
# From -- ./inp_files/12821.got.cif
#   From: 2010.05.17/outbox.cif.g08.bks.cpg/sg64_7_cif.got.tgz:12821.got - 2010.06.03 16:29:19.
