data_PCOD9480342
_publ_section_title
;
Structure prediction by ZEFSAII (Michael W. Deem and Ramdas Pophale) SiO2 
 PCOD9480342
Probable space group: C M C A
;
_chemical_formula_sum "Si O2"
_cell_formula_units_Z 112
_cell_length_a 18.534175
_cell_length_b 28.314429
_cell_length_c 11.777955
_cell_angle_alpha 90.000000
_cell_angle_beta 90.000000
_cell_angle_gamma 90.000000
_cell_volume 6180.889193
_symmetry_space_group_name_H-M "C M C A"
_symmetry_group_IT_number 64
_symmetry_cell_setting 'orthorhombic'
loop_
_space_group_symop_operation_xyz
x,y,z
-x,1/2-y,1/2+z
x,-y,-z
-x,1/2+y,1/2-z
-x,-y,-z
x,1/2+y,1/2-z
-x,y,z
x,1/2-y,1/2+z
1/2+x,1/2+y,z
1/2-x,-y,1/2+z
1/2+x,1/2-y,-z
1/2-x,y,1/2-z
1/2-x,1/2-y,-z
1/2+x,y,1/2-z
1/2-x,1/2+y,z
1/2+x,-y,1/2+z
loop_
_atom_site_type_symbol
_atom_site_label
_atom_site_fract_x
_atom_site_fract_y
_atom_site_fract_z
Si Si1 0.167021 0.926504 0.769784
Si Si2 0.648905 0.160712 0.112918
Si Si3 0.414863 0.486479 0.132171
Si Si4 0.812770 0.653666 0.454953
Si Si5 0.825798 0.393701 0.304280
Si Si6 0.584436 0.328917 0.365108
Si Si7 0.085729 0.781248 0.822254
O O1 0.250000 0.941518 0.750000
O O2 0.144379 0.891814 0.667150
O O3 0.167082 0.892273 0.879715
O O4 0.116573 0.970802 0.792594
O O5 0.733637 0.169400 0.087827
O O6 0.618154 0.196309 0.207364
O O7 0.606443 0.165163 0.996101
O O8 0.500000 0.480382 0.151553
O O9 0.372099 0.438882 0.159493
O O10 0.404154 0.500000 0.000000
O O11 0.811515 0.638548 0.585167
O O12 0.871522 0.693127 0.424160
O O13 0.750000 0.408741 0.250000
O O14 0.868785 0.363300 0.212167
O O15 0.500000 0.339134 0.350358
O O16 0.597087 0.274631 0.329384
O O17 0.000000 0.790783 0.828313
#
# Coordination Sequence:
#
# PCOD9480342 Si02
#       7
#    16  16  16  16  16  16  16
#     4   9  19  39  65  89 116 155 201 254 302 356
#     4  10  21  42  63  90 124 162 207 254 300 369
#     4  11  23  39  62  93 124 156 200 252 304 364
#     4  10  21  40  64  91 120 157 212 255 302 359
#     4  12  24  42  63  90 124 164 204 253 311 360
#     4  11  25  41  59  89 128 167 203 252 311 366
#     4  10  23  39  62  91 124 165 205 252 310 363
#
# _framework density 18.120370000000001
#
# number of rings (size 3 to 8) (size 9 to 14) (size 15 to 20)
#    0.000    1.571    2.857    2.571    2.000    5.714 
#    0.000    0.714    0.000    1.714    0.000    0.000 
#    0.000    0.000    0.000    0.000    0.000    0.000 
#
# Total GULP energy -312876.980293 kJ/mol
# GULP energy per Si atom -5587.088934 kJ/mol
# Density = 1.807913 g / cm^3
# Si number density = 18.120370 Si / 1000 Ang^3
#
#
#
# Elastic Constant Matrix: (Units=GPa)
#
#
# Indices 1 2 3 4 5 6 
#
# 1 136.2209 90.6361 53.7029 0.0000 0.0000 0.0000
# 2 90.6361 89.6072 45.8204 0.0000 0.0000 0.0000
# 3 53.7029 45.8204 100.5376 0.0000 0.0000 0.0000
# 4 0.0000 0.0000 0.0000 18.2267 0.0000 0.0000
# 5 0.0000 0.0000 0.0000 0.0000 25.3181 0.0000
# 6 0.0000 0.0000 0.0000 0.0000 0.0000 39.3396
#
#
#
# Elastic Compliance Matrix: (Units=1/GPa)
#
#
# Indices 1 2 3 4 5 6 
#
# 1 0.022809 -0.021958 -0.002176 0.000000 0.000000 0.000000
# 2 -0.021958 0.035690 -0.004537 0.000000 0.000000 0.000000
# 3 -0.002176 -0.004537 0.013177 0.000000 0.000000 0.000000
# 4 0.000000 0.000000 0.000000 0.054865 0.000000 0.000000
# 5 0.000000 0.000000 0.000000 0.000000 0.039497 0.000000
# 6 0.000000 0.000000 0.000000 0.000000 0.000000 0.025420
#
#
# Mechanical properties :
#
#
# Convention : Reuss Voigt Hill
#
# Bulk Modulus (GPa) = 69.76638 78.52050 74.14344
# Shear Modulus (GPa) = 19.71786 25.65731 22.68759
#
# Velocity S-wave (km/s) = 3.30231 3.76698 3.54227
# Velocity P-wave (km/s) = 7.28873 7.89601 7.59844
#
# Compressibility (1/GPa) = 0.01433355
#
# Stress axis : x y z
#
# Youngs Moduli (GPa) = 43.84222 28.01900 75.89261
#
# Poissons Ratio (x) = 0.61525 0.16515
# Poissons Ratio (y) = 0.96270 0.34430
# Poissons Ratio (z) = 0.09540 0.12711
#
# Static dielectric constant tensor:
#      x y z
#    x 1.608100 0.000000 0.000000 
#    y 0.000000 1.590530 0.000000 
#    z 0.000000 0.000000 1.605760 
# 
# From -- ./inp_files/15001.got.cif
#   From: 2010.05.17/outbox.cif.g08.bks.cpg/sg64_8_cif.got.tgz:15001.got - 2010.06.03 16:29:19.
