data_PCOD9480952
_publ_section_title
;
Structure prediction by ZEFSAII (Michael W. Deem and Ramdas Pophale) SiO2 
 PCOD9480952
Probable space group: C M C A
;
_chemical_formula_sum "Si O2"
_cell_formula_units_Z 64
_cell_length_a 15.771550
_cell_length_b 13.319082
_cell_length_c 13.910139
_cell_angle_alpha 90.000000
_cell_angle_beta 90.000000
_cell_angle_gamma 90.000000
_cell_volume 2921.999516
_symmetry_space_group_name_H-M "C M C A"
_symmetry_group_IT_number 64
_symmetry_cell_setting 'orthorhombic'
loop_
_space_group_symop_operation_xyz
x,y,z
-x,1/2-y,1/2+z
x,-y,-z
-x,1/2+y,1/2-z
-x,-y,-z
x,1/2+y,1/2-z
-x,y,z
x,1/2-y,1/2+z
1/2+x,1/2+y,z
1/2-x,-y,1/2+z
1/2+x,1/2-y,-z
1/2-x,y,1/2-z
1/2-x,1/2-y,-z
1/2+x,y,1/2-z
1/2-x,1/2+y,z
1/2+x,-y,1/2+z
loop_
_atom_site_type_symbol
_atom_site_label
_atom_site_fract_x
_atom_site_fract_y
_atom_site_fract_z
Si Si1 0.156137 0.958970 0.704377
Si Si2 0.653882 0.228118 0.088480
Si Si3 0.000000 0.668253 0.498359
Si Si4 0.751151 0.088968 0.942856
Si Si5 0.000000 0.003376 0.160463
O O1 0.250000 0.946650 0.750000
O O2 0.125075 0.848850 0.670126
O O3 0.084540 0.999751 0.774995
O O4 0.176440 0.035177 0.616355
O O5 0.581425 0.262965 0.015663
O O6 0.697315 0.332075 0.121460
O O7 0.717788 0.158336 0.028690
O O8 0.000000 0.587423 0.584976
O O9 0.000000 0.606429 0.400546
O O10 0.800802 0.000000 0.000000
#
# Coordination Sequence:
#
# PCOD9480952 Si02
#       5
#    16  16   8  16   8
#     4  11  24  43  66 100 135 168 218 278 324 387
#     4  10  22  41  68  93 127 175 215 266 327 398
#     4  11  25  43  64  89 132 176 215 269 329 390
#     4   9  21  40  67  94 128 170 215 261 329 393
#     4  11  27  43  64  95 135 171 218 274 324 387
#
# _framework density 21.902809999999999
#
# number of rings (size 3 to 8) (size 9 to 14) (size 15 to 20)
#    0.000    1.750    0.000    2.250   14.000    4.000 
#    4.500    3.750    0.000    0.000    0.000    0.000 
#    0.000    0.000    0.000    0.000    0.000    0.000 
#
# Total GULP energy -178597.180819 kJ/mol
# GULP energy per Si atom -5581.161901 kJ/mol
# Density = 2.185296 g / cm^3
# Si number density = 21.902810 Si / 1000 Ang^3
#
#
#
# Elastic Constant Matrix: (Units=GPa)
#
#
# Indices 1 2 3 4 5 6 
#
# 1 60.6079 23.7774 6.5053 0.0000 0.0000 0.0000
# 2 23.7774 137.8165 25.7856 0.0000 0.0000 0.0000
# 3 6.5053 25.7856 64.1053 0.0000 0.0000 0.0000
# 4 0.0000 0.0000 0.0000 35.1290 0.0000 0.0000
# 5 0.0000 0.0000 0.0000 0.0000 31.3361 0.0000
# 6 0.0000 0.0000 0.0000 0.0000 0.0000 -76.9305
#
#
#
# Elastic Compliance Matrix: (Units=1/GPa)
#
#
# Indices 1 2 3 4 5 6 
#
# 1 0.017720 -0.002942 -0.000615 0.000000 0.000000 0.000000
# 2 -0.002942 0.008335 -0.003054 0.000000 0.000000 0.000000
# 3 -0.000615 -0.003054 0.016890 0.000000 0.000000 0.000000
# 4 0.000000 0.000000 0.000000 0.028467 0.000000 0.000000
# 5 0.000000 0.000000 0.000000 0.000000 0.031912 0.000000
# 6 0.000000 0.000000 0.000000 0.000000 0.000000 -0.012999
#
#
# Mechanical properties :
#
#
# Convention : Reuss Voigt Hill
#
# Bulk Modulus (GPa) = 33.64396 41.62957 37.63676
# Shear Modulus (GPa) = 44.07055 11.67103 27.87079
#
# Velocity S-wave (km/s) = 4.49051 2.31087 3.57105
# Velocity P-wave (km/s) = 6.50231 5.11546 5.85013
#
# Compressibility (1/GPa) = 0.02972302
#
# Stress axis : x y z
#
# Youngs Moduli (GPa) = 56.43422 119.97506 59.20598
#
# Poissons Ratio (x) = 0.35299 0.03639
# Poissons Ratio (y) = 0.16604 0.18082
# Poissons Ratio (z) = 0.03469 0.36642
#
# Static dielectric constant tensor:
#      x y z
#    x 1.817250 0.000000 0.000000 
#    y 0.000000 1.837720 0.000000 
#    z 0.000000 0.000000 1.857230 
# 
# From -- ./inp_files/24931.got.cif
#   From: 2010.05.17/outbox.cif.g08.bks.cpg/sg64_13_cif.got.tgz:24931.got - 2010.06.03 16:29:19.
