data_PCOD9480954
_publ_section_title
;
Structure prediction by ZEFSAII (Michael W. Deem and Ramdas Pophale) SiO2 
 PCOD9480954
Probable space group: C M C A
;
_chemical_formula_sum "Si O2"
_cell_formula_units_Z 116
_cell_length_a 18.648014
_cell_length_b 24.348963
_cell_length_c 12.517081
_cell_angle_alpha 90.000000
_cell_angle_beta 90.000000
_cell_angle_gamma 90.000000
_cell_volume 5683.503332
_symmetry_space_group_name_H-M "C M C A"
_symmetry_group_IT_number 64
_symmetry_cell_setting 'orthorhombic'
loop_
_space_group_symop_operation_xyz
x,y,z
-x,1/2-y,1/2+z
x,-y,-z
-x,1/2+y,1/2-z
-x,-y,-z
x,1/2+y,1/2-z
-x,y,z
x,1/2-y,1/2+z
1/2+x,1/2+y,z
1/2-x,-y,1/2+z
1/2+x,1/2-y,-z
1/2-x,y,1/2-z
1/2-x,1/2-y,-z
1/2+x,y,1/2-z
1/2-x,1/2+y,z
1/2+x,-y,1/2+z
loop_
_atom_site_type_symbol
_atom_site_label
_atom_site_fract_x
_atom_site_fract_y
_atom_site_fract_z
Si Si1 0.322334 0.642904 0.534845
Si Si2 0.671339 0.444752 0.290499
Si Si3 0.915886 0.847776 0.787388
Si Si4 0.157116 0.163772 0.990811
Si Si5 0.585579 0.050493 0.577594
Si Si6 0.129401 0.442318 0.867029
Si Si7 0.083705 0.228856 0.420839
Si Si8 0.000000 0.000000 0.500000
O O1 0.348430 0.606036 0.633955
O O2 0.240961 0.663769 0.537803
O O3 0.326253 0.600887 0.436047
O O4 0.375716 0.692198 0.508746
O O5 0.750000 0.430707 0.250000
O O6 0.614206 0.455881 0.197665
O O7 0.675772 0.503509 0.347372
O O8 0.864189 0.830479 0.884249
O O9 0.896001 0.907487 0.736885
O O10 0.909483 0.803914 0.690849
O O11 0.000000 0.849149 0.821708
O O12 0.124043 0.105093 0.962243
O O13 0.118827 0.211547 0.923899
O O14 0.500000 0.056360 0.576472
O O15 0.604604 0.000000 0.500000
O O16 0.062192 0.464355 0.935478
O O17 0.000000 0.232970 0.446063
#
# Coordination Sequence:
#
# PCOD9480954 Si02
#       8
#    16  16  16  16  16  16  16   4
#     4  11  25  43  65 100 131 178 220 280 340 404
#     4  12  25  41  64  96 141 179 220 272 338 409
#     4  10  22  41  68  98 131 174 225 275 337 406
#     4  12  24  45  68  95 138 173 217 279 344 410
#     4  11  26  43  66  98 136 182 231 279 338 412
#     4  11  24  38  66  98 133 175 228 272 335 390
#     4  10  24  44  70  97 128 169 230 284 335 405
#     4  12  20  40  68  92 134 172 218 288 314 388
#
# _framework density 20.409946999999999
#
# number of rings (size 3 to 8) (size 9 to 14) (size 15 to 20)
#    0.000    0.966    3.448    2.483    5.793    4.414 
#    0.000    0.000    0.000    0.000    0.000    0.000 
#    0.000    0.000    0.000    0.000    0.000    0.000 
#
# Total GULP energy -323583.496827 kJ/mol
# GULP energy per Si atom -5579.025807 kJ/mol
# Density = 2.036349 g / cm^3
# Si number density = 20.409947 Si / 1000 Ang^3
#
#
#
# Elastic Constant Matrix: (Units=GPa)
#
#
# Indices 1 2 3 4 5 6 
#
# 1 56.0394 12.1995 15.8790 0.0000 0.0000 0.0000
# 2 12.1995 71.3857 5.7914 0.0000 0.0000 0.0000
# 3 15.8790 5.7914 35.9188 0.0000 0.0000 0.0000
# 4 0.0000 0.0000 0.0000 21.0881 0.0000 0.0000
# 5 0.0000 0.0000 0.0000 0.0000 18.0486 0.0000
# 6 0.0000 0.0000 0.0000 0.0000 0.0000 49.0315
#
#
#
# Elastic Compliance Matrix: (Units=1/GPa)
#
#
# Indices 1 2 3 4 5 6 
#
# 1 0.020964 -0.002868 -0.008805 0.000000 0.000000 0.000000
# 2 -0.002868 0.014587 -0.001084 0.000000 0.000000 0.000000
# 3 -0.008805 -0.001084 0.031908 0.000000 0.000000 0.000000
# 4 0.000000 0.000000 0.000000 0.047420 0.000000 0.000000
# 5 0.000000 0.000000 0.000000 0.000000 0.055406 0.000000
# 6 0.000000 0.000000 0.000000 0.000000 0.000000 0.020395
#
#
# Mechanical properties :
#
#
# Convention : Reuss Voigt Hill
#
# Bulk Modulus (GPa) = 23.84156 25.67598 24.75877
# Shear Modulus (GPa) = 21.72255 26.26526 23.99391
#
# Velocity S-wave (km/s) = 3.26592 3.59121 3.43242
# Velocity P-wave (km/s) = 5.09199 5.45923 5.27880
#
# Compressibility (1/GPa) = 0.04194357
#
# Stress axis : x y z
#
# Youngs Moduli (GPa) = 47.70079 68.55649 31.34016
#
# Poissons Ratio (x) = 0.19664 0.27596
# Poissons Ratio (y) = 0.13682 0.03397
# Poissons Ratio (z) = 0.42002 0.07431
#
# Static dielectric constant tensor:
#      x y z
#    x 1.705900 0.000000 0.000000 
#    y 0.000000 1.722430 0.000000 
#    z 0.000000 0.000000 2.395450 
# 
# From -- ./inp_files/16458.got.cif
#   From: 2010.05.17/outbox.cif.g08.bks.cpg/sg64_9_cif.got.tgz:16458.got - 2010.06.03 16:29:19.
