data_PCOD9480038
_publ_section_title
;
Structure prediction by ZEFSAII (Michael W. Deem and Ramdas Pophale) SiO2 
 PCOD9480038
Probable space group: C M C A
;
_chemical_formula_sum "Si O2"
_cell_formula_units_Z 96
_cell_length_a 22.058567
_cell_length_b 16.333347
_cell_length_c 13.595632
_cell_angle_alpha 90.000000
_cell_angle_beta 90.000000
_cell_angle_gamma 90.000000
_cell_volume 4898.373368
_symmetry_space_group_name_H-M "C M C A"
_symmetry_group_IT_number 64
_symmetry_cell_setting 'orthorhombic'
loop_
_space_group_symop_operation_xyz
x,y,z
-x,1/2-y,1/2+z
x,-y,-z
-x,1/2+y,1/2-z
-x,-y,-z
x,1/2+y,1/2-z
-x,y,z
x,1/2-y,1/2+z
1/2+x,1/2+y,z
1/2-x,-y,1/2+z
1/2+x,1/2-y,-z
1/2-x,y,1/2-z
1/2-x,1/2-y,-z
1/2+x,y,1/2-z
1/2-x,1/2+y,z
1/2+x,-y,1/2+z
loop_
_atom_site_type_symbol
_atom_site_label
_atom_site_fract_x
_atom_site_fract_y
_atom_site_fract_z
Si Si1 0.804801 0.932529 0.676162
Si Si2 0.398194 0.298849 0.146071
Si Si3 0.687821 0.625477 0.699630
Si Si4 0.931307 0.086569 0.026211
Si Si5 0.691786 0.193655 0.010585
Si Si6 0.070267 0.859937 0.760012
O O1 0.750000 0.905817 0.750000
O O2 0.793803 0.888236 0.572374
O O3 0.873239 0.907014 0.708957
O O4 0.803206 0.030468 0.674029
O O5 0.362276 0.359074 0.218280
O O6 0.354804 0.244861 0.076178
O O7 0.429549 0.231645 0.215566
O O8 0.432111 0.355694 0.068352
O O9 0.750000 0.656996 0.750000
O O10 0.671556 0.671349 0.599164
O O11 0.911203 0.133427 0.124741
O O12 0.000000 0.065137 0.053126
O O13 0.899297 0.000000 0.000000
O O14 0.750000 0.250000 0.000000
O O15 0.000000 0.890095 0.744788
#
# Coordination Sequence:
#
# PCOD9480038 Si02
#       6
#    16  16  16  16  16  16
#     4  10  24  39  64  90 124 161 202 255 309 372
#     4  11  22  36  62  85 120 161 205 248 304 365
#     4  11  22  39  56  89 123 160 202 247 312 371
#     4  10  21  38  60  88 119 154 203 254 300 356
#     4  11  23  37  59  86 124 156 195 256 301 366
#     4  10  22  40  62  90 125 164 208 258 313 369
#
# _framework density 19.598344000000001
#
# number of rings (size 3 to 8) (size 9 to 14) (size 15 to 20)
#    0.000    1.500    1.667    3.000    7.000    0.000 
#    0.000    0.833    0.000   10.000    0.000    0.000 
#    0.000    0.000    0.000    0.000    0.000    0.000 
#
# Total GULP energy -267445.306077 kJ/mol
# GULP energy per Si atom -5571.777210 kJ/mol
# Density = 1.955374 g / cm^3
# Si number density = 19.598344 Si / 1000 Ang^3
#
#
#
# Elastic Constant Matrix: (Units=GPa)
#
#
# Indices 1 2 3 4 5 6 
#
# 1 72.8274 9.6404 23.1244 0.0000 0.0000 0.0000
# 2 9.6404 81.5956 43.2132 0.0000 0.0000 0.0000
# 3 23.1244 43.2132 138.9880 0.0000 0.0000 0.0000
# 4 0.0000 0.0000 0.0000 35.9082 0.0000 0.0000
# 5 0.0000 0.0000 0.0000 0.0000 25.5072 0.0000
# 6 0.0000 0.0000 0.0000 0.0000 0.0000 54.9513
#
#
#
# Elastic Compliance Matrix: (Units=1/GPa)
#
#
# Indices 1 2 3 4 5 6 
#
# 1 0.014515 -0.000522 -0.002253 0.000000 0.000000 0.000000
# 2 -0.000522 0.014690 -0.004481 0.000000 0.000000 0.000000
# 3 -0.002253 -0.004481 0.008963 0.000000 0.000000 0.000000
# 4 0.000000 0.000000 0.000000 0.027849 0.000000 0.000000
# 5 0.000000 0.000000 0.000000 0.000000 0.039205 0.000000
# 6 0.000000 0.000000 0.000000 0.000000 0.000000 0.018198
#
#
# Mechanical properties :
#
#
# Convention : Reuss Voigt Hill
#
# Bulk Modulus (GPa) = 42.26913 49.48524 45.87719
# Shear Modulus (GPa) = 34.28977 37.76887 36.02932
#
# Velocity S-wave (km/s) = 4.18739 4.39469 4.29229
# Velocity P-wave (km/s) = 6.70772 7.14532 6.92997
#
# Compressibility (1/GPa) = 0.02365792
#
# Stress axis : x y z
#
# Youngs Moduli (GPa) = 68.89195 68.07301 111.57316
#
# Poissons Ratio (x) = 0.03553 0.25135
# Poissons Ratio (y) = 0.03595 0.49991
# Poissons Ratio (z) = 0.15520 0.30500
#
# Static dielectric constant tensor:
#      x y z
#    x 1.714850 0.000000 0.000000 
#    y 0.000000 1.708990 0.000000 
#    z 0.000000 0.000000 1.682640 
# 
# From -- ./inp_files/18368.got.cif
#   From: 2010.05.17/outbox.cif.g08.bks.cpg/sg64_10_cif.got.tgz:18368.got - 2010.06.03 16:29:19.
