data_PCOD9480080
_publ_section_title
;
Structure prediction by ZEFSAII (Michael W. Deem and Ramdas Pophale) SiO2 
 PCOD9480080
Probable space group: C M C A
;
_chemical_formula_sum "Si O2"
_cell_formula_units_Z 64
_cell_length_a 8.678278
_cell_length_b 25.361539
_cell_length_c 14.914296
_cell_angle_alpha 90.000000
_cell_angle_beta 90.000000
_cell_angle_gamma 90.000000
_cell_volume 3282.554311
_symmetry_space_group_name_H-M "C M C A"
_symmetry_group_IT_number 64
_symmetry_cell_setting 'orthorhombic'
loop_
_space_group_symop_operation_xyz
x,y,z
-x,1/2-y,1/2+z
x,-y,-z
-x,1/2+y,1/2-z
-x,-y,-z
x,1/2+y,1/2-z
-x,y,z
x,1/2-y,1/2+z
1/2+x,1/2+y,z
1/2-x,-y,1/2+z
1/2+x,1/2-y,-z
1/2-x,y,1/2-z
1/2-x,1/2-y,-z
1/2+x,y,1/2-z
1/2-x,1/2+y,z
1/2+x,-y,1/2+z
loop_
_atom_site_type_symbol
_atom_site_label
_atom_site_fract_x
_atom_site_fract_y
_atom_site_fract_z
Si Si1 0.315442 0.747163 0.851249
Si Si2 0.185109 0.864488 0.649206
Si Si3 0.683524 0.638351 0.649313
Si Si4 0.815335 0.438569 0.497228
O O1 0.500000 0.741317 0.849950
O O2 0.250000 0.748371 0.750000
O O3 0.277091 0.805382 0.886900
O O4 0.241299 0.694437 0.890671
O O5 0.250000 0.869077 0.750000
O O6 0.255894 0.908141 0.584892
O O7 0.000000 0.868775 0.651541
O O8 0.500000 0.638879 0.653172
O O9 0.750000 0.633525 0.750000
O O10 0.743248 0.591352 0.587557
O O11 0.771980 0.500000 0.500000
O O12 0.000000 0.434837 0.492410
#
# Coordination Sequence:
#
# PCOD9480080 Si02
#       4
#    16  16  16  16
#     4   9  17  32  56  87 120 151 187 230 282 344
#     4  10  21  38  62  90 120 155 191 235 290 345
#     4  11  22  38  62  89 119 154 191 236 290 345
#     4  11  25  43  61  83 113 152 200 248 290 339
#
# _framework density 19.497011000000001
#
# number of rings (size 3 to 8) (size 9 to 14) (size 15 to 20)
#    0.000    1.750    0.000    6.000    0.000    7.000 
#    0.000    0.000    0.000    0.000    0.000    0.000 
#    0.000    0.000    0.000    0.000    0.000    0.000 
#
# Total GULP energy -178775.800465 kJ/mol
# GULP energy per Si atom -5586.743765 kJ/mol
# Density = 1.945264 g / cm^3
# Si number density = 19.497011 Si / 1000 Ang^3
#
#
#
# Elastic Constant Matrix: (Units=GPa)
#
#
# Indices 1 2 3 4 5 6 
#
# 1 113.9062 94.6597 46.7020 0.0000 0.0000 0.0000
# 2 94.6597 219.7343 87.2735 0.0000 0.0000 0.0000
# 3 46.7020 87.2735 113.1755 0.0000 0.0000 0.0000
# 4 0.0000 0.0000 0.0000 36.3108 0.0000 0.0000
# 5 0.0000 0.0000 0.0000 0.0000 23.7637 0.0000
# 6 0.0000 0.0000 0.0000 0.0000 0.0000 34.0431
#
#
#
# Elastic Compliance Matrix: (Units=1/GPa)
#
#
# Indices 1 2 3 4 5 6 
#
# 1 0.013875 -0.005338 -0.001609 0.000000 0.000000 0.000000
# 2 -0.005338 0.008614 -0.004440 0.000000 0.000000 0.000000
# 3 -0.001609 -0.004440 0.012923 0.000000 0.000000 0.000000
# 4 0.000000 0.000000 0.000000 0.027540 0.000000 0.000000
# 5 0.000000 0.000000 0.000000 0.000000 0.042081 0.000000
# 6 0.000000 0.000000 0.000000 0.000000 0.000000 0.029374
#
#
# Mechanical properties :
#
#
# Convention : Reuss Voigt Hill
#
# Bulk Modulus (GPa) = 79.12342 100.45407 89.78875
# Shear Modulus (GPa) = 30.97993 33.36891 32.17442
#
# Velocity S-wave (km/s) = 3.99050 4.14150 4.06670
# Velocity P-wave (km/s) = 7.86782 8.63157 8.25853
#
# Compressibility (1/GPa) = 0.01263848
#
# Stress axis : x y z
#
# Youngs Moduli (GPa) = 72.07163 116.09089 77.37866
#
# Poissons Ratio (x) = 0.61971 0.12451
# Poissons Ratio (y) = 0.38473 0.34354
# Poissons Ratio (z) = 0.11597 0.51541
#
# Static dielectric constant tensor:
#      x y z
#    x 1.647430 0.000000 0.000000 
#    y 0.000000 1.695680 0.000000 
#    z 0.000000 0.000000 1.670310 
# 
# From -- ./inp_files/20860.got.cif
#   From: 2010.05.17/outbox.cif.g08.bks.cpg/sg64_11_cif.got.tgz:20860.got - 2010.06.03 16:29:19.
