data_PCOD9480180
_publ_section_title
;
Structure prediction by ZEFSAII (Michael W. Deem and Ramdas Pophale) SiO2 
 PCOD9480180
Probable space group: C M C A
;
_chemical_formula_sum "Si O2"
_cell_formula_units_Z 104
_cell_length_a 16.235009
_cell_length_b 14.187808
_cell_length_c 22.664170
_cell_angle_alpha 90.000000
_cell_angle_beta 90.000000
_cell_angle_gamma 90.000000
_cell_volume 5220.446573
_symmetry_space_group_name_H-M "C M C A"
_symmetry_group_IT_number 64
_symmetry_cell_setting 'orthorhombic'
loop_
_space_group_symop_operation_xyz
x,y,z
-x,1/2-y,1/2+z
x,-y,-z
-x,1/2+y,1/2-z
-x,-y,-z
x,1/2+y,1/2-z
-x,y,z
x,1/2-y,1/2+z
1/2+x,1/2+y,z
1/2-x,-y,1/2+z
1/2+x,1/2-y,-z
1/2-x,y,1/2-z
1/2-x,1/2-y,-z
1/2+x,y,1/2-z
1/2-x,1/2+y,z
1/2+x,-y,1/2+z
loop_
_atom_site_type_symbol
_atom_site_label
_atom_site_fract_x
_atom_site_fract_y
_atom_site_fract_z
Si Si1 0.334379 0.450895 0.936051
Si Si2 0.000000 0.277214 0.305503
Si Si3 0.000000 0.081572 0.361567
Si Si4 0.845717 0.956017 0.564702
Si Si5 0.832711 0.160717 0.609144
Si Si6 0.594091 0.277353 0.986762
Si Si7 0.500000 0.357977 0.325613
Si Si8 0.649003 0.348648 0.115375
O O1 0.242894 0.406586 0.931247
O O2 0.398807 0.367307 0.942916
O O3 0.352013 0.536656 0.891661
O O4 0.331886 0.500000 0.000000
O O5 0.000000 0.163174 0.312402
O O6 0.000000 0.322705 0.241113
O O7 0.080657 0.314298 0.339579
O O8 0.078478 0.094994 0.404793
O O9 0.000000 0.972925 0.336855
O O10 0.864194 0.000000 0.500000
O O11 0.831158 0.048640 0.603934
O O12 0.848138 0.200462 0.543482
O O13 0.916058 0.181917 0.644816
O O14 0.741464 0.185594 0.630883
O O15 0.500000 0.244826 0.990129
O O16 0.625220 0.309113 0.050630
#
# Coordination Sequence:
#
# PCOD9480180 Si02
#       8
#    16   8   8  16  16  16   8  16
#     4   8  18  33  51  83 126 163 187 225 285 365
#     4  12  26  40  65  88 118 154 207 268 290 348
#     4  10  23  38  62  85 115 155 195 261 302 345
#     4   9  18  33  57  88 123 155 189 234 305 370
#     4  10  21  39  62  84 121 165 191 244 298 368
#     4  11  20  32  59  93 128 158 193 232 297 376
#     4  10  24  50  60  81 116 153 220 247 299 355
#     4  10  22  37  58  92 125 153 195 249 306 343
#
# _framework density 19.921668
#
# number of rings (size 3 to 8) (size 9 to 14) (size 15 to 20)
#    0.000    2.154    1.538    1.615    5.385    1.538 
#    2.769    0.000    0.000    1.846    0.000    0.000 
#    0.000    0.000    0.000    0.000    0.000    0.000 
#
# Total GULP energy -289911.865287 kJ/mol
# GULP energy per Si atom -5575.228179 kJ/mol
# Density = 1.987632 g / cm^3
# Si number density = 19.921668 Si / 1000 Ang^3
#
#
#
# Elastic Constant Matrix: (Units=GPa)
#
#
# Indices 1 2 3 4 5 6 
#
# 1 137.8509 14.0406 42.0411 0.0000 0.0000 0.0000
# 2 14.0406 59.7115 14.4532 0.0000 0.0000 0.0000
# 3 42.0411 14.4532 84.8005 0.0000 0.0000 0.0000
# 4 0.0000 0.0000 0.0000 22.0025 0.0000 0.0000
# 5 0.0000 0.0000 0.0000 0.0000 2.5309 0.0000
# 6 0.0000 0.0000 0.0000 0.0000 0.0000 11.8121
#
#
#
# Elastic Compliance Matrix: (Units=1/GPa)
#
#
# Indices 1 2 3 4 5 6 
#
# 1 0.008607 -0.001034 -0.004091 0.000000 0.000000 0.000000
# 2 -0.001034 0.017592 -0.002486 0.000000 0.000000 0.000000
# 3 -0.004091 -0.002486 0.014244 0.000000 0.000000 0.000000
# 4 0.000000 0.000000 0.000000 0.045449 0.000000 0.000000
# 5 0.000000 0.000000 0.000000 0.000000 0.395120 0.000000
# 6 0.000000 0.000000 0.000000 0.000000 0.000000 0.084659
#
#
# Mechanical properties :
#
#
# Convention : Reuss Voigt Hill
#
# Bulk Modulus (GPa) = 39.64740 47.04807 43.34773
# Shear Modulus (GPa) = 8.48465 21.39096 14.93780
#
# Velocity S-wave (km/s) = 2.06597 3.28037 2.74127
# Velocity P-wave (km/s) = 5.06319 6.16568 5.64143
#
# Compressibility (1/GPa) = 0.02522234
#
# Stress axis : x y z
#
# Youngs Moduli (GPa) = 116.18272 56.84418 70.20393
#
# Poissons Ratio (x) = 0.05876 0.28720
# Poissons Ratio (y) = 0.12010 0.17452
# Poissons Ratio (z) = 0.47530 0.14131
#
# Static dielectric constant tensor:
#      x y z
#    x 1.738470 0.000000 0.000000 
#    y 0.000000 1.775800 0.000000 
#    z 0.000000 0.000000 1.666470 
# 
# From -- ./inp_files/40283.got.cif
#   From: 2010.05.17/outbox.cif.g08.bks.cpg/sg64_21_cif.got.tgz:40283.got - 2010.06.03 16:29:19.
