data_PCOD9480821
_publ_section_title
;
Structure prediction by ZEFSAII (Michael W. Deem and Ramdas Pophale) SiO2 
 PCOD9480821
Probable space group: C M C A
;
_chemical_formula_sum "Si O2"
_cell_formula_units_Z 40
_cell_length_a 23.568079
_cell_length_b 15.299377
_cell_length_c 5.109620
_cell_angle_alpha 90.000000
_cell_angle_beta 90.000000
_cell_angle_gamma 90.000000
_cell_volume 1842.411072
_symmetry_space_group_name_H-M "C M C A"
_symmetry_group_IT_number 64
_symmetry_cell_setting 'orthorhombic'
loop_
_space_group_symop_operation_xyz
x,y,z
-x,1/2-y,1/2+z
x,-y,-z
-x,1/2+y,1/2-z
-x,-y,-z
x,1/2+y,1/2-z
-x,y,z
x,1/2-y,1/2+z
1/2+x,1/2+y,z
1/2-x,-y,1/2+z
1/2+x,1/2-y,-z
1/2-x,y,1/2-z
1/2-x,1/2-y,-z
1/2+x,y,1/2-z
1/2-x,1/2+y,z
1/2+x,-y,1/2+z
loop_
_atom_site_type_symbol
_atom_site_label
_atom_site_fract_x
_atom_site_fract_y
_atom_site_fract_z
Si Si1 0.000000 0.561265 0.246360
Si Si2 0.091971 0.303164 0.933106
Si Si3 0.789826 0.102256 0.497476
O O1 0.000000 0.500000 0.500000
O O2 0.054850 0.621577 0.200478
O O3 0.000000 0.500000 0.000000
O O4 0.079554 0.223236 0.733198
O O5 0.156781 0.335082 0.954324
O O6 0.750000 0.118657 0.750000
O O7 0.809011 0.000000 0.500000
O O8 0.750000 0.112788 0.250000
#
# Coordination Sequence:
#
# PCOD9480821 Si02
#       3
#     8  16  16
#     4  12  26  46  70  94 128 176 226 270 328 404
#     4  12  25  42  66  97 133 167 214 276 335 389
#     4  10  22  40  63  92 129 174 222 268 322 394
#
# _framework density 21.710684000000001
#
# number of rings (size 3 to 8) (size 9 to 14) (size 15 to 20)
#    0.000    0.800    0.000    7.200    0.000    9.600 
#    0.000    0.000    0.000    0.000    0.000    0.000 
#    0.000    0.000    0.000    0.000    0.000    0.000 
#
# Total GULP energy -111738.010658 kJ/mol
# GULP energy per Si atom -5586.900533 kJ/mol
# Density = 2.166127 g / cm^3
# Si number density = 21.710684 Si / 1000 Ang^3
#
#
#
# Elastic Constant Matrix: (Units=GPa)
#
#
# Indices 1 2 3 4 5 6 
#
# 1 69.4077 32.3341 33.8220 0.0000 0.0000 0.0000
# 2 32.3341 62.3401 39.4308 0.0000 0.0000 0.0000
# 3 33.8220 39.4308 187.0750 0.0000 0.0000 0.0000
# 4 0.0000 0.0000 0.0000 63.5130 0.0000 0.0000
# 5 0.0000 0.0000 0.0000 0.0000 18.6030 0.0000
# 6 0.0000 0.0000 0.0000 0.0000 0.0000 49.4137
#
#
#
# Elastic Compliance Matrix: (Units=1/GPa)
#
#
# Indices 1 2 3 4 5 6 
#
# 1 0.019405 -0.009052 -0.001600 0.000000 0.000000 0.000000
# 2 -0.009052 0.022732 -0.003155 0.000000 0.000000 0.000000
# 3 -0.001600 -0.003155 0.006300 0.000000 0.000000 0.000000
# 4 0.000000 0.000000 0.000000 0.015745 0.000000 0.000000
# 5 0.000000 0.000000 0.000000 0.000000 0.053755 0.000000
# 6 0.000000 0.000000 0.000000 0.000000 0.000000 0.020237
#
#
# Mechanical properties :
#
#
# Convention : Reuss Voigt Hill
#
# Bulk Modulus (GPa) = 48.02779 58.88851 53.45815
# Shear Modulus (GPa) = 28.94729 40.52168 34.73448
#
# Velocity S-wave (km/s) = 3.65543 4.32492 4.00419
# Velocity P-wave (km/s) = 6.32344 7.21962 6.78634
#
# Compressibility (1/GPa) = 0.02082128
#
# Stress axis : x y z
#
# Youngs Moduli (GPa) = 51.53433 43.99159 158.73842
#
# Poissons Ratio (x) = 0.39823 0.25401
# Poissons Ratio (y) = 0.46651 0.50076
# Poissons Ratio (z) = 0.08246 0.13878
#
# Static dielectric constant tensor:
#      x y z
#    x 1.255620 0.000000 0.000000 
#    y 0.000000 1.867470 0.000000 
#    z 0.000000 0.000000 1.721820 
# 
# From -- ./inp_files/1472.got.cif
#   From: 2010.05.17/outbox.cif.g08.bks.cpg/sg64_1_cif.got.tgz:1472.got - 2010.06.03 16:29:19.
