data_PCOD9480659
_publ_section_title
;
Structure prediction by ZEFSAII (Michael W. Deem and Ramdas Pophale) SiO2 
 PCOD9480659
Probable space group: C M C A
;
_chemical_formula_sum "Si O2"
_cell_formula_units_Z 52
_cell_length_a 24.556611
_cell_length_b 17.458109
_cell_length_c 4.816852
_cell_angle_alpha 90.000000
_cell_angle_beta 90.000000
_cell_angle_gamma 90.000000
_cell_volume 2065.042214
_symmetry_space_group_name_H-M "C M C A"
_symmetry_group_IT_number 64
_symmetry_cell_setting 'orthorhombic'
loop_
_space_group_symop_operation_xyz
x,y,z
-x,1/2-y,1/2+z
x,-y,-z
-x,1/2+y,1/2-z
-x,-y,-z
x,1/2+y,1/2-z
-x,y,z
x,1/2-y,1/2+z
1/2+x,1/2+y,z
1/2-x,-y,1/2+z
1/2+x,1/2-y,-z
1/2-x,y,1/2-z
1/2-x,1/2-y,-z
1/2+x,y,1/2-z
1/2-x,1/2+y,z
1/2+x,-y,1/2+z
loop_
_atom_site_type_symbol
_atom_site_label
_atom_site_fract_x
_atom_site_fract_y
_atom_site_fract_z
Si Si1 0.500000 0.000000 0.000000
Si Si2 0.563800 0.801247 0.222571
Si Si3 0.310875 0.693297 0.341231
Si Si4 0.603496 0.925551 0.648345
O O1 0.549394 0.047071 0.178767
O O2 0.500000 0.818306 0.232617
O O3 0.573775 0.774340 0.910070
O O4 0.588275 0.870913 0.389241
O O5 0.318765 0.731998 0.641471
O O6 0.250000 0.669545 0.250000
O O7 0.349830 0.620493 0.309750
O O8 0.626897 0.000000 0.500000
#
# Coordination Sequence:
#
# PCOD9480659 Si02
#       4
#     4  16  16  16
#     4  12  30  44  64 102 164 204 240 296 382 462
#     4  10  22  38  62  88 124 179 240 286 337 414
#     4  10  24  51  82 110 143 194 260 323 376 442
#     4  12  27  44  68 105 155 197 245 306 378 455
#
# _framework density 25.181083999999998
#
# number of rings (size 3 to 8) (size 9 to 14) (size 15 to 20)
#    0.000    1.231    1.538    2.308    8.615    0.000 
#    2.769    0.000    0.000    0.000    0.000    0.000 
#    0.000    0.000    0.000    0.000    0.000    0.000 
#
# Total GULP energy -145007.044851 kJ/mol
# GULP energy per Si atom -5577.194033 kJ/mol
# Density = 2.512377 g / cm^3
# Si number density = 25.181084 Si / 1000 Ang^3
#
#
#
# Elastic Constant Matrix: (Units=GPa)
#
#
# Indices 1 2 3 4 5 6 
#
# 1 142.6219 63.9784 28.4513 0.0000 0.0000 0.0000
# 2 63.9784 156.4771 46.8858 0.0000 0.0000 0.0000
# 3 28.4513 46.8858 134.6628 0.0000 0.0000 0.0000
# 4 0.0000 0.0000 0.0000 55.7685 0.0000 0.0000
# 5 0.0000 0.0000 0.0000 0.0000 38.2734 0.0000
# 6 0.0000 0.0000 0.0000 0.0000 0.0000 34.3072
#
#
#
# Elastic Compliance Matrix: (Units=1/GPa)
#
#
# Indices 1 2 3 4 5 6 
#
# 1 0.008639 -0.003333 -0.000665 0.000000 0.000000 0.000000
# 2 -0.003333 0.008421 -0.002228 0.000000 0.000000 0.000000
# 3 -0.000665 -0.002228 0.008342 0.000000 0.000000 0.000000
# 4 0.000000 0.000000 0.000000 0.017931 0.000000 0.000000
# 5 0.000000 0.000000 0.000000 0.000000 0.026128 0.000000
# 6 0.000000 0.000000 0.000000 0.000000 0.000000 0.029148
#
#
# Mechanical properties :
#
#
# Convention : Reuss Voigt Hill
#
# Bulk Modulus (GPa) = 77.21377 79.15474 78.18426
# Shear Modulus (GPa) = 43.33569 45.29959 44.31764
#
# Velocity S-wave (km/s) = 4.15295 4.24601 4.19974
# Velocity P-wave (km/s) = 7.32980 7.45255 7.39143
#
# Compressibility (1/GPa) = 0.01295106
#
# Stress axis : x y z
#
# Youngs Moduli (GPa) = 115.74902 118.75015 119.87466
#
# Poissons Ratio (x) = 0.39581 0.07969
# Poissons Ratio (y) = 0.38581 0.26705
# Poissons Ratio (z) = 0.07695 0.26454
#
# Static dielectric constant tensor:
#      x y z
#    x 2.137480 0.000000 0.000000 
#    y 0.000000 2.069660 0.000000 
#    z 0.000000 0.000000 2.061150 
# 
# From -- ./inp_files/2615.got.cif
#   From: 2010.05.17/outbox.cif.g08.bks.cpg/sg64_2_cif.got.tgz:2615.got - 2010.06.03 16:29:19.
