data_PCOD9480719
_publ_section_title
;
Structure prediction by ZEFSAII (Michael W. Deem and Ramdas Pophale) SiO2 
 PCOD9480719
Probable space group: C M C A
;
_chemical_formula_sum "Si O2"
_cell_formula_units_Z 64
_cell_length_a 11.185460
_cell_length_b 13.440749
_cell_length_c 21.908487
_cell_angle_alpha 90.000000
_cell_angle_beta 90.000000
_cell_angle_gamma 90.000000
_cell_volume 3293.742975
_symmetry_space_group_name_H-M "C M C A"
_symmetry_group_IT_number 64
_symmetry_cell_setting 'orthorhombic'
loop_
_space_group_symop_operation_xyz
x,y,z
-x,1/2-y,1/2+z
x,-y,-z
-x,1/2+y,1/2-z
-x,-y,-z
x,1/2+y,1/2-z
-x,y,z
x,1/2-y,1/2+z
1/2+x,1/2+y,z
1/2-x,-y,1/2+z
1/2+x,1/2-y,-z
1/2-x,y,1/2-z
1/2-x,1/2-y,-z
1/2+x,y,1/2-z
1/2-x,1/2+y,z
1/2+x,-y,1/2+z
loop_
_atom_site_type_symbol
_atom_site_label
_atom_site_fract_x
_atom_site_fract_y
_atom_site_fract_z
Si Si1 0.816581 0.257072 0.813067
Si Si2 0.000000 0.575002 0.695066
Si Si3 0.000000 0.064263 0.314998
Si Si4 0.000000 0.436622 0.061684
Si Si5 0.752409 0.184864 0.560631
Si Si6 0.500000 0.065033 0.561142
O O1 0.750000 0.265587 0.750000
O O2 0.890950 0.153888 0.806019
O O3 0.891271 0.358266 0.817568
O O4 0.745816 0.245857 0.876106
O O5 0.000000 0.518011 0.629705
O O6 0.000000 0.503727 0.753906
O O7 0.000000 0.998157 0.375517
O O8 0.874816 0.377279 0.060256
O O9 0.000000 0.500000 0.000000
O O10 0.750000 0.250000 0.500000
O O11 0.624696 0.126800 0.559864
O O12 0.500000 0.000000 0.500000
#
# Coordination Sequence:
#
# PCOD9480719 Si02
#       6
#    16   8   8   8  16   8
#     4  10  22  39  60  87 122 164 208 256 315 372
#     4   9  21  40  58  85 123 161 204 260 312 367
#     4  11  23  39  62  91 122 162 214 261 308 375
#     4  12  24  39  64  94 125 164 212 259 311 373
#     4  11  23  41  63  88 125 163 203 257 310 365
#     4  10  22  40  62  88 120 157 200 250 307 365
#
# _framework density 19.430781
#
# number of rings (size 3 to 8) (size 9 to 14) (size 15 to 20)
#    0.000    1.500    0.000    5.250    0.000    8.000 
#    0.000    0.000    0.000    0.000    0.000    0.000 
#    0.000    0.000    0.000    0.000    0.000    0.000 
#
# Total GULP energy -178384.470384 kJ/mol
# GULP energy per Si atom -5574.514699 kJ/mol
# Density = 1.938656 g / cm^3
# Si number density = 19.430781 Si / 1000 Ang^3
#
#
#
# Elastic Constant Matrix: (Units=GPa)
#
#
# Indices 1 2 3 4 5 6 
#
# 1 142.2205 63.0716 89.4940 0.0000 0.0000 0.0000
# 2 63.0716 109.2787 108.7331 0.0000 0.0000 0.0000
# 3 89.4940 108.7331 272.8841 0.0000 0.0000 0.0000
# 4 0.0000 0.0000 0.0000 57.5082 0.0000 0.0000
# 5 0.0000 0.0000 0.0000 0.0000 39.3129 0.0000
# 6 0.0000 0.0000 0.0000 0.0000 0.0000 -41.4316
#
#
#
# Elastic Compliance Matrix: (Units=1/GPa)
#
#
# Indices 1 2 3 4 5 6 
#
# 1 0.009854 -0.004096 -0.001600 0.000000 0.000000 0.000000
# 2 -0.004096 0.016865 -0.005377 0.000000 0.000000 0.000000
# 3 -0.001600 -0.005377 0.006332 0.000000 0.000000 0.000000
# 4 0.000000 0.000000 0.000000 0.017389 0.000000 0.000000
# 5 0.000000 0.000000 0.000000 0.000000 0.025437 0.000000
# 6 0.000000 0.000000 0.000000 0.000000 0.000000 -0.024136
#
#
# Mechanical properties :
#
#
# Convention : Reuss Voigt Hill
#
# Bulk Modulus (GPa) = 91.69095 116.33118 104.01107
# Shear Modulus (GPa) = 64.49941 28.61688 46.55814
#
# Velocity S-wave (km/s) = 5.76771 3.84182 4.90031
# Velocity P-wave (km/s) = 9.57321 8.92631 9.25541
#
# Compressibility (1/GPa) = 0.01090620
#
# Stress axis : x y z
#
# Youngs Moduli (GPa) = 101.47719 59.29569 157.93809
#
# Poissons Ratio (x) = 0.24286 0.25267
# Poissons Ratio (y) = 0.41563 0.84917
# Poissons Ratio (z) = 0.16235 0.31881
#
# Static dielectric constant tensor:
#      x y z
#    x 1.801700 0.000000 0.000000 
#    y 0.000000 1.670100 0.000000 
#    z 0.000000 0.000000 1.666380 
# 
# From -- ./inp_files/30511.got.cif
#   From: 2010.05.17/outbox.cif.g08.bks.cpg/sg64_16_cif.got.tgz:30511.got - 2010.06.03 16:29:19.
