data_PCOD9480501
_publ_section_title
;
Structure prediction by ZEFSAII (Michael W. Deem and Ramdas Pophale) SiO2 
 PCOD9480501
Probable space group: C M C A
;
_chemical_formula_sum "Si O2"
_cell_formula_units_Z 96
_cell_length_a 29.023954
_cell_length_b 10.010745
_cell_length_c 16.639803
_cell_angle_alpha 90.000000
_cell_angle_beta 90.000000
_cell_angle_gamma 90.000000
_cell_volume 4834.718097
_symmetry_space_group_name_H-M "C M C A"
_symmetry_group_IT_number 64
_symmetry_cell_setting 'orthorhombic'
loop_
_space_group_symop_operation_xyz
x,y,z
-x,1/2-y,1/2+z
x,-y,-z
-x,1/2+y,1/2-z
-x,-y,-z
x,1/2+y,1/2-z
-x,y,z
x,1/2-y,1/2+z
1/2+x,1/2+y,z
1/2-x,-y,1/2+z
1/2+x,1/2-y,-z
1/2-x,y,1/2-z
1/2-x,1/2-y,-z
1/2+x,y,1/2-z
1/2-x,1/2+y,z
1/2+x,-y,1/2+z
loop_
_atom_site_type_symbol
_atom_site_label
_atom_site_fract_x
_atom_site_fract_y
_atom_site_fract_z
Si Si1 0.371074 0.489010 0.204262
Si Si2 0.374051 0.805591 0.846506
Si Si3 0.268833 0.469810 0.162535
Si Si4 0.445656 0.907306 0.579100
Si Si5 0.776871 0.297528 0.921191
Si Si6 0.945000 0.348754 0.980038
O O1 0.373599 0.328003 0.207942
O O2 0.369835 0.566548 0.288652
O O3 0.322248 0.511708 0.159812
O O4 0.412770 0.543008 0.149864
O O5 0.332251 0.798949 0.911498
O O6 0.420211 0.807301 0.898327
O O7 0.250000 0.501659 0.250000
O O8 0.240741 0.556457 0.099840
O O9 0.263387 0.313309 0.145362
O O10 0.500000 0.913490 0.600838
O O11 0.433910 0.757429 0.549933
O O12 0.439329 0.000000 0.500000
O O13 0.750000 0.250000 0.000000
O O14 0.000000 0.344309 0.969804
O O15 0.931140 0.500000 0.000000
#
# Coordination Sequence:
#
# PCOD9480501 Si02
#       6
#    16  16  16  16  16  16
#     4  11  25  40  66  92 128 169 219 265 328 389
#     4  11  25  43  61  98 129 171 216 268 326 393
#     4  11  23  43  63  88 132 168 211 265 324 388
#     4  10  21  42  68  93 126 171 216 267 324 385
#     4  11  25  41  64  95 124 169 218 268 321 380
#     4  10  23  43  66  94 130 167 213 270 325 385
#
# _framework density 19.856380000000001
#
# number of rings (size 3 to 8) (size 9 to 14) (size 15 to 20)
#    0.000    1.333    3.333    1.000    7.000    2.000 
#    0.000    0.000    0.000    0.000    0.000    0.000 
#    0.000    0.000    0.000    0.000    0.000    0.000 
#
# Total GULP energy -267978.913153 kJ/mol
# GULP energy per Si atom -5582.894024 kJ/mol
# Density = 1.981119 g / cm^3
# Si number density = 19.856380 Si / 1000 Ang^3
#
#
#
# Elastic Constant Matrix: (Units=GPa)
#
#
# Indices 1 2 3 4 5 6 
#
# 1 54.6127 22.4956 26.4468 0.0000 0.0000 0.0000
# 2 22.4956 80.7083 4.3489 0.0000 0.0000 0.0000
# 3 26.4468 4.3489 60.8663 0.0000 0.0000 0.0000
# 4 0.0000 0.0000 0.0000 35.2563 0.0000 0.0000
# 5 0.0000 0.0000 0.0000 0.0000 31.5127 0.0000
# 6 0.0000 0.0000 0.0000 0.0000 0.0000 23.6351
#
#
#
# Elastic Compliance Matrix: (Units=1/GPa)
#
#
# Indices 1 2 3 4 5 6 
#
# 1 0.026427 -0.006773 -0.010999 0.000000 0.000000 0.000000
# 2 -0.006773 0.014174 0.001930 0.000000 0.000000 0.000000
# 3 -0.010999 0.001930 0.021071 0.000000 0.000000 0.000000
# 4 0.000000 0.000000 0.000000 0.028364 0.000000 0.000000
# 5 0.000000 0.000000 0.000000 0.000000 0.031733 0.000000
# 6 0.000000 0.000000 0.000000 0.000000 0.000000 0.042310
#
#
# Mechanical properties :
#
#
# Convention : Reuss Voigt Hill
#
# Bulk Modulus (GPa) = 33.34637 33.64110 33.49373
# Shear Modulus (GPa) = 24.30037 27.60721 25.95379
#
# Velocity S-wave (km/s) = 3.50209 3.73278 3.61927
# Velocity P-wave (km/s) = 5.76048 5.96298 5.86260
#
# Compressibility (1/GPa) = 0.02998827
#
# Stress axis : x y z
#
# Youngs Moduli (GPa) = 37.84012 70.55083 47.45958
#
# Poissons Ratio (x) = 0.47786 0.52200
# Poissons Ratio (y) = 0.25630 -0.09161
# Poissons Ratio (z) = 0.41619 -0.13618
#
# Static dielectric constant tensor:
#      x y z
#    x 1.694230 0.000000 0.000000 
#    y 0.000000 1.714110 0.000000 
#    z 0.000000 0.000000 1.623680 
# 
# From -- ./inp_files/41793.got.cif
#   From: 2010.05.17/outbox.cif.g08.bks.cpg/sg64_21_cif.got.tgz:41793.got - 2010.06.03 16:29:19.
