data_PCOD9480314
_publ_section_title
;
Structure prediction by ZEFSAII (Michael W. Deem and Ramdas Pophale) SiO2 
 PCOD9480314
Probable space group: C M C A
;
_chemical_formula_sum "Si O2"
_cell_formula_units_Z 120
_cell_length_a 26.006424
_cell_length_b 22.837202
_cell_length_c 10.929177
_cell_angle_alpha 90.000000
_cell_angle_beta 90.000000
_cell_angle_gamma 90.000000
_cell_volume 6490.990772
_symmetry_space_group_name_H-M "C M C A"
_symmetry_group_IT_number 64
_symmetry_cell_setting 'orthorhombic'
loop_
_space_group_symop_operation_xyz
x,y,z
-x,1/2-y,1/2+z
x,-y,-z
-x,1/2+y,1/2-z
-x,-y,-z
x,1/2+y,1/2-z
-x,y,z
x,1/2-y,1/2+z
1/2+x,1/2+y,z
1/2-x,-y,1/2+z
1/2+x,1/2-y,-z
1/2-x,y,1/2-z
1/2-x,1/2-y,-z
1/2+x,y,1/2-z
1/2-x,1/2+y,z
1/2+x,-y,1/2+z
loop_
_atom_site_type_symbol
_atom_site_label
_atom_site_fract_x
_atom_site_fract_y
_atom_site_fract_z
Si Si1 0.773401 0.597452 0.924981
Si Si2 0.059499 0.578133 0.888559
Si Si3 0.559054 0.781826 0.118420
Si Si4 0.199015 0.500000 0.500000
Si Si5 0.886886 0.228909 0.355991
Si Si6 0.773559 0.222028 0.877402
Si Si7 0.153882 0.517937 0.761019
Si Si8 0.866413 0.400513 0.899560
O O1 0.736896 0.555751 0.005010
O O2 0.741192 0.653459 0.883262
O O3 0.801164 0.557891 0.821152
O O4 0.822096 0.617876 0.004776
O O5 0.060814 0.647875 0.865540
O O6 0.099135 0.546500 0.797012
O O7 0.000000 0.558673 0.883948
O O8 0.085633 0.573740 0.022837
O O9 0.500000 0.763114 0.113045
O O10 0.585068 0.754602 0.237720
O O11 0.584680 0.767148 0.987492
O O12 0.164988 0.510600 0.619049
O O13 0.833343 0.262901 0.371475
O O14 0.880188 0.159289 0.332531
O O15 0.750000 0.245633 0.750000
O O16 0.750000 0.250000 0.000000
O O17 0.154740 0.453731 0.820566
#
# Coordination Sequence:
#
# PCOD9480314 Si02
#       8
#    16  16  16   8  16  16  16  16
#     4  11  22  41  60  85 119 170 211 245 295 372
#     4   9  20  40  67  89 113 154 206 259 306 362
#     4  10  22  42  66  90 122 162 208 261 315 370
#     4  12  24  36  59  86 123 168 194 248 306 368
#     4  11  23  40  62  94 126 161 208 258 307 379
#     4  12  25  39  60  90 130 171 204 250 311 371
#     4  11  23  40  61  90 120 157 209 255 305 370
#     4  10  21  40  62  89 120 153 210 256 300 362
#
# _framework density 18.487162000000001
#
# number of rings (size 3 to 8) (size 9 to 14) (size 15 to 20)
#    0.000    1.333    2.667    3.600    5.600    3.733 
#    0.000    0.333    0.000    0.000    0.000    0.000 
#    0.000    0.000    0.000    0.000    0.000    0.000 
#
# Total GULP energy -334995.030573 kJ/mol
# GULP energy per Si atom -5583.250510 kJ/mol
# Density = 1.844508 g / cm^3
# Si number density = 18.487162 Si / 1000 Ang^3
#
#
#
# Elastic Constant Matrix: (Units=GPa)
#
#
# Indices 1 2 3 4 5 6 
#
# 1 140.3095 47.1408 48.0976 0.0000 0.0000 0.0000
# 2 47.1408 85.5136 50.3835 0.0000 0.0000 0.0000
# 3 48.0976 50.3835 104.9752 0.0000 0.0000 0.0000
# 4 0.0000 0.0000 0.0000 25.5900 0.0000 0.0000
# 5 0.0000 0.0000 0.0000 0.0000 25.3107 0.0000
# 6 0.0000 0.0000 0.0000 0.0000 0.0000 25.9300
#
#
#
# Elastic Compliance Matrix: (Units=1/GPa)
#
#
# Indices 1 2 3 4 5 6 
#
# 1 0.009188 -0.003604 -0.002480 0.000000 0.000000 0.000000
# 2 -0.003604 0.017718 -0.006853 0.000000 0.000000 0.000000
# 3 -0.002480 -0.006853 0.013951 0.000000 0.000000 0.000000
# 4 0.000000 0.000000 0.000000 0.039078 0.000000 0.000000
# 5 0.000000 0.000000 0.000000 0.000000 0.039509 0.000000
# 6 0.000000 0.000000 0.000000 0.000000 0.000000 0.038565
#
#
# Mechanical properties :
#
#
# Convention : Reuss Voigt Hill
#
# Bulk Modulus (GPa) = 66.73641 69.11580 67.92611
# Shear Modulus (GPa) = 26.47207 27.71122 27.09165
#
# Velocity S-wave (km/s) = 3.78817 3.87582 3.83225
# Velocity P-wave (km/s) = 7.43712 7.58263 7.51023
#
# Compressibility (1/GPa) = 0.01498432
#
# Stress axis : x y z
#
# Youngs Moduli (GPa) = 108.83657 56.43880 71.67721
#
# Poissons Ratio (x) = 0.20340 0.17777
# Poissons Ratio (y) = 0.39223 0.49119
# Poissons Ratio (z) = 0.26993 0.38676
#
# Static dielectric constant tensor:
#      x y z
#    x 1.648140 0.000000 0.000000 
#    y 0.000000 1.664120 0.000000 
#    z 0.000000 0.000000 1.651320 
# 
# From -- ./inp_files/18589.got.cif
#   From: 2010.05.17/outbox.cif.g08.bks.cpg/sg64_10_cif.got.tgz:18589.got - 2010.06.03 16:29:19.
