data_PCOD9480053
_publ_section_title
;
Structure prediction by ZEFSAII (Michael W. Deem and Ramdas Pophale) SiO2 
 PCOD9480053
Probable space group: C M C A
;
_chemical_formula_sum "Si O2"
_cell_formula_units_Z 72
_cell_length_a 25.734660
_cell_length_b 13.781251
_cell_length_c 8.516417
_cell_angle_alpha 90.000000
_cell_angle_beta 90.000000
_cell_angle_gamma 90.000000
_cell_volume 3020.396760
_symmetry_space_group_name_H-M "C M C A"
_symmetry_group_IT_number 64
_symmetry_cell_setting 'orthorhombic'
loop_
_space_group_symop_operation_xyz
x,y,z
-x,1/2-y,1/2+z
x,-y,-z
-x,1/2+y,1/2-z
-x,-y,-z
x,1/2+y,1/2-z
-x,y,z
x,1/2-y,1/2+z
1/2+x,1/2+y,z
1/2-x,-y,1/2+z
1/2+x,1/2-y,-z
1/2-x,y,1/2-z
1/2-x,1/2-y,-z
1/2+x,y,1/2-z
1/2-x,1/2+y,z
1/2+x,-y,1/2+z
loop_
_atom_site_type_symbol
_atom_site_label
_atom_site_fract_x
_atom_site_fract_y
_atom_site_fract_z
Si Si1 0.063615 0.394873 0.172714
Si Si2 0.588286 0.432199 0.864114
Si Si3 0.296393 0.609445 0.008563
Si Si4 0.940698 0.237993 0.959637
Si Si5 0.250000 0.234264 0.750000
O O1 0.083281 0.502087 0.211168
O O2 0.081065 0.327950 0.320714
O O3 0.083467 0.337968 0.019387
O O4 0.000000 0.399050 0.168363
O O5 0.646835 0.410502 0.918265
O O6 0.560213 0.330416 0.884419
O O7 0.563555 0.500000 0.000000
O O8 0.272964 0.690452 0.123914
O O9 0.272257 0.500000 0.000000
O O10 0.290335 0.662096 0.839298
O O11 0.000000 0.257480 0.919253
#
# Coordination Sequence:
#
# PCOD9480053 Si02
#       5
#    16  16  16  16   8
#     4   9  17  31  51  75 107 149 192 232 276 326
#     4   9  18  31  51  76 104 139 181 224 273 330
#     4  10  21  38  61  86 114 146 185 236 294 355
#     4   9  17  30  49  73 105 145 186 226 268 321
#     4  10  22  40  62  86 112 146 186 234 298 366
#
# _framework density 23.837927000000001
#
# number of rings (size 3 to 8) (size 9 to 14) (size 15 to 20)
#    0.000    2.667    0.000    1.333    0.000    8.000 
#    0.000    1.111    0.000   21.333    0.000    0.000 
#    0.000    0.000    0.000    0.000    0.000    0.000 
#
# Total GULP energy -200564.345987 kJ/mol
# GULP energy per Si atom -5571.231833 kJ/mol
# Density = 2.378367 g / cm^3
# Si number density = 23.837927 Si / 1000 Ang^3
#
#
#
# Elastic Constant Matrix: (Units=GPa)
#
#
# Indices 1 2 3 4 5 6 
#
# 1 58.4614 27.4082 14.5588 0.0000 0.0000 0.0000
# 2 27.4082 187.9525 89.2214 0.0000 0.0000 0.0000
# 3 14.5588 89.2214 67.4193 0.0000 0.0000 0.0000
# 4 0.0000 0.0000 0.0000 76.8382 0.0000 0.0000
# 5 0.0000 0.0000 0.0000 0.0000 -4.0156 0.0000
# 6 0.0000 0.0000 0.0000 0.0000 0.0000 32.4190
#
#
#
# Elastic Compliance Matrix: (Units=1/GPa)
#
#
# Indices 1 2 3 4 5 6 
#
# 1 0.018393 -0.002143 -0.001136 0.000000 0.000000 0.000000
# 2 -0.002143 0.014560 -0.018806 0.000000 0.000000 0.000000
# 3 -0.001136 -0.018806 0.039965 0.000000 0.000000 0.000000
# 4 0.000000 0.000000 0.000000 0.013014 0.000000 0.000000
# 5 0.000000 0.000000 0.000000 0.000000 -0.249028 0.000000
# 6 0.000000 0.000000 0.000000 0.000000 0.000000 0.030846
#
#
# Mechanical properties :
#
#
# Convention : Reuss Voigt Hill
#
# Bulk Modulus (GPa) = 34.78418 64.02333 49.40375
# Shear Modulus (GPa) = -63.69705 33.22465 -15.23620
#
# Velocity S-wave (km/s) = -5.17483 3.73738 -2.53090
# Velocity P-wave (km/s) = 4.59147 6.74834 3.49703
#
# Compressibility (1/GPa) = 0.02874870
#
# Stress axis : x y z
#
# Youngs Moduli (GPa) = 54.36901 68.68054 25.02177
#
# Poissons Ratio (x) = 0.14718 0.02842
# Poissons Ratio (y) = 0.11651 0.47056
# Poissons Ratio (z) = 0.06176 1.29160
#
# Static dielectric constant tensor:
#      x y z
#    x 1.887200 0.000000 0.000000 
#    y 0.000000 1.974220 0.000000 
#    z 0.000000 0.000000 2.008290 
# 
# From -- ./inp_files/19552.got.cif
#   From: 2010.05.17/outbox.cif.g08.bks.cpg/sg64_10_cif.got.tgz:19552.got - 2010.06.03 16:29:19.
