data_PCOD9480455
_publ_section_title
;
Structure prediction by ZEFSAII (Michael W. Deem and Ramdas Pophale) SiO2 
 PCOD9480455
Probable space group: C M C A
;
_chemical_formula_sum "Si O2"
_cell_formula_units_Z 80
_cell_length_a 20.581654
_cell_length_b 14.752396
_cell_length_c 9.829307
_cell_angle_alpha 90.000000
_cell_angle_beta 90.000000
_cell_angle_gamma 90.000000
_cell_volume 2984.459806
_symmetry_space_group_name_H-M "C M C A"
_symmetry_group_IT_number 64
_symmetry_cell_setting 'orthorhombic'
loop_
_space_group_symop_operation_xyz
x,y,z
-x,1/2-y,1/2+z
x,-y,-z
-x,1/2+y,1/2-z
-x,-y,-z
x,1/2+y,1/2-z
-x,y,z
x,1/2-y,1/2+z
1/2+x,1/2+y,z
1/2-x,-y,1/2+z
1/2+x,1/2-y,-z
1/2-x,y,1/2-z
1/2-x,1/2-y,-z
1/2+x,y,1/2-z
1/2-x,1/2+y,z
1/2+x,-y,1/2+z
loop_
_atom_site_type_symbol
_atom_site_label
_atom_site_fract_x
_atom_site_fract_y
_atom_site_fract_z
Si Si1 0.074782 0.816021 0.024060
Si Si2 0.793381 0.336945 0.613936
Si Si3 0.570586 0.627048 0.381310
Si Si4 0.808027 0.905753 0.431392
Si Si5 0.630269 0.015535 0.681552
O O1 0.135870 0.794276 0.922843
O O2 0.074894 0.736303 0.138641
O O3 0.091689 0.084820 0.914951
O O4 0.000000 0.816944 0.968496
O O5 0.750000 0.314363 0.750000
O O6 0.752602 0.161542 0.519094
O O7 0.817734 0.440722 0.635116
O O8 0.500000 0.610409 0.440187
O O9 0.625334 0.611710 0.490665
O O10 0.582790 0.552567 0.264854
O O11 0.789350 0.000000 0.500000
O O12 0.827007 0.918658 0.277044
#
# Coordination Sequence:
#
# PCOD9480455 Si02
#       5
#    16  16  16  16  16
#     4  11  27  46  72 111 151 197 251 309 374 447
#     4  12  24  45  71 105 146 197 250 306 369 442
#     4  10  23  44  68 103 151 194 243 305 371 446
#     4  10  21  41  67 101 139 191 245 305 370 435
#     4  11  24  43  75 105 144 193 249 308 378 449
#
# _framework density 26.805520999999999
#
# number of rings (size 3 to 8) (size 9 to 14) (size 15 to 20)
#    0.000    1.200    4.000    2.400    0.000    9.200 
#    0.000    4.000    0.000    0.000    0.000    0.000 
#    0.000    0.000    0.000    0.000    0.000    0.000 
#
# Total GULP energy -223319.683290 kJ/mol
# GULP energy per Si atom -5582.992082 kJ/mol
# Density = 2.674451 g / cm^3
# Si number density = 26.805521 Si / 1000 Ang^3
#
#
#
# Elastic Constant Matrix: (Units=GPa)
#
#
# Indices 1 2 3 4 5 6 
#
# 1 231.8691 30.0565 56.7297 0.0000 0.0000 0.0000
# 2 30.0565 146.4497 20.4251 0.0000 0.0000 0.0000
# 3 56.7297 20.4251 71.8403 0.0000 0.0000 0.0000
# 4 0.0000 0.0000 0.0000 51.7317 0.0000 0.0000
# 5 0.0000 0.0000 0.0000 0.0000 -334.9938 0.0000
# 6 0.0000 0.0000 0.0000 0.0000 0.0000 36.3990
#
#
#
# Elastic Compliance Matrix: (Units=1/GPa)
#
#
# Indices 1 2 3 4 5 6 
#
# 1 0.005385 -0.000533 -0.004101 0.000000 0.000000 0.000000
# 2 -0.000533 0.007163 -0.001615 0.000000 0.000000 0.000000
# 3 -0.004101 -0.001615 0.017617 0.000000 0.000000 0.000000
# 4 0.000000 0.000000 0.000000 0.019330 0.000000 0.000000
# 5 0.000000 0.000000 0.000000 0.000000 -0.002985 0.000000
# 6 0.000000 0.000000 0.000000 0.000000 0.000000 0.027473
#
#
# Mechanical properties :
#
#
# Convention : Reuss Voigt Hill
#
# Bulk Modulus (GPa) = 56.60456 73.84242 65.22349
# Shear Modulus (GPa) = 54.12872 -26.50943 13.80965
#
# Velocity S-wave (km/s) = 4.49855 -3.14818 2.27222
# Velocity P-wave (km/s) = 6.93868 3.79376 5.59186
#
# Compressibility (1/GPa) = 0.01766642
#
# Stress axis : x y z
#
# Youngs Moduli (GPa) = 185.69246 139.60567 56.76207
#
# Poissons Ratio (x) = 0.07445 0.23278
# Poissons Ratio (y) = 0.09903 0.09169
# Poissons Ratio (z) = 0.76151 0.22552
#
# Static dielectric constant tensor:
#      x y z
#    x 2.055020 0.000000 0.000000 
#    y 0.000000 2.378240 0.000000 
#    z 0.000000 0.000000 2.221150 
# 
# From -- ./inp_files/26444.got.cif
#   From: 2010.05.17/outbox.cif.g08.bks.cpg/sg64_14_cif.got.tgz:26444.got - 2010.06.03 16:29:19.
