data_PCOD9480427
_publ_section_title
;
Structure prediction by ZEFSAII (Michael W. Deem and Ramdas Pophale) SiO2 
 PCOD9480427
Probable space group: C M C A
;
_chemical_formula_sum "Si O2"
_cell_formula_units_Z 104
_cell_length_a 24.967349
_cell_length_b 9.675217
_cell_length_c 22.934368
_cell_angle_alpha 90.000000
_cell_angle_beta 90.000000
_cell_angle_gamma 90.000000
_cell_volume 5540.129586
_symmetry_space_group_name_H-M "C M C A"
_symmetry_group_IT_number 64
_symmetry_cell_setting 'orthorhombic'
loop_
_space_group_symop_operation_xyz
x,y,z
-x,1/2-y,1/2+z
x,-y,-z
-x,1/2+y,1/2-z
-x,-y,-z
x,1/2+y,1/2-z
-x,y,z
x,1/2-y,1/2+z
1/2+x,1/2+y,z
1/2-x,-y,1/2+z
1/2+x,1/2-y,-z
1/2-x,y,1/2-z
1/2-x,1/2-y,-z
1/2+x,y,1/2-z
1/2-x,1/2+y,z
1/2+x,-y,1/2+z
loop_
_atom_site_type_symbol
_atom_site_label
_atom_site_fract_x
_atom_site_fract_y
_atom_site_fract_z
Si Si1 0.179069 0.657973 0.730469
Si Si2 0.179402 0.633266 0.959383
Si Si3 0.500000 0.213417 0.793434
Si Si4 0.250000 0.410966 0.750000
Si Si5 0.201121 0.379780 0.454026
Si Si6 0.383032 0.204051 0.845687
Si Si7 0.385878 0.967724 0.360350
Si Si8 0.000000 0.036564 0.824933
O O1 0.214846 0.523117 0.714998
O O2 0.210200 0.801172 0.719339
O O3 0.159357 0.652286 0.797057
O O4 0.127249 0.636453 0.692247
O O5 0.238854 0.643098 0.929391
O O6 0.135550 0.649837 0.908786
O O7 0.172276 0.500000 0.000000
O O8 0.180870 0.753872 0.007122
O O9 0.444197 0.171326 0.826046
O O10 0.500000 0.382165 0.795537
O O11 0.500000 0.145046 0.728959
O O12 0.209856 0.500000 0.500000
O O13 0.155511 0.424197 0.409684
O O14 0.377664 0.370687 0.846148
O O15 0.448909 0.952048 0.366888
#
# Coordination Sequence:
#
# PCOD9480427 Si02
#       8
#    16  16   8   8  16  16  16   8
#     4  11  22  37  57  88 126 161 198 250 320 374
#     4  10  23  41  62  93 122 164 208 252 311 367
#     4  10  22  42  64  90 124 165 206 256 312 373
#     4  10  24  34  48  90 128 154 202 244 308 378
#     4  10  21  41  64  86 125 166 205 251 306 371
#     4  11  22  40  65  89 127 164 204 259 311 370
#     4  11  22  39  66  90 123 166 207 258 308 377
#     4  10  22  42  62  93 124 159 216 249 318 371
#
# _framework density 18.772124999999999
#
# number of rings (size 3 to 8) (size 9 to 14) (size 15 to 20)
#    0.000    1.538    4.615    0.000    4.308    1.231 
#    2.769    1.538    0.000    0.000    0.000    0.000 
#    0.000    0.000    0.000    0.000    0.000    0.000 
#
# Total GULP energy -289598.551066 kJ/mol
# GULP energy per Si atom -5569.202905 kJ/mol
# Density = 1.872940 g / cm^3
# Si number density = 18.772125 Si / 1000 Ang^3
#
#
#
# Elastic Constant Matrix: (Units=GPa)
#
#
# Indices 1 2 3 4 5 6 
#
# 1 115.4239 18.2130 43.0095 0.0000 0.0000 0.0000
# 2 18.2130 81.8490 10.0538 0.0000 0.0000 0.0000
# 3 43.0095 10.0538 55.6850 0.0000 0.0000 0.0000
# 4 0.0000 0.0000 0.0000 17.7183 0.0000 0.0000
# 5 0.0000 0.0000 0.0000 0.0000 32.0221 0.0000
# 6 0.0000 0.0000 0.0000 0.0000 0.0000 26.7978
#
#
#
# Elastic Compliance Matrix: (Units=1/GPa)
#
#
# Indices 1 2 3 4 5 6 
#
# 1 0.012370 -0.001615 -0.009263 0.000000 0.000000 0.000000
# 2 -0.001615 0.012706 -0.001047 0.000000 0.000000 0.000000
# 3 -0.009263 -0.001047 0.025301 0.000000 0.000000 0.000000
# 4 0.000000 0.000000 0.000000 0.056439 0.000000 0.000000
# 5 0.000000 0.000000 0.000000 0.000000 0.031228 0.000000
# 6 0.000000 0.000000 0.000000 0.000000 0.000000 0.037317
#
#
# Mechanical properties :
#
#
# Convention : Reuss Voigt Hill
#
# Bulk Modulus (GPa) = 37.69535 43.94560 40.82048
# Shear Modulus (GPa) = 24.03246 27.41974 25.72610
#
# Velocity S-wave (km/s) = 3.58190 3.82601 3.70596
# Velocity P-wave (km/s) = 6.10170 6.55581 6.33283
#
# Compressibility (1/GPa) = 0.02652847
#
# Stress axis : x y z
#
# Youngs Moduli (GPa) = 80.84073 78.70600 39.52357
#
# Poissons Ratio (x) = 0.12709 0.36609
# Poissons Ratio (y) = 0.13054 0.04137
# Poissons Ratio (z) = 0.74880 0.08238
#
# Static dielectric constant tensor:
#      x y z
#    x 1.727050 0.000000 0.000000 
#    y 0.000000 1.680850 0.000000 
#    z 0.000000 0.000000 1.657150 
# 
# From -- ./inp_files/41889.got.cif
#   From: 2010.05.17/outbox.cif.g08.bks.cpg/sg64_21_cif.got.tgz:41889.got - 2010.06.03 16:29:19.
