data_PCOD9480100
_publ_section_title
;
Structure prediction by ZEFSAII (Michael W. Deem and Ramdas Pophale) SiO2 
 PCOD9480100
Probable space group: C M C A
;
_chemical_formula_sum "Si O2"
_cell_formula_units_Z 68
_cell_length_a 15.187596
_cell_length_b 13.993440
_cell_length_c 14.184761
_cell_angle_alpha 90.000000
_cell_angle_beta 90.000000
_cell_angle_gamma 90.000000
_cell_volume 3014.640635
_symmetry_space_group_name_H-M "C M C A"
_symmetry_group_IT_number 64
_symmetry_cell_setting 'orthorhombic'
loop_
_space_group_symop_operation_xyz
x,y,z
-x,1/2-y,1/2+z
x,-y,-z
-x,1/2+y,1/2-z
-x,-y,-z
x,1/2+y,1/2-z
-x,y,z
x,1/2-y,1/2+z
1/2+x,1/2+y,z
1/2-x,-y,1/2+z
1/2+x,1/2-y,-z
1/2-x,y,1/2-z
1/2-x,1/2-y,-z
1/2+x,y,1/2-z
1/2-x,1/2+y,z
1/2+x,-y,1/2+z
loop_
_atom_site_type_symbol
_atom_site_label
_atom_site_fract_x
_atom_site_fract_y
_atom_site_fract_z
Si Si1 0.836233 0.402592 0.095228
Si Si2 0.500000 0.500000 0.500000
Si Si3 0.896629 0.992423 0.767660
Si Si4 0.138235 0.096077 0.950925
Si Si5 0.899451 0.203945 0.128196
O O1 0.840126 0.482660 0.176601
O O2 0.743725 0.403136 0.043121
O O3 0.845124 0.299201 0.143841
O O4 0.921300 0.423933 0.031747
O O5 0.887565 0.078761 0.842924
O O6 0.000000 0.986101 0.738527
O O7 0.871208 0.892722 0.817535
O O8 0.104571 0.180880 0.016115
O O9 0.103026 0.000000 0.000000
O O10 0.000000 0.221590 0.156185
#
# Coordination Sequence:
#
# PCOD9480100 Si02
#       5
#    16   4  16  16  16
#     4  12  22  43  60  93 126 164 207 253 312 371
#     4  12  24  40  64  84 130 168 194 258 312 364
#     4  10  21  40  62  87 121 158 204 257 305 363
#     4  10  21  38  63  89 122 160 202 257 309 366
#     4  10  21  40  64  91 123 161 209 253 309 374
#
# _framework density 22.556585999999999
#
# number of rings (size 3 to 8) (size 9 to 14) (size 15 to 20)
#    0.000    1.412    3.529    2.118    0.000    2.824 
#    4.235    4.706    0.000    0.000    0.000    0.000 
#    0.000    0.000    0.000    0.000    0.000    0.000 
#
# Total GULP energy -189392.692875 kJ/mol
# GULP energy per Si atom -5570.373320 kJ/mol
# Density = 2.250525 g / cm^3
# Si number density = 22.556586 Si / 1000 Ang^3
#
#
#
# Elastic Constant Matrix: (Units=GPa)
#
#
# Indices 1 2 3 4 5 6 
#
# 1 99.5784 8.7685 -5.2188 0.0000 0.0000 0.0000
# 2 8.7685 105.5677 14.4154 0.0000 0.0000 0.0000
# 3 -5.2188 14.4154 26.1195 0.0000 0.0000 0.0000
# 4 0.0000 0.0000 0.0000 29.3209 0.0000 0.0000
# 5 0.0000 0.0000 0.0000 0.0000 601.3727 0.0000
# 6 0.0000 0.0000 0.0000 0.0000 0.0000 9.0618
#
#
#
# Elastic Compliance Matrix: (Units=1/GPa)
#
#
# Indices 1 2 3 4 5 6 
#
# 1 0.010294 -0.001228 0.002735 0.000000 0.000000 0.000000
# 2 -0.001228 0.010391 -0.005980 0.000000 0.000000 0.000000
# 3 0.002735 -0.005980 0.042133 0.000000 0.000000 0.000000
# 4 0.000000 0.000000 0.000000 0.034105 0.000000 0.000000
# 5 0.000000 0.000000 0.000000 0.000000 0.001663 0.000000
# 6 0.000000 0.000000 0.000000 0.000000 0.000000 0.110353
#
#
# Mechanical properties :
#
#
# Convention : Reuss Voigt Hill
#
# Bulk Modulus (GPa) = 18.56342 29.68842 24.12592
# Shear Modulus (GPa) = 21.20048 142.17111 81.68580
#
# Velocity S-wave (km/s) = 3.06907 7.94767 6.02431
# Velocity P-wave (km/s) = 4.56142 9.86970 7.68822
#
# Compressibility (1/GPa) = 0.05386939
#
# Stress axis : x y z
#
# Youngs Moduli (GPa) = 97.14555 96.23470 23.73462
#
# Poissons Ratio (x) = 0.11822 -0.06491
# Poissons Ratio (y) = 0.11934 0.14194
# Poissons Ratio (z) = -0.26567 0.57552
#
# Static dielectric constant tensor:
#      x y z
#    x 1.791460 0.000000 0.000000 
#    y 0.000000 1.839700 0.000000 
#    z 0.000000 0.000000 1.912380 
# 
# From -- ./inp_files/25216.got.cif
#   From: 2010.05.17/outbox.cif.g08.bks.cpg/sg64_13_cif.got.tgz:25216.got - 2010.06.03 16:29:19.
