data_PCOD9480200
_publ_section_title
;
Structure prediction by ZEFSAII (Michael W. Deem and Ramdas Pophale) SiO2 
 PCOD9480200
Probable space group: C M C A
;
_chemical_formula_sum "Si O2"
_cell_formula_units_Z 116
_cell_length_a 7.639879
_cell_length_b 25.848971
_cell_length_c 26.710731
_cell_angle_alpha 90.000000
_cell_angle_beta 90.000000
_cell_angle_gamma 90.000000
_cell_volume 5274.915576
_symmetry_space_group_name_H-M "C M C A"
_symmetry_group_IT_number 64
_symmetry_cell_setting 'orthorhombic'
loop_
_space_group_symop_operation_xyz
x,y,z
-x,1/2-y,1/2+z
x,-y,-z
-x,1/2+y,1/2-z
-x,-y,-z
x,1/2+y,1/2-z
-x,y,z
x,1/2-y,1/2+z
1/2+x,1/2+y,z
1/2-x,-y,1/2+z
1/2+x,1/2-y,-z
1/2-x,y,1/2-z
1/2-x,1/2-y,-z
1/2+x,y,1/2-z
1/2-x,1/2+y,z
1/2+x,-y,1/2+z
loop_
_atom_site_type_symbol
_atom_site_label
_atom_site_fract_x
_atom_site_fract_y
_atom_site_fract_z
Si Si1 0.292029 0.703505 0.693762
Si Si2 0.293736 0.591836 0.994159
Si Si3 0.710437 0.405740 0.691926
Si Si4 0.303856 0.200277 0.468640
Si Si5 0.000000 0.000000 0.500000
Si Si6 0.295948 0.803964 0.859616
Si Si7 0.210053 0.479022 0.192039
Si Si8 0.214116 0.613217 0.879876
O O1 0.500000 0.706209 0.689645
O O2 0.250000 0.685750 0.750000
O O3 0.220432 0.760441 0.682697
O O4 0.229819 0.663883 0.651054
O O5 0.500000 0.579695 0.007105
O O6 0.285395 0.607271 0.935404
O O7 0.223304 0.643570 0.022598
O O8 0.156596 0.545303 0.002339
O O9 0.500000 0.406480 0.686506
O O10 0.750000 0.395702 0.750000
O O11 0.778148 0.358621 0.658996
O O12 0.777427 0.463297 0.680217
O O13 0.500000 0.190463 0.484980
O O14 0.250000 0.250000 0.500000
O O15 0.293183 0.214043 0.410414
O O16 0.500000 0.810316 0.871332
O O17 0.250000 0.467091 0.250000
O O18 0.270525 0.435639 0.153837
O O19 0.000000 0.480635 0.187829
O O20 0.000000 0.613286 0.882858
#
# Coordination Sequence:
#
# PCOD9480200 Si02
#       8
#    16  16  16  16   4  16  16  16
#     4  11  23  38  60  91 135 178 224 277 339 407
#     4  11  26  46  71 105 136 183 238 292 358 430
#     4   9  19  35  55  82 115 153 197 247 303 375
#     4  11  25  44  69  99 133 172 228 288 344 418
#     4  12  26  48  76  94 148 180 226 294 368 422
#     4  11  23  38  60  91 124 166 215 264 333 400
#     4   9  18  34  56  85 119 160 208 256 319 385
#     4  10  21  39  62  92 126 173 221 274 344 405
#
# _framework density 21.990873000000001
#
# number of rings (size 3 to 8) (size 9 to 14) (size 15 to 20)
#    0.000    1.655    0.690    3.103    1.931    7.172 
#    2.483    0.000    0.000    0.000    0.000    0.000 
#    0.000    0.000    0.000    0.000    0.000    0.000 
#
# Total GULP energy -323440.395225 kJ/mol
# GULP energy per Si atom -5576.558538 kJ/mol
# Density = 2.194082 g / cm^3
# Si number density = 21.990873 Si / 1000 Ang^3
#
#
#
# Elastic Constant Matrix: (Units=GPa)
#
#
# Indices 1 2 3 4 5 6 
#
# 1 85.5161 26.2767 -1.3316 0.0000 0.0000 0.0000
# 2 26.2767 91.5459 15.0825 0.0000 0.0000 0.0000
# 3 -1.3316 15.0825 29.7742 0.0000 0.0000 0.0000
# 4 0.0000 0.0000 0.0000 6.9494 0.0000 0.0000
# 5 0.0000 0.0000 0.0000 0.0000 22.5789 0.0000
# 6 0.0000 0.0000 0.0000 0.0000 0.0000 17.8428
#
#
#
# Elastic Compliance Matrix: (Units=1/GPa)
#
#
# Indices 1 2 3 4 5 6 
#
# 1 0.013021 -0.004182 0.002701 0.000000 0.000000 0.000000
# 2 -0.004182 0.013262 -0.006905 0.000000 0.000000 0.000000
# 3 0.002701 -0.006905 0.037205 0.000000 0.000000 0.000000
# 4 0.000000 0.000000 0.000000 0.143897 0.000000 0.000000
# 5 0.000000 0.000000 0.000000 0.000000 0.044289 0.000000
# 6 0.000000 0.000000 0.000000 0.000000 0.000000 0.056045
#
#
# Mechanical properties :
#
#
# Convention : Reuss Voigt Hill
#
# Bulk Modulus (GPa) = 21.40662 31.87683 26.64173
# Shear Modulus (GPa) = 14.70319 20.59479 17.64899
#
# Velocity S-wave (km/s) = 2.58854 3.06357 2.83602
# Velocity P-wave (km/s) = 4.32314 5.20009 4.78176
#
# Compressibility (1/GPa) = 0.04671451
#
# Stress axis : x y z
#
# Youngs Moduli (GPa) = 76.79953 75.40581 26.87838
#
# Poissons Ratio (x) = 0.31538 -0.07260
# Poissons Ratio (y) = 0.32121 0.18559
# Poissons Ratio (z) = -0.20744 0.52067
#
# Static dielectric constant tensor:
#      x y z
#    x 1.848000 0.000000 0.000000 
#    y 0.000000 1.887320 0.000000 
#    z 0.000000 0.000000 1.829300 
# 
# From -- ./inp_files/48607.got.cif
#   From: 2010.05.17/outbox.cif.g08.bks.cpg/sg64_25_cif.got.tgz:48607.got - 2010.06.03 16:29:19.
