data_PCOD9480829
_publ_section_title
;
Structure prediction by ZEFSAII (Michael W. Deem and Ramdas Pophale) SiO2 
 PCOD9480829
Probable space group: C M C A
;
_chemical_formula_sum "Si O2"
_cell_formula_units_Z 88
_cell_length_a 28.910291
_cell_length_b 16.287454
_cell_length_c 8.756320
_cell_angle_alpha 90.000000
_cell_angle_beta 90.000000
_cell_angle_gamma 90.000000
_cell_volume 4123.132485
_symmetry_space_group_name_H-M "C M C A"
_symmetry_group_IT_number 64
_symmetry_cell_setting 'orthorhombic'
loop_
_space_group_symop_operation_xyz
x,y,z
-x,1/2-y,1/2+z
x,-y,-z
-x,1/2+y,1/2-z
-x,-y,-z
x,1/2+y,1/2-z
-x,y,z
x,1/2-y,1/2+z
1/2+x,1/2+y,z
1/2-x,-y,1/2+z
1/2+x,1/2-y,-z
1/2-x,y,1/2-z
1/2-x,1/2-y,-z
1/2+x,y,1/2-z
1/2-x,1/2+y,z
1/2+x,-y,1/2+z
loop_
_atom_site_type_symbol
_atom_site_label
_atom_site_fract_x
_atom_site_fract_y
_atom_site_fract_z
Si Si1 0.869660 0.874202 0.538837
Si Si2 0.632760 0.482880 0.237687
Si Si3 0.233128 0.333162 0.922275
Si Si4 0.553198 0.375968 0.092727
Si Si5 0.784740 0.000000 0.000000
Si Si6 0.947143 0.766631 0.393216
O O1 0.859253 0.924129 0.383066
O O2 0.822095 0.830449 0.577624
O O3 0.911180 0.815786 0.495244
O O4 0.881742 0.933541 0.678808
O O5 0.592251 0.441725 0.136544
O O6 0.679888 0.495432 0.143335
O O7 0.250000 0.334264 0.750000
O O8 0.253544 0.417726 0.994223
O O9 0.250000 0.250000 0.000000
O O10 0.500000 0.407191 0.098926
O O11 0.560801 0.329068 0.932337
O O12 0.556811 0.304905 0.224183
O O13 0.000000 0.782575 0.441625
#
# Coordination Sequence:
#
# PCOD9480829 Si02
#       6
#    16  16  16  16   8  16
#     4  10  22  41  63  90 126 168 219 264 328 389
#     4  10  22  40  64  89 124 173 211 272 325 389
#     4  12  29  45  69 101 132 178 224 274 336 399
#     4   9  19  36  60  91 126 167 213 265 328 393
#     4  12  26  46  67  94 139 168 224 276 338 390
#     4   9  19  35  59  90 126 165 208 266 323 385
#
# _framework density 21.342994999999998
#
# number of rings (size 3 to 8) (size 9 to 14) (size 15 to 20)
#    0.000    1.818    1.818    1.091    5.091    3.636 
#    0.000    4.091    0.000    0.000    0.000    0.000 
#    0.000    0.000    0.000    0.000    0.000    0.000 
#
# Total GULP energy -245796.660634 kJ/mol
# GULP energy per Si atom -5586.287742 kJ/mol
# Density = 2.129442 g / cm^3
# Si number density = 21.342995 Si / 1000 Ang^3
#
#
#
# Elastic Constant Matrix: (Units=GPa)
#
#
# Indices 1 2 3 4 5 6 
#
# 1 82.7109 44.9729 36.8192 0.0000 0.0000 0.0000
# 2 44.9729 93.9916 36.6319 0.0000 0.0000 0.0000
# 3 36.8192 36.6319 69.1667 0.0000 0.0000 0.0000
# 4 0.0000 0.0000 0.0000 44.5134 0.0000 0.0000
# 5 0.0000 0.0000 0.0000 0.0000 23.9994 0.0000
# 6 0.0000 0.0000 0.0000 0.0000 0.0000 25.6403
#
#
#
# Elastic Compliance Matrix: (Units=1/GPa)
#
#
# Indices 1 2 3 4 5 6 
#
# 1 0.018378 -0.006276 -0.006459 0.000000 0.000000 0.000000
# 2 -0.006276 0.015550 -0.004894 0.000000 0.000000 0.000000
# 3 -0.006459 -0.004894 0.020488 0.000000 0.000000 0.000000
# 4 0.000000 0.000000 0.000000 0.022465 0.000000 0.000000
# 5 0.000000 0.000000 0.000000 0.000000 0.041668 0.000000
# 6 0.000000 0.000000 0.000000 0.000000 0.000000 0.039001
#
#
# Mechanical properties :
#
#
# Convention : Reuss Voigt Hill
#
# Bulk Modulus (GPa) = 52.20105 53.63525 52.91815
# Shear Modulus (GPa) = 25.10094 27.32698 26.21396
#
# Velocity S-wave (km/s) = 3.43311 3.58211 3.50840
# Velocity P-wave (km/s) = 6.34242 6.50334 6.42338
#
# Compressibility (1/GPa) = 0.01915670
#
# Stress axis : x y z
#
# Youngs Moduli (GPa) = 54.41210 64.30944 48.80803
#
# Poissons Ratio (x) = 0.40362 0.31526
# Poissons Ratio (y) = 0.34150 0.23889
# Poissons Ratio (z) = 0.35146 0.31476
#
# Static dielectric constant tensor:
#      x y z
#    x 1.633240 0.000000 0.000000 
#    y 0.000000 1.749310 0.000000 
#    z 0.000000 0.000000 1.797230 
# 
# From -- ./inp_files/11092.got.cif
#   From: 2010.05.17/outbox.cif.g08.bks.cpg/sg64_6_cif.got.tgz:11092.got - 2010.06.03 16:29:19.
