data_PCOD9480907
_publ_section_title
;
Structure prediction by ZEFSAII (Michael W. Deem and Ramdas Pophale) SiO2 
 PCOD9480907
Probable space group: C M C A
;
_chemical_formula_sum "Si O2"
_cell_formula_units_Z 88
_cell_length_a 19.968303
_cell_length_b 10.939012
_cell_length_c 17.141497
_cell_angle_alpha 90.000000
_cell_angle_beta 90.000000
_cell_angle_gamma 90.000000
_cell_volume 3744.277290
_symmetry_space_group_name_H-M "C M C A"
_symmetry_group_IT_number 64
_symmetry_cell_setting 'orthorhombic'
loop_
_space_group_symop_operation_xyz
x,y,z
-x,1/2-y,1/2+z
x,-y,-z
-x,1/2+y,1/2-z
-x,-y,-z
x,1/2+y,1/2-z
-x,y,z
x,1/2-y,1/2+z
1/2+x,1/2+y,z
1/2-x,-y,1/2+z
1/2+x,1/2-y,-z
1/2-x,y,1/2-z
1/2-x,1/2-y,-z
1/2+x,y,1/2-z
1/2-x,1/2+y,z
1/2+x,-y,1/2+z
loop_
_atom_site_type_symbol
_atom_site_label
_atom_site_fract_x
_atom_site_fract_y
_atom_site_fract_z
Si Si1 0.858893 0.396407 0.673587
Si Si2 0.000000 0.844234 0.085862
Si Si3 0.118540 0.000000 0.500000
Si Si4 0.144647 0.890967 0.056941
Si Si5 0.000000 0.433503 0.708386
Si Si6 0.250000 0.481222 0.250000
Si Si7 0.283692 0.677782 0.595994
Si Si8 0.500000 0.572949 0.381972
O O1 0.862995 0.532713 0.636962
O O2 0.811824 0.424102 0.745718
O O3 0.821880 0.301550 0.617977
O O4 0.932845 0.356922 0.695055
O O5 0.069675 0.846066 0.037207
O O6 0.000000 0.718435 0.132314
O O7 0.000000 0.960696 0.142619
O O8 0.167986 0.097575 0.540953
O O9 0.066405 0.043899 0.432569
O O10 0.208100 0.803192 0.063411
O O11 0.164374 0.000000 0.000000
O O12 0.000000 0.485934 0.796185
O O13 0.268841 0.397184 0.323844
#
# Coordination Sequence:
#
# PCOD9480907 Si02
#       8
#    16   8   8  16   8   8  16   8
#     4  10  23  39  67  95 127 175 222 276 334 390
#     4  10  24  43  70  95 131 181 226 284 338 395
#     4  11  26  44  62 103 134 174 224 281 340 426
#     4  10  22  41  63  99 133 171 227 271 329 419
#     4  10  23  45  66 100 128 173 238 282 324 417
#     4  10  22  42  64  98 128 172 228 274 318 416
#     4  11  23  42  68  95 139 174 218 283 348 396
#     4  11  26  44  68  94 139 180 223 278 355 403
#
# _framework density 23.502534000000001
#
# number of rings (size 3 to 8) (size 9 to 14) (size 15 to 20)
#    0.000    1.636    0.909    1.909    2.545   12.364 
#    0.000    0.000    0.000    0.000    0.000    0.000 
#    0.000    0.000    0.000    0.000    0.000    0.000 
#
# Total GULP energy -245591.184032 kJ/mol
# GULP energy per Si atom -5581.617819 kJ/mol
# Density = 2.344904 g / cm^3
# Si number density = 23.502534 Si / 1000 Ang^3
#
#
#
# Elastic Constant Matrix: (Units=GPa)
#
#
# Indices 1 2 3 4 5 6 
#
# 1 249.1082 61.3703 48.8189 0.0000 0.0000 0.0000
# 2 61.3703 66.4889 6.0296 0.0000 0.0000 0.0000
# 3 48.8189 6.0296 61.5608 0.0000 0.0000 0.0000
# 4 0.0000 0.0000 0.0000 34.2676 0.0000 0.0000
# 5 0.0000 0.0000 0.0000 0.0000 29.7189 0.0000
# 6 0.0000 0.0000 0.0000 0.0000 0.0000 14.0122
#
#
#
# Elastic Compliance Matrix: (Units=1/GPa)
#
#
# Indices 1 2 3 4 5 6 
#
# 1 0.006180 -0.005307 -0.004381 0.000000 0.000000 0.000000
# 2 -0.005307 0.019732 0.002276 0.000000 0.000000 0.000000
# 3 -0.004381 0.002276 0.019496 0.000000 0.000000 0.000000
# 4 0.000000 0.000000 0.000000 0.029182 0.000000 0.000000
# 5 0.000000 0.000000 0.000000 0.000000 0.033649 0.000000
# 6 0.000000 0.000000 0.000000 0.000000 0.000000 0.071366
#
#
# Mechanical properties :
#
#
# Convention : Reuss Voigt Hill
#
# Bulk Modulus (GPa) = 32.69752 67.73283 50.21518
# Shear Modulus (GPa) = 24.43489 32.99570 28.71529
#
# Velocity S-wave (km/s) = 3.22789 3.75096 3.49921
# Velocity P-wave (km/s) = 5.27588 6.90228 6.14314
#
# Compressibility (1/GPa) = 0.03058336
#
# Stress axis : x y z
#
# Youngs Moduli (GPa) = 161.79968 50.67794 51.29340
#
# Poissons Ratio (x) = 0.26897 0.22474
# Poissons Ratio (y) = 0.85873 -0.11675
# Poissons Ratio (z) = 0.70891 -0.11535
#
# Static dielectric constant tensor:
#      x y z
#    x 1.965970 0.000000 0.000000 
#    y 0.000000 1.886260 0.000000 
#    z 0.000000 0.000000 1.961040 
# 
# From -- ./inp_files/40108.got.cif
#   From: 2010.05.17/outbox.cif.g08.bks.cpg/sg64_21_cif.got.tgz:40108.got - 2010.06.03 16:29:19.
