data_PCOD9480485
_publ_section_title
;
Structure prediction by ZEFSAII (Michael W. Deem and Ramdas Pophale) SiO2 
 PCOD9480485
Probable space group: C M C A
;
_chemical_formula_sum "Si O2"
_cell_formula_units_Z 88
_cell_length_a 28.130663
_cell_length_b 17.024928
_cell_length_c 8.253674
_cell_angle_alpha 90.000000
_cell_angle_beta 90.000000
_cell_angle_gamma 90.000000
_cell_volume 3952.870287
_symmetry_space_group_name_H-M "C M C A"
_symmetry_group_IT_number 64
_symmetry_cell_setting 'orthorhombic'
loop_
_space_group_symop_operation_xyz
x,y,z
-x,1/2-y,1/2+z
x,-y,-z
-x,1/2+y,1/2-z
-x,-y,-z
x,1/2+y,1/2-z
-x,y,z
x,1/2-y,1/2+z
1/2+x,1/2+y,z
1/2-x,-y,1/2+z
1/2+x,1/2-y,-z
1/2-x,y,1/2-z
1/2-x,1/2-y,-z
1/2+x,y,1/2-z
1/2-x,1/2+y,z
1/2+x,-y,1/2+z
loop_
_atom_site_type_symbol
_atom_site_label
_atom_site_fract_x
_atom_site_fract_y
_atom_site_fract_z
Si Si1 0.780612 0.650138 0.005072
Si Si2 0.163053 0.500000 0.000000
Si Si3 0.813346 0.688958 0.641151
Si Si4 0.500000 0.378931 0.597976
Si Si5 0.416059 0.371970 0.044817
Si Si6 0.000000 0.230706 0.084567
Si Si7 0.918900 0.514720 0.242338
O O1 0.803376 0.569567 0.055930
O O2 0.800191 0.666634 0.823766
O O3 0.723911 0.648365 0.983012
O O4 0.800058 0.719939 0.115824
O O5 0.127156 0.485350 0.147235
O O6 0.867247 0.666641 0.604719
O O7 0.500000 0.324864 0.437744
O O8 0.544953 0.436072 0.629085
O O9 0.500000 0.312285 0.740430
O O10 0.453474 0.304796 0.001871
O O11 0.437654 0.436249 0.169360
O O12 0.406228 0.423389 0.883682
#
# Coordination Sequence:
#
# PCOD9480485 Si02
#       7
#    16   8  16   8  16   8  16
#     4  10  24  42  63  96 128 166 216 264 317 384
#     4  12  24  41  62 100 128 163 214 274 306 392
#     4  10  22  44  65  90 129 170 210 262 323 378
#     4  10  23  42  60  94 126 167 212 261 322 380
#     4  10  21  42  64  89 122 174 209 258 317 386
#     4  10  23  37  64  94 122 162 220 256 307 388
#     4  10  23  40  62  90 126 167 209 261 326 365
#
# _framework density 22.262302999999999
#
# number of rings (size 3 to 8) (size 9 to 14) (size 15 to 20)
#    0.000    1.818    1.818    0.545    5.091    6.909 
#    0.000    0.000    0.000    0.000    0.000    0.000 
#    0.000    0.000    0.000    0.000    0.000    0.000 
#
# Total GULP energy -245898.754025 kJ/mol
# GULP energy per Si atom -5588.608046 kJ/mol
# Density = 2.221163 g / cm^3
# Si number density = 22.262303 Si / 1000 Ang^3
#
#
#
# Elastic Constant Matrix: (Units=GPa)
#
#
# Indices 1 2 3 4 5 6 
#
# 1 106.5309 18.1796 5.0204 0.0000 0.0000 0.0000
# 2 18.1796 31.7799 7.8059 0.0000 0.0000 0.0000
# 3 5.0204 7.8059 32.8684 0.0000 0.0000 0.0000
# 4 0.0000 0.0000 0.0000 35.3431 0.0000 0.0000
# 5 0.0000 0.0000 0.0000 0.0000 9.3981 0.0000
# 6 0.0000 0.0000 0.0000 0.0000 0.0000 -205.5553
#
#
#
# Elastic Compliance Matrix: (Units=1/GPa)
#
#
# Indices 1 2 3 4 5 6 
#
# 1 0.010404 -0.005905 -0.000187 0.000000 0.000000 0.000000
# 2 -0.005905 0.036768 -0.007830 0.000000 0.000000 0.000000
# 3 -0.000187 -0.007830 0.032312 0.000000 0.000000 0.000000
# 4 0.000000 0.000000 0.000000 0.028294 0.000000 0.000000
# 5 0.000000 0.000000 0.000000 0.000000 0.106405 0.000000
# 6 0.000000 0.000000 0.000000 0.000000 0.000000 -0.004865
#
#
# Mechanical properties :
#
#
# Convention : Reuss Voigt Hill
#
# Bulk Modulus (GPa) = 19.36492 25.91011 22.63751
# Shear Modulus (GPa) = 19.65599 -22.81795 -1.58098
#
# Velocity S-wave (km/s) = 2.97463 -3.20497 -0.84362
# Velocity P-wave (km/s) = 4.52938 1.42547 3.04001
#
# Compressibility (1/GPa) = 0.05163977
#
# Stress axis : x y z
#
# Youngs Moduli (GPa) = 96.12132 27.19761 30.94782
#
# Poissons Ratio (x) = 0.16062 0.00577
# Poissons Ratio (y) = 0.56764 0.24232
# Poissons Ratio (z) = 0.01793 0.21296
#
# Static dielectric constant tensor:
#      x y z
#    x 1.785500 0.000000 0.000000 
#    y 0.000000 1.788680 0.000000 
#    z 0.000000 0.000000 1.869910 
# 
# From -- ./inp_files/11114.got.cif
#   From: 2010.05.17/outbox.cif.g08.bks.cpg/sg64_6_cif.got.tgz:11114.got - 2010.06.03 16:29:19.
