data_PCOD9480303
_publ_section_title
;
Structure prediction by ZEFSAII (Michael W. Deem and Ramdas Pophale) SiO2 
 PCOD9480303
Probable space group: C M C A
;
_chemical_formula_sum "Si O2"
_cell_formula_units_Z 96
_cell_length_a 8.366752
_cell_length_b 20.593797
_cell_length_c 28.852403
_cell_angle_alpha 90.000000
_cell_angle_beta 90.000000
_cell_angle_gamma 90.000000
_cell_volume 4971.361141
_symmetry_space_group_name_H-M "C M C A"
_symmetry_group_IT_number 64
_symmetry_cell_setting 'orthorhombic'
loop_
_space_group_symop_operation_xyz
x,y,z
-x,1/2-y,1/2+z
x,-y,-z
-x,1/2+y,1/2-z
-x,-y,-z
x,1/2+y,1/2-z
-x,y,z
x,1/2-y,1/2+z
1/2+x,1/2+y,z
1/2-x,-y,1/2+z
1/2+x,1/2-y,-z
1/2-x,y,1/2-z
1/2-x,1/2-y,-z
1/2+x,y,1/2-z
1/2-x,1/2+y,z
1/2+x,-y,1/2+z
loop_
_atom_site_type_symbol
_atom_site_label
_atom_site_fract_x
_atom_site_fract_y
_atom_site_fract_z
Si Si1 0.306141 0.482993 0.900403
Si Si2 0.311171 0.267958 0.393817
Si Si3 0.692608 0.200050 0.299951
Si Si4 0.686614 0.352425 0.550947
Si Si5 0.188531 0.614571 0.549546
Si Si6 0.692168 0.950401 0.700219
O O1 0.500000 0.479032 0.901902
O O2 0.238065 0.417013 0.921664
O O3 0.257493 0.545215 0.930371
O O4 0.257633 0.487354 0.846381
O O5 0.500000 0.282356 0.391489
O O6 0.254529 0.242180 0.343745
O O7 0.283480 0.208636 0.429334
O O8 0.219464 0.330440 0.412301
O O9 0.500000 0.199008 0.300732
O O10 0.750000 0.224040 0.250000
O O11 0.747273 0.124902 0.304657
O O12 0.500000 0.339284 0.557912
O O13 0.722332 0.365033 0.497136
O O14 0.000000 0.610123 0.538946
O O15 0.500000 0.949828 0.701197
O O16 0.750000 0.975177 0.750000
#
# Coordination Sequence:
#
# PCOD9480303 Si02
#       6
#    16  16  16  16  16  16
#     4  10  21  40  61  83 116 154 190 232 285 340
#     4  11  22  40  61  84 117 153 191 237 286 337
#     4   9  18  33  57  84 112 144 184 233 281 334
#     4  12  24  38  60  87 114 148 195 242 283 337
#     4  11  24  40  59  83 116 156 193 234 287 344
#     4   9  17  33  56  84 112 143 185 230 280 333
#
# _framework density 19.310606
#
# number of rings (size 3 to 8) (size 9 to 14) (size 15 to 20)
#    0.000    1.667    1.667    3.500    0.000    5.333 
#    0.000    0.833    0.000    4.000    0.000    0.000 
#    0.000    0.000    0.000    0.000    0.000    0.000 
#
# Total GULP energy -268177.851141 kJ/mol
# GULP energy per Si atom -5587.038565 kJ/mol
# Density = 1.926665 g / cm^3
# Si number density = 19.310606 Si / 1000 Ang^3
#
#
#
# Elastic Constant Matrix: (Units=GPa)
#
#
# Indices 1 2 3 4 5 6 
#
# 1 8.6607 -4.2097 0.1032 0.0000 0.0000 0.0000
# 2 -4.2097 26.1416 -24.5219 0.0000 0.0000 0.0000
# 3 0.1032 -24.5219 77.1695 0.0000 0.0000 0.0000
# 4 0.0000 0.0000 0.0000 -6.7028 0.0000 0.0000
# 5 0.0000 0.0000 0.0000 0.0000 32.3765 0.0000
# 6 0.0000 0.0000 0.0000 0.0000 0.0000 9.5189
#
#
#
# Elastic Compliance Matrix: (Units=1/GPa)
#
#
# Indices 1 2 3 4 5 6 
#
# 1 0.129705 0.029525 0.009209 0.000000 0.000000 0.000000
# 2 0.029525 0.061219 0.019414 0.000000 0.000000 0.000000
# 3 0.009209 0.019414 0.019115 0.000000 0.000000 0.000000
# 4 0.000000 0.000000 0.000000 -0.149192 0.000000 0.000000
# 5 0.000000 0.000000 0.000000 0.000000 0.030887 0.000000
# 6 0.000000 0.000000 0.000000 0.000000 0.000000 0.105054
#
#
# Mechanical properties :
#
#
# Convention : Reuss Voigt Hill
#
# Bulk Modulus (GPa) = 3.06434 6.07944 4.57189
# Shear Modulus (GPa) = 26.41720 16.41188 21.41454
#
# Velocity S-wave (km/s) = 3.70268 2.91845 3.33371
# Velocity P-wave (km/s) = 4.45759 3.80940 4.14618
#
# Compressibility (1/GPa) = 0.32633455
#
# Stress axis : x y z
#
# Youngs Moduli (GPa) = 7.70980 16.33484 52.31425
#
# Poissons Ratio (x) = -0.48229 -0.48174
# Poissons Ratio (y) = -0.22763 -1.01562
# Poissons Ratio (z) = -0.07100 -0.31712
#
# Static dielectric constant tensor:
#      x y z
#    x 1.669580 0.000000 0.000000 
#    y 0.000000 1.643040 0.000000 
#    z 0.000000 0.000000 1.680410 
# 
# From -- ./inp_files/48077.got.cif
#   From: 2010.05.17/outbox.cif.g08.bks.cpg/sg64_25_cif.got.tgz:48077.got - 2010.06.03 16:29:19.
