data_PCOD9480944
_publ_section_title
;
Structure prediction by ZEFSAII (Michael W. Deem and Ramdas Pophale) SiO2 
 PCOD9480944
Probable space group: C M C A
;
_chemical_formula_sum "Si O2"
_cell_formula_units_Z 96
_cell_length_a 15.106593
_cell_length_b 11.538585
_cell_length_c 24.953193
_cell_angle_alpha 90.000000
_cell_angle_beta 90.000000
_cell_angle_gamma 90.000000
_cell_volume 4349.558817
_symmetry_space_group_name_H-M "C M C A"
_symmetry_group_IT_number 64
_symmetry_cell_setting 'orthorhombic'
loop_
_space_group_symop_operation_xyz
x,y,z
-x,1/2-y,1/2+z
x,-y,-z
-x,1/2+y,1/2-z
-x,-y,-z
x,1/2+y,1/2-z
-x,y,z
x,1/2-y,1/2+z
1/2+x,1/2+y,z
1/2-x,-y,1/2+z
1/2+x,1/2-y,-z
1/2-x,y,1/2-z
1/2-x,1/2-y,-z
1/2+x,y,1/2-z
1/2-x,1/2+y,z
1/2+x,-y,1/2+z
loop_
_atom_site_type_symbol
_atom_site_label
_atom_site_fract_x
_atom_site_fract_y
_atom_site_fract_z
Si Si1 0.343684 0.498716 0.384826
Si Si2 0.894157 0.714106 0.955488
Si Si3 0.600058 0.763451 0.925474
Si Si4 0.101015 0.625735 0.672475
Si Si5 0.106743 0.671318 0.791832
Si Si6 0.343928 0.117079 0.362447
O O1 0.347331 0.396509 0.428611
O O2 0.402428 0.604581 0.405829
O O3 0.375077 0.438913 0.329825
O O4 0.249950 0.559322 0.375001
O O5 0.880369 0.822606 0.916118
O O6 0.000000 0.688227 0.957746
O O7 0.860246 0.738967 0.015284
O O8 0.500000 0.716671 0.932029
O O9 0.645189 0.690391 0.877968
O O10 0.138165 0.649878 0.731246
O O11 0.100515 0.490335 0.659897
O O12 0.000000 0.670089 0.674963
O O13 0.154019 0.781299 0.818540
O O14 0.000000 0.691126 0.793075
#
# Coordination Sequence:
#
# PCOD9480944 Si02
#       6
#    16  16  16  16  16  16
#     4  11  23  39  64  99 130 168 214 268 326 384
#     4  10  22  45  71  92 127 178 222 265 319 390
#     4  10  22  41  67  97 127 167 226 273 313 382
#     4  10  23  42  66  95 126 169 223 270 318 386
#     4  10  23  45  70  91 126 179 224 264 319 392
#     4  11  24  41  63  96 134 168 211 266 336 392
#
# _framework density 22.071204000000002
#
# number of rings (size 3 to 8) (size 9 to 14) (size 15 to 20)
#    0.000    1.667    0.000    4.500    7.000    3.333 
#    3.000    2.500    0.000    0.000    0.000    0.000 
#    0.000    0.000    0.000    0.000    0.000    0.000 
#
# Total GULP energy -268262.466957 kJ/mol
# GULP energy per Si atom -5588.801395 kJ/mol
# Density = 2.202097 g / cm^3
# Si number density = 22.071204 Si / 1000 Ang^3
#
#
#
# Elastic Constant Matrix: (Units=GPa)
#
#
# Indices 1 2 3 4 5 6 
#
# 1 76.1709 11.2205 14.2553 0.0000 0.0000 0.0000
# 2 11.2205 111.1052 113.8517 0.0000 0.0000 0.0000
# 3 14.2553 113.8517 222.1753 0.0000 0.0000 0.0000
# 4 0.0000 0.0000 0.0000 19.2002 0.0000 0.0000
# 5 0.0000 0.0000 0.0000 0.0000 277.9332 0.0000
# 6 0.0000 0.0000 0.0000 0.0000 0.0000 37.5621
#
#
#
# Elastic Compliance Matrix: (Units=1/GPa)
#
#
# Indices 1 2 3 4 5 6 
#
# 1 0.013339 -0.000990 -0.000349 0.000000 0.000000 0.000000
# 2 -0.000990 0.019026 -0.009686 0.000000 0.000000 0.000000
# 3 -0.000349 -0.009686 0.009487 0.000000 0.000000 0.000000
# 4 0.000000 0.000000 0.000000 0.052083 0.000000 0.000000
# 5 0.000000 0.000000 0.000000 0.000000 0.003598 0.000000
# 6 0.000000 0.000000 0.000000 0.000000 0.000000 0.026623
#
#
# Mechanical properties :
#
#
# Convention : Reuss Voigt Hill
#
# Bulk Modulus (GPa) = 50.49746 76.45626 63.47686
# Shear Modulus (GPa) = 32.72112 84.94735 58.83424
#
# Velocity S-wave (km/s) = 3.85453 6.21059 5.16860
# Velocity P-wave (km/s) = 6.53750 9.28141 8.02756
#
# Compressibility (1/GPa) = 0.01980297
#
# Stress axis : x y z
#
# Youngs Moduli (GPa) = 74.96566 52.55921 105.40787
#
# Poissons Ratio (x) = 0.05203 0.03675
# Poissons Ratio (y) = 0.07421 1.02101
# Poissons Ratio (z) = 0.02614 0.50910
#
# Static dielectric constant tensor:
#      x y z
#    x 1.884210 0.000000 0.000000 
#    y 0.000000 1.757850 0.000000 
#    z 0.000000 0.000000 1.820800 
# 
# From -- ./inp_files/45731.got.cif
#   From: 2010.05.17/outbox.cif.g08.bks.cpg/sg64_23_cif.got.tgz:45731.got - 2010.06.03 16:29:19.
