data_PCOD9480317
_publ_section_title
;
Structure prediction by ZEFSAII (Michael W. Deem and Ramdas Pophale) SiO2 
 PCOD9480317
Probable space group: C M C A
;
_chemical_formula_sum "Si O2"
_cell_formula_units_Z 56
_cell_length_a 27.091624
_cell_length_b 5.574029
_cell_length_c 16.046330
_cell_angle_alpha 90.000000
_cell_angle_beta 90.000000
_cell_angle_gamma 90.000000
_cell_volume 2423.148235
_symmetry_space_group_name_H-M "C M C A"
_symmetry_group_IT_number 64
_symmetry_cell_setting 'orthorhombic'
loop_
_space_group_symop_operation_xyz
x,y,z
-x,1/2-y,1/2+z
x,-y,-z
-x,1/2+y,1/2-z
-x,-y,-z
x,1/2+y,1/2-z
-x,y,z
x,1/2-y,1/2+z
1/2+x,1/2+y,z
1/2-x,-y,1/2+z
1/2+x,1/2-y,-z
1/2-x,y,1/2-z
1/2-x,1/2-y,-z
1/2+x,y,1/2-z
1/2-x,1/2+y,z
1/2+x,-y,1/2+z
loop_
_atom_site_type_symbol
_atom_site_label
_atom_site_fract_x
_atom_site_fract_y
_atom_site_fract_z
Si Si1 0.320492 0.250178 0.474587
Si Si2 0.692045 0.820365 0.719607
Si Si3 0.000000 0.749734 0.197882
Si Si4 0.068747 0.250040 0.957401
O O1 0.297880 0.500000 0.500000
O O2 0.319028 0.245794 0.375249
O O3 0.372611 0.250377 0.525061
O O4 0.297818 0.000000 0.500000
O O5 0.671400 0.588102 0.767625
O O6 0.750000 0.837665 0.750000
O O7 0.047437 0.749454 0.135736
O O8 0.000000 0.499907 0.250101
O O9 0.052276 0.500000 0.000000
O O10 0.052330 0.000000 0.000000
#
# Coordination Sequence:
#
# PCOD9480317 Si02
#       4
#    16  16   8  16
#     4  10  21  40  63  90 122 167 206 247 306 373
#     4  10  21  40  62  91 123 155 202 263 310 359
#     4  12  24  40  64  96 126 160 206 262 308 354
#     4  10  21  41  64  89 124 167 207 247 302 374
#
# _framework density 23.110430000000001
#
# number of rings (size 3 to 8) (size 9 to 14) (size 15 to 20)
#    0.000    1.714    0.000    4.286    0.000    0.000 
#    0.000   51.429    0.000    0.000    0.000    0.000 
#    0.000    0.000    0.000    0.000    0.000    0.000 
#
# Total GULP energy -156030.336267 kJ/mol
# GULP energy per Si atom -5572.512010 kJ/mol
# Density = 2.305783 g / cm^3
# Si number density = 23.110430 Si / 1000 Ang^3
#
#
#
# Elastic Constant Matrix: (Units=GPa)
#
#
# Indices 1 2 3 4 5 6 
#
# 1 163.6694 30.6600 52.8896 0.0000 0.0000 0.0000
# 2 30.6600 250.6944 38.6958 0.0000 0.0000 0.0000
# 3 52.8896 38.6958 137.7479 0.0000 0.0000 0.0000
# 4 0.0000 0.0000 0.0000 68.9781 0.0000 0.0000
# 5 0.0000 0.0000 0.0000 0.0000 3.6548 0.0000
# 6 0.0000 0.0000 0.0000 0.0000 0.0000 -53.4478
#
#
#
# Elastic Compliance Matrix: (Units=1/GPa)
#
#
# Indices 1 2 3 4 5 6 
#
# 1 0.007026 -0.000463 -0.002568 0.000000 0.000000 0.000000
# 2 -0.000463 0.004200 -0.001002 0.000000 0.000000 0.000000
# 3 -0.002568 -0.001002 0.008527 0.000000 0.000000 0.000000
# 4 0.000000 0.000000 0.000000 0.014497 0.000000 0.000000
# 5 0.000000 0.000000 0.000000 0.000000 0.273611 0.000000
# 6 0.000000 0.000000 0.000000 0.000000 0.000000 -0.018710
#
#
# Mechanical properties :
#
#
# Convention : Reuss Voigt Hill
#
# Bulk Modulus (GPa) = 85.55885 88.51140 87.03513
# Shear Modulus (GPa) = 16.60499 32.49476 24.54987
#
# Velocity S-wave (km/s) = 2.68340 3.75382 3.26281
# Velocity P-wave (km/s) = 6.83396 7.56113 7.20672
#
# Compressibility (1/GPa) = 0.01168786
#
# Stress axis : x y z
#
# Youngs Moduli (GPa) = 142.32065 238.08222 117.27330
#
# Poissons Ratio (x) = 0.11023 0.30113
# Poissons Ratio (y) = 0.06589 0.11753
# Poissons Ratio (z) = 0.36545 0.23859
#
# Static dielectric constant tensor:
#      x y z
#    x 1.935500 0.000000 0.000000 
#    y 0.000000 1.904480 0.000000 
#    z 0.000000 0.000000 1.755050 
# 
# From -- ./inp_files/28215.got.cif
#   From: 2010.05.17/outbox.cif.g08.bks.cpg/sg64_15_cif.got.tgz:28215.got - 2010.06.03 16:29:19.
