data_PCOD9480181
_publ_section_title
;
Structure prediction by ZEFSAII (Michael W. Deem and Ramdas Pophale) SiO2 
 PCOD9480181
Probable space group: C M C A
;
_chemical_formula_sum "Si O2"
_cell_formula_units_Z 64
_cell_length_a 25.146995
_cell_length_b 23.867059
_cell_length_c 5.039554
_cell_angle_alpha 90.000000
_cell_angle_beta 90.000000
_cell_angle_gamma 90.000000
_cell_volume 3024.663777
_symmetry_space_group_name_H-M "C M C A"
_symmetry_group_IT_number 64
_symmetry_cell_setting 'orthorhombic'
loop_
_space_group_symop_operation_xyz
x,y,z
-x,1/2-y,1/2+z
x,-y,-z
-x,1/2+y,1/2-z
-x,-y,-z
x,1/2+y,1/2-z
-x,y,z
x,1/2-y,1/2+z
1/2+x,1/2+y,z
1/2-x,-y,1/2+z
1/2+x,1/2-y,-z
1/2-x,y,1/2-z
1/2-x,1/2-y,-z
1/2+x,y,1/2-z
1/2-x,1/2+y,z
1/2+x,-y,1/2+z
loop_
_atom_site_type_symbol
_atom_site_label
_atom_site_fract_x
_atom_site_fract_y
_atom_site_fract_z
Si Si1 0.250000 0.291499 0.250000
Si Si2 0.329017 0.000000 0.500000
Si Si3 0.500000 0.288765 0.608245
Si Si4 0.833811 0.121396 0.983076
Si Si5 0.907929 0.377540 0.987846
Si Si6 0.406854 0.000000 0.000000
O O1 0.250000 0.250000 0.500000
O O2 0.203346 0.332875 0.347310
O O3 0.302927 0.061311 0.503237
O O4 0.367444 0.002033 0.751438
O O5 0.500000 0.237816 0.399685
O O6 0.550953 0.328005 0.559262
O O7 0.883895 0.121401 0.782834
O O8 0.859582 0.129640 0.274794
O O9 0.934101 0.439717 0.962403
#
# Coordination Sequence:
#
# PCOD9480181 Si02
#       6
#     8   8   8  16  16   8
#     4  12  26  40  58  88 120 160 210 238 280 364
#     4   8  16  34  59  85 111 142 187 237 295 354
#     4  12  26  39  56  87 118 156 206 236 280 360
#     4  10  21  40  62  86 117 153 193 248 302 346
#     4  10  21  39  62  85 117 152 190 248 301 347
#     4   8  16  33  59  86 109 142 187 234 295 353
#
# _framework density 21.159376999999999
#
# number of rings (size 3 to 8) (size 9 to 14) (size 15 to 20)
#    0.000    2.000    0.000    3.000    0.000    6.500 
#    0.000    8.750    0.000   10.500    0.000    0.000 
#    0.000    0.000    0.000    0.000    0.000    0.000 
#
# Total GULP energy -178166.105685 kJ/mol
# GULP energy per Si atom -5567.690803 kJ/mol
# Density = 2.111122 g / cm^3
# Si number density = 21.159377 Si / 1000 Ang^3
#
#
#
# Elastic Constant Matrix: (Units=GPa)
#
#
# Indices 1 2 3 4 5 6 
#
# 1 32.8889 43.0465 -7.9562 0.0000 0.0000 0.0000
# 2 43.0465 147.5986 3.3343 0.0000 0.0000 0.0000
# 3 -7.9562 3.3343 124.7313 0.0000 0.0000 0.0000
# 4 0.0000 0.0000 0.0000 34.8443 0.0000 0.0000
# 5 0.0000 0.0000 0.0000 0.0000 13.3582 0.0000
# 6 0.0000 0.0000 0.0000 0.0000 0.0000 61.4067
#
#
#
# Elastic Compliance Matrix: (Units=1/GPa)
#
#
# Indices 1 2 3 4 5 6 
#
# 1 0.050774 -0.014890 0.003637 0.000000 0.000000 0.000000
# 2 -0.014890 0.011146 -0.001248 0.000000 0.000000 0.000000
# 3 0.003637 -0.001248 0.008283 0.000000 0.000000 0.000000
# 4 0.000000 0.000000 0.000000 0.028699 0.000000 0.000000
# 5 0.000000 0.000000 0.000000 0.000000 0.074860 0.000000
# 6 0.000000 0.000000 0.000000 0.000000 0.000000 0.016285
#
#
# Mechanical properties :
#
#
# Convention : Reuss Voigt Hill
#
# Bulk Modulus (GPa) = 22.12378 42.45203 32.28790
# Shear Modulus (GPa) = 21.72814 39.70812 30.71813
#
# Velocity S-wave (km/s) = 3.20797 4.33670 3.81432
# Velocity P-wave (km/s) = 4.91934 6.72179 5.88992
#
# Compressibility (1/GPa) = 0.04520024
#
# Stress axis : x y z
#
# Youngs Moduli (GPa) = 19.69507 89.71838 120.73557
#
# Poissons Ratio (x) = 1.33593 -0.43908
# Poissons Ratio (y) = 0.29326 0.15065
# Poissons Ratio (z) = -0.07163 0.11195
#
# Static dielectric constant tensor:
#      x y z
#    x 1.751460 0.000000 0.000000 
#    y 0.000000 1.938530 0.000000 
#    z 0.000000 0.000000 1.714480 
# 
# From -- ./inp_files/2222.got.cif
#   From: 2010.05.17/outbox.cif.g08.bks.cpg/sg64_2_cif.got.tgz:2222.got - 2010.06.03 16:29:19.
