data_PCOD9480723
_publ_section_title
;
Structure prediction by ZEFSAII (Michael W. Deem and Ramdas Pophale) SiO2 
 PCOD9480723
Probable space group: C M C A
;
_chemical_formula_sum "Si O2"
_cell_formula_units_Z 96
_cell_length_a 30.460459
_cell_length_b 17.631730
_cell_length_c 9.053556
_cell_angle_alpha 90.000000
_cell_angle_beta 90.000000
_cell_angle_gamma 90.000000
_cell_volume 4862.398651
_symmetry_space_group_name_H-M "C M C A"
_symmetry_group_IT_number 64
_symmetry_cell_setting 'orthorhombic'
loop_
_space_group_symop_operation_xyz
x,y,z
-x,1/2-y,1/2+z
x,-y,-z
-x,1/2+y,1/2-z
-x,-y,-z
x,1/2+y,1/2-z
-x,y,z
x,1/2-y,1/2+z
1/2+x,1/2+y,z
1/2-x,-y,1/2+z
1/2+x,1/2-y,-z
1/2-x,y,1/2-z
1/2-x,1/2-y,-z
1/2+x,y,1/2-z
1/2-x,1/2+y,z
1/2+x,-y,1/2+z
loop_
_atom_site_type_symbol
_atom_site_label
_atom_site_fract_x
_atom_site_fract_y
_atom_site_fract_z
Si Si1 0.050319 0.830202 0.472560
Si Si2 0.793671 0.411029 0.177090
Si Si3 0.050584 0.665763 0.619783
Si Si4 0.624955 0.054669 0.625656
Si Si5 0.208207 0.594096 0.158101
Si Si6 0.383823 0.442631 0.632796
O O1 0.054684 0.746895 0.541932
O O2 0.058217 0.827574 0.296627
O O3 0.082164 0.886855 0.558109
O O4 0.000000 0.855209 0.494140
O O5 0.750000 0.379012 0.250000
O O6 0.836669 0.404005 0.280257
O O7 0.787259 0.502317 0.163230
O O8 0.794202 0.379838 0.011426
O O9 0.088557 0.610629 0.562118
O O10 0.000000 0.639653 0.597412
O O11 0.644905 0.000000 0.500000
O O12 0.600040 0.999317 0.741024
O O13 0.250000 0.624135 0.250000
O O14 0.157340 0.602459 0.204840
O O15 0.368867 0.500000 0.500000
#
# Coordination Sequence:
#
# PCOD9480723 Si02
#       6
#    16  16  16  16  16  16
#     4  10  22  39  61  82 113 157 197 239 299 363
#     4   9  17  28  46  75 113 143 177 227 282 341
#     4  10  22  41  59  83 116 156 199 240 296 361
#     4  11  23  35  56  88 121 151 197 249 292 335
#     4   9  16  28  48  75 110 142 180 227 281 340
#     4  11  19  37  56  84 116 148 193 244 291 342
#
# _framework density 19.743341000000001
#
# number of rings (size 3 to 8) (size 9 to 14) (size 15 to 20)
#    0.000    2.000    5.000    0.000    9.333    1.333 
#    0.000    0.000    0.000    1.000    0.000    4.667 
#    0.000    1.333    0.000    0.000    0.000    0.000 
#
# Total GULP energy -267303.389493 kJ/mol
# GULP energy per Si atom -5568.820614 kJ/mol
# Density = 1.969840 g / cm^3
# Si number density = 19.743341 Si / 1000 Ang^3
#
#
#
# Elastic Constant Matrix: (Units=GPa)
#
#
# Indices 1 2 3 4 5 6 
#
# 1 116.3747 37.8060 26.9234 0.0000 0.0000 0.0000
# 2 37.8060 18.4198 8.0963 0.0000 0.0000 0.0000
# 3 26.9234 8.0963 46.1581 0.0000 0.0000 0.0000
# 4 0.0000 0.0000 0.0000 18.5122 0.0000 0.0000
# 5 0.0000 0.0000 0.0000 0.0000 32.1750 0.0000
# 6 0.0000 0.0000 0.0000 0.0000 0.0000 -58.8492
#
#
#
# Elastic Compliance Matrix: (Units=1/GPa)
#
#
# Indices 1 2 3 4 5 6 
#
# 1 0.027559 -0.053633 -0.006667 0.000000 0.000000 0.000000
# 2 -0.053633 0.163202 0.002657 0.000000 0.000000 0.000000
# 3 -0.006667 0.002657 0.025087 0.000000 0.000000 0.000000
# 4 0.000000 0.000000 0.000000 0.054018 0.000000 0.000000
# 5 0.000000 0.000000 0.000000 0.000000 0.031080 0.000000
# 6 0.000000 0.000000 0.000000 0.000000 0.000000 -0.016993
#
#
# Mechanical properties :
#
#
# Convention : Reuss Voigt Hill
#
# Bulk Modulus (GPa) = 9.94411 36.28933 23.11672
# Shear Modulus (GPa) = 11.55372 5.57607 8.56489
#
# Velocity S-wave (km/s) = 2.42171 1.68238 2.08507
# Velocity P-wave (km/s) = 3.58708 4.71109 4.18697
#
# Compressibility (1/GPa) = 0.10056200
#
# Stress axis : x y z
#
# Youngs Moduli (GPa) = 36.28588 6.12738 39.86051
#
# Poissons Ratio (x) = 0.32863 0.26576
# Poissons Ratio (y) = 1.94613 -0.10592
# Poissons Ratio (z) = 0.24193 -0.01628
#
# Static dielectric constant tensor:
#      x y z
#    x 1.754380 0.000000 0.000000 
#    y 0.000000 1.681520 0.000000 
#    z 0.000000 0.000000 1.761030 
# 
# From -- ./inp_files/10359.got.cif
#   From: 2010.05.17/outbox.cif.g08.bks.cpg/sg64_6_cif.got.tgz:10359.got - 2010.06.03 16:29:19.
