data_PCOD9480589
_publ_section_title
;
Structure prediction by ZEFSAII (Michael W. Deem and Ramdas Pophale) SiO2 
 PCOD9480589
Probable space group: C M C A
;
_chemical_formula_sum "Si O2"
_cell_formula_units_Z 96
_cell_length_a 20.406389
_cell_length_b 23.630995
_cell_length_c 11.265987
_cell_angle_alpha 90.000000
_cell_angle_beta 90.000000
_cell_angle_gamma 90.000000
_cell_volume 5432.721163
_symmetry_space_group_name_H-M "C M C A"
_symmetry_group_IT_number 64
_symmetry_cell_setting 'orthorhombic'
loop_
_space_group_symop_operation_xyz
x,y,z
-x,1/2-y,1/2+z
x,-y,-z
-x,1/2+y,1/2-z
-x,-y,-z
x,1/2+y,1/2-z
-x,y,z
x,1/2-y,1/2+z
1/2+x,1/2+y,z
1/2-x,-y,1/2+z
1/2+x,1/2-y,-z
1/2-x,y,1/2-z
1/2-x,1/2-y,-z
1/2+x,y,1/2-z
1/2-x,1/2+y,z
1/2+x,-y,1/2+z
loop_
_atom_site_type_symbol
_atom_site_label
_atom_site_fract_x
_atom_site_fract_y
_atom_site_fract_z
Si Si1 0.425003 0.159446 0.379606
Si Si2 0.076683 0.714323 0.880397
Si Si3 0.825401 0.632046 0.757799
Si Si4 0.427853 0.367300 0.606450
Si Si5 0.186839 0.933652 0.503568
Si Si6 0.162482 0.932080 0.008412
O O1 0.500000 0.154973 0.422810
O O2 0.399786 0.222240 0.409298
O O3 0.425757 0.157901 0.237159
O O4 0.384733 0.107087 0.430708
O O5 0.122354 0.681602 0.785625
O O6 0.000000 0.717257 0.841119
O O7 0.077871 0.678935 0.002480
O O8 0.750000 0.653621 0.750000
O O9 0.826260 0.592299 0.873798
O O10 0.840485 0.593969 0.642012
O O11 0.500000 0.394922 0.591445
O O12 0.366366 0.407874 0.590960
O O13 0.262606 0.922664 0.534110
O O14 0.178260 0.000000 0.500000
O O15 0.149230 0.000000 0.000000
#
# Coordination Sequence:
#
# PCOD9480589 Si02
#       6
#    16  16  16  16  16  16
#     4  10  22  37  56  82 113 144 181 230 274 329
#     4   9  19  37  59  80 106 148 187 223 277 327
#     4   9  19  37  55  82 115 141 183 232 270 325
#     4   9  19  36  55  81 111 140 186 232 270 322
#     4   9  19  36  59  80 107 146 186 227 269 323
#     4  10  22  37  56  83 114 150 184 221 279 335
#
# _framework density 17.670703
#
# number of rings (size 3 to 8) (size 9 to 14) (size 15 to 20)
#    0.000    2.667    0.000    0.000    4.667    2.000 
#    3.000    2.500    0.000    0.000    0.000    0.000 
#    0.000    0.000    0.000    0.000    0.000    0.000 
#
# Total GULP energy -267386.904560 kJ/mol
# GULP energy per Si atom -5570.560512 kJ/mol
# Density = 1.763048 g / cm^3
# Si number density = 17.670703 Si / 1000 Ang^3
#
#
#
# Elastic Constant Matrix: (Units=GPa)
#
#
# Indices 1 2 3 4 5 6 
#
# 1 82.4723 78.3264 27.2813 0.0000 0.0000 0.0000
# 2 78.3264 111.9412 17.1420 0.0000 0.0000 0.0000
# 3 27.2813 17.1420 36.7263 0.0000 0.0000 0.0000
# 4 0.0000 0.0000 0.0000 15.0653 0.0000 0.0000
# 5 0.0000 0.0000 0.0000 0.0000 22.8396 0.0000
# 6 0.0000 0.0000 0.0000 0.0000 0.0000 27.1064
#
#
#
# Elastic Compliance Matrix: (Units=1/GPa)
#
#
# Indices 1 2 3 4 5 6 
#
# 1 0.048045 -0.030319 -0.021538 0.000000 0.000000 0.000000
# 2 -0.030319 0.028754 0.009101 0.000000 0.000000 0.000000
# 3 -0.021538 0.009101 0.038979 0.000000 0.000000 0.000000
# 4 0.000000 0.000000 0.000000 0.066378 0.000000 0.000000
# 5 0.000000 0.000000 0.000000 0.000000 0.043784 0.000000
# 6 0.000000 0.000000 0.000000 0.000000 0.000000 0.036892
#
#
# Mechanical properties :
#
#
# Convention : Reuss Voigt Hill
#
# Bulk Modulus (GPa) = 33.03964 52.95991 42.99977
# Shear Modulus (GPa) = 13.94962 20.22824 17.08893
#
# Velocity S-wave (km/s) = 2.81271 3.38706 3.11316
# Velocity P-wave (km/s) = 5.41170 6.73289 6.10812
#
# Compressibility (1/GPa) = 0.03026667
#
# Stress axis : x y z
#
# Youngs Moduli (GPa) = 20.81383 34.77730 25.65467
#
# Poissons Ratio (x) = 1.05443 0.55254
# Poissons Ratio (y) = 0.63106 -0.23348
# Poissons Ratio (z) = 0.44828 -0.31651
#
# Static dielectric constant tensor:
#      x y z
#    x 1.639420 0.000000 0.000000 
#    y 0.000000 1.583250 0.000000 
#    z 0.000000 0.000000 1.593250 
# 
# From -- ./inp_files/16174.got.cif
#   From: 2010.05.17/outbox.cif.g08.bks.cpg/sg64_9_cif.got.tgz:16174.got - 2010.06.03 16:29:19.
