data_PCOD9480401
_publ_section_title
;
Structure prediction by ZEFSAII (Michael W. Deem and Ramdas Pophale) SiO2 
 PCOD9480401
Probable space group: C M C A
;
_chemical_formula_sum "Si O2"
_cell_formula_units_Z 80
_cell_length_a 28.912654
_cell_length_b 4.959799
_cell_length_c 22.794072
_cell_angle_alpha 90.000000
_cell_angle_beta 90.000000
_cell_angle_gamma 90.000000
_cell_volume 3268.691634
_symmetry_space_group_name_H-M "C M C A"
_symmetry_group_IT_number 64
_symmetry_cell_setting 'orthorhombic'
loop_
_space_group_symop_operation_xyz
x,y,z
-x,1/2-y,1/2+z
x,-y,-z
-x,1/2+y,1/2-z
-x,-y,-z
x,1/2+y,1/2-z
-x,y,z
x,1/2-y,1/2+z
1/2+x,1/2+y,z
1/2-x,-y,1/2+z
1/2+x,1/2-y,-z
1/2-x,y,1/2-z
1/2-x,1/2-y,-z
1/2+x,y,1/2-z
1/2-x,1/2+y,z
1/2+x,-y,1/2+z
loop_
_atom_site_type_symbol
_atom_site_label
_atom_site_fract_x
_atom_site_fract_y
_atom_site_fract_z
Si Si1 0.602666 0.602987 0.164758
Si Si2 0.808529 0.715803 0.785065
Si Si3 0.446027 0.377444 0.622395
Si Si4 0.720211 0.433864 0.414136
Si Si5 0.137257 0.183624 0.943433
O O1 0.635657 0.759740 0.209173
O O2 0.573493 0.329236 0.172388
O O3 0.639534 0.506379 0.114505
O O4 0.567172 0.820832 0.139672
O O5 0.796293 0.520352 0.731477
O O6 0.788822 0.590712 0.844398
O O7 0.500000 0.341223 0.613354
O O8 0.414269 0.303735 0.566115
O O9 0.738234 0.138608 0.430792
O O10 0.674475 0.578415 0.438697
O O11 0.141224 0.000000 0.000000
#
# Coordination Sequence:
#
# PCOD9480401 Si02
#       5
#    16  16  16  16  16
#     4  10  21  42  64  99 137 173 222 282 335 416
#     4  12  23  42  72  96 127 173 220 280 349 398
#     4  10  21  40  70  98 136 179 222 284 346 401
#     4  12  26  44  64  98 137 172 229 279 331 411
#     4  10  24  44  68  98 140 188 233 280 346 405
#
# _framework density 24.474623999999999
#
# number of rings (size 3 to 8) (size 9 to 14) (size 15 to 20)
#    1.200    0.000    2.000    5.400    0.000    4.400 
#    0.000    1.000    0.000   12.000    0.000    0.000 
#    0.000    0.000    0.000    0.000    0.000    0.000 
#
# Total GULP energy -223552.375012 kJ/mol
# GULP energy per Si atom -5588.809375 kJ/mol
# Density = 2.441892 g / cm^3
# Si number density = 24.474624 Si / 1000 Ang^3
#
#
#
# Elastic Constant Matrix: (Units=GPa)
#
#
# Indices 1 2 3 4 5 6 
#
# 1 185.8425 29.7612 35.8250 0.0000 0.0000 0.0000
# 2 29.7612 148.6859 24.2608 0.0000 0.0000 0.0000
# 3 35.8250 24.2608 63.5931 0.0000 0.0000 0.0000
# 4 0.0000 0.0000 0.0000 35.2688 0.0000 0.0000
# 5 0.0000 0.0000 0.0000 0.0000 -1.6174 0.0000
# 6 0.0000 0.0000 0.0000 0.0000 0.0000 75.3373
#
#
#
# Elastic Compliance Matrix: (Units=1/GPa)
#
#
# Indices 1 2 3 4 5 6 
#
# 1 0.006105 -0.000705 -0.003170 0.000000 0.000000 0.000000
# 2 -0.000705 0.007253 -0.002370 0.000000 0.000000 0.000000
# 3 -0.003170 -0.002370 0.018415 0.000000 0.000000 0.000000
# 4 0.000000 0.000000 0.000000 0.028354 0.000000 0.000000
# 5 0.000000 0.000000 0.000000 0.000000 -0.618288 0.000000
# 6 0.000000 0.000000 0.000000 0.000000 0.000000 0.013274
#
#
# Mechanical properties :
#
#
# Convention : Reuss Voigt Hill
#
# Bulk Modulus (GPa) = 51.85897 64.20172 58.03034
# Shear Modulus (GPa) = -9.50627 42.34940 16.42156
#
# Velocity S-wave (km/s) = -1.97296 4.16425 2.59311
# Velocity P-wave (km/s) = 4.00559 7.02924 5.72079
#
# Compressibility (1/GPa) = 0.01928307
#
# Stress axis : x y z
#
# Youngs Moduli (GPa) = 163.80290 137.86691 54.30297
#
# Poissons Ratio (x) = 0.09715 0.17216
# Poissons Ratio (y) = 0.11543 0.12871
# Poissons Ratio (z) = 0.51931 0.32677
#
# Static dielectric constant tensor:
#      x y z
#    x 1.955360 0.000000 0.000000 
#    y 0.000000 1.932970 0.000000 
#    z 0.000000 0.000000 2.041930 
# 
# From -- ./inp_files/47042.got.cif
#   From: 2010.05.17/outbox.cif.g08.bks.cpg/sg64_24_cif.got.tgz:47042.got - 2010.06.03 16:29:19.
