data_PCOD9480591
_publ_section_title
;
Structure prediction by ZEFSAII (Michael W. Deem and Ramdas Pophale) SiO2 
 PCOD9480591
Probable space group: C M C A
;
_chemical_formula_sum "Si O2"
_cell_formula_units_Z 80
_cell_length_a 15.145395
_cell_length_b 24.645581
_cell_length_c 11.261628
_cell_angle_alpha 90.000000
_cell_angle_beta 90.000000
_cell_angle_gamma 90.000000
_cell_volume 4203.594766
_symmetry_space_group_name_H-M "C M C A"
_symmetry_group_IT_number 64
_symmetry_cell_setting 'orthorhombic'
loop_
_space_group_symop_operation_xyz
x,y,z
-x,1/2-y,1/2+z
x,-y,-z
-x,1/2+y,1/2-z
-x,-y,-z
x,1/2+y,1/2-z
-x,y,z
x,1/2-y,1/2+z
1/2+x,1/2+y,z
1/2-x,-y,1/2+z
1/2+x,1/2-y,-z
1/2-x,y,1/2-z
1/2-x,1/2-y,-z
1/2+x,y,1/2-z
1/2-x,1/2+y,z
1/2+x,-y,1/2+z
loop_
_atom_site_type_symbol
_atom_site_label
_atom_site_fract_x
_atom_site_fract_y
_atom_site_fract_z
Si Si1 0.599438 0.277816 0.980671
Si Si2 0.105103 0.063054 0.006722
Si Si3 0.146757 0.143890 0.220994
Si Si4 0.903781 0.648675 0.011844
Si Si5 0.774320 0.143219 0.884187
O O1 0.500000 0.294288 0.020071
O O2 0.613537 0.302912 0.849752
O O3 0.602956 0.213350 0.988215
O O4 0.676790 0.305080 0.057511
O O5 0.130539 0.094319 0.129212
O O6 0.000000 0.067506 0.993995
O O7 0.155622 0.095411 0.903995
O O8 0.129318 0.000000 0.000000
O O9 0.250000 0.149163 0.250000
O O10 0.100557 0.138231 0.347491
O O11 0.815311 0.626541 0.952014
O O12 0.000000 0.630307 0.966383
O O13 0.750000 0.154382 0.750000
#
# Coordination Sequence:
#
# PCOD9480591 Si02
#       5
#    16  16  16  16  16
#     4  10  22  37  56  84 121 164 204 235 281 348
#     4  10  22  43  68  88 110 149 198 247 305 364
#     4  11  20  37  64  87 121 156 199 252 294 349
#     4  11  23  36  57  89 123 162 199 242 292 344
#     4  11  23  38  58  85 121 155 192 246 296 352
#
# _framework density 19.031331000000002
#
# number of rings (size 3 to 8) (size 9 to 14) (size 15 to 20)
#    0.000    1.400    4.000    4.200    2.800    2.400 
#    0.000    0.000    0.000    0.600    0.000    0.000 
#    0.000    0.000    0.000    0.000    0.000    0.000 
#
# Total GULP energy -223284.364711 kJ/mol
# GULP energy per Si atom -5582.109118 kJ/mol
# Density = 1.898801 g / cm^3
# Si number density = 19.031331 Si / 1000 Ang^3
#
#
#
# Elastic Constant Matrix: (Units=GPa)
#
#
# Indices 1 2 3 4 5 6 
#
# 1 121.4786 -6.0333 15.3029 0.0000 0.0000 0.0000
# 2 -6.0333 40.1283 -22.9703 0.0000 0.0000 0.0000
# 3 15.3029 -22.9703 72.1871 0.0000 0.0000 0.0000
# 4 0.0000 0.0000 0.0000 6.5737 0.0000 0.0000
# 5 0.0000 0.0000 0.0000 0.0000 19.8567 0.0000
# 6 0.0000 0.0000 0.0000 0.0000 0.0000 21.7313
#
#
#
# Elastic Compliance Matrix: (Units=1/GPa)
#
#
# Indices 1 2 3 4 5 6 
#
# 1 0.008461 0.000300 -0.001698 0.000000 0.000000 0.000000
# 2 0.000300 0.030481 0.009636 0.000000 0.000000 0.000000
# 3 -0.001698 0.009636 0.017279 0.000000 0.000000 0.000000
# 4 0.000000 0.000000 0.000000 0.152120 0.000000 0.000000
# 5 0.000000 0.000000 0.000000 0.000000 0.050361 0.000000
# 6 0.000000 0.000000 0.000000 0.000000 0.000000 0.046017
#
#
# Mechanical properties :
#
#
# Convention : Reuss Voigt Hill
#
# Bulk Modulus (GPa) = 13.75603 22.93250 18.34427
# Shear Modulus (GPa) = 16.00129 26.13200 21.06664
#
# Velocity S-wave (km/s) = 2.90278 3.70956 3.33069
# Velocity P-wave (km/s) = 4.29868 5.51578 4.94482
#
# Compressibility (1/GPa) = 0.07269537
#
# Stress axis : x y z
#
# Youngs Moduli (GPa) = 118.19324 32.80756 57.87391
#
# Poissons Ratio (x) = -0.00984 0.09828
# Poissons Ratio (y) = -0.03546 -0.55765
# Poissons Ratio (z) = 0.20070 -0.31612
#
# Static dielectric constant tensor:
#      x y z
#    x 1.699020 0.000000 0.000000 
#    y 0.000000 1.637030 0.000000 
#    z 0.000000 0.000000 1.658740 
# 
# From -- ./inp_files/14476.got.cif
#   From: 2010.05.17/outbox.cif.g08.bks.cpg/sg64_8_cif.got.tgz:14476.got - 2010.06.03 16:29:19.
