data_PCOD9480672
_publ_section_title
;
Structure prediction by ZEFSAII (Michael W. Deem and Ramdas Pophale) SiO2 
 PCOD9480672
Probable space group: C M C A
;
_chemical_formula_sum "Si O2"
_cell_formula_units_Z 96
_cell_length_a 13.884690
_cell_length_b 19.686876
_cell_length_c 17.313493
_cell_angle_alpha 90.000000
_cell_angle_beta 90.000000
_cell_angle_gamma 90.000000
_cell_volume 4732.577007
_symmetry_space_group_name_H-M "C M C A"
_symmetry_group_IT_number 64
_symmetry_cell_setting 'orthorhombic'
loop_
_space_group_symop_operation_xyz
x,y,z
-x,1/2-y,1/2+z
x,-y,-z
-x,1/2+y,1/2-z
-x,-y,-z
x,1/2+y,1/2-z
-x,y,z
x,1/2-y,1/2+z
1/2+x,1/2+y,z
1/2-x,-y,1/2+z
1/2+x,1/2-y,-z
1/2-x,y,1/2-z
1/2-x,1/2-y,-z
1/2+x,y,1/2-z
1/2-x,1/2+y,z
1/2+x,-y,1/2+z
loop_
_atom_site_type_symbol
_atom_site_label
_atom_site_fract_x
_atom_site_fract_y
_atom_site_fract_z
Si Si1 0.000000 0.556944 0.320327
Si Si2 0.790987 0.566509 0.835090
Si Si3 0.681475 0.285653 0.390895
Si Si4 0.500000 0.649125 0.332170
Si Si5 0.824949 0.956120 0.930312
Si Si6 0.500000 0.930075 0.220578
Si Si7 0.500000 0.772919 0.218474
Si Si8 0.180905 0.666619 0.059927
O O1 0.905966 0.570289 0.371619
O O2 0.000000 0.478272 0.294634
O O3 0.000000 0.597413 0.239849
O O4 0.750000 0.556196 0.750000
O O5 0.773474 0.644298 0.859247
O O6 0.742479 0.511044 0.888371
O O7 0.905449 0.557169 0.829859
O O8 0.594352 0.264073 0.335147
O O9 0.760134 0.226883 0.398540
O O10 0.645805 0.304115 0.477508
O O11 0.500000 0.722373 0.290148
O O12 0.405998 0.642639 0.385855
O O13 0.756783 0.894015 0.955256
O O14 0.869874 0.000000 0.000000
O O15 0.500000 0.851379 0.244218
#
# Coordination Sequence:
#
# PCOD9480672 Si02
#       8
#     8  16  16   8  16   8   8  16
#     4  12  25  43  64  97 133 168 217 276 327 395
#     4  11  22  41  69  95 132 172 224 274 324 400
#     4  10  23  44  67  93 134 171 221 269 329 390
#     4  12  27  42  67 102 134 172 220 270 337 395
#     4  12  25  45  66  96 131 177 219 271 337 398
#     4  10  22  38  63  98 121 164 218 270 318 374
#     4  10  23  41  66  97 125 170 215 270 321 386
#     4  11  25  43  66  98 132 175 215 272 332 392
#
# _framework density 20.284932000000001
#
# number of rings (size 3 to 8) (size 9 to 14) (size 15 to 20)
#    0.000    1.000    3.333    2.750    4.667    1.333 
#    0.000    1.667    0.000    0.000    0.000    0.000 
#    0.000    0.000    0.000    0.000    0.000    0.000 
#
# Total GULP energy -268385.677559 kJ/mol
# GULP energy per Si atom -5591.368282 kJ/mol
# Density = 2.023876 g / cm^3
# Si number density = 20.284932 Si / 1000 Ang^3
#
#
#
# Elastic Constant Matrix: (Units=GPa)
#
#
# Indices 1 2 3 4 5 6 
#
# 1 78.3393 23.0111 19.8245 0.0000 0.0000 0.0000
# 2 23.0111 44.5255 5.8211 0.0000 0.0000 0.0000
# 3 19.8245 5.8211 60.8923 0.0000 0.0000 0.0000
# 4 0.0000 0.0000 0.0000 44.9899 0.0000 0.0000
# 5 0.0000 0.0000 0.0000 0.0000 14.4247 0.0000
# 6 0.0000 0.0000 0.0000 0.0000 0.0000 24.5649
#
#
#
# Elastic Compliance Matrix: (Units=1/GPa)
#
#
# Indices 1 2 3 4 5 6 
#
# 1 0.016196 -0.007778 -0.004529 0.000000 0.000000 0.000000
# 2 -0.007778 0.026479 0.000001 0.000000 0.000000 0.000000
# 3 -0.004529 0.000001 0.017897 0.000000 0.000000 0.000000
# 4 0.000000 0.000000 0.000000 0.022227 0.000000 0.000000
# 5 0.000000 0.000000 0.000000 0.000000 0.069326 0.000000
# 6 0.000000 0.000000 0.000000 0.000000 0.000000 0.040709
#
#
# Mechanical properties :
#
#
# Convention : Reuss Voigt Hill
#
# Bulk Modulus (GPa) = 27.80956 31.23003 29.51980
# Shear Modulus (GPa) = 21.79299 25.80259 23.79779
#
# Velocity S-wave (km/s) = 3.28127 3.57039 3.42888
# Velocity P-wave (km/s) = 5.30046 5.69439 5.50095
#
# Compressibility (1/GPa) = 0.03595886
#
# Stress axis : x y z
#
# Youngs Moduli (GPa) = 61.74429 37.76634 55.87557
#
# Poissons Ratio (x) = 0.29375 0.25308
# Poissons Ratio (y) = 0.48025 -0.00006
# Poissons Ratio (z) = 0.27966 -0.00004
#
# Static dielectric constant tensor:
#      x y z
#    x 1.713930 0.000000 0.000000 
#    y 0.000000 1.718730 0.000000 
#    z 0.000000 0.000000 1.710070 
# 
# From -- ./inp_files/24027.got.cif
#   From: 2010.05.17/outbox.cif.g08.bks.cpg/sg64_13_cif.got.tgz:24027.got - 2010.06.03 16:29:19.
