data_PCOD9480408
_publ_section_title
;
Structure prediction by ZEFSAII (Michael W. Deem and Ramdas Pophale) SiO2 
 PCOD9480408
Probable space group: C M C A
;
_chemical_formula_sum "Si O2"
_cell_formula_units_Z 72
_cell_length_a 9.695748
_cell_length_b 16.522794
_cell_length_c 21.496471
_cell_angle_alpha 90.000000
_cell_angle_beta 90.000000
_cell_angle_gamma 90.000000
_cell_volume 3443.752859
_symmetry_space_group_name_H-M "C M C A"
_symmetry_group_IT_number 64
_symmetry_cell_setting 'orthorhombic'
loop_
_space_group_symop_operation_xyz
x,y,z
-x,1/2-y,1/2+z
x,-y,-z
-x,1/2+y,1/2-z
-x,-y,-z
x,1/2+y,1/2-z
-x,y,z
x,1/2-y,1/2+z
1/2+x,1/2+y,z
1/2-x,-y,1/2+z
1/2+x,1/2-y,-z
1/2-x,y,1/2-z
1/2-x,1/2-y,-z
1/2+x,y,1/2-z
1/2-x,1/2+y,z
1/2+x,-y,1/2+z
loop_
_atom_site_type_symbol
_atom_site_label
_atom_site_fract_x
_atom_site_fract_y
_atom_site_fract_z
Si Si1 0.708681 0.510733 0.427230
Si Si2 0.000000 0.762991 0.841236
Si Si3 0.755229 0.157499 0.878682
Si Si4 0.500000 0.209105 0.699056
Si Si5 0.500000 0.300042 0.027902
Si Si6 0.500000 0.647877 0.402554
Si Si7 0.000000 0.086205 0.089692
O O1 0.674151 0.500000 0.500000
O O2 0.682721 0.428119 0.390322
O O3 0.628894 0.588446 0.402069
O O4 0.868739 0.530550 0.419652
O O5 0.138710 0.725452 0.871372
O O6 0.000000 0.734859 0.769877
O O7 0.000000 0.859926 0.848257
O O8 0.861514 0.161254 0.820692
O O9 0.860499 0.172731 0.936216
O O10 0.500000 0.288126 0.653671
O O11 0.500000 0.203043 0.034983
O O12 0.500000 0.343870 0.962703
#
# Coordination Sequence:
#
# PCOD9480408 Si02
#       7
#    16   8  16   8   8   8   8
#     4  12  23  39  61  97 131 159 193 259 318 378
#     4  12  25  40  68  91 117 168 218 255 292 362
#     4  10  22  41  65  89 125 160 206 246 317 362
#     4  10  23  49  62  84 125 167 214 259 290 362
#     4  10  21  41  59  91 127 169 189 255 304 380
#     4  10  24  39  64  91 130 159 205 258 310 349
#     4  12  23  38  64  93 127 165 210 239 314 374
#
# _framework density 20.907423000000001
#
# number of rings (size 3 to 8) (size 9 to 14) (size 15 to 20)
#    0.000    1.333    2.222    6.000    3.111    1.778 
#    0.000    6.667    0.000    0.000    0.000    0.000 
#    0.000    0.000    0.000    0.000    0.000    0.000 
#
# Total GULP energy -201272.153032 kJ/mol
# GULP energy per Si atom -5590.893140 kJ/mol
# Density = 2.085984 g / cm^3
# Si number density = 20.907423 Si / 1000 Ang^3
#
#
#
# Elastic Constant Matrix: (Units=GPa)
#
#
# Indices 1 2 3 4 5 6 
#
# 1 85.4084 -3.2102 -7.7669 0.0000 0.0000 0.0000
# 2 -3.2102 93.7881 6.5477 0.0000 0.0000 0.0000
# 3 -7.7669 6.5477 63.5280 0.0000 0.0000 0.0000
# 4 0.0000 0.0000 0.0000 20.3865 0.0000 0.0000
# 5 0.0000 0.0000 0.0000 0.0000 -4.7587 0.0000
# 6 0.0000 0.0000 0.0000 0.0000 0.0000 60.5804
#
#
#
# Elastic Compliance Matrix: (Units=1/GPa)
#
#
# Indices 1 2 3 4 5 6 
#
# 1 0.011849 0.000307 0.001417 0.000000 0.000000 0.000000
# 2 0.000307 0.010748 -0.001070 0.000000 0.000000 0.000000
# 3 0.001417 -0.001070 0.016025 0.000000 0.000000 0.000000
# 4 0.000000 0.000000 0.000000 0.049052 0.000000 0.000000
# 5 0.000000 0.000000 0.000000 0.000000 -0.210142 0.000000
# 6 0.000000 0.000000 0.000000 0.000000 0.000000 0.016507
#
#
# Mechanical properties :
#
#
# Convention : Reuss Voigt Hill
#
# Bulk Modulus (GPa) = 25.04515 25.98507 25.51511
# Shear Modulus (GPa) = -53.21436 31.71856 -10.74790
#
# Velocity S-wave (km/s) = -5.05051 3.89922 -2.26977
# Velocity P-wave (km/s) = 4.69096 5.72079 2.31542
#
# Compressibility (1/GPa) = 0.03992789
#
# Stress axis : x y z
#
# Youngs Moduli (GPa) = 84.39643 93.04446 62.40392
#
# Poissons Ratio (x) = -0.02853 -0.08843
# Poissons Ratio (y) = -0.02588 0.06679
# Poissons Ratio (z) = -0.11959 0.09958
#
# Static dielectric constant tensor:
#      x y z
#    x 1.701640 0.000000 0.000000 
#    y 0.000000 1.735890 0.000000 
#    z 0.000000 0.000000 1.754740 
# 
# From -- ./inp_files/42681.got.cif
#   From: 2010.05.17/outbox.cif.g08.bks.cpg/sg64_22_cif.got.tgz:42681.got - 2010.06.03 16:29:19.
