data_PCOD9480889
_publ_section_title
;
Structure prediction by ZEFSAII (Michael W. Deem and Ramdas Pophale) SiO2 
 PCOD9480889
Probable space group: C M C A
;
_chemical_formula_sum "Si O2"
_cell_formula_units_Z 112
_cell_length_a 13.983351
_cell_length_b 24.154077
_cell_length_c 15.200869
_cell_angle_alpha 90.000000
_cell_angle_beta 90.000000
_cell_angle_gamma 90.000000
_cell_volume 5134.168548
_symmetry_space_group_name_H-M "C M C A"
_symmetry_group_IT_number 64
_symmetry_cell_setting 'orthorhombic'
loop_
_space_group_symop_operation_xyz
x,y,z
-x,1/2-y,1/2+z
x,-y,-z
-x,1/2+y,1/2-z
-x,-y,-z
x,1/2+y,1/2-z
-x,y,z
x,1/2-y,1/2+z
1/2+x,1/2+y,z
1/2-x,-y,1/2+z
1/2+x,1/2-y,-z
1/2-x,y,1/2-z
1/2-x,1/2-y,-z
1/2+x,y,1/2-z
1/2-x,1/2+y,z
1/2+x,-y,1/2+z
loop_
_atom_site_type_symbol
_atom_site_label
_atom_site_fract_x
_atom_site_fract_y
_atom_site_fract_z
Si Si1 0.891080 0.356198 0.458756
Si Si2 0.613485 0.068087 0.894132
Si Si3 0.610785 0.228479 0.987465
Si Si4 0.115575 0.541760 0.423820
Si Si5 0.721001 0.830071 0.156948
Si Si6 0.382915 0.535517 0.277211
Si Si7 0.884351 0.882247 0.579344
O O1 0.887085 0.291542 0.483201
O O2 0.867580 0.396201 0.540240
O O3 0.812251 0.361796 0.383890
O O4 0.000000 0.369718 0.430725
O O5 0.500000 0.061718 0.901778
O O6 0.639992 0.122956 0.839925
O O7 0.647656 0.015381 0.839534
O O8 0.647077 0.081261 0.994173
O O9 0.500000 0.216103 0.962925
O O10 0.680694 0.216551 0.907133
O O11 0.639369 0.181624 0.058964
O O12 0.151009 0.500000 0.500000
O O13 0.149030 0.532425 0.323986
O O14 0.000000 0.534675 0.420747
O O15 0.750000 0.807057 0.250000
O O16 0.500000 0.534777 0.274827
O O17 0.352778 0.590755 0.329702
O O18 0.000000 0.884885 0.580151
#
# Coordination Sequence:
#
# PCOD9480889 Si02
#       7
#    16  16  16  16  16  16  16
#     4  10  22  41  63  84 115 163 206 245 304 364
#     4   9  18  33  58  87 119 156 194 243 306 367
#     4   9  19  40  65  87 118 155 198 251 307 366
#     4   9  19  35  56  82 114 157 203 248 293 351
#     4  11  23  37  59  89 122 156 196 251 300 357
#     4   9  16  29  56  88 117 152 196 246 301 364
#     4   8  14  28  54  89 119 145 184 241 305 358
#
# _framework density 21.814632
#
# number of rings (size 3 to 8) (size 9 to 14) (size 15 to 20)
#    0.000    2.714    0.000    2.143    2.000    2.857 
#    2.571    2.857    0.000    0.000    0.000    0.000 
#    0.000    0.000    0.000    0.000    0.000    0.000 
#
# Total GULP energy -312615.457193 kJ/mol
# GULP energy per Si atom -5582.418878 kJ/mol
# Density = 2.176498 g / cm^3
# Si number density = 21.814632 Si / 1000 Ang^3
#
#
#
# Elastic Constant Matrix: (Units=GPa)
#
#
# Indices 1 2 3 4 5 6 
#
# 1 63.0041 1.9091 15.3216 0.0000 0.0000 0.0000
# 2 1.9091 109.1951 55.0424 0.0000 0.0000 0.0000
# 3 15.3216 55.0424 122.9006 0.0000 0.0000 0.0000
# 4 0.0000 0.0000 0.0000 -6.6783 0.0000 0.0000
# 5 0.0000 0.0000 0.0000 0.0000 20.6601 0.0000
# 6 0.0000 0.0000 0.0000 0.0000 0.0000 17.8968
#
#
#
# Elastic Compliance Matrix: (Units=1/GPa)
#
#
# Indices 1 2 3 4 5 6 
#
# 1 0.016446 0.000963 -0.002482 0.000000 0.000000 0.000000
# 2 0.000963 0.011885 -0.005443 0.000000 0.000000 0.000000
# 3 -0.002482 -0.005443 0.010884 0.000000 0.000000 0.000000
# 4 0.000000 0.000000 0.000000 -0.149740 0.000000 0.000000
# 5 0.000000 0.000000 0.000000 0.000000 0.048402 0.000000
# 6 0.000000 0.000000 0.000000 0.000000 0.000000 0.055876
#
#
# Mechanical properties :
#
#
# Convention : Reuss Voigt Hill
#
# Bulk Modulus (GPa) = 39.53756 48.84955 44.19356
# Shear Modulus (GPa) = 310.43455 21.23084 165.83270
#
# Velocity S-wave (km/s) = 11.94214 3.12306 8.72835
# Velocity P-wave (km/s) = 14.43317 5.95368 11.03999
#
# Compressibility (1/GPa) = 0.02529240
#
# Stress axis : x y z
#
# Youngs Moduli (GPa) = 60.80387 84.14221 91.88083
#
# Poissons Ratio (x) = -0.08107 0.22803
# Poissons Ratio (y) = -0.05858 0.50009
# Poissons Ratio (z) = 0.15090 0.45797
#
# Static dielectric constant tensor:
#      x y z
#    x 1.860680 0.000000 0.000000 
#    y 0.000000 1.785600 0.000000 
#    z 0.000000 0.000000 1.783030 
# 
# From -- ./inp_files/24241.got.cif
#   From: 2010.05.17/outbox.cif.g08.bks.cpg/sg64_13_cif.got.tgz:24241.got - 2010.06.03 16:29:19.
