data_PCOD9480745
_publ_section_title
;
Structure prediction by ZEFSAII (Michael W. Deem and Ramdas Pophale) SiO2 
 PCOD9480745
Probable space group: C M C A
;
_chemical_formula_sum "Si O2"
_cell_formula_units_Z 120
_cell_length_a 20.610739
_cell_length_b 17.085994
_cell_length_c 16.924530
_cell_angle_alpha 90.000000
_cell_angle_beta 90.000000
_cell_angle_gamma 90.000000
_cell_volume 5960.057234
_symmetry_space_group_name_H-M "C M C A"
_symmetry_group_IT_number 64
_symmetry_cell_setting 'orthorhombic'
loop_
_space_group_symop_operation_xyz
x,y,z
-x,1/2-y,1/2+z
x,-y,-z
-x,1/2+y,1/2-z
-x,-y,-z
x,1/2+y,1/2-z
-x,y,z
x,1/2-y,1/2+z
1/2+x,1/2+y,z
1/2-x,-y,1/2+z
1/2+x,1/2-y,-z
1/2-x,y,1/2-z
1/2-x,1/2-y,-z
1/2+x,y,1/2-z
1/2-x,1/2+y,z
1/2+x,-y,1/2+z
loop_
_atom_site_type_symbol
_atom_site_label
_atom_site_fract_x
_atom_site_fract_y
_atom_site_fract_z
Si Si1 0.572254 0.030414 0.832531
Si Si2 0.425097 0.907906 0.491625
Si Si3 0.427350 0.714934 0.694142
Si Si4 0.425256 0.271397 0.119283
Si Si5 0.685871 0.345349 0.577547
Si Si6 0.860087 0.500000 0.000000
Si Si7 0.329622 0.178802 0.391664
Si Si8 0.319808 0.936423 0.756630
O O1 0.500000 0.997407 0.824031
O O2 0.570635 0.122505 0.818326
O O3 0.620459 0.993288 0.769023
O O4 0.598000 0.013222 0.920875
O O5 0.500000 0.896767 0.517499
O O6 0.419755 0.862128 0.408139
O O7 0.374148 0.863100 0.544824
O O8 0.412015 0.000000 0.500000
O O9 0.500000 0.745946 0.673500
O O10 0.415794 0.733899 0.786520
O O11 0.369744 0.748246 0.641162
O O12 0.500000 0.247071 0.101641
O O13 0.373105 0.216691 0.074417
O O14 0.679076 0.419320 0.517930
O O15 0.757241 0.307249 0.576140
O O16 0.680691 0.383787 0.664642
O O17 0.325300 0.119029 0.318280
O O18 0.250000 0.978322 0.750000
#
# Coordination Sequence:
#
# PCOD9480745 Si02
#       8
#    16  16  16  16  16   8  16  16
#     4  10  22  39  63  92 124 166 214 262 316 380
#     4  10  24  42  62  92 127 168 210 256 316 376
#     4  10  22  40  62  92 123 160 210 263 314 371
#     4  10  22  42  63  88 127 166 208 264 315 376
#     4  10  22  41  64  90 125 164 210 252 321 382
#     4  10  23  42  60  92 131 166 206 264 317 376
#     4  11  22  40  66  91 126 163 208 264 314 381
#     4   9  20  40  59  89 123 162 204 261 314 372
#
# _framework density 20.134035999999998
#
# number of rings (size 3 to 8) (size 9 to 14) (size 15 to 20)
#    0.000    2.000    1.333    0.600    4.667    4.267 
#    2.400    0.000    0.000    0.000    0.000    0.000 
#    0.000    0.000    0.000    0.000    0.000    0.000 
#
# Total GULP energy -334780.361082 kJ/mol
# GULP energy per Si atom -5579.672685 kJ/mol
# Density = 2.008821 g / cm^3
# Si number density = 20.134036 Si / 1000 Ang^3
#
#
#
# Elastic Constant Matrix: (Units=GPa)
#
#
# Indices 1 2 3 4 5 6 
#
# 1 129.2987 65.9095 25.9539 0.0000 0.0000 0.0000
# 2 65.9095 81.2428 13.4901 0.0000 0.0000 0.0000
# 3 25.9539 13.4901 31.3416 0.0000 0.0000 0.0000
# 4 0.0000 0.0000 0.0000 33.4772 0.0000 0.0000
# 5 0.0000 0.0000 0.0000 0.0000 20.0963 0.0000
# 6 0.0000 0.0000 0.0000 0.0000 0.0000 -68.4668
#
#
#
# Elastic Compliance Matrix: (Units=1/GPa)
#
#
# Indices 1 2 3 4 5 6 
#
# 1 0.014687 -0.010657 -0.007575 0.000000 0.000000 0.000000
# 2 -0.010657 0.020989 -0.000209 0.000000 0.000000 0.000000
# 3 -0.007575 -0.000209 0.038270 0.000000 0.000000 0.000000
# 4 0.000000 0.000000 0.000000 0.029871 0.000000 0.000000
# 5 0.000000 0.000000 0.000000 0.000000 0.049760 0.000000
# 6 0.000000 0.000000 0.000000 0.000000 0.000000 -0.014606
#
#
# Mechanical properties :
#
#
# Convention : Reuss Voigt Hill
#
# Bulk Modulus (GPa) = 26.98115 50.28779 38.63447
# Shear Modulus (GPa) = 26.56619 6.12333 16.34476
#
# Velocity S-wave (km/s) = 3.63639 1.74582 2.85230
# Velocity P-wave (km/s) = 5.57323 5.39394 5.48432
#
# Compressibility (1/GPa) = 0.03706291
#
# Stress axis : x y z
#
# Youngs Moduli (GPa) = 68.08690 47.64312 26.13047
#
# Poissons Ratio (x) = 0.50775 0.19794
# Poissons Ratio (y) = 0.72562 0.00546
# Poissons Ratio (z) = 0.51577 0.00996
#
# Static dielectric constant tensor:
#      x y z
#    x 1.733850 0.000000 0.000000 
#    y 0.000000 1.715880 0.000000 
#    z 0.000000 0.000000 1.708620 
# 
# From -- ./inp_files/34554.got.cif
#   From: 2010.05.17/outbox.cif.g08.bks.cpg/sg64_18_cif.got.tgz:34554.got - 2010.06.03 16:29:19.
