data_PCOD9480555
_publ_section_title
;
Structure prediction by ZEFSAII (Michael W. Deem and Ramdas Pophale) SiO2 
 PCOD9480555
Probable space group: C M C A
;
_chemical_formula_sum "Si O2"
_cell_formula_units_Z 88
_cell_length_a 25.649002
_cell_length_b 9.389089
_cell_length_c 17.692724
_cell_angle_alpha 90.000000
_cell_angle_beta 90.000000
_cell_angle_gamma 90.000000
_cell_volume 4260.775285
_symmetry_space_group_name_H-M "C M C A"
_symmetry_group_IT_number 64
_symmetry_cell_setting 'orthorhombic'
loop_
_space_group_symop_operation_xyz
x,y,z
-x,1/2-y,1/2+z
x,-y,-z
-x,1/2+y,1/2-z
-x,-y,-z
x,1/2+y,1/2-z
-x,y,z
x,1/2-y,1/2+z
1/2+x,1/2+y,z
1/2-x,-y,1/2+z
1/2+x,1/2-y,-z
1/2-x,y,1/2-z
1/2-x,1/2-y,-z
1/2+x,y,1/2-z
1/2-x,1/2+y,z
1/2+x,-y,1/2+z
loop_
_atom_site_type_symbol
_atom_site_label
_atom_site_fract_x
_atom_site_fract_y
_atom_site_fract_z
Si Si1 0.679162 0.888871 0.203096
Si Si2 0.885040 0.153281 0.854649
Si Si3 0.500000 0.925292 0.307013
Si Si4 0.114065 0.460817 0.914633
Si Si5 0.750000 0.363135 0.750000
Si Si6 0.909778 0.500000 0.500000
Si Si7 0.000000 0.331848 0.566192
Si Si8 0.500000 0.517442 0.629355
O O1 0.649646 0.890275 0.283431
O O2 0.712571 0.743814 0.203205
O O3 0.636727 0.914397 0.138535
O O4 0.716751 0.026221 0.200285
O O5 0.867629 0.306643 0.885614
O O6 0.945579 0.154061 0.825816
O O7 0.880510 0.042227 0.923883
O O8 0.500000 0.976853 0.220425
O O9 0.500000 0.058633 0.363936
O O10 0.052128 0.451019 0.903362
O O11 0.127119 0.500000 0.000000
O O12 0.949000 0.368981 0.517510
O O13 0.000000 0.177520 0.599060
#
# Coordination Sequence:
#
# PCOD9480555 Si02
#       8
#    16  16   8  16   8   8   8   8
#     4  11  23  45  75  94 132 172 228 278 351 409
#     4  11  22  41  65  99 133 183 224 273 335 410
#     4  10  22  34  61  94 134 173 239 263 308 415
#     4  12  26  41  64 105 143 182 224 279 336 413
#     4  10  24  46  74  98 122 172 226 296 348 400
#     4   9  20  38  60  84 132 172 228 270 314 399
#     4   9  20  35  51  84 126 191 213 262 321 366
#     4  12  23  35  61  93 144 186 211 275 320 401
#
# _framework density 20.653518999999999
#
# number of rings (size 3 to 8) (size 9 to 14) (size 15 to 20)
#    0.000    1.273    3.636    2.455    2.545    4.364 
#    0.000    0.909    8.000    0.000    0.000    0.000 
#    0.000    0.000    0.000    0.000    0.000    0.000 
#
# Total GULP energy -245903.397668 kJ/mol
# GULP energy per Si atom -5588.713583 kJ/mol
# Density = 2.060651 g / cm^3
# Si number density = 20.653519 Si / 1000 Ang^3
#
#
#
# Elastic Constant Matrix: (Units=GPa)
#
#
# Indices 1 2 3 4 5 6 
#
# 1 55.9980 9.9334 13.5771 0.0000 0.0000 0.0000
# 2 9.9334 71.2298 13.9891 0.0000 0.0000 0.0000
# 3 13.5771 13.9891 142.7700 0.0000 0.0000 0.0000
# 4 0.0000 0.0000 0.0000 17.4893 0.0000 0.0000
# 5 0.0000 0.0000 0.0000 0.0000 -7.3116 0.0000
# 6 0.0000 0.0000 0.0000 0.0000 0.0000 -121.4882
#
#
#
# Elastic Compliance Matrix: (Units=1/GPa)
#
#
# Indices 1 2 3 4 5 6 
#
# 1 0.018640 -0.002296 -0.001548 0.000000 0.000000 0.000000
# 2 -0.002296 0.014597 -0.001212 0.000000 0.000000 0.000000
# 3 -0.001548 -0.001212 0.007270 0.000000 0.000000 0.000000
# 4 0.000000 0.000000 0.000000 0.057178 0.000000 0.000000
# 5 0.000000 0.000000 0.000000 0.000000 -0.136770 0.000000
# 6 0.000000 0.000000 0.000000 0.000000 0.000000 -0.008231
#
#
# Mechanical properties :
#
#
# Convention : Reuss Voigt Hill
#
# Bulk Modulus (GPa) = 32.89776 38.33300 35.61538
# Shear Modulus (GPa) = -184.68874 -6.76221 -95.72547
#
# Velocity S-wave (km/s) = -9.46660 -1.81142 -6.81534
# Velocity P-wave (km/s) = 10.17476 3.77165 6.68208
#
# Compressibility (1/GPa) = 0.03039721
#
# Stress axis : x y z
#
# Youngs Moduli (GPa) = 53.64743 68.50617 137.54760
#
# Poissons Ratio (x) = 0.15726 0.21289
# Poissons Ratio (y) = 0.12315 0.16671
# Poissons Ratio (z) = 0.08303 0.08303
#
# Static dielectric constant tensor:
#      x y z
#    x 1.782850 0.000000 0.000000 
#    y 0.000000 1.757400 0.000000 
#    z 0.000000 0.000000 1.659070 
# 
# From -- ./inp_files/35752.got.cif
#   From: 2010.05.17/outbox.cif.g08.bks.cpg/sg64_18_cif.got.tgz:35752.got - 2010.06.03 16:29:19.
