data_PCOD9480838
_publ_section_title
;
Structure prediction by ZEFSAII (Michael W. Deem and Ramdas Pophale) SiO2 
 PCOD9480838
Probable space group: C M C A
;
_chemical_formula_sum "Si O2"
_cell_formula_units_Z 64
_cell_length_a 27.048269
_cell_length_b 9.493348
_cell_length_c 9.287239
_cell_angle_alpha 90.000000
_cell_angle_beta 90.000000
_cell_angle_gamma 90.000000
_cell_volume 2384.764511
_symmetry_space_group_name_H-M "C M C A"
_symmetry_group_IT_number 64
_symmetry_cell_setting 'orthorhombic'
loop_
_space_group_symop_operation_xyz
x,y,z
-x,1/2-y,1/2+z
x,-y,-z
-x,1/2+y,1/2-z
-x,-y,-z
x,1/2+y,1/2-z
-x,y,z
x,1/2-y,1/2+z
1/2+x,1/2+y,z
1/2-x,-y,1/2+z
1/2+x,1/2-y,-z
1/2-x,y,1/2-z
1/2-x,1/2-y,-z
1/2+x,y,1/2-z
1/2-x,1/2+y,z
1/2+x,-y,1/2+z
loop_
_atom_site_type_symbol
_atom_site_label
_atom_site_fract_x
_atom_site_fract_y
_atom_site_fract_z
Si Si1 0.944723 0.665437 0.422777
Si Si2 0.444816 0.475771 0.344955
Si Si3 0.699994 0.932179 0.156454
Si Si4 0.339520 0.382620 0.896146
O O1 0.945879 0.808942 0.332638
O O2 0.936616 0.540945 0.309685
O O3 0.889518 0.662287 0.486260
O O4 0.000000 0.654992 0.490231
O O5 0.418793 0.500000 0.500000
O O6 0.500000 0.537732 0.370414
O O7 0.750000 0.939801 0.250000
O O8 0.685402 0.767613 0.138220
O O9 0.660916 0.029830 0.245034
O O10 0.705325 0.000000 0.000000
O O11 0.315671 0.500000 0.000000
#
# Coordination Sequence:
#
# PCOD9480838 Si02
#       4
#    16  16  16  16
#     4  10  22  40  64  98 143 195 247 293 343 412
#     4   9  19  36  57  83 123 178 236 293 348 401
#     4  12  28  53  82 111 146 188 240 307 380 451
#     4  12  27  46  74 113 153 197 248 302 365 437
#
# _framework density 26.837032000000001
#
# number of rings (size 3 to 8) (size 9 to 14) (size 15 to 20)
#    0.000    1.250    0.000    4.500    0.000   11.500 
#    0.000    6.250    0.000    0.000    0.000    0.000 
#    0.000    0.000    0.000    0.000    0.000    0.000 
#
# Total GULP energy -178341.549015 kJ/mol
# GULP energy per Si atom -5573.173407 kJ/mol
# Density = 2.677595 g / cm^3
# Si number density = 26.837032 Si / 1000 Ang^3
#
#
#
# Elastic Constant Matrix: (Units=GPa)
#
#
# Indices 1 2 3 4 5 6 
#
# 1 156.8367 17.5879 31.7819 0.0000 0.0000 0.0000
# 2 17.5879 217.9913 34.3464 0.0000 0.0000 0.0000
# 3 31.7819 34.3464 91.7237 0.0000 0.0000 0.0000
# 4 0.0000 0.0000 0.0000 54.9880 0.0000 0.0000
# 5 0.0000 0.0000 0.0000 0.0000 21.6843 0.0000
# 6 0.0000 0.0000 0.0000 0.0000 0.0000 10.5514
#
#
#
# Elastic Compliance Matrix: (Units=1/GPa)
#
#
# Indices 1 2 3 4 5 6 
#
# 1 0.006865 -0.000190 -0.002307 0.000000 0.000000 0.000000
# 2 -0.000190 0.004880 -0.001761 0.000000 0.000000 0.000000
# 3 -0.002307 -0.001761 0.012361 0.000000 0.000000 0.000000
# 4 0.000000 0.000000 0.000000 0.018186 0.000000 0.000000
# 5 0.000000 0.000000 0.000000 0.000000 0.046116 0.000000
# 6 0.000000 0.000000 0.000000 0.000000 0.000000 0.094774
#
#
# Mechanical properties :
#
#
# Convention : Reuss Voigt Hill
#
# Bulk Modulus (GPa) = 64.15118 70.44268 67.29693
# Shear Modulus (GPa) = 25.39392 42.96709 34.18051
#
# Velocity S-wave (km/s) = 3.07942 4.00564 3.57267
# Velocity P-wave (km/s) = 6.04976 6.90643 6.49224
#
# Compressibility (1/GPa) = 0.01558818
#
# Stress axis : x y z
#
# Youngs Moduli (GPa) = 145.66673 204.90833 80.89688
#
# Poissons Ratio (x) = 0.03900 0.18666
# Poissons Ratio (y) = 0.02772 0.14250
# Poissons Ratio (z) = 0.33611 0.36094
#
# Static dielectric constant tensor:
#      x y z
#    x 2.332510 0.000000 0.000000 
#    y 0.000000 2.258880 0.000000 
#    z 0.000000 0.000000 2.220570 
# 
# From -- ./inp_files/19491.got.cif
#   From: 2010.05.17/outbox.cif.g08.bks.cpg/sg64_10_cif.got.tgz:19491.got - 2010.06.03 16:29:19.
