data_PCOD9480624
_publ_section_title
;
Structure prediction by ZEFSAII (Michael W. Deem and Ramdas Pophale) SiO2 
 PCOD9480624
Probable space group: C M C A
;
_chemical_formula_sum "Si O2"
_cell_formula_units_Z 96
_cell_length_a 21.867758
_cell_length_b 18.406628
_cell_length_c 13.872960
_cell_angle_alpha 90.000000
_cell_angle_beta 90.000000
_cell_angle_gamma 90.000000
_cell_volume 5584.028529
_symmetry_space_group_name_H-M "C M C A"
_symmetry_group_IT_number 64
_symmetry_cell_setting 'orthorhombic'
loop_
_space_group_symop_operation_xyz
x,y,z
-x,1/2-y,1/2+z
x,-y,-z
-x,1/2+y,1/2-z
-x,-y,-z
x,1/2+y,1/2-z
-x,y,z
x,1/2-y,1/2+z
1/2+x,1/2+y,z
1/2-x,-y,1/2+z
1/2+x,1/2-y,-z
1/2-x,y,1/2-z
1/2-x,1/2-y,-z
1/2+x,y,1/2-z
1/2-x,1/2+y,z
1/2+x,-y,1/2+z
loop_
_atom_site_type_symbol
_atom_site_label
_atom_site_fract_x
_atom_site_fract_y
_atom_site_fract_z
Si Si1 0.148787 0.556157 0.919669
Si Si2 0.429229 0.953893 0.787355
Si Si3 0.732250 0.189685 0.861213
Si Si4 0.928681 0.660491 0.052899
Si Si5 0.844325 0.792476 0.994164
Si Si6 0.928342 0.427533 0.561509
O O1 0.116843 0.510517 0.835517
O O2 0.196768 0.614052 0.879483
O O3 0.174696 0.500000 0.000000
O O4 0.096863 0.601653 0.976677
O O5 0.500000 0.976156 0.805581
O O6 0.420837 0.877642 0.843313
O O7 0.420545 0.945308 0.674176
O O8 0.750000 0.199096 0.750000
O O9 0.688972 0.254088 0.902831
O O10 0.792034 0.189705 0.928460
O O11 0.000000 0.674661 0.036872
O O12 0.888911 0.732030 0.039570
O O13 0.883602 0.862519 0.966896
O O14 0.916264 0.500000 0.500000
O O15 0.000000 0.407330 0.546158
#
# Coordination Sequence:
#
# PCOD9480624 Si02
#       6
#    16  16  16  16  16  16
#     4   9  18  35  57  83 116 142 184 232 274 325
#     4   9  18  33  57  88 115 144 178 224 283 337
#     4  10  23  39  57  81 109 153 193 232 269 318
#     4   9  17  33  61  88 110 139 178 228 284 333
#     4  10  22  39  59  78 114 146 189 232 275 327
#     4  10  22  38  57  84 117 147 180 225 285 344
#
# _framework density 17.191890000000001
#
# number of rings (size 3 to 8) (size 9 to 14) (size 15 to 20)
#    0.000    2.500    0.000    1.000    4.667    2.667 
#    0.000    0.000    0.000    0.000    0.000    0.000 
#    0.000    0.000    0.000    0.000    0.000    0.000 
#
# Total GULP energy -267772.461114 kJ/mol
# GULP energy per Si atom -5578.592940 kJ/mol
# Density = 1.715276 g / cm^3
# Si number density = 17.191890 Si / 1000 Ang^3
#
#
#
# Elastic Constant Matrix: (Units=GPa)
#
#
# Indices 1 2 3 4 5 6 
#
# 1 115.7774 89.5201 77.6123 0.0000 0.0000 0.0000
# 2 89.5201 128.3313 77.1883 0.0000 0.0000 0.0000
# 3 77.6123 77.1883 137.9370 0.0000 0.0000 0.0000
# 4 0.0000 0.0000 0.0000 10.6539 0.0000 0.0000
# 5 0.0000 0.0000 0.0000 0.0000 21.3002 0.0000
# 6 0.0000 0.0000 0.0000 0.0000 0.0000 27.0392
#
#
#
# Elastic Compliance Matrix: (Units=1/GPa)
#
#
# Indices 1 2 3 4 5 6 
#
# 1 0.021206 -0.011480 -0.005508 0.000000 0.000000 0.000000
# 2 -0.011480 0.017960 -0.003591 0.000000 0.000000 0.000000
# 3 -0.005508 -0.003591 0.012358 0.000000 0.000000 0.000000
# 4 0.000000 0.000000 0.000000 0.093862 0.000000 0.000000
# 5 0.000000 0.000000 0.000000 0.000000 0.046948 0.000000
# 6 0.000000 0.000000 0.000000 0.000000 0.000000 0.036983
#
#
# Mechanical properties :
#
#
# Convention : Reuss Voigt Hill
#
# Bulk Modulus (GPa) = 96.46012 96.74300 96.60156
# Shear Modulus (GPa) = 18.25284 20.98033 19.61658
#
# Velocity S-wave (km/s) = 3.26193 3.49716 3.38159
# Velocity P-wave (km/s) = 8.39146 8.52651 8.45926
#
# Compressibility (1/GPa) = 0.01036698
#
# Stress axis : x y z
#
# Youngs Moduli (GPa) = 47.15752 55.67874 80.91733
#
# Poissons Ratio (x) = 0.63917 0.44567
# Poissons Ratio (y) = 0.54135 0.29059
# Poissons Ratio (z) = 0.25973 0.19995
#
# Static dielectric constant tensor:
#      x y z
#    x 1.569860 0.000000 0.000000 
#    y 0.000000 1.564060 0.000000 
#    z 0.000000 0.000000 1.559570 
# 
# From -- ./inp_files/18347.got.cif
#   From: 2010.05.17/outbox.cif.g08.bks.cpg/sg64_10_cif.got.tgz:18347.got - 2010.06.03 16:29:19.
