data_PCOD9480753
_publ_section_title
;
Structure prediction by ZEFSAII (Michael W. Deem and Ramdas Pophale) SiO2 
 PCOD9480753
Probable space group: C M C A
;
_chemical_formula_sum "Si O2"
_cell_formula_units_Z 64
_cell_length_a 14.265722
_cell_length_b 25.896735
_cell_length_c 8.101266
_cell_angle_alpha 90.000000
_cell_angle_beta 90.000000
_cell_angle_gamma 90.000000
_cell_volume 2992.896245
_symmetry_space_group_name_H-M "C M C A"
_symmetry_group_IT_number 64
_symmetry_cell_setting 'orthorhombic'
loop_
_space_group_symop_operation_xyz
x,y,z
-x,1/2-y,1/2+z
x,-y,-z
-x,1/2+y,1/2-z
-x,-y,-z
x,1/2+y,1/2-z
-x,y,z
x,1/2-y,1/2+z
1/2+x,1/2+y,z
1/2-x,-y,1/2+z
1/2+x,1/2-y,-z
1/2-x,y,1/2-z
1/2-x,1/2-y,-z
1/2+x,y,1/2-z
1/2-x,1/2+y,z
1/2+x,-y,1/2+z
loop_
_atom_site_type_symbol
_atom_site_label
_atom_site_fract_x
_atom_site_fract_y
_atom_site_fract_z
Si Si1 0.500000 0.682575 0.760923
Si Si2 0.840162 0.556481 0.937693
Si Si3 0.635719 0.596964 0.890113
Si Si4 0.636654 0.882835 0.753031
Si Si5 0.500000 0.799906 0.868075
O O1 0.590097 0.649665 0.822130
O O2 0.500000 0.739144 0.838505
O O3 0.500000 0.687813 0.563113
O O4 0.747493 0.591172 0.911317
O O5 0.887697 0.556811 0.757635
O O6 0.812269 0.500000 0.000000
O O7 0.892197 0.582937 0.089532
O O8 0.604675 0.592500 0.079807
O O9 0.750000 0.879350 0.750000
O O10 0.588892 0.827622 0.782179
#
# Coordination Sequence:
#
# PCOD9480753 Si02
#       5
#     8  16  16  16   8
#     4  12  24  46  67  98 138 179 228 286 346 401
#     4  10  22  40  68  97 133 176 223 279 339 404
#     4  10  22  39  65  97 134 170 223 279 333 402
#     4  10  22  42  66 102 135 177 231 279 336 410
#     4  12  24  46  70  97 141 182 226 288 342 401
#
# _framework density 21.383967999999999
#
# number of rings (size 3 to 8) (size 9 to 14) (size 15 to 20)
#    0.000    1.500    2.500    2.250   10.500    0.000 
#    4.500    6.875    0.000    0.000    0.000    0.000 
#    0.000    0.000    0.000    0.000    0.000    0.000 
#
# Total GULP energy -178284.303699 kJ/mol
# GULP energy per Si atom -5571.384491 kJ/mol
# Density = 2.133530 g / cm^3
# Si number density = 21.383968 Si / 1000 Ang^3
#
#
#
# Elastic Constant Matrix: (Units=GPa)
#
#
# Indices 1 2 3 4 5 6 
#
# 1 117.7404 34.3925 31.7570 0.0000 0.0000 0.0000
# 2 34.3925 88.3807 58.4373 0.0000 0.0000 0.0000
# 3 31.7570 58.4373 238.4569 0.0000 0.0000 0.0000
# 4 0.0000 0.0000 0.0000 36.5217 0.0000 0.0000
# 5 0.0000 0.0000 0.0000 0.0000 12.3419 0.0000
# 6 0.0000 0.0000 0.0000 0.0000 0.0000 -39.1312
#
#
#
# Elastic Compliance Matrix: (Units=1/GPa)
#
#
# Indices 1 2 3 4 5 6 
#
# 1 0.009620 -0.003457 -0.000434 0.000000 0.000000 0.000000
# 2 -0.003457 0.014745 -0.003153 0.000000 0.000000 0.000000
# 3 -0.000434 -0.003153 0.005024 0.000000 0.000000 0.000000
# 4 0.000000 0.000000 0.000000 0.027381 0.000000 0.000000
# 5 0.000000 0.000000 0.000000 0.000000 0.081025 0.000000
# 6 0.000000 0.000000 0.000000 0.000000 0.000000 -0.025555
#
#
# Mechanical properties :
#
#
# Convention : Reuss Voigt Hill
#
# Bulk Modulus (GPa) = 65.35345 77.08350 71.21848
# Shear Modulus (GPa) = 38.04392 23.27922 30.66157
#
# Velocity S-wave (km/s) = 4.22250 3.30302 3.79074
# Velocity P-wave (km/s) = 7.37570 7.11844 7.24821
#
# Compressibility (1/GPa) = 0.01530141
#
# Stress axis : x y z
#
# Youngs Moduli (GPa) = 103.95004 67.82172 199.03908
#
# Poissons Ratio (x) = 0.23443 0.08640
# Poissons Ratio (y) = 0.35930 0.62758
# Poissons Ratio (z) = 0.04512 0.21384
#
# Static dielectric constant tensor:
#      x y z
#    x 1.812830 0.000000 0.000000 
#    y 0.000000 1.730320 0.000000 
#    z 0.000000 0.000000 1.851590 
# 
# From -- ./inp_files/5662.got.cif
#   From: 2010.05.17/outbox.cif.g08.bks.cpg/sg64_3_cif.got.tgz:5662.got - 2010.06.03 16:29:19.
