data_PCOD9480676
_publ_section_title
;
Structure prediction by ZEFSAII (Michael W. Deem and Ramdas Pophale) SiO2 
 PCOD9480676
Probable space group: C M C A
;
_chemical_formula_sum "Si O2"
_cell_formula_units_Z 48
_cell_length_a 25.964599
_cell_length_b 17.498017
_cell_length_c 5.046800
_cell_angle_alpha 90.000000
_cell_angle_beta 90.000000
_cell_angle_gamma 90.000000
_cell_volume 2292.907570
_symmetry_space_group_name_H-M "C M C A"
_symmetry_group_IT_number 64
_symmetry_cell_setting 'orthorhombic'
loop_
_space_group_symop_operation_xyz
x,y,z
-x,1/2-y,1/2+z
x,-y,-z
-x,1/2+y,1/2-z
-x,-y,-z
x,1/2+y,1/2-z
-x,y,z
x,1/2-y,1/2+z
1/2+x,1/2+y,z
1/2-x,-y,1/2+z
1/2+x,1/2-y,-z
1/2-x,y,1/2-z
1/2-x,1/2-y,-z
1/2+x,y,1/2-z
1/2-x,1/2+y,z
1/2+x,-y,1/2+z
loop_
_atom_site_type_symbol
_atom_site_label
_atom_site_fract_x
_atom_site_fract_y
_atom_site_fract_z
Si Si1 0.250000 0.193588 0.250000
Si Si2 0.695247 0.916241 0.405944
Si Si3 0.386806 0.694096 0.673097
Si Si4 0.500000 0.800715 0.101727
O O1 0.250000 0.250000 0.500000
O O2 0.294923 0.135594 0.334150
O O3 0.750000 0.921258 0.250000
O O4 0.654132 0.871834 0.228005
O O5 0.679717 0.000000 0.500000
O O6 0.380837 0.743975 0.408547
O O7 0.445275 0.661722 0.667079
O O8 0.500000 0.726358 0.296597
#
# Coordination Sequence:
#
# PCOD9480676 Si02
#       4
#     8  16  16   8
#     4  12  24  40  62  84 114 156 214 252 290 360
#     4  12  26  41  59  90 131 170 201 253 314 368
#     4  10  22  38  64  90 117 158 208 255 302 364
#     4   8  16  36  59  88 117 146 198 262 306 346
#
# _framework density 20.934118000000002
#
# number of rings (size 3 to 8) (size 9 to 14) (size 15 to 20)
#    0.000    1.333    3.333    2.000    4.667    0.000 
#    0.000    0.833    0.000    0.000    0.000   15.167 
#    0.000    0.000    0.000    0.000    0.000    0.000 
#
# Total GULP energy -134047.704007 kJ/mol
# GULP energy per Si atom -5585.321000 kJ/mol
# Density = 2.088647 g / cm^3
# Si number density = 20.934118 Si / 1000 Ang^3
#
#
#
# Elastic Constant Matrix: (Units=GPa)
#
#
# Indices 1 2 3 4 5 6 
#
# 1 117.7797 31.1769 2.6172 0.0000 0.0000 0.0000
# 2 31.1769 119.7404 35.5220 0.0000 0.0000 0.0000
# 3 2.6172 35.5220 134.5606 0.0000 0.0000 0.0000
# 4 0.0000 0.0000 0.0000 15.2198 0.0000 0.0000
# 5 0.0000 0.0000 0.0000 0.0000 26.1210 0.0000
# 6 0.0000 0.0000 0.0000 0.0000 0.0000 14.3332
#
#
#
# Elastic Compliance Matrix: (Units=1/GPa)
#
#
# Indices 1 2 3 4 5 6 
#
# 1 0.009148 -0.002527 0.000489 0.000000 0.000000 0.000000
# 2 -0.002527 0.009759 -0.002527 0.000000 0.000000 0.000000
# 3 0.000489 -0.002527 0.008089 0.000000 0.000000 0.000000
# 4 0.000000 0.000000 0.000000 0.065704 0.000000 0.000000
# 5 0.000000 0.000000 0.000000 0.000000 0.038283 0.000000
# 6 0.000000 0.000000 0.000000 0.000000 0.000000 0.069768
#
#
# Mechanical properties :
#
#
# Convention : Reuss Voigt Hill
#
# Bulk Modulus (GPa) = 55.97007 56.74590 56.35799
# Shear Modulus (GPa) = 23.16557 31.31912 27.24234
#
# Velocity S-wave (km/s) = 3.33016 3.87212 3.61132
# Velocity P-wave (km/s) = 6.44833 6.86708 6.66100
#
# Compressibility (1/GPa) = 0.01786669
#
# Stress axis : x y z
#
# Youngs Moduli (GPa) = 109.30759 102.46875 123.62166
#
# Poissons Ratio (x) = 0.25895 -0.06047
# Poissons Ratio (y) = 0.27623 0.31240
# Poissons Ratio (z) = -0.05347 0.25895
#
# Static dielectric constant tensor:
#      x y z
#    x 1.877750 0.000000 0.000000 
#    y 0.000000 1.700760 0.000000 
#    z 0.000000 0.000000 1.983580 
# 
# From -- ./inp_files/2589.got.cif
#   From: 2010.05.17/outbox.cif.g08.bks.cpg/sg64_2_cif.got.tgz:2589.got - 2010.06.03 16:29:19.
