data_PCOD9480353
_publ_section_title
;
Structure prediction by ZEFSAII (Michael W. Deem and Ramdas Pophale) SiO2 
 PCOD9480353
Probable space group: C M C A
;
_chemical_formula_sum "Si O2"
_cell_formula_units_Z 96
_cell_length_a 17.010509
_cell_length_b 18.958308
_cell_length_c 15.644237
_cell_angle_alpha 90.000000
_cell_angle_beta 90.000000
_cell_angle_gamma 90.000000
_cell_volume 5045.117325
_symmetry_space_group_name_H-M "C M C A"
_symmetry_group_IT_number 64
_symmetry_cell_setting 'orthorhombic'
loop_
_space_group_symop_operation_xyz
x,y,z
-x,1/2-y,1/2+z
x,-y,-z
-x,1/2+y,1/2-z
-x,-y,-z
x,1/2+y,1/2-z
-x,y,z
x,1/2-y,1/2+z
1/2+x,1/2+y,z
1/2-x,-y,1/2+z
1/2+x,1/2-y,-z
1/2-x,y,1/2-z
1/2-x,1/2-y,-z
1/2+x,y,1/2-z
1/2-x,1/2+y,z
1/2+x,-y,1/2+z
loop_
_atom_site_type_symbol
_atom_site_label
_atom_site_fract_x
_atom_site_fract_y
_atom_site_fract_z
Si Si1 0.173324 0.543771 0.296724
Si Si2 0.592688 0.181976 0.362669
Si Si3 0.841471 0.704520 0.728780
Si Si4 0.762288 0.442858 0.072834
Si Si5 0.409177 0.070277 0.813173
Si Si6 0.178575 0.702614 0.533126
O O1 0.250000 0.576017 0.250000
O O2 0.128636 0.604548 0.346789
O O3 0.211213 0.483079 0.355607
O O4 0.115847 0.503089 0.231753
O O5 0.500000 0.181461 0.349797
O O6 0.631250 0.234699 0.293585
O O7 0.613797 0.204876 0.459057
O O8 0.750000 0.687947 0.750000
O O9 0.892479 0.635062 0.748862
O O10 0.847079 0.724050 0.628803
O O11 0.845602 0.419176 0.111765
O O12 0.713101 0.376298 0.041307
O O13 0.776412 0.500000 0.000000
O O14 0.500000 0.069923 0.839007
O O15 0.250000 0.750000 0.500000
#
# Coordination Sequence:
#
# PCOD9480353 Si02
#       6
#    16  16  16  16  16  16
#     4  10  21  40  65  89 126 171 218 255 316 399
#     4  12  26  41  63 100 133 163 214 283 336 374
#     4  12  22  43  68  90 126 178 222 259 325 402
#     4  11  21  40  65  93 125 172 222 260 318 401
#     4  11  22  38  63  95 130 168 215 272 326 381
#     4  12  24  41  68  97 126 173 225 267 318 397
#
# _framework density 19.028300000000002
#
# number of rings (size 3 to 8) (size 9 to 14) (size 15 to 20)
#    0.000    0.667    6.667    2.000    0.000    1.667 
#    0.000    0.833    0.000    4.000    0.000    0.000 
#    0.000    0.000    0.000    0.000    0.000    0.000 
#
# Total GULP energy -268243.194804 kJ/mol
# GULP energy per Si atom -5588.399892 kJ/mol
# Density = 1.898499 g / cm^3
# Si number density = 19.028300 Si / 1000 Ang^3
#
#
#
# Elastic Constant Matrix: (Units=GPa)
#
#
# Indices 1 2 3 4 5 6 
#
# 1 111.9157 27.3925 26.5806 0.0000 0.0000 0.0000
# 2 27.3925 40.5267 21.2169 0.0000 0.0000 0.0000
# 3 26.5806 21.2169 113.9563 0.0000 0.0000 0.0000
# 4 0.0000 0.0000 0.0000 37.2447 0.0000 0.0000
# 5 0.0000 0.0000 0.0000 0.0000 24.8851 0.0000
# 6 0.0000 0.0000 0.0000 0.0000 0.0000 19.8866
#
#
#
# Elastic Compliance Matrix: (Units=1/GPa)
#
#
# Indices 1 2 3 4 5 6 
#
# 1 0.010876 -0.006674 -0.001294 0.000000 0.000000 0.000000
# 2 -0.006674 0.031435 -0.004296 0.000000 0.000000 0.000000
# 3 -0.001294 -0.004296 0.009877 0.000000 0.000000 0.000000
# 4 0.000000 0.000000 0.000000 0.026849 0.000000 0.000000
# 5 0.000000 0.000000 0.000000 0.000000 0.040185 0.000000
# 6 0.000000 0.000000 0.000000 0.000000 0.000000 0.050285
#
#
# Mechanical properties :
#
#
# Convention : Reuss Voigt Hill
#
# Bulk Modulus (GPa) = 36.15324 46.30876 41.23100
# Shear Modulus (GPa) = 24.59953 29.15052 26.87503
#
# Velocity S-wave (km/s) = 3.59943 3.91827 3.76223
# Velocity P-wave (km/s) = 6.02624 6.69776 6.37085
#
# Compressibility (1/GPa) = 0.02766004
#
# Stress axis : x y z
#
# Youngs Moduli (GPa) = 91.94411 31.81159 101.24460
#
# Poissons Ratio (x) = 0.21230 0.13105
# Poissons Ratio (y) = 0.61361 0.43495
# Poissons Ratio (z) = 0.11901 0.13667
#
# Static dielectric constant tensor:
#      x y z
#    x 1.636370 0.000000 0.000000 
#    y 0.000000 1.652110 0.000000 
#    z 0.000000 0.000000 1.709540 
# 
# From -- ./inp_files/23853.got.cif
#   From: 2010.05.17/outbox.cif.g08.bks.cpg/sg64_12_cif.got.tgz:23853.got - 2010.06.03 16:29:19.
