data_PCOD9480751
_publ_section_title
;
Structure prediction by ZEFSAII (Michael W. Deem and Ramdas Pophale) SiO2 
 PCOD9480751
Probable space group: C M C A
;
_chemical_formula_sum "Si O2"
_cell_formula_units_Z 96
_cell_length_a 14.453994
_cell_length_b 23.815716
_cell_length_c 11.665221
_cell_angle_alpha 90.000000
_cell_angle_beta 90.000000
_cell_angle_gamma 90.000000
_cell_volume 4015.544877
_symmetry_space_group_name_H-M "C M C A"
_symmetry_group_IT_number 64
_symmetry_cell_setting 'orthorhombic'
loop_
_space_group_symop_operation_xyz
x,y,z
-x,1/2-y,1/2+z
x,-y,-z
-x,1/2+y,1/2-z
-x,-y,-z
x,1/2+y,1/2-z
-x,y,z
x,1/2-y,1/2+z
1/2+x,1/2+y,z
1/2-x,-y,1/2+z
1/2+x,1/2-y,-z
1/2-x,y,1/2-z
1/2-x,1/2-y,-z
1/2+x,y,1/2-z
1/2-x,1/2+y,z
1/2+x,-y,1/2+z
loop_
_atom_site_type_symbol
_atom_site_label
_atom_site_fract_x
_atom_site_fract_y
_atom_site_fract_z
Si Si1 0.630432 0.055227 0.938109
Si Si2 0.346084 0.563447 0.999387
Si Si3 0.395208 0.171443 0.052873
Si Si4 0.108415 0.852825 0.806675
Si Si5 0.335834 0.269578 0.338280
Si Si6 0.861741 0.380356 0.273065
O O1 0.608946 0.067019 0.805692
O O2 0.740873 0.055939 0.956947
O O3 0.595522 0.110481 0.999131
O O4 0.596706 0.000000 0.000000
O O5 0.349113 0.596933 0.118853
O O6 0.385687 0.500000 0.000000
O O7 0.386642 0.604947 0.902381
O O8 0.500000 0.196726 0.060017
O O9 0.355771 0.158758 0.178155
O O10 0.327505 0.204547 0.966580
O O11 0.119346 0.790809 0.859118
O O12 0.000000 0.866601 0.795600
O O13 0.250000 0.261995 0.250000
O O14 0.393272 0.319521 0.273634
O O15 0.750000 0.377004 0.250000
#
# Coordination Sequence:
#
# PCOD9480751 Si02
#       6
#    16  16  16  16  16  16
#     4   9  19  36  64  93 123 165 225 282 330 398
#     4  10  22  39  65  96 132 178 231 283 338 399
#     4  10  23  42  62  94 141 177 216 277 345 412
#     4  11  26  42  62  96 138 178 223 281 347 416
#     4  10  22  41  68  95 126 172 227 283 335 401
#     4   8  17  37  57  91 128 157 211 280 332 389
#
# _framework density 23.907091000000001
#
# number of rings (size 3 to 8) (size 9 to 14) (size 15 to 20)
#    0.000    2.333    0.000    1.500    7.000    1.333 
#    0.000    3.333    0.000    0.000    0.000    0.000 
#    0.000    0.000    0.000    0.000    0.000    0.000 
#
# Total GULP energy -267686.882799 kJ/mol
# GULP energy per Si atom -5576.810058 kJ/mol
# Density = 2.385268 g / cm^3
# Si number density = 23.907091 Si / 1000 Ang^3
#
#
#
# Elastic Constant Matrix: (Units=GPa)
#
#
# Indices 1 2 3 4 5 6 
#
# 1 69.0707 5.9222 5.7503 0.0000 0.0000 0.0000
# 2 5.9222 112.2483 37.1752 0.0000 0.0000 0.0000
# 3 5.7503 37.1752 142.4077 0.0000 0.0000 0.0000
# 4 0.0000 0.0000 0.0000 22.4296 0.0000 0.0000
# 5 0.0000 0.0000 0.0000 0.0000 138.8917 0.0000
# 6 0.0000 0.0000 0.0000 0.0000 0.0000 1092.0101
#
#
#
# Elastic Compliance Matrix: (Units=1/GPa)
#
#
# Indices 1 2 3 4 5 6 
#
# 1 0.014567 -0.000628 -0.000424 0.000000 0.000000 0.000000
# 2 -0.000628 0.009779 -0.002527 0.000000 0.000000 0.000000
# 3 -0.000424 -0.002527 0.007699 0.000000 0.000000 0.000000
# 4 0.000000 0.000000 0.000000 0.044584 0.000000 0.000000
# 5 0.000000 0.000000 0.000000 0.000000 0.007200 0.000000
# 6 0.000000 0.000000 0.000000 0.000000 0.000000 0.000916
#
#
# Mechanical properties :
#
#
# Convention : Reuss Voigt Hill
#
# Bulk Modulus (GPa) = 40.18384 46.82469 43.50426
# Shear Modulus (GPa) = 49.90055 268.99156 159.44605
#
# Velocity S-wave (km/s) = 4.57362 10.61883 8.17550
# Velocity P-wave (km/s) = 6.68846 13.03744 10.36123
#
# Compressibility (1/GPa) = 0.02488563
#
# Stress axis : x y z
#
# Youngs Moduli (GPa) = 68.64792 102.25985 129.88689
#
# Poissons Ratio (x) = 0.06422 0.05511
# Poissons Ratio (y) = 0.04311 0.32828
# Poissons Ratio (z) = 0.02912 0.25845
#
# Static dielectric constant tensor:
#      x y z
#    x 2.117590 0.000000 0.000000 
#    y 0.000000 1.876580 0.000000 
#    z 0.000000 0.000000 1.976920 
# 
# From -- ./inp_files/16240.got.cif
#   From: 2010.05.17/outbox.cif.g08.bks.cpg/sg64_9_cif.got.tgz:16240.got - 2010.06.03 16:29:19.
