data_PCOD9480335
_publ_section_title
;
Structure prediction by ZEFSAII (Michael W. Deem and Ramdas Pophale) SiO2 
 PCOD9480335
Probable space group: C M C A
;
_chemical_formula_sum "Si O2"
_cell_formula_units_Z 72
_cell_length_a 18.630850
_cell_length_b 21.672185
_cell_length_c 8.850611
_cell_angle_alpha 90.000000
_cell_angle_beta 90.000000
_cell_angle_gamma 90.000000
_cell_volume 3573.622071
_symmetry_space_group_name_H-M "C M C A"
_symmetry_group_IT_number 64
_symmetry_cell_setting 'orthorhombic'
loop_
_space_group_symop_operation_xyz
x,y,z
-x,1/2-y,1/2+z
x,-y,-z
-x,1/2+y,1/2-z
-x,-y,-z
x,1/2+y,1/2-z
-x,y,z
x,1/2-y,1/2+z
1/2+x,1/2+y,z
1/2-x,-y,1/2+z
1/2+x,1/2-y,-z
1/2-x,y,1/2-z
1/2-x,1/2-y,-z
1/2+x,y,1/2-z
1/2-x,1/2+y,z
1/2+x,-y,1/2+z
loop_
_atom_site_type_symbol
_atom_site_label
_atom_site_fract_x
_atom_site_fract_y
_atom_site_fract_z
Si Si1 0.580429 0.464925 0.646064
Si Si2 0.250000 0.245131 0.750000
Si Si3 0.195135 0.449467 0.615653
Si Si4 0.000000 0.843236 0.600757
Si Si5 0.657461 0.318021 0.999074
Si Si6 0.500000 0.726113 0.081791
O O1 0.609569 0.500000 0.500000
O O2 0.500000 0.489854 0.670530
O O3 0.627099 0.474754 0.792554
O O4 0.566832 0.391555 0.613300
O O5 0.304972 0.205146 0.651125
O O6 0.298750 0.285093 0.863178
O O7 0.223798 0.500000 0.500000
O O8 0.250000 0.432966 0.750000
O O9 0.170279 0.389938 0.524727
O O10 0.000000 0.799477 0.454649
O O11 0.000000 0.797591 0.744795
O O12 0.573880 0.300144 0.988452
#
# Coordination Sequence:
#
# PCOD9480335 Si02
#       6
#    16   8  16   8  16   8
#     4   9  20  45  67  91 130 175 212 272 336 390
#     4  10  24  42  70  94 136 180 210 272 350 402
#     4  12  26  44  67  95 131 173 227 283 333 405
#     4  10  21  40  64 100 127 170 214 273 327 387
#     4  11  23  45  65  99 135 172 222 275 335 405
#     4  12  22  40  68 100 133 171 224 275 329 395
#
# _framework density 20.147625000000001
#
# number of rings (size 3 to 8) (size 9 to 14) (size 15 to 20)
#    0.667    0.667    3.333    2.000    1.556    0.444 
#    8.000    0.000    0.000    0.000    0.000    0.000 
#    0.000    0.000    0.000    0.000    0.000    0.000 
#
# Total GULP energy -200923.707266 kJ/mol
# GULP energy per Si atom -5581.214091 kJ/mol
# Density = 2.010177 g / cm^3
# Si number density = 20.147625 Si / 1000 Ang^3
#
#
#
# Elastic Constant Matrix: (Units=GPa)
#
#
# Indices 1 2 3 4 5 6 
#
# 1 111.5295 23.8517 20.9253 0.0000 0.0000 0.0000
# 2 23.8517 63.2951 43.3696 0.0000 0.0000 0.0000
# 3 20.9253 43.3696 85.1113 0.0000 0.0000 0.0000
# 4 0.0000 0.0000 0.0000 22.6025 0.0000 0.0000
# 5 0.0000 0.0000 0.0000 0.0000 24.3634 0.0000
# 6 0.0000 0.0000 0.0000 0.0000 0.0000 20.1338
#
#
#
# Elastic Compliance Matrix: (Units=1/GPa)
#
#
# Indices 1 2 3 4 5 6 
#
# 1 0.009788 -0.003134 -0.000810 0.000000 0.000000 0.000000
# 2 -0.003134 0.025278 -0.012110 0.000000 0.000000 0.000000
# 3 -0.000810 -0.012110 0.018119 0.000000 0.000000 0.000000
# 4 0.000000 0.000000 0.000000 0.044243 0.000000 0.000000
# 5 0.000000 0.000000 0.000000 0.000000 0.041045 0.000000
# 6 0.000000 0.000000 0.000000 0.000000 0.000000 0.049668
#
#
# Mechanical properties :
#
#
# Convention : Reuss Voigt Hill
#
# Bulk Modulus (GPa) = 47.44251 48.46991 47.95621
# Shear Modulus (GPa) = 21.99984 24.87257 23.43621
#
# Velocity S-wave (km/s) = 3.30802 3.51738 3.41431
# Velocity P-wave (km/s) = 6.17975 6.37225 6.27674
#
# Compressibility (1/GPa) = 0.02107814
#
# Stress axis : x y z
#
# Youngs Moduli (GPa) = 102.16241 39.56047 55.18985
#
# Poissons Ratio (x) = 0.12397 0.04469
# Poissons Ratio (y) = 0.32015 0.66836
# Poissons Ratio (z) = 0.08272 0.47908
#
# Static dielectric constant tensor:
#      x y z
#    x 1.736830 0.000000 0.000000 
#    y 0.000000 1.698210 0.000000 
#    z 0.000000 0.000000 1.691840 
# 
# From -- ./inp_files/6909.got.cif
#   From: 2010.05.17/outbox.cif.g08.bks.cpg/sg64_4_cif.got.tgz:6909.got - 2010.06.03 16:29:19.
