data_PCOD9480472
_publ_section_title
;
Structure prediction by ZEFSAII (Michael W. Deem and Ramdas Pophale) SiO2 
 PCOD9480472
Probable space group: C M C A
;
_chemical_formula_sum "Si O2"
_cell_formula_units_Z 80
_cell_length_a 14.781277
_cell_length_b 10.253679
_cell_length_c 23.987026
_cell_angle_alpha 90.000000
_cell_angle_beta 90.000000
_cell_angle_gamma 90.000000
_cell_volume 3635.532898
_symmetry_space_group_name_H-M "C M C A"
_symmetry_group_IT_number 64
_symmetry_cell_setting 'orthorhombic'
loop_
_space_group_symop_operation_xyz
x,y,z
-x,1/2-y,1/2+z
x,-y,-z
-x,1/2+y,1/2-z
-x,-y,-z
x,1/2+y,1/2-z
-x,y,z
x,1/2-y,1/2+z
1/2+x,1/2+y,z
1/2-x,-y,1/2+z
1/2+x,1/2-y,-z
1/2-x,y,1/2-z
1/2-x,1/2-y,-z
1/2+x,y,1/2-z
1/2-x,1/2+y,z
1/2+x,-y,1/2+z
loop_
_atom_site_type_symbol
_atom_site_label
_atom_site_fract_x
_atom_site_fract_y
_atom_site_fract_z
Si Si1 0.897036 0.107750 0.129339
Si Si2 0.347234 0.185941 0.610631
Si Si3 0.108381 0.346028 0.507264
Si Si4 0.000000 0.075582 0.722514
Si Si5 0.809298 0.696817 0.805630
Si Si6 0.000000 0.709542 0.183490
O O1 0.869248 0.180214 0.071678
O O2 0.837088 0.153391 0.181012
O O3 0.000000 0.144318 0.140951
O O4 0.894293 0.955388 0.116229
O O5 0.344235 0.221707 0.545353
O O6 0.254392 0.163043 0.642686
O O7 0.410916 0.284791 0.644852
O O8 0.126845 0.500000 0.500000
O O9 0.000000 0.326353 0.500830
O O10 0.096270 0.119042 0.695952
O O11 0.000000 0.158859 0.779608
O O12 0.000000 0.918858 0.721656
O O13 0.750000 0.682938 0.750000
#
# Coordination Sequence:
#
# PCOD9480472 Si02
#       6
#    16  16  16   8  16   8
#     4  10  21  41  71  97 135 177 222 278 329 394
#     4  11  22  39  69 101 130 175 227 279 324 387
#     4   8  15  34  64  99 129 171 223 270 327 388
#     4  12  30  48  63  93 139 177 218 271 341 406
#     4  12  27  42  65  97 133 173 223 273 339 399
#     4  12  26  46  70  97 138 174 224 280 329 398
#
# _framework density 22.005027999999999
#
# number of rings (size 3 to 8) (size 9 to 14) (size 15 to 20)
#    0.000    1.400    5.000    1.200    5.600    1.600 
#    0.000    0.000    0.000    1.200    0.000    0.000 
#    0.000    0.000    0.000    0.000    0.000    0.000 
#
# Total GULP energy -223190.209944 kJ/mol
# GULP energy per Si atom -5579.755249 kJ/mol
# Density = 2.195494 g / cm^3
# Si number density = 22.005028 Si / 1000 Ang^3
#
#
#
# Elastic Constant Matrix: (Units=GPa)
#
#
# Indices 1 2 3 4 5 6 
#
# 1 116.8394 3.1878 64.8291 0.0000 0.0000 0.0000
# 2 3.1878 56.4820 27.3762 0.0000 0.0000 0.0000
# 3 64.8291 27.3762 95.3055 0.0000 0.0000 0.0000
# 4 0.0000 0.0000 0.0000 19.9093 0.0000 0.0000
# 5 0.0000 0.0000 0.0000 0.0000 22.7891 0.0000
# 6 0.0000 0.0000 0.0000 0.0000 0.0000 16.7663
#
#
#
# Elastic Compliance Matrix: (Units=1/GPa)
#
#
# Indices 1 2 3 4 5 6 
#
# 1 0.014740 0.004679 -0.011371 0.000000 0.000000 0.000000
# 2 0.004679 0.022054 -0.009518 0.000000 0.000000 0.000000
# 3 -0.011371 -0.009518 0.020961 0.000000 0.000000 0.000000
# 4 0.000000 0.000000 0.000000 0.050228 0.000000 0.000000
# 5 0.000000 0.000000 0.000000 0.000000 0.043881 0.000000
# 6 0.000000 0.000000 0.000000 0.000000 0.000000 0.059644
#
#
# Mechanical properties :
#
#
# Convention : Reuss Voigt Hill
#
# Bulk Modulus (GPa) = 39.46845 51.04589 45.25717
# Shear Modulus (GPa) = 19.81202 23.44183 21.62693
#
# Velocity S-wave (km/s) = 3.00382 3.26743 3.13839
# Velocity P-wave (km/s) = 5.47774 6.12229 5.80896
#
# Compressibility (1/GPa) = 0.02533669
#
# Stress axis : x y z
#
# Youngs Moduli (GPa) = 67.84135 45.34343 47.70695
#
# Poissons Ratio (x) = -0.21218 0.54247
# Poissons Ratio (y) = -0.31746 0.45407
# Poissons Ratio (z) = 0.77141 0.43158
#
# Static dielectric constant tensor:
#      x y z
#    x 1.849600 0.000000 0.000000 
#    y 0.000000 1.804220 0.000000 
#    z 0.000000 0.000000 1.866980 
# 
# From -- ./inp_files/45006.got.cif
#   From: 2010.05.17/outbox.cif.g08.bks.cpg/sg64_23_cif.got.tgz:45006.got - 2010.06.03 16:29:19.
