data_PCOD9480664
_publ_section_title
;
Structure prediction by ZEFSAII (Michael W. Deem and Ramdas Pophale) SiO2 
 PCOD9480664
Probable space group: C M C A
;
_chemical_formula_sum "Si O2"
_cell_formula_units_Z 72
_cell_length_a 18.511983
_cell_length_b 8.178373
_cell_length_c 18.829924
_cell_angle_alpha 90.000000
_cell_angle_beta 90.000000
_cell_angle_gamma 90.000000
_cell_volume 2850.810987
_symmetry_space_group_name_H-M "C M C A"
_symmetry_group_IT_number 64
_symmetry_cell_setting 'orthorhombic'
loop_
_space_group_symop_operation_xyz
x,y,z
-x,1/2-y,1/2+z
x,-y,-z
-x,1/2+y,1/2-z
-x,-y,-z
x,1/2+y,1/2-z
-x,y,z
x,1/2-y,1/2+z
1/2+x,1/2+y,z
1/2-x,-y,1/2+z
1/2+x,1/2-y,-z
1/2-x,y,1/2-z
1/2-x,1/2-y,-z
1/2+x,y,1/2-z
1/2-x,1/2+y,z
1/2+x,-y,1/2+z
loop_
_atom_site_type_symbol
_atom_site_label
_atom_site_fract_x
_atom_site_fract_y
_atom_site_fract_z
Si Si1 0.250000 0.704626 0.750000
Si Si2 0.111033 0.004105 0.206341
Si Si3 0.579616 0.370262 0.347880
Si Si4 0.210978 0.089856 0.394289
Si Si5 0.643060 0.596906 0.936491
O O1 0.184608 0.578531 0.736044
O O2 0.102955 0.809893 0.819888
O O3 0.068755 0.981559 0.278304
O O4 0.235208 0.186742 0.321487
O O5 0.500000 0.358636 0.383791
O O6 0.648315 0.453428 0.385945
O O7 0.595618 0.902149 0.364915
O O8 0.175068 0.223387 0.446224
O O9 0.285279 0.011461 0.420235
O O10 0.605907 0.500000 0.000000
#
# Coordination Sequence:
#
# PCOD9480664 Si02
#       5
#     8  16  16  16  16
#     4  10  22  38  62  96 124 150 194 266 334 370
#     4  11  22  38  61  91 124 157 201 255 316 370
#     4  12  25  41  63  90 124 166 210 254 301 365
#     4  11  22  38  62  92 126 157 198 255 317 370
#     4  11  22  38  64  94 124 157 198 254 317 378
#
# _framework density 25.255972
#
# number of rings (size 3 to 8) (size 9 to 14) (size 15 to 20)
#    0.000    0.889    0.000   10.667    0.000    4.444 
#    0.000    4.444    0.000   10.667    0.000    0.000 
#    0.000    0.000    0.000    0.000    0.000    0.000 
#
# Total GULP energy -200675.070572 kJ/mol
# GULP energy per Si atom -5574.307516 kJ/mol
# Density = 2.519849 g / cm^3
# Si number density = 25.255972 Si / 1000 Ang^3
#
#
#
# Elastic Constant Matrix: (Units=GPa)
#
#
# Indices 1 2 3 4 5 6 
#
# 1 71.7399 17.4828 6.4471 0.0000 0.0000 0.0000
# 2 17.4828 113.2349 -11.3545 0.0000 0.0000 0.0000
# 3 6.4471 -11.3545 61.5768 0.0000 0.0000 0.0000
# 4 0.0000 0.0000 0.0000 34.6164 0.0000 0.0000
# 5 0.0000 0.0000 0.0000 0.0000 3344.1888 0.0000
# 6 0.0000 0.0000 0.0000 0.0000 0.0000 54.7298
#
#
#
# Elastic Compliance Matrix: (Units=1/GPa)
#
#
# Indices 1 2 3 4 5 6 
#
# 1 0.014721 -0.002473 -0.001997 0.000000 0.000000 0.000000
# 2 -0.002473 0.009413 0.001995 0.000000 0.000000 0.000000
# 3 -0.001997 0.001995 0.016817 0.000000 0.000000 0.000000
# 4 0.000000 0.000000 0.000000 0.028888 0.000000 0.000000
# 5 0.000000 0.000000 0.000000 0.000000 0.000299 0.000000
# 6 0.000000 0.000000 0.000000 0.000000 0.000000 0.018272
#
#
# Mechanical properties :
#
#
# Convention : Reuss Voigt Hill
#
# Bulk Modulus (GPa) = 27.77815 30.18916 28.98365
# Shear Modulus (GPa) = 47.45560 702.30542 374.88051
#
# Velocity S-wave (km/s) = 4.33943 16.69367 12.19650
# Velocity P-wave (km/s) = 6.01083 19.58445 14.48587
#
# Compressibility (1/GPa) = 0.03599952
#
# Stress axis : x y z
#
# Youngs Moduli (GPa) = 67.92804 106.23543 59.46426
#
# Poissons Ratio (x) = 0.26274 0.11877
# Poissons Ratio (y) = 0.16800 -0.11861
# Poissons Ratio (z) = 0.13568 -0.21191
#
# Static dielectric constant tensor:
#      x y z
#    x 1.676690 0.000000 0.000000 
#    y 0.000000 2.040030 0.000000 
#    z 0.000000 0.000000 2.151870 
# 
# From -- ./inp_files/45648.got.cif
#   From: 2010.05.17/outbox.cif.g08.bks.cpg/sg64_23_cif.got.tgz:45648.got - 2010.06.03 16:29:19.
