data_PCOD9480950
_publ_section_title
;
Structure prediction by ZEFSAII (Michael W. Deem and Ramdas Pophale) SiO2 
 PCOD9480950
Probable space group: C M C A
;
_chemical_formula_sum "Si O2"
_cell_formula_units_Z 72
_cell_length_a 21.655443
_cell_length_b 8.792654
_cell_length_c 14.032304
_cell_angle_alpha 90.000000
_cell_angle_beta 90.000000
_cell_angle_gamma 90.000000
_cell_volume 2671.874412
_symmetry_space_group_name_H-M "C M C A"
_symmetry_group_IT_number 64
_symmetry_cell_setting 'orthorhombic'
loop_
_space_group_symop_operation_xyz
x,y,z
-x,1/2-y,1/2+z
x,-y,-z
-x,1/2+y,1/2-z
-x,-y,-z
x,1/2+y,1/2-z
-x,y,z
x,1/2-y,1/2+z
1/2+x,1/2+y,z
1/2-x,-y,1/2+z
1/2+x,1/2-y,-z
1/2-x,y,1/2-z
1/2-x,1/2-y,-z
1/2+x,y,1/2-z
1/2-x,1/2+y,z
1/2+x,-y,1/2+z
loop_
_atom_site_type_symbol
_atom_site_label
_atom_site_fract_x
_atom_site_fract_y
_atom_site_fract_z
Si Si1 0.075852 0.854829 0.882262
Si Si2 0.262667 0.000000 0.500000
Si Si3 0.252037 0.235118 0.364267
Si Si4 0.385120 0.339915 0.554905
Si Si5 0.070231 0.165473 0.785391
O O1 0.100997 0.722875 0.811224
O O2 0.000000 0.858148 0.881438
O O3 0.095630 0.017890 0.839158
O O4 0.093249 0.795915 0.985888
O O5 0.292677 0.109886 0.420409
O O6 0.231590 0.113050 0.577593
O O7 0.250000 0.242006 0.250000
O O8 0.182691 0.192009 0.400304
O O9 0.390771 0.500000 0.500000
O O10 0.427677 0.313910 0.646895
O O11 0.000000 0.129029 0.762353
#
# Coordination Sequence:
#
# PCOD9480950 Si02
#       5
#    16   8  16  16  16
#     4  10  22  42  67 103 152 197 237 292 355 427
#     4  10  24  48  74 100 134 180 236 302 390 440
#     4  11  25  48  74 102 140 184 239 311 376 447
#     4  12  25  42  69 107 139 187 249 296 359 436
#     4  10  22  41  68 106 151 197 237 288 356 423
#
# _framework density 26.947372999999999
#
# number of rings (size 3 to 8) (size 9 to 14) (size 15 to 20)
#    0.000    1.333    1.111    3.333    3.111    8.889 
#    8.000    0.000    0.000    0.000    0.000    0.000 
#    0.000    0.000    0.000    0.000    0.000    0.000 
#
# Total GULP energy -201048.847339 kJ/mol
# GULP energy per Si atom -5584.690204 kJ/mol
# Density = 2.688604 g / cm^3
# Si number density = 26.947373 Si / 1000 Ang^3
#
#
#
# Elastic Constant Matrix: (Units=GPa)
#
#
# Indices 1 2 3 4 5 6 
#
# 1 50.2881 13.0570 8.4884 0.0000 0.0000 0.0000
# 2 13.0570 158.6018 77.0957 0.0000 0.0000 0.0000
# 3 8.4884 77.0957 264.7786 0.0000 0.0000 0.0000
# 4 0.0000 0.0000 0.0000 54.0286 0.0000 0.0000
# 5 0.0000 0.0000 0.0000 0.0000 40.4636 0.0000
# 6 0.0000 0.0000 0.0000 0.0000 0.0000 30.5184
#
#
#
# Elastic Compliance Matrix: (Units=1/GPa)
#
#
# Indices 1 2 3 4 5 6 
#
# 1 0.020328 -0.001580 -0.000192 0.000000 0.000000 0.000000
# 2 -0.001580 0.007468 -0.002124 0.000000 0.000000 0.000000
# 3 -0.000192 -0.002124 0.004401 0.000000 0.000000 0.000000
# 4 0.000000 0.000000 0.000000 0.018509 0.000000 0.000000
# 5 0.000000 0.000000 0.000000 0.000000 0.024714 0.000000
# 6 0.000000 0.000000 0.000000 0.000000 0.000000 0.032767
#
#
# Mechanical properties :
#
#
# Convention : Reuss Voigt Hill
#
# Bulk Modulus (GPa) = 40.97417 74.55010 57.76213
# Shear Modulus (GPa) = 40.28600 50.00395 45.14498
#
# Velocity S-wave (km/s) = 3.87070 4.31236 4.09749
# Velocity P-wave (km/s) = 5.93420 7.24709 6.62326
#
# Compressibility (1/GPa) = 0.02440562
#
# Stress axis : x y z
#
# Youngs Moduli (GPa) = 49.19303 133.91352 227.20952
#
# Poissons Ratio (x) = 0.21164 0.04351
# Poissons Ratio (y) = 0.07775 0.48251
# Poissons Ratio (z) = 0.00942 0.28439
#
# Static dielectric constant tensor:
#      x y z
#    x 2.382700 0.000000 0.000000 
#    y 0.000000 2.154440 0.000000 
#    z 0.000000 0.000000 2.014600 
# 
# From -- ./inp_files/27793.got.cif
#   From: 2010.05.17/outbox.cif.g08.bks.cpg/sg64_14_cif.got.tgz:27793.got - 2010.06.03 16:29:19.
