data_PCOD9480504
_publ_section_title
;
Structure prediction by ZEFSAII (Michael W. Deem and Ramdas Pophale) SiO2 
 PCOD9480504
Probable space group: C M C A
;
_chemical_formula_sum "Si O2"
_cell_formula_units_Z 112
_cell_length_a 15.463157
_cell_length_b 10.867759
_cell_length_c 28.815920
_cell_angle_alpha 90.000000
_cell_angle_beta 90.000000
_cell_angle_gamma 90.000000
_cell_volume 4842.511427
_symmetry_space_group_name_H-M "C M C A"
_symmetry_group_IT_number 64
_symmetry_cell_setting 'orthorhombic'
loop_
_space_group_symop_operation_xyz
x,y,z
-x,1/2-y,1/2+z
x,-y,-z
-x,1/2+y,1/2-z
-x,-y,-z
x,1/2+y,1/2-z
-x,y,z
x,1/2-y,1/2+z
1/2+x,1/2+y,z
1/2-x,-y,1/2+z
1/2+x,1/2-y,-z
1/2-x,y,1/2-z
1/2-x,1/2-y,-z
1/2+x,y,1/2-z
1/2-x,1/2+y,z
1/2+x,-y,1/2+z
loop_
_atom_site_type_symbol
_atom_site_label
_atom_site_fract_x
_atom_site_fract_y
_atom_site_fract_z
Si Si1 0.400276 0.659096 0.558817
Si Si2 0.097513 0.446052 0.211206
Si Si3 0.593012 0.233266 0.544268
Si Si4 0.156698 0.828136 0.771369
Si Si5 0.729265 0.032852 0.551326
Si Si6 0.899805 0.365060 0.864089
Si Si7 0.292558 0.174145 0.371807
O O1 0.500000 0.627378 0.568995
O O2 0.400557 0.732640 0.509676
O O3 0.330468 0.555815 0.548278
O O4 0.353223 0.730312 0.600749
O O5 0.142981 0.321077 0.229130
O O6 0.102535 0.568577 0.243507
O O7 0.119553 0.503762 0.160412
O O8 0.000000 0.403017 0.207864
O O9 0.500000 0.167178 0.550584
O O10 0.675055 0.155552 0.559924
O O11 0.591091 0.344926 0.580853
O O12 0.250000 0.850463 0.750000
O O13 0.157655 0.862091 0.825338
O O14 0.697528 0.000000 0.500000
O O15 0.714261 0.935298 0.591207
O O16 0.807054 0.295091 0.854993
O O17 0.000000 0.331261 0.847283
#
# Coordination Sequence:
#
# PCOD9480504 Si02
#       7
#    16  16  16  16  16  16  16
#     4  11  25  44  67 103 149 194 249 312 376 447
#     4  11  26  49  78 111 150 195 252 323 387 463
#     4  10  21  42  69 100 144 197 250 307 373 449
#     4  12  27  49  78 110 151 198 250 314 393 462
#     4  12  24  41  71 101 143 195 256 312 373 447
#     4  10  22  42  70 103 138 189 248 304 368 450
#     4  12  26  44  72 105 147 193 248 311 381 453
#
# _framework density 23.128495000000001
#
# number of rings (size 3 to 8) (size 9 to 14) (size 15 to 20)
#    0.000    0.857    4.286    2.143    2.000    4.000 
#    0.000    1.429    0.000    0.000    0.000    0.000 
#    0.000    0.000    0.000    0.000    0.000    0.000 
#
# Total GULP energy -311866.999769 kJ/mol
# GULP energy per Si atom -5569.053567 kJ/mol
# Density = 2.307585 g / cm^3
# Si number density = 23.128495 Si / 1000 Ang^3
#
#
#
# Elastic Constant Matrix: (Units=GPa)
#
#
# Indices 1 2 3 4 5 6 
#
# 1 99.5174 26.8004 20.8621 0.0000 0.0000 0.0000
# 2 26.8004 79.2866 43.1528 0.0000 0.0000 0.0000
# 3 20.8621 43.1528 127.7817 0.0000 0.0000 0.0000
# 4 0.0000 0.0000 0.0000 42.4973 0.0000 0.0000
# 5 0.0000 0.0000 0.0000 0.0000 28.7547 0.0000
# 6 0.0000 0.0000 0.0000 0.0000 0.0000 11.6971
#
#
#
# Elastic Compliance Matrix: (Units=1/GPa)
#
#
# Indices 1 2 3 4 5 6 
#
# 1 0.011101 -0.003389 -0.000668 0.000000 0.000000 0.000000
# 2 -0.003389 0.016487 -0.005015 0.000000 0.000000 0.000000
# 3 -0.000668 -0.005015 0.009628 0.000000 0.000000 0.000000
# 4 0.000000 0.000000 0.000000 0.023531 0.000000 0.000000
# 5 0.000000 0.000000 0.000000 0.000000 0.034777 0.000000
# 6 0.000000 0.000000 0.000000 0.000000 0.000000 0.085491
#
#
# Mechanical properties :
#
#
# Convention : Reuss Voigt Hill
#
# Bulk Modulus (GPa) = 52.42758 54.24625 53.33692
# Shear Modulus (GPa) = 24.32892 30.97453 27.65172
#
# Velocity S-wave (km/s) = 3.24682 3.66353 3.46145
# Velocity P-wave (km/s) = 6.06407 6.43432 6.25194
#
# Compressibility (1/GPa) = 0.01907393
#
# Stress axis : x y z
#
# Youngs Moduli (GPa) = 90.08071 60.65303 103.85989
#
# Poissons Ratio (x) = 0.20554 0.06938
# Poissons Ratio (y) = 0.30527 0.52081
# Poissons Ratio (z) = 0.06017 0.30415
#
# Static dielectric constant tensor:
#      x y z
#    x 1.873500 0.000000 0.000000 
#    y 0.000000 1.909240 0.000000 
#    z 0.000000 0.000000 1.909530 
# 
# From -- ./inp_files/53281.got.cif
#   From: 2010.05.17/outbox.cif.g08.bks.cpg/sg64_27_cif.got.tgz:53281.got - 2010.06.03 16:29:19.
