data_PCOD9480919
_publ_section_title
;
Structure prediction by ZEFSAII (Michael W. Deem and Ramdas Pophale) SiO2 
 PCOD9480919
Probable space group: C M C A
;
_chemical_formula_sum "Si O2"
_cell_formula_units_Z 96
_cell_length_a 13.242767
_cell_length_b 13.713558
_cell_length_c 21.899628
_cell_angle_alpha 90.000000
_cell_angle_beta 90.000000
_cell_angle_gamma 90.000000
_cell_volume 3977.091871
_symmetry_space_group_name_H-M "C M C A"
_symmetry_group_IT_number 64
_symmetry_cell_setting 'orthorhombic'
loop_
_space_group_symop_operation_xyz
x,y,z
-x,1/2-y,1/2+z
x,-y,-z
-x,1/2+y,1/2-z
-x,-y,-z
x,1/2+y,1/2-z
-x,y,z
x,1/2-y,1/2+z
1/2+x,1/2+y,z
1/2-x,-y,1/2+z
1/2+x,1/2-y,-z
1/2-x,y,1/2-z
1/2-x,1/2-y,-z
1/2+x,y,1/2-z
1/2-x,1/2+y,z
1/2+x,-y,1/2+z
loop_
_atom_site_type_symbol
_atom_site_label
_atom_site_fract_x
_atom_site_fract_y
_atom_site_fract_z
Si Si1 0.879939 0.314930 0.482619
Si Si2 0.746725 0.330447 0.363301
Si Si3 0.619887 0.014445 0.155503
Si Si4 0.122009 0.403101 0.966759
Si Si5 0.880371 0.536878 0.709159
Si Si6 0.121022 0.360761 0.617397
O O1 0.819345 0.338379 0.421897
O O2 0.854998 0.200984 0.495823
O O3 0.858329 0.372561 0.544889
O O4 0.000000 0.323434 0.470320
O O5 0.660298 0.411873 0.368531
O O6 0.817429 0.366526 0.307274
O O7 0.688020 0.228759 0.358261
O O8 0.500000 0.015962 0.154509
O O9 0.647186 0.014619 0.226683
O O10 0.651473 0.093408 0.104887
O O11 0.000000 0.408506 0.968878
O O12 0.160395 0.500000 0.000000
O O13 0.861501 0.458741 0.655554
O O14 0.000000 0.559174 0.710963
O O15 0.000000 0.337814 0.622489
#
# Coordination Sequence:
#
# PCOD9480919 Si02
#       6
#    16  16  16  16  16  16
#     4  10  22  41  65 102 139 175 226 282 343 413
#     4  12  23  40  67 102 135 172 231 288 336 404
#     4  10  22  43  66  94 133 179 228 281 346 413
#     4   9  18  36  65  94 127 168 217 280 338 392
#     4  10  24  47  68  93 136 188 231 279 345 419
#     4  10  23  45  70  99 140 185 230 279 346 421
#
# _framework density 24.13824
#
# number of rings (size 3 to 8) (size 9 to 14) (size 15 to 20)
#    0.000    1.833    0.000    3.000    2.333    3.333 
#    9.000    2.500    0.000    0.000    0.000    0.000 
#    0.000    0.000    0.000    0.000    0.000    0.000 
#
# Total GULP energy -268676.721080 kJ/mol
# GULP energy per Si atom -5597.431689 kJ/mol
# Density = 2.408330 g / cm^3
# Si number density = 24.138240 Si / 1000 Ang^3
#
#
#
# Elastic Constant Matrix: (Units=GPa)
#
#
# Indices 1 2 3 4 5 6 
#
# 1 111.1707 29.4407 51.8664 0.0000 0.0000 0.0000
# 2 29.4407 61.7682 43.4645 0.0000 0.0000 0.0000
# 3 51.8664 43.4645 144.7145 0.0000 0.0000 0.0000
# 4 0.0000 0.0000 0.0000 30.1759 0.0000 0.0000
# 5 0.0000 0.0000 0.0000 0.0000 48.2504 0.0000
# 6 0.0000 0.0000 0.0000 0.0000 0.0000 46.0003
#
#
#
# Elastic Compliance Matrix: (Units=1/GPa)
#
#
# Indices 1 2 3 4 5 6 
#
# 1 0.011282 -0.003211 -0.003079 0.000000 0.000000 0.000000
# 2 -0.003211 0.021442 -0.005289 0.000000 0.000000 0.000000
# 3 -0.003079 -0.005289 0.009602 0.000000 0.000000 0.000000
# 4 0.000000 0.000000 0.000000 0.033139 0.000000 0.000000
# 5 0.000000 0.000000 0.000000 0.000000 0.020725 0.000000
# 6 0.000000 0.000000 0.000000 0.000000 0.000000 0.021739
#
#
# Mechanical properties :
#
#
# Convention : Reuss Voigt Hill
#
# Bulk Modulus (GPa) = 52.17045 63.02185 57.59615
# Shear Modulus (GPa) = 33.90361 37.74410 35.82385
#
# Velocity S-wave (km/s) = 3.75181 3.95861 3.85660
# Velocity P-wave (km/s) = 6.35832 6.85999 6.61392
#
# Compressibility (1/GPa) = 0.01916794
#
# Stress axis : x y z
#
# Youngs Moduli (GPa) = 88.63647 46.63805 104.14089
#
# Poissons Ratio (x) = 0.14974 0.32067
# Poissons Ratio (y) = 0.28458 0.55083
# Poissons Ratio (z) = 0.27293 0.24668
#
# Static dielectric constant tensor:
#      x y z
#    x 1.996370 0.000000 0.000000 
#    y 0.000000 1.861550 0.000000 
#    z 0.000000 0.000000 1.952140 
# 
# From -- ./inp_files/39162.got.cif
#   From: 2010.05.17/outbox.cif.g08.bks.cpg/sg64_20_cif.got.tgz:39162.got - 2010.06.03 16:29:19.
