data_PCOD9480858
_publ_section_title
;
Structure prediction by ZEFSAII (Michael W. Deem and Ramdas Pophale) SiO2 
 PCOD9480858
Probable space group: C M C A
;
_chemical_formula_sum "Si O2"
_cell_formula_units_Z 80
_cell_length_a 27.744910
_cell_length_b 10.030053
_cell_length_c 13.647849
_cell_angle_alpha 90.000000
_cell_angle_beta 90.000000
_cell_angle_gamma 90.000000
_cell_volume 3797.963241
_symmetry_space_group_name_H-M "C M C A"
_symmetry_group_IT_number 64
_symmetry_cell_setting 'orthorhombic'
loop_
_space_group_symop_operation_xyz
x,y,z
-x,1/2-y,1/2+z
x,-y,-z
-x,1/2+y,1/2-z
-x,-y,-z
x,1/2+y,1/2-z
-x,y,z
x,1/2-y,1/2+z
1/2+x,1/2+y,z
1/2-x,-y,1/2+z
1/2+x,1/2-y,-z
1/2-x,y,1/2-z
1/2-x,1/2-y,-z
1/2+x,y,1/2-z
1/2-x,1/2+y,z
1/2+x,-y,1/2+z
loop_
_atom_site_type_symbol
_atom_site_label
_atom_site_fract_x
_atom_site_fract_y
_atom_site_fract_z
Si Si1 0.765541 0.628171 0.568240
Si Si2 0.864088 0.762953 0.573078
Si Si3 0.133576 0.541197 0.251444
Si Si4 0.054709 0.442573 0.390219
Si Si5 0.170362 0.207327 0.649077
O O1 0.762816 0.500000 0.500000
O O2 0.750000 0.750000 0.500000
O O3 0.819901 0.661148 0.597260
O O4 0.723265 0.638988 0.647332
O O5 0.863485 0.887434 0.645649
O O6 0.914142 0.690287 0.593685
O O7 0.853593 0.797270 0.459231
O O8 0.084759 0.537251 0.316085
O O9 0.169307 0.638337 0.314904
O O10 0.141184 0.387381 0.221783
O O11 0.053557 0.500000 0.500000
O O12 0.000000 0.421882 0.356281
#
# Coordination Sequence:
#
# PCOD9480858 Si02
#       5
#    16  16  16  16  16
#     4  10  22  40  66  97 141 189 227 276 340 413
#     4  11  23  45  69  98 141 182 235 286 348 414
#     4  12  24  44  68 103 138 179 231 289 339 423
#     4  11  24  45  72  99 135 182 228 289 357 415
#     4  11  24  43  68 102 143 187 227 284 351 414
#
# _framework density 21.063922000000002
#
# number of rings (size 3 to 8) (size 9 to 14) (size 15 to 20)
#    0.000    1.000    4.000    3.600    2.800    1.600 
#    3.600    1.000    0.000    2.400    0.000    0.000 
#    0.000    0.000    0.000    0.000    0.000    0.000 
#
# Total GULP energy -223098.881246 kJ/mol
# GULP energy per Si atom -5577.472031 kJ/mol
# Density = 2.101598 g / cm^3
# Si number density = 21.063922 Si / 1000 Ang^3
#
#
#
# Elastic Constant Matrix: (Units=GPa)
#
#
# Indices 1 2 3 4 5 6 
#
# 1 130.9518 24.5459 34.2973 0.0000 0.0000 0.0000
# 2 24.5459 88.5053 28.4286 0.0000 0.0000 0.0000
# 3 34.2973 28.4286 143.8894 0.0000 0.0000 0.0000
# 4 0.0000 0.0000 0.0000 48.7999 0.0000 0.0000
# 5 0.0000 0.0000 0.0000 0.0000 23.4037 0.0000
# 6 0.0000 0.0000 0.0000 0.0000 0.0000 20.5386
#
#
#
# Elastic Compliance Matrix: (Units=1/GPa)
#
#
# Indices 1 2 3 4 5 6 
#
# 1 0.008406 -0.001802 -0.001648 0.000000 0.000000 0.000000
# 2 -0.001802 0.012451 -0.002030 0.000000 0.000000 0.000000
# 3 -0.001648 -0.002030 0.007744 0.000000 0.000000 0.000000
# 4 0.000000 0.000000 0.000000 0.020492 0.000000 0.000000
# 5 0.000000 0.000000 0.000000 0.000000 0.042728 0.000000
# 6 0.000000 0.000000 0.000000 0.000000 0.000000 0.048689
#
#
# Mechanical properties :
#
#
# Convention : Reuss Voigt Hill
#
# Bulk Modulus (GPa) = 56.68890 59.76554 58.22722
# Shear Modulus (GPa) = 31.77655 36.95343 34.36499
#
# Velocity S-wave (km/s) = 3.88825 4.19304 4.04352
# Velocity P-wave (km/s) = 6.86507 7.20258 7.03585
#
# Compressibility (1/GPa) = 0.01764014
#
# Stress axis : x y z
#
# Youngs Moduli (GPa) = 118.96724 80.31671 129.13825
#
# Poissons Ratio (x) = 0.14473 0.21276
# Poissons Ratio (y) = 0.21438 0.26220
# Poissons Ratio (z) = 0.19600 0.16307
#
# Static dielectric constant tensor:
#      x y z
#    x 1.945310 0.000000 0.000000 
#    y 0.000000 1.767620 0.000000 
#    z 0.000000 0.000000 1.832230 
# 
# From -- ./inp_files/27909.got.cif
#   From: 2010.05.17/outbox.cif.g08.bks.cpg/sg64_14_cif.got.tgz:27909.got - 2010.06.03 16:29:19.
