data_PCOD9480521
_publ_section_title
;
Structure prediction by ZEFSAII (Michael W. Deem and Ramdas Pophale) SiO2 
 PCOD9480521
Probable space group: C M C A
;
_chemical_formula_sum "Si O2"
_cell_formula_units_Z 88
_cell_length_a 14.940577
_cell_length_b 23.344198
_cell_length_c 12.224676
_cell_angle_alpha 90.000000
_cell_angle_beta 90.000000
_cell_angle_gamma 90.000000
_cell_volume 4263.671002
_symmetry_space_group_name_H-M "C M C A"
_symmetry_group_IT_number 64
_symmetry_cell_setting 'orthorhombic'
loop_
_space_group_symop_operation_xyz
x,y,z
-x,1/2-y,1/2+z
x,-y,-z
-x,1/2+y,1/2-z
-x,-y,-z
x,1/2+y,1/2-z
-x,y,z
x,1/2-y,1/2+z
1/2+x,1/2+y,z
1/2-x,-y,1/2+z
1/2+x,1/2-y,-z
1/2-x,y,1/2-z
1/2-x,1/2-y,-z
1/2+x,y,1/2-z
1/2-x,1/2+y,z
1/2+x,-y,1/2+z
loop_
_atom_site_type_symbol
_atom_site_label
_atom_site_fract_x
_atom_site_fract_y
_atom_site_fract_z
Si Si1 0.648098 0.108421 0.719512
Si Si2 0.391333 0.988691 0.625097
Si Si3 0.352348 0.185923 0.516354
Si Si4 0.103742 0.864707 0.790341
Si Si5 0.500000 0.862919 0.095641
Si Si6 0.150449 0.815660 0.563940
O O1 0.750000 0.124729 0.750000
O O2 0.621767 0.138723 0.605275
O O3 0.578536 0.126561 0.811515
O O4 0.642146 0.040446 0.699620
O O5 0.500000 0.989371 0.625610
O O6 0.362528 0.926811 0.669757
O O7 0.362065 0.000000 0.500000
O O8 0.393736 0.175296 0.397310
O O9 0.246269 0.181197 0.494743
O O10 0.375479 0.248571 0.561286
O O11 0.154900 0.838554 0.687470
O O12 0.000000 0.870954 0.756800
O O13 0.422032 0.850694 0.003294
#
# Coordination Sequence:
#
# PCOD9480521 Si02
#       6
#    16  16  16  16   8  16
#     4  12  25  44  73 102 138 185 233 289 349 422
#     4  10  21  43  68 101 135 176 238 288 343 414
#     4  11  26  43  69 101 134 185 230 284 345 419
#     4  11  24  42  72 102 135 180 233 288 347 412
#     4  12  26  46  68 100 143 179 228 287 354 415
#     4  11  26  46  66  99 145 177 228 288 351 423
#
# _framework density 20.639492000000001
#
# number of rings (size 3 to 8) (size 9 to 14) (size 15 to 20)
#    0.000    0.909    5.455    0.545    5.091    1.455 
#    0.000    1.818    0.000    0.000    0.000    0.000 
#    0.000    0.000    0.000    0.000    0.000    0.000 
#
# Total GULP energy -245003.152566 kJ/mol
# GULP energy per Si atom -5568.253467 kJ/mol
# Density = 2.059252 g / cm^3
# Si number density = 20.639492 Si / 1000 Ang^3
#
#
#
# Elastic Constant Matrix: (Units=GPa)
#
#
# Indices 1 2 3 4 5 6 
#
# 1 80.8746 -2.5314 37.8356 0.0000 0.0000 0.0000
# 2 -2.5314 85.5321 70.9968 0.0000 0.0000 0.0000
# 3 37.8356 70.9968 165.7648 0.0000 0.0000 0.0000
# 4 0.0000 0.0000 0.0000 15.0967 0.0000 0.0000
# 5 0.0000 0.0000 0.0000 0.0000 27.0805 0.0000
# 6 0.0000 0.0000 0.0000 0.0000 0.0000 5.8987
#
#
#
# Elastic Compliance Matrix: (Units=1/GPa)
#
#
# Indices 1 2 3 4 5 6 
#
# 1 0.015181 0.005160 -0.005675 0.000000 0.000000 0.000000
# 2 0.005160 0.019895 -0.009699 0.000000 0.000000 0.000000
# 3 -0.005675 -0.009699 0.011482 0.000000 0.000000 0.000000
# 4 0.000000 0.000000 0.000000 0.066240 0.000000 0.000000
# 5 0.000000 0.000000 0.000000 0.000000 0.036927 0.000000
# 6 0.000000 0.000000 0.000000 0.000000 0.000000 0.169528
#
#
# Mechanical properties :
#
#
# Convention : Reuss Voigt Hill
#
# Bulk Modulus (GPa) = 38.26962 60.53038 49.40000
# Shear Modulus (GPa) = 14.35174 24.67323 19.51249
#
# Velocity S-wave (km/s) = 2.63982 3.46126 3.07806
# Velocity P-wave (km/s) = 5.27955 6.73535 6.05139
#
# Compressibility (1/GPa) = 0.02613038
#
# Stress axis : x y z
#
# Youngs Moduli (GPa) = 65.87041 50.26477 87.09376
#
# Poissons Ratio (x) = -0.25937 0.49427
# Poissons Ratio (y) = -0.33989 0.84469
# Poissons Ratio (z) = 0.37382 0.48750
#
# Static dielectric constant tensor:
#      x y z
#    x 1.755280 0.000000 0.000000 
#    y 0.000000 1.744900 0.000000 
#    z 0.000000 0.000000 1.695980 
# 
# From -- ./inp_files/14564.got.cif
#   From: 2010.05.17/outbox.cif.g08.bks.cpg/sg64_8_cif.got.tgz:14564.got - 2010.06.03 16:29:19.
