data_PCOD9480094
_publ_section_title
;
Structure prediction by ZEFSAII (Michael W. Deem and Ramdas Pophale) SiO2 
 PCOD9480094
Probable space group: C M C A
;
_chemical_formula_sum "Si O2"
_cell_formula_units_Z 116
_cell_length_a 17.766548
_cell_length_b 25.571360
_cell_length_c 13.254175
_cell_angle_alpha 90.000000
_cell_angle_beta 90.000000
_cell_angle_gamma 90.000000
_cell_volume 6021.567796
_symmetry_space_group_name_H-M "C M C A"
_symmetry_group_IT_number 64
_symmetry_cell_setting 'orthorhombic'
loop_
_space_group_symop_operation_xyz
x,y,z
-x,1/2-y,1/2+z
x,-y,-z
-x,1/2+y,1/2-z
-x,-y,-z
x,1/2+y,1/2-z
-x,y,z
x,1/2-y,1/2+z
1/2+x,1/2+y,z
1/2-x,-y,1/2+z
1/2+x,1/2-y,-z
1/2-x,y,1/2-z
1/2-x,1/2-y,-z
1/2+x,y,1/2-z
1/2-x,1/2+y,z
1/2+x,-y,1/2+z
loop_
_atom_site_type_symbol
_atom_site_label
_atom_site_fract_x
_atom_site_fract_y
_atom_site_fract_z
Si Si1 0.912132 0.784796 0.642771
Si Si2 0.224163 0.363713 0.139176
Si Si3 0.351674 0.809068 0.491310
Si Si4 0.677224 0.244528 0.821249
Si Si5 0.112758 0.411510 0.594078
Si Si6 0.088548 0.901495 0.666554
Si Si7 0.218303 0.441982 0.962689
Si Si8 0.500000 0.500000 0.000000
O O1 0.888516 0.740071 0.564809
O O2 0.889983 0.765659 0.753986
O O3 0.882275 0.843800 0.632177
O O4 0.000000 0.790818 0.635195
O O5 0.250000 0.382475 0.250000
O O6 0.295932 0.335742 0.087862
O O7 0.165838 0.315857 0.149666
O O8 0.199421 0.407712 0.061915
O O9 0.309170 0.782309 0.585012
O O10 0.401497 0.856193 0.536565
O O11 0.750000 0.245874 0.750000
O O12 0.093660 0.405876 0.712207
O O13 0.203000 0.420888 0.583416
O O14 0.065762 0.458574 0.543346
O O15 0.148183 0.939618 0.613718
O O16 0.000000 0.909086 0.639028
O O17 0.232468 0.500000 0.000000
#
# Coordination Sequence:
#
# PCOD9480094 Si02
#       8
#    16  16  16  16  16  16  16   4
#     4  11  24  38  60  98 135 171 216 263 331 408
#     4  10  21  38  62  94 130 165 215 280 330 395
#     4  11  22  38  65  93 133 171 213 268 333 401
#     4  11  21  36  63  94 128 172 210 263 326 398
#     4  11  24  42  72 100 132 173 227 288 340 397
#     4  11  24  44  68  97 136 179 222 278 334 410
#     4  11  25  44  68  98 128 174 234 278 338 400
#     4  12  24  48  68 100 136 164 228 292 354 372
#
# _framework density 19.264085999999999
#
# number of rings (size 3 to 8) (size 9 to 14) (size 15 to 20)
#    0.000    1.103    5.517    1.655    4.828    1.931 
#    0.000    0.690    0.000    0.000    0.000    0.000 
#    0.000    0.000    0.000    0.000    0.000    0.000 
#
# Total GULP energy -323131.824433 kJ/mol
# GULP energy per Si atom -5571.238352 kJ/mol
# Density = 1.922024 g / cm^3
# Si number density = 19.264086 Si / 1000 Ang^3
#
#
#
# Elastic Constant Matrix: (Units=GPa)
#
#
# Indices 1 2 3 4 5 6 
#
# 1 57.6128 14.6181 19.4233 0.0000 0.0000 0.0000
# 2 14.6181 72.0046 22.3245 0.0000 0.0000 0.0000
# 3 19.4233 22.3245 96.3910 0.0000 0.0000 0.0000
# 4 0.0000 0.0000 0.0000 23.1066 0.0000 0.0000
# 5 0.0000 0.0000 0.0000 0.0000 24.1018 0.0000
# 6 0.0000 0.0000 0.0000 0.0000 0.0000 27.7519
#
#
#
# Elastic Compliance Matrix: (Units=1/GPa)
#
#
# Indices 1 2 3 4 5 6 
#
# 1 0.019169 -0.002902 -0.003191 0.000000 0.000000 0.000000
# 2 -0.002902 0.015402 -0.002982 0.000000 0.000000 0.000000
# 3 -0.003191 -0.002982 0.011708 0.000000 0.000000 0.000000
# 4 0.000000 0.000000 0.000000 0.043278 0.000000 0.000000
# 5 0.000000 0.000000 0.000000 0.000000 0.041491 0.000000
# 6 0.000000 0.000000 0.000000 0.000000 0.000000 0.036034
#
#
# Mechanical properties :
#
#
# Convention : Reuss Voigt Hill
#
# Bulk Modulus (GPa) = 35.55084 37.63780 36.59432
# Shear Modulus (GPa) = 25.69269 26.30157 25.99713
#
# Velocity S-wave (km/s) = 3.65596 3.69903 3.67756
# Velocity P-wave (km/s) = 6.02627 6.15012 6.08851
#
# Compressibility (1/GPa) = 0.02812873
#
# Stress axis : x y z
#
# Youngs Moduli (GPa) = 52.16665 64.92714 85.41160
#
# Poissons Ratio (x) = 0.18845 0.27251
# Poissons Ratio (y) = 0.15141 0.25472
# Poissons Ratio (z) = 0.16644 0.19363
#
# Static dielectric constant tensor:
#      x y z
#    x 1.729330 0.000000 0.000000 
#    y 0.000000 1.709160 0.000000 
#    z 0.000000 0.000000 1.655360 
# 
# From -- ./inp_files/16497.got.cif
#   From: 2010.05.17/outbox.cif.g08.bks.cpg/sg64_9_cif.got.tgz:16497.got - 2010.06.03 16:29:19.
