data_PCOD9480866
_publ_section_title
;
Structure prediction by ZEFSAII (Michael W. Deem and Ramdas Pophale) SiO2 
 PCOD9480866
Probable space group: C M C A
;
_chemical_formula_sum "Si O2"
_cell_formula_units_Z 72
_cell_length_a 15.325300
_cell_length_b 8.028426
_cell_length_c 26.994864
_cell_angle_alpha 90.000000
_cell_angle_beta 90.000000
_cell_angle_gamma 90.000000
_cell_volume 3321.395075
_symmetry_space_group_name_H-M "C M C A"
_symmetry_group_IT_number 64
_symmetry_cell_setting 'orthorhombic'
loop_
_space_group_symop_operation_xyz
x,y,z
-x,1/2-y,1/2+z
x,-y,-z
-x,1/2+y,1/2-z
-x,-y,-z
x,1/2+y,1/2-z
-x,y,z
x,1/2-y,1/2+z
1/2+x,1/2+y,z
1/2-x,-y,1/2+z
1/2+x,1/2-y,-z
1/2-x,y,1/2-z
1/2-x,1/2-y,-z
1/2+x,y,1/2-z
1/2-x,1/2+y,z
1/2+x,-y,1/2+z
loop_
_atom_site_type_symbol
_atom_site_label
_atom_site_fract_x
_atom_site_fract_y
_atom_site_fract_z
Si Si1 0.686590 0.136894 0.796610
Si Si2 0.000000 0.933474 0.171545
Si Si3 0.500000 0.850347 0.217634
Si Si4 0.000000 0.720871 0.886777
Si Si5 0.834861 0.299550 0.851741
Si Si6 0.101032 0.512929 0.055421
O O1 0.750000 0.133141 0.750000
O O2 0.596880 0.229563 0.782923
O O3 0.741848 0.215971 0.840929
O O4 0.661978 0.951056 0.812630
O O5 0.000000 0.954371 0.231548
O O6 0.913489 0.827898 0.158732
O O7 0.000000 0.100239 0.138355
O O8 0.500000 0.909361 0.159740
O O9 0.917456 0.668355 0.919882
O O10 0.846220 0.375389 0.906305
O O11 0.000000 0.580230 0.052080
O O12 0.135796 0.500000 0.000000
#
# Coordination Sequence:
#
# PCOD9480866 Si02
#       6
#    16   8   8   8  16  16
#     4  12  26  42  66  97 145 184 227 276 343 416
#     4  12  26  37  71 101 145 183 225 273 347 422
#     4  12  25  43  64  97 148 180 224 271 345 407
#     4  10  22  40  70 104 138 186 227 288 342 415
#     4  12  25  44  63 105 136 189 229 286 340 417
#     4   9  19  44  75 100 139 181 232 295 364 405
#
# _framework density 21.677636
#
# number of rings (size 3 to 8) (size 9 to 14) (size 15 to 20)
#    0.667    0.222    5.556    1.333    6.222    0.000 
#    0.000    3.333    0.000    0.000    0.000    0.778 
#    0.000    0.000    0.000    0.000    0.000    0.000 
#
# Total GULP energy -200768.095010 kJ/mol
# GULP energy per Si atom -5576.891528 kJ/mol
# Density = 2.162830 g / cm^3
# Si number density = 21.677636 Si / 1000 Ang^3
#
#
#
# Elastic Constant Matrix: (Units=GPa)
#
#
# Indices 1 2 3 4 5 6 
#
# 1 160.7670 60.0142 54.8250 0.0000 0.0000 0.0000
# 2 60.0142 112.6102 60.3042 0.0000 0.0000 0.0000
# 3 54.8250 60.3042 196.4038 0.0000 0.0000 0.0000
# 4 0.0000 0.0000 0.0000 28.1199 0.0000 0.0000
# 5 0.0000 0.0000 0.0000 0.0000 29.8795 0.0000
# 6 0.0000 0.0000 0.0000 0.0000 0.0000 23.6455
#
#
#
# Elastic Compliance Matrix: (Units=1/GPa)
#
#
# Indices 1 2 3 4 5 6 
#
# 1 0.007959 -0.003652 -0.001100 0.000000 0.000000 0.000000
# 2 -0.003652 0.012304 -0.002758 0.000000 0.000000 0.000000
# 3 -0.001100 -0.002758 0.006246 0.000000 0.000000 0.000000
# 4 0.000000 0.000000 0.000000 0.035562 0.000000 0.000000
# 5 0.000000 0.000000 0.000000 0.000000 0.033468 0.000000
# 6 0.000000 0.000000 0.000000 0.000000 0.000000 0.042291
#
#
# Mechanical properties :
#
#
# Convention : Reuss Voigt Hill
#
# Bulk Modulus (GPa) = 87.05890 91.11865 89.08878
# Shear Modulus (GPa) = 31.91225 35.97150 33.94188
#
# Velocity S-wave (km/s) = 3.84099 4.07797 3.96126
# Velocity P-wave (km/s) = 7.74073 8.01860 7.88089
#
# Compressibility (1/GPa) = 0.01148648
#
# Stress axis : x y z
#
# Youngs Moduli (GPa) = 125.64696 81.27612 160.11370
#
# Poissons Ratio (x) = 0.29685 0.17616
# Poissons Ratio (y) = 0.45891 0.44163
# Poissons Ratio (z) = 0.13824 0.22418
#
# Static dielectric constant tensor:
#      x y z
#    x 1.904520 0.000000 0.000000 
#    y 0.000000 1.870240 0.000000 
#    z 0.000000 0.000000 1.793330 
# 
# From -- ./inp_files/53133.got.cif
#   From: 2010.05.17/outbox.cif.g08.bks.cpg/sg64_27_cif.got.tgz:53133.got - 2010.06.03 16:29:19.
