data_PCOD9480383
_publ_section_title
;
Structure prediction by ZEFSAII (Michael W. Deem and Ramdas Pophale) SiO2 
 PCOD9480383
Probable space group: C M C A
;
_chemical_formula_sum "Si O2"
_cell_formula_units_Z 88
_cell_length_a 23.696924
_cell_length_b 12.172295
_cell_length_c 14.359583
_cell_angle_alpha 90.000000
_cell_angle_beta 90.000000
_cell_angle_gamma 90.000000
_cell_volume 4141.963553
_symmetry_space_group_name_H-M "C M C A"
_symmetry_group_IT_number 64
_symmetry_cell_setting 'orthorhombic'
loop_
_space_group_symop_operation_xyz
x,y,z
-x,1/2-y,1/2+z
x,-y,-z
-x,1/2+y,1/2-z
-x,-y,-z
x,1/2+y,1/2-z
-x,y,z
x,1/2-y,1/2+z
1/2+x,1/2+y,z
1/2-x,-y,1/2+z
1/2+x,1/2-y,-z
1/2-x,y,1/2-z
1/2-x,1/2-y,-z
1/2+x,y,1/2-z
1/2-x,1/2+y,z
1/2+x,-y,1/2+z
loop_
_atom_site_type_symbol
_atom_site_label
_atom_site_fract_x
_atom_site_fract_y
_atom_site_fract_z
Si Si1 0.561419 0.025122 0.627262
Si Si2 0.064601 0.422914 0.155082
Si Si3 0.237421 0.000000 0.500000
Si Si4 0.378303 0.188918 0.339345
Si Si5 0.663952 0.348389 0.031554
Si Si6 0.851790 0.383362 0.870565
O O1 0.500000 0.054150 0.588930
O O2 0.563405 0.067242 0.732856
O O3 0.612602 0.078352 0.571078
O O4 0.570567 0.894912 0.638367
O O5 0.100616 0.312256 0.142867
O O6 0.095273 0.533007 0.118246
O O7 0.000000 0.413728 0.121480
O O8 0.277371 0.090648 0.549923
O O9 0.199495 0.049807 0.417067
O O10 0.334577 0.162303 0.420266
O O11 0.354355 0.155409 0.237995
O O12 0.650719 0.230161 0.073690
#
# Coordination Sequence:
#
# PCOD9480383 Si02
#       6
#    16  16   8  16  16  16
#     4  10  21  40  68 102 141 181 230 293 360 433
#     4  10  22  43  72 107 145 184 230 293 367 446
#     4  12  26  50  68  96 146 190 250 310 352 420
#     4  11  22  42  71 105 138 185 234 285 360 439
#     4  12  24  46  70 103 141 184 247 304 359 426
#     4  11  26  46  71 103 145 189 239 300 365 431
#
# _framework density 21.245961999999999
#
# number of rings (size 3 to 8) (size 9 to 14) (size 15 to 20)
#    0.000    1.091    3.636    2.182    0.000    4.364 
#    0.000    3.182    0.000    0.000    0.000    0.000 
#    0.000    0.000    0.000    0.000    0.000    0.000 
#
# Total GULP energy -245460.019543 kJ/mol
# GULP energy per Si atom -5578.636808 kJ/mol
# Density = 2.119761 g / cm^3
# Si number density = 21.245962 Si / 1000 Ang^3
#
#
#
# Elastic Constant Matrix: (Units=GPa)
#
#
# Indices 1 2 3 4 5 6 
#
# 1 127.2350 57.3606 47.9244 0.0000 0.0000 0.0000
# 2 57.3606 151.9030 34.8284 0.0000 0.0000 0.0000
# 3 47.9244 34.8284 87.4078 0.0000 0.0000 0.0000
# 4 0.0000 0.0000 0.0000 37.4938 0.0000 0.0000
# 5 0.0000 0.0000 0.0000 0.0000 34.0590 0.0000
# 6 0.0000 0.0000 0.0000 0.0000 0.0000 14.2397
#
#
#
# Elastic Compliance Matrix: (Units=1/GPa)
#
#
# Indices 1 2 3 4 5 6 
#
# 1 0.011068 -0.003068 -0.004846 0.000000 0.000000 0.000000
# 2 -0.003068 0.008096 -0.001543 0.000000 0.000000 0.000000
# 3 -0.004846 -0.001543 0.014713 0.000000 0.000000 0.000000
# 4 0.000000 0.000000 0.000000 0.026671 0.000000 0.000000
# 5 0.000000 0.000000 0.000000 0.000000 0.029361 0.000000
# 6 0.000000 0.000000 0.000000 0.000000 0.000000 0.070226
#
#
# Mechanical properties :
#
#
# Convention : Reuss Voigt Hill
#
# Bulk Modulus (GPa) = 66.84070 71.86362 69.35216
# Shear Modulus (GPa) = 27.16854 32.25401 29.71127
#
# Velocity S-wave (km/s) = 3.57986 3.90054 3.74363
# Velocity P-wave (km/s) = 6.97251 7.36095 7.16936
#
# Compressibility (1/GPa) = 0.01496094
#
# Stress axis : x y z
#
# Youngs Moduli (GPa) = 90.35074 123.52253 67.96937
#
# Poissons Ratio (x) = 0.37901 0.32937
# Poissons Ratio (y) = 0.27723 0.10491
# Poissons Ratio (z) = 0.43782 0.19065
#
# Static dielectric constant tensor:
#      x y z
#    x 1.763490 0.000000 0.000000 
#    y 0.000000 1.805190 0.000000 
#    z 0.000000 0.000000 1.774320 
# 
# From -- ./inp_files/27199.got.cif
#   From: 2010.05.17/outbox.cif.g08.bks.cpg/sg64_14_cif.got.tgz:27199.got - 2010.06.03 16:29:19.
