data_PCOD9480072
_publ_section_title
;
Structure prediction by ZEFSAII (Michael W. Deem and Ramdas Pophale) SiO2 
 PCOD9480072
Probable space group: C M C A
;
_chemical_formula_sum "Si O2"
_cell_formula_units_Z 112
_cell_length_a 14.305444
_cell_length_b 25.897979
_cell_length_c 15.267594
_cell_angle_alpha 90.000000
_cell_angle_beta 90.000000
_cell_angle_gamma 90.000000
_cell_volume 5656.370108
_symmetry_space_group_name_H-M "C M C A"
_symmetry_group_IT_number 64
_symmetry_cell_setting 'orthorhombic'
loop_
_space_group_symop_operation_xyz
x,y,z
-x,1/2-y,1/2+z
x,-y,-z
-x,1/2+y,1/2-z
-x,-y,-z
x,1/2+y,1/2-z
-x,y,z
x,1/2-y,1/2+z
1/2+x,1/2+y,z
1/2-x,-y,1/2+z
1/2+x,1/2-y,-z
1/2-x,y,1/2-z
1/2-x,1/2-y,-z
1/2+x,y,1/2-z
1/2-x,1/2+y,z
1/2+x,-y,1/2+z
loop_
_atom_site_type_symbol
_atom_site_label
_atom_site_fract_x
_atom_site_fract_y
_atom_site_fract_z
Si Si1 0.388074 0.910176 0.682571
Si Si2 0.304930 0.410494 0.340296
Si Si3 0.387375 0.703474 0.248956
Si Si4 0.260782 0.581156 0.464965
Si Si5 0.111405 0.202854 0.632997
Si Si6 0.389244 0.818167 0.941069
Si Si7 0.106788 0.017007 0.347719
O O1 0.500000 0.910413 0.669284
O O2 0.358737 0.853800 0.719112
O O3 0.332524 0.918892 0.592971
O O4 0.367563 0.952735 0.757724
O O5 0.250000 0.415856 0.250000
O O6 0.247621 0.420517 0.430476
O O7 0.344764 0.352662 0.346343
O O8 0.381888 0.455743 0.339081
O O9 0.500000 0.703578 0.239344
O O10 0.351004 0.750115 0.190450
O O11 0.367849 0.710641 0.351245
O O12 0.322652 0.632412 0.446931
O O13 0.325348 0.536880 0.423403
O O14 0.124583 0.213571 0.529832
O O15 0.000000 0.198220 0.647964
O O16 0.500000 0.833706 0.938158
O O17 0.000000 0.030922 0.368141
#
# Coordination Sequence:
#
# PCOD9480072 Si02
#       7
#    16  16  16  16  16  16  16
#     4  10  21  38  61  93 123 154 198 249 300 354
#     4  11  24  41  55  83 125 162 201 244 294 361
#     4   9  17  34  58  84 119 156 195 243 299 354
#     4  11  21  37  62  90 119 156 195 249 300 351
#     4   9  19  37  58  82 117 159 199 248 300 352
#     4   9  17  32  57  90 119 147 196 251 298 343
#     4  11  22  38  66  96 118 148 195 251 306 356
#
# _framework density 19.800685000000001
#
# number of rings (size 3 to 8) (size 9 to 14) (size 15 to 20)
#    0.000    2.000    1.429    2.571    0.000    2.286 
#    5.143    2.857    0.000    3.429    0.000    0.000 
#    0.000    0.000    0.000    0.000    0.000    0.000 
#
# Total GULP energy -312680.823021 kJ/mol
# GULP energy per Si atom -5583.586125 kJ/mol
# Density = 1.975562 g / cm^3
# Si number density = 19.800685 Si / 1000 Ang^3
#
#
#
# Elastic Constant Matrix: (Units=GPa)
#
#
# Indices 1 2 3 4 5 6 
#
# 1 73.0313 11.2528 56.5883 0.0000 0.0000 0.0000
# 2 11.2528 98.2766 54.9904 0.0000 0.0000 0.0000
# 3 56.5883 54.9904 169.1658 0.0000 0.0000 0.0000
# 4 0.0000 0.0000 0.0000 29.4802 0.0000 0.0000
# 5 0.0000 0.0000 0.0000 0.0000 5.2529 0.0000
# 6 0.0000 0.0000 0.0000 0.0000 0.0000 -15.6862
#
#
#
# Elastic Compliance Matrix: (Units=1/GPa)
#
#
# Indices 1 2 3 4 5 6 
#
# 1 0.018703 0.001661 -0.006796 0.000000 0.000000 0.000000
# 2 0.001661 0.012585 -0.004647 0.000000 0.000000 0.000000
# 3 -0.006796 -0.004647 0.009695 0.000000 0.000000 0.000000
# 4 0.000000 0.000000 0.000000 0.033921 0.000000 0.000000
# 5 0.000000 0.000000 0.000000 0.000000 0.190372 0.000000
# 6 0.000000 0.000000 0.000000 0.000000 0.000000 -0.063750
#
#
# Mechanical properties :
#
#
# Convention : Reuss Voigt Hill
#
# Bulk Modulus (GPa) = 46.68557 65.12629 55.90593
# Shear Modulus (GPa) = 21.90770 18.31885 20.11327
#
# Velocity S-wave (km/s) = 3.32988 3.04495 3.19060
# Velocity P-wave (km/s) = 6.19783 6.73236 6.47062
#
# Compressibility (1/GPa) = 0.02141989
#
# Stress axis : x y z
#
# Youngs Moduli (GPa) = 53.46733 79.45810 103.14155
#
# Poissons Ratio (x) = -0.13201 0.70100
# Poissons Ratio (y) = -0.08883 0.47928
# Poissons Ratio (z) = 0.36339 0.36923
#
# Static dielectric constant tensor:
#      x y z
#    x 1.697810 0.000000 0.000000 
#    y 0.000000 1.698610 0.000000 
#    z 0.000000 0.000000 1.698810 
# 
# From -- ./inp_files/24279.got.cif
#   From: 2010.05.17/outbox.cif.g08.bks.cpg/sg64_13_cif.got.tgz:24279.got - 2010.06.03 16:29:19.
