data_PCOD9480021
_publ_section_title
;
Structure prediction by ZEFSAII (Michael W. Deem and Ramdas Pophale) SiO2 
 PCOD9480021
Probable space group: C M C A
;
_chemical_formula_sum "Si O2"
_cell_formula_units_Z 88
_cell_length_a 21.486843
_cell_length_b 20.067081
_cell_length_c 8.034146
_cell_angle_alpha 90.000000
_cell_angle_beta 90.000000
_cell_angle_gamma 90.000000
_cell_volume 3464.148763
_symmetry_space_group_name_H-M "C M C A"
_symmetry_group_IT_number 64
_symmetry_cell_setting 'orthorhombic'
loop_
_space_group_symop_operation_xyz
x,y,z
-x,1/2-y,1/2+z
x,-y,-z
-x,1/2+y,1/2-z
-x,-y,-z
x,1/2+y,1/2-z
-x,y,z
x,1/2-y,1/2+z
1/2+x,1/2+y,z
1/2-x,-y,1/2+z
1/2+x,1/2-y,-z
1/2-x,y,1/2-z
1/2-x,1/2-y,-z
1/2+x,y,1/2-z
1/2-x,1/2+y,z
1/2+x,-y,1/2+z
loop_
_atom_site_type_symbol
_atom_site_label
_atom_site_fract_x
_atom_site_fract_y
_atom_site_fract_z
Si Si1 0.500000 0.084669 0.127820
Si Si2 0.313200 0.164417 0.149637
Si Si3 0.866747 0.728440 0.462436
Si Si4 0.865148 0.035498 0.262878
Si Si5 0.000000 0.262092 0.890116
Si Si6 0.865338 0.407114 0.392553
Si Si7 0.000000 0.117399 0.761876
O O1 0.562564 0.047446 0.187696
O O2 0.500000 0.162703 0.183004
O O3 0.500000 0.092046 0.927346
O O4 0.250000 0.171747 0.250000
O O5 0.362766 0.196475 0.280149
O O6 0.321937 0.208620 0.987303
O O7 0.327332 0.086946 0.123961
O O8 0.845800 0.669521 0.589617
O O9 0.936247 0.751136 0.506352
O O10 0.843310 0.959283 0.246999
O O11 0.855322 0.063226 0.075895
O O12 0.000000 0.197417 0.771347
O O13 0.939098 0.405625 0.358531
#
# Coordination Sequence:
#
# PCOD9480021 Si02
#       7
#     8  16  16  16   8  16   8
#     4  12  22  33  59  90 126 152 198 247 317 358
#     4  11  23  40  61  87 117 156 205 251 300 353
#     4  10  22  38  63  88 121 157 198 252 299 362
#     4  10  21  38  60  84 118 164 199 243 295 373
#     4  10  22  34  56  90 126 156 196 242 314 374
#     4   9  20  38  57  82 120 161 201 232 301 368
#     4  10  22  33  53  88 126 152 188 249 299 374
#
# _framework density 25.403067
#
# number of rings (size 3 to 8) (size 9 to 14) (size 15 to 20)
#    0.000    1.818    1.818    1.636    5.091    6.545 
#    0.000    0.909    0.000    8.727    0.000    0.000 
#    0.000    0.000    0.000    0.000    0.000    0.000 
#
# Total GULP energy -246092.402067 kJ/mol
# GULP energy per Si atom -5593.009138 kJ/mol
# Density = 2.534525 g / cm^3
# Si number density = 25.403067 Si / 1000 Ang^3
#
#
#
# Elastic Constant Matrix: (Units=GPa)
#
#
# Indices 1 2 3 4 5 6 
#
# 1 55.5191 -8.2854 3.5332 0.0000 0.0000 0.0000
# 2 -8.2854 108.4551 12.8596 0.0000 0.0000 0.0000
# 3 3.5332 12.8596 66.4174 0.0000 0.0000 0.0000
# 4 0.0000 0.0000 0.0000 31.0660 0.0000 0.0000
# 5 0.0000 0.0000 0.0000 0.0000 -4.4777 0.0000
# 6 0.0000 0.0000 0.0000 0.0000 0.0000 -9.4492
#
#
#
# Elastic Compliance Matrix: (Units=1/GPa)
#
#
# Indices 1 2 3 4 5 6 
#
# 1 0.018324 0.001551 -0.001275 0.000000 0.000000 0.000000
# 2 0.001551 0.009568 -0.001935 0.000000 0.000000 0.000000
# 3 -0.001275 -0.001935 0.015499 0.000000 0.000000 0.000000
# 4 0.000000 0.000000 0.000000 0.032190 0.000000 0.000000
# 5 0.000000 0.000000 0.000000 0.000000 -0.223327 0.000000
# 6 0.000000 0.000000 0.000000 0.000000 0.000000 -0.105829
#
#
# Mechanical properties :
#
#
# Convention : Reuss Voigt Hill
#
# Bulk Modulus (GPa) = 24.95429 27.40072 26.17750
# Shear Modulus (GPa) = -21.10611 18.24675 -1.42968
#
# Velocity S-wave (km/s) = -2.88557 2.68300 -0.75101
# Velocity P-wave (km/s) = 1.12133 4.51750 3.09438
#
# Compressibility (1/GPa) = 0.04007328
#
# Stress axis : x y z
#
# Youngs Moduli (GPa) = 54.57194 104.51124 64.52114
#
# Poissons Ratio (x) = -0.16211 0.08227
# Poissons Ratio (y) = -0.08465 0.12486
# Poissons Ratio (z) = 0.06959 0.20224
#
# Static dielectric constant tensor:
#      x y z
#    x 1.972230 0.000000 0.000000 
#    y 0.000000 2.083640 0.000000 
#    z 0.000000 0.000000 2.027250 
# 
# From -- ./inp_files/9367.got.cif
#   From: 2010.05.17/outbox.cif.g08.bks.cpg/sg64_5_cif.got.tgz:9367.got - 2010.06.03 16:29:19.
