data_PCOD9480159
_publ_section_title
;
Structure prediction by ZEFSAII (Michael W. Deem and Ramdas Pophale) SiO2 
 PCOD9480159
Probable space group: C M C A
;
_chemical_formula_sum "Si O2"
_cell_formula_units_Z 80
_cell_length_a 14.777714
_cell_length_b 9.959807
_cell_length_c 29.057968
_cell_angle_alpha 90.000000
_cell_angle_beta 90.000000
_cell_angle_gamma 90.000000
_cell_volume 4276.844115
_symmetry_space_group_name_H-M "C M C A"
_symmetry_group_IT_number 64
_symmetry_cell_setting 'orthorhombic'
loop_
_space_group_symop_operation_xyz
x,y,z
-x,1/2-y,1/2+z
x,-y,-z
-x,1/2+y,1/2-z
-x,-y,-z
x,1/2+y,1/2-z
-x,y,z
x,1/2-y,1/2+z
1/2+x,1/2+y,z
1/2-x,-y,1/2+z
1/2+x,1/2-y,-z
1/2-x,y,1/2-z
1/2-x,1/2-y,-z
1/2+x,y,1/2-z
1/2-x,1/2+y,z
1/2+x,-y,1/2+z
loop_
_atom_site_type_symbol
_atom_site_label
_atom_site_fract_x
_atom_site_fract_y
_atom_site_fract_z
Si Si1 0.659301 0.087576 0.780075
Si Si2 0.757585 0.979630 0.865357
Si Si3 0.902745 0.620466 0.292313
Si Si4 0.719953 0.774021 0.427693
Si Si5 0.607428 0.339825 0.489162
O O1 0.750000 0.115126 0.750000
O O2 0.604400 0.224029 0.780214
O O3 0.683325 0.047367 0.832108
O O4 0.612853 0.965932 0.753493
O O5 0.827393 0.916910 0.829177
O O6 0.722364 0.859385 0.896826
O O7 0.800129 0.095940 0.896832
O O8 0.000000 0.587303 0.312209
O O9 0.647255 0.744958 0.467771
O O10 0.820387 0.801947 0.449185
O O11 0.616417 0.500000 0.500000
O O12 0.500000 0.314130 0.480515
#
# Coordination Sequence:
#
# PCOD9480159 Si02
#       5
#    16  16  16  16  16
#     4  10  21  39  60  82 118 163 198 236 298 358
#     4  11  22  39  63  87 117 162 202 240 299 357
#     4  11  23  38  58  88 122 155 200 251 295 346
#     4  11  22  41  64  91 122 157 198 253 300 355
#     4  10  22  41  65  91 122 160 197 242 308 372
#
# _framework density 18.705382
#
# number of rings (size 3 to 8) (size 9 to 14) (size 15 to 20)
#    0.000    1.400    4.000    2.400    2.800    1.600 
#    0.000    3.000    0.000    0.000    0.000    0.000 
#    0.000    0.000    0.000    0.000    0.000    0.000 
#
# Total GULP energy -223197.512568 kJ/mol
# GULP energy per Si atom -5579.937814 kJ/mol
# Density = 1.866281 g / cm^3
# Si number density = 18.705382 Si / 1000 Ang^3
#
#
#
# Elastic Constant Matrix: (Units=GPa)
#
#
# Indices 1 2 3 4 5 6 
#
# 1 79.9124 14.5394 7.3816 0.0000 0.0000 0.0000
# 2 14.5394 94.5313 26.6028 0.0000 0.0000 0.0000
# 3 7.3816 26.6028 70.5899 0.0000 0.0000 0.0000
# 4 0.0000 0.0000 0.0000 38.1915 0.0000 0.0000
# 5 0.0000 0.0000 0.0000 0.0000 1.0364 0.0000
# 6 0.0000 0.0000 0.0000 0.0000 0.0000 -299.0577
#
#
#
# Elastic Compliance Matrix: (Units=1/GPa)
#
#
# Indices 1 2 3 4 5 6 
#
# 1 0.012902 -0.001795 -0.000673 0.000000 0.000000 0.000000
# 2 -0.001795 0.012083 -0.004366 0.000000 0.000000 0.000000
# 3 -0.000673 -0.004366 0.015882 0.000000 0.000000 0.000000
# 4 0.000000 0.000000 0.000000 0.026184 0.000000 0.000000
# 5 0.000000 0.000000 0.000000 0.000000 0.964902 0.000000
# 6 0.000000 0.000000 0.000000 0.000000 0.000000 -0.003344
#
#
# Mechanical properties :
#
#
# Convention : Reuss Voigt Hill
#
# Bulk Modulus (GPa) = 36.76462 38.00903 37.38682
# Shear Modulus (GPa) = 4.75582 -38.86530 -17.05474
#
# Velocity S-wave (km/s) = 1.59625 -4.56319 -3.02281
# Velocity P-wave (km/s) = 4.80568 2.72023 2.80133
#
# Compressibility (1/GPa) = 0.02720006
#
# Stress axis : x y z
#
# Youngs Moduli (GPa) = 77.50469 82.75896 62.96402
#
# Poissons Ratio (x) = 0.14857 0.04236
# Poissons Ratio (y) = 0.13913 0.27490
# Poissons Ratio (z) = 0.05214 0.36133
#
# Static dielectric constant tensor:
#      x y z
#    x 1.635420 0.000000 0.000000 
#    y 0.000000 1.634750 0.000000 
#    z 0.000000 0.000000 1.640350 
# 
# From -- ./inp_files/50305.got.cif
#   From: 2010.05.17/outbox.cif.g08.bks.cpg/sg64_26_cif.got.tgz:50305.got - 2010.06.03 16:29:19.
