data_PCOD9480705
_publ_section_title
;
Structure prediction by ZEFSAII (Michael W. Deem and Ramdas Pophale) SiO2 
 PCOD9480705
Probable space group: C M C A
;
_chemical_formula_sum "Si O2"
_cell_formula_units_Z 80
_cell_length_a 28.556272
_cell_length_b 5.152121
_cell_length_c 28.260944
_cell_angle_alpha 90.000000
_cell_angle_beta 90.000000
_cell_angle_gamma 90.000000
_cell_volume 4157.901804
_symmetry_space_group_name_H-M "C M C A"
_symmetry_group_IT_number 64
_symmetry_cell_setting 'orthorhombic'
loop_
_space_group_symop_operation_xyz
x,y,z
-x,1/2-y,1/2+z
x,-y,-z
-x,1/2+y,1/2-z
-x,-y,-z
x,1/2+y,1/2-z
-x,y,z
x,1/2-y,1/2+z
1/2+x,1/2+y,z
1/2-x,-y,1/2+z
1/2+x,1/2-y,-z
1/2-x,y,1/2-z
1/2-x,1/2-y,-z
1/2+x,y,1/2-z
1/2-x,1/2+y,z
1/2+x,-y,1/2+z
loop_
_atom_site_type_symbol
_atom_site_label
_atom_site_fract_x
_atom_site_fract_y
_atom_site_fract_z
Si Si1 0.876856 0.194317 0.368182
Si Si2 0.099541 0.807273 0.924313
Si Si3 0.446809 0.766496 0.282337
Si Si4 0.332837 0.000000 0.500000
Si Si5 0.780826 0.155125 0.907441
Si Si6 0.500000 0.246676 0.967036
O O1 0.899748 0.401026 0.404318
O O2 0.906037 0.223473 0.320255
O O3 0.822631 0.280642 0.371007
O O4 0.881174 0.902580 0.387462
O O5 0.046836 0.740417 0.936695
O O6 0.133280 0.812037 0.969932
O O7 0.443047 0.547004 0.241985
O O8 0.500000 0.743260 0.302817
O O9 0.302486 0.848185 0.460734
O O10 0.741272 0.371756 0.901957
O O11 0.500000 0.500000 0.000000
O O12 0.500000 0.000000 0.000000
#
# Coordination Sequence:
#
# PCOD9480705 Si02
#       6
#    16  16  16   8  16   8
#     4  11  24  41  63  90 123 157 201 257 306 366
#     4  11  24  37  57  86 123 168 211 248 297 354
#     4  10  22  41  67  95 122 153 192 241 307 381
#     4  10  22  39  58  84 124 162 219 252 306 336
#     4  11  23  39  61  87 118 161 209 259 302 346
#     4  12  24  38  54  80 122 172 212 252 280 352
#
# _framework density 19.240473999999999
#
# number of rings (size 3 to 8) (size 9 to 14) (size 15 to 20)
#    0.000    1.200    1.000    5.400    5.600    3.200 
#    0.000    0.000    0.000    3.600    0.000    0.000 
#    0.000    0.000    0.000    0.000    0.000    0.000 
#
# Total GULP energy -223525.200226 kJ/mol
# GULP energy per Si atom -5588.130006 kJ/mol
# Density = 1.919668 g / cm^3
# Si number density = 19.240474 Si / 1000 Ang^3
#
#
#
# Elastic Constant Matrix: (Units=GPa)
#
#
# Indices 1 2 3 4 5 6 
#
# 1 104.0847 -11.0690 30.1326 0.0000 0.0000 0.0000
# 2 -11.0690 45.0991 -12.7440 0.0000 0.0000 0.0000
# 3 30.1326 -12.7440 45.1654 0.0000 0.0000 0.0000
# 4 0.0000 0.0000 0.0000 24.2989 0.0000 0.0000
# 5 0.0000 0.0000 0.0000 0.0000 34.7358 0.0000
# 6 0.0000 0.0000 0.0000 0.0000 0.0000 17.6510
#
#
#
# Elastic Compliance Matrix: (Units=1/GPa)
#
#
# Indices 1 2 3 4 5 6 
#
# 1 0.011930 0.000738 -0.007751 0.000000 0.000000 0.000000
# 2 0.000738 0.024140 0.006319 0.000000 0.000000 0.000000
# 3 -0.007751 0.006319 0.029095 0.000000 0.000000 0.000000
# 4 0.000000 0.000000 0.000000 0.041154 0.000000 0.000000
# 5 0.000000 0.000000 0.000000 0.000000 0.028789 0.000000
# 6 0.000000 0.000000 0.000000 0.000000 0.000000 0.056654
#
#
# Mechanical properties :
#
#
# Convention : Reuss Voigt Hill
#
# Bulk Modulus (GPa) = 15.67960 22.99871 19.33915
# Shear Modulus (GPa) = 23.31991 27.87244 25.59618
#
# Velocity S-wave (km/s) = 3.48519 3.81022 3.65133
# Velocity P-wave (km/s) = 4.93583 5.59789 5.27725
#
# Compressibility (1/GPa) = 0.06377714
#
# Stress axis : x y z
#
# Youngs Moduli (GPa) = 83.82270 41.42477 34.37008
#
# Poissons Ratio (x) = -0.03056 0.26640
# Poissons Ratio (y) = -0.06184 -0.21719
# Poissons Ratio (z) = 0.64971 -0.26177
#
# Static dielectric constant tensor:
#      x y z
#    x 1.681810 0.000000 0.000000 
#    y 0.000000 1.670320 0.000000 
#    z 0.000000 0.000000 1.654690 
# 
# From -- ./inp_files/51202.got.cif
#   From: 2010.05.17/outbox.cif.g08.bks.cpg/sg64_26_cif.got.tgz:51202.got - 2010.06.03 16:29:19.
