data_PCOD9480542
_publ_section_title
;
Structure prediction by ZEFSAII (Michael W. Deem and Ramdas Pophale) SiO2 
 PCOD9480542
Probable space group: C M C A
;
_chemical_formula_sum "Si O2"
_cell_formula_units_Z 108
_cell_length_a 14.489449
_cell_length_b 22.940724
_cell_length_c 14.241590
_cell_angle_alpha 90.000000
_cell_angle_beta 90.000000
_cell_angle_gamma 90.000000
_cell_volume 4733.882448
_symmetry_space_group_name_H-M "C M C A"
_symmetry_group_IT_number 64
_symmetry_cell_setting 'orthorhombic'
loop_
_space_group_symop_operation_xyz
x,y,z
-x,1/2-y,1/2+z
x,-y,-z
-x,1/2+y,1/2-z
-x,-y,-z
x,1/2+y,1/2-z
-x,y,z
x,1/2-y,1/2+z
1/2+x,1/2+y,z
1/2-x,-y,1/2+z
1/2+x,1/2-y,-z
1/2-x,y,1/2-z
1/2-x,1/2-y,-z
1/2+x,y,1/2-z
1/2-x,1/2+y,z
1/2+x,-y,1/2+z
loop_
_atom_site_type_symbol
_atom_site_label
_atom_site_fract_x
_atom_site_fract_y
_atom_site_fract_z
Si Si1 0.600038 0.747211 0.795897
Si Si2 0.861390 0.887120 0.243266
Si Si3 0.894149 0.149089 0.166550
Si Si4 0.175445 0.523391 0.595770
Si Si5 0.250000 0.066992 0.250000
Si Si6 0.228798 0.306466 0.940734
Si Si7 0.500000 0.500000 0.500000
Si Si8 0.857218 0.092356 0.545936
O O1 0.500000 0.757404 0.842605
O O2 0.612048 0.678377 0.784037
O O3 0.598138 0.783969 0.700299
O O4 0.681963 0.778163 0.850297
O O5 0.750000 0.887560 0.250000
O O6 0.884301 0.936522 0.166482
O O7 0.895311 0.902136 0.347710
O O8 0.819314 0.155010 0.083400
O O9 0.840663 0.109020 0.244471
O O10 0.000000 0.128645 0.148849
O O11 0.129078 0.500000 0.500000
O O12 0.226780 0.474951 0.661480
O O13 0.257242 0.563789 0.557554
O O14 0.250000 0.250000 0.000000
O O15 0.157276 0.346423 0.996487
O O16 0.420448 0.549858 0.487450
#
# Coordination Sequence:
#
# PCOD9480542 Si02
#       8
#    16  16  16  16   8  16   4  16
#     4  11  24  42  68 104 142 188 246 301 375 458
#     4  10  21  44  71  97 139 196 243 297 379 447
#     4  11  25  45  71 106 144 193 247 306 373 455
#     4  11  22  43  71 103 135 195 244 299 365 449
#     4  12  22  46  72 104 150 192 242 302 378 444
#     4  12  24  44  74 102 148 195 243 316 385 449
#     4  12  28  40  68 120 148 192 272 318 368 460
#     4  11  24  43  70 104 148 192 246 310 372 449
#
# _framework density 22.814254999999999
#
# number of rings (size 3 to 8) (size 9 to 14) (size 15 to 20)
#    0.000    0.889    4.444    4.444    2.074    0.593 
#    4.000    0.741    0.000    4.444    0.000    0.000 
#    0.000    0.000    0.000    0.000    0.000    0.000 
#
# Total GULP energy -300882.765493 kJ/mol
# GULP energy per Si atom -5571.903065 kJ/mol
# Density = 2.276233 g / cm^3
# Si number density = 22.814255 Si / 1000 Ang^3
#
#
#
# Elastic Constant Matrix: (Units=GPa)
#
#
# Indices 1 2 3 4 5 6 
#
# 1 106.8964 17.0831 11.5111 0.0000 0.0000 0.0000
# 2 17.0831 148.2121 41.6914 0.0000 0.0000 0.0000
# 3 11.5111 41.6914 86.8060 0.0000 0.0000 0.0000
# 4 0.0000 0.0000 0.0000 23.3708 0.0000 0.0000
# 5 0.0000 0.0000 0.0000 0.0000 12.0743 0.0000
# 6 0.0000 0.0000 0.0000 0.0000 0.0000 -45.6071
#
#
#
# Elastic Compliance Matrix: (Units=1/GPa)
#
#
# Indices 1 2 3 4 5 6 
#
# 1 0.009585 -0.000864 -0.000856 0.000000 0.000000 0.000000
# 2 -0.000864 0.007879 -0.003670 0.000000 0.000000 0.000000
# 3 -0.000856 -0.003670 0.013396 0.000000 0.000000 0.000000
# 4 0.000000 0.000000 0.000000 0.042788 0.000000 0.000000
# 5 0.000000 0.000000 0.000000 0.000000 0.082821 0.000000
# 6 0.000000 0.000000 0.000000 0.000000 0.000000 -0.021926
#
#
# Mechanical properties :
#
#
# Convention : Reuss Voigt Hill
#
# Bulk Modulus (GPa) = 49.79915 53.60955 51.70435
# Shear Modulus (GPa) = 32.89141 16.07618 24.48380
#
# Velocity S-wave (km/s) = 3.80110 2.65741 3.27950
# Velocity P-wave (km/s) = 6.41404 5.74152 6.08708
#
# Compressibility (1/GPa) = 0.02008067
#
# Stress axis : x y z
#
# Youngs Moduli (GPa) = 104.32846 126.92144 74.64983
#
# Poissons Ratio (x) = 0.10966 0.06391
# Poissons Ratio (y) = 0.09014 0.27393
# Poissons Ratio (z) = 0.08932 0.46574
#
# Static dielectric constant tensor:
#      x y z
#    x 1.520190 0.000000 0.000000 
#    y 0.000000 1.886760 0.000000 
#    z 0.000000 0.000000 2.000630 
# 
# From -- ./inp_files/24313.got.cif
#   From: 2010.05.17/outbox.cif.g08.bks.cpg/sg64_13_cif.got.tgz:24313.got - 2010.06.03 16:29:19.
