data_PCOD9480568
_publ_section_title
;
Structure prediction by ZEFSAII (Michael W. Deem and Ramdas Pophale) SiO2 
 PCOD9480568
Probable space group: C M C A
;
_chemical_formula_sum "Si O2"
_cell_formula_units_Z 104
_cell_length_a 13.121407
_cell_length_b 13.121136
_cell_length_c 37.520604
_cell_angle_alpha 90.000000
_cell_angle_beta 90.000000
_cell_angle_gamma 90.000000
_cell_volume 6459.838561
_symmetry_space_group_name_H-M "C M C A"
_symmetry_group_IT_number 64
_symmetry_cell_setting 'orthorhombic'
loop_
_space_group_symop_operation_xyz
x,y,z
-x,1/2-y,1/2+z
x,-y,-z
-x,1/2+y,1/2-z
-x,-y,-z
x,1/2+y,1/2-z
-x,y,z
x,1/2-y,1/2+z
1/2+x,1/2+y,z
1/2-x,-y,1/2+z
1/2+x,1/2-y,-z
1/2-x,y,1/2-z
1/2-x,1/2-y,-z
1/2+x,y,1/2-z
1/2-x,1/2+y,z
1/2+x,-y,1/2+z
loop_
_atom_site_type_symbol
_atom_site_label
_atom_site_fract_x
_atom_site_fract_y
_atom_site_fract_z
Si Si1 0.621116 0.878878 0.613360
Si Si2 0.750000 0.250001 0.250000
Si Si3 0.621116 0.121121 0.613360
Si Si4 0.621136 0.378859 0.805685
Si Si5 0.249999 0.249999 0.942232
Si Si6 0.377185 0.622818 0.500000
Si Si7 0.878864 0.121139 0.805685
O O1 0.500000 0.861557 0.609932
O O2 0.650773 0.849222 0.653829
O O3 0.680926 0.819078 0.583315
O O4 0.638421 0.999999 0.609934
O O5 0.681200 0.181200 0.275757
O O6 0.818800 0.318802 0.275757
O O7 0.500000 0.138441 0.609932
O O8 0.680925 0.180920 0.583315
O O9 0.650774 0.150777 0.653829
O O10 0.500000 0.361500 0.802260
O O11 0.638488 0.499999 0.802260
O O12 0.178039 0.321958 0.966607
O O13 0.321959 0.178041 0.966608
O O14 0.360377 0.500000 0.500000
O O15 0.500000 0.639627 0.500000
O O16 0.000000 0.138499 0.802260
#
# Coordination Sequence:
#
# PCOD9480568 Si02
#       7
#    16   8  16  16  16  16  16
#     4   9  18  33  51  71  95 122 156 199 239 272
#     4  12  18  28  50  72  92 126 168 192 222 284
#     4   9  18  33  51  71  95 122 156 199 239 272
#     4   9  19  33  47  68  98 126 154 195 242 278
#     4  11  19  32  55  75  90 122 166 193 221 278
#     4  10  22  36  48  70 104 130 148 184 238 284
#     4   9  19  33  47  68  98 126 154 195 242 278
#
# _framework density 16.099474000000001
#
# number of rings (size 3 to 8) (size 9 to 14) (size 15 to 20)
#    0.000    2.308    0.000    5.538    0.000    0.000 
#    0.000    0.000    0.000    7.385    0.000   25.846 
#    0.000    0.000    0.000    0.000    0.000    0.000 
#
# Total GULP energy -289981.277193 kJ/mol
# GULP energy per Si atom -5576.563023 kJ/mol
# Density = 1.606283 g / cm^3
# Si number density = 16.099474 Si / 1000 Ang^3
#
#
#
# Elastic Constant Matrix: (Units=GPa)
#
#
# Indices 1 2 3 4 5 6 
#
# 1 90.3766 78.5679 93.8354 0.0000 0.0000 0.0000
# 2 78.5679 90.3303 93.8049 0.0000 0.0000 0.0000
# 3 93.8354 93.8049 180.4394 0.0000 0.0000 0.0000
# 4 0.0000 0.0000 0.0000 34.4927 0.0000 0.0000
# 5 0.0000 0.0000 0.0000 0.0000 34.4948 0.0000
# 6 0.0000 0.0000 0.0000 0.0000 0.0000 31.8230
#
#
#
# Elastic Compliance Matrix: (Units=1/GPa)
#
#
# Indices 1 2 3 4 5 6 
#
# 1 0.049423 -0.035418 -0.007289 0.000000 0.000000 0.000000
# 2 -0.035418 0.049440 -0.007284 0.000000 0.000000 0.000000
# 3 -0.007289 -0.007284 0.013119 0.000000 0.000000 0.000000
# 4 0.000000 0.000000 0.000000 0.028992 0.000000 0.000000
# 5 0.000000 0.000000 0.000000 0.000000 0.028990 0.000000
# 6 0.000000 0.000000 0.000000 0.000000 0.000000 0.031424
#
#
# Mechanical properties :
#
#
# Convention : Reuss Voigt Hill
#
# Bulk Modulus (GPa) = 83.32681 99.28474 91.30578
# Shear Modulus (GPa) = 16.37354 26.49129 21.43241
#
# Velocity S-wave (km/s) = 3.19254 4.06085 3.65259
# Velocity P-wave (km/s) = 8.09071 9.15373 8.63859
#
# Compressibility (1/GPa) = 0.01200094
#
# Stress axis : x y z
#
# Youngs Moduli (GPa) = 20.23344 20.22637 76.22257
#
# Poissons Ratio (x) = 0.71637 0.55561
# Poissons Ratio (y) = 0.71662 0.55520
# Poissons Ratio (z) = 0.14749 0.14733
#
# Static dielectric constant tensor:
#      x y z
#    x 1.514140 0.000000 0.000000 
#    y 0.000000 1.514140 0.000000 
#    z 0.000000 0.000000 1.527080 
# 
# From -- ./inp_files/53233.got.cif
#   From: 2010.05.17/outbox.cif.g08.bks.cpg/sg64_27_cif.got.tgz:53233.got - 2010.06.03 16:29:19.
