data_PCOD9480354
_publ_section_title
;
Structure prediction by ZEFSAII (Michael W. Deem and Ramdas Pophale) SiO2 
 PCOD9480354
Probable space group: C M C A
;
_chemical_formula_sum "Si O2"
_cell_formula_units_Z 80
_cell_length_a 17.387973
_cell_length_b 26.339238
_cell_length_c 8.968822
_cell_angle_alpha 90.000000
_cell_angle_beta 90.000000
_cell_angle_gamma 90.000000
_cell_volume 4107.594546
_symmetry_space_group_name_H-M "C M C A"
_symmetry_group_IT_number 64
_symmetry_cell_setting 'orthorhombic'
loop_
_space_group_symop_operation_xyz
x,y,z
-x,1/2-y,1/2+z
x,-y,-z
-x,1/2+y,1/2-z
-x,-y,-z
x,1/2+y,1/2-z
-x,y,z
x,1/2-y,1/2+z
1/2+x,1/2+y,z
1/2-x,-y,1/2+z
1/2+x,1/2-y,-z
1/2-x,y,1/2-z
1/2-x,1/2-y,-z
1/2+x,y,1/2-z
1/2-x,1/2+y,z
1/2+x,-y,1/2+z
loop_
_atom_site_type_symbol
_atom_site_label
_atom_site_fract_x
_atom_site_fract_y
_atom_site_fract_z
Si Si1 0.175415 0.283171 0.680284
Si Si2 0.090402 0.555873 0.569621
Si Si3 0.408047 0.801336 0.989573
Si Si4 0.676108 0.890953 0.162471
Si Si5 0.781997 0.607234 0.407804
O O1 0.250000 0.255435 0.750000
O O2 0.127143 0.248028 0.571052
O O3 0.212555 0.331488 0.595426
O O4 0.124185 0.302242 0.820200
O O5 0.101550 0.500000 0.500000
O O6 0.131565 0.571399 0.725678
O O7 0.132698 0.590890 0.449129
O O8 0.000000 0.565169 0.584457
O O9 0.500000 0.799654 0.988023
O O10 0.378571 0.848997 0.088157
O O11 0.750000 0.867780 0.250000
O O12 0.722080 0.915733 0.025660
O O13 0.750000 0.591047 0.250000
#
# Coordination Sequence:
#
# PCOD9480354 Si02
#       5
#    16  16  16  16  16
#     4  11  23  40  59  85 125 171 218 266 315 374
#     4  10  23  42  65  94 128 163 203 263 333 390
#     4  12  24  37  58  91 127 169 219 268 319 375
#     4  10  21  40  65  90 121 170 212 260 317 382
#     4  10  21  41  65  91 122 163 219 266 315 375
#
# _framework density 19.476118
#
# number of rings (size 3 to 8) (size 9 to 14) (size 15 to 20)
#    0.000    1.400    4.000    2.400    5.600    4.000 
#    0.000    0.000    0.000    2.400    0.000    0.000 
#    0.000    0.000    0.000    0.000    0.000    0.000 
#
# Total GULP energy -222962.913925 kJ/mol
# GULP energy per Si atom -5574.072848 kJ/mol
# Density = 1.943179 g / cm^3
# Si number density = 19.476118 Si / 1000 Ang^3
#
#
#
# Elastic Constant Matrix: (Units=GPa)
#
#
# Indices 1 2 3 4 5 6 
#
# 1 130.8272 36.6617 40.6165 0.0000 0.0000 0.0000
# 2 36.6617 50.0757 30.4106 0.0000 0.0000 0.0000
# 3 40.6165 30.4106 115.6960 0.0000 0.0000 0.0000
# 4 0.0000 0.0000 0.0000 18.0118 0.0000 0.0000
# 5 0.0000 0.0000 0.0000 0.0000 33.9258 0.0000
# 6 0.0000 0.0000 0.0000 0.0000 0.0000 27.4224
#
#
#
# Elastic Compliance Matrix: (Units=1/GPa)
#
#
# Indices 1 2 3 4 5 6 
#
# 1 0.009948 -0.006143 -0.001878 0.000000 0.000000 0.000000
# 2 -0.006143 0.027556 -0.005087 0.000000 0.000000 0.000000
# 3 -0.001878 -0.005087 0.010640 0.000000 0.000000 0.000000
# 4 0.000000 0.000000 0.000000 0.055519 0.000000 0.000000
# 5 0.000000 0.000000 0.000000 0.000000 0.029476 0.000000
# 6 0.000000 0.000000 0.000000 0.000000 0.000000 0.036467
#
#
# Mechanical properties :
#
#
# Convention : Reuss Voigt Hill
#
# Bulk Modulus (GPa) = 45.60096 56.88629 51.24362
# Shear Modulus (GPa) = 24.61478 28.46599 26.54038
#
# Velocity S-wave (km/s) = 3.55892 3.82721 3.69550
# Velocity P-wave (km/s) = 6.35236 6.98582 6.67661
#
# Compressibility (1/GPa) = 0.02192936
#
# Stress axis : x y z
#
# Youngs Moduli (GPa) = 100.52219 36.28950 93.98889
#
# Poissons Ratio (x) = 0.22292 0.17649
# Poissons Ratio (y) = 0.61750 0.47808
# Poissons Ratio (z) = 0.18875 0.18459
#
# Static dielectric constant tensor:
#      x y z
#    x 1.680110 0.000000 0.000000 
#    y 0.000000 1.704020 0.000000 
#    z 0.000000 0.000000 1.745940 
# 
# From -- ./inp_files/7084.got.cif
#   From: 2010.05.17/outbox.cif.g08.bks.cpg/sg64_4_cif.got.tgz:7084.got - 2010.06.03 16:29:19.
