data_PCOD9480859
_publ_section_title
;
Structure prediction by ZEFSAII (Michael W. Deem and Ramdas Pophale) SiO2 
 PCOD9480859
Probable space group: C M C A
;
_chemical_formula_sum "Si O2"
_cell_formula_units_Z 88
_cell_length_a 28.011206
_cell_length_b 4.990344
_cell_length_c 30.050852
_cell_angle_alpha 90.000000
_cell_angle_beta 90.000000
_cell_angle_gamma 90.000000
_cell_volume 4200.674989
_symmetry_space_group_name_H-M "C M C A"
_symmetry_group_IT_number 64
_symmetry_cell_setting 'orthorhombic'
loop_
_space_group_symop_operation_xyz
x,y,z
-x,1/2-y,1/2+z
x,-y,-z
-x,1/2+y,1/2-z
-x,-y,-z
x,1/2+y,1/2-z
-x,y,z
x,1/2-y,1/2+z
1/2+x,1/2+y,z
1/2-x,-y,1/2+z
1/2+x,1/2-y,-z
1/2-x,y,1/2-z
1/2-x,1/2-y,-z
1/2+x,y,1/2-z
1/2-x,1/2+y,z
1/2+x,-y,1/2+z
loop_
_atom_site_type_symbol
_atom_site_label
_atom_site_fract_x
_atom_site_fract_y
_atom_site_fract_z
Si Si1 0.279267 0.144526 0.378061
Si Si2 0.188308 0.242697 0.721072
Si Si3 0.554619 0.756933 0.968356
Si Si4 0.118861 0.097142 0.885905
Si Si5 0.000000 0.554671 0.780227
Si Si6 0.402927 0.395609 0.328978
O O1 0.237098 0.941139 0.390718
O O2 0.287068 0.165720 0.324595
O O3 0.329049 0.027156 0.395832
O O4 0.198788 0.949698 0.739765
O O5 0.132212 0.227765 0.708196
O O6 0.500000 0.808573 0.952422
O O7 0.590165 0.706062 0.927947
O O8 0.553676 0.500000 0.000000
O O9 0.569484 0.000000 0.000000
O O10 0.122394 0.347555 0.851749
O O11 0.090898 0.846785 0.863864
O O12 0.952637 0.512527 0.808854
O O13 0.000000 0.354827 0.738660
#
# Coordination Sequence:
#
# PCOD9480859 Si02
#       6
#    16  16  16  16   8  16
#     4  11  23  39  59  86 117 158 209 255 310 361
#     4  11  21  36  55  78 115 153 201 260 309 351
#     4  10  22  40  66  98 128 158 193 243 305 372
#     4  11  23  41  64  89 125 161 200 251 308 369
#     4  12  24  38  56  82 120 164 212 256 296 350
#     4  11  23  37  58  86 117 166 208 251 301 367
#
# _framework density 20.949013000000001
#
# number of rings (size 3 to 8) (size 9 to 14) (size 15 to 20)
#    0.000    1.091    0.000    8.727    2.545    2.182 
#    0.000    0.000    0.000    3.273    0.000    0.000 
#    0.000    0.000    0.000    0.000    0.000    0.000 
#
# Total GULP energy -246090.210128 kJ/mol
# GULP energy per Si atom -5592.959321 kJ/mol
# Density = 2.090133 g / cm^3
# Si number density = 20.949013 Si / 1000 Ang^3
#
#
#
# Elastic Constant Matrix: (Units=GPa)
#
#
# Indices 1 2 3 4 5 6 
#
# 1 97.2412 -2.6031 24.9893 0.0000 0.0000 0.0000
# 2 -2.6031 91.6987 -1.9407 0.0000 0.0000 0.0000
# 3 24.9893 -1.9407 34.7200 0.0000 0.0000 0.0000
# 4 0.0000 0.0000 0.0000 22.9056 0.0000 0.0000
# 5 0.0000 0.0000 0.0000 0.0000 35.0367 0.0000
# 6 0.0000 0.0000 0.0000 0.0000 0.0000 -13.5537
#
#
#
# Elastic Compliance Matrix: (Units=1/GPa)
#
#
# Indices 1 2 3 4 5 6 
#
# 1 0.012620 0.000166 -0.009074 0.000000 0.000000 0.000000
# 2 0.000166 0.010920 0.000491 0.000000 0.000000 0.000000
# 3 -0.009074 0.000491 0.035360 0.000000 0.000000 0.000000
# 4 0.000000 0.000000 0.000000 0.043657 0.000000 0.000000
# 5 0.000000 0.000000 0.000000 0.000000 0.028542 0.000000
# 6 0.000000 0.000000 0.000000 0.000000 0.000000 -0.073781
#
#
# Mechanical properties :
#
#
# Convention : Reuss Voigt Hill
#
# Bulk Modulus (GPa) = 23.77173 29.39456 26.58315
# Shear Modulus (GPa) = 56.70576 22.42534 39.56555
#
# Velocity S-wave (km/s) = 5.20838 3.27536 4.35059
# Velocity P-wave (km/s) = 6.89505 5.32596 6.16066
#
# Compressibility (1/GPa) = 0.04206677
#
# Stress axis : x y z
#
# Youngs Moduli (GPa) = 79.23954 91.57185 28.28054
#
# Poissons Ratio (x) = -0.01522 0.25661
# Poissons Ratio (y) = -0.01317 -0.01388
# Poissons Ratio (z) = 0.71900 -0.04494
#
# Static dielectric constant tensor:
#      x y z
#    x 1.783320 0.000000 0.000000 
#    y 0.000000 1.730690 0.000000 
#    z 0.000000 0.000000 1.720260 
# 
# From -- ./inp_files/53870.got.cif
#   From: 2010.05.17/outbox.cif.g08.bks.cpg/sg64_27_cif.got.tgz:53870.got - 2010.06.03 16:29:19.
