data_PCOD9480791
_publ_section_title
;
Structure prediction by ZEFSAII (Michael W. Deem and Ramdas Pophale) SiO2 
 PCOD9480791
Probable space group: C M C A
;
_chemical_formula_sum "Si O2"
_cell_formula_units_Z 112
_cell_length_a 26.274768
_cell_length_b 19.390534
_cell_length_c 11.557875
_cell_angle_alpha 90.000000
_cell_angle_beta 90.000000
_cell_angle_gamma 90.000000
_cell_volume 5888.526754
_symmetry_space_group_name_H-M "C M C A"
_symmetry_group_IT_number 64
_symmetry_cell_setting 'orthorhombic'
loop_
_space_group_symop_operation_xyz
x,y,z
-x,1/2-y,1/2+z
x,-y,-z
-x,1/2+y,1/2-z
-x,-y,-z
x,1/2+y,1/2-z
-x,y,z
x,1/2-y,1/2+z
1/2+x,1/2+y,z
1/2-x,-y,1/2+z
1/2+x,1/2-y,-z
1/2-x,y,1/2-z
1/2-x,1/2-y,-z
1/2+x,y,1/2-z
1/2-x,1/2+y,z
1/2+x,-y,1/2+z
loop_
_atom_site_type_symbol
_atom_site_label
_atom_site_fract_x
_atom_site_fract_y
_atom_site_fract_z
Si Si1 0.639988 0.706275 0.786701
Si Si2 0.396801 0.828341 0.928067
Si Si3 0.707200 0.298701 0.436685
Si Si4 0.802078 0.464784 0.680668
Si Si5 0.703328 0.890904 0.449433
Si Si6 0.442295 0.876679 0.151386
Si Si7 0.385228 0.517978 0.377167
O O1 0.606164 0.770401 0.830321
O O2 0.681753 0.724190 0.685952
O O3 0.667968 0.667745 0.892690
O O4 0.600768 0.651266 0.736028
O O5 0.406579 0.904883 0.882186
O O6 0.340103 0.818939 0.982301
O O7 0.434523 0.828253 0.037675
O O8 0.750000 0.250000 0.500000
O O9 0.739500 0.367728 0.420049
O O10 0.750000 0.454135 0.750000
O O11 0.802823 0.536163 0.611395
O O12 0.806738 0.403734 0.585533
O O13 0.846236 0.476043 0.773125
O O14 0.500000 0.872466 0.191803
O O15 0.426377 0.956579 0.130878
O O16 0.358403 0.500000 0.500000
#
# Coordination Sequence:
#
# PCOD9480791 Si02
#       7
#    16  16  16  16  16  16  16
#     4  11  22  41  62  91 129 170 213 264 320 388
#     4  10  23  36  62  91 122 161 215 264 307 377
#     4  11  22  36  56  88 133 179 208 244 310 387
#     4  11  23  35  59  88 125 168 214 258 312 373
#     4  11  23  37  58  87 129 175 207 251 308 382
#     4  10  23  44  67  89 119 162 209 274 347 390
#     4  10  22  40  61  89 123 159 212 269 317 384
#
# _framework density 19.020038
#
# number of rings (size 3 to 8) (size 9 to 14) (size 15 to 20)
#    0.000    1.429    2.857    2.143    8.000    3.143 
#    0.000    0.000    0.000    1.714    0.000    0.000 
#    0.000    0.000    0.000    0.000    0.000    0.000 
#
# Total GULP energy -312010.533185 kJ/mol
# GULP energy per Si atom -5571.616664 kJ/mol
# Density = 1.897675 g / cm^3
# Si number density = 19.020038 Si / 1000 Ang^3
#
#
#
# Elastic Constant Matrix: (Units=GPa)
#
#
# Indices 1 2 3 4 5 6 
#
# 1 71.2192 5.1881 17.0228 0.0000 0.0000 0.0000
# 2 5.1881 88.8325 21.3230 0.0000 0.0000 0.0000
# 3 17.0228 21.3230 74.1603 0.0000 0.0000 0.0000
# 4 0.0000 0.0000 0.0000 31.0965 0.0000 0.0000
# 5 0.0000 0.0000 0.0000 0.0000 5.8080 0.0000
# 6 0.0000 0.0000 0.0000 0.0000 0.0000 123.1118
#
#
#
# Elastic Compliance Matrix: (Units=1/GPa)
#
#
# Indices 1 2 3 4 5 6 
#
# 1 0.014856 -0.000053 -0.003395 0.000000 0.000000 0.000000
# 2 -0.000053 0.012092 -0.003465 0.000000 0.000000 0.000000
# 3 -0.003395 -0.003465 0.015260 0.000000 0.000000 0.000000
# 4 0.000000 0.000000 0.000000 0.032158 0.000000 0.000000
# 5 0.000000 0.000000 0.000000 0.000000 0.172175 0.000000
# 6 0.000000 0.000000 0.000000 0.000000 0.000000 0.008123
#
#
# Mechanical properties :
#
#
# Convention : Reuss Voigt Hill
#
# Bulk Modulus (GPa) = 35.23189 35.69775 35.46482
# Shear Modulus (GPa) = 17.98887 44.71513 31.35200
#
# Velocity S-wave (km/s) = 3.07870 4.85392 4.06441
# Velocity P-wave (km/s) = 5.58584 7.08684 6.38063
#
# Compressibility (1/GPa) = 0.02838338
#
# Stress axis : x y z
#
# Youngs Moduli (GPa) = 67.31069 82.70033 65.53181
#
# Poissons Ratio (x) = 0.00436 0.22248
# Poissons Ratio (y) = 0.00355 0.22704
# Poissons Ratio (z) = 0.22852 0.28652
#
# Static dielectric constant tensor:
#      x y z
#    x 1.623970 0.000000 0.000000 
#    y 0.000000 1.709480 0.000000 
#    z 0.000000 0.000000 1.769840 
# 
# From -- ./inp_files/18544.got.cif
#   From: 2010.05.17/outbox.cif.g08.bks.cpg/sg64_10_cif.got.tgz:18544.got - 2010.06.03 16:29:19.
