data_PCOD9480771
_publ_section_title
;
Structure prediction by ZEFSAII (Michael W. Deem and Ramdas Pophale) SiO2 
 PCOD9480771
Probable space group: C M C A
;
_chemical_formula_sum "Si O2"
_cell_formula_units_Z 116
_cell_length_a 23.032121
_cell_length_b 7.993126
_cell_length_c 26.973229
_cell_angle_alpha 90.000000
_cell_angle_beta 90.000000
_cell_angle_gamma 90.000000
_cell_volume 4965.734916
_symmetry_space_group_name_H-M "C M C A"
_symmetry_group_IT_number 64
_symmetry_cell_setting 'orthorhombic'
loop_
_space_group_symop_operation_xyz
x,y,z
-x,1/2-y,1/2+z
x,-y,-z
-x,1/2+y,1/2-z
-x,-y,-z
x,1/2+y,1/2-z
-x,y,z
x,1/2-y,1/2+z
1/2+x,1/2+y,z
1/2-x,-y,1/2+z
1/2+x,1/2-y,-z
1/2-x,y,1/2-z
1/2-x,1/2-y,-z
1/2+x,y,1/2-z
1/2-x,1/2+y,z
1/2+x,-y,1/2+z
loop_
_atom_site_type_symbol
_atom_site_label
_atom_site_fract_x
_atom_site_fract_y
_atom_site_fract_z
Si Si1 0.681241 0.932894 0.759717
Si Si2 0.500000 0.500000 0.500000
Si Si3 0.640418 0.365787 0.172101
Si Si4 0.669521 0.861607 0.146267
Si Si5 0.934774 0.405666 0.420361
Si Si6 0.826978 0.807533 0.011980
Si Si7 0.409422 0.795680 0.066561
Si Si8 0.729385 0.309025 0.604810
O O1 0.750000 0.898364 0.750000
O O2 0.650236 0.979242 0.708536
O O3 0.677848 0.095255 0.796292
O O4 0.647516 0.793936 0.791618
O O5 0.549691 0.580046 0.537405
O O6 0.584761 0.378432 0.136580
O O7 0.693148 0.333743 0.133989
O O8 0.605890 0.845272 0.122944
O O9 0.707157 0.705263 0.127631
O O10 0.698314 0.020510 0.118904
O O11 0.886517 0.318272 0.454543
O O12 0.931875 0.603741 0.432634
O O13 0.000000 0.342426 0.430888
O O14 0.779175 0.725355 0.047079
O O15 0.848856 0.710918 0.963892
O O16 0.812970 0.000000 0.000000
#
# Coordination Sequence:
#
# PCOD9480771 Si02
#       8
#    16   4  16  16  16  16  16  16
#     4  11  22  40  67 101 130 177 220 274 334 422
#     4  12  24  44  66  96 124 188 236 290 334 408
#     4  10  23  38  67  96 133 172 224 273 337 409
#     4  11  25  38  63  96 135 174 223 278 339 405
#     4  10  22  43  68  95 127 175 224 293 345 403
#     4   9  21  39  63  91 123 170 221 264 341 409
#     4  11  24  41  66  96 133 176 234 290 338 409
#     4  10  22  40  58  95 134 174 206 277 333 411
#
# _framework density 23.360087
#
# number of rings (size 3 to 8) (size 9 to 14) (size 15 to 20)
#    0.000    1.655    2.069    1.241   10.621    1.379 
#    1.241    0.690    1.517    0.000    0.000    0.000 
#    0.000    0.000    0.000    0.000    0.000    0.000 
#
# Total GULP energy -324088.357734 kJ/mol
# GULP energy per Si atom -5587.730306 kJ/mol
# Density = 2.330692 g / cm^3
# Si number density = 23.360087 Si / 1000 Ang^3
#
#
#
# Elastic Constant Matrix: (Units=GPa)
#
#
# Indices 1 2 3 4 5 6 
#
# 1 85.4588 7.3421 19.0000 0.0000 0.0000 0.0000
# 2 7.3421 67.3884 10.2068 0.0000 0.0000 0.0000
# 3 19.0000 10.2068 122.9975 0.0000 0.0000 0.0000
# 4 0.0000 0.0000 0.0000 39.7202 0.0000 0.0000
# 5 0.0000 0.0000 0.0000 0.0000 26.9025 0.0000
# 6 0.0000 0.0000 0.0000 0.0000 0.0000 17.6321
#
#
#
# Elastic Compliance Matrix: (Units=1/GPa)
#
#
# Indices 1 2 3 4 5 6 
#
# 1 0.012192 -0.001056 -0.001796 0.000000 0.000000 0.000000
# 2 -0.001056 0.015120 -0.001092 0.000000 0.000000 0.000000
# 3 -0.001796 -0.001092 0.008498 0.000000 0.000000 0.000000
# 4 0.000000 0.000000 0.000000 0.025176 0.000000 0.000000
# 5 0.000000 0.000000 0.000000 0.000000 0.037171 0.000000
# 6 0.000000 0.000000 0.000000 0.000000 0.000000 0.056715
#
#
# Mechanical properties :
#
#
# Convention : Reuss Voigt Hill
#
# Bulk Modulus (GPa) = 35.81335 38.77140 37.29238
# Shear Modulus (GPa) = 29.05859 32.80401 30.93130
#
# Velocity S-wave (km/s) = 3.53078 3.75143 3.64278
# Velocity P-wave (km/s) = 5.65563 5.94959 5.80447
#
# Compressibility (1/GPa) = 0.02792255
#
# Stress axis : x y z
#
# Youngs Moduli (GPa) = 82.02427 66.13862 117.67198
#
# Poissons Ratio (x) = 0.06986 0.21129
# Poissons Ratio (y) = 0.08664 0.12844
# Poissons Ratio (z) = 0.14728 0.07219
#
# Static dielectric constant tensor:
#      x y z
#    x 1.843640 0.000000 0.000000 
#    y 0.000000 1.976960 0.000000 
#    z 0.000000 0.000000 1.947860 
# 
# From -- ./inp_files/53953.got.cif
#   From: 2010.05.17/outbox.cif.g08.bks.cpg/sg64_27_cif.got.tgz:53953.got - 2010.06.03 16:29:19.
