data_PCOD9480516
_publ_section_title
;
Structure prediction by ZEFSAII (Michael W. Deem and Ramdas Pophale) SiO2 
 PCOD9480516
Probable space group: C M C A
;
_chemical_formula_sum "Si O2"
_cell_formula_units_Z 64
_cell_length_a 15.588438
_cell_length_b 33.659211
_cell_length_c 5.434625
_cell_angle_alpha 90.000000
_cell_angle_beta 90.000000
_cell_angle_gamma 90.000000
_cell_volume 2851.517976
_symmetry_space_group_name_H-M "C M C A"
_symmetry_group_IT_number 64
_symmetry_cell_setting 'orthorhombic'
loop_
_space_group_symop_operation_xyz
x,y,z
-x,1/2-y,1/2+z
x,-y,-z
-x,1/2+y,1/2-z
-x,-y,-z
x,1/2+y,1/2-z
-x,y,z
x,1/2-y,1/2+z
1/2+x,1/2+y,z
1/2-x,-y,1/2+z
1/2+x,1/2-y,-z
1/2-x,y,1/2-z
1/2-x,1/2-y,-z
1/2+x,y,1/2-z
1/2-x,1/2+y,z
1/2+x,-y,1/2+z
loop_
_atom_site_type_symbol
_atom_site_label
_atom_site_fract_x
_atom_site_fract_y
_atom_site_fract_z
Si Si1 0.150592 0.413016 0.345347
Si Si2 0.868195 0.666325 0.911043
Si Si3 0.250000 0.273627 0.250000
Si Si4 0.000000 0.974411 0.248675
Si Si5 0.000000 0.776950 0.649549
Si Si6 0.250000 0.618803 0.250000
O O1 0.250000 0.419202 0.250000
O O2 0.105433 0.372742 0.240708
O O3 0.171820 0.406377 0.634767
O O4 0.086241 0.447652 0.271123
O O5 0.834943 0.699925 0.731039
O O6 0.923112 0.691281 0.105682
O O7 0.786613 0.647973 0.047241
O O8 0.250000 0.250000 0.500000
O O9 0.000000 0.000000 0.500000
O O10 0.000000 0.000000 0.000000
O O11 0.000000 0.753375 0.910061
#
# Coordination Sequence:
#
# PCOD9480516 Si02
#       6
#    16  16   8   8   8   8
#     4  10  24  47  79 109 147 198 255 306 375 464
#     4  11  23  43  67  98 135 190 247 300 364 445
#     4  12  23  36  62  95 134 178 232 300 359 412
#     4  12  31  51  78 120 158 194 242 312 393 460
#     4  12  29  43  60  96 144 191 240 313 383 432
#     4  10  21  42  80 103 134 190 260 304 367 440
#
# _framework density 22.444186999999999
#
# number of rings (size 3 to 8) (size 9 to 14) (size 15 to 20)
#    0.000    1.000    3.750    3.000   10.500    2.000 
#    0.000    0.000    0.000    0.000    0.000    0.000 
#    0.000    0.000    0.000    0.000    0.000    0.000 
#
# Total GULP energy -178289.676953 kJ/mol
# GULP energy per Si atom -5571.552405 kJ/mol
# Density = 2.239310 g / cm^3
# Si number density = 22.444187 Si / 1000 Ang^3
#
#
#
# Elastic Constant Matrix: (Units=GPa)
#
#
# Indices 1 2 3 4 5 6 
#
# 1 100.7726 55.0980 22.5908 0.0000 0.0000 0.0000
# 2 55.0980 146.2898 68.5946 0.0000 0.0000 0.0000
# 3 22.5908 68.5946 127.5011 0.0000 0.0000 0.0000
# 4 0.0000 0.0000 0.0000 31.3019 0.0000 0.0000
# 5 0.0000 0.0000 0.0000 0.0000 21.1476 0.0000
# 6 0.0000 0.0000 0.0000 0.0000 0.0000 63.4629
#
#
#
# Elastic Compliance Matrix: (Units=1/GPa)
#
#
# Indices 1 2 3 4 5 6 
#
# 1 0.012514 -0.004913 0.000426 0.000000 0.000000 0.000000
# 2 -0.004913 0.011071 -0.005085 0.000000 0.000000 0.000000
# 3 0.000426 -0.005085 0.010504 0.000000 0.000000 0.000000
# 4 0.000000 0.000000 0.000000 0.031947 0.000000 0.000000
# 5 0.000000 0.000000 0.000000 0.000000 0.047287 0.000000
# 6 0.000000 0.000000 0.000000 0.000000 0.000000 0.015757
#
#
# Mechanical properties :
#
#
# Convention : Reuss Voigt Hill
#
# Bulk Modulus (GPa) = 66.91994 74.12557 70.52276
# Shear Modulus (GPa) = 32.63597 38.40116 35.51857
#
# Velocity S-wave (km/s) = 3.81740 4.14087 3.98242
# Velocity P-wave (km/s) = 7.02217 7.48069 7.25505
#
# Compressibility (1/GPa) = 0.01494323
#
# Stress axis : x y z
#
# Youngs Moduli (GPa) = 79.91029 90.32876 95.20594
#
# Poissons Ratio (x) = 0.44378 -0.04054
# Poissons Ratio (y) = 0.39259 0.48417
# Poissons Ratio (z) = -0.03403 0.45936
#
# Static dielectric constant tensor:
#      x y z
#    x 1.912300 0.000000 0.000000 
#    y 0.000000 1.865570 0.000000 
#    z 0.000000 0.000000 1.395050 
# 
# From -- ./inp_files/1377.got.cif
#   From: 2010.05.17/outbox.cif.g08.bks.cpg/sg64_1_cif.got.tgz:1377.got - 2010.06.03 16:29:19.
