data_PCOD9480439
_publ_section_title
;
Structure prediction by ZEFSAII (Michael W. Deem and Ramdas Pophale) SiO2 
 PCOD9480439
Probable space group: C M C A
;
_chemical_formula_sum "Si O2"
_cell_formula_units_Z 56
_cell_length_a 39.061899
_cell_length_b 5.329395
_cell_length_c 13.055862
_cell_angle_alpha 90.000000
_cell_angle_beta 90.000000
_cell_angle_gamma 90.000000
_cell_volume 2717.920904
_symmetry_space_group_name_H-M "C M C A"
_symmetry_group_IT_number 64
_symmetry_cell_setting 'orthorhombic'
loop_
_space_group_symop_operation_xyz
x,y,z
-x,1/2-y,1/2+z
x,-y,-z
-x,1/2+y,1/2-z
-x,-y,-z
x,1/2+y,1/2-z
-x,y,z
x,1/2-y,1/2+z
1/2+x,1/2+y,z
1/2-x,-y,1/2+z
1/2+x,1/2-y,-z
1/2-x,y,1/2-z
1/2-x,1/2-y,-z
1/2+x,y,1/2-z
1/2-x,1/2+y,z
1/2+x,-y,1/2+z
loop_
_atom_site_type_symbol
_atom_site_label
_atom_site_fract_x
_atom_site_fract_y
_atom_site_fract_z
Si Si1 0.871544 0.000000 0.500000
Si Si2 0.925414 0.535840 0.181702
Si Si3 0.000000 0.547634 0.815416
Si Si4 0.263829 0.410256 0.866389
Si Si5 0.826231 0.000000 0.000000
O O1 0.895934 0.992768 0.598875
O O2 0.848689 0.250069 0.501222
O O3 0.923003 0.806468 0.236955
O O4 0.963503 0.505778 0.133112
O O5 0.000000 0.335790 0.724271
O O6 0.250000 0.381372 0.750000
O O7 0.239952 0.630998 0.907655
O O8 0.301511 0.498164 0.899428
#
# Coordination Sequence:
#
# PCOD9480439 Si02
#       5
#     8  16   8  16   8
#     4  12  26  42  62  98 134 173 204 251 324 396
#     4  10  21  42  63  93 132 171 219 262 307 363
#     4   8  16  33  64  89 120 170 218 267 300 343
#     4  10  21  41  65  90 115 153 204 259 307 366
#     4  12  24  43  62  93 130 157 204 261 318 379
#
# _framework density 20.603985000000002
#
# number of rings (size 3 to 8) (size 9 to 14) (size 15 to 20)
#    0.000    1.714    0.000    4.286    0.000    0.571 
#   30.857    0.000    0.000   12.000    0.000    0.000 
#    0.000    0.000    0.000    0.000    0.000    0.000 
#
# Total GULP energy -155994.441940 kJ/mol
# GULP energy per Si atom -5571.230069 kJ/mol
# Density = 2.055709 g / cm^3
# Si number density = 20.603985 Si / 1000 Ang^3
#
#
#
# Elastic Constant Matrix: (Units=GPa)
#
#
# Indices 1 2 3 4 5 6 
#
# 1 156.2344 31.3627 42.4766 0.0000 0.0000 0.0000
# 2 31.3627 133.3705 14.1821 0.0000 0.0000 0.0000
# 3 42.4766 14.1821 87.7370 0.0000 0.0000 0.0000
# 4 0.0000 0.0000 0.0000 15.2981 0.0000 0.0000
# 5 0.0000 0.0000 0.0000 0.0000 -260.7868 0.0000
# 6 0.0000 0.0000 0.0000 0.0000 0.0000 43.3739
#
#
#
# Elastic Compliance Matrix: (Units=1/GPa)
#
#
# Indices 1 2 3 4 5 6 
#
# 1 0.007628 -0.001426 -0.003463 0.000000 0.000000 0.000000
# 2 -0.001426 0.007895 -0.000586 0.000000 0.000000 0.000000
# 3 -0.003463 -0.000586 0.013169 0.000000 0.000000 0.000000
# 4 0.000000 0.000000 0.000000 0.065368 0.000000 0.000000
# 5 0.000000 0.000000 0.000000 0.000000 -0.003835 0.000000
# 6 0.000000 0.000000 0.000000 0.000000 0.000000 0.023055
#
#
# Mechanical properties :
#
#
# Convention : Reuss Voigt Hill
#
# Bulk Modulus (GPa) = 56.35750 61.48720 58.92235
# Shear Modulus (GPa) = 38.41890 -21.13493 8.64198
#
# Velocity S-wave (km/s) = 4.32283 -3.20624 2.05023
# Velocity P-wave (km/s) = 7.23380 4.02499 5.85356
#
# Compressibility (1/GPa) = 0.01774387
#
# Stress axis : x y z
#
# Youngs Moduli (GPa) = 131.09186 126.65490 75.93691
#
# Poissons Ratio (x) = 0.18056 0.26294
# Poissons Ratio (y) = 0.18689 0.04450
# Poissons Ratio (z) = 0.45393 0.07423
#
# Static dielectric constant tensor:
#      x y z
#    x 1.751070 0.000000 0.000000 
#    y 0.000000 1.737260 0.000000 
#    z 0.000000 0.000000 1.746640 
# 
# From -- ./inp_files/3100.got.cif
#   From: 2010.05.17/outbox.cif.g08.bks.cpg/sg64_2_cif.got.tgz:3100.got - 2010.06.03 16:29:19.
