data_PCOD9480615
_publ_section_title
;
Structure prediction by ZEFSAII (Michael W. Deem and Ramdas Pophale) SiO2 
 PCOD9480615
Probable space group: C M C A
;
_chemical_formula_sum "Si O2"
_cell_formula_units_Z 64
_cell_length_a 10.178347
_cell_length_b 20.625545
_cell_length_c 17.205421
_cell_angle_alpha 90.000000
_cell_angle_beta 90.000000
_cell_angle_gamma 90.000000
_cell_volume 3612.002062
_symmetry_space_group_name_H-M "C M C A"
_symmetry_group_IT_number 64
_symmetry_cell_setting 'orthorhombic'
loop_
_space_group_symop_operation_xyz
x,y,z
-x,1/2-y,1/2+z
x,-y,-z
-x,1/2+y,1/2-z
-x,-y,-z
x,1/2+y,1/2-z
-x,y,z
x,1/2-y,1/2+z
1/2+x,1/2+y,z
1/2-x,-y,1/2+z
1/2+x,1/2-y,-z
1/2-x,y,1/2-z
1/2-x,1/2-y,-z
1/2+x,y,1/2-z
1/2-x,1/2+y,z
1/2+x,-y,1/2+z
loop_
_atom_site_type_symbol
_atom_site_label
_atom_site_fract_x
_atom_site_fract_y
_atom_site_fract_z
Si Si1 0.500000 0.406550 0.885381
Si Si2 0.223206 0.069364 0.985156
Si Si3 0.000000 0.453339 0.356846
Si Si4 0.000000 0.262044 0.673139
Si Si5 0.267552 0.702755 0.572549
Si Si6 0.500000 0.186282 0.669242
O O1 0.500000 0.471537 0.832192
O O2 0.500000 0.339432 0.839335
O O3 0.626959 0.410876 0.942926
O O4 0.124442 0.054618 0.913761
O O5 0.305197 0.131750 0.960240
O O6 0.290603 0.000000 0.000000
O O7 0.000000 0.389626 0.302884
O O8 0.126251 0.232317 0.630183
O O9 0.000000 0.236679 0.760802
O O10 0.250000 0.750000 0.500000
O O11 0.128662 0.695903 0.616614
#
# Coordination Sequence:
#
# PCOD9480615 Si02
#       6
#     8  16   8   8  16   8
#     4   9  14  28  52  83  99 133 184 225 247 303
#     4   8  14  28  52  79 100 131 184 226 246 296
#     4   7  14  28  54  72  97 134 190 222 239 297
#     4  12  22  32  55  84 116 139 169 221 284 320
#     4  11  20  35  57  81 107 140 183 221 264 318
#     4  10  22  38  54  77 109 145 177 220 268 322
#
# _framework density 17.718703999999999
#
# number of rings (size 3 to 8) (size 9 to 14) (size 15 to 20)
#    0.000    2.500    2.500    3.750    0.000    0.000 
#    0.000    0.625    5.500    3.000    0.000    0.000 
#    0.000    0.000    0.000    0.000    0.000    0.000 
#
# Total GULP energy -178192.712738 kJ/mol
# GULP energy per Si atom -5568.522273 kJ/mol
# Density = 1.767838 g / cm^3
# Si number density = 17.718704 Si / 1000 Ang^3
#
#
#
# Elastic Constant Matrix: (Units=GPa)
#
#
# Indices 1 2 3 4 5 6 
#
# 1 58.1775 27.1273 13.2759 0.0000 0.0000 0.0000
# 2 27.1273 213.3698 56.6006 0.0000 0.0000 0.0000
# 3 13.2759 56.6006 64.7573 0.0000 0.0000 0.0000
# 4 0.0000 0.0000 0.0000 28.9553 0.0000 0.0000
# 5 0.0000 0.0000 0.0000 0.0000 14.8529 0.0000
# 6 0.0000 0.0000 0.0000 0.0000 0.0000 21.6560
#
#
#
# Elastic Compliance Matrix: (Units=1/GPa)
#
#
# Indices 1 2 3 4 5 6 
#
# 1 0.018524 -0.001754 -0.002264 0.000000 0.000000 0.000000
# 2 -0.001754 0.006268 -0.005118 0.000000 0.000000 0.000000
# 3 -0.002264 -0.005118 0.020380 0.000000 0.000000 0.000000
# 4 0.000000 0.000000 0.000000 0.034536 0.000000 0.000000
# 5 0.000000 0.000000 0.000000 0.000000 0.067327 0.000000
# 6 0.000000 0.000000 0.000000 0.000000 0.000000 0.046177
#
#
# Mechanical properties :
#
#
# Convention : Reuss Voigt Hill
#
# Bulk Modulus (GPa) = 37.17834 58.92355 48.05095
# Shear Modulus (GPa) = 22.68089 29.04624 25.86357
#
# Velocity S-wave (km/s) = 3.58166 4.05322 3.82472
# Velocity P-wave (km/s) = 6.17515 7.43182 6.83244
#
# Compressibility (1/GPa) = 0.02689738
#
# Stress axis : x y z
#
# Youngs Moduli (GPa) = 53.98546 159.55299 49.06742
#
# Poissons Ratio (x) = 0.27993 0.11109
# Poissons Ratio (y) = 0.09471 0.25115
# Poissons Ratio (z) = 0.12223 0.81665
#
# Static dielectric constant tensor:
#      x y z
#    x 1.597620 0.000000 0.000000 
#    y 0.000000 1.679480 0.000000 
#    z 0.000000 0.000000 1.582960 
# 
# From -- ./inp_files/29313.got.cif
#   From: 2010.05.17/outbox.cif.g08.bks.cpg/sg64_15_cif.got.tgz:29313.got - 2010.06.03 16:29:19.
