data_PCOD9480725
_publ_section_title
;
Structure prediction by ZEFSAII (Michael W. Deem and Ramdas Pophale) SiO2 
 PCOD9480725
Probable space group: C M C A
;
_chemical_formula_sum "Si O2"
_cell_formula_units_Z 80
_cell_length_a 24.739464
_cell_length_b 12.536796
_cell_length_c 11.702260
_cell_angle_alpha 90.000000
_cell_angle_beta 90.000000
_cell_angle_gamma 90.000000
_cell_volume 3629.498223
_symmetry_space_group_name_H-M "C M C A"
_symmetry_group_IT_number 64
_symmetry_cell_setting 'orthorhombic'
loop_
_space_group_symop_operation_xyz
x,y,z
-x,1/2-y,1/2+z
x,-y,-z
-x,1/2+y,1/2-z
-x,-y,-z
x,1/2+y,1/2-z
-x,y,z
x,1/2-y,1/2+z
1/2+x,1/2+y,z
1/2-x,-y,1/2+z
1/2+x,1/2-y,-z
1/2-x,y,1/2-z
1/2-x,1/2-y,-z
1/2+x,y,1/2-z
1/2-x,1/2+y,z
1/2+x,-y,1/2+z
loop_
_atom_site_type_symbol
_atom_site_label
_atom_site_fract_x
_atom_site_fract_y
_atom_site_fract_z
Si Si1 0.747602 0.377496 0.124964
Si Si2 0.653272 0.966705 0.628941
Si Si3 0.165603 0.752156 0.964782
Si Si4 0.058625 0.171838 0.477686
Si Si5 0.060506 0.473394 0.196589
O O1 0.750000 0.328309 0.250000
O O2 0.714823 0.488082 0.139770
O O3 0.807449 0.359982 0.073586
O O4 0.708481 0.310277 0.045048
O O5 0.654718 0.838247 0.635129
O O6 0.636455 0.000000 0.500000
O O7 0.610675 0.016059 0.717617
O O8 0.111066 0.741637 0.035416
O O9 0.063834 0.123686 0.606189
O O10 0.000000 0.224542 0.467485
O O11 0.060800 0.076466 0.386707
O O12 0.000000 0.469312 0.250471
#
# Coordination Sequence:
#
# PCOD9480725 Si02
#       5
#    16  16  16  16  16
#     4  10  22  40  56  85 124 159 202 245 300 364
#     4  10  22  40  59  87 127 159 202 247 307 369
#     4  10  22  39  61  89 123 153 206 252 303 359
#     4   9  19  39  65  92 118 156 210 255 303 363
#     4   9  19  38  63  89 121 162 200 249 307 360
#
# _framework density 22.041615
#
# number of rings (size 3 to 8) (size 9 to 14) (size 15 to 20)
#    0.000    2.400    0.000    2.400    2.800    2.000 
#   28.800    3.000    0.000    0.000    0.000    0.000 
#    0.000    0.000    0.000    0.000    0.000    0.000 
#
# Total GULP energy -222902.017674 kJ/mol
# GULP energy per Si atom -5572.550442 kJ/mol
# Density = 2.199145 g / cm^3
# Si number density = 22.041615 Si / 1000 Ang^3
#
#
#
# Elastic Constant Matrix: (Units=GPa)
#
#
# Indices 1 2 3 4 5 6 
#
# 1 119.9812 20.3190 10.0718 0.0000 0.0000 0.0000
# 2 20.3190 36.1691 -16.5475 0.0000 0.0000 0.0000
# 3 10.0718 -16.5475 63.7545 0.0000 0.0000 0.0000
# 4 0.0000 0.0000 0.0000 -35.7296 0.0000 0.0000
# 5 0.0000 0.0000 0.0000 0.0000 17.4919 0.0000
# 6 0.0000 0.0000 0.0000 0.0000 0.0000 297.5282
#
#
#
# Elastic Compliance Matrix: (Units=1/GPa)
#
#
# Indices 1 2 3 4 5 6 
#
# 1 0.009815 -0.007061 -0.003383 0.000000 0.000000 0.000000
# 2 -0.007061 0.036454 0.010577 0.000000 0.000000 0.000000
# 3 -0.003383 0.010577 0.018965 0.000000 0.000000 0.000000
# 4 0.000000 0.000000 0.000000 -0.027988 0.000000 0.000000
# 5 0.000000 0.000000 0.000000 0.000000 0.057169 0.000000
# 6 0.000000 0.000000 0.000000 0.000000 0.000000 0.003361
#
#
# Mechanical properties :
#
#
# Convention : Reuss Voigt Hill
#
# Bulk Modulus (GPa) = 15.26755 27.51015 21.38885
# Shear Modulus (GPa) = 41.89584 69.59553 55.74569
#
# Velocity S-wave (km/s) = 4.36450 5.62522 5.03448
# Velocity P-wave (km/s) = 5.68685 7.39588 6.59694
#
# Compressibility (1/GPa) = 0.06549839
#
# Stress axis : x y z
#
# Youngs Moduli (GPa) = 101.88995 27.43188 52.72883
#
# Poissons Ratio (x) = 0.19371 0.17840
# Poissons Ratio (y) = 0.71949 -0.55772
# Poissons Ratio (z) = 0.34472 -0.29015
#
# Static dielectric constant tensor:
#      x y z
#    x 1.850180 0.000000 0.000000 
#    y 0.000000 1.896440 0.000000 
#    z 0.000000 0.000000 1.809170 
# 
# From -- ./inp_files/18039.got.cif
#   From: 2010.05.17/outbox.cif.g08.bks.cpg/sg64_10_cif.got.tgz:18039.got - 2010.06.03 16:29:19.
