data_PCOD9480772
_publ_section_title
;
Structure prediction by ZEFSAII (Michael W. Deem and Ramdas Pophale) SiO2 
 PCOD9480772
Probable space group: C M C A
;
_chemical_formula_sum "Si O2"
_cell_formula_units_Z 72
_cell_length_a 23.256562
_cell_length_b 5.078099
_cell_length_c 33.814021
_cell_angle_alpha 90.000000
_cell_angle_beta 90.000000
_cell_angle_gamma 90.000000
_cell_volume 3993.406267
_symmetry_space_group_name_H-M "C M C A"
_symmetry_group_IT_number 64
_symmetry_cell_setting 'orthorhombic'
loop_
_space_group_symop_operation_xyz
x,y,z
-x,1/2-y,1/2+z
x,-y,-z
-x,1/2+y,1/2-z
-x,-y,-z
x,1/2+y,1/2-z
-x,y,z
x,1/2-y,1/2+z
1/2+x,1/2+y,z
1/2-x,-y,1/2+z
1/2+x,1/2-y,-z
1/2-x,y,1/2-z
1/2-x,1/2-y,-z
1/2+x,y,1/2-z
1/2-x,1/2+y,z
1/2+x,-y,1/2+z
loop_
_atom_site_type_symbol
_atom_site_label
_atom_site_fract_x
_atom_site_fract_y
_atom_site_fract_z
Si Si1 0.712736 0.023449 0.546474
Si Si2 0.567498 0.373185 0.640208
Si Si3 0.598270 0.139421 0.408873
Si Si4 0.569894 0.315953 0.226598
Si Si5 0.000000 0.249963 0.028413
O O1 0.764615 0.817693 0.553539
O O2 0.659001 0.939805 0.572628
O O3 0.697107 0.000000 0.500000
O O4 0.500000 0.450360 0.643047
O O5 0.600504 0.622961 0.622516
O O6 0.587979 0.280888 0.683419
O O7 0.572822 0.121723 0.611608
O O8 0.555406 0.237971 0.443247
O O9 0.587884 0.604853 0.240283
O O10 0.500000 0.319401 0.225503
O O11 0.000000 0.500000 0.000000
O O12 0.000000 0.000000 0.000000
#
# Coordination Sequence:
#
# PCOD9480772 Si02
#       5
#    16  16  16  16   8
#     4  10  22  40  59  77 101 139 187 239 282 312
#     4  11  20  34  52  79 117 148 176 215 274 323
#     4  12  22  37  55  80 111 144 182 225 274 330
#     4   9  17  29  47  72 105 148 183 208 245 316
#     4  12  24  36  52  76 108 146 180 212 262 332
#
# _framework density 18.029720000000001
#
# number of rings (size 3 to 8) (size 9 to 14) (size 15 to 20)
#    0.000    1.333    2.222    4.667    0.000    6.222 
#    0.000    0.000    0.000    0.000    0.000    0.000 
#    0.000   62.222    0.000    0.000    0.000    0.000 
#
# Total GULP energy -201130.454657 kJ/mol
# GULP energy per Si atom -5586.957074 kJ/mol
# Density = 1.798868 g / cm^3
# Si number density = 18.029720 Si / 1000 Ang^3
#
#
#
# Elastic Constant Matrix: (Units=GPa)
#
#
# Indices 1 2 3 4 5 6 
#
# 1 33.7871 -11.4719 18.1038 0.0000 0.0000 0.0000
# 2 -11.4719 67.5398 -7.4506 0.0000 0.0000 0.0000
# 3 18.1038 -7.4506 50.6239 0.0000 0.0000 0.0000
# 4 0.0000 0.0000 0.0000 32.7695 0.0000 0.0000
# 5 0.0000 0.0000 0.0000 0.0000 14.9275 0.0000
# 6 0.0000 0.0000 0.0000 0.0000 0.0000 10.4191
#
#
#
# Elastic Compliance Matrix: (Units=1/GPa)
#
#
# Indices 1 2 3 4 5 6 
#
# 1 0.038248 0.005070 -0.012932 0.000000 0.000000 0.000000
# 2 0.005070 0.015722 0.000501 0.000000 0.000000 0.000000
# 3 -0.012932 0.000501 0.024452 0.000000 0.000000 0.000000
# 4 0.000000 0.000000 0.000000 0.030516 0.000000 0.000000
# 5 0.000000 0.000000 0.000000 0.000000 0.066991 0.000000
# 6 0.000000 0.000000 0.000000 0.000000 0.000000 0.095978
#
#
# Mechanical properties :
#
#
# Convention : Reuss Voigt Hill
#
# Bulk Modulus (GPa) = 15.69855 16.70149 16.20002
# Shear Modulus (GPa) = 16.24107 21.80784 19.02445
#
# Velocity S-wave (km/s) = 3.00458 3.48163 3.25186
# Velocity P-wave (km/s) = 4.55660 5.04438 4.80668
#
# Compressibility (1/GPa) = 0.06370015
#
# Stress axis : x y z
#
# Youngs Moduli (GPa) = 26.14541 63.60312 40.89678
#
# Poissons Ratio (x) = -0.32246 0.52887
# Poissons Ratio (y) = -0.13256 -0.02048
# Poissons Ratio (z) = 0.33811 -0.03186
#
# Static dielectric constant tensor:
#      x y z
#    x 1.605070 0.000000 0.000000 
#    y 0.000000 1.614600 0.000000 
#    z 0.000000 0.000000 1.626990 
# 
# From -- ./inp_files/50926.got.cif
#   From: 2010.05.17/outbox.cif.g08.bks.cpg/sg64_26_cif.got.tgz:50926.got - 2010.06.03 16:29:19.
