data_PCOD9480682
_publ_section_title
;
Structure prediction by ZEFSAII (Michael W. Deem and Ramdas Pophale) SiO2 
 PCOD9480682
Probable space group: C M C A
;
_chemical_formula_sum "Si O2"
_cell_formula_units_Z 104
_cell_length_a 19.133461
_cell_length_b 9.085119
_cell_length_c 29.192855
_cell_angle_alpha 90.000000
_cell_angle_beta 90.000000
_cell_angle_gamma 90.000000
_cell_volume 5074.587272
_symmetry_space_group_name_H-M "C M C A"
_symmetry_group_IT_number 64
_symmetry_cell_setting 'orthorhombic'
loop_
_space_group_symop_operation_xyz
x,y,z
-x,1/2-y,1/2+z
x,-y,-z
-x,1/2+y,1/2-z
-x,-y,-z
x,1/2+y,1/2-z
-x,y,z
x,1/2-y,1/2+z
1/2+x,1/2+y,z
1/2-x,-y,1/2+z
1/2+x,1/2-y,-z
1/2-x,y,1/2-z
1/2-x,1/2-y,-z
1/2+x,y,1/2-z
1/2-x,1/2+y,z
1/2+x,-y,1/2+z
loop_
_atom_site_type_symbol
_atom_site_label
_atom_site_fract_x
_atom_site_fract_y
_atom_site_fract_z
Si Si1 0.744833 0.487879 0.887415
Si Si2 0.702205 0.246324 0.953062
Si Si3 0.610272 0.547043 0.833624
Si Si4 0.379746 0.190235 0.101248
Si Si5 0.082670 0.822758 0.006357
Si Si6 0.500000 0.272464 0.218377
Si Si7 0.500000 0.195855 0.324319
Si Si8 0.000000 0.478296 0.860713
O O1 0.704746 0.402108 0.927487
O O2 0.773982 0.628574 0.915047
O O3 0.692888 0.519587 0.844584
O O4 0.808853 0.376668 0.877702
O O5 0.750000 0.250000 0.000000
O O6 0.621475 0.232660 0.966684
O O7 0.593342 0.667105 0.871987
O O8 0.570008 0.627272 0.790875
O O9 0.568018 0.396729 0.839108
O O10 0.379162 0.252478 0.050455
O O11 0.434100 0.061641 0.108701
O O12 0.000000 0.799185 0.009662
O O13 0.093328 0.000000 0.000000
O O14 0.500000 0.213008 0.269512
O O15 0.500000 0.133831 0.183227
O O16 0.500000 0.356683 0.344595
#
# Coordination Sequence:
#
# PCOD9480682 Si02
#       8
#    16  16  16  16  16   8   8   8
#     4  12  24  41  63  92 135 184 237 280 340 403
#     4  12  23  40  63  90 131 191 242 292 343 389
#     4  10  22  42  69  99 136 174 217 271 337 423
#     4  11  22  42  62  91 139 182 227 290 345 394
#     4  11  23  41  63  91 132 184 248 304 351 392
#     4   9  21  45  75 100 135 165 203 269 352 424
#     4  11  23  41  75 107 126 164 218 268 349 430
#     4  10  22  38  65 100 129 166 219 279 340 405
#
# _framework density 20.494278999999999
#
# number of rings (size 3 to 8) (size 9 to 14) (size 15 to 20)
#    0.000    1.077    3.846    3.692    2.154    0.000 
#    4.154    0.769    0.000   15.692    0.000    0.000 
#    0.000    0.000    0.000    0.000    0.000    0.000 
#
# Total GULP energy -289566.982236 kJ/mol
# GULP energy per Si atom -5568.595812 kJ/mol
# Density = 2.044763 g / cm^3
# Si number density = 20.494279 Si / 1000 Ang^3
#
#
#
# Elastic Constant Matrix: (Units=GPa)
#
#
# Indices 1 2 3 4 5 6 
#
# 1 115.6265 48.0529 46.5086 0.0000 0.0000 0.0000
# 2 48.0529 139.9682 35.9059 0.0000 0.0000 0.0000
# 3 46.5086 35.9059 52.2620 0.0000 0.0000 0.0000
# 4 0.0000 0.0000 0.0000 32.6760 0.0000 0.0000
# 5 0.0000 0.0000 0.0000 0.0000 12.3964 0.0000
# 6 0.0000 0.0000 0.0000 0.0000 0.0000 40.2667
#
#
#
# Elastic Compliance Matrix: (Units=1/GPa)
#
#
# Indices 1 2 3 4 5 6 
#
# 1 0.013891 -0.001940 -0.011029 0.000000 0.000000 0.000000
# 2 -0.001940 0.008944 -0.004419 0.000000 0.000000 0.000000
# 3 -0.011029 -0.004419 0.031985 0.000000 0.000000 0.000000
# 4 0.000000 0.000000 0.000000 0.030604 0.000000 0.000000
# 5 0.000000 0.000000 0.000000 0.000000 0.080668 0.000000
# 6 0.000000 0.000000 0.000000 0.000000 0.000000 0.024834
#
#
# Mechanical properties :
#
#
# Convention : Reuss Voigt Hill
#
# Bulk Modulus (GPa) = 49.88755 63.19906 56.54330
# Shear Modulus (GPa) = 21.51625 28.89377 25.20501
#
# Velocity S-wave (km/s) = 3.24368 3.75886 3.51073
# Velocity P-wave (km/s) = 6.19868 7.05288 6.63953
#
# Compressibility (1/GPa) = 0.02004508
#
# Stress axis : x y z
#
# Youngs Moduli (GPa) = 71.98983 111.80806 31.26463
#
# Poissons Ratio (x) = 0.21687 0.34482
# Poissons Ratio (y) = 0.13963 0.13815
# Poissons Ratio (z) = 0.79398 0.49404
#
# Static dielectric constant tensor:
#      x y z
#    x 1.867780 0.000000 0.000000 
#    y 0.000000 1.770640 0.000000 
#    z 0.000000 0.000000 1.726890 
# 
# From -- ./inp_files/53797.got.cif
#   From: 2010.05.17/outbox.cif.g08.bks.cpg/sg64_27_cif.got.tgz:53797.got - 2010.06.03 16:29:19.
