data_PCOD9480818
_publ_section_title
;
Structure prediction by ZEFSAII (Michael W. Deem and Ramdas Pophale) SiO2 
 PCOD9480818
Probable space group: C M C A
;
_chemical_formula_sum "Si O2"
_cell_formula_units_Z 80
_cell_length_a 17.671174
_cell_length_b 8.672419
_cell_length_c 21.355018
_cell_angle_alpha 90.000000
_cell_angle_beta 90.000000
_cell_angle_gamma 90.000000
_cell_volume 3272.695485
_symmetry_space_group_name_H-M "C M C A"
_symmetry_group_IT_number 64
_symmetry_cell_setting 'orthorhombic'
loop_
_space_group_symop_operation_xyz
x,y,z
-x,1/2-y,1/2+z
x,-y,-z
-x,1/2+y,1/2-z
-x,-y,-z
x,1/2+y,1/2-z
-x,y,z
x,1/2-y,1/2+z
1/2+x,1/2+y,z
1/2-x,-y,1/2+z
1/2+x,1/2-y,-z
1/2-x,y,1/2-z
1/2-x,1/2-y,-z
1/2+x,y,1/2-z
1/2-x,1/2+y,z
1/2+x,-y,1/2+z
loop_
_atom_site_type_symbol
_atom_site_label
_atom_site_fract_x
_atom_site_fract_y
_atom_site_fract_z
Si Si1 0.585828 0.915642 0.252274
Si Si2 0.389742 0.427179 0.432469
Si Si3 0.134748 0.193138 0.157287
Si Si4 0.081769 0.255042 0.879072
Si Si5 0.288847 0.542504 0.929410
O O1 0.500000 0.921055 0.226717
O O2 0.644502 0.845699 0.201165
O O3 0.585879 0.788787 0.307199
O O4 0.601027 0.068844 0.293750
O O5 0.411651 0.500000 0.500000
O O6 0.413009 0.264316 0.401487
O O7 0.414209 0.564289 0.387579
O O8 0.298685 0.412724 0.432243
O O9 0.198815 0.093483 0.121599
O O10 0.153458 0.177500 0.911457
O O11 0.000000 0.197701 0.903545
O O12 0.309887 0.500000 0.000000
#
# Coordination Sequence:
#
# PCOD9480818 Si02
#       5
#    16  16  16  16  16
#     4  10  22  41  64  91 128 173 214 267 341 400
#     4  11  23  41  66  96 134 179 222 269 332 398
#     4  11  22  39  66  94 122 169 224 266 313 393
#     4  10  22  40  62  95 135 171 219 278 331 390
#     4  10  22  43  68  95 132 178 222 269 333 401
#
# _framework density 24.444680999999999
#
# number of rings (size 3 to 8) (size 9 to 14) (size 15 to 20)
#    0.000    1.600    0.000    4.200    0.000    8.000 
#    0.000   23.000    0.000    0.000    0.000    0.000 
#    0.000    0.000    0.000    0.000    0.000    0.000 
#
# Total GULP energy -223048.548722 kJ/mol
# GULP energy per Si atom -5576.213718 kJ/mol
# Density = 2.438904 g / cm^3
# Si number density = 24.444681 Si / 1000 Ang^3
#
#
#
# Elastic Constant Matrix: (Units=GPa)
#
#
# Indices 1 2 3 4 5 6 
#
# 1 99.3013 8.8522 18.8096 0.0000 0.0000 0.0000
# 2 8.8522 108.6985 56.9192 0.0000 0.0000 0.0000
# 3 18.8096 56.9192 83.9108 0.0000 0.0000 0.0000
# 4 0.0000 0.0000 0.0000 43.5359 0.0000 0.0000
# 5 0.0000 0.0000 0.0000 0.0000 25.8183 0.0000
# 6 0.0000 0.0000 0.0000 0.0000 0.0000 -146.4932
#
#
#
# Elastic Compliance Matrix: (Units=1/GPa)
#
#
# Indices 1 2 3 4 5 6 
#
# 1 0.010541 0.000588 -0.002761 0.000000 0.000000 0.000000
# 2 0.000588 0.014300 -0.009832 0.000000 0.000000 0.000000
# 3 -0.002761 -0.009832 0.019206 0.000000 0.000000 0.000000
# 4 0.000000 0.000000 0.000000 0.022970 0.000000 0.000000
# 5 0.000000 0.000000 0.000000 0.000000 0.038732 0.000000
# 6 0.000000 0.000000 0.000000 0.000000 0.000000 -0.006826
#
#
# Mechanical properties :
#
#
# Convention : Reuss Voigt Hill
#
# Bulk Modulus (GPa) = 49.91187 51.23029 50.57108
# Shear Modulus (GPa) = 38.57627 -1.60584 18.48522
#
# Velocity S-wave (km/s) = 3.97685 -0.81139 2.75290
# Velocity P-wave (km/s) = 6.44591 4.48613 5.55315
#
# Compressibility (1/GPa) = 0.02003531
#
# Stress axis : x y z
#
# Youngs Moduli (GPa) = 94.86717 69.92800 52.06746
#
# Poissons Ratio (x) = -0.04109 0.14378
# Poissons Ratio (y) = -0.05574 0.51193
# Poissons Ratio (z) = 0.26197 0.68754
#
# Static dielectric constant tensor:
#      x y z
#    x 1.945710 0.000000 0.000000 
#    y 0.000000 2.031550 0.000000 
#    z 0.000000 0.000000 2.043650 
# 
# From -- ./inp_files/50312.got.cif
#   From: 2010.05.17/outbox.cif.g08.bks.cpg/sg64_26_cif.got.tgz:50312.got - 2010.06.03 16:29:19.
