data_PCOD9480032
_publ_section_title
;
Structure prediction by ZEFSAII (Michael W. Deem and Ramdas Pophale) SiO2 
 PCOD9480032
Probable space group: C M C A
;
_chemical_formula_sum "Si O2"
_cell_formula_units_Z 64
_cell_length_a 16.718844
_cell_length_b 36.351548
_cell_length_c 5.022857
_cell_angle_alpha 90.000000
_cell_angle_beta 90.000000
_cell_angle_gamma 90.000000
_cell_volume 3052.670777
_symmetry_space_group_name_H-M "C M C A"
_symmetry_group_IT_number 64
_symmetry_cell_setting 'orthorhombic'
loop_
_space_group_symop_operation_xyz
x,y,z
-x,1/2-y,1/2+z
x,-y,-z
-x,1/2+y,1/2-z
-x,-y,-z
x,1/2+y,1/2-z
-x,y,z
x,1/2-y,1/2+z
1/2+x,1/2+y,z
1/2-x,-y,1/2+z
1/2+x,1/2-y,-z
1/2-x,y,1/2-z
1/2-x,1/2-y,-z
1/2+x,y,1/2-z
1/2-x,1/2+y,z
1/2+x,-y,1/2+z
loop_
_atom_site_type_symbol
_atom_site_label
_atom_site_fract_x
_atom_site_fract_y
_atom_site_fract_z
Si Si1 0.660645 0.650367 0.359079
Si Si2 0.592695 0.888433 0.367457
Si Si3 0.404792 0.226354 0.937173
Si Si4 0.691570 0.458477 0.999873
O O1 0.750000 0.646281 0.250000
O O2 0.641951 0.623659 0.606818
O O3 0.643333 0.690891 0.470700
O O4 0.605289 0.640585 0.106710
O O5 0.500000 0.890349 0.294538
O O6 0.625886 0.926966 0.477495
O O7 0.500000 0.218025 0.956798
O O8 0.387850 0.259712 0.140709
O O9 0.750000 0.455799 0.250000
O O10 0.657619 0.500000 0.000000
O O11 0.750000 0.453354 0.750000
#
# Coordination Sequence:
#
# PCOD9480032 Si02
#       4
#    16  16  16  16
#     4  12  25  41  63  91 124 161 205 254 304 361
#     4  12  24  40  63  91 125 162 205 253 302 360
#     4  10  21  38  60  86 119 157 197 246 305 363
#     4  10  21  39  63  90 123 162 202 247 302 361
#
# _framework density 20.965249
#
# number of rings (size 3 to 8) (size 9 to 14) (size 15 to 20)
#    0.000    1.000    0.000    8.250    0.000    3.500 
#    0.000    0.000    0.000    7.500    0.000    0.000 
#    0.000    0.000    0.000    0.000    0.000    0.000 
#
# Total GULP energy -179155.192850 kJ/mol
# GULP energy per Si atom -5598.599777 kJ/mol
# Density = 2.091753 g / cm^3
# Si number density = 20.965249 Si / 1000 Ang^3
#
#
#
# Elastic Constant Matrix: (Units=GPa)
#
#
# Indices 1 2 3 4 5 6 
#
# 1 72.4902 43.2040 9.8505 0.0000 0.0000 0.0000
# 2 43.2040 91.3548 3.5058 0.0000 0.0000 0.0000
# 3 9.8505 3.5058 103.4037 0.0000 0.0000 0.0000
# 4 0.0000 0.0000 0.0000 31.6051 0.0000 0.0000
# 5 0.0000 0.0000 0.0000 0.0000 111.3663 0.0000
# 6 0.0000 0.0000 0.0000 0.0000 0.0000 -21.1473
#
#
#
# Elastic Compliance Matrix: (Units=1/GPa)
#
#
# Indices 1 2 3 4 5 6 
#
# 1 0.019452 -0.009140 -0.001543 0.000000 0.000000 0.000000
# 2 -0.009140 0.015255 0.000353 0.000000 0.000000 0.000000
# 3 -0.001543 0.000353 0.009806 0.000000 0.000000 0.000000
# 4 0.000000 0.000000 0.000000 0.031640 0.000000 0.000000
# 5 0.000000 0.000000 0.000000 0.000000 0.008979 0.000000
# 6 0.000000 0.000000 0.000000 0.000000 0.000000 -0.047287
#
#
# Mechanical properties :
#
#
# Convention : Reuss Voigt Hill
#
# Bulk Modulus (GPa) = 41.92224 42.26325 42.09275
# Shear Modulus (GPa) = 75.23666 38.41072 56.82369
#
# Velocity S-wave (km/s) = 5.99702 4.28496 5.21177
# Velocity P-wave (km/s) = 8.24572 6.68459 7.50585
#
# Compressibility (1/GPa) = 0.02385369
#
# Stress axis : x y z
#
# Youngs Moduli (GPa) = 51.40798 65.55050 101.97987
#
# Poissons Ratio (x) = 0.59915 0.15737
# Poissons Ratio (y) = 0.46988 -0.03605
# Poissons Ratio (z) = 0.07933 -0.02317
#
# Static dielectric constant tensor:
#      x y z
#    x 1.716450 0.000000 0.000000 
#    y 0.000000 1.780100 0.000000 
#    z 0.000000 0.000000 1.719870 
# 
# From -- ./inp_files/1324.got.cif
#   From: 2010.05.17/outbox.cif.g08.bks.cpg/sg64_1_cif.got.tgz:1324.got - 2010.06.03 16:29:19.
