data_PCOD9480271
_publ_section_title
;
Structure prediction by ZEFSAII (Michael W. Deem and Ramdas Pophale) SiO2 
 PCOD9480271
Probable space group: C M C A
;
_chemical_formula_sum "Si O2"
_cell_formula_units_Z 112
_cell_length_a 17.791561
_cell_length_b 13.549557
_cell_length_c 23.153261
_cell_angle_alpha 90.000000
_cell_angle_beta 90.000000
_cell_angle_gamma 90.000000
_cell_volume 5581.504995
_symmetry_space_group_name_H-M "C M C A"
_symmetry_group_IT_number 64
_symmetry_cell_setting 'orthorhombic'
loop_
_space_group_symop_operation_xyz
x,y,z
-x,1/2-y,1/2+z
x,-y,-z
-x,1/2+y,1/2-z
-x,-y,-z
x,1/2+y,1/2-z
-x,y,z
x,1/2-y,1/2+z
1/2+x,1/2+y,z
1/2-x,-y,1/2+z
1/2+x,1/2-y,-z
1/2-x,y,1/2-z
1/2-x,1/2-y,-z
1/2+x,y,1/2-z
1/2-x,1/2+y,z
1/2+x,-y,1/2+z
loop_
_atom_site_type_symbol
_atom_site_label
_atom_site_fract_x
_atom_site_fract_y
_atom_site_fract_z
Si Si1 0.166690 0.778376 0.476735
Si Si2 0.911916 0.997465 0.259322
Si Si3 0.913711 0.706680 0.180076
Si Si4 0.912301 0.586613 0.064745
Si Si5 0.087080 0.099756 0.963589
Si Si6 0.329723 0.599534 0.841266
Si Si7 0.343947 0.902161 0.133092
O O1 0.250000 0.750000 0.500000
O O2 0.136183 0.872385 0.512314
O O3 0.114367 0.688306 0.495794
O O4 0.158679 0.806993 0.409268
O O5 0.896918 0.106864 0.284656
O O6 0.000000 0.991185 0.246833
O O7 0.865045 0.979285 0.201981
O O8 0.892257 0.915757 0.308499
O O9 0.911781 0.671444 0.113591
O O10 0.855180 0.795055 0.185312
O O11 0.000000 0.738121 0.193228
O O12 0.875126 0.491593 0.093915
O O13 0.000000 0.568871 0.050657
O O14 0.135090 0.094998 0.905171
O O15 0.000000 0.113560 0.947788
O O16 0.095309 0.000000 0.000000
O O17 0.241506 0.584628 0.846939
#
# Coordination Sequence:
#
# PCOD9480271 Si02
#       7
#    16  16  16  16  16  16  16
#     4  12  23  39  64  97 135 180 218 277 335 397
#     4  10  23  43  67  96 126 167 228 283 333 399
#     4   9  18  38  66  93 120 164 220 263 318 398
#     4  10  21  39  66  95 127 169 216 266 330 399
#     4  11  25  43  66  95 132 180 228 267 329 415
#     4  12  22  43  68  92 134 177 216 275 345 404
#     4  11  24  39  63  99 136 163 216 280 338 398
#
# _framework density 20.066272999999999
#
# number of rings (size 3 to 8) (size 9 to 14) (size 15 to 20)
#    0.000    1.286    2.857    3.857    2.000    2.857 
#    2.571    2.857    0.000    0.000    0.000    0.000 
#    0.000    0.000    0.000    0.000    0.000    0.000 
#
# Total GULP energy -312805.464567 kJ/mol
# GULP energy per Si atom -5585.811867 kJ/mol
# Density = 2.002060 g / cm^3
# Si number density = 20.066273 Si / 1000 Ang^3
#
#
#
# Elastic Constant Matrix: (Units=GPa)
#
#
# Indices 1 2 3 4 5 6 
#
# 1 81.0829 19.4603 30.4093 0.0000 0.0000 0.0000
# 2 19.4603 40.2413 17.1957 0.0000 0.0000 0.0000
# 3 30.4093 17.1957 66.5101 0.0000 0.0000 0.0000
# 4 0.0000 0.0000 0.0000 29.6474 0.0000 0.0000
# 5 0.0000 0.0000 0.0000 0.0000 27.8094 0.0000
# 6 0.0000 0.0000 0.0000 0.0000 0.0000 38.4657
#
#
#
# Elastic Compliance Matrix: (Units=1/GPa)
#
#
# Indices 1 2 3 4 5 6 
#
# 1 0.015768 -0.005109 -0.005888 0.000000 0.000000 0.000000
# 2 -0.005109 0.029592 -0.005315 0.000000 0.000000 0.000000
# 3 -0.005888 -0.005315 0.019102 0.000000 0.000000 0.000000
# 4 0.000000 0.000000 0.000000 0.033730 0.000000 0.000000
# 5 0.000000 0.000000 0.000000 0.000000 0.035959 0.000000
# 6 0.000000 0.000000 0.000000 0.000000 0.000000 0.025997
#
#
# Mechanical properties :
#
#
# Convention : Reuss Voigt Hill
#
# Bulk Modulus (GPa) = 31.41007 35.77387 33.59197
# Shear Modulus (GPa) = 24.58409 27.23576 25.90992
#
# Velocity S-wave (km/s) = 3.50400 3.68814 3.59725
# Velocity P-wave (km/s) = 5.66197 6.00025 5.83356
#
# Compressibility (1/GPa) = 0.03183692
#
# Stress axis : x y z
#
# Youngs Moduli (GPa) = 63.42135 33.79307 52.35151
#
# Poissons Ratio (x) = 0.17265 0.30826
# Poissons Ratio (y) = 0.32401 0.27824
# Poissons Ratio (z) = 0.37344 0.17961
#
# Static dielectric constant tensor:
#      x y z
#    x 1.697960 0.000000 0.000000 
#    y 0.000000 1.731710 0.000000 
#    z 0.000000 0.000000 1.720870 
# 
# From -- ./inp_files/45229.got.cif
#   From: 2010.05.17/outbox.cif.g08.bks.cpg/sg64_23_cif.got.tgz:45229.got - 2010.06.03 16:29:19.
