data_PCOD9480658
_publ_section_title
;
Structure prediction by ZEFSAII (Michael W. Deem and Ramdas Pophale) SiO2 
 PCOD9480658
Probable space group: C M C A
;
_chemical_formula_sum "Si O2"
_cell_formula_units_Z 112
_cell_length_a 13.872012
_cell_length_b 10.805550
_cell_length_c 33.137341
_cell_angle_alpha 90.000000
_cell_angle_beta 90.000000
_cell_angle_gamma 90.000000
_cell_volume 4967.112426
_symmetry_space_group_name_H-M "C M C A"
_symmetry_group_IT_number 64
_symmetry_cell_setting 'orthorhombic'
loop_
_space_group_symop_operation_xyz
x,y,z
-x,1/2-y,1/2+z
x,-y,-z
-x,1/2+y,1/2-z
-x,-y,-z
x,1/2+y,1/2-z
-x,y,z
x,1/2-y,1/2+z
1/2+x,1/2+y,z
1/2-x,-y,1/2+z
1/2+x,1/2-y,-z
1/2-x,y,1/2-z
1/2-x,1/2-y,-z
1/2+x,y,1/2-z
1/2-x,1/2+y,z
1/2+x,-y,1/2+z
loop_
_atom_site_type_symbol
_atom_site_label
_atom_site_fract_x
_atom_site_fract_y
_atom_site_fract_z
Si Si1 0.756848 0.016880 0.884284
Si Si2 0.683754 0.390122 0.804584
Si Si3 0.104362 0.651143 0.841568
Si Si4 0.885230 0.587525 0.061184
Si Si5 0.114850 0.453073 0.544667
Si Si6 0.884377 0.683037 0.976998
Si Si7 0.108697 0.418798 0.780839
O O1 0.690600 0.132744 0.872767
O O2 0.809903 0.976137 0.843642
O O3 0.679128 0.912184 0.898874
O O4 0.831517 0.027003 0.920498
O O5 0.620159 0.273465 0.816272
O O6 0.794338 0.347345 0.794883
O O7 0.636712 0.452061 0.765206
O O8 0.107290 0.537098 0.810325
O O9 0.000000 0.651386 0.862408
O O10 0.865169 0.448511 0.043775
O O11 0.000000 0.600506 0.068733
O O12 0.855185 0.676169 0.024213
O O13 0.139653 0.500000 0.500000
O O14 0.143536 0.308276 0.545418
O O15 0.000000 0.464340 0.549593
O O16 0.000000 0.688703 0.979301
O O17 0.000000 0.364332 0.782221
#
# Coordination Sequence:
#
# PCOD9480658 Si02
#       7
#    16  16  16  16  16  16  16
#     4  11  24  36  56  91 126 160 206 263 310 371
#     4  10  22  38  61  96 127 159 206 250 310 376
#     4  10  22  42  67  94 127 166 202 251 316 379
#     4   9  18  35  59  88 115 148 204 271 324 376
#     4  10  23  41  57  79 120 172 219 266 321 382
#     4   8  17  35  59  82 107 150 212 269 317 375
#     4   9  20  41  66  91 123 159 202 255 304 367
#
# _framework density 22.548310000000001
#
# number of rings (size 3 to 8) (size 9 to 14) (size 15 to 20)
#    0.000    2.429    0.000    1.714    4.000    8.000 
#    0.000    0.714    0.000    0.857    0.000    0.000 
#    0.000    0.000    0.000    0.000    0.000    0.000 
#
# Total GULP energy -312635.657511 kJ/mol
# GULP energy per Si atom -5582.779598 kJ/mol
# Density = 2.249699 g / cm^3
# Si number density = 22.548310 Si / 1000 Ang^3
#
#
#
# Elastic Constant Matrix: (Units=GPa)
#
#
# Indices 1 2 3 4 5 6 
#
# 1 110.9888 11.2544 30.2963 0.0000 0.0000 0.0000
# 2 11.2544 32.0279 7.3556 0.0000 0.0000 0.0000
# 3 30.2963 7.3556 106.2775 0.0000 0.0000 0.0000
# 4 0.0000 0.0000 0.0000 10.7848 0.0000 0.0000
# 5 0.0000 0.0000 0.0000 0.0000 34.3949 0.0000
# 6 0.0000 0.0000 0.0000 0.0000 0.0000 9.0910
#
#
#
# Elastic Compliance Matrix: (Units=1/GPa)
#
#
# Indices 1 2 3 4 5 6 
#
# 1 0.010031 -0.002914 -0.002658 0.000000 0.000000 0.000000
# 2 -0.002914 0.032574 -0.001424 0.000000 0.000000 0.000000
# 3 -0.002658 -0.001424 0.010266 0.000000 0.000000 0.000000
# 4 0.000000 0.000000 0.000000 0.092723 0.000000 0.000000
# 5 0.000000 0.000000 0.000000 0.000000 0.029074 0.000000
# 6 0.000000 0.000000 0.000000 0.000000 0.000000 0.109998
#
#
# Mechanical properties :
#
#
# Convention : Reuss Voigt Hill
#
# Bulk Modulus (GPa) = 25.72116 38.56745 32.14431
# Shear Modulus (GPa) = 16.04533 24.21333 20.12933
#
# Velocity S-wave (km/s) = 2.67047 3.28051 2.99108
# Velocity P-wave (km/s) = 4.57608 5.61164 5.12010
#
# Compressibility (1/GPa) = 0.03887849
#
# Stress axis : x y z
#
# Youngs Moduli (GPa) = 99.69165 30.69951 97.41353
#
# Poissons Ratio (x) = 0.08947 0.25890
# Poissons Ratio (y) = 0.29054 0.13869
# Poissons Ratio (z) = 0.26496 0.04371
#
# Static dielectric constant tensor:
#      x y z
#    x 1.883490 0.000000 0.000000 
#    y 0.000000 1.840250 0.000000 
#    z 0.000000 0.000000 1.881880 
# 
# From -- ./inp_files/53232.got.cif
#   From: 2010.05.17/outbox.cif.g08.bks.cpg/sg64_27_cif.got.tgz:53232.got - 2010.06.03 16:29:19.
