data_PCOD9480130
_publ_section_title
;
Structure prediction by ZEFSAII (Michael W. Deem and Ramdas Pophale) SiO2 
 PCOD9480130
Probable space group: C M C A
;
_chemical_formula_sum "Si O2"
_cell_formula_units_Z 64
_cell_length_a 17.829781
_cell_length_b 20.093788
_cell_length_c 7.456930
_cell_angle_alpha 90.000000
_cell_angle_beta 90.000000
_cell_angle_gamma 90.000000
_cell_volume 2671.578200
_symmetry_space_group_name_H-M "C M C A"
_symmetry_group_IT_number 64
_symmetry_cell_setting 'orthorhombic'
loop_
_space_group_symop_operation_xyz
x,y,z
-x,1/2-y,1/2+z
x,-y,-z
-x,1/2+y,1/2-z
-x,-y,-z
x,1/2+y,1/2-z
-x,y,z
x,1/2-y,1/2+z
1/2+x,1/2+y,z
1/2-x,-y,1/2+z
1/2+x,1/2-y,-z
1/2-x,y,1/2-z
1/2-x,1/2-y,-z
1/2+x,y,1/2-z
1/2-x,1/2+y,z
1/2+x,-y,1/2+z
loop_
_atom_site_type_symbol
_atom_site_label
_atom_site_fract_x
_atom_site_fract_y
_atom_site_fract_z
Si Si1 0.912255 0.109417 0.702297
Si Si2 0.311083 0.783536 0.124791
Si Si3 0.087287 0.157733 0.120962
Si Si4 0.336186 0.976101 0.705258
O O1 0.870866 0.161359 0.573874
O O2 0.871222 0.038758 0.691716
O O3 0.000000 0.102266 0.667445
O O4 0.904768 0.142101 0.904645
O O5 0.250000 0.820917 0.250000
O O6 0.361529 0.719944 0.179757
O O7 0.250000 0.750000 0.000000
O O8 0.000000 0.171741 0.154746
O O9 0.114284 0.089995 0.213811
O O10 0.250000 0.962071 0.750000
O O11 0.338585 0.000000 0.500000
#
# Coordination Sequence:
#
# PCOD9480130 Si02
#       4
#    16  16  16  16
#     4  10  21  39  63  92 125 164 208 260 314 371
#     4  12  23  39  63  92 127 165 209 256 316 379
#     4  10  21  39  62  92 123 163 211 258 311 376
#     4  10  21  38  66  91 124 165 213 261 316 374
#
# _framework density 23.955876
#
# number of rings (size 3 to 8) (size 9 to 14) (size 15 to 20)
#    0.000    1.500    2.500    3.000    3.500    3.000 
#    0.000    0.000    0.000    1.500    0.000    0.000 
#    0.000    0.000    0.000    0.000    0.000    0.000 
#
# Total GULP energy -178849.847869 kJ/mol
# GULP energy per Si atom -5589.057746 kJ/mol
# Density = 2.390135 g / cm^3
# Si number density = 23.955876 Si / 1000 Ang^3
#
#
#
# Elastic Constant Matrix: (Units=GPa)
#
#
# Indices 1 2 3 4 5 6 
#
# 1 207.7048 81.1914 8.8257 0.0000 0.0000 0.0000
# 2 81.1914 142.6512 27.1419 0.0000 0.0000 0.0000
# 3 8.8257 27.1419 31.7922 0.0000 0.0000 0.0000
# 4 0.0000 0.0000 0.0000 2.0622 0.0000 0.0000
# 5 0.0000 0.0000 0.0000 0.0000 30.5526 0.0000
# 6 0.0000 0.0000 0.0000 0.0000 0.0000 47.0986
#
#
#
# Elastic Compliance Matrix: (Units=1/GPa)
#
#
# Indices 1 2 3 4 5 6 
#
# 1 0.006256 -0.003857 0.001556 0.000000 0.000000 0.000000
# 2 -0.003857 0.010747 -0.008105 0.000000 0.000000 0.000000
# 3 0.001556 -0.008105 0.037941 0.000000 0.000000 0.000000
# 4 0.000000 0.000000 0.000000 0.484923 0.000000 0.000000
# 5 0.000000 0.000000 0.000000 0.000000 0.032730 0.000000
# 6 0.000000 0.000000 0.000000 0.000000 0.000000 0.021232
#
#
# Mechanical properties :
#
#
# Convention : Reuss Voigt Hill
#
# Bulk Modulus (GPa) = 29.29645 68.49626 48.89635
# Shear Modulus (GPa) = 7.98699 33.60863 20.79781
#
# Velocity S-wave (km/s) = 1.82792 3.74965 2.94967
# Velocity P-wave (km/s) = 4.08790 6.88485 5.66181
#
# Compressibility (1/GPa) = 0.03413383
#
# Stress axis : x y z
#
# Youngs Moduli (GPa) = 159.84689 93.04735 26.35645
#
# Poissons Ratio (x) = 0.35885 -0.04101
# Poissons Ratio (y) = 0.61648 0.21361
# Poissons Ratio (z) = -0.24870 0.75411
#
# Static dielectric constant tensor:
#      x y z
#    x 2.106290 0.000000 0.000000 
#    y 0.000000 1.834800 0.000000 
#    z 0.000000 0.000000 2.231150 
# 
# From -- ./inp_files/5562.got.cif
#   From: 2010.05.17/outbox.cif.g08.bks.cpg/sg64_3_cif.got.tgz:5562.got - 2010.06.03 16:29:19.
