data_PCOD9480708
_publ_section_title
;
Structure prediction by ZEFSAII (Michael W. Deem and Ramdas Pophale) SiO2 
 PCOD9480708
Probable space group: C M C A
;
_chemical_formula_sum "Si O2"
_cell_formula_units_Z 72
_cell_length_a 26.147257
_cell_length_b 13.760118
_cell_length_c 7.560690
_cell_angle_alpha 90.000000
_cell_angle_beta 90.000000
_cell_angle_gamma 90.000000
_cell_volume 2720.255678
_symmetry_space_group_name_H-M "C M C A"
_symmetry_group_IT_number 64
_symmetry_cell_setting 'orthorhombic'
loop_
_space_group_symop_operation_xyz
x,y,z
-x,1/2-y,1/2+z
x,-y,-z
-x,1/2+y,1/2-z
-x,-y,-z
x,1/2+y,1/2-z
-x,y,z
x,1/2-y,1/2+z
1/2+x,1/2+y,z
1/2-x,-y,1/2+z
1/2+x,1/2-y,-z
1/2-x,y,1/2-z
1/2-x,1/2-y,-z
1/2+x,y,1/2-z
1/2-x,1/2+y,z
1/2+x,-y,1/2+z
loop_
_atom_site_type_symbol
_atom_site_label
_atom_site_fract_x
_atom_site_fract_y
_atom_site_fract_z
Si Si1 0.250000 0.991923 0.750000
Si Si2 0.667160 0.640830 0.329248
Si Si3 0.335230 0.131275 0.593362
Si Si4 0.054281 0.866953 0.079661
Si Si5 0.555381 0.635825 0.344222
O O1 0.282312 0.918834 0.878077
O O2 0.293011 0.062596 0.673430
O O3 0.672906 0.755761 0.360676
O O4 0.612331 0.607547 0.407810
O O5 0.664592 0.627784 0.118039
O O6 0.391951 0.096906 0.653124
O O7 0.054804 0.752047 0.120427
O O8 0.000000 0.906493 0.147188
O O9 0.054679 0.878862 0.867808
O O10 0.500000 0.600927 0.414253
#
# Coordination Sequence:
#
# PCOD9480708 Si02
#       5
#     8  16  16  16  16
#     4  12  24  36  54  78 114 154 194 234 274 326
#     4  10  22  39  59  84 113 148 191 236 284 338
#     4  10  22  39  59  84 113 148 191 236 284 338
#     4   8  14  28  52  80 108 138 175 223 279 336
#     4   8  14  28  52  80 108 138 175 223 279 336
#
# _framework density 26.4681
#
# number of rings (size 3 to 8) (size 9 to 14) (size 15 to 20)
#    0.000    2.667    0.000    1.333    0.000    5.333 
#    0.000    1.111    0.000    5.333    0.000    0.000 
#    0.000   42.667    0.000    0.000    0.000    1.333 
#
# Total GULP energy -201374.082484 kJ/mol
# GULP energy per Si atom -5593.724513 kJ/mol
# Density = 2.640786 g / cm^3
# Si number density = 26.468100 Si / 1000 Ang^3
#
#
#
# Elastic Constant Matrix: (Units=GPa)
#
#
# Indices 1 2 3 4 5 6 
#
# 1 315.8456 99.2569 19.5449 0.0000 0.0000 0.0000
# 2 99.2569 163.2386 25.7611 0.0000 0.0000 0.0000
# 3 19.5449 25.7611 58.8326 0.0000 0.0000 0.0000
# 4 0.0000 0.0000 0.0000 24.7633 0.0000 0.0000
# 5 0.0000 0.0000 0.0000 0.0000 10.2590 0.0000
# 6 0.0000 0.0000 0.0000 0.0000 0.0000 -138.1302
#
#
#
# Elastic Compliance Matrix: (Units=1/GPa)
#
#
# Indices 1 2 3 4 5 6 
#
# 1 0.003918 -0.002339 -0.000278 0.000000 0.000000 0.000000
# 2 -0.002339 0.007977 -0.002716 0.000000 0.000000 0.000000
# 3 -0.000278 -0.002716 0.018279 0.000000 0.000000 0.000000
# 4 0.000000 0.000000 0.000000 0.040382 0.000000 0.000000
# 5 0.000000 0.000000 0.000000 0.000000 0.097475 0.000000
# 6 0.000000 0.000000 0.000000 0.000000 0.000000 -0.007240
#
#
# Mechanical properties :
#
#
# Convention : Reuss Voigt Hill
#
# Bulk Modulus (GPa) = 51.25731 91.89361 71.57546
# Shear Modulus (GPa) = 28.09633 5.60202 16.84918
#
# Velocity S-wave (km/s) = 3.26163 1.45640 2.52580
# Velocity P-wave (km/s) = 5.79586 6.13369 5.96717
#
# Compressibility (1/GPa) = 0.01950941
#
# Stress axis : x y z
#
# Youngs Moduli (GPa) = 255.21768 125.36665 54.70821
#
# Poissons Ratio (x) = 0.29319 0.01519
# Poissons Ratio (y) = 0.59687 0.14858
# Poissons Ratio (z) = 0.07086 0.34047
#
# Static dielectric constant tensor:
#      x y z
#    x 2.159990 0.000000 0.000000 
#    y 0.000000 2.021990 0.000000 
#    z 0.000000 0.000000 2.114210 
# 
# From -- ./inp_files/5850.got.cif
#   From: 2010.05.17/outbox.cif.g08.bks.cpg/sg64_3_cif.got.tgz:5850.got - 2010.06.03 16:29:19.
