data_PCOD9480428
_publ_section_title
;
Structure prediction by ZEFSAII (Michael W. Deem and Ramdas Pophale) SiO2 
 PCOD9480428
Probable space group: C M C A
;
_chemical_formula_sum "Si O2"
_cell_formula_units_Z 112
_cell_length_a 15.331017
_cell_length_b 14.317621
_cell_length_c 22.284677
_cell_angle_alpha 90.000000
_cell_angle_beta 90.000000
_cell_angle_gamma 90.000000
_cell_volume 4891.568853
_symmetry_space_group_name_H-M "C M C A"
_symmetry_group_IT_number 64
_symmetry_cell_setting 'orthorhombic'
loop_
_space_group_symop_operation_xyz
x,y,z
-x,1/2-y,1/2+z
x,-y,-z
-x,1/2+y,1/2-z
-x,-y,-z
x,1/2+y,1/2-z
-x,y,z
x,1/2-y,1/2+z
1/2+x,1/2+y,z
1/2-x,-y,1/2+z
1/2+x,1/2-y,-z
1/2-x,y,1/2-z
1/2-x,1/2-y,-z
1/2+x,y,1/2-z
1/2-x,1/2+y,z
1/2+x,-y,1/2+z
loop_
_atom_site_type_symbol
_atom_site_label
_atom_site_fract_x
_atom_site_fract_y
_atom_site_fract_z
Si Si1 0.899207 0.344473 0.277783
Si Si2 0.902486 0.667820 0.588523
Si Si3 0.791231 0.873005 0.410951
Si Si4 0.603998 0.773974 0.659498
Si Si5 0.154004 0.445970 0.729581
Si Si6 0.095540 0.977795 0.644665
Si Si7 0.902527 0.139827 0.474654
O O1 0.895507 0.295708 0.342596
O O2 0.874958 0.279284 0.222401
O O3 0.850340 0.443174 0.282598
O O4 0.000000 0.370686 0.267449
O O5 0.811712 0.614483 0.582028
O O6 0.898558 0.750862 0.540640
O O7 0.000000 0.623883 0.584222
O O8 0.829911 0.772625 0.388407
O O9 0.830884 0.944522 0.362752
O O10 0.835503 0.889806 0.475060
O O11 0.500000 0.761275 0.645346
O O12 0.621766 0.882218 0.675005
O O13 0.250000 0.417997 0.750000
O O14 0.098638 0.431757 0.790326
O O15 0.000000 0.022237 0.637234
O O16 0.109002 0.908954 0.589368
O O17 0.000000 0.117201 0.496560
#
# Coordination Sequence:
#
# PCOD9480428 Si02
#       7
#    16  16  16  16  16  16  16
#     4  10  21  41  64  88 127 172 213 261 323 387
#     4  10  23  42  64  91 127 173 214 259 322 393
#     4  12  23  39  67  99 129 164 218 274 324 381
#     4  11  24  39  62  94 132 171 211 269 332 384
#     4  12  25  38  62  96 134 172 219 264 321 396
#     4  11  22  41  68  98 131 166 212 275 334 377
#     4  10  22  41  68  98 128 166 215 269 327 383
#
# _framework density 22.896539000000001
#
# number of rings (size 3 to 8) (size 9 to 14) (size 15 to 20)
#    0.000    1.143    1.429    5.143    4.000    3.429 
#    0.000    0.000    0.000    1.714    0.000    0.000 
#    0.000    0.000    0.000    0.000    0.000    0.000 
#
# Total GULP energy -312940.632030 kJ/mol
# GULP energy per Si atom -5588.225572 kJ/mol
# Density = 2.284443 g / cm^3
# Si number density = 22.896539 Si / 1000 Ang^3
#
#
#
# Elastic Constant Matrix: (Units=GPa)
#
#
# Indices 1 2 3 4 5 6 
#
# 1 143.6956 22.5032 20.4891 0.0000 0.0000 0.0000
# 2 22.5032 57.3190 -3.8801 0.0000 0.0000 0.0000
# 3 20.4891 -3.8801 73.6248 0.0000 0.0000 0.0000
# 4 0.0000 0.0000 0.0000 33.7833 0.0000 0.0000
# 5 0.0000 0.0000 0.0000 0.0000 12.2388 0.0000
# 6 0.0000 0.0000 0.0000 0.0000 0.0000 62.3181
#
#
#
# Elastic Compliance Matrix: (Units=1/GPa)
#
#
# Indices 1 2 3 4 5 6 
#
# 1 0.007797 -0.003219 -0.002339 0.000000 0.000000 0.000000
# 2 -0.003219 0.018838 0.001889 0.000000 0.000000 0.000000
# 3 -0.002339 0.001889 0.014333 0.000000 0.000000 0.000000
# 4 0.000000 0.000000 0.000000 0.029600 0.000000 0.000000
# 5 0.000000 0.000000 0.000000 0.000000 0.081707 0.000000
# 6 0.000000 0.000000 0.000000 0.000000 0.000000 0.016047
#
#
# Mechanical properties :
#
#
# Convention : Reuss Voigt Hill
#
# Bulk Modulus (GPa) = 29.73751 39.20709 34.47230
# Shear Modulus (GPa) = 26.75633 37.36985 32.06309
#
# Velocity S-wave (km/s) = 3.42215 4.04433 3.74618
# Velocity P-wave (km/s) = 5.35078 6.24256 5.81379
#
# Compressibility (1/GPa) = 0.03362756
#
# Stress axis : x y z
#
# Youngs Moduli (GPa) = 128.25610 53.08419 69.76918
#
# Poissons Ratio (x) = 0.17090 0.16322
# Poissons Ratio (y) = 0.41291 -0.13177
# Poissons Ratio (z) = 0.30005 -0.10026
#
# Static dielectric constant tensor:
#      x y z
#    x 1.871000 0.000000 0.000000 
#    y 0.000000 1.895800 0.000000 
#    z 0.000000 0.000000 1.819910 
# 
# From -- ./inp_files/45255.got.cif
#   From: 2010.05.17/outbox.cif.g08.bks.cpg/sg64_23_cif.got.tgz:45255.got - 2010.06.03 16:29:19.
