data_PCOD9480425
_publ_section_title
;
Structure prediction by ZEFSAII (Michael W. Deem and Ramdas Pophale) SiO2 
 PCOD9480425
Probable space group: C M C A
;
_chemical_formula_sum "Si O2"
_cell_formula_units_Z 64
_cell_length_a 26.207815
_cell_length_b 12.926733
_cell_length_c 9.103333
_cell_angle_alpha 90.000000
_cell_angle_beta 90.000000
_cell_angle_gamma 90.000000
_cell_volume 3084.040144
_symmetry_space_group_name_H-M "C M C A"
_symmetry_group_IT_number 64
_symmetry_cell_setting 'orthorhombic'
loop_
_space_group_symop_operation_xyz
x,y,z
-x,1/2-y,1/2+z
x,-y,-z
-x,1/2+y,1/2-z
-x,-y,-z
x,1/2+y,1/2-z
-x,y,z
x,1/2-y,1/2+z
1/2+x,1/2+y,z
1/2-x,-y,1/2+z
1/2+x,1/2-y,-z
1/2-x,y,1/2-z
1/2-x,1/2-y,-z
1/2+x,y,1/2-z
1/2-x,1/2+y,z
1/2+x,-y,1/2+z
loop_
_atom_site_type_symbol
_atom_site_label
_atom_site_fract_x
_atom_site_fract_y
_atom_site_fract_z
Si Si1 0.689448 0.844250 0.246302
Si Si2 0.559607 0.347034 0.466935
Si Si3 0.365414 0.668181 0.060266
Si Si4 0.112586 0.994867 0.702918
O O1 0.750000 0.846934 0.250000
O O2 0.664416 0.844862 0.408135
O O3 0.669498 0.742197 0.163053
O O4 0.665492 0.945871 0.168758
O O5 0.500000 0.350524 0.498504
O O6 0.582789 0.233551 0.460368
O O7 0.591924 0.408538 0.590390
O O8 0.572248 0.411080 0.317535
O O9 0.379181 0.563978 0.145462
#
# Coordination Sequence:
#
# PCOD9480425 Si02
#       4
#    16  16  16  16
#     4  11  24  42  66  96 131 176 217 269 332 389
#     4  10  22  42  69  95 132 177 215 276 346 391
#     4  11  22  44  65  98 135 166 225 275 320 404
#     4  10  21  41  63  93 134 164 218 273 325 394
#
# _framework density 20.751999999999999
#
# number of rings (size 3 to 8) (size 9 to 14) (size 15 to 20)
#    0.000    1.500    2.500    3.000    0.000    3.000 
#   18.000    1.250    0.000    9.000    0.000    0.000 
#    0.000    0.000    0.000    0.000    0.000    0.000 
#
# Total GULP energy -178612.608222 kJ/mol
# GULP energy per Si atom -5581.644007 kJ/mol
# Density = 2.070477 g / cm^3
# Si number density = 20.752000 Si / 1000 Ang^3
#
#
#
# Elastic Constant Matrix: (Units=GPa)
#
#
# Indices 1 2 3 4 5 6 
#
# 1 152.6428 48.1951 70.8227 0.0000 0.0000 0.0000
# 2 48.1951 90.3285 48.9371 0.0000 0.0000 0.0000
# 3 70.8227 48.9371 125.2799 0.0000 0.0000 0.0000
# 4 0.0000 0.0000 0.0000 40.6426 0.0000 0.0000
# 5 0.0000 0.0000 0.0000 0.0000 356.0235 0.0000
# 6 0.0000 0.0000 0.0000 0.0000 0.0000 3.0085
#
#
#
# Elastic Compliance Matrix: (Units=1/GPa)
#
#
# Indices 1 2 3 4 5 6 
#
# 1 0.009373 -0.002702 -0.004243 0.000000 0.000000 0.000000
# 2 -0.002702 0.014822 -0.004262 0.000000 0.000000 0.000000
# 3 -0.004243 -0.004262 0.012046 0.000000 0.000000 0.000000
# 4 0.000000 0.000000 0.000000 0.024605 0.000000 0.000000
# 5 0.000000 0.000000 0.000000 0.000000 0.002809 0.000000
# 6 0.000000 0.000000 0.000000 0.000000 0.000000 0.332391
#
#
# Mechanical properties :
#
#
# Convention : Reuss Voigt Hill
#
# Bulk Modulus (GPa) = 72.33035 78.24012 75.28524
# Shear Modulus (GPa) = 11.81841 93.28799 52.55320
#
# Velocity S-wave (km/s) = 2.38902 6.71203 5.03780
# Velocity P-wave (km/s) = 6.52229 9.89205 8.37833
#
# Compressibility (1/GPa) = 0.01382546
#
# Stress axis : x y z
#
# Youngs Moduli (GPa) = 106.68686 67.46954 83.01683
#
# Poissons Ratio (x) = 0.18232 0.35226
# Poissons Ratio (y) = 0.28829 0.35382
# Poissons Ratio (z) = 0.45270 0.28755
#
# Static dielectric constant tensor:
#      x y z
#    x 1.690560 0.000000 0.000000 
#    y 0.000000 1.747080 0.000000 
#    z 0.000000 0.000000 1.828860 
# 
# From -- ./inp_files/8959.got.cif
#   From: 2010.05.17/outbox.cif.g08.bks.cpg/sg64_5_cif.got.tgz:8959.got - 2010.06.03 16:29:19.
