data_PCOD9480897
_publ_section_title
;
Structure prediction by ZEFSAII (Michael W. Deem and Ramdas Pophale) SiO2 
 PCOD9480897
Probable space group: C M C A
;
_chemical_formula_sum "Si O2"
_cell_formula_units_Z 68
_cell_length_a 19.593648
_cell_length_b 15.432271
_cell_length_c 10.223775
_cell_angle_alpha 90.000000
_cell_angle_beta 90.000000
_cell_angle_gamma 90.000000
_cell_volume 3091.408709
_symmetry_space_group_name_H-M "C M C A"
_symmetry_group_IT_number 64
_symmetry_cell_setting 'orthorhombic'
loop_
_space_group_symop_operation_xyz
x,y,z
-x,1/2-y,1/2+z
x,-y,-z
-x,1/2+y,1/2-z
-x,-y,-z
x,1/2+y,1/2-z
-x,y,z
x,1/2-y,1/2+z
1/2+x,1/2+y,z
1/2-x,-y,1/2+z
1/2+x,1/2-y,-z
1/2-x,y,1/2-z
1/2-x,1/2-y,-z
1/2+x,y,1/2-z
1/2-x,1/2+y,z
1/2+x,-y,1/2+z
loop_
_atom_site_type_symbol
_atom_site_label
_atom_site_fract_x
_atom_site_fract_y
_atom_site_fract_z
Si Si1 0.000000 0.000000 0.000000
Si Si2 0.221017 0.402876 0.450498
Si Si3 0.828806 0.822274 0.794389
Si Si4 0.572900 0.030032 0.227702
Si Si5 0.146031 0.634422 0.817861
O O1 0.942025 0.989363 0.882395
O O2 0.229531 0.500000 0.500000
O O3 0.178358 0.349664 0.555179
O O4 0.183695 0.400565 0.312124
O O5 0.296169 0.363529 0.428900
O O6 0.750000 0.808664 0.750000
O O7 0.866610 0.900357 0.720161
O O8 0.871502 0.733568 0.786786
O O9 0.500000 0.065177 0.178529
O O10 0.590356 0.939063 0.158612
#
# Coordination Sequence:
#
# PCOD9480897 Si02
#       5
#     4  16  16  16  16
#     4   8  20  44  68  84 122 178 230 264 308 410
#     4  11  21  39  63  98 132 166 216 266 336 390
#     4  12  23  39  68 100 132 168 214 277 332 392
#     4  10  22  41  63  90 127 175 219 266 316 395
#     4  11  23  39  64  99 131 167 212 279 326 389
#
# _framework density 21.996444
#
# number of rings (size 3 to 8) (size 9 to 14) (size 15 to 20)
#    0.706    0.471    4.706    3.529    0.000    0.941 
#    0.000    0.000    0.000    6.353    0.000    0.000 
#    0.000    0.000    0.000    0.000    0.000    0.000 
#
# Total GULP energy -189299.897922 kJ/mol
# GULP energy per Si atom -5567.644057 kJ/mol
# Density = 2.194638 g / cm^3
# Si number density = 21.996444 Si / 1000 Ang^3
#
#
#
# Elastic Constant Matrix: (Units=GPa)
#
#
# Indices 1 2 3 4 5 6 
#
# 1 68.9038 33.5657 9.5874 0.0000 0.0000 0.0000
# 2 33.5657 146.3072 -2.3687 0.0000 0.0000 0.0000
# 3 9.5874 -2.3687 24.9619 0.0000 0.0000 0.0000
# 4 0.0000 0.0000 0.0000 19.1980 0.0000 0.0000
# 5 0.0000 0.0000 0.0000 0.0000 21.1313 0.0000
# 6 0.0000 0.0000 0.0000 0.0000 0.0000 29.1500
#
#
#
# Elastic Compliance Matrix: (Units=1/GPa)
#
#
# Indices 1 2 3 4 5 6 
#
# 1 0.017518 -0.004134 -0.007121 0.000000 0.000000 0.000000
# 2 -0.004134 0.007821 0.002330 0.000000 0.000000 0.000000
# 3 -0.007121 0.002330 0.043017 0.000000 0.000000 0.000000
# 4 0.000000 0.000000 0.000000 0.052089 0.000000 0.000000
# 5 0.000000 0.000000 0.000000 0.000000 0.047323 0.000000
# 6 0.000000 0.000000 0.000000 0.000000 0.000000 0.034305
#
#
# Mechanical properties :
#
#
# Convention : Reuss Voigt Hill
#
# Bulk Modulus (GPa) = 19.79948 35.74910 27.77429
# Shear Modulus (GPa) = 21.11863 27.18843 24.15353
#
# Velocity S-wave (km/s) = 3.10190 3.51955 3.31730
# Velocity P-wave (km/s) = 4.67438 5.72746 5.22750
#
# Compressibility (1/GPa) = 0.05050638
#
# Stress axis : x y z
#
# Youngs Moduli (GPa) = 57.08523 127.85903 23.24665
#
# Poissons Ratio (x) = 0.52859 0.16553
# Poissons Ratio (y) = 0.23600 -0.05417
# Poissons Ratio (z) = 0.40648 -0.29791
#
# Static dielectric constant tensor:
#      x y z
#    x 1.842120 0.000000 0.000000 
#    y 0.000000 1.847050 0.000000 
#    z 0.000000 0.000000 1.850140 
# 
# From -- ./inp_files/16933.got.cif
#   From: 2010.05.17/outbox.cif.g08.bks.cpg/sg64_9_cif.got.tgz:16933.got - 2010.06.03 16:29:19.
