data_PCOD9480035
_publ_section_title
;
Structure prediction by ZEFSAII (Michael W. Deem and Ramdas Pophale) SiO2 
 PCOD9480035
Probable space group: C M C A
;
_chemical_formula_sum "Si O2"
_cell_formula_units_Z 40
_cell_length_a 13.844237
_cell_length_b 25.977729
_cell_length_c 4.992957
_cell_angle_alpha 90.000000
_cell_angle_beta 90.000000
_cell_angle_gamma 90.000000
_cell_volume 1795.676228
_symmetry_space_group_name_H-M "C M C A"
_symmetry_group_IT_number 64
_symmetry_cell_setting 'orthorhombic'
loop_
_space_group_symop_operation_xyz
x,y,z
-x,1/2-y,1/2+z
x,-y,-z
-x,1/2+y,1/2-z
-x,-y,-z
x,1/2+y,1/2-z
-x,y,z
x,1/2-y,1/2+z
1/2+x,1/2+y,z
1/2-x,-y,1/2+z
1/2+x,1/2-y,-z
1/2-x,y,1/2-z
1/2-x,1/2-y,-z
1/2+x,y,1/2-z
1/2-x,1/2+y,z
1/2+x,-y,1/2+z
loop_
_atom_site_type_symbol
_atom_site_label
_atom_site_fract_x
_atom_site_fract_y
_atom_site_fract_z
Si Si1 0.888230 0.049785 0.648821
Si Si2 0.250000 0.711861 0.250000
Si Si3 0.109898 0.119053 0.129857
O O1 0.891438 0.091760 0.416085
O O2 0.000000 0.034549 0.721170
O O3 0.844005 0.000000 0.500000
O O4 0.847740 0.078170 0.913034
O O5 0.250000 0.750000 0.500000
O O6 0.164792 0.671965 0.323919
O O7 0.000000 0.129082 0.040340
#
# Coordination Sequence:
#
# PCOD9480035 Si02
#       3
#    16   8  16
#     4   9  17  33  60  91 121 152 184 228 293 365
#     4  12  26  42  60  82 114 158 210 262 302 342
#     4  10  21  38  60  87 119 153 194 243 296 357
#
# _framework density 22.275731
#
# number of rings (size 3 to 8) (size 9 to 14) (size 15 to 20)
#    0.000    2.000    0.000    3.600    0.000    6.400 
#    0.000    4.000    0.000    0.000    0.000    0.000 
#    0.000    0.000    0.000    0.000    0.000    0.000 
#
# Total GULP energy -111633.297299 kJ/mol
# GULP energy per Si atom -5581.664865 kJ/mol
# Density = 2.222503 g / cm^3
# Si number density = 22.275731 Si / 1000 Ang^3
#
#
#
# Elastic Constant Matrix: (Units=GPa)
#
#
# Indices 1 2 3 4 5 6 
#
# 1 73.4383 53.0568 17.3239 0.0000 0.0000 0.0000
# 2 53.0568 169.4888 51.9016 0.0000 0.0000 0.0000
# 3 17.3239 51.9016 160.0231 0.0000 0.0000 0.0000
# 4 0.0000 0.0000 0.0000 59.4229 0.0000 0.0000
# 5 0.0000 0.0000 0.0000 0.0000 20.0264 0.0000
# 6 0.0000 0.0000 0.0000 0.0000 0.0000 57.5529
#
#
#
# Elastic Compliance Matrix: (Units=1/GPa)
#
#
# Indices 1 2 3 4 5 6 
#
# 1 0.017599 -0.005469 -0.000131 0.000000 0.000000 0.000000
# 2 -0.005469 0.008250 -0.002084 0.000000 0.000000 0.000000
# 3 -0.000131 -0.002084 0.006939 0.000000 0.000000 0.000000
# 4 0.000000 0.000000 0.000000 0.016829 0.000000 0.000000
# 5 0.000000 0.000000 0.000000 0.000000 0.049934 0.000000
# 6 0.000000 0.000000 0.000000 0.000000 0.000000 0.017375
#
#
# Mechanical properties :
#
#
# Convention : Reuss Voigt Hill
#
# Bulk Modulus (GPa) = 57.40523 71.94606 64.67565
# Shear Modulus (GPa) = 36.20530 46.11164 41.15847
#
# Velocity S-wave (km/s) = 4.03591 4.55470 4.30313
# Velocity P-wave (km/s) = 6.89524 7.74781 7.33392
#
# Compressibility (1/GPa) = 0.01742001
#
# Stress axis : x y z
#
# Youngs Moduli (GPa) = 56.82138 121.20918 144.10915
#
# Poissons Ratio (x) = 0.66289 0.01894
# Poissons Ratio (y) = 0.31075 0.30029
# Poissons Ratio (z) = 0.00747 0.25258
#
# Static dielectric constant tensor:
#      x y z
#    x 1.988390 0.000000 0.000000 
#    y 0.000000 1.663880 0.000000 
#    z 0.000000 0.000000 1.795640 
# 
# From -- ./inp_files/598.got.cif
#   From: 2010.05.17/outbox.cif.g08.bks.cpg/sg64_1_cif.got.tgz:598.got - 2010.06.03 16:29:19.
