data_PCOD9480757
_publ_section_title
;
Structure prediction by ZEFSAII (Michael W. Deem and Ramdas Pophale) SiO2 
 PCOD9480757
Probable space group: C M C A
;
_chemical_formula_sum "Si O2"
_cell_formula_units_Z 48
_cell_length_a 14.508993
_cell_length_b 14.627355
_cell_length_c 8.216984
_cell_angle_alpha 90.000000
_cell_angle_beta 90.000000
_cell_angle_gamma 90.000000
_cell_volume 1743.875652
_symmetry_space_group_name_H-M "C M C A"
_symmetry_group_IT_number 64
_symmetry_cell_setting 'orthorhombic'
loop_
_space_group_symop_operation_xyz
x,y,z
-x,1/2-y,1/2+z
x,-y,-z
-x,1/2+y,1/2-z
-x,-y,-z
x,1/2+y,1/2-z
-x,y,z
x,1/2-y,1/2+z
1/2+x,1/2+y,z
1/2-x,-y,1/2+z
1/2+x,1/2-y,-z
1/2-x,y,1/2-z
1/2-x,1/2-y,-z
1/2+x,y,1/2-z
1/2-x,1/2+y,z
1/2+x,-y,1/2+z
loop_
_atom_site_type_symbol
_atom_site_label
_atom_site_fract_x
_atom_site_fract_y
_atom_site_fract_z
Si Si1 0.395172 0.566520 0.849810
Si Si2 0.343038 0.717300 0.598213
Si Si3 0.139474 0.885391 0.711894
O O1 0.500000 0.592064 0.888907
O O2 0.345184 0.651965 0.760503
O O3 0.395757 0.486766 0.717340
O O4 0.357623 0.500000 0.000000
O O5 0.250000 0.750000 0.500000
O O6 0.390072 0.811538 0.652269
O O7 0.387484 0.658009 0.458493
O O8 0.250000 0.889679 0.750000
#
# Coordination Sequence:
#
# PCOD9480757 Si02
#       3
#    16  16  16
#     4  11  25  44  68 103 149 198 250 317 396 474
#     4  10  22  42  67 101 143 192 253 317 384 465
#     4  10  22  39  66  99 136 185 245 312 382 459
#
# _framework density 27.524898
#
# number of rings (size 3 to 8) (size 9 to 14) (size 15 to 20)
#    0.000    1.667    0.000    3.000    0.000   16.000 
#    0.000    0.000    0.000    0.000    0.000    0.000 
#    0.000    1.333    0.000    0.000    0.000    0.000 
#
# Total GULP energy -133788.197545 kJ/mol
# GULP energy per Si atom -5574.508231 kJ/mol
# Density = 2.746225 g / cm^3
# Si number density = 27.524898 Si / 1000 Ang^3
#
#
#
# Elastic Constant Matrix: (Units=GPa)
#
#
# Indices 1 2 3 4 5 6 
#
# 1 120.1863 54.6786 55.8895 0.0000 0.0000 0.0000
# 2 54.6786 209.3894 57.5565 0.0000 0.0000 0.0000
# 3 55.8895 57.5565 145.1649 0.0000 0.0000 0.0000
# 4 0.0000 0.0000 0.0000 85.7154 0.0000 0.0000
# 5 0.0000 0.0000 0.0000 0.0000 19.8373 0.0000
# 6 0.0000 0.0000 0.0000 0.0000 0.0000 26.6922
#
#
#
# Elastic Compliance Matrix: (Units=1/GPa)
#
#
# Indices 1 2 3 4 5 6 
#
# 1 0.010753 -0.001874 -0.003397 0.000000 0.000000 0.000000
# 2 -0.001874 0.005687 -0.001533 0.000000 0.000000 0.000000
# 3 -0.003397 -0.001533 0.008804 0.000000 0.000000 0.000000
# 4 0.000000 0.000000 0.000000 0.011667 0.000000 0.000000
# 5 0.000000 0.000000 0.000000 0.000000 0.050410 0.000000
# 6 0.000000 0.000000 0.000000 0.000000 0.000000 0.037464
#
#
# Mechanical properties :
#
#
# Convention : Reuss Voigt Hill
#
# Bulk Modulus (GPa) = 85.94372 90.10999 88.02685
# Shear Modulus (GPa) = 35.14419 46.89003 41.01711
#
# Velocity S-wave (km/s) = 3.57713 4.13189 3.86448
# Velocity P-wave (km/s) = 6.95363 7.45466 7.20850
#
# Compressibility (1/GPa) = 0.01163552
#
# Stress axis : x y z
#
# Youngs Moduli (GPa) = 93.00041 175.85122 113.58017
#
# Poissons Ratio (x) = 0.32958 0.38580
# Poissons Ratio (y) = 0.17430 0.17413
# Poissons Ratio (z) = 0.31590 0.26960
#
# Static dielectric constant tensor:
#      x y z
#    x 2.355550 0.000000 0.000000 
#    y 0.000000 2.116240 0.000000 
#    z 0.000000 0.000000 2.343610 
# 
# From -- ./inp_files/6185.got.cif
#   From: 2010.05.17/outbox.cif.g08.bks.cpg/sg64_4_cif.got.tgz:6185.got - 2010.06.03 16:29:19.
