data_PCOD9480579
_publ_section_title
;
Structure prediction by ZEFSAII (Michael W. Deem and Ramdas Pophale) SiO2 
 PCOD9480579
Probable space group: C M C A
;
_chemical_formula_sum "Si O2"
_cell_formula_units_Z 72
_cell_length_a 27.176943
_cell_length_b 16.793518
_cell_length_c 7.748860
_cell_angle_alpha 90.000000
_cell_angle_beta 90.000000
_cell_angle_gamma 90.000000
_cell_volume 3536.552439
_symmetry_space_group_name_H-M "C M C A"
_symmetry_group_IT_number 64
_symmetry_cell_setting 'orthorhombic'
loop_
_space_group_symop_operation_xyz
x,y,z
-x,1/2-y,1/2+z
x,-y,-z
-x,1/2+y,1/2-z
-x,-y,-z
x,1/2+y,1/2-z
-x,y,z
x,1/2-y,1/2+z
1/2+x,1/2+y,z
1/2-x,-y,1/2+z
1/2+x,1/2-y,-z
1/2-x,y,1/2-z
1/2-x,1/2-y,-z
1/2+x,y,1/2-z
1/2-x,1/2+y,z
1/2+x,-y,1/2+z
loop_
_atom_site_type_symbol
_atom_site_label
_atom_site_fract_x
_atom_site_fract_y
_atom_site_fract_z
Si Si1 0.053139 0.431498 0.857367
Si Si2 0.144166 0.666544 0.995987
Si Si3 0.917787 0.000000 0.000000
Si Si4 0.648356 0.348619 0.082294
Si Si5 0.246942 0.406374 0.041817
O O1 0.054706 0.476407 0.674521
O O2 0.000000 0.388062 0.870411
O O3 0.054042 0.500000 0.000000
O O4 0.101501 0.379329 0.899276
O O5 0.144365 0.650223 0.790700
O O6 0.199555 0.636617 0.040971
O O7 0.135678 0.759757 0.025073
O O8 0.885453 0.921582 0.029135
O O9 0.701307 0.366762 0.995539
O O10 0.250000 0.399241 0.250000
O O11 0.245143 0.500000 0.000000
#
# Coordination Sequence:
#
# PCOD9480579 Si02
#       5
#    16  16   8  16  16
#     4  11  24  45  71  98 131 175 226 278 336 399
#     4  11  23  42  64  98 136 177 223 284 333 399
#     4  12  23  44  70 100 136 176 223 278 342 406
#     4  11  23  40  64  99 135 177 224 272 341 409
#     4  10  22  36  62  95 132 178 221 269 337 409
#
# _framework density 20.358809999999998
#
# number of rings (size 3 to 8) (size 9 to 14) (size 15 to 20)
#    0.000    1.111    3.333    3.000    3.111    1.778 
#    0.000    5.556    0.000    0.000    0.000    0.000 
#    0.000    0.000    0.000    0.000    0.000    0.000 
#
# Total GULP energy -200857.304598 kJ/mol
# GULP energy per Si atom -5579.369572 kJ/mol
# Density = 2.031247 g / cm^3
# Si number density = 20.358810 Si / 1000 Ang^3
#
#
#
# Elastic Constant Matrix: (Units=GPa)
#
#
# Indices 1 2 3 4 5 6 
#
# 1 163.0881 68.4876 42.4569 0.0000 0.0000 0.0000
# 2 68.4876 129.6468 26.0887 0.0000 0.0000 0.0000
# 3 42.4569 26.0887 99.9624 0.0000 0.0000 0.0000
# 4 0.0000 0.0000 0.0000 35.8771 0.0000 0.0000
# 5 0.0000 0.0000 0.0000 0.0000 349.4062 0.0000
# 6 0.0000 0.0000 0.0000 0.0000 0.0000 21.0366
#
#
#
# Elastic Compliance Matrix: (Units=1/GPa)
#
#
# Indices 1 2 3 4 5 6 
#
# 1 0.008458 -0.003953 -0.002561 0.000000 0.000000 0.000000
# 2 -0.003953 0.009988 -0.000928 0.000000 0.000000 0.000000
# 3 -0.002561 -0.000928 0.011334 0.000000 0.000000 0.000000
# 4 0.000000 0.000000 0.000000 0.027873 0.000000 0.000000
# 5 0.000000 0.000000 0.000000 0.000000 0.002862 0.000000
# 6 0.000000 0.000000 0.000000 0.000000 0.000000 0.047536
#
#
# Mechanical properties :
#
#
# Convention : Reuss Voigt Hill
#
# Bulk Modulus (GPa) = 67.12823 74.08484 70.60653
# Shear Modulus (GPa) = 39.09304 98.30825 68.70064
#
# Velocity S-wave (km/s) = 4.38677 6.95648 5.81534
# Velocity P-wave (km/s) = 7.66175 10.04948 8.93573
#
# Compressibility (1/GPa) = 0.01489686
#
# Stress axis : x y z
#
# Youngs Moduli (GPa) = 118.22692 100.11875 88.23343
#
# Poissons Ratio (x) = 0.39576 0.22595
# Poissons Ratio (y) = 0.46734 0.08187
# Poissons Ratio (z) = 0.30276 0.09289
#
# Static dielectric constant tensor:
#      x y z
#    x 1.767040 0.000000 0.000000 
#    y 0.000000 1.650540 0.000000 
#    z 0.000000 0.000000 1.701310 
# 
# From -- ./inp_files/10018.got.cif
#   From: 2010.05.17/outbox.cif.g08.bks.cpg/sg64_6_cif.got.tgz:10018.got - 2010.06.03 16:29:19.
