data_PCOD9480920
_publ_section_title
;
Structure prediction by ZEFSAII (Michael W. Deem and Ramdas Pophale) SiO2 
 PCOD9480920
Probable space group: C M C A
;
_chemical_formula_sum "Si O2"
_cell_formula_units_Z 92
_cell_length_a 25.631592
_cell_length_b 9.820319
_cell_length_c 20.726139
_cell_angle_alpha 90.000000
_cell_angle_beta 90.000000
_cell_angle_gamma 90.000000
_cell_volume 5216.984944
_symmetry_space_group_name_H-M "C M C A"
_symmetry_group_IT_number 64
_symmetry_cell_setting 'orthorhombic'
loop_
_space_group_symop_operation_xyz
x,y,z
-x,1/2-y,1/2+z
x,-y,-z
-x,1/2+y,1/2-z
-x,-y,-z
x,1/2+y,1/2-z
-x,y,z
x,1/2-y,1/2+z
1/2+x,1/2+y,z
1/2-x,-y,1/2+z
1/2+x,1/2-y,-z
1/2-x,y,1/2-z
1/2-x,1/2-y,-z
1/2+x,y,1/2-z
1/2-x,1/2+y,z
1/2+x,-y,1/2+z
loop_
_atom_site_type_symbol
_atom_site_label
_atom_site_fract_x
_atom_site_fract_y
_atom_site_fract_z
Si Si1 0.877917 0.454467 0.254101
Si Si2 0.306812 0.034646 0.133219
Si Si3 0.000000 0.000000 0.000000
Si Si4 0.937660 0.288601 0.689200
Si Si5 0.366403 0.000000 0.000000
Si Si6 0.442519 0.731925 0.540695
Si Si7 0.222201 0.823223 0.182162
O O1 0.849305 0.510378 0.189893
O O2 0.908675 0.575160 0.288677
O O3 0.916740 0.334902 0.232481
O O4 0.832404 0.392987 0.298857
O O5 0.332075 0.008513 0.064227
O O6 0.286742 0.188244 0.141157
O O7 0.260002 0.930505 0.147937
O O8 0.044767 0.879236 0.989930
O O9 0.925417 0.256131 0.614542
O O10 0.000000 0.304732 0.694478
O O11 0.402714 0.865976 0.004842
O O12 0.500000 0.662793 0.543702
O O13 0.250000 0.783012 0.250000
#
# Coordination Sequence:
#
# PCOD9480920 Si02
#       7
#    16  16   4  16   8  16  16
#     4  11  21  40  64  94 125 164 200 262 330 373
#     4  11  24  39  62  93 118 165 213 260 313 379
#     4   8  20  42  60  86 124 182 210 242 302 378
#     4  11  22  39  62  97 130 158 206 267 314 378
#     4  12  23  40  64  93 130 164 220 260 316 372
#     4   9  21  41  62  87 128 174 213 249 303 385
#     4  10  22  41  65  88 121 162 211 260 321 383
#
# _framework density 17.634708
#
# number of rings (size 3 to 8) (size 9 to 14) (size 15 to 20)
#    0.522    1.043    3.478    2.348    2.435    2.087 
#    0.000    0.000    0.000    0.000    0.000    0.000 
#    0.000    0.000    0.000    0.000    0.000    0.000 
#
# Total GULP energy -256169.027947 kJ/mol
# GULP energy per Si atom -5568.891912 kJ/mol
# Density = 1.759457 g / cm^3
# Si number density = 17.634708 Si / 1000 Ang^3
#
#
#
# Elastic Constant Matrix: (Units=GPa)
#
#
# Indices 1 2 3 4 5 6 
#
# 1 73.3389 48.9627 39.5500 0.0000 0.0000 0.0000
# 2 48.9627 113.8571 45.5248 0.0000 0.0000 0.0000
# 3 39.5500 45.5248 73.3946 0.0000 0.0000 0.0000
# 4 0.0000 0.0000 0.0000 -19.9225 0.0000 0.0000
# 5 0.0000 0.0000 0.0000 0.0000 16.6588 0.0000
# 6 0.0000 0.0000 0.0000 0.0000 0.0000 31.2674
#
#
#
# Elastic Compliance Matrix: (Units=1/GPa)
#
#
# Indices 1 2 3 4 5 6 
#
# 1 0.022195 -0.006333 -0.008032 0.000000 0.000000 0.000000
# 2 -0.006333 0.013487 -0.004953 0.000000 0.000000 0.000000
# 3 -0.008032 -0.004953 0.021025 0.000000 0.000000 0.000000
# 4 0.000000 0.000000 0.000000 -0.050194 0.000000 0.000000
# 5 0.000000 0.000000 0.000000 0.000000 0.060028 0.000000
# 6 0.000000 0.000000 0.000000 0.000000 0.000000 0.031982
#
#
# Mechanical properties :
#
#
# Convention : Reuss Voigt Hill
#
# Bulk Modulus (GPa) = 55.33631 58.74062 57.03846
# Shear Modulus (GPa) = 34.92063 14.03762 24.47912
#
# Velocity S-wave (km/s) = 4.45480 2.82445 3.72979
# Velocity P-wave (km/s) = 7.60970 6.63466 7.13885
#
# Compressibility (1/GPa) = 0.01807132
#
# Stress axis : x y z
#
# Youngs Moduli (GPa) = 45.05547 74.14694 47.56214
#
# Poissons Ratio (x) = 0.46958 0.38201
# Poissons Ratio (y) = 0.28534 0.23556
# Poissons Ratio (z) = 0.36188 0.36723
#
# Static dielectric constant tensor:
#      x y z
#    x 1.597760 0.000000 0.000000 
#    y 0.000000 1.581880 0.000000 
#    z 0.000000 0.000000 1.346670 
# 
# From -- ./inp_files/41833.got.cif
#   From: 2010.05.17/outbox.cif.g08.bks.cpg/sg64_21_cif.got.tgz:41833.got - 2010.06.03 16:29:19.
