data_PCOD9480793
_publ_section_title
;
Structure prediction by ZEFSAII (Michael W. Deem and Ramdas Pophale) SiO2 
 PCOD9480793
Probable space group: C M C A
;
_chemical_formula_sum "Si O2"
_cell_formula_units_Z 80
_cell_length_a 26.154752
_cell_length_b 7.502177
_cell_length_c 18.269286
_cell_angle_alpha 90.000000
_cell_angle_beta 90.000000
_cell_angle_gamma 90.000000
_cell_volume 3584.755067
_symmetry_space_group_name_H-M "C M C A"
_symmetry_group_IT_number 64
_symmetry_cell_setting 'orthorhombic'
loop_
_space_group_symop_operation_xyz
x,y,z
-x,1/2-y,1/2+z
x,-y,-z
-x,1/2+y,1/2-z
-x,-y,-z
x,1/2+y,1/2-z
-x,y,z
x,1/2-y,1/2+z
1/2+x,1/2+y,z
1/2-x,-y,1/2+z
1/2+x,1/2-y,-z
1/2-x,y,1/2-z
1/2-x,1/2-y,-z
1/2+x,y,1/2-z
1/2-x,1/2+y,z
1/2+x,-y,1/2+z
loop_
_atom_site_type_symbol
_atom_site_label
_atom_site_fract_x
_atom_site_fract_y
_atom_site_fract_z
Si Si1 0.915399 0.485279 0.578785
Si Si2 0.442097 0.302062 0.308345
Si Si3 0.801840 0.084787 0.077603
Si Si4 0.387403 0.337825 0.664357
Si Si5 0.276682 0.234622 0.671262
O O1 0.940627 0.500000 0.500000
O O2 0.943608 0.366821 0.638063
O O3 0.861576 0.378760 0.567537
O O4 0.902388 0.684397 0.606561
O O5 0.500000 0.343665 0.283566
O O6 0.417275 0.477190 0.344750
O O7 0.406062 0.244341 0.241420
O O8 0.763728 0.233558 0.106162
O O9 0.799783 0.954815 0.148469
O O10 0.785562 0.000000 0.000000
O O11 0.325946 0.363519 0.666728
O O12 0.250000 0.235519 0.750000
#
# Coordination Sequence:
#
# PCOD9480793 Si02
#       5
#    16  16  16  16  16
#     4  10  24  46  68  99 139 172 214 272 329 392
#     4  12  25  44  72  95 126 173 222 279 335 390
#     4  10  22  40  61  92 133 174 207 251 322 391
#     4  11  25  42  66 102 130 171 222 271 327 391
#     4  11  23  36  62  94 127 167 212 265 311 380
#
# _framework density 22.316728999999999
#
# number of rings (size 3 to 8) (size 9 to 14) (size 15 to 20)
#    0.000    1.200    2.000    3.000    8.400    2.000 
#    0.000    1.000    0.000    0.000    0.000    0.000 
#    0.000    0.000    0.000    0.000    0.000    0.000 
#
# Total GULP energy -223418.448582 kJ/mol
# GULP energy per Si atom -5585.461215 kJ/mol
# Density = 2.226593 g / cm^3
# Si number density = 22.316729 Si / 1000 Ang^3
#
#
#
# Elastic Constant Matrix: (Units=GPa)
#
#
# Indices 1 2 3 4 5 6 
#
# 1 97.9124 9.3795 16.6208 0.0000 0.0000 0.0000
# 2 9.3795 55.1967 11.8118 0.0000 0.0000 0.0000
# 3 16.6208 11.8118 125.9581 0.0000 0.0000 0.0000
# 4 0.0000 0.0000 0.0000 28.7782 0.0000 0.0000
# 5 0.0000 0.0000 0.0000 0.0000 -11.4411 0.0000
# 6 0.0000 0.0000 0.0000 0.0000 0.0000 21.3804
#
#
#
# Elastic Compliance Matrix: (Units=1/GPa)
#
#
# Indices 1 2 3 4 5 6 
#
# 1 0.010572 -0.001529 -0.001252 0.000000 0.000000 0.000000
# 2 -0.001529 0.018709 -0.001553 0.000000 0.000000 0.000000
# 3 -0.001252 -0.001553 0.008250 0.000000 0.000000 0.000000
# 4 0.000000 0.000000 0.000000 0.034749 0.000000 0.000000
# 5 0.000000 0.000000 0.000000 0.000000 -0.087404 0.000000
# 6 0.000000 0.000000 0.000000 0.000000 0.000000 0.046772
#
#
# Mechanical properties :
#
#
# Convention : Reuss Voigt Hill
#
# Bulk Modulus (GPa) = 34.64409 39.41016 37.02712
# Shear Modulus (GPa) = 100.12960 23.82716 61.97838
#
# Velocity S-wave (km/s) = 6.70559 3.27108 5.27565
# Velocity P-wave (km/s) = 8.68969 5.65371 7.33059
#
# Compressibility (1/GPa) = 0.02886495
#
# Stress axis : x y z
#
# Youngs Moduli (GPa) = 94.58840 53.45003 121.21322
#
# Poissons Ratio (x) = 0.08171 0.15172
# Poissons Ratio (y) = 0.14459 0.18821
# Poissons Ratio (z) = 0.11840 0.08299
#
# Static dielectric constant tensor:
#      x y z
#    x 1.916300 0.000000 0.000000 
#    y 0.000000 1.878720 0.000000 
#    z 0.000000 0.000000 1.793100 
# 
# From -- ./inp_files/35334.got.cif
#   From: 2010.05.17/outbox.cif.g08.bks.cpg/sg64_18_cif.got.tgz:35334.got - 2010.06.03 16:29:19.
