data_PCOD9480995
_publ_section_title
;
Structure prediction by ZEFSAII (Michael W. Deem and Ramdas Pophale) SiO2 
 PCOD9480995
Probable space group: C M C A
;
_chemical_formula_sum "Si O2"
_cell_formula_units_Z 64
_cell_length_a 14.138604
_cell_length_b 17.919165
_cell_length_c 10.255578
_cell_angle_alpha 90.000000
_cell_angle_beta 90.000000
_cell_angle_gamma 90.000000
_cell_volume 2598.270971
_symmetry_space_group_name_H-M "C M C A"
_symmetry_group_IT_number 64
_symmetry_cell_setting 'orthorhombic'
loop_
_space_group_symop_operation_xyz
x,y,z
-x,1/2-y,1/2+z
x,-y,-z
-x,1/2+y,1/2-z
-x,-y,-z
x,1/2+y,1/2-z
-x,y,z
x,1/2-y,1/2+z
1/2+x,1/2+y,z
1/2-x,-y,1/2+z
1/2+x,1/2-y,-z
1/2-x,y,1/2-z
1/2-x,1/2-y,-z
1/2+x,y,1/2-z
1/2-x,1/2+y,z
1/2+x,-y,1/2+z
loop_
_atom_site_type_symbol
_atom_site_label
_atom_site_fract_x
_atom_site_fract_y
_atom_site_fract_z
Si Si1 0.884754 0.164692 0.322525
Si Si2 0.387352 0.272536 0.954722
Si Si3 0.146854 0.495786 0.139594
Si Si4 0.322340 0.893392 0.344072
O O1 0.857088 0.209618 0.192272
O O2 0.850104 0.203336 0.457421
O O3 0.851320 0.079885 0.310874
O O4 0.000000 0.163664 0.326073
O O5 0.500000 0.261117 0.946412
O O6 0.367212 0.344694 0.044786
O O7 0.249722 0.458365 0.112816
O O8 0.108016 0.437584 0.246424
O O9 0.098722 0.500000 0.000000
O O10 0.250000 0.847947 0.250000
#
# Coordination Sequence:
#
# PCOD9480995 Si02
#       4
#    16  16  16  16
#     4  10  23  41  65  95 127 165 209 257 311 370
#     4  10  22  42  66  92 125 166 209 257 309 371
#     4   9  21  38  61  89 128 167 204 261 309 371
#     4   8  22  38  59  90 124 162 207 253 315 362
#
# _framework density 24.631764
#
# number of rings (size 3 to 8) (size 9 to 14) (size 15 to 20)
#    1.500    1.000    0.000    0.000   10.500    1.500 
#    4.500    5.000    0.000    0.000    0.000    0.000 
#    0.000    0.000    0.000    0.000    0.000    0.000 
#
# Total GULP energy -178447.760544 kJ/mol
# GULP energy per Si atom -5576.492517 kJ/mol
# Density = 2.457570 g / cm^3
# Si number density = 24.631764 Si / 1000 Ang^3
#
#
#
# Elastic Constant Matrix: (Units=GPa)
#
#
# Indices 1 2 3 4 5 6 
#
# 1 50.3469 12.8508 17.7959 0.0000 0.0000 0.0000
# 2 12.8508 124.2388 25.0261 0.0000 0.0000 0.0000
# 3 17.7959 25.0261 93.1029 0.0000 0.0000 0.0000
# 4 0.0000 0.0000 0.0000 39.4109 0.0000 0.0000
# 5 0.0000 0.0000 0.0000 0.0000 11.9890 0.0000
# 6 0.0000 0.0000 0.0000 0.0000 0.0000 56.8112
#
#
#
# Elastic Compliance Matrix: (Units=1/GPa)
#
#
# Indices 1 2 3 4 5 6 
#
# 1 0.021556 -0.001480 -0.003722 0.000000 0.000000 0.000000
# 2 -0.001480 0.008611 -0.002032 0.000000 0.000000 0.000000
# 3 -0.003722 -0.002032 0.011998 0.000000 0.000000 0.000000
# 4 0.000000 0.000000 0.000000 0.025374 0.000000 0.000000
# 5 0.000000 0.000000 0.000000 0.000000 0.083410 0.000000
# 6 0.000000 0.000000 0.000000 0.000000 0.000000 0.017602
#
#
# Mechanical properties :
#
#
# Convention : Reuss Voigt Hill
#
# Bulk Modulus (GPa) = 36.10460 42.11490 39.10975
# Shear Modulus (GPa) = 26.00754 35.77661 30.89207
#
# Velocity S-wave (km/s) = 3.25292 3.81525 3.54525
# Velocity P-wave (km/s) = 5.36639 6.04509 5.71582
#
# Compressibility (1/GPa) = 0.02769730
#
# Stress axis : x y z
#
# Youngs Moduli (GPa) = 46.39150 116.12541 83.34384
#
# Poissons Ratio (x) = 0.17184 0.31024
# Poissons Ratio (y) = 0.06865 0.16935
# Poissons Ratio (z) = 0.17269 0.23595
#
# Static dielectric constant tensor:
#      x y z
#    x 2.044740 0.000000 0.000000 
#    y 0.000000 1.920520 0.000000 
#    z 0.000000 0.000000 2.056780 
# 
# From -- ./inp_files/7780.got.cif
#   From: 2010.05.17/outbox.cif.g08.bks.cpg/sg64_4_cif.got.tgz:7780.got - 2010.06.03 16:29:19.
