data_PCOD9480619
_publ_section_title
;
Structure prediction by ZEFSAII (Michael W. Deem and Ramdas Pophale) SiO2 
 PCOD9480619
Probable space group: C M C A
;
_chemical_formula_sum "Si O2"
_cell_formula_units_Z 96
_cell_length_a 16.367030
_cell_length_b 16.913026
_cell_length_c 19.018941
_cell_angle_alpha 90.000000
_cell_angle_beta 90.000000
_cell_angle_gamma 90.000000
_cell_volume 5264.747247
_symmetry_space_group_name_H-M "C M C A"
_symmetry_group_IT_number 64
_symmetry_cell_setting 'orthorhombic'
loop_
_space_group_symop_operation_xyz
x,y,z
-x,1/2-y,1/2+z
x,-y,-z
-x,1/2+y,1/2-z
-x,-y,-z
x,1/2+y,1/2-z
-x,y,z
x,1/2-y,1/2+z
1/2+x,1/2+y,z
1/2-x,-y,1/2+z
1/2+x,1/2-y,-z
1/2-x,y,1/2-z
1/2-x,1/2-y,-z
1/2+x,y,1/2-z
1/2-x,1/2+y,z
1/2+x,-y,1/2+z
loop_
_atom_site_type_symbol
_atom_site_label
_atom_site_fract_x
_atom_site_fract_y
_atom_site_fract_z
Si Si1 0.662798 0.767371 0.582853
Si Si2 0.402283 0.775867 0.308694
Si Si3 0.091508 0.362996 0.165641
Si Si4 0.681662 0.848447 0.441426
Si Si5 0.724634 0.632914 0.324416
Si Si6 0.301816 0.985208 0.077904
O O1 0.593119 0.710498 0.611439
O O2 0.644806 0.822365 0.516222
O O3 0.737659 0.707406 0.565172
O O4 0.698103 0.818932 0.646222
O O5 0.500000 0.761506 0.305398
O O6 0.377973 0.826856 0.239671
O O7 0.377508 0.825506 0.377786
O O8 0.349382 0.695231 0.313647
O O9 0.145479 0.430315 0.129820
O O10 0.000000 0.392368 0.176715
O O11 0.717509 0.936691 0.435378
O O12 0.750000 0.596322 0.250000
O O13 0.706631 0.568259 0.383260
O O14 0.337987 0.000000 0.000000
#
# Coordination Sequence:
#
# PCOD9480619 Si02
#       6
#    16  16  16  16  16  16
#     4   9  17  35  56  81 106 148 192 239 276 338
#     4  10  22  39  59  84 114 152 197 242 287 344
#     4  10  22  38  56  83 120 154 193 241 292 347
#     4   9  19  34  57  80 114 146 191 234 282 342
#     4  11  21  36  61  85 111 149 196 242 292 344
#     4  11  23  37  58  89 120 151 189 244 297 345
#
# _framework density 18.234494000000002
#
# number of rings (size 3 to 8) (size 9 to 14) (size 15 to 20)
#    0.000    2.000    3.333    0.000    4.667    1.667 
#    0.000    0.000    0.000    1.500    0.000    0.000 
#    0.000    0.000    0.000    0.000    0.000    0.000 
#
# Total GULP energy -267451.513322 kJ/mol
# GULP energy per Si atom -5571.906528 kJ/mol
# Density = 1.819299 g / cm^3
# Si number density = 18.234494 Si / 1000 Ang^3
#
#
#
# Elastic Constant Matrix: (Units=GPa)
#
#
# Indices 1 2 3 4 5 6 
#
# 1 28.3295 12.0324 15.2250 0.0000 0.0000 0.0000
# 2 12.0324 66.8631 19.0478 0.0000 0.0000 0.0000
# 3 15.2250 19.0478 102.8486 0.0000 0.0000 0.0000
# 4 0.0000 0.0000 0.0000 39.5129 0.0000 0.0000
# 5 0.0000 0.0000 0.0000 0.0000 16.3621 0.0000
# 6 0.0000 0.0000 0.0000 0.0000 0.0000 10.2818
#
#
#
# Elastic Compliance Matrix: (Units=1/GPa)
#
#
# Indices 1 2 3 4 5 6 
#
# 1 0.040428 -0.005881 -0.004896 0.000000 0.000000 0.000000
# 2 -0.005881 0.016644 -0.002212 0.000000 0.000000 0.000000
# 3 -0.004896 -0.002212 0.010857 0.000000 0.000000 0.000000
# 4 0.000000 0.000000 0.000000 0.025308 0.000000 0.000000
# 5 0.000000 0.000000 0.000000 0.000000 0.061117 0.000000
# 6 0.000000 0.000000 0.000000 0.000000 0.000000 0.097259
#
#
# Mechanical properties :
#
#
# Convention : Reuss Voigt Hill
#
# Bulk Modulus (GPa) = 23.83617 32.29461 28.06539
# Shear Modulus (GPa) = 17.14829 23.34709 20.24769
#
# Velocity S-wave (km/s) = 3.06997 3.58212 3.33589
# Velocity P-wave (km/s) = 5.06623 5.90406 5.50112
#
# Compressibility (1/GPa) = 0.04195305
#
# Stress axis : x y z
#
# Youngs Moduli (GPa) = 24.73560 60.08045 92.10299
#
# Poissons Ratio (x) = 0.35331 0.45089
# Poissons Ratio (y) = 0.14546 0.20374
# Poissons Ratio (z) = 0.12109 0.13290
#
# Static dielectric constant tensor:
#      x y z
#    x 1.609550 0.000000 0.000000 
#    y 0.000000 1.624740 0.000000 
#    z 0.000000 0.000000 1.653500 
# 
# From -- ./inp_files/33289.got.cif
#   From: 2010.05.17/outbox.cif.g08.bks.cpg/sg64_17_cif.got.tgz:33289.got - 2010.06.03 16:29:19.
