data_PCOD9480382
_publ_section_title
;
Structure prediction by ZEFSAII (Michael W. Deem and Ramdas Pophale) SiO2 
 PCOD9480382
Probable space group: C M C A
;
_chemical_formula_sum "Si O2"
_cell_formula_units_Z 40
_cell_length_a 14.246044
_cell_length_b 23.525360
_cell_length_c 4.839172
_cell_angle_alpha 90.000000
_cell_angle_beta 90.000000
_cell_angle_gamma 90.000000
_cell_volume 1621.816140
_symmetry_space_group_name_H-M "C M C A"
_symmetry_group_IT_number 64
_symmetry_cell_setting 'orthorhombic'
loop_
_space_group_symop_operation_xyz
x,y,z
-x,1/2-y,1/2+z
x,-y,-z
-x,1/2+y,1/2-z
-x,-y,-z
x,1/2+y,1/2-z
-x,y,z
x,1/2-y,1/2+z
1/2+x,1/2+y,z
1/2-x,-y,1/2+z
1/2+x,1/2-y,-z
1/2-x,y,1/2-z
1/2-x,1/2-y,-z
1/2+x,y,1/2-z
1/2-x,1/2+y,z
1/2+x,-y,1/2+z
loop_
_atom_site_type_symbol
_atom_site_label
_atom_site_fract_x
_atom_site_fract_y
_atom_site_fract_z
Si Si1 0.688025 0.346127 0.479998
Si Si2 0.500000 0.214986 0.180684
Si Si3 0.393485 0.539505 0.766550
O O1 0.750000 0.358433 0.750000
O O2 0.594092 0.316225 0.586083
O O3 0.655350 0.402770 0.320380
O O4 0.750000 0.312765 0.250000
O O5 0.500000 0.226291 0.506570
O O6 0.399802 0.500000 0.500000
O O7 0.500000 0.553683 0.863727
O O8 0.347100 0.500000 0.000000
#
# Coordination Sequence:
#
# PCOD9480382 Si02
#       3
#    16   8  16
#     4  12  26  45  73 108 144 189 242 296 364 437
#     4  12  28  50  74 102 143 186 245 314 370 422
#     4  10  21  40  68 101 141 185 230 282 346 424
#
# _framework density 24.663708
#
# number of rings (size 3 to 8) (size 9 to 14) (size 15 to 20)
#    0.000    0.800    2.000    4.800    0.000    8.000 
#    0.000    0.000    0.000    0.000    0.000    0.000 
#    0.000    0.000    0.000    0.000    0.000    0.000 
#
# Total GULP energy -112120.406157 kJ/mol
# GULP energy per Si atom -5606.020308 kJ/mol
# Density = 2.460757 g / cm^3
# Si number density = 24.663708 Si / 1000 Ang^3
#
#
#
# Elastic Constant Matrix: (Units=GPa)
#
#
# Indices 1 2 3 4 5 6 
#
# 1 151.3688 41.2007 24.2341 0.0000 0.0000 0.0000
# 2 41.2007 50.5288 14.6000 0.0000 0.0000 0.0000
# 3 24.2341 14.6000 136.3802 0.0000 0.0000 0.0000
# 4 0.0000 0.0000 0.0000 30.7737 0.0000 0.0000
# 5 0.0000 0.0000 0.0000 0.0000 53.9735 0.0000
# 6 0.0000 0.0000 0.0000 0.0000 0.0000 -9.0474
#
#
#
# Elastic Compliance Matrix: (Units=1/GPa)
#
#
# Indices 1 2 3 4 5 6 
#
# 1 0.008575 -0.006760 -0.000800 0.000000 0.000000 0.000000
# 2 -0.006760 0.025753 -0.001556 0.000000 0.000000 0.000000
# 3 -0.000800 -0.001556 0.007641 0.000000 0.000000 0.000000
# 4 0.000000 0.000000 0.000000 0.032495 0.000000 0.000000
# 5 0.000000 0.000000 0.000000 0.000000 0.018528 0.000000
# 6 0.000000 0.000000 0.000000 0.000000 0.000000 -0.110529
#
#
# Mechanical properties :
#
#
# Convention : Reuss Voigt Hill
#
# Bulk Modulus (GPa) = 42.12965 55.37193 48.75079
# Shear Modulus (GPa) = 580.98105 32.35617 306.66861
#
# Velocity S-wave (km/s) = 15.36465 3.62594 11.16288
# Velocity P-wave (km/s) = 18.21763 6.32688 13.63656
#
# Compressibility (1/GPa) = 0.02373625
#
# Stress axis : x y z
#
# Youngs Moduli (GPa) = 116.62399 38.83105 130.87091
#
# Poissons Ratio (x) = 0.26252 0.10469
# Poissons Ratio (y) = 0.78843 0.20358
# Poissons Ratio (z) = 0.09329 0.06041
#
# Static dielectric constant tensor:
#      x y z
#    x 2.055680 0.000000 0.000000 
#    y 0.000000 1.960070 0.000000 
#    z 0.000000 0.000000 1.884650 
# 
# From -- ./inp_files/587.got.cif
#   From: 2010.05.17/outbox.cif.g08.bks.cpg/sg64_1_cif.got.tgz:587.got - 2010.06.03 16:29:19.
