data_PCOD9480895
_publ_section_title
;
Structure prediction by ZEFSAII (Michael W. Deem and Ramdas Pophale) SiO2 
 PCOD9480895
Probable space group: C M C A
;
_chemical_formula_sum "Si O2"
_cell_formula_units_Z 80
_cell_length_a 29.259565
_cell_length_b 8.120263
_cell_length_c 13.896946
_cell_angle_alpha 90.000000
_cell_angle_beta 90.000000
_cell_angle_gamma 90.000000
_cell_volume 3301.849930
_symmetry_space_group_name_H-M "C M C A"
_symmetry_group_IT_number 64
_symmetry_cell_setting 'orthorhombic'
loop_
_space_group_symop_operation_xyz
x,y,z
-x,1/2-y,1/2+z
x,-y,-z
-x,1/2+y,1/2-z
-x,-y,-z
x,1/2+y,1/2-z
-x,y,z
x,1/2-y,1/2+z
1/2+x,1/2+y,z
1/2-x,-y,1/2+z
1/2+x,1/2-y,-z
1/2-x,y,1/2-z
1/2-x,1/2-y,-z
1/2+x,y,1/2-z
1/2-x,1/2+y,z
1/2+x,-y,1/2+z
loop_
_atom_site_type_symbol
_atom_site_label
_atom_site_fract_x
_atom_site_fract_y
_atom_site_fract_z
Si Si1 0.950868 0.716592 0.601987
Si Si2 0.802486 0.495074 0.222620
Si Si3 0.049242 0.165179 0.128946
Si Si4 0.150199 0.688995 0.369866
Si Si5 0.143970 0.663828 0.065928
O O1 0.948983 0.532068 0.643747
O O2 0.951330 0.693608 0.486133
O O3 0.904334 0.812859 0.619653
O O4 0.000000 0.794887 0.626490
O O5 0.750000 0.503085 0.250000
O O6 0.815658 0.325563 0.171342
O O7 0.833850 0.524568 0.316584
O O8 0.848159 0.195667 0.014313
O O9 0.098126 0.233660 0.159812
O O10 0.000000 0.228201 0.164792
O O11 0.183130 0.632015 0.143399
O O12 0.139953 0.500000 0.000000
#
# Coordination Sequence:
#
# PCOD9480895 Si02
#       5
#    16  16  16  16  16
#     4   8  14  28  56  91 123 161 206 244 298 371
#     4  11  24  42  62  86 120 161 210 268 323 371
#     4   8  15  31  57  89 124 160 198 248 303 366
#     4  10  22  41  63  90 124 164 205 263 312 381
#     4   9  20  38  60  89 129 168 209 259 315 374
#
# _framework density 24.228840999999999
#
# number of rings (size 3 to 8) (size 9 to 14) (size 15 to 20)
#    0.000    2.800    0.000    1.800    2.800    1.200 
#    0.000    7.000    0.000    0.000    0.000    0.000 
#    0.000    0.000    0.000    0.000    0.000    0.000 
#
# Total GULP energy -223495.705933 kJ/mol
# GULP energy per Si atom -5587.392648 kJ/mol
# Density = 2.417370 g / cm^3
# Si number density = 24.228841 Si / 1000 Ang^3
#
#
#
# Elastic Constant Matrix: (Units=GPa)
#
#
# Indices 1 2 3 4 5 6 
#
# 1 243.1074 23.9760 48.6533 0.0000 0.0000 0.0000
# 2 23.9760 36.2553 13.2940 0.0000 0.0000 0.0000
# 3 48.6533 13.2940 116.0495 0.0000 0.0000 0.0000
# 4 0.0000 0.0000 0.0000 24.0325 0.0000 0.0000
# 5 0.0000 0.0000 0.0000 0.0000 80.8487 0.0000
# 6 0.0000 0.0000 0.0000 0.0000 0.0000 33.8215
#
#
#
# Elastic Compliance Matrix: (Units=1/GPa)
#
#
# Indices 1 2 3 4 5 6 
#
# 1 0.004696 -0.002488 -0.001684 0.000000 0.000000 0.000000
# 2 -0.002488 0.030110 -0.002406 0.000000 0.000000 0.000000
# 3 -0.001684 -0.002406 0.009599 0.000000 0.000000 0.000000
# 4 0.000000 0.000000 0.000000 0.041610 0.000000 0.000000
# 5 0.000000 0.000000 0.000000 0.000000 0.012369 0.000000
# 6 0.000000 0.000000 0.000000 0.000000 0.000000 0.029567
#
#
# Mechanical properties :
#
#
# Convention : Reuss Voigt Hill
#
# Bulk Modulus (GPa) = 32.00154 63.02875 47.51514
# Shear Modulus (GPa) = 32.99852 48.37312 40.68582
#
# Velocity S-wave (km/s) = 3.69447 4.47308 4.10229
# Velocity P-wave (km/s) = 5.60674 7.26280 6.48783
#
# Compressibility (1/GPa) = 0.03124850
#
# Stress axis : x y z
#
# Youngs Moduli (GPa) = 212.95933 33.21176 104.18279
#
# Poissons Ratio (x) = 0.08263 0.17541
# Poissons Ratio (y) = 0.52984 0.25068
# Poissons Ratio (z) = 0.35855 0.07991
#
# Static dielectric constant tensor:
#      x y z
#    x 1.900980 0.000000 0.000000 
#    y 0.000000 1.988330 0.000000 
#    z 0.000000 0.000000 1.990510 
# 
# From -- ./inp_files/27088.got.cif
#   From: 2010.05.17/outbox.cif.g08.bks.cpg/sg64_14_cif.got.tgz:27088.got - 2010.06.03 16:29:19.
