data_PCOD9480860
_publ_section_title
;
Structure prediction by ZEFSAII (Michael W. Deem and Ramdas Pophale) SiO2 
 PCOD9480860
Probable space group: C M C A
;
_chemical_formula_sum "Si O2"
_cell_formula_units_Z 72
_cell_length_a 12.886756
_cell_length_b 6.948209
_cell_length_c 28.800517
_cell_angle_alpha 90.000000
_cell_angle_beta 90.000000
_cell_angle_gamma 90.000000
_cell_volume 2578.794664
_symmetry_space_group_name_H-M "C M C A"
_symmetry_group_IT_number 64
_symmetry_cell_setting 'orthorhombic'
loop_
_space_group_symop_operation_xyz
x,y,z
-x,1/2-y,1/2+z
x,-y,-z
-x,1/2+y,1/2-z
-x,-y,-z
x,1/2+y,1/2-z
-x,y,z
x,1/2-y,1/2+z
1/2+x,1/2+y,z
1/2-x,-y,1/2+z
1/2+x,1/2-y,-z
1/2-x,y,1/2-z
1/2-x,1/2-y,-z
1/2+x,y,1/2-z
1/2-x,1/2+y,z
1/2+x,-y,1/2+z
loop_
_atom_site_type_symbol
_atom_site_label
_atom_site_fract_x
_atom_site_fract_y
_atom_site_fract_z
Si Si1 0.500000 0.796098 0.232284
Si Si2 0.890028 0.330072 0.329428
Si Si3 0.341308 0.141529 0.438337
Si Si4 0.111055 0.215876 0.459144
Si Si5 0.655511 0.904674 0.150750
O O1 0.411728 0.789961 0.274647
O O2 0.591091 0.817198 0.193299
O O3 0.884077 0.122699 0.353803
O O4 0.000000 0.429054 0.342308
O O5 0.778496 0.422262 0.337805
O O6 0.217530 0.114445 0.445592
O O7 0.380684 0.237343 0.485859
O O8 0.360386 0.272411 0.394012
O O9 0.384793 0.926587 0.435496
O O10 0.000000 0.123669 0.450063
#
# Coordination Sequence:
#
# PCOD9480860 Si02
#       5
#     8  16  16  16  16
#     4  10  24  42  66  91 124 175 214 272 342 380
#     4  10  26  44  64  96 129 169 216 275 336 388
#     4  10  22  40  67 100 130 175 223 265 325 395
#     4  10  22  42  64  96 142 174 211 271 332 389
#     4  12  23  46  71  97 133 173 229 276 323 412
#
# _framework density 27.920019
#
# number of rings (size 3 to 8) (size 9 to 14) (size 15 to 20)
#    0.667    0.889    1.111    3.333    3.111    6.222 
#    2.000   10.000    0.000    0.000    0.000    0.000 
#    0.000    0.000    0.000    0.000    0.000    0.000 
#
# Total GULP energy -201122.391529 kJ/mol
# GULP energy per Si atom -5586.733098 kJ/mol
# Density = 2.785647 g / cm^3
# Si number density = 27.920019 Si / 1000 Ang^3
#
#
#
# Elastic Constant Matrix: (Units=GPa)
#
#
# Indices 1 2 3 4 5 6 
#
# 1 266.6671 44.6499 47.6209 0.0000 0.0000 0.0000
# 2 44.6499 91.0296 24.2403 0.0000 0.0000 0.0000
# 3 47.6209 24.2403 159.0126 0.0000 0.0000 0.0000
# 4 0.0000 0.0000 0.0000 -935.4059 0.0000 0.0000
# 5 0.0000 0.0000 0.0000 0.0000 49.6954 0.0000
# 6 0.0000 0.0000 0.0000 0.0000 0.0000 18.5658
#
#
#
# Elastic Compliance Matrix: (Units=1/GPa)
#
#
# Indices 1 2 3 4 5 6 
#
# 1 0.004230 -0.001811 -0.000991 0.000000 0.000000 0.000000
# 2 -0.001811 0.012226 -0.001321 0.000000 0.000000 0.000000
# 3 -0.000991 -0.001321 0.006787 0.000000 0.000000 0.000000
# 4 0.000000 0.000000 0.000000 -0.001069 0.000000 0.000000
# 5 0.000000 0.000000 0.000000 0.000000 0.020123 0.000000
# 6 0.000000 0.000000 0.000000 0.000000 0.000000 0.053862
#
#
# Mechanical properties :
#
#
# Convention : Reuss Voigt Hill
#
# Bulk Modulus (GPa) = 66.68254 83.30350 74.99302
# Shear Modulus (GPa) = 45.70227 -146.74905 -50.52339
#
# Velocity S-wave (km/s) = 4.05025 -7.25773 -4.25853
# Velocity P-wave (km/s) = 6.76816 6.35071 1.65475
#
# Compressibility (1/GPa) = 0.01499643
#
# Stress axis : x y z
#
# Youngs Moduli (GPa) = 236.39766 81.79544 147.34162
#
# Poissons Ratio (x) = 0.14814 0.14598
# Poissons Ratio (y) = 0.42813 0.19469
# Poissons Ratio (z) = 0.23421 0.10808
#
# Static dielectric constant tensor:
#      x y z
#    x 2.065460 0.000000 0.000000 
#    y 0.000000 2.238950 0.000000 
#    z 0.000000 0.000000 2.172710 
# 
# From -- ./inp_files/52516.got.cif
#   From: 2010.05.17/outbox.cif.g08.bks.cpg/sg64_27_cif.got.tgz:52516.got - 2010.06.03 16:29:19.
