data_PCOD9480609
_publ_section_title
;
Structure prediction by ZEFSAII (Michael W. Deem and Ramdas Pophale) SiO2 
 PCOD9480609
Probable space group: C M C A
;
_chemical_formula_sum "Si O2"
_cell_formula_units_Z 88
_cell_length_a 20.680983
_cell_length_b 19.554077
_cell_length_c 11.463318
_cell_angle_alpha 90.000000
_cell_angle_beta 90.000000
_cell_angle_gamma 90.000000
_cell_volume 4635.737531
_symmetry_space_group_name_H-M "C M C A"
_symmetry_group_IT_number 64
_symmetry_cell_setting 'orthorhombic'
loop_
_space_group_symop_operation_xyz
x,y,z
-x,1/2-y,1/2+z
x,-y,-z
-x,1/2+y,1/2-z
-x,-y,-z
x,1/2+y,1/2-z
-x,y,z
x,1/2-y,1/2+z
1/2+x,1/2+y,z
1/2-x,-y,1/2+z
1/2+x,1/2-y,-z
1/2-x,y,1/2-z
1/2-x,1/2-y,-z
1/2+x,y,1/2-z
1/2-x,1/2+y,z
1/2+x,-y,1/2+z
loop_
_atom_site_type_symbol
_atom_site_label
_atom_site_fract_x
_atom_site_fract_y
_atom_site_fract_z
Si Si1 0.386040 0.112516 0.120358
Si Si2 0.373675 0.350426 0.870461
Si Si3 0.746537 0.047898 0.386875
Si Si4 0.500000 0.136000 0.739207
Si Si5 0.500000 0.489701 0.637480
Si Si6 0.000000 0.917858 0.980832
Si Si7 0.427583 0.212768 0.919329
O O1 0.380389 0.160996 0.231999
O O2 0.317076 0.079902 0.093490
O O3 0.436028 0.054118 0.160276
O O4 0.412095 0.153346 0.010009
O O5 0.309002 0.394176 0.887981
O O6 0.435116 0.394121 0.914838
O O7 0.378505 0.275263 0.925589
O O8 0.750000 0.020457 0.250000
O O9 0.733625 0.000000 0.500000
O O10 0.500000 0.121395 0.604078
O O11 0.439112 0.177979 0.792474
O O12 0.500000 0.061552 0.798734
O O13 0.500000 0.500000 0.500000
O O14 0.000000 0.000000 0.000000
O O15 0.500000 0.240014 0.947068
#
# Coordination Sequence:
#
# PCOD9480609 Si02
#       7
#    16  16  16   8   8   8  16
#     4  11  22  40  68  89 123 164 209 263 314 378
#     4  11  24  40  61  89 128 172 204 256 320 380
#     4  10  24  45  66  95 129 169 212 262 324 380
#     4  10  23  35  59 101 129 156 208 271 312 376
#     4  12  18  35  60  97 117 146 210 261 313 362
#     4  12  23  38  61  91 130 167 205 262 329 373
#     4  10  22  37  62  94 122 161 217 256 305 368
#
# _framework density 18.982955
#
# number of rings (size 3 to 8) (size 9 to 14) (size 15 to 20)
#    0.545    0.727    3.636    2.727    2.545    2.182 
#    0.000    0.000    0.000    0.000    0.000    0.000 
#    0.000    0.000    0.000    0.000    0.000    0.000 
#
# Total GULP energy -245288.920414 kJ/mol
# GULP energy per Si atom -5574.748191 kJ/mol
# Density = 1.893975 g / cm^3
# Si number density = 18.982955 Si / 1000 Ang^3
#
#
#
# Elastic Constant Matrix: (Units=GPa)
#
#
# Indices 1 2 3 4 5 6 
#
# 1 110.2402 35.2239 21.6318 0.0000 0.0000 0.0000
# 2 35.2239 95.0585 34.2390 0.0000 0.0000 0.0000
# 3 21.6318 34.2390 119.2800 0.0000 0.0000 0.0000
# 4 0.0000 0.0000 0.0000 22.4687 0.0000 0.0000
# 5 0.0000 0.0000 0.0000 0.0000 28.7476 0.0000
# 6 0.0000 0.0000 0.0000 0.0000 0.0000 8.8571
#
#
#
# Elastic Compliance Matrix: (Units=1/GPa)
#
#
# Indices 1 2 3 4 5 6 
#
# 1 0.010369 -0.003530 -0.000867 0.000000 0.000000 0.000000
# 2 -0.003530 0.012935 -0.003073 0.000000 0.000000 0.000000
# 3 -0.000867 -0.003073 0.009423 0.000000 0.000000 0.000000
# 4 0.000000 0.000000 0.000000 0.044506 0.000000 0.000000
# 5 0.000000 0.000000 0.000000 0.000000 0.034786 0.000000
# 6 0.000000 0.000000 0.000000 0.000000 0.000000 0.112904
#
#
# Mechanical properties :
#
#
# Convention : Reuss Voigt Hill
#
# Bulk Modulus (GPa) = 56.22081 56.30757 56.26419
# Shear Modulus (GPa) = 20.34245 27.58027 23.96136
#
# Velocity S-wave (km/s) = 3.27711 3.81582 3.55668
# Velocity P-wave (km/s) = 6.63325 7.01003 6.82424
#
# Compressibility (1/GPa) = 0.01778701
#
# Stress axis : x y z
#
# Youngs Moduli (GPa) = 96.43994 77.31205 106.12428
#
# Poissons Ratio (x) = 0.27291 0.09203
# Poissons Ratio (y) = 0.34043 0.32609
# Poissons Ratio (z) = 0.08364 0.23755
#
# Static dielectric constant tensor:
#      x y z
#    x 1.627190 0.000000 0.000000 
#    y 0.000000 1.680040 0.000000 
#    z 0.000000 0.000000 1.719400 
# 
# From -- ./inp_files/17211.got.cif
#   From: 2010.05.17/outbox.cif.g08.bks.cpg/sg64_9_cif.got.tgz:17211.got - 2010.06.03 16:29:19.
