data_PCOD9480730
_publ_section_title
;
Structure prediction by ZEFSAII (Michael W. Deem and Ramdas Pophale) SiO2 
 PCOD9480730
Probable space group: C M C A
;
_chemical_formula_sum "Si O2"
_cell_formula_units_Z 72
_cell_length_a 10.209280
_cell_length_b 14.901907
_cell_length_c 23.716015
_cell_angle_alpha 90.000000
_cell_angle_beta 90.000000
_cell_angle_gamma 90.000000
_cell_volume 3608.100950
_symmetry_space_group_name_H-M "C M C A"
_symmetry_group_IT_number 64
_symmetry_cell_setting 'orthorhombic'
loop_
_space_group_symop_operation_xyz
x,y,z
-x,1/2-y,1/2+z
x,-y,-z
-x,1/2+y,1/2-z
-x,-y,-z
x,1/2+y,1/2-z
-x,y,z
x,1/2-y,1/2+z
1/2+x,1/2+y,z
1/2-x,-y,1/2+z
1/2+x,1/2-y,-z
1/2-x,y,1/2-z
1/2-x,1/2-y,-z
1/2+x,y,1/2-z
1/2-x,1/2+y,z
1/2+x,-y,1/2+z
loop_
_atom_site_type_symbol
_atom_site_label
_atom_site_fract_x
_atom_site_fract_y
_atom_site_fract_z
Si Si1 0.500000 0.467400 0.345040
Si Si2 0.500000 0.665051 0.311780
Si Si3 0.346760 0.378025 0.963736
Si Si4 0.000000 0.773954 0.304014
Si Si5 0.236693 0.941931 0.083670
Si Si6 0.237583 0.747774 0.624443
O O1 0.500000 0.557870 0.309056
O O2 0.500000 0.382238 0.303242
O O3 0.624743 0.461839 0.386813
O O4 0.500000 0.719922 0.253806
O O5 0.626908 0.693944 0.346707
O O6 0.500000 0.363172 0.978050
O O7 0.338957 0.463761 0.921253
O O8 0.281396 0.293192 0.934017
O O9 0.266441 0.406484 0.019203
O O10 0.869142 0.750889 0.338488
O O11 0.186759 0.854185 0.117076
#
# Coordination Sequence:
#
# PCOD9480730 Si02
#       6
#     8   8  16   8  16  16
#     4  10  22  44  66  89 128 163 209 272 315 370
#     4  12  24  43  68  97 116 165 227 264 322 369
#     4  11  22  39  62  93 133 176 204 249 317 385
#     4  10  24  48  63  87 127 167 208 271 326 372
#     4  10  22  39  61  93 130 169 206 253 314 382
#     4  11  23  42  65  91 131 162 213 265 314 374
#
# _framework density 19.955096000000001
#
# number of rings (size 3 to 8) (size 9 to 14) (size 15 to 20)
#    0.000    1.333    3.333    2.667    3.111    2.667 
#    4.000    2.222    0.000    0.000    0.000    0.000 
#    0.000    0.000    0.000    0.000    0.000    0.000 
#
# Total GULP energy -200845.464119 kJ/mol
# GULP energy per Si atom -5579.040670 kJ/mol
# Density = 1.990968 g / cm^3
# Si number density = 19.955096 Si / 1000 Ang^3
#
#
#
# Elastic Constant Matrix: (Units=GPa)
#
#
# Indices 1 2 3 4 5 6 
#
# 1 61.2988 37.5132 27.3203 0.0000 0.0000 0.0000
# 2 37.5132 115.5533 35.4574 0.0000 0.0000 0.0000
# 3 27.3203 35.4574 77.4249 0.0000 0.0000 0.0000
# 4 0.0000 0.0000 0.0000 34.2375 0.0000 0.0000
# 5 0.0000 0.0000 0.0000 0.0000 3.0204 0.0000
# 6 0.0000 0.0000 0.0000 0.0000 0.0000 36.7938
#
#
#
# Elastic Compliance Matrix: (Units=1/GPa)
#
#
# Indices 1 2 3 4 5 6 
#
# 1 0.022044 -0.005549 -0.005237 0.000000 0.000000 0.000000
# 2 -0.005549 0.011466 -0.003293 0.000000 0.000000 0.000000
# 3 -0.005237 -0.003293 0.016272 0.000000 0.000000 0.000000
# 4 0.000000 0.000000 0.000000 0.029208 0.000000 0.000000
# 5 0.000000 0.000000 0.000000 0.000000 0.331083 0.000000
# 6 0.000000 0.000000 0.000000 0.000000 0.000000 0.027178
#
#
# Mechanical properties :
#
#
# Convention : Reuss Voigt Hill
#
# Bulk Modulus (GPa) = 46.24699 50.53987 48.39343
# Shear Modulus (GPa) = 10.57941 25.07607 17.82774
#
# Velocity S-wave (km/s) = 2.30502 3.54874 2.99221
# Velocity P-wave (km/s) = 5.50545 6.49409 6.02010
#
# Compressibility (1/GPa) = 0.02162303
#
# Stress axis : x y z
#
# Youngs Moduli (GPa) = 45.36460 87.21498 61.45657
#
# Poissons Ratio (x) = 0.48398 0.32185
# Poissons Ratio (y) = 0.25174 0.20236
# Poissons Ratio (z) = 0.23758 0.28718
#
# Static dielectric constant tensor:
#      x y z
#    x 1.669590 0.000000 0.000000 
#    y 0.000000 1.739870 0.000000 
#    z 0.000000 0.000000 1.690160 
# 
# From -- ./inp_files/47649.got.cif
#   From: 2010.05.17/outbox.cif.g08.bks.cpg/sg64_24_cif.got.tgz:47649.got - 2010.06.03 16:29:19.
