data_PCOD9480537
_publ_section_title
;
Structure prediction by ZEFSAII (Michael W. Deem and Ramdas Pophale) SiO2 
 PCOD9480537
Probable space group: C M C A
;
_chemical_formula_sum "Si O2"
_cell_formula_units_Z 88
_cell_length_a 26.308376
_cell_length_b 11.926397
_cell_length_c 13.940124
_cell_angle_alpha 90.000000
_cell_angle_beta 90.000000
_cell_angle_gamma 90.000000
_cell_volume 4373.910971
_symmetry_space_group_name_H-M "C M C A"
_symmetry_group_IT_number 64
_symmetry_cell_setting 'orthorhombic'
loop_
_space_group_symop_operation_xyz
x,y,z
-x,1/2-y,1/2+z
x,-y,-z
-x,1/2+y,1/2-z
-x,-y,-z
x,1/2+y,1/2-z
-x,y,z
x,1/2-y,1/2+z
1/2+x,1/2+y,z
1/2-x,-y,1/2+z
1/2+x,1/2-y,-z
1/2-x,y,1/2-z
1/2-x,1/2-y,-z
1/2+x,y,1/2-z
1/2-x,1/2+y,z
1/2+x,-y,1/2+z
loop_
_atom_site_type_symbol
_atom_site_label
_atom_site_fract_x
_atom_site_fract_y
_atom_site_fract_z
Si Si1 0.293485 0.121145 0.829087
Si Si2 0.000000 0.696688 0.008709
Si Si3 0.000000 0.488889 0.155017
Si Si4 0.669273 0.854820 0.618891
Si Si5 0.106914 0.474600 0.263924
Si Si6 0.909269 0.870707 0.036687
Si Si7 0.254411 0.500000 0.000000
O O1 0.250000 0.094033 0.750000
O O2 0.303544 0.253154 0.830197
O O3 0.347284 0.064103 0.804113
O O4 0.277528 0.085881 0.936284
O O5 0.000000 0.601941 0.091338
O O6 0.047064 0.781481 0.017362
O O7 0.000000 0.621972 0.912231
O O8 0.052012 0.487284 0.215973
O O9 0.638897 0.825497 0.521955
O O10 0.627772 0.911791 0.687589
O O11 0.710306 0.942093 0.579657
O O12 0.101898 0.386425 0.351323
O O13 0.920182 0.000000 0.000000
#
# Coordination Sequence:
#
# PCOD9480537 Si02
#       7
#    16   8   8  16  16  16   8
#     4  12  26  42  74 104 139 189 234 295 359 421
#     4  11  24  43  69  97 141 182 232 287 357 420
#     4  11  27  45  66 107 144 180 230 290 359 426
#     4  11  23  44  68  99 139 183 235 286 354 424
#     4  11  24  46  68 104 140 180 239 288 347 429
#     4  10  21  44  69  94 136 181 235 284 345 414
#     4  12  24  48  64 104 148 178 234 300 350 428
#
# _framework density 20.119295000000001
#
# number of rings (size 3 to 8) (size 9 to 14) (size 15 to 20)
#    0.000    0.909    4.545    2.455    5.091    5.091 
#    6.545    0.000    0.000    0.000    0.000    0.000 
#    0.000    0.000    0.000    0.000    0.000    0.000 
#
# Total GULP energy -245699.675222 kJ/mol
# GULP energy per Si atom -5584.083528 kJ/mol
# Density = 2.007350 g / cm^3
# Si number density = 20.119295 Si / 1000 Ang^3
#
#
#
# Elastic Constant Matrix: (Units=GPa)
#
#
# Indices 1 2 3 4 5 6 
#
# 1 138.7615 34.3935 51.2643 0.0000 0.0000 0.0000
# 2 34.3935 37.3134 5.5768 0.0000 0.0000 0.0000
# 3 51.2643 5.5768 74.2625 0.0000 0.0000 0.0000
# 4 0.0000 0.0000 0.0000 19.9241 0.0000 0.0000
# 5 0.0000 0.0000 0.0000 0.0000 52.7507 0.0000
# 6 0.0000 0.0000 0.0000 0.0000 0.0000 13.9784
#
#
#
# Elastic Compliance Matrix: (Units=1/GPa)
#
#
# Indices 1 2 3 4 5 6 
#
# 1 0.012806 -0.010602 -0.008044 0.000000 0.000000 0.000000
# 2 -0.010602 0.035881 0.004624 0.000000 0.000000 0.000000
# 3 -0.008044 0.004624 0.018671 0.000000 0.000000 0.000000
# 4 0.000000 0.000000 0.000000 0.050190 0.000000 0.000000
# 5 0.000000 0.000000 0.000000 0.000000 0.018957 0.000000
# 6 0.000000 0.000000 0.000000 0.000000 0.000000 0.071539
#
#
# Mechanical properties :
#
#
# Convention : Reuss Voigt Hill
#
# Bulk Modulus (GPa) = 25.43559 48.08961 36.76260
# Shear Modulus (GPa) = 20.06468 27.93748 24.00108
#
# Velocity S-wave (km/s) = 3.16141 3.73042 3.45764
# Velocity P-wave (km/s) = 5.09861 6.51988 5.85255
#
# Compressibility (1/GPa) = 0.03931499
#
# Stress axis : x y z
#
# Youngs Moduli (GPa) = 78.08701 27.86980 53.55762
#
# Poissons Ratio (x) = 0.29547 0.43083
# Poissons Ratio (y) = 0.82787 -0.24765
# Poissons Ratio (z) = 0.62814 -0.12887
#
# Static dielectric constant tensor:
#      x y z
#    x 1.734570 0.000000 0.000000 
#    y 0.000000 1.553310 0.000000 
#    z 0.000000 0.000000 1.912480 
# 
# From -- ./inp_files/27254.got.cif
#   From: 2010.05.17/outbox.cif.g08.bks.cpg/sg64_14_cif.got.tgz:27254.got - 2010.06.03 16:29:19.
