data_PCOD9480570
_publ_section_title
;
Structure prediction by ZEFSAII (Michael W. Deem and Ramdas Pophale) SiO2 
 PCOD9480570
Probable space group: C M C A
;
_chemical_formula_sum "Si O2"
_cell_formula_units_Z 112
_cell_length_a 28.200513
_cell_length_b 12.588168
_cell_length_c 16.800618
_cell_angle_alpha 90.000000
_cell_angle_beta 90.000000
_cell_angle_gamma 90.000000
_cell_volume 5964.098347
_symmetry_space_group_name_H-M "C M C A"
_symmetry_group_IT_number 64
_symmetry_cell_setting 'orthorhombic'
loop_
_space_group_symop_operation_xyz
x,y,z
-x,1/2-y,1/2+z
x,-y,-z
-x,1/2+y,1/2-z
-x,-y,-z
x,1/2+y,1/2-z
-x,y,z
x,1/2-y,1/2+z
1/2+x,1/2+y,z
1/2-x,-y,1/2+z
1/2+x,1/2-y,-z
1/2-x,y,1/2-z
1/2-x,1/2-y,-z
1/2+x,y,1/2-z
1/2-x,1/2+y,z
1/2+x,-y,1/2+z
loop_
_atom_site_type_symbol
_atom_site_label
_atom_site_fract_x
_atom_site_fract_y
_atom_site_fract_z
Si Si1 0.296651 0.998974 0.157501
Si Si2 0.552639 0.742774 0.925605
Si Si3 0.309209 0.947327 0.661874
Si Si4 0.869651 0.105392 0.459314
Si Si5 0.845436 0.284086 0.121160
Si Si6 0.947133 0.709579 0.381831
Si Si7 0.093729 0.482705 0.404810
O O1 0.305786 0.051867 0.242787
O O2 0.241389 0.006322 0.135459
O O3 0.327137 0.061128 0.092792
O O4 0.316428 0.878961 0.161524
O O5 0.500000 0.771750 0.899343
O O6 0.591840 0.831094 0.908807
O O7 0.567775 0.628507 0.892612
O O8 0.551990 0.731462 0.022550
O O9 0.319674 0.828319 0.631409
O O10 0.354096 0.014990 0.632694
O O11 0.850203 0.181645 0.528790
O O12 0.891946 0.000000 0.500000
O O13 0.900332 0.270434 0.149779
O O14 0.935441 0.584359 0.373174
O O15 0.000000 0.735089 0.351255
O O16 0.098498 0.500000 0.500000
#
# Coordination Sequence:
#
# PCOD9480570 Si02
#       7
#    16  16  16  16  16  16  16
#     4  10  22  37  53  75 102 138 178 214 258 316
#     4   9  16  27  49  79 105 131 166 211 257 298
#     4  10  22  36  54  77 103 139 175 213 269 320
#     4   9  19  35  53  75 106 140 178 219 255 304
#     4   9  19  36  54  77 105 134 174 217 259 307
#     4   8  14  28  51  76 103 134 167 205 251 303
#     4   9  17  29  49  79 106 130 168 213 255 303
#
# _framework density 18.779033999999999
#
# number of rings (size 3 to 8) (size 9 to 14) (size 15 to 20)
#    0.000    2.857    0.000    1.286    0.000    8.857 
#    0.000    2.143    0.000   12.000    0.000    0.000 
#    0.000    0.000    0.000    0.000    0.000    0.000 
#
# Total GULP energy -312105.822500 kJ/mol
# GULP energy per Si atom -5573.318259 kJ/mol
# Density = 1.873629 g / cm^3
# Si number density = 18.779034 Si / 1000 Ang^3
#
#
#
# Elastic Constant Matrix: (Units=GPa)
#
#
# Indices 1 2 3 4 5 6 
#
# 1 132.0861 45.6222 7.4154 0.0000 0.0000 0.0000
# 2 45.6222 66.0733 10.3866 0.0000 0.0000 0.0000
# 3 7.4154 10.3866 8.6715 0.0000 0.0000 0.0000
# 4 0.0000 0.0000 0.0000 11.3530 0.0000 0.0000
# 5 0.0000 0.0000 0.0000 0.0000 -44.9066 0.0000
# 6 0.0000 0.0000 0.0000 0.0000 0.0000 13.9043
#
#
#
# Elastic Compliance Matrix: (Units=1/GPa)
#
#
# Indices 1 2 3 4 5 6 
#
# 1 0.009943 -0.006811 -0.000344 0.000000 0.000000 0.000000
# 2 -0.006811 0.023311 -0.022098 0.000000 0.000000 0.000000
# 3 -0.000344 -0.022098 0.142084 0.000000 0.000000 0.000000
# 4 0.000000 0.000000 0.000000 0.088082 0.000000 0.000000
# 5 0.000000 0.000000 0.000000 0.000000 -0.022268 0.000000
# 6 0.000000 0.000000 0.000000 0.000000 0.000000 0.071920
#
#
# Mechanical properties :
#
#
# Convention : Reuss Voigt Hill
#
# Bulk Modulus (GPa) = 8.55931 37.07546 22.81739
# Shear Modulus (GPa) = 12.17962 5.63059 8.90510
#
# Velocity S-wave (km/s) = 2.54948 1.73345 2.17999
# Velocity P-wave (km/s) = 3.63789 4.87774 4.30271
#
# Compressibility (1/GPa) = 0.11683184
#
# Stress axis : x y z
#
# Youngs Moduli (GPa) = 100.57660 42.89759 7.03810
#
# Poissons Ratio (x) = 0.29218 0.00242
# Poissons Ratio (y) = 0.68504 0.15553
# Poissons Ratio (z) = 0.03461 0.94794
#
# Static dielectric constant tensor:
#      x y z
#    x 1.662070 0.000000 0.000000 
#    y 0.000000 1.645690 0.000000 
#    z 0.000000 0.000000 1.647220 
# 
# From -- ./inp_files/41542.got.cif
#   From: 2010.05.17/outbox.cif.g08.bks.cpg/sg64_21_cif.got.tgz:41542.got - 2010.06.03 16:29:19.
