data_PCOD9480930
_publ_section_title
;
Structure prediction by ZEFSAII (Michael W. Deem and Ramdas Pophale) SiO2 
 PCOD9480930
Probable space group: C M C A
;
_chemical_formula_sum "Si O2"
_cell_formula_units_Z 96
_cell_length_a 14.181146
_cell_length_b 20.967234
_cell_length_c 15.119854
_cell_angle_alpha 90.000000
_cell_angle_beta 90.000000
_cell_angle_gamma 90.000000
_cell_volume 4495.728416
_symmetry_space_group_name_H-M "C M C A"
_symmetry_group_IT_number 64
_symmetry_cell_setting 'orthorhombic'
loop_
_space_group_symop_operation_xyz
x,y,z
-x,1/2-y,1/2+z
x,-y,-z
-x,1/2+y,1/2-z
-x,-y,-z
x,1/2+y,1/2-z
-x,y,z
x,1/2-y,1/2+z
1/2+x,1/2+y,z
1/2-x,-y,1/2+z
1/2+x,1/2-y,-z
1/2-x,y,1/2-z
1/2-x,1/2-y,-z
1/2+x,y,1/2-z
1/2-x,1/2+y,z
1/2+x,-y,1/2+z
loop_
_atom_site_type_symbol
_atom_site_label
_atom_site_fract_x
_atom_site_fract_y
_atom_site_fract_z
Si Si1 0.889064 0.401976 0.009888
Si Si2 0.158172 0.602699 0.189306
Si Si3 0.107897 0.859984 0.167119
Si Si4 0.898908 0.230609 0.220652
Si Si5 0.607616 0.039135 0.813312
Si Si6 0.779038 0.207565 0.581119
O O1 0.833949 0.398624 0.917234
O O2 0.000000 0.412898 0.988446
O O3 0.855018 0.450766 0.086581
O O4 0.870307 0.334658 0.057851
O O5 0.250000 0.601414 0.250000
O O6 0.108778 0.667985 0.219002
O O7 0.110253 0.534795 0.210441
O O8 0.098860 0.794472 0.221525
O O9 0.142200 0.915745 0.233930
O O10 0.193477 0.841180 0.102339
O O11 0.000000 0.874775 0.134162
O O12 0.810010 0.243573 0.157778
O O13 0.000000 0.225661 0.172073
O O14 0.500000 0.061310 0.822782
O O15 0.750000 0.250000 0.500000
#
# Coordination Sequence:
#
# PCOD9480930 Si02
#       6
#    16  16  16  16  16  16
#     4  11  23  42  66  96 132 172 221 278 331 389
#     4  12  25  39  63  98 133 171 215 273 335 392
#     4  10  22  41  66  93 129 174 218 267 332 399
#     4  11  22  40  62  87 127 172 217 267 325 392
#     4  10  22  42  67  95 126 173 221 269 333 396
#     4  12  24  38  65  97 132 171 224 275 328 391
#
# _framework density 21.353604000000001
#
# number of rings (size 3 to 8) (size 9 to 14) (size 15 to 20)
#    0.000    1.000    1.667    6.000    2.333    4.000 
#    0.000    0.000    0.000    0.000    0.000    5.833 
#    0.000    0.000    0.000    0.000    0.000    0.000 
#
# Total GULP energy -267702.762363 kJ/mol
# GULP energy per Si atom -5577.140883 kJ/mol
# Density = 2.130500 g / cm^3
# Si number density = 21.353604 Si / 1000 Ang^3
#
#
#
# Elastic Constant Matrix: (Units=GPa)
#
#
# Indices 1 2 3 4 5 6 
#
# 1 77.6029 -3.2502 26.6175 0.0000 0.0000 0.0000
# 2 -3.2502 133.4972 29.8593 0.0000 0.0000 0.0000
# 3 26.6175 29.8593 83.4335 0.0000 0.0000 0.0000
# 4 0.0000 0.0000 0.0000 37.0676 0.0000 0.0000
# 5 0.0000 0.0000 0.0000 0.0000 21.6786 0.0000
# 6 0.0000 0.0000 0.0000 0.0000 0.0000 28.8063
#
#
#
# Elastic Compliance Matrix: (Units=1/GPa)
#
#
# Indices 1 2 3 4 5 6 
#
# 1 0.014753 0.001535 -0.005256 0.000000 0.000000 0.000000
# 2 0.001535 0.008302 -0.003461 0.000000 0.000000 0.000000
# 3 -0.005256 -0.003461 0.014901 0.000000 0.000000 0.000000
# 4 0.000000 0.000000 0.000000 0.026978 0.000000 0.000000
# 5 0.000000 0.000000 0.000000 0.000000 0.046128 0.000000
# 6 0.000000 0.000000 0.000000 0.000000 0.000000 0.034715
#
#
# Mechanical properties :
#
#
# Convention : Reuss Voigt Hill
#
# Bulk Modulus (GPa) = 42.38659 44.55408 43.47033
# Shear Modulus (GPa) = 29.76096 33.59763 31.67929
#
# Velocity S-wave (km/s) = 3.73731 3.97091 3.85588
# Velocity P-wave (km/s) = 6.20614 6.47567 6.34234
#
# Compressibility (1/GPa) = 0.02359237
#
# Stress axis : x y z
#
# Youngs Moduli (GPa) = 67.78204 120.44926 67.10975
#
# Poissons Ratio (x) = -0.18486 0.35272
# Poissons Ratio (y) = -0.10403 0.23226
# Poissons Ratio (z) = 0.35626 0.41686
#
# Static dielectric constant tensor:
#      x y z
#    x 1.890690 0.000000 0.000000 
#    y 0.000000 1.788520 0.000000 
#    z 0.000000 0.000000 1.782340 
# 
# From -- ./inp_files/23918.got.cif
#   From: 2010.05.17/outbox.cif.g08.bks.cpg/sg64_12_cif.got.tgz:23918.got - 2010.06.03 16:29:19.
