data_PCOD9480367
_publ_section_title
;
Structure prediction by ZEFSAII (Michael W. Deem and Ramdas Pophale) SiO2 
 PCOD9480367
Probable space group: C M C A
;
_chemical_formula_sum "Si O2"
_cell_formula_units_Z 60
_cell_length_a 25.686196
_cell_length_b 23.639561
_cell_length_c 4.820983
_cell_angle_alpha 90.000000
_cell_angle_beta 90.000000
_cell_angle_gamma 90.000000
_cell_volume 2927.351002
_symmetry_space_group_name_H-M "C M C A"
_symmetry_group_IT_number 64
_symmetry_cell_setting 'orthorhombic'
loop_
_space_group_symop_operation_xyz
x,y,z
-x,1/2-y,1/2+z
x,-y,-z
-x,1/2+y,1/2-z
-x,-y,-z
x,1/2+y,1/2-z
-x,y,z
x,1/2-y,1/2+z
1/2+x,1/2+y,z
1/2-x,-y,1/2+z
1/2+x,1/2-y,-z
1/2-x,y,1/2-z
1/2-x,1/2-y,-z
1/2+x,y,1/2-z
1/2-x,1/2+y,z
1/2+x,-y,1/2+z
loop_
_atom_site_type_symbol
_atom_site_label
_atom_site_fract_x
_atom_site_fract_y
_atom_site_fract_z
Si Si1 0.000000 0.709011 0.948473
Si Si2 0.000000 0.000000 0.500000
Si Si3 0.901425 0.131719 0.619713
Si Si4 0.593392 0.445886 0.867692
Si Si5 0.693269 0.210446 0.817556
O O1 0.051148 0.670670 0.986276
O O2 0.000000 0.736468 0.645053
O O3 0.955052 0.028038 0.298031
O O4 0.854800 0.169779 0.734049
O O5 0.880804 0.093501 0.365716
O O6 0.922171 0.093053 0.871133
O O7 0.622705 0.500000 0.000000
O O8 0.689971 0.266729 0.629678
O O9 0.750000 0.185243 0.750000
#
# Coordination Sequence:
#
# PCOD9480367 Si02
#       5
#     8   4  16  16  16
#     4  12  24  38  53  85 128 160 191 243 309 378
#     4  12  22  40  58  84 122 160 212 254 300 358
#     4  12  23  39  62  91 123 166 207 251 318 372
#     4  12  24  39  60  89 121 159 214 262 297 360
#     4  10  21  40  66  95 125 162 209 262 309 374
#
# _framework density 20.496345999999999
#
# number of rings (size 3 to 8) (size 9 to 14) (size 15 to 20)
#    0.000    0.533    2.667    6.800    0.000    0.000 
#    0.000    0.000    0.000    3.200    3.467    0.000 
#    0.000    0.000    0.000    0.000    0.000    0.000 
#
# Total GULP energy -167072.273771 kJ/mol
# GULP energy per Si atom -5569.075792 kJ/mol
# Density = 2.044970 g / cm^3
# Si number density = 20.496346 Si / 1000 Ang^3
#
#
#
# Elastic Constant Matrix: (Units=GPa)
#
#
# Indices 1 2 3 4 5 6 
#
# 1 98.7777 47.2026 3.0850 0.0000 0.0000 0.0000
# 2 47.2026 84.0579 19.1920 0.0000 0.0000 0.0000
# 3 3.0850 19.1920 77.9742 0.0000 0.0000 0.0000
# 4 0.0000 0.0000 0.0000 41.9622 0.0000 0.0000
# 5 0.0000 0.0000 0.0000 0.0000 12.4783 0.0000
# 6 0.0000 0.0000 0.0000 0.0000 0.0000 2.7814
#
#
#
# Elastic Compliance Matrix: (Units=1/GPa)
#
#
# Indices 1 2 3 4 5 6 
#
# 1 0.013992 -0.008191 0.001463 0.000000 0.000000 0.000000
# 2 -0.008191 0.017400 -0.003959 0.000000 0.000000 0.000000
# 3 0.001463 -0.003959 0.013741 0.000000 0.000000 0.000000
# 4 0.000000 0.000000 0.000000 0.023831 0.000000 0.000000
# 5 0.000000 0.000000 0.000000 0.000000 0.080139 0.000000
# 6 0.000000 0.000000 0.000000 0.000000 0.000000 0.359527
#
#
# Mechanical properties :
#
#
# Convention : Reuss Voigt Hill
#
# Bulk Modulus (GPa) = 42.08935 44.41877 43.25406
# Shear Modulus (GPa) = 9.29496 24.19973 16.74735
#
# Velocity S-wave (km/s) = 2.13185 3.43984 2.86158
# Velocity P-wave (km/s) = 5.16133 6.12334 5.66280
#
# Compressibility (1/GPa) = 0.02375898
#
# Stress axis : x y z
#
# Youngs Moduli (GPa) = 71.46709 57.47046 72.77356
#
# Poissons Ratio (x) = 0.47076 -0.10644
# Poissons Ratio (y) = 0.58541 0.28809
# Poissons Ratio (z) = -0.10452 0.22751
#
# Static dielectric constant tensor:
#      x y z
#    x 1.689700 0.000000 0.000000 
#    y 0.000000 1.772560 0.000000 
#    z 0.000000 0.000000 1.757510 
# 
# From -- ./inp_files/3139.got.cif
#   From: 2010.05.17/outbox.cif.g08.bks.cpg/sg64_2_cif.got.tgz:3139.got - 2010.06.03 16:29:19.
