data_PCOD9480474
_publ_section_title
;
Structure prediction by ZEFSAII (Michael W. Deem and Ramdas Pophale) SiO2 
 PCOD9480474
Probable space group: C M C A
;
_chemical_formula_sum "Si O2"
_cell_formula_units_Z 88
_cell_length_a 14.133255
_cell_length_b 26.030496
_cell_length_c 10.686242
_cell_angle_alpha 90.000000
_cell_angle_beta 90.000000
_cell_angle_gamma 90.000000
_cell_volume 3931.421816
_symmetry_space_group_name_H-M "C M C A"
_symmetry_group_IT_number 64
_symmetry_cell_setting 'orthorhombic'
loop_
_space_group_symop_operation_xyz
x,y,z
-x,1/2-y,1/2+z
x,-y,-z
-x,1/2+y,1/2-z
-x,-y,-z
x,1/2+y,1/2-z
-x,y,z
x,1/2-y,1/2+z
1/2+x,1/2+y,z
1/2-x,-y,1/2+z
1/2+x,1/2-y,-z
1/2-x,y,1/2-z
1/2-x,1/2-y,-z
1/2+x,y,1/2-z
1/2-x,1/2+y,z
1/2+x,-y,1/2+z
loop_
_atom_site_type_symbol
_atom_site_label
_atom_site_fract_x
_atom_site_fract_y
_atom_site_fract_z
Si Si1 0.169360 0.705941 0.494212
Si Si2 0.000000 0.743408 0.878388
Si Si3 0.862386 0.328838 0.246201
Si Si4 0.220326 0.410430 0.552966
Si Si5 0.607197 0.443953 0.180916
Si Si6 0.610806 0.948115 0.796660
O O1 0.250000 0.750000 0.500000
O O2 0.086483 0.714928 0.394268
O O3 0.112090 0.702047 0.626155
O O4 0.216030 0.650264 0.474544
O O5 0.917919 0.698503 0.862892
O O6 0.750000 0.323787 0.250000
O O7 0.886662 0.388491 0.254657
O O8 0.179555 0.440333 0.433623
O O9 0.324186 0.428344 0.591477
O O10 0.151984 0.422101 0.670605
O O11 0.500000 0.450562 0.131359
O O12 0.625555 0.491171 0.272312
O O13 0.500000 0.938202 0.813187
#
# Coordination Sequence:
#
# PCOD9480474 Si02
#       6
#    16   8  16  16  16  16
#     4  11  25  46  65 100 133 182 233 283 348 404
#     4  12  24  44  70  96 139 176 229 295 338 394
#     4  11  23  42  70 104 134 180 234 282 341 419
#     4  10  23  40  66 100 136 174 233 284 340 411
#     4  10  21  41  72  99 134 180 231 278 340 421
#     4  10  22  42  67 102 136 181 222 277 352 407
#
# _framework density 22.383759000000001
#
# number of rings (size 3 to 8) (size 9 to 14) (size 15 to 20)
#    0.000    1.455    2.727    1.636    7.636    4.364 
#    1.636    0.000    0.000    9.818    0.000    0.000 
#    0.000    0.000    0.000    0.000    0.000    0.000 
#
# Total GULP energy -244977.338923 kJ/mol
# GULP energy per Si atom -5567.666794 kJ/mol
# Density = 2.233281 g / cm^3
# Si number density = 22.383759 Si / 1000 Ang^3
#
#
#
# Elastic Constant Matrix: (Units=GPa)
#
#
# Indices 1 2 3 4 5 6 
#
# 1 211.6942 62.4336 30.3158 0.0000 0.0000 0.0000
# 2 62.4336 111.2626 13.9473 0.0000 0.0000 0.0000
# 3 30.3158 13.9473 15.1012 0.0000 0.0000 0.0000
# 4 0.0000 0.0000 0.0000 14.4553 0.0000 0.0000
# 5 0.0000 0.0000 0.0000 0.0000 -11.8526 0.0000
# 6 0.0000 0.0000 0.0000 0.0000 0.0000 21.4374
#
#
#
# Elastic Compliance Matrix: (Units=1/GPa)
#
#
# Indices 1 2 3 4 5 6 
#
# 1 0.007206 -0.002522 -0.012136 0.000000 0.000000 0.000000
# 2 -0.002522 0.011047 -0.005140 0.000000 0.000000 0.000000
# 3 -0.012136 -0.005140 0.095330 0.000000 0.000000 0.000000
# 4 0.000000 0.000000 0.000000 0.069179 0.000000 0.000000
# 5 0.000000 0.000000 0.000000 0.000000 -0.084370 0.000000
# 6 0.000000 0.000000 0.000000 0.000000 0.000000 0.046648
#
#
# Mechanical properties :
#
#
# Convention : Reuss Voigt Hill
#
# Bulk Modulus (GPa) = 13.51590 61.27236 37.39413
# Shear Modulus (GPa) = 23.88932 20.23209 22.06070
#
# Velocity S-wave (km/s) = 3.27044 3.00971 3.14278
# Velocity P-wave (km/s) = 4.50693 6.28576 5.46915
#
# Compressibility (1/GPa) = 0.07398694
#
# Stress axis : x y z
#
# Youngs Moduli (GPa) = 138.78272 90.51992 10.48984
#
# Poissons Ratio (x) = 0.22829 0.12730
# Poissons Ratio (y) = 0.35001 0.05392
# Poissons Ratio (z) = 1.68425 0.46530
#
# Static dielectric constant tensor:
#      x y z
#    x 1.867160 0.000000 0.000000 
#    y 0.000000 1.808000 0.000000 
#    z 0.000000 0.000000 1.940240 
# 
# From -- ./inp_files/14560.got.cif
#   From: 2010.05.17/outbox.cif.g08.bks.cpg/sg64_8_cif.got.tgz:14560.got - 2010.06.03 16:29:19.
