data_PCOD9480855
_publ_section_title
;
Structure prediction by ZEFSAII (Michael W. Deem and Ramdas Pophale) SiO2 
 PCOD9480855
Probable space group: C M C A
;
_chemical_formula_sum "Si O2"
_cell_formula_units_Z 64
_cell_length_a 21.538323
_cell_length_b 10.469552
_cell_length_c 13.184431
_cell_angle_alpha 90.000000
_cell_angle_beta 90.000000
_cell_angle_gamma 90.000000
_cell_volume 2973.044266
_symmetry_space_group_name_H-M "C M C A"
_symmetry_group_IT_number 64
_symmetry_cell_setting 'orthorhombic'
loop_
_space_group_symop_operation_xyz
x,y,z
-x,1/2-y,1/2+z
x,-y,-z
-x,1/2+y,1/2-z
-x,-y,-z
x,1/2+y,1/2-z
-x,y,z
x,1/2-y,1/2+z
1/2+x,1/2+y,z
1/2-x,-y,1/2+z
1/2+x,1/2-y,-z
1/2-x,y,1/2-z
1/2-x,1/2-y,-z
1/2+x,y,1/2-z
1/2-x,1/2+y,z
1/2+x,-y,1/2+z
loop_
_atom_site_type_symbol
_atom_site_label
_atom_site_fract_x
_atom_site_fract_y
_atom_site_fract_z
Si Si1 0.500000 0.198993 0.520994
Si Si2 0.871944 0.855164 0.521954
Si Si3 0.867116 0.950400 0.736288
Si Si4 0.690450 0.281809 0.323445
Si Si5 0.500000 0.979765 0.676795
O O1 0.434752 0.273636 0.514728
O O2 0.500000 0.109669 0.421996
O O3 0.500000 0.120140 0.626422
O O4 0.849985 0.867240 0.637134
O O5 0.817739 0.817092 0.443111
O O6 0.891601 0.000000 0.500000
O O7 0.835789 0.862910 0.821445
O O8 0.939933 0.953036 0.756621
O O9 0.847375 0.097201 0.724232
O O10 0.750000 0.281873 0.250000
#
# Coordination Sequence:
#
# PCOD9480855 Si02
#       5
#     8  16  16  16   8
#     4  11  20  39  63 105 137 170 215 273 344 411
#     4  10  22  40  66  95 137 179 222 275 344 416
#     4  11  23  43  66  98 134 176 221 279 346 406
#     4  11  24  43  65  92 130 178 232 283 330 398
#     4  11  23  37  68  99 137 169 212 279 340 408
#
# _framework density 21.526755999999999
#
# number of rings (size 3 to 8) (size 9 to 14) (size 15 to 20)
#    0.000    1.250    2.500    3.375    0.000    5.000 
#    0.000    2.500    0.000    0.000    0.000    0.000 
#    0.000    0.000    0.000    0.000    0.000    0.000 
#
# Total GULP energy -178282.305405 kJ/mol
# GULP energy per Si atom -5571.322044 kJ/mol
# Density = 2.147776 g / cm^3
# Si number density = 21.526756 Si / 1000 Ang^3
#
#
#
# Elastic Constant Matrix: (Units=GPa)
#
#
# Indices 1 2 3 4 5 6 
#
# 1 63.1984 -1.7780 9.3165 0.0000 0.0000 0.0000
# 2 -1.7780 53.6341 8.0192 0.0000 0.0000 0.0000
# 3 9.3165 8.0192 76.3946 0.0000 0.0000 0.0000
# 4 0.0000 0.0000 0.0000 27.0570 0.0000 0.0000
# 5 0.0000 0.0000 0.0000 0.0000 30.2738 0.0000
# 6 0.0000 0.0000 0.0000 0.0000 0.0000 -34.3731
#
#
#
# Elastic Compliance Matrix: (Units=1/GPa)
#
#
# Indices 1 2 3 4 5 6 
#
# 1 0.016150 0.000843 -0.002058 0.000000 0.000000 0.000000
# 2 0.000843 0.018986 -0.002096 0.000000 0.000000 0.000000
# 3 -0.002058 -0.002096 0.013561 0.000000 0.000000 0.000000
# 4 0.000000 0.000000 0.000000 0.036959 0.000000 0.000000
# 5 0.000000 0.000000 0.000000 0.000000 0.033032 0.000000
# 6 0.000000 0.000000 0.000000 0.000000 0.000000 -0.029092
#
#
# Mechanical properties :
#
#
# Convention : Reuss Voigt Hill
#
# Bulk Modulus (GPa) = 23.76660 24.92694 24.34677
# Shear Modulus (GPa) = 45.35453 16.43616 30.89535
#
# Velocity S-wave (km/s) = 4.59507 2.76619 3.79252
# Velocity P-wave (km/s) = 6.26237 4.66980 5.52378
#
# Compressibility (1/GPa) = 0.04207585
#
# Stress axis : x y z
#
# Youngs Moduli (GPa) = 61.91839 52.66991 73.74137
#
# Poissons Ratio (x) = -0.04441 0.15176
# Poissons Ratio (y) = -0.05220 0.15455
# Poissons Ratio (z) = 0.12743 0.11039
#
# Static dielectric constant tensor:
#      x y z
#    x 1.770230 0.000000 0.000000 
#    y 0.000000 1.786820 0.000000 
#    z 0.000000 0.000000 1.890350 
# 
# From -- ./inp_files/24930.got.cif
#   From: 2010.05.17/outbox.cif.g08.bks.cpg/sg64_13_cif.got.tgz:24930.got - 2010.06.03 16:29:19.
