data_PCOD9480581
_publ_section_title
;
Structure prediction by ZEFSAII (Michael W. Deem and Ramdas Pophale) SiO2 
 PCOD9480581
Probable space group: C M C A
;
_chemical_formula_sum "Si O2"
_cell_formula_units_Z 104
_cell_length_a 9.399651
_cell_length_b 26.877745
_cell_length_c 22.265454
_cell_angle_alpha 90.000000
_cell_angle_beta 90.000000
_cell_angle_gamma 90.000000
_cell_volume 5625.175975
_symmetry_space_group_name_H-M "C M C A"
_symmetry_group_IT_number 64
_symmetry_cell_setting 'orthorhombic'
loop_
_space_group_symop_operation_xyz
x,y,z
-x,1/2-y,1/2+z
x,-y,-z
-x,1/2+y,1/2-z
-x,-y,-z
x,1/2+y,1/2-z
-x,y,z
x,1/2-y,1/2+z
1/2+x,1/2+y,z
1/2-x,-y,1/2+z
1/2+x,1/2-y,-z
1/2-x,y,1/2-z
1/2-x,1/2-y,-z
1/2+x,y,1/2-z
1/2-x,1/2+y,z
1/2+x,-y,1/2+z
loop_
_atom_site_type_symbol
_atom_site_label
_atom_site_fract_x
_atom_site_fract_y
_atom_site_fract_z
Si Si1 0.338728 0.699186 0.493095
Si Si2 0.843710 0.082919 0.804784
Si Si3 0.229197 0.334523 0.863411
Si Si4 0.172164 0.729193 0.813085
Si Si5 0.828661 0.154359 0.905057
Si Si6 0.500000 0.889359 0.781953
Si Si7 0.000000 0.985503 0.792001
Si Si8 0.500000 0.888851 0.643738
O O1 0.500000 0.705504 0.516197
O O2 0.250000 0.750000 0.500000
O O3 0.345790 0.684413 0.423478
O O4 0.251467 0.659248 0.532037
O O5 0.750000 0.100164 0.750000
O O6 0.801443 0.102574 0.869823
O O7 0.000000 0.105532 0.794905
O O8 0.869088 0.023774 0.798090
O O9 0.290904 0.286071 0.830331
O O10 0.359643 0.368085 0.885118
O O11 0.133555 0.367844 0.818718
O O12 0.250000 0.719067 0.750000
O O13 0.251407 0.695109 0.862547
O O14 0.000000 0.722160 0.811414
O O15 0.000000 0.162650 0.910868
O O16 0.500000 0.949033 0.766488
O O17 0.500000 0.869489 0.713609
O O18 0.000000 0.947538 0.847001
#
# Coordination Sequence:
#
# PCOD9480581 Si02
#       8
#    16  16  16  16  16   8   8   8
#     4  12  26  43  63  86 128 184 233 266 311 379
#     4   9  20  38  63  96 124 160 206 265 328 391
#     4  12  24  39  58  93 129 169 217 256 323 396
#     4  12  25  38  58  89 134 176 212 267 326 395
#     4  11  24  41  64  88 127 173 228 268 316 384
#     4  10  22  38  62  93 131 160 203 271 329 398
#     4   8  22  38  68  96 130 152 210 255 344 398
#     4  10  22  36  64  93 126 165 195 266 335 388
#
# _framework density 18.488309999999998
#
# number of rings (size 3 to 8) (size 9 to 14) (size 15 to 20)
#    0.923    0.308    3.077    3.231    6.462    2.462 
#    0.000    0.000    0.000    1.846    0.000    2.154 
#    0.000    0.000    0.000    0.000    0.000    0.000 
#
# Total GULP energy -289689.158777 kJ/mol
# GULP energy per Si atom -5570.945361 kJ/mol
# Density = 1.844623 g / cm^3
# Si number density = 18.488310 Si / 1000 Ang^3
#
#
#
# Elastic Constant Matrix: (Units=GPa)
#
#
# Indices 1 2 3 4 5 6 
#
# 1 118.0331 32.7503 26.1101 0.0000 0.0000 0.0000
# 2 32.7503 96.9344 25.7907 0.0000 0.0000 0.0000
# 3 26.1101 25.7907 75.8574 0.0000 0.0000 0.0000
# 4 0.0000 0.0000 0.0000 23.2187 0.0000 0.0000
# 5 0.0000 0.0000 0.0000 0.0000 -113.8577 0.0000
# 6 0.0000 0.0000 0.0000 0.0000 0.0000 36.3883
#
#
#
# Elastic Compliance Matrix: (Units=1/GPa)
#
#
# Indices 1 2 3 4 5 6 
#
# 1 0.009748 -0.002640 -0.002458 0.000000 0.000000 0.000000
# 2 -0.002640 0.012057 -0.003191 0.000000 0.000000 0.000000
# 3 -0.002458 -0.003191 0.015113 0.000000 0.000000 0.000000
# 4 0.000000 0.000000 0.000000 0.043069 0.000000 0.000000
# 5 0.000000 0.000000 0.000000 0.000000 -0.008783 0.000000
# 6 0.000000 0.000000 0.000000 0.000000 0.000000 0.027481
#
#
# Mechanical properties :
#
#
# Convention : Reuss Voigt Hill
#
# Bulk Modulus (GPa) = 49.15865 51.12523 50.14194
# Shear Modulus (GPa) = 40.96909 2.89479 21.93194
#
# Velocity S-wave (km/s) = 4.71249 1.25265 3.44795
# Velocity P-wave (km/s) = 7.50046 5.45939 6.55979
#
# Compressibility (1/GPa) = 0.02034230
#
# Stress axis : x y z
#
# Youngs Moduli (GPa) = 102.58177 82.93933 66.16624
#
# Poissons Ratio (x) = 0.21893 0.16263
# Poissons Ratio (y) = 0.27078 0.21112
# Poissons Ratio (z) = 0.25214 0.26464
#
# Static dielectric constant tensor:
#      x y z
#    x 1.610390 0.000000 0.000000 
#    y 0.000000 1.657980 0.000000 
#    z 0.000000 0.000000 1.647930 
# 
# From -- ./inp_files/43340.got.cif
#   From: 2010.05.17/outbox.cif.g08.bks.cpg/sg64_22_cif.got.tgz:43340.got - 2010.06.03 16:29:19.
