data_PCOD9480671
_publ_section_title
;
Structure prediction by ZEFSAII (Michael W. Deem and Ramdas Pophale) SiO2 
 PCOD9480671
Probable space group: C M C A
;
_chemical_formula_sum "Si O2"
_cell_formula_units_Z 112
_cell_length_a 16.868327
_cell_length_b 28.985188
_cell_length_c 10.969105
_cell_angle_alpha 90.000000
_cell_angle_beta 90.000000
_cell_angle_gamma 90.000000
_cell_volume 5363.142380
_symmetry_space_group_name_H-M "C M C A"
_symmetry_group_IT_number 64
_symmetry_cell_setting 'orthorhombic'
loop_
_space_group_symop_operation_xyz
x,y,z
-x,1/2-y,1/2+z
x,-y,-z
-x,1/2+y,1/2-z
-x,-y,-z
x,1/2+y,1/2-z
-x,y,z
x,1/2-y,1/2+z
1/2+x,1/2+y,z
1/2-x,-y,1/2+z
1/2+x,1/2-y,-z
1/2-x,y,1/2-z
1/2-x,1/2-y,-z
1/2+x,y,1/2-z
1/2-x,1/2+y,z
1/2+x,-y,1/2+z
loop_
_atom_site_type_symbol
_atom_site_label
_atom_site_fract_x
_atom_site_fract_y
_atom_site_fract_z
Si Si1 0.800440 0.749754 0.374664
Si Si2 0.655845 0.017549 0.727341
Si Si3 0.594846 0.103138 0.596851
Si Si4 0.340517 0.080079 0.216065
Si Si5 0.408388 0.163339 0.826404
Si Si6 0.407685 0.159144 0.353551
Si Si7 0.590310 0.567924 0.535206
O O1 0.750000 0.751102 0.250000
O O2 0.750000 0.750000 0.500000
O O3 0.855973 0.794698 0.370915
O O4 0.853558 0.703781 0.365593
O O5 0.750000 0.017123 0.750000
O O6 0.635446 0.054431 0.623546
O O7 0.613532 0.037209 0.848797
O O8 0.630981 0.964613 0.707236
O O9 0.500000 0.096874 0.613003
O O10 0.620335 0.140509 0.699244
O O11 0.610222 0.125411 0.467011
O O12 0.250000 0.089940 0.250000
O O13 0.389344 0.126564 0.238448
O O14 0.350559 0.063809 0.077189
O O15 0.500000 0.177988 0.809884
O O16 0.406742 0.120584 0.918941
O O17 0.500000 0.171972 0.356885
O O18 0.500000 0.557472 0.496865
#
# Coordination Sequence:
#
# PCOD9480671 Si02
#       7
#    16  16  16  16  16  16  16
#     4  12  27  44  67  98 130 168 216 266 331 395
#     4  10  22  38  63  95 127 172 215 270 326 384
#     4   9  20  40  64  91 122 163 216 264 317 387
#     4  11  25  40  60  93 136 170 215 269 329 385
#     4   9  20  41  67  92 121 163 213 264 318 385
#     4  11  25  43  64  92 131 171 210 267 329 393
#     4  10  22  41  67  95 127 173 225 268 319 392
#
# _framework density 20.883279000000002
#
# number of rings (size 3 to 8) (size 9 to 14) (size 15 to 20)
#    0.000    1.714    0.000    3.857    6.000    6.857 
#    0.000    2.857    0.000    0.000    0.000    0.000 
#    0.000    0.000    0.000    0.000    0.000    0.000 
#
# Total GULP energy -313058.681414 kJ/mol
# GULP energy per Si atom -5590.333597 kJ/mol
# Density = 2.083575 g / cm^3
# Si number density = 20.883279 Si / 1000 Ang^3
#
#
#
# Elastic Constant Matrix: (Units=GPa)
#
#
# Indices 1 2 3 4 5 6 
#
# 1 63.7155 40.6439 21.5241 0.0000 0.0000 0.0000
# 2 40.6439 138.8245 12.4581 0.0000 0.0000 0.0000
# 3 21.5241 12.4581 61.7426 0.0000 0.0000 0.0000
# 4 0.0000 0.0000 0.0000 7.9852 0.0000 0.0000
# 5 0.0000 0.0000 0.0000 0.0000 28.9011 0.0000
# 6 0.0000 0.0000 0.0000 0.0000 0.0000 50.2903
#
#
#
# Elastic Compliance Matrix: (Units=1/GPa)
#
#
# Indices 1 2 3 4 5 6 
#
# 1 0.021485 -0.005722 -0.006335 0.000000 0.000000 0.000000
# 2 -0.005722 0.008860 0.000207 0.000000 0.000000 0.000000
# 3 -0.006335 0.000207 0.018363 0.000000 0.000000 0.000000
# 4 0.000000 0.000000 0.000000 0.125232 0.000000 0.000000
# 5 0.000000 0.000000 0.000000 0.000000 0.034601 0.000000
# 6 0.000000 0.000000 0.000000 0.000000 0.000000 0.019885
#
#
# Mechanical properties :
#
#
# Convention : Reuss Voigt Hill
#
# Bulk Modulus (GPa) = 39.98771 45.94832 42.96801
# Shear Modulus (GPa) = 19.19672 30.07909 24.63791
#
# Velocity S-wave (km/s) = 3.03518 3.79930 3.43853
# Velocity P-wave (km/s) = 5.61007 6.42623 6.03197
#
# Compressibility (1/GPa) = 0.02500768
#
# Stress axis : x y z
#
# Youngs Moduli (GPa) = 46.54469 112.86819 54.45710
#
# Poissons Ratio (x) = 0.64579 0.34500
# Poissons Ratio (y) = 0.26631 -0.01127
# Poissons Ratio (z) = 0.29488 -0.02335
#
# Static dielectric constant tensor:
#      x y z
#    x 1.728940 0.000000 0.000000 
#    y 0.000000 1.737200 0.000000 
#    z 0.000000 0.000000 1.772960 
# 
# From -- ./inp_files/15010.got.cif
#   From: 2010.05.17/outbox.cif.g08.bks.cpg/sg64_8_cif.got.tgz:15010.got - 2010.06.03 16:29:19.
