data_PCOD9480714
_publ_section_title
;
Structure prediction by ZEFSAII (Michael W. Deem and Ramdas Pophale) SiO2 
 PCOD9480714
Probable space group: C M C A
;
_chemical_formula_sum "Si O2"
_cell_formula_units_Z 88
_cell_length_a 27.539022
_cell_length_b 11.129695
_cell_length_c 13.677046
_cell_angle_alpha 90.000000
_cell_angle_beta 90.000000
_cell_angle_gamma 90.000000
_cell_volume 4192.027120
_symmetry_space_group_name_H-M "C M C A"
_symmetry_group_IT_number 64
_symmetry_cell_setting 'orthorhombic'
loop_
_space_group_symop_operation_xyz
x,y,z
-x,1/2-y,1/2+z
x,-y,-z
-x,1/2+y,1/2-z
-x,-y,-z
x,1/2+y,1/2-z
-x,y,z
x,1/2-y,1/2+z
1/2+x,1/2+y,z
1/2-x,-y,1/2+z
1/2+x,1/2-y,-z
1/2-x,y,1/2-z
1/2-x,1/2-y,-z
1/2+x,y,1/2-z
1/2-x,1/2+y,z
1/2+x,-y,1/2+z
loop_
_atom_site_type_symbol
_atom_site_label
_atom_site_fract_x
_atom_site_fract_y
_atom_site_fract_z
Si Si1 0.445927 0.855695 0.989332
Si Si2 0.891988 0.801841 0.144055
Si Si3 0.637940 0.365805 0.362261
Si Si4 0.688780 0.385346 0.640576
Si Si5 0.797243 0.853383 0.870027
Si Si6 0.872208 0.000000 0.000000
O O1 0.500000 0.812313 0.014927
O O2 0.402837 0.820199 0.062774
O O3 0.430969 0.801258 0.883743
O O4 0.447054 0.000000 0.000000
O O5 0.885442 0.847631 0.254653
O O6 0.840576 0.736648 0.120506
O O7 0.901318 0.912049 0.071336
O O8 0.655479 0.500730 0.384692
O O9 0.686323 0.285142 0.369951
O O10 0.742465 0.378223 0.596391
O O11 0.696747 0.393649 0.757432
O O12 0.836647 0.923395 0.931907
#
# Coordination Sequence:
#
# PCOD9480714 Si02
#       6
#    16  16  16  16  16   8
#     4  11  24  45  71  96 125 168 229 284 335 401
#     4  11  24  41  66  94 133 171 215 274 335 391
#     4  11  22  42  68  92 132 174 218 272 331 394
#     4  10  22  39  59  93 130 177 213 260 314 397
#     4  10  23  35  60  92 131 170 214 257 318 389
#     4  12  22  38  59  92 126 168 211 266 316 380
#
# _framework density 20.992231
#
# number of rings (size 3 to 8) (size 9 to 14) (size 15 to 20)
#    0.000    1.273    5.455    0.000    2.545    4.364 
#    0.000    0.455    0.000    0.000    0.000    0.000 
#    0.000    0.000    0.000    0.000    0.000    0.000 
#
# Total GULP energy -245663.900006 kJ/mol
# GULP energy per Si atom -5583.270455 kJ/mol
# Density = 2.094445 g / cm^3
# Si number density = 20.992231 Si / 1000 Ang^3
#
#
#
# Elastic Constant Matrix: (Units=GPa)
#
#
# Indices 1 2 3 4 5 6 
#
# 1 98.0353 4.7875 22.1352 0.0000 0.0000 0.0000
# 2 4.7875 65.5277 23.2201 0.0000 0.0000 0.0000
# 3 22.1352 23.2201 81.5615 0.0000 0.0000 0.0000
# 4 0.0000 0.0000 0.0000 28.3174 0.0000 0.0000
# 5 0.0000 0.0000 0.0000 0.0000 19.5642 0.0000
# 6 0.0000 0.0000 0.0000 0.0000 0.0000 11.4309
#
#
#
# Elastic Compliance Matrix: (Units=1/GPa)
#
#
# Indices 1 2 3 4 5 6 
#
# 1 0.010871 0.000279 -0.003030 0.000000 0.000000 0.000000
# 2 0.000279 0.016980 -0.004910 0.000000 0.000000 0.000000
# 3 -0.003030 -0.004910 0.014481 0.000000 0.000000 0.000000
# 4 0.000000 0.000000 0.000000 0.035314 0.000000 0.000000
# 5 0.000000 0.000000 0.000000 0.000000 0.051114 0.000000
# 6 0.000000 0.000000 0.000000 0.000000 0.000000 0.087482
#
#
# Mechanical properties :
#
#
# Convention : Reuss Voigt Hill
#
# Bulk Modulus (GPa) = 37.02190 38.37890 37.70040
# Shear Modulus (GPa) = 20.78429 24.86128 22.82279
#
# Velocity S-wave (km/s) = 3.14999 3.44511 3.30085
# Velocity P-wave (km/s) = 5.55916 5.84356 5.70313
#
# Compressibility (1/GPa) = 0.02701104
#
# Stress axis : x y z
#
# Youngs Moduli (GPa) = 91.98903 58.89208 69.05695
#
# Poissons Ratio (x) = -0.01645 0.20923
# Poissons Ratio (y) = -0.02570 0.33907
# Poissons Ratio (z) = 0.27871 0.28916
#
# Static dielectric constant tensor:
#      x y z
#    x 1.725000 0.000000 0.000000 
#    y 0.000000 1.816580 0.000000 
#    z 0.000000 0.000000 1.779260 
# 
# From -- ./inp_files/27176.got.cif
#   From: 2010.05.17/outbox.cif.g08.bks.cpg/sg64_14_cif.got.tgz:27176.got - 2010.06.03 16:29:19.
