data_PCOD9480074
_publ_section_title
;
Structure prediction by ZEFSAII (Michael W. Deem and Ramdas Pophale) SiO2 
 PCOD9480074
Probable space group: C M C A
;
_chemical_formula_sum "Si O2"
_cell_formula_units_Z 80
_cell_length_a 13.659878
_cell_length_b 12.129537
_cell_length_c 23.646128
_cell_angle_alpha 90.000000
_cell_angle_beta 90.000000
_cell_angle_gamma 90.000000
_cell_volume 3917.879552
_symmetry_space_group_name_H-M "C M C A"
_symmetry_group_IT_number 64
_symmetry_cell_setting 'orthorhombic'
loop_
_space_group_symop_operation_xyz
x,y,z
-x,1/2-y,1/2+z
x,-y,-z
-x,1/2+y,1/2-z
-x,-y,-z
x,1/2+y,1/2-z
-x,y,z
x,1/2-y,1/2+z
1/2+x,1/2+y,z
1/2-x,-y,1/2+z
1/2+x,1/2-y,-z
1/2-x,y,1/2-z
1/2-x,1/2-y,-z
1/2+x,y,1/2-z
1/2-x,1/2+y,z
1/2+x,-y,1/2+z
loop_
_atom_site_type_symbol
_atom_site_label
_atom_site_fract_x
_atom_site_fract_y
_atom_site_fract_z
Si Si1 0.718354 0.263426 0.935816
Si Si2 0.196804 0.923165 0.354045
Si Si3 0.387195 0.559642 0.132130
Si Si4 0.614753 0.252003 0.772623
Si Si5 0.386362 0.164375 0.148286
O O1 0.673395 0.152805 0.908451
O O2 0.647278 0.366326 0.921464
O O3 0.815108 0.286576 0.898613
O O4 0.750000 0.250000 0.000000
O O5 0.172498 0.848654 0.300109
O O6 0.309182 0.963117 0.358540
O O7 0.133176 0.033628 0.351722
O O8 0.500000 0.524803 0.127866
O O9 0.376759 0.643630 0.185115
O O10 0.500000 0.221011 0.771631
O O11 0.642095 0.289173 0.709901
O O12 0.500000 0.188112 0.138261
#
# Coordination Sequence:
#
# PCOD9480074 Si02
#       5
#    16  16  16  16  16
#     4  10  23  40  57  83 120 160 203 250 298 347
#     4  10  21  38  62  84 115 158 196 239 299 357
#     4   9  20  37  59  87 117 154 201 247 296 357
#     4   9  19  37  59  87 120 148 182 236 300 362
#     4  10  22  38  59  89 117 148 196 244 295 363
#
# _framework density 20.41921
#
# number of rings (size 3 to 8) (size 9 to 14) (size 15 to 20)
#    0.000    2.400    0.000    0.600    0.000   16.000 
#    0.000    6.000    0.000    4.800    0.000    0.000 
#    0.000    0.000    0.000    0.000    0.000    0.000 
#
# Total GULP energy -223638.516671 kJ/mol
# GULP energy per Si atom -5590.962917 kJ/mol
# Density = 2.037273 g / cm^3
# Si number density = 20.419210 Si / 1000 Ang^3
#
#
#
# Elastic Constant Matrix: (Units=GPa)
#
#
# Indices 1 2 3 4 5 6 
#
# 1 67.1026 12.9259 7.9324 0.0000 0.0000 0.0000
# 2 12.9259 97.0287 36.6174 0.0000 0.0000 0.0000
# 3 7.9324 36.6174 136.5523 0.0000 0.0000 0.0000
# 4 0.0000 0.0000 0.0000 10.2116 0.0000 0.0000
# 5 0.0000 0.0000 0.0000 0.0000 20.0902 0.0000
# 6 0.0000 0.0000 0.0000 0.0000 0.0000 16.1777
#
#
#
# Elastic Compliance Matrix: (Units=1/GPa)
#
#
# Indices 1 2 3 4 5 6 
#
# 1 0.015313 -0.001896 -0.000381 0.000000 0.000000 0.000000
# 2 -0.001896 0.011701 -0.003028 0.000000 0.000000 0.000000
# 3 -0.000381 -0.003028 0.008157 0.000000 0.000000 0.000000
# 4 0.000000 0.000000 0.000000 0.097928 0.000000 0.000000
# 5 0.000000 0.000000 0.000000 0.000000 0.049775 0.000000
# 6 0.000000 0.000000 0.000000 0.000000 0.000000 0.061813
#
#
# Mechanical properties :
#
#
# Convention : Reuss Voigt Hill
#
# Bulk Modulus (GPa) = 40.71367 46.18167 43.44767
# Shear Modulus (GPa) = 18.97639 25.50977 22.24308
#
# Velocity S-wave (km/s) = 3.05182 3.53838 3.30407
# Velocity P-wave (km/s) = 5.69213 6.27371 5.98998
#
# Compressibility (1/GPa) = 0.02456177
#
# Stress axis : x y z
#
# Youngs Moduli (GPa) = 65.30464 85.45965 122.59072
#
# Poissons Ratio (x) = 0.16204 0.04672
# Poissons Ratio (y) = 0.12383 0.37116
# Poissons Ratio (z) = 0.02489 0.25874
#
# Static dielectric constant tensor:
#      x y z
#    x 1.755270 0.000000 0.000000 
#    y 0.000000 1.735250 0.000000 
#    z 0.000000 0.000000 1.689090 
# 
# From -- ./inp_files/44945.got.cif
#   From: 2010.05.17/outbox.cif.g08.bks.cpg/sg64_23_cif.got.tgz:44945.got - 2010.06.03 16:29:19.
