data_PCOD9480811
_publ_section_title
;
Structure prediction by ZEFSAII (Michael W. Deem and Ramdas Pophale) SiO2 
 PCOD9480811
Probable space group: C M C A
;
_chemical_formula_sum "Si O2"
_cell_formula_units_Z 64
_cell_length_a 18.630427
_cell_length_b 11.119636
_cell_length_c 15.523603
_cell_angle_alpha 90.000000
_cell_angle_beta 90.000000
_cell_angle_gamma 90.000000
_cell_volume 3215.924967
_symmetry_space_group_name_H-M "C M C A"
_symmetry_group_IT_number 64
_symmetry_cell_setting 'orthorhombic'
loop_
_space_group_symop_operation_xyz
x,y,z
-x,1/2-y,1/2+z
x,-y,-z
-x,1/2+y,1/2-z
-x,-y,-z
x,1/2+y,1/2-z
-x,y,z
x,1/2-y,1/2+z
1/2+x,1/2+y,z
1/2-x,-y,1/2+z
1/2+x,1/2-y,-z
1/2-x,y,1/2-z
1/2-x,1/2-y,-z
1/2+x,y,1/2-z
1/2-x,1/2+y,z
1/2+x,-y,1/2+z
loop_
_atom_site_type_symbol
_atom_site_label
_atom_site_fract_x
_atom_site_fract_y
_atom_site_fract_z
Si Si1 0.844396 0.010820 0.902094
Si Si2 0.500000 0.552914 0.405239
Si Si3 0.250000 0.093682 0.250000
Si Si4 0.000000 0.146711 0.739328
Si Si5 0.881551 0.269316 0.833153
Si Si6 0.500000 0.534879 0.100138
O O1 0.866864 0.150053 0.888716
O O2 0.915938 0.925640 0.892660
O O3 0.790489 0.980932 0.824600
O O4 0.816483 0.000000 0.000000
O O5 0.500000 0.500000 0.500000
O O6 0.500000 0.439846 0.341012
O O7 0.569049 0.635851 0.384453
O O8 0.190774 0.172707 0.298875
O O9 0.930070 0.227623 0.751837
O O10 0.000000 0.062731 0.823794
O O11 0.500000 0.500000 0.000000
#
# Coordination Sequence:
#
# PCOD9480811 Si02
#       6
#    16   8   8   8  16   8
#     4  10  22  40  63  90 122 163 211 259 309 372
#     4  11  24  41  66  98 127 157 204 266 316 371
#     4  12  24  38  62  92 130 170 206 254 306 372
#     4   9  19  39  60  85 123 158 201 256 309 369
#     4  10  22  40  62  90 123 165 211 254 314 369
#     4   8  15  34  62  83 104 145 203 256 296 342
#
# _framework density 19.900963000000001
#
# number of rings (size 3 to 8) (size 9 to 14) (size 15 to 20)
#    0.000    2.000    0.000    4.500    0.000    5.000 
#    0.000    7.500    0.000    0.000    0.000    0.000 
#    0.000    0.000    0.000    0.000    0.000    0.000 
#
# Total GULP energy -178210.817997 kJ/mol
# GULP energy per Si atom -5569.088062 kJ/mol
# Density = 1.985567 g / cm^3
# Si number density = 19.900963 Si / 1000 Ang^3
#
#
#
# Elastic Constant Matrix: (Units=GPa)
#
#
# Indices 1 2 3 4 5 6 
#
# 1 113.0370 29.0310 70.2531 0.0000 0.0000 0.0000
# 2 29.0310 86.0453 81.2030 0.0000 0.0000 0.0000
# 3 70.2531 81.2030 180.1838 0.0000 0.0000 0.0000
# 4 0.0000 0.0000 0.0000 23.3093 0.0000 0.0000
# 5 0.0000 0.0000 0.0000 0.0000 1.6445 0.0000
# 6 0.0000 0.0000 0.0000 0.0000 0.0000 16.5721
#
#
#
# Elastic Compliance Matrix: (Units=1/GPa)
#
#
# Indices 1 2 3 4 5 6 
#
# 1 0.011695 0.000622 -0.004840 0.000000 0.000000 0.000000
# 2 0.000622 0.020256 -0.009371 0.000000 0.000000 0.000000
# 3 -0.004840 -0.009371 0.011660 0.000000 0.000000 0.000000
# 4 0.000000 0.000000 0.000000 0.042901 0.000000 0.000000
# 5 0.000000 0.000000 0.000000 0.000000 0.608085 0.000000
# 6 0.000000 0.000000 0.000000 0.000000 0.000000 0.060342
#
#
# Mechanical properties :
#
#
# Convention : Reuss Voigt Hill
#
# Bulk Modulus (GPa) = 60.85510 82.24892 71.55201
# Shear Modulus (GPa) = 6.34843 21.55711 13.95277
#
# Velocity S-wave (km/s) = 1.78800 3.29480 2.65072
# Velocity P-wave (km/s) = 5.90829 7.47617 6.73799
#
# Compressibility (1/GPa) = 0.01643248
#
# Stress axis : x y z
#
# Youngs Moduli (GPa) = 85.50567 49.36902 85.76111
#
# Poissons Ratio (x) = -0.03071 0.41510
# Poissons Ratio (y) = -0.05318 0.80367
# Poissons Ratio (z) = 0.41386 0.46264
#
# Static dielectric constant tensor:
#      x y z
#    x 1.752660 0.000000 0.000000 
#    y 0.000000 1.704540 0.000000 
#    z 0.000000 0.000000 1.660620 
# 
# From -- ./inp_files/24945.got.cif
#   From: 2010.05.17/outbox.cif.g08.bks.cpg/sg64_13_cif.got.tgz:24945.got - 2010.06.03 16:29:19.
