data_PCOD9480167
_publ_section_title
;
Structure prediction by ZEFSAII (Michael W. Deem and Ramdas Pophale) SiO2 
 PCOD9480167
Probable space group: C M C A
;
_chemical_formula_sum "Si O2"
_cell_formula_units_Z 88
_cell_length_a 14.842573
_cell_length_b 23.399166
_cell_length_c 12.463181
_cell_angle_alpha 90.000000
_cell_angle_beta 90.000000
_cell_angle_gamma 90.000000
_cell_volume 4328.510489
_symmetry_space_group_name_H-M "C M C A"
_symmetry_group_IT_number 64
_symmetry_cell_setting 'orthorhombic'
loop_
_space_group_symop_operation_xyz
x,y,z
-x,1/2-y,1/2+z
x,-y,-z
-x,1/2+y,1/2-z
-x,-y,-z
x,1/2+y,1/2-z
-x,y,z
x,1/2-y,1/2+z
1/2+x,1/2+y,z
1/2-x,-y,1/2+z
1/2+x,1/2-y,-z
1/2-x,y,1/2-z
1/2-x,1/2-y,-z
1/2+x,y,1/2-z
1/2-x,1/2+y,z
1/2+x,-y,1/2+z
loop_
_atom_site_type_symbol
_atom_site_label
_atom_site_fract_x
_atom_site_fract_y
_atom_site_fract_z
Si Si1 0.104245 0.120138 0.885319
Si Si2 0.820655 0.075110 0.099469
Si Si3 0.773489 0.797705 0.862197
Si Si4 0.607774 0.755009 0.463584
Si Si5 0.106432 0.479380 0.238945
Si Si6 0.331265 0.500000 0.500000
O O1 0.136564 0.184870 0.905784
O O2 0.142914 0.079261 0.792866
O O3 0.000000 0.127987 0.859189
O O4 0.112636 0.086405 0.998885
O O5 0.801867 0.136741 0.148519
O O6 0.850343 0.030775 0.191129
O O7 0.732862 0.050954 0.039973
O O8 0.750000 0.770721 0.750000
O O9 0.678685 0.792574 0.925325
O O10 0.858586 0.766915 0.916000
O O11 0.500000 0.745288 0.453419
O O12 0.000000 0.482551 0.260171
O O13 0.119561 0.482921 0.110760
#
# Coordination Sequence:
#
# PCOD9480167 Si02
#       6
#    16  16  16  16  16   8
#     4   9  18  36  62  89 115 153 205 249 293 358
#     4  11  21  37  62  87 118 157 201 246 301 358
#     4  10  21  39  60  91 122 156 208 252 303 367
#     4   9  20  40  62  89 122 158 203 256 304 360
#     4  11  22  38  58  88 124 161 199 243 302 367
#     4  12  23  36  55  90 128 158 192 242 307 366
#
# _framework density 20.330321000000001
#
# number of rings (size 3 to 8) (size 9 to 14) (size 15 to 20)
#    0.000    1.818    1.818    2.455    0.000    2.909 
#    9.818    3.636    0.000    0.000    0.000    0.000 
#    0.000    0.000    0.000    0.000    0.000    0.000 
#
# Total GULP energy -245013.785411 kJ/mol
# GULP energy per Si atom -5568.495123 kJ/mol
# Density = 2.028405 g / cm^3
# Si number density = 20.330321 Si / 1000 Ang^3
#
#
#
# Elastic Constant Matrix: (Units=GPa)
#
#
# Indices 1 2 3 4 5 6 
#
# 1 72.7882 6.5522 6.5296 0.0000 0.0000 0.0000
# 2 6.5522 30.4956 16.9906 0.0000 0.0000 0.0000
# 3 6.5296 16.9906 102.3849 0.0000 0.0000 0.0000
# 4 0.0000 0.0000 0.0000 -35.0770 0.0000 0.0000
# 5 0.0000 0.0000 0.0000 0.0000 22.7367 0.0000
# 6 0.0000 0.0000 0.0000 0.0000 0.0000 13.0151
#
#
#
# Elastic Compliance Matrix: (Units=1/GPa)
#
#
# Indices 1 2 3 4 5 6 
#
# 1 0.014027 -0.002772 -0.000435 0.000000 0.000000 0.000000
# 2 -0.002772 0.036680 -0.005910 0.000000 0.000000 0.000000
# 3 -0.000435 -0.005910 0.010776 0.000000 0.000000 0.000000
# 4 0.000000 0.000000 0.000000 -0.028509 0.000000 0.000000
# 5 0.000000 0.000000 0.000000 0.000000 0.043982 0.000000
# 6 0.000000 0.000000 0.000000 0.000000 0.000000 0.076834
#
#
# Mechanical properties :
#
#
# Convention : Reuss Voigt Hill
#
# Bulk Modulus (GPa) = 23.12162 29.53483 26.32823
# Shear Modulus (GPa) = 26.81845 11.84138 19.32992
#
# Velocity S-wave (km/s) = 3.63593 2.41602 3.08684
# Velocity P-wave (km/s) = 5.38742 4.72672 5.06785
#
# Compressibility (1/GPa) = 0.04324956
#
# Stress axis : x y z
#
# Youngs Moduli (GPa) = 71.29121 27.26285 92.80246
#
# Poissons Ratio (x) = 0.07556 0.04033
# Poissons Ratio (y) = 0.19759 0.54848
# Poissons Ratio (z) = 0.03099 0.16113
#
# Static dielectric constant tensor:
#      x y z
#    x 1.728300 0.000000 0.000000 
#    y 0.000000 1.747870 0.000000 
#    z 0.000000 0.000000 1.882450 
# 
# From -- ./inp_files/14566.got.cif
#   From: 2010.05.17/outbox.cif.g08.bks.cpg/sg64_8_cif.got.tgz:14566.got - 2010.06.03 16:29:19.
