data_PCOD9480052
_publ_section_title
;
Structure prediction by ZEFSAII (Michael W. Deem and Ramdas Pophale) SiO2 
 PCOD9480052
Probable space group: C M C A
;
_chemical_formula_sum "Si O2"
_cell_formula_units_Z 72
_cell_length_a 29.111881
_cell_length_b 8.401277
_cell_length_c 13.569691
_cell_angle_alpha 90.000000
_cell_angle_beta 90.000000
_cell_angle_gamma 90.000000
_cell_volume 3318.833994
_symmetry_space_group_name_H-M "C M C A"
_symmetry_group_IT_number 64
_symmetry_cell_setting 'orthorhombic'
loop_
_space_group_symop_operation_xyz
x,y,z
-x,1/2-y,1/2+z
x,-y,-z
-x,1/2+y,1/2-z
-x,-y,-z
x,1/2+y,1/2-z
-x,y,z
x,1/2-y,1/2+z
1/2+x,1/2+y,z
1/2-x,-y,1/2+z
1/2+x,1/2-y,-z
1/2-x,y,1/2-z
1/2-x,1/2-y,-z
1/2+x,y,1/2-z
1/2-x,1/2+y,z
1/2+x,-y,1/2+z
loop_
_atom_site_type_symbol
_atom_site_label
_atom_site_fract_x
_atom_site_fract_y
_atom_site_fract_z
Si Si1 0.398125 0.841993 0.935201
Si Si2 0.444629 0.338472 0.901323
Si Si3 0.554410 0.476562 0.274406
Si Si4 0.250000 0.671619 0.750000
Si Si5 0.794117 0.926789 0.608783
O O1 0.428270 0.877035 0.840260
O O2 0.344983 0.856463 0.906741
O O3 0.415322 0.698312 0.002375
O O4 0.407071 0.000000 0.000000
O O5 0.500000 0.343398 0.922920
O O6 0.429347 0.488516 0.835981
O O7 0.435413 0.185802 0.830753
O O8 0.500000 0.486834 0.268880
O O9 0.211792 0.561261 0.805181
O O10 0.233676 0.782377 0.659263
O O11 0.780582 0.000000 0.500000
#
# Coordination Sequence:
#
# PCOD9480052 Si02
#       5
#    16  16  16   8  16
#     4   9  18  31  51  76 104 139 178 217 265 323
#     4   9  17  31  51  75 106 145 184 221 265 317
#     4   9  17  30  49  73 103 139 177 215 257 311
#     4  10  22  40  62  86 112 146 186 234 292 350
#     4  10  21  38  61  86 114 146 185 233 287 344
#
# _framework density 21.694365999999999
#
# number of rings (size 3 to 8) (size 9 to 14) (size 15 to 20)
#    0.000    2.667    0.000    1.333    0.000    8.000 
#    0.000    1.111    0.000   21.333    0.000    0.000 
#    0.000    0.000    0.000    0.000    0.000    0.000 
#
# Total GULP energy -200473.452455 kJ/mol
# GULP energy per Si atom -5568.707013 kJ/mol
# Density = 2.164499 g / cm^3
# Si number density = 21.694366 Si / 1000 Ang^3
#
#
#
# Elastic Constant Matrix: (Units=GPa)
#
#
# Indices 1 2 3 4 5 6 
#
# 1 174.0139 23.1731 94.6472 0.0000 0.0000 0.0000
# 2 23.1731 64.9065 48.3220 0.0000 0.0000 0.0000
# 3 94.6472 48.3220 137.5147 0.0000 0.0000 0.0000
# 4 0.0000 0.0000 0.0000 48.4434 0.0000 0.0000
# 5 0.0000 0.0000 0.0000 0.0000 38.3867 0.0000
# 6 0.0000 0.0000 0.0000 0.0000 0.0000 51.7631
#
#
#
# Elastic Compliance Matrix: (Units=1/GPa)
#
#
# Indices 1 2 3 4 5 6 
#
# 1 0.009368 0.001971 -0.007140 0.000000 0.000000 0.000000
# 2 0.001971 0.021280 -0.008835 0.000000 0.000000 0.000000
# 3 -0.007140 -0.008835 0.015291 0.000000 0.000000 0.000000
# 4 0.000000 0.000000 0.000000 0.020643 0.000000 0.000000
# 5 0.000000 0.000000 0.000000 0.000000 0.026051 0.000000
# 6 0.000000 0.000000 0.000000 0.000000 0.000000 0.019319
#
#
# Mechanical properties :
#
#
# Convention : Reuss Voigt Hill
#
# Bulk Modulus (GPa) = 55.76698 78.74664 67.25681
# Shear Modulus (GPa) = 34.26179 41.73816 37.99997
#
# Velocity S-wave (km/s) = 3.97834 4.39101 4.18976
# Velocity P-wave (km/s) = 6.84577 7.87940 7.38070
#
# Compressibility (1/GPa) = 0.01793176
#
# Stress axis : x y z
#
# Youngs Moduli (GPa) = 106.74874 46.99207 65.39873
#
# Poissons Ratio (x) = -0.09264 0.46697
# Poissons Ratio (y) = -0.21044 0.57777
# Poissons Ratio (z) = 0.76222 0.41515
#
# Static dielectric constant tensor:
#      x y z
#    x 1.756330 0.000000 0.000000 
#    y 0.000000 1.883250 0.000000 
#    z 0.000000 0.000000 1.730140 
# 
# From -- ./inp_files/27807.got.cif
#   From: 2010.05.17/outbox.cif.g08.bks.cpg/sg64_14_cif.got.tgz:27807.got - 2010.06.03 16:29:19.
