data_PCOD9480426
_publ_section_title
;
Structure prediction by ZEFSAII (Michael W. Deem and Ramdas Pophale) SiO2 
 PCOD9480426
Probable space group: C M C A
;
_chemical_formula_sum "Si O2"
_cell_formula_units_Z 68
_cell_length_a 19.827850
_cell_length_b 19.303177
_cell_length_c 8.243383
_cell_angle_alpha 90.000000
_cell_angle_beta 90.000000
_cell_angle_gamma 90.000000
_cell_volume 3155.076515
_symmetry_space_group_name_H-M "C M C A"
_symmetry_group_IT_number 64
_symmetry_cell_setting 'orthorhombic'
loop_
_space_group_symop_operation_xyz
x,y,z
-x,1/2-y,1/2+z
x,-y,-z
-x,1/2+y,1/2-z
-x,-y,-z
x,1/2+y,1/2-z
-x,y,z
x,1/2-y,1/2+z
1/2+x,1/2+y,z
1/2-x,-y,1/2+z
1/2+x,1/2-y,-z
1/2-x,y,1/2-z
1/2-x,1/2-y,-z
1/2+x,y,1/2-z
1/2-x,1/2+y,z
1/2+x,-y,1/2+z
loop_
_atom_site_type_symbol
_atom_site_label
_atom_site_fract_x
_atom_site_fract_y
_atom_site_fract_z
Si Si1 0.605371 0.115298 0.582336
Si Si2 0.000000 0.500000 0.500000
Si Si3 0.365846 0.424126 0.447670
Si Si4 0.000000 0.719313 0.713724
Si Si5 0.755376 0.170957 0.057151
Si Si6 0.000000 0.642485 0.059686
O O1 0.558611 0.061151 0.488655
O O2 0.616676 0.079816 0.758086
O O3 0.564473 0.185699 0.624519
O O4 0.675070 0.135871 0.499755
O O5 0.343727 0.500000 0.500000
O O6 0.307271 0.369948 0.481872
O O7 0.433250 0.403639 0.547103
O O8 0.000000 0.801799 0.702890
O O9 0.000000 0.689685 0.895830
O O10 0.750000 0.168213 0.250000
O O11 0.750000 0.250000 0.000000
#
# Coordination Sequence:
#
# PCOD9480426 Si02
#       6
#    16   4  16   8  16   8
#     4  10  23  45  68  98 143 178 239 284 356 417
#     4  10  24  42  74  98 144 188 226 292 344 428
#     4  11  25  43  69 101 140 187 231 299 353 424
#     4   9  20  39  65  93 126 183 219 292 333 413
#     4  12  27  46  72 105 141 188 239 297 360 430
#     4  10  21  41  63  98 136 172 240 278 357 406
#
# _framework density 21.552565999999999
#
# number of rings (size 3 to 8) (size 9 to 14) (size 15 to 20)
#    0.000    1.412    0.000    4.588    4.941    5.647 
#    4.235    0.000    0.000    0.000    0.000    0.000 
#    0.000    0.000    0.000    0.000    0.000    0.000 
#
# Total GULP energy -189835.987722 kJ/mol
# GULP energy per Si atom -5583.411404 kJ/mol
# Density = 2.150351 g / cm^3
# Si number density = 21.552566 Si / 1000 Ang^3
#
#
#
# Elastic Constant Matrix: (Units=GPa)
#
#
# Indices 1 2 3 4 5 6 
#
# 1 154.3378 50.1483 4.7221 0.0000 0.0000 0.0000
# 2 50.1483 138.3411 1.4082 0.0000 0.0000 0.0000
# 3 4.7221 1.4082 34.8343 0.0000 0.0000 0.0000
# 4 0.0000 0.0000 0.0000 24.2239 0.0000 0.0000
# 5 0.0000 0.0000 0.0000 0.0000 5.8379 0.0000
# 6 0.0000 0.0000 0.0000 0.0000 0.0000 62.8380
#
#
#
# Elastic Compliance Matrix: (Units=1/GPa)
#
#
# Indices 1 2 3 4 5 6 
#
# 1 0.007372 -0.002663 -0.000892 0.000000 0.000000 0.000000
# 2 -0.002663 0.008194 0.000030 0.000000 0.000000 0.000000
# 3 -0.000892 0.000030 0.028827 0.000000 0.000000 0.000000
# 4 0.000000 0.000000 0.000000 0.041282 0.000000 0.000000
# 5 0.000000 0.000000 0.000000 0.000000 0.171296 0.000000
# 6 0.000000 0.000000 0.000000 0.000000 0.000000 0.015914
#
#
# Mechanical properties :
#
#
# Convention : Reuss Voigt Hill
#
# Bulk Modulus (GPa) = 26.77926 48.89673 37.83800
# Shear Modulus (GPa) = 17.10094 36.66227 26.88161
#
# Velocity S-wave (km/s) = 2.81989 4.12887 3.53549
# Velocity P-wave (km/s) = 4.80150 6.74289 5.85324
#
# Compressibility (1/GPa) = 0.03734233
#
# Stress axis : x y z
#
# Youngs Moduli (GPa) = 135.64976 122.04617 34.68971
#
# Poissons Ratio (x) = 0.32504 0.03093
# Poissons Ratio (y) = 0.36127 -0.00103
# Poissons Ratio (z) = 0.12096 -0.00364
#
# Static dielectric constant tensor:
#      x y z
#    x 1.755260 0.000000 0.000000 
#    y 0.000000 1.730080 0.000000 
#    z 0.000000 0.000000 1.087480 
# 
# From -- ./inp_files/6735.got.cif
#   From: 2010.05.17/outbox.cif.g08.bks.cpg/sg64_4_cif.got.tgz:6735.got - 2010.06.03 16:29:19.
