data_PCOD9480697
_publ_section_title
;
Structure prediction by ZEFSAII (Michael W. Deem and Ramdas Pophale) SiO2 
 PCOD9480697
Probable space group: C M C A
;
_chemical_formula_sum "Si O2"
_cell_formula_units_Z 112
_cell_length_a 13.860521
_cell_length_b 32.727523
_cell_length_c 12.418522
_cell_angle_alpha 90.000000
_cell_angle_beta 90.000000
_cell_angle_gamma 90.000000
_cell_volume 5633.296405
_symmetry_space_group_name_H-M "C M C A"
_symmetry_group_IT_number 64
_symmetry_cell_setting 'orthorhombic'
loop_
_space_group_symop_operation_xyz
x,y,z
-x,1/2-y,1/2+z
x,-y,-z
-x,1/2+y,1/2-z
-x,-y,-z
x,1/2+y,1/2-z
-x,y,z
x,1/2-y,1/2+z
1/2+x,1/2+y,z
1/2-x,-y,1/2+z
1/2+x,1/2-y,-z
1/2-x,y,1/2-z
1/2-x,1/2-y,-z
1/2+x,y,1/2-z
1/2-x,1/2+y,z
1/2+x,-y,1/2+z
loop_
_atom_site_type_symbol
_atom_site_label
_atom_site_fract_x
_atom_site_fract_y
_atom_site_fract_z
Si Si1 0.799492 0.960746 0.074166
Si Si2 0.388263 0.938710 0.203181
Si Si3 0.793915 0.872813 0.993062
Si Si4 0.616778 0.774605 0.125278
Si Si5 0.113754 0.168981 0.433686
Si Si6 0.614883 0.347311 0.213531
Si Si7 0.615588 0.184659 0.316906
O O1 0.690402 0.955487 0.119869
O O2 0.865767 0.959645 0.181132
O O3 0.821941 0.919712 0.007413
O O4 0.810462 0.000000 0.000000
O O5 0.500000 0.943946 0.173167
O O6 0.369323 0.890287 0.224596
O O7 0.679758 0.867489 0.976353
O O8 0.840963 0.850092 0.892169
O O9 0.829481 0.850258 0.101295
O O10 0.500000 0.772320 0.129569
O O11 0.642630 0.808755 0.213680
O O12 0.653193 0.729413 0.149462
O O13 0.640695 0.792255 0.007906
O O14 0.133490 0.177228 0.308945
O O15 0.000000 0.161094 0.448422
O O16 0.500000 0.344738 0.191507
O O17 0.500000 0.184282 0.331621
#
# Coordination Sequence:
#
# PCOD9480697 Si02
#       7
#    16  16  16  16  16  16  16
#     4  10  22  40  63  91 124 155 193 254 310 358
#     4   9  19  39  64  92 122 154 199 247 297 359
#     4  11  22  38  61  86 114 155 197 241 299 360
#     4   9  19  35  58  83 116 157 195 243 290 332
#     4  10  22  40  55  78 118 160 199 241 289 347
#     4   9  18  35  62  91 116 149 195 246 293 343
#     4  10  22  39  57  82 120 158 197 241 289 353
#
# _framework density 19.881788
#
# number of rings (size 3 to 8) (size 9 to 14) (size 15 to 20)
#    0.000    2.286    0.000    1.714    2.000    5.143 
#    7.714    0.000    0.000    0.000    0.000    0.000 
#    0.000    0.000    0.000    0.000    0.000    0.000 
#
# Total GULP energy -312977.298832 kJ/mol
# GULP energy per Si atom -5588.880336 kJ/mol
# Density = 1.983654 g / cm^3
# Si number density = 19.881788 Si / 1000 Ang^3
#
#
#
# Elastic Constant Matrix: (Units=GPa)
#
#
# Indices 1 2 3 4 5 6 
#
# 1 55.5788 13.5954 34.8615 0.0000 0.0000 0.0000
# 2 13.5954 109.3738 71.1709 0.0000 0.0000 0.0000
# 3 34.8615 71.1709 122.9997 0.0000 0.0000 0.0000
# 4 0.0000 0.0000 0.0000 30.7519 0.0000 0.0000
# 5 0.0000 0.0000 0.0000 0.0000 29.1206 0.0000
# 6 0.0000 0.0000 0.0000 0.0000 0.0000 19.9083
#
#
#
# Elastic Compliance Matrix: (Units=1/GPa)
#
#
# Indices 1 2 3 4 5 6 
#
# 1 0.022191 0.002140 -0.007528 0.000000 0.000000 0.000000
# 2 0.002140 0.014871 -0.009211 0.000000 0.000000 0.000000
# 3 -0.007528 -0.009211 0.015594 0.000000 0.000000 0.000000
# 4 0.000000 0.000000 0.000000 0.032518 0.000000 0.000000
# 5 0.000000 0.000000 0.000000 0.000000 0.034340 0.000000
# 6 0.000000 0.000000 0.000000 0.000000 0.000000 0.050230
#
#
# Mechanical properties :
#
#
# Convention : Reuss Voigt Hill
#
# Bulk Modulus (GPa) = 42.63074 58.57868 50.60471
# Shear Modulus (GPa) = 24.18258 27.17779 25.68018
#
# Velocity S-wave (km/s) = 3.49136 3.70127 3.59784
# Velocity P-wave (km/s) = 6.14341 6.91327 6.53968
#
# Compressibility (1/GPa) = 0.02345725
#
# Stress axis : x y z
#
# Youngs Moduli (GPa) = 45.06382 67.24595 64.12924
#
# Poissons Ratio (x) = -0.14391 0.48275
# Poissons Ratio (y) = -0.09644 0.59071
# Poissons Ratio (z) = 0.33923 0.61941
#
# Static dielectric constant tensor:
#      x y z
#    x 1.748880 0.000000 0.000000 
#    y 0.000000 1.667230 0.000000 
#    z 0.000000 0.000000 1.682470 
# 
# From -- ./inp_files/14935.got.cif
#   From: 2010.05.17/outbox.cif.g08.bks.cpg/sg64_8_cif.got.tgz:14935.got - 2010.06.03 16:29:19.
