data_PCOD9480939
_publ_section_title
;
Structure prediction by ZEFSAII (Michael W. Deem and Ramdas Pophale) SiO2 
 PCOD9480939
Probable space group: C M C A
;
_chemical_formula_sum "Si O2"
_cell_formula_units_Z 56
_cell_length_a 17.494334
_cell_length_b 8.036026
_cell_length_c 15.692109
_cell_angle_alpha 90.000000
_cell_angle_beta 90.000000
_cell_angle_gamma 90.000000
_cell_volume 2206.073934
_symmetry_space_group_name_H-M "C M C A"
_symmetry_group_IT_number 64
_symmetry_cell_setting 'orthorhombic'
loop_
_space_group_symop_operation_xyz
x,y,z
-x,1/2-y,1/2+z
x,-y,-z
-x,1/2+y,1/2-z
-x,-y,-z
x,1/2+y,1/2-z
-x,y,z
x,1/2-y,1/2+z
1/2+x,1/2+y,z
1/2-x,-y,1/2+z
1/2+x,1/2-y,-z
1/2-x,y,1/2-z
1/2-x,1/2-y,-z
1/2+x,y,1/2-z
1/2-x,1/2+y,z
1/2+x,-y,1/2+z
loop_
_atom_site_type_symbol
_atom_site_label
_atom_site_fract_x
_atom_site_fract_y
_atom_site_fract_z
Si Si1 0.189352 0.905688 0.175912
Si Si2 0.090268 0.669707 0.950849
Si Si3 0.411921 0.196990 0.269175
Si Si4 0.184349 0.500000 0.500000
O O1 0.250000 0.923610 0.250000
O O2 0.117927 0.029603 0.187398
O O3 0.146422 0.733051 0.192537
O O4 0.227012 0.949243 0.086255
O O5 0.097350 0.670448 0.847227
O O6 0.000000 0.698308 0.967313
O O7 0.110763 0.500000 0.000000
O O8 0.135613 0.832358 0.983192
O O9 0.500000 0.189643 0.243653
#
# Coordination Sequence:
#
# PCOD9480939 Si02
#       4
#    16  16  16   8
#     4  11  24  45  67  99 135 180 228 282 347 414
#     4   9  19  37  63 100 135 173 226 283 341 406
#     4  10  22  41  66  98 134 175 226 279 339 407
#     4  10  23  42  68  92 137 186 230 280 350 416
#
# _framework density 25.384461999999999
#
# number of rings (size 3 to 8) (size 9 to 14) (size 15 to 20)
#    0.000    2.000    0.000    2.143    4.000    3.429 
#    2.571    4.286    0.000    0.000    0.000    0.000 
#    0.000    0.000    0.000    0.000    0.000    0.000 
#
# Total GULP energy -156582.446580 kJ/mol
# GULP energy per Si atom -5592.230235 kJ/mol
# Density = 2.532669 g / cm^3
# Si number density = 25.384462 Si / 1000 Ang^3
#
#
#
# Elastic Constant Matrix: (Units=GPa)
#
#
# Indices 1 2 3 4 5 6 
#
# 1 110.1978 12.7411 48.7752 0.0000 0.0000 0.0000
# 2 12.7411 89.9515 0.1095 0.0000 0.0000 0.0000
# 3 48.7752 0.1095 126.4025 0.0000 0.0000 0.0000
# 4 0.0000 0.0000 0.0000 30.0476 0.0000 0.0000
# 5 0.0000 0.0000 0.0000 0.0000 61.7191 0.0000
# 6 0.0000 0.0000 0.0000 0.0000 0.0000 -10.3513
#
#
#
# Elastic Compliance Matrix: (Units=1/GPa)
#
#
# Indices 1 2 3 4 5 6 
#
# 1 0.011163 -0.001576 -0.004306 0.000000 0.000000 0.000000
# 2 -0.001576 0.011340 0.000598 0.000000 0.000000 0.000000
# 3 -0.004306 0.000598 0.009572 0.000000 0.000000 0.000000
# 4 0.000000 0.000000 0.000000 0.033281 0.000000 0.000000
# 5 0.000000 0.000000 0.000000 0.000000 0.016202 0.000000
# 6 0.000000 0.000000 0.000000 0.000000 0.000000 -0.096606
#
#
# Mechanical properties :
#
#
# Convention : Reuss Voigt Hill
#
# Bulk Modulus (GPa) = 46.49582 49.97817 48.23700
# Shear Modulus (GPa) = 1860.48461 33.94482 947.21471
#
# Velocity S-wave (km/s) = 27.10191 3.66078 19.33798
# Velocity P-wave (km/s) = 31.58652 6.13185 22.75201
#
# Compressibility (1/GPa) = 0.02150731
#
# Stress axis : x y z
#
# Youngs Moduli (GPa) = 89.58406 88.18662 104.46830
#
# Poissons Ratio (x) = 0.13897 0.44984
# Poissons Ratio (y) = 0.14117 -0.06250
# Poissons Ratio (z) = 0.38575 -0.05276
#
# Static dielectric constant tensor:
#      x y z
#    x 1.933230 0.000000 0.000000 
#    y 0.000000 2.035830 0.000000 
#    z 0.000000 0.000000 2.119190 
# 
# From -- ./inp_files/25918.got.cif
#   From: 2010.05.17/outbox.cif.g08.bks.cpg/sg64_13_cif.got.tgz:25918.got - 2010.06.03 16:29:19.
