data_PCOD9480338
_publ_section_title
;
Structure prediction by ZEFSAII (Michael W. Deem and Ramdas Pophale) SiO2 
 PCOD9480338
Probable space group: C M C A
;
_chemical_formula_sum "Si O2"
_cell_formula_units_Z 96
_cell_length_a 20.379881
_cell_length_b 8.821173
_cell_length_c 26.873032
_cell_angle_alpha 90.000000
_cell_angle_beta 90.000000
_cell_angle_gamma 90.000000
_cell_volume 4831.084709
_symmetry_space_group_name_H-M "C M C A"
_symmetry_group_IT_number 64
_symmetry_cell_setting 'orthorhombic'
loop_
_space_group_symop_operation_xyz
x,y,z
-x,1/2-y,1/2+z
x,-y,-z
-x,1/2+y,1/2-z
-x,-y,-z
x,1/2+y,1/2-z
-x,y,z
x,1/2-y,1/2+z
1/2+x,1/2+y,z
1/2-x,-y,1/2+z
1/2+x,1/2-y,-z
1/2-x,y,1/2-z
1/2-x,1/2-y,-z
1/2+x,y,1/2-z
1/2-x,1/2+y,z
1/2+x,-y,1/2+z
loop_
_atom_site_type_symbol
_atom_site_label
_atom_site_fract_x
_atom_site_fract_y
_atom_site_fract_z
Si Si1 0.334680 0.721884 0.708095
Si Si2 0.927380 0.923522 0.553879
Si Si3 0.692378 0.867293 0.805330
Si Si4 0.681945 0.575294 0.054628
Si Si5 0.809439 0.752945 0.086055
Si Si6 0.922474 0.765645 0.388382
O O1 0.316802 0.544569 0.705112
O O2 0.349239 0.773010 0.764517
O O3 0.268641 0.817776 0.697768
O O4 0.388243 0.752070 0.665513
O O5 0.914405 0.061414 0.592207
O O6 0.000000 0.860615 0.564349
O O7 0.928180 0.000000 0.500000
O O8 0.871392 0.798122 0.553666
O O9 0.675447 0.821279 0.861017
O O10 0.743063 0.688352 0.061865
O O11 0.695653 0.432432 0.090505
O O12 0.616868 0.659896 0.072931
O O13 0.679691 0.500000 0.000000
O O14 0.000000 0.733191 0.387106
#
# Coordination Sequence:
#
# PCOD9480338 Si02
#       6
#    16  16  16  16  16  16
#     4  11  22  40  63  97 120 162 207 259 323 378
#     4  10  21  40  64  88 122 168 209 252 315 385
#     4  11  22  37  68  92 124 157 209 262 319 385
#     4  12  25  39  64  96 131 170 217 267 323 382
#     4  12  22  39  64  94 127 160 211 270 319 379
#     4  11  24  43  63  89 132 171 210 267 323 381
#
# _framework density 19.871313000000001
#
# number of rings (size 3 to 8) (size 9 to 14) (size 15 to 20)
#    0.000    0.833    3.333    6.000    2.333    1.000 
#    0.000    1.667    0.000    0.000    0.000    0.000 
#    0.000    0.000    0.000    0.000    0.000    0.000 
#
# Total GULP energy -268226.903052 kJ/mol
# GULP energy per Si atom -5588.060480 kJ/mol
# Density = 1.982608 g / cm^3
# Si number density = 19.871313 Si / 1000 Ang^3
#
#
#
# Elastic Constant Matrix: (Units=GPa)
#
#
# Indices 1 2 3 4 5 6 
#
# 1 113.7791 42.4323 28.8767 0.0000 0.0000 0.0000
# 2 42.4323 88.1177 4.4268 0.0000 0.0000 0.0000
# 3 28.8767 4.4268 103.0121 0.0000 0.0000 0.0000
# 4 0.0000 0.0000 0.0000 32.1055 0.0000 0.0000
# 5 0.0000 0.0000 0.0000 0.0000 24.1218 0.0000
# 6 0.0000 0.0000 0.0000 0.0000 0.0000 20.3121
#
#
#
# Elastic Compliance Matrix: (Units=1/GPa)
#
#
# Indices 1 2 3 4 5 6 
#
# 1 0.011576 -0.005423 -0.003012 0.000000 0.000000 0.000000
# 2 -0.005423 0.013913 0.000922 0.000000 0.000000 0.000000
# 3 -0.003012 0.000922 0.010512 0.000000 0.000000 0.000000
# 4 0.000000 0.000000 0.000000 0.031147 0.000000 0.000000
# 5 0.000000 0.000000 0.000000 0.000000 0.041456 0.000000
# 6 0.000000 0.000000 0.000000 0.000000 0.000000 0.049232
#
#
# Mechanical properties :
#
#
# Convention : Reuss Voigt Hill
#
# Bulk Modulus (GPa) = 47.67265 50.70897 49.19081
# Shear Modulus (GPa) = 27.80030 30.58608 29.19319
#
# Velocity S-wave (km/s) = 3.74440 3.92753 3.83706
# Velocity P-wave (km/s) = 6.53734 6.79275 6.66627
#
# Compressibility (1/GPa) = 0.02097639
#
# Stress axis : x y z
#
# Youngs Moduli (GPa) = 86.38740 71.87281 95.12683
#
# Poissons Ratio (x) = 0.38976 0.28651
# Poissons Ratio (y) = 0.46847 -0.08773
# Poissons Ratio (z) = 0.26019 -0.06628
#
# Static dielectric constant tensor:
#      x y z
#    x 1.679680 0.000000 0.000000 
#    y 0.000000 1.679880 0.000000 
#    z 0.000000 0.000000 1.993810 
# 
# From -- ./inp_files/50660.got.cif
#   From: 2010.05.17/outbox.cif.g08.bks.cpg/sg64_26_cif.got.tgz:50660.got - 2010.06.03 16:29:19.
