data_PCOD9480543
_publ_section_title
;
Structure prediction by ZEFSAII (Michael W. Deem and Ramdas Pophale) SiO2 
 PCOD9480543
Probable space group: C M C A
;
_chemical_formula_sum "Si O2"
_cell_formula_units_Z 96
_cell_length_a 24.614174
_cell_length_b 17.098722
_cell_length_c 11.858532
_cell_angle_alpha 90.000000
_cell_angle_beta 90.000000
_cell_angle_gamma 90.000000
_cell_volume 4990.911255
_symmetry_space_group_name_H-M "C M C A"
_symmetry_group_IT_number 64
_symmetry_cell_setting 'orthorhombic'
loop_
_space_group_symop_operation_xyz
x,y,z
-x,1/2-y,1/2+z
x,-y,-z
-x,1/2+y,1/2-z
-x,-y,-z
x,1/2+y,1/2-z
-x,y,z
x,1/2-y,1/2+z
1/2+x,1/2+y,z
1/2-x,-y,1/2+z
1/2+x,1/2-y,-z
1/2-x,y,1/2-z
1/2-x,1/2-y,-z
1/2+x,y,1/2-z
1/2-x,1/2+y,z
1/2+x,-y,1/2+z
loop_
_atom_site_type_symbol
_atom_site_label
_atom_site_fract_x
_atom_site_fract_y
_atom_site_fract_z
Si Si1 0.562877 0.409886 0.466141
Si Si2 0.165462 0.877411 0.045691
Si Si3 0.783148 0.082471 0.565320
Si Si4 0.845383 0.805383 0.584833
Si Si5 0.685686 0.900457 0.718298
Si Si6 0.127055 0.941289 0.258507
O O1 0.574867 0.500000 0.500000
O O2 0.500000 0.393039 0.488250
O O3 0.602077 0.350435 0.533596
O O4 0.576448 0.413207 0.333036
O O5 0.221221 0.910221 0.099561
O O6 0.156564 0.785442 0.058771
O O7 0.122107 0.917856 0.128147
O O8 0.173666 0.896836 0.914522
O O9 0.795693 0.151161 0.477416
O O10 0.823358 0.095692 0.668921
O O11 0.792331 0.000000 0.500000
O O12 0.834416 0.823352 0.716085
O O13 0.750000 0.915085 0.750000
O O14 0.646031 0.968619 0.763747
#
# Coordination Sequence:
#
# PCOD9480543 Si02
#       6
#    16  16  16  16  16  16
#     4  10  21  44  73  88 106 154 215 263 298 348
#     4  12  25  33  57  88 131 169 191 243 318 368
#     4  11  19  38  57  83 123 174 210 236 281 363
#     4  11  23  38  57  92 122 158 210 257 296 357
#     4  12  22  37  58  87 134 172 200 237 294 374
#     4  11  21  38  61  90 122 160 213 250 295 364
#
# _framework density 19.234964000000002
#
# number of rings (size 3 to 8) (size 9 to 14) (size 15 to 20)
#    0.000    0.833    5.000    4.500    4.667    0.000 
#    0.000    0.833    0.000    4.000    0.000    0.000 
#    0.000    0.000    0.000    0.000    0.000    0.000 
#
# Total GULP energy -267621.586009 kJ/mol
# GULP energy per Si atom -5575.449709 kJ/mol
# Density = 1.919118 g / cm^3
# Si number density = 19.234964 Si / 1000 Ang^3
#
#
#
# Elastic Constant Matrix: (Units=GPa)
#
#
# Indices 1 2 3 4 5 6 
#
# 1 46.5355 8.4770 6.6774 0.0000 0.0000 0.0000
# 2 8.4770 67.1757 10.1641 0.0000 0.0000 0.0000
# 3 6.6774 10.1641 110.5308 0.0000 0.0000 0.0000
# 4 0.0000 0.0000 0.0000 21.1576 0.0000 0.0000
# 5 0.0000 0.0000 0.0000 0.0000 15.1474 0.0000
# 6 0.0000 0.0000 0.0000 0.0000 0.0000 -4.8783
#
#
#
# Elastic Compliance Matrix: (Units=1/GPa)
#
#
# Indices 1 2 3 4 5 6 
#
# 1 0.022124 -0.002626 -0.001095 0.000000 0.000000 0.000000
# 2 -0.002626 0.015408 -0.001258 0.000000 0.000000 0.000000
# 3 -0.001095 -0.001258 0.009229 0.000000 0.000000 0.000000
# 4 0.000000 0.000000 0.000000 0.047264 0.000000 0.000000
# 5 0.000000 0.000000 0.000000 0.000000 0.066018 0.000000
# 6 0.000000 0.000000 0.000000 0.000000 0.000000 -0.204991
#
#
# Mechanical properties :
#
#
# Convention : Reuss Voigt Hill
#
# Bulk Modulus (GPa) = 27.17197 30.54212 28.85705
# Shear Modulus (GPa) = -220.06481 19.54693 -100.25894
#
# Velocity S-wave (km/s) = -10.70781 3.19128 -7.22748
# Velocity P-wave (km/s) = 11.77791 5.43065 7.39010
#
# Compressibility (1/GPa) = 0.03680263
#
# Stress axis : x y z
#
# Youngs Moduli (GPa) = 45.19880 64.90089 108.35283
#
# Poissons Ratio (x) = 0.17044 0.11866
# Poissons Ratio (y) = 0.11870 0.13633
# Poissons Ratio (z) = 0.04950 0.08166
#
# Static dielectric constant tensor:
#      x y z
#    x 1.660030 0.000000 0.000000 
#    y 0.000000 1.671490 0.000000 
#    z 0.000000 0.000000 1.767890 
# 
# From -- ./inp_files/19152.got.cif
#   From: 2010.05.17/outbox.cif.g08.bks.cpg/sg64_10_cif.got.tgz:19152.got - 2010.06.03 16:29:19.
