data_PCOD9480597
_publ_section_title
;
Structure prediction by ZEFSAII (Michael W. Deem and Ramdas Pophale) SiO2 
 PCOD9480597
Probable space group: C M C A
;
_chemical_formula_sum "Si O2"
_cell_formula_units_Z 88
_cell_length_a 30.722727
_cell_length_b 24.795401
_cell_length_c 5.278841
_cell_angle_alpha 90.000000
_cell_angle_beta 90.000000
_cell_angle_gamma 90.000000
_cell_volume 4021.327827
_symmetry_space_group_name_H-M "C M C A"
_symmetry_group_IT_number 64
_symmetry_cell_setting 'orthorhombic'
loop_
_space_group_symop_operation_xyz
x,y,z
-x,1/2-y,1/2+z
x,-y,-z
-x,1/2+y,1/2-z
-x,-y,-z
x,1/2+y,1/2-z
-x,y,z
x,1/2-y,1/2+z
1/2+x,1/2+y,z
1/2-x,-y,1/2+z
1/2+x,1/2-y,-z
1/2-x,y,1/2-z
1/2-x,1/2-y,-z
1/2+x,y,1/2-z
1/2-x,1/2+y,z
1/2+x,-y,1/2+z
loop_
_atom_site_type_symbol
_atom_site_label
_atom_site_fract_x
_atom_site_fract_y
_atom_site_fract_z
Si Si1 0.778842 0.563874 0.500298
Si Si2 0.500000 0.684186 0.147980
Si Si3 0.637610 0.500000 0.500000
Si Si4 0.000000 0.379393 0.134831
Si Si5 0.429038 0.449633 0.116159
Si Si6 0.359747 0.605521 0.216164
Si Si7 0.400927 0.718319 0.243706
O O1 0.792192 0.500000 0.500000
O O2 0.750000 0.572887 0.250000
O O3 0.820834 0.602448 0.487418
O O4 0.750000 0.571915 0.750000
O O5 0.500000 0.633536 0.339780
O O6 0.453859 0.710731 0.228201
O O7 0.500000 0.668344 0.849619
O O8 0.608345 0.520865 0.727628
O O9 0.656730 0.442837 0.596406
O O10 0.957783 0.413625 0.203299
O O11 0.454327 0.500000 0.000000
O O12 0.404955 0.413333 0.910927
O O13 0.373530 0.664343 0.310764
O O14 0.390319 0.761272 0.461827
#
# Coordination Sequence:
#
# PCOD9480597 Si02
#       7
#    16   8   8   8  16  16  16
#     4  10  23  40  66 104 140 177 213 268 343 421
#     4  12  24  45  66  92 128 177 241 300 339 382
#     4  10  22  37  68  98 132 182 218 286 344 417
#     4  12  23  38  64  90 130 180 216 283 338 412
#     4  10  22  37  57  93 132 179 220 272 336 414
#     4  11  24  42  69  99 140 177 232 281 353 412
#     4  12  27  46  71  98 133 185 239 294 344 400
#
# _framework density 21.883320999999999
#
# number of rings (size 3 to 8) (size 9 to 14) (size 15 to 20)
#    0.000    1.091    1.818    4.636   11.455    0.364 
#    0.000    0.000    0.000    3.273    0.000    0.000 
#    0.000    0.000    0.000    0.000    0.000    0.000 
#
# Total GULP energy -245565.485613 kJ/mol
# GULP energy per Si atom -5581.033764 kJ/mol
# Density = 2.183351 g / cm^3
# Si number density = 21.883321 Si / 1000 Ang^3
#
#
#
# Elastic Constant Matrix: (Units=GPa)
#
#
# Indices 1 2 3 4 5 6 
#
# 1 92.3005 30.2695 17.8809 0.0000 0.0000 0.0000
# 2 30.2695 80.3432 11.3308 0.0000 0.0000 0.0000
# 3 17.8809 11.3308 69.4415 0.0000 0.0000 0.0000
# 4 0.0000 0.0000 0.0000 36.1392 0.0000 0.0000
# 5 0.0000 0.0000 0.0000 0.0000 5.3309 0.0000
# 6 0.0000 0.0000 0.0000 0.0000 0.0000 9.5739
#
#
#
# Elastic Compliance Matrix: (Units=1/GPa)
#
#
# Indices 1 2 3 4 5 6 
#
# 1 0.012793 -0.004458 -0.002567 0.000000 0.000000 0.000000
# 2 -0.004458 0.014293 -0.001184 0.000000 0.000000 0.000000
# 3 -0.002567 -0.001184 0.015255 0.000000 0.000000 0.000000
# 4 0.000000 0.000000 0.000000 0.027671 0.000000 0.000000
# 5 0.000000 0.000000 0.000000 0.000000 0.187586 0.000000
# 6 0.000000 0.000000 0.000000 0.000000 0.000000 0.104450
#
#
# Mechanical properties :
#
#
# Convention : Reuss Voigt Hill
#
# Bulk Modulus (GPa) = 38.57555 40.11641 39.34598
# Shear Modulus (GPa) = 12.91629 22.38240 17.64934
#
# Velocity S-wave (km/s) = 2.43211 3.20160 2.84301
# Velocity P-wave (km/s) = 5.05500 5.66028 5.36618
#
# Compressibility (1/GPa) = 0.02592315
#
# Stress axis : x y z
#
# Youngs Moduli (GPa) = 78.16530 69.96349 65.55310
#
# Poissons Ratio (x) = 0.31189 0.16826
# Poissons Ratio (y) = 0.34846 0.07764
# Poissons Ratio (z) = 0.20064 0.08286
#
# Static dielectric constant tensor:
#      x y z
#    x 1.810480 0.000000 0.000000 
#    y 0.000000 1.885140 0.000000 
#    z 0.000000 0.000000 1.872670 
# 
# From -- ./inp_files/3341.got.cif
#   From: 2010.05.17/outbox.cif.g08.bks.cpg/sg64_2_cif.got.tgz:3341.got - 2010.06.03 16:29:19.
