data_PCOD9480560
_publ_section_title
;
Structure prediction by ZEFSAII (Michael W. Deem and Ramdas Pophale) SiO2 
 PCOD9480560
Probable space group: C M C A
;
_chemical_formula_sum "Si O2"
_cell_formula_units_Z 80
_cell_length_a 18.979249
_cell_length_b 26.774116
_cell_length_c 7.304265
_cell_angle_alpha 90.000000
_cell_angle_beta 90.000000
_cell_angle_gamma 90.000000
_cell_volume 3711.681355
_symmetry_space_group_name_H-M "C M C A"
_symmetry_group_IT_number 64
_symmetry_cell_setting 'orthorhombic'
loop_
_space_group_symop_operation_xyz
x,y,z
-x,1/2-y,1/2+z
x,-y,-z
-x,1/2+y,1/2-z
-x,-y,-z
x,1/2+y,1/2-z
-x,y,z
x,1/2-y,1/2+z
1/2+x,1/2+y,z
1/2-x,-y,1/2+z
1/2+x,1/2-y,-z
1/2-x,y,1/2-z
1/2-x,1/2-y,-z
1/2+x,y,1/2-z
1/2-x,1/2+y,z
1/2+x,-y,1/2+z
loop_
_atom_site_type_symbol
_atom_site_label
_atom_site_fract_x
_atom_site_fract_y
_atom_site_fract_z
Si Si1 0.146990 0.623293 0.025341
Si Si2 0.081162 0.653530 0.388791
Si Si3 0.269728 0.193206 0.460339
Si Si4 0.171326 0.480578 0.800798
Si Si5 0.581224 0.567055 0.823162
O O1 0.096426 0.652425 0.169375
O O2 0.213783 0.654877 0.951197
O O3 0.170735 0.578425 0.161778
O O4 0.109072 0.600561 0.847414
O O5 0.146840 0.683621 0.478001
O O6 0.086870 0.599680 0.491462
O O7 0.000000 0.670350 0.420527
O O8 0.250000 0.184066 0.250000
O O9 0.250000 0.250000 0.500000
O O10 0.250000 0.495413 0.750000
O O11 0.121877 0.514823 0.677770
O O12 0.151760 0.500000 0.000000
O O13 0.500000 0.556171 0.790619
#
# Coordination Sequence:
#
# PCOD9480560 Si02
#       5
#    16  16  16  16  16
#     4  10  22  40  62  85 124 160 204 256 301 364
#     4  10  22  40  62  89 125 158 200 255 307 366
#     4  10  23  41  65  93 117 159 211 258 315 371
#     4  10  22  35  57  88 120 162 203 250 296 365
#     4  10  23  38  60  92 123 164 204 245 304 366
#
# _framework density 21.553573
#
# number of rings (size 3 to 8) (size 9 to 14) (size 15 to 20)
#    0.000    2.000    0.000    2.400   11.200    4.400 
#    0.000    7.000    0.000    0.000    0.000    0.000 
#    0.000    0.000    0.000    0.000    0.000    0.000 
#
# Total GULP energy -222866.609558 kJ/mol
# GULP energy per Si atom -5571.665239 kJ/mol
# Density = 2.150452 g / cm^3
# Si number density = 21.553573 Si / 1000 Ang^3
#
#
#
# Elastic Constant Matrix: (Units=GPa)
#
#
# Indices 1 2 3 4 5 6 
#
# 1 189.9494 86.1809 36.8125 0.0000 0.0000 0.0000
# 2 86.1809 105.7937 1.9132 0.0000 0.0000 0.0000
# 3 36.8125 1.9132 92.0705 0.0000 0.0000 0.0000
# 4 0.0000 0.0000 0.0000 14.4864 0.0000 0.0000
# 5 0.0000 0.0000 0.0000 0.0000 24.4137 0.0000
# 6 0.0000 0.0000 0.0000 0.0000 0.0000 63.1572
#
#
#
# Elastic Compliance Matrix: (Units=1/GPa)
#
#
# Indices 1 2 3 4 5 6 
#
# 1 0.009413 -0.007602 -0.003605 0.000000 0.000000 0.000000
# 2 -0.007602 0.015596 0.002716 0.000000 0.000000 0.000000
# 3 -0.003605 0.002716 0.012246 0.000000 0.000000 0.000000
# 4 0.000000 0.000000 0.000000 0.069030 0.000000 0.000000
# 5 0.000000 0.000000 0.000000 0.000000 0.040961 0.000000
# 6 0.000000 0.000000 0.000000 0.000000 0.000000 0.015834
#
#
# Mechanical properties :
#
#
# Convention : Reuss Voigt Hill
#
# Bulk Modulus (GPa) = 49.33235 70.84739 60.08987
# Shear Modulus (GPa) = 26.76359 37.93860 32.35109
#
# Velocity S-wave (km/s) = 3.52763 4.20003 3.87843
# Velocity P-wave (km/s) = 6.28730 7.51412 6.92792
#
# Compressibility (1/GPa) = 0.02027068
#
# Stress axis : x y z
#
# Youngs Moduli (GPa) = 106.24149 64.11812 81.65683
#
# Poissons Ratio (x) = 0.48745 0.29441
# Poissons Ratio (y) = 0.80769 -0.22174
# Poissons Ratio (z) = 0.38305 -0.17412
#
# Static dielectric constant tensor:
#      x y z
#    x 1.791360 0.000000 0.000000 
#    y 0.000000 2.402760 0.000000 
#    z 0.000000 0.000000 1.838590 
# 
# From -- ./inp_files/7130.got.cif
#   From: 2010.05.17/outbox.cif.g08.bks.cpg/sg64_4_cif.got.tgz:7130.got - 2010.06.03 16:29:19.
