data_PCOD9480652
_publ_section_title
;
Structure prediction by ZEFSAII (Michael W. Deem and Ramdas Pophale) SiO2 
 PCOD9480652
Probable space group: C M C A
;
_chemical_formula_sum "Si O2"
_cell_formula_units_Z 88
_cell_length_a 25.233264
_cell_length_b 32.203851
_cell_length_c 4.974640
_cell_angle_alpha 90.000000
_cell_angle_beta 90.000000
_cell_angle_gamma 90.000000
_cell_volume 4042.433625
_symmetry_space_group_name_H-M "C M C A"
_symmetry_group_IT_number 64
_symmetry_cell_setting 'orthorhombic'
loop_
_space_group_symop_operation_xyz
x,y,z
-x,1/2-y,1/2+z
x,-y,-z
-x,1/2+y,1/2-z
-x,-y,-z
x,1/2+y,1/2-z
-x,y,z
x,1/2-y,1/2+z
1/2+x,1/2+y,z
1/2-x,-y,1/2+z
1/2+x,1/2-y,-z
1/2-x,y,1/2-z
1/2-x,1/2-y,-z
1/2+x,y,1/2-z
1/2-x,1/2+y,z
1/2+x,-y,1/2+z
loop_
_atom_site_type_symbol
_atom_site_label
_atom_site_fract_x
_atom_site_fract_y
_atom_site_fract_z
Si Si1 0.651577 0.500000 0.500000
Si Si2 0.813171 0.276355 0.242152
Si Si3 0.556668 0.460535 0.807328
Si Si4 0.214659 0.922616 0.487684
Si Si5 0.560594 0.631076 0.958327
Si Si6 0.372210 0.352147 0.546460
O O1 0.610553 0.470619 0.656077
O O2 0.689117 0.465170 0.370337
O O3 0.825105 0.262817 0.546305
O O4 0.750000 0.284679 0.250000
O O5 0.843587 0.314027 0.102481
O O6 0.500000 0.457793 0.651950
O O7 0.562136 0.417462 0.961956
O O8 0.552442 0.500000 0.000000
O O9 0.250000 0.904020 0.250000
O O10 0.170484 0.889055 0.566264
O O11 0.250000 0.932201 0.750000
O O12 0.500000 0.645560 0.985492
O O13 0.600307 0.653879 0.164780
O O14 0.581000 0.634680 0.656124
#
# Coordination Sequence:
#
# PCOD9480652 Si02
#       6
#     8  16  16  16  16  16
#     4  12  23  40  60  82 130 168 217 268 324 374
#     4  10  22  41  68 103 133 165 212 268 323 384
#     4  10  22  38  61  89 120 165 226 283 329 375
#     4  12  27  42  61  90 127 175 223 262 313 385
#     4  11  24  42  66  99 130 169 222 275 328 390
#     4  12  23  44  70  95 133 174 214 267 332 395
#
# _framework density 21.769065000000001
#
# number of rings (size 3 to 8) (size 9 to 14) (size 15 to 20)
#    0.000    0.909    1.818    5.182    2.545    2.182 
#    0.000    0.000    0.000   10.909    0.000    0.000 
#    0.000    0.000    0.000    0.000    0.000    0.000 
#
# Total GULP energy -245788.636885 kJ/mol
# GULP energy per Si atom -5586.105384 kJ/mol
# Density = 2.171952 g / cm^3
# Si number density = 21.769065 Si / 1000 Ang^3
#
#
#
# Elastic Constant Matrix: (Units=GPa)
#
#
# Indices 1 2 3 4 5 6 
#
# 1 103.6450 30.2249 18.5456 0.0000 0.0000 0.0000
# 2 30.2249 71.3392 -12.3444 0.0000 0.0000 0.0000
# 3 18.5456 -12.3444 71.4460 0.0000 0.0000 0.0000
# 4 0.0000 0.0000 0.0000 28.7198 0.0000 0.0000
# 5 0.0000 0.0000 0.0000 0.0000 30.2417 0.0000
# 6 0.0000 0.0000 0.0000 0.0000 0.0000 66.7269
#
#
#
# Elastic Compliance Matrix: (Units=1/GPa)
#
#
# Indices 1 2 3 4 5 6 
#
# 1 0.012094 -0.005842 -0.004149 0.000000 0.000000 0.000000
# 2 -0.005842 0.017271 0.004501 0.000000 0.000000 0.000000
# 3 -0.004149 0.004501 0.015851 0.000000 0.000000 0.000000
# 4 0.000000 0.000000 0.000000 0.034819 0.000000 0.000000
# 5 0.000000 0.000000 0.000000 0.000000 0.033067 0.000000
# 6 0.000000 0.000000 0.000000 0.000000 0.000000 0.014986
#
#
# Mechanical properties :
#
#
# Convention : Reuss Voigt Hill
#
# Bulk Modulus (GPa) = 29.20857 35.47580 32.34219
# Shear Modulus (GPa) = 33.22657 39.13795 36.18226
#
# Velocity S-wave (km/s) = 3.91105 4.24473 4.08130
# Velocity P-wave (km/s) = 5.81736 6.35259 6.09086
#
# Compressibility (1/GPa) = 0.03423652
#
# Stress axis : x y z
#
# Youngs Moduli (GPa) = 82.68354 57.89911 63.08713
#
# Poissons Ratio (x) = 0.33825 0.26173
# Poissons Ratio (y) = 0.48304 -0.28393
# Poissons Ratio (z) = 0.34303 -0.26058
#
# Static dielectric constant tensor:
#      x y z
#    x 1.850270 0.000000 0.000000 
#    y 0.000000 1.796840 0.000000 
#    z 0.000000 0.000000 1.809980 
# 
# From -- ./inp_files/2434.got.cif
#   From: 2010.05.17/outbox.cif.g08.bks.cpg/sg64_2_cif.got.tgz:2434.got - 2010.06.03 16:29:19.
