data_PCOD9480669
_publ_section_title
;
Structure prediction by ZEFSAII (Michael W. Deem and Ramdas Pophale) SiO2 
 PCOD9480669
Probable space group: C M C A
;
_chemical_formula_sum "Si O2"
_cell_formula_units_Z 80
_cell_length_a 23.385062
_cell_length_b 8.829647
_cell_length_c 18.554103
_cell_angle_alpha 90.000000
_cell_angle_beta 90.000000
_cell_angle_gamma 90.000000
_cell_volume 3831.085374
_symmetry_space_group_name_H-M "C M C A"
_symmetry_group_IT_number 64
_symmetry_cell_setting 'orthorhombic'
loop_
_space_group_symop_operation_xyz
x,y,z
-x,1/2-y,1/2+z
x,-y,-z
-x,1/2+y,1/2-z
-x,-y,-z
x,1/2+y,1/2-z
-x,y,z
x,1/2-y,1/2+z
1/2+x,1/2+y,z
1/2-x,-y,1/2+z
1/2+x,1/2-y,-z
1/2-x,y,1/2-z
1/2-x,1/2-y,-z
1/2+x,y,1/2-z
1/2-x,1/2+y,z
1/2+x,-y,1/2+z
loop_
_atom_site_type_symbol
_atom_site_label
_atom_site_fract_x
_atom_site_fract_y
_atom_site_fract_z
Si Si1 0.065049 0.733429 0.832012
Si Si2 0.672629 0.197353 0.108525
Si Si3 0.284945 0.529097 0.139934
Si Si4 0.874161 0.952080 0.737064
Si Si5 0.876208 0.665549 0.468303
O O1 0.108390 0.612311 0.796682
O O2 0.079465 0.893337 0.794156
O O3 0.078046 0.757380 0.916185
O O4 0.000000 0.687463 0.819649
O O5 0.704631 0.353817 0.124426
O O6 0.719976 0.069107 0.121856
O O7 0.627033 0.163938 0.170496
O O8 0.644064 0.222674 0.031446
O O9 0.314062 0.553614 0.218562
O O10 0.322711 0.625587 0.083568
O O11 0.894021 0.500000 0.500000
#
# Coordination Sequence:
#
# PCOD9480669 Si02
#       5
#    16  16  16  16  16
#     4  11  24  45  69  92 125 172 222 276 331 375
#     4  11  22  39  64  95 132 169 209 257 320 392
#     4  10  22  38  63  93 132 174 206 249 323 387
#     4  11  23  41  64  96 131 164 218 271 317 391
#     4   9  22  43  63  96 134 167 215 266 318 392
#
# _framework density 20.881810999999999
#
# number of rings (size 3 to 8) (size 9 to 14) (size 15 to 20)
#    0.000    1.600    2.000    1.800    5.600    2.800 
#    0.000    3.000    0.000    0.000    0.000    0.000 
#    0.000    0.000    0.000    0.000    0.000    0.000 
#
# Total GULP energy -223307.525943 kJ/mol
# GULP energy per Si atom -5582.688149 kJ/mol
# Density = 2.083428 g / cm^3
# Si number density = 20.881811 Si / 1000 Ang^3
#
#
#
# Elastic Constant Matrix: (Units=GPa)
#
#
# Indices 1 2 3 4 5 6 
#
# 1 54.9204 12.1195 25.8715 0.0000 0.0000 0.0000
# 2 12.1195 46.4279 38.4692 0.0000 0.0000 0.0000
# 3 25.8715 38.4692 136.1244 0.0000 0.0000 0.0000
# 4 0.0000 0.0000 0.0000 35.6489 0.0000 0.0000
# 5 0.0000 0.0000 0.0000 0.0000 18.3087 0.0000
# 6 0.0000 0.0000 0.0000 0.0000 0.0000 17.9705
#
#
#
# Elastic Compliance Matrix: (Units=1/GPa)
#
#
# Indices 1 2 3 4 5 6 
#
# 1 0.020262 -0.002740 -0.003077 0.000000 0.000000 0.000000
# 2 -0.002740 0.028495 -0.007532 0.000000 0.000000 0.000000
# 3 -0.003077 -0.007532 0.010060 0.000000 0.000000 0.000000
# 4 0.000000 0.000000 0.000000 0.028051 0.000000 0.000000
# 5 0.000000 0.000000 0.000000 0.000000 0.054619 0.000000
# 6 0.000000 0.000000 0.000000 0.000000 0.000000 0.055647
#
#
# Mechanical properties :
#
#
# Convention : Reuss Voigt Hill
#
# Bulk Modulus (GPa) = 31.13390 43.37700 37.25545
# Shear Modulus (GPa) = 21.31858 25.11978 23.21918
#
# Velocity S-wave (km/s) = 3.19864 3.47212 3.33818
# Velocity P-wave (km/s) = 5.34637 6.07387 5.72169
#
# Compressibility (1/GPa) = 0.03211933
#
# Stress axis : x y z
#
# Youngs Moduli (GPa) = 49.35317 35.09401 99.40820
#
# Poissons Ratio (x) = 0.09616 0.30584
# Poissons Ratio (y) = 0.13523 0.74874
# Poissons Ratio (z) = 0.15184 0.26433
#
# Static dielectric constant tensor:
#      x y z
#    x 1.747290 0.000000 0.000000 
#    y 0.000000 1.769340 0.000000 
#    z 0.000000 0.000000 1.778010 
# 
# From -- ./inp_files/35344.got.cif
#   From: 2010.05.17/outbox.cif.g08.bks.cpg/sg64_18_cif.got.tgz:35344.got - 2010.06.03 16:29:19.
