data_PCOD9480496
_publ_section_title
;
Structure prediction by ZEFSAII (Michael W. Deem and Ramdas Pophale) SiO2 
 PCOD9480496
Probable space group: C M C A
;
_chemical_formula_sum "Si O2"
_cell_formula_units_Z 68
_cell_length_a 16.000846
_cell_length_b 8.550592
_cell_length_c 17.853264
_cell_angle_alpha 90.000000
_cell_angle_beta 90.000000
_cell_angle_gamma 90.000000
_cell_volume 2442.624768
_symmetry_space_group_name_H-M "C M C A"
_symmetry_group_IT_number 64
_symmetry_cell_setting 'orthorhombic'
loop_
_space_group_symop_operation_xyz
x,y,z
-x,1/2-y,1/2+z
x,-y,-z
-x,1/2+y,1/2-z
-x,-y,-z
x,1/2+y,1/2-z
-x,y,z
x,1/2-y,1/2+z
1/2+x,1/2+y,z
1/2-x,-y,1/2+z
1/2+x,1/2-y,-z
1/2-x,y,1/2-z
1/2-x,1/2-y,-z
1/2+x,y,1/2-z
1/2-x,1/2+y,z
1/2+x,-y,1/2+z
loop_
_atom_site_type_symbol
_atom_site_label
_atom_site_fract_x
_atom_site_fract_y
_atom_site_fract_z
Si Si1 0.000000 0.984310 0.864956
Si Si2 0.000000 0.500000 0.000000
Si Si3 0.169177 0.580941 0.802334
Si Si4 0.500000 0.775613 0.260851
Si Si5 0.161810 0.668806 0.436590
Si Si6 0.653795 0.627993 0.418294
O O1 0.000000 0.882195 0.788034
O O2 0.917847 0.927750 0.908905
O O3 0.000000 0.171021 0.848959
O O4 0.073944 0.477423 0.938092
O O5 0.250000 0.587596 0.750000
O O6 0.178581 0.694450 0.874956
O O7 0.156002 0.400098 0.829041
O O8 0.085245 0.640234 0.764747
O O9 0.249865 0.581384 0.434768
O O10 0.144156 0.734170 0.520190
#
# Coordination Sequence:
#
# PCOD9480496 Si02
#       6
#     8   4  16   8  16  16
#     4  10  21  42  66  97 144 188 242 306 370 440
#     4  12  20  40  72  94 126 172 244 290 342 438
#     4  11  22  39  63  93 138 182 230 298 364 444
#     4  10  23  38  62  94 133 189 238 289 365 439
#     4  10  22  39  63  97 130 182 238 305 362 429
#     4  11  22  38  67  96 130 178 248 296 356 441
#
# _framework density 27.838903999999999
#
# number of rings (size 3 to 8) (size 9 to 14) (size 15 to 20)
#    0.000    1.412    2.353    2.824    3.294    4.706 
#    0.000    1.176    0.000    0.706    0.000    0.000 
#    0.000    0.000    0.000    0.000    0.000    0.000 
#
# Total GULP energy -189375.365891 kJ/mol
# GULP energy per Si atom -5569.863703 kJ/mol
# Density = 2.777554 g / cm^3
# Si number density = 27.838904 Si / 1000 Ang^3
#
#
#
# Elastic Constant Matrix: (Units=GPa)
#
#
# Indices 1 2 3 4 5 6 
#
# 1 255.3886 71.0904 80.0621 0.0000 0.0000 0.0000
# 2 71.0904 105.3369 76.5021 0.0000 0.0000 0.0000
# 3 80.0621 76.5021 128.8055 0.0000 0.0000 0.0000
# 4 0.0000 0.0000 0.0000 66.1105 0.0000 0.0000
# 5 0.0000 0.0000 0.0000 0.0000 10.4484 0.0000
# 6 0.0000 0.0000 0.0000 0.0000 0.0000 -130.2815
#
#
#
# Elastic Compliance Matrix: (Units=1/GPa)
#
#
# Indices 1 2 3 4 5 6 
#
# 1 0.005092 -0.002001 -0.001977 0.000000 0.000000 0.000000
# 2 -0.002001 0.017481 -0.009139 0.000000 0.000000 0.000000
# 3 -0.001977 -0.009139 0.014420 0.000000 0.000000 0.000000
# 4 0.000000 0.000000 0.000000 0.015126 0.000000 0.000000
# 5 0.000000 0.000000 0.000000 0.000000 0.095708 0.000000
# 6 0.000000 0.000000 0.000000 0.000000 0.000000 -0.007676
#
#
# Mechanical properties :
#
#
# Convention : Reuss Voigt Hill
#
# Bulk Modulus (GPa) = 92.93418 104.98225 98.95822
# Shear Modulus (GPa) = 29.41664 6.71392 18.06528
#
# Velocity S-wave (km/s) = 3.25418 1.55465 2.55016
# Velocity P-wave (km/s) = 6.89745 6.40430 6.65545
#
# Compressibility (1/GPa) = 0.01076030
#
# Stress axis : x y z
#
# Youngs Moduli (GPa) = 196.37411 57.20507 69.34753
#
# Poissons Ratio (x) = 0.11447 0.13708
# Poissons Ratio (y) = 0.39297 0.63375
# Poissons Ratio (z) = 0.38818 0.52278
#
# Static dielectric constant tensor:
#      x y z
#    x 1.877270 0.000000 0.000000 
#    y 0.000000 2.348160 0.000000 
#    z 0.000000 0.000000 2.227250 
# 
# From -- ./inp_files/38908.got.cif
#   From: 2010.05.17/outbox.cif.g08.bks.cpg/sg64_20_cif.got.tgz:38908.got - 2010.06.03 16:29:19.
