data_PCOD9480666
_publ_section_title
;
Structure prediction by ZEFSAII (Michael W. Deem and Ramdas Pophale) SiO2 
 PCOD9480666
Probable space group: C M C A
;
_chemical_formula_sum "Si O2"
_cell_formula_units_Z 72
_cell_length_a 15.632390
_cell_length_b 15.408958
_cell_length_c 15.830636
_cell_angle_alpha 90.000000
_cell_angle_beta 90.000000
_cell_angle_gamma 90.000000
_cell_volume 3813.265251
_symmetry_space_group_name_H-M "C M C A"
_symmetry_group_IT_number 64
_symmetry_cell_setting 'orthorhombic'
loop_
_space_group_symop_operation_xyz
x,y,z
-x,1/2-y,1/2+z
x,-y,-z
-x,1/2+y,1/2-z
-x,-y,-z
x,1/2+y,1/2-z
-x,y,z
x,1/2-y,1/2+z
1/2+x,1/2+y,z
1/2-x,-y,1/2+z
1/2+x,1/2-y,-z
1/2-x,y,1/2-z
1/2-x,1/2-y,-z
1/2+x,y,1/2-z
1/2-x,1/2+y,z
1/2+x,-y,1/2+z
loop_
_atom_site_type_symbol
_atom_site_label
_atom_site_fract_x
_atom_site_fract_y
_atom_site_fract_z
Si Si1 0.671538 0.039405 0.816513
Si Si2 0.903543 0.231515 0.687404
Si Si3 0.093565 0.362294 0.841494
Si Si4 0.253413 0.000000 0.500000
Si Si5 0.729842 0.824052 0.566025
O O1 0.750000 0.032634 0.750000
O O2 0.627609 0.132546 0.804245
O O3 0.610031 0.956963 0.800520
O O4 0.701594 0.030655 0.915340
O O5 0.906041 0.284027 0.774944
O O6 0.835482 0.284108 0.632172
O O7 0.000000 0.232539 0.651746
O O8 0.177140 0.347671 0.897168
O O9 0.000000 0.363573 0.884061
O O10 0.304143 0.914212 0.527682
O O11 0.750000 0.750000 0.500000
#
# Coordination Sequence:
#
# PCOD9480666 Si02
#       5
#    16  16  16   8  16
#     4  11  21  39  66  91 129 166 210 263 321 386
#     4  11  23  40  63  92 125 167 216 263 316 381
#     4  10  22  39  60  90 122 160 209 259 317 382
#     4  10  22  38  62  98 118 164 214 254 324 384
#     4  11  21  39  60  88 125 160 205 259 320 381
#
# _framework density 18.881456
#
# number of rings (size 3 to 8) (size 9 to 14) (size 15 to 20)
#    0.000    1.333    2.222    5.333    0.000    0.889 
#    0.000    3.333    0.000    0.000    0.000    0.000 
#    0.000    0.000    0.000    0.000    0.000    0.000 
#
# Total GULP energy -200659.866695 kJ/mol
# GULP energy per Si atom -5573.885186 kJ/mol
# Density = 1.883848 g / cm^3
# Si number density = 18.881456 Si / 1000 Ang^3
#
#
#
# Elastic Constant Matrix: (Units=GPa)
#
#
# Indices 1 2 3 4 5 6 
#
# 1 121.9658 37.5385 25.0539 0.0000 0.0000 0.0000
# 2 37.5385 176.9997 23.2379 0.0000 0.0000 0.0000
# 3 25.0539 23.2379 53.8214 0.0000 0.0000 0.0000
# 4 0.0000 0.0000 0.0000 32.4026 0.0000 0.0000
# 5 0.0000 0.0000 0.0000 0.0000 -33.8236 0.0000
# 6 0.0000 0.0000 0.0000 0.0000 0.0000 -51.3944
#
#
#
# Elastic Compliance Matrix: (Units=1/GPa)
#
#
# Indices 1 2 3 4 5 6 
#
# 1 0.009432 -0.001509 -0.003739 0.000000 0.000000 0.000000
# 2 -0.001509 0.006231 -0.001988 0.000000 0.000000 0.000000
# 3 -0.003739 -0.001988 0.021178 0.000000 0.000000 0.000000
# 4 0.000000 0.000000 0.000000 0.030862 0.000000 0.000000
# 5 0.000000 0.000000 0.000000 0.000000 -0.029565 0.000000
# 6 0.000000 0.000000 0.000000 0.000000 0.000000 -0.019457
#
#
# Mechanical properties :
#
#
# Convention : Reuss Voigt Hill
#
# Bulk Modulus (GPa) = 44.70376 58.27192 51.48784
# Shear Modulus (GPa) = 123.12864 7.23402 65.18133
#
# Velocity S-wave (km/s) = 8.08412 1.95949 5.88186
# Velocity P-wave (km/s) = 10.52923 6.00404 8.57068
#
# Compressibility (1/GPa) = 0.02236948
#
# Stress axis : x y z
#
# Youngs Moduli (GPa) = 106.02673 160.49327 47.21777
#
# Poissons Ratio (x) = 0.24225 0.17653
# Poissons Ratio (y) = 0.16004 0.09385
# Poissons Ratio (z) = 0.39640 0.31899
#
# Static dielectric constant tensor:
#      x y z
#    x 1.709080 0.000000 0.000000 
#    y 0.000000 1.679940 0.000000 
#    z 0.000000 0.000000 1.653690 
# 
# From -- ./inp_files/25116.got.cif
#   From: 2010.05.17/outbox.cif.g08.bks.cpg/sg64_13_cif.got.tgz:25116.got - 2010.06.03 16:29:19.
