data_PCOD9480639
_publ_section_title
;
Structure prediction by ZEFSAII (Michael W. Deem and Ramdas Pophale) SiO2 
 PCOD9480639
Probable space group: C M C A
;
_chemical_formula_sum "Si O2"
_cell_formula_units_Z 116
_cell_length_a 7.872022
_cell_length_b 23.196793
_cell_length_c 29.114624
_cell_angle_alpha 90.000000
_cell_angle_beta 90.000000
_cell_angle_gamma 90.000000
_cell_volume 5316.495272
_symmetry_space_group_name_H-M "C M C A"
_symmetry_group_IT_number 64
_symmetry_cell_setting 'orthorhombic'
loop_
_space_group_symop_operation_xyz
x,y,z
-x,1/2-y,1/2+z
x,-y,-z
-x,1/2+y,1/2-z
-x,-y,-z
x,1/2+y,1/2-z
-x,y,z
x,1/2-y,1/2+z
1/2+x,1/2+y,z
1/2-x,-y,1/2+z
1/2+x,1/2-y,-z
1/2-x,y,1/2-z
1/2-x,1/2-y,-z
1/2+x,y,1/2-z
1/2-x,1/2+y,z
1/2+x,-y,1/2+z
loop_
_atom_site_type_symbol
_atom_site_label
_atom_site_fract_x
_atom_site_fract_y
_atom_site_fract_z
Si Si1 0.796195 0.101546 0.559947
Si Si2 0.206936 0.960207 0.345562
Si Si3 0.198409 0.349465 0.888882
Si Si4 0.500000 0.000000 0.000000
Si Si5 0.683547 0.937639 0.536809
Si Si6 0.296189 0.343735 0.300647
Si Si7 0.796254 0.081383 0.303431
Si Si8 0.297987 0.721381 0.610605
O O1 0.745366 0.062857 0.603825
O O2 0.696146 0.091344 0.513484
O O3 0.777322 0.167666 0.576154
O O4 0.000000 0.090259 0.548447
O O5 0.262408 0.908942 0.311323
O O6 0.000000 0.961534 0.346093
O O7 0.267111 0.022021 0.327557
O O8 0.295035 0.389517 0.924653
O O9 0.255408 0.366323 0.837152
O O10 0.219102 0.282570 0.900467
O O11 0.000000 0.364425 0.892756
O O12 0.652000 0.021995 0.035589
O O13 0.500000 0.966029 0.542911
O O14 0.500000 0.344802 0.305144
O O15 0.250000 0.325317 0.250000
O O16 0.231440 0.301963 0.340501
O O17 0.750000 0.085976 0.250000
O O18 0.000000 0.078619 0.304083
O O19 0.500000 0.730995 0.614166
#
# Coordination Sequence:
#
# PCOD9480639 Si02
#       8
#    16  16  16   4  16  16  16  16
#     4   9  18  38  66  92 127 166 209 266 326 377
#     4   8  16  32  58  84 116 160 200 249 323 389
#     4  11  24  42  62  88 126 170 213 268 329 379
#     4  12  26  48  68  98 148 168 210 268 310 386
#     4  12  26  43  70 102 132 175 217 257 318 382
#     4   9  17  31  53  83 114 151 201 259 322 384
#     4  10  22  38  59  84 117 162 208 258 325 390
#     4   9  20  38  60  87 118 164 215 265 321 388
#
# _framework density 21.818884000000001
#
# number of rings (size 3 to 8) (size 9 to 14) (size 15 to 20)
#    0.000    2.207    1.379    2.690    1.931    3.310 
#    0.000    5.517    0.000    0.000    0.000    0.000 
#    0.000    0.000    0.000    0.000    0.000    0.000 
#
# Total GULP energy -323581.759540 kJ/mol
# GULP energy per Si atom -5578.995854 kJ/mol
# Density = 2.176922 g / cm^3
# Si number density = 21.818884 Si / 1000 Ang^3
#
#
#
# Elastic Constant Matrix: (Units=GPa)
#
#
# Indices 1 2 3 4 5 6 
#
# 1 83.4625 39.1756 29.5639 0.0000 0.0000 0.0000
# 2 39.1756 74.9577 30.0792 0.0000 0.0000 0.0000
# 3 29.5639 30.0792 109.2527 0.0000 0.0000 0.0000
# 4 0.0000 0.0000 0.0000 12.5933 0.0000 0.0000
# 5 0.0000 0.0000 0.0000 0.0000 23.3116 0.0000
# 6 0.0000 0.0000 0.0000 0.0000 0.0000 25.6162
#
#
#
# Elastic Compliance Matrix: (Units=1/GPa)
#
#
# Indices 1 2 3 4 5 6 
#
# 1 0.016389 -0.007629 -0.002335 0.000000 0.000000 0.000000
# 2 -0.007629 0.018549 -0.003042 0.000000 0.000000 0.000000
# 3 -0.002335 -0.003042 0.010622 0.000000 0.000000 0.000000
# 4 0.000000 0.000000 0.000000 0.079407 0.000000 0.000000
# 5 0.000000 0.000000 0.000000 0.000000 0.042897 0.000000
# 6 0.000000 0.000000 0.000000 0.000000 0.000000 0.039038
#
#
# Mechanical properties :
#
#
# Convention : Reuss Voigt Hill
#
# Bulk Modulus (GPa) = 51.15397 51.70117 51.42757
# Shear Modulus (GPa) = 20.88289 23.56117 22.22203
#
# Velocity S-wave (km/s) = 3.09706 3.28968 3.19482
# Velocity P-wave (km/s) = 6.02368 6.17870 6.10168
#
# Compressibility (1/GPa) = 0.01954883
#
# Stress axis : x y z
#
# Youngs Moduli (GPa) = 61.01595 53.91186 94.13987
#
# Poissons Ratio (x) = 0.41128 0.21978
# Poissons Ratio (y) = 0.46547 0.28642
# Poissons Ratio (z) = 0.14245 0.16403
#
# Static dielectric constant tensor:
#      x y z
#    x 1.816750 0.000000 0.000000 
#    y 0.000000 1.776370 0.000000 
#    z 0.000000 0.000000 1.769830 
# 
# From -- ./inp_files/48549.got.cif
#   From: 2010.05.17/outbox.cif.g08.bks.cpg/sg64_25_cif.got.tgz:48549.got - 2010.06.03 16:29:19.
