data_PCOD9480885
_publ_section_title
;
Structure prediction by ZEFSAII (Michael W. Deem and Ramdas Pophale) SiO2 
 PCOD9480885
Probable space group: C M C A
;
_chemical_formula_sum "Si O2"
_cell_formula_units_Z 112
_cell_length_a 23.994504
_cell_length_b 15.122434
_cell_length_c 15.752633
_cell_angle_alpha 90.000000
_cell_angle_beta 90.000000
_cell_angle_gamma 90.000000
_cell_volume 5715.926422
_symmetry_space_group_name_H-M "C M C A"
_symmetry_group_IT_number 64
_symmetry_cell_setting 'orthorhombic'
loop_
_space_group_symop_operation_xyz
x,y,z
-x,1/2-y,1/2+z
x,-y,-z
-x,1/2+y,1/2-z
-x,-y,-z
x,1/2+y,1/2-z
-x,y,z
x,1/2-y,1/2+z
1/2+x,1/2+y,z
1/2-x,-y,1/2+z
1/2+x,1/2-y,-z
1/2-x,y,1/2-z
1/2-x,1/2-y,-z
1/2+x,y,1/2-z
1/2-x,1/2+y,z
1/2+x,-y,1/2+z
loop_
_atom_site_type_symbol
_atom_site_label
_atom_site_fract_x
_atom_site_fract_y
_atom_site_fract_z
Si Si1 0.735985 0.314510 0.078127
Si Si2 0.438418 0.923760 0.069498
Si Si3 0.859171 0.727673 0.188698
Si Si4 0.564169 0.738868 0.970212
Si Si5 0.839520 0.116220 0.688567
Si Si6 0.148247 0.091222 0.030668
Si Si7 0.313329 0.937310 0.722984
O O1 0.697547 0.258419 0.141642
O O2 0.788634 0.353597 0.128093
O O3 0.750000 0.250000 0.000000
O O4 0.698557 0.390130 0.035030
O O5 0.500000 0.931296 0.109440
O O6 0.434902 0.830125 0.021816
O O7 0.388171 0.927335 0.134119
O O8 0.433288 0.000000 0.000000
O O9 0.863057 0.796596 0.265868
O O10 0.852049 0.628195 0.221553
O O11 0.908400 0.742323 0.121496
O O12 0.500000 0.709190 0.963391
O O13 0.604055 0.669578 0.018125
O O14 0.821509 0.040838 0.755412
O O15 0.172504 0.083579 0.125289
O O16 0.121284 0.000000 0.000000
O O17 0.250000 0.915842 0.750000
#
# Coordination Sequence:
#
# PCOD9480885 Si02
#       7
#    16  16  16  16  16  16  16
#     4  11  22  38  60  85 119 161 200 242 299 367
#     4  10  22  41  62  85 114 150 198 251 302 361
#     4  11  22  38  58  87 122 151 193 253 306 356
#     4  10  22  42  65  86 114 159 209 253 304 369
#     4  12  23  38  60  89 122 156 197 247 305 363
#     4  11  23  40  59  86 123 163 205 247 298 370
#     4  12  23  37  59  90 125 160 198 247 310 373
#
# _framework density 19.594373999999998
#
# number of rings (size 3 to 8) (size 9 to 14) (size 15 to 20)
#    0.000    1.000    0.000    9.857    0.000    2.571 
#    0.000    1.429    0.000    0.000    0.000    0.000 
#    0.000    0.000    0.000    0.000    0.000    0.000 
#
# Total GULP energy -313099.770452 kJ/mol
# GULP energy per Si atom -5591.067330 kJ/mol
# Density = 1.954978 g / cm^3
# Si number density = 19.594374 Si / 1000 Ang^3
#
#
#
# Elastic Constant Matrix: (Units=GPa)
#
#
# Indices 1 2 3 4 5 6 
#
# 1 85.6576 2.7969 36.7254 0.0000 0.0000 0.0000
# 2 2.7969 87.4882 15.5308 0.0000 0.0000 0.0000
# 3 36.7254 15.5308 83.9666 0.0000 0.0000 0.0000
# 4 0.0000 0.0000 0.0000 39.6352 0.0000 0.0000
# 5 0.0000 0.0000 0.0000 0.0000 9.6202 0.0000
# 6 0.0000 0.0000 0.0000 0.0000 0.0000 78.4286
#
#
#
# Elastic Compliance Matrix: (Units=1/GPa)
#
#
# Indices 1 2 3 4 5 6 
#
# 1 0.014408 0.000680 -0.006428 0.000000 0.000000 0.000000
# 2 0.000680 0.011850 -0.002489 0.000000 0.000000 0.000000
# 3 -0.006428 -0.002489 0.015181 0.000000 0.000000 0.000000
# 4 0.000000 0.000000 0.000000 0.025230 0.000000 0.000000
# 5 0.000000 0.000000 0.000000 0.000000 0.103948 0.000000
# 6 0.000000 0.000000 0.000000 0.000000 0.000000 0.012750
#
#
# Mechanical properties :
#
#
# Convention : Reuss Voigt Hill
#
# Bulk Modulus (GPa) = 40.05419 40.80207 40.42813
# Shear Modulus (GPa) = 24.01953 39.00741 31.51347
#
# Velocity S-wave (km/s) = 3.50500 4.46662 4.01470
# Velocity P-wave (km/s) = 6.07174 6.88981 6.49367
#
# Compressibility (1/GPa) = 0.02496618
#
# Stress axis : x y z
#
# Youngs Moduli (GPa) = 69.40599 84.38611 65.87063
#
# Poissons Ratio (x) = -0.05742 0.42339
# Poissons Ratio (y) = -0.04723 0.16398
# Poissons Ratio (z) = 0.44612 0.21008
#
# Static dielectric constant tensor:
#      x y z
#    x 1.674150 0.000000 0.000000 
#    y 0.000000 1.715810 0.000000 
#    z 0.000000 0.000000 1.713710 
# 
# From -- ./inp_files/27379.got.cif
#   From: 2010.05.17/outbox.cif.g08.bks.cpg/sg64_14_cif.got.tgz:27379.got - 2010.06.03 16:29:19.
