data_PCOD9480463
_publ_section_title
;
Structure prediction by ZEFSAII (Michael W. Deem and Ramdas Pophale) SiO2 
 PCOD9480463
Probable space group: C M C A
;
_chemical_formula_sum "Si O2"
_cell_formula_units_Z 116
_cell_length_a 25.283380
_cell_length_b 25.659720
_cell_length_c 9.409679
_cell_angle_alpha 90.000000
_cell_angle_beta 90.000000
_cell_angle_gamma 90.000000
_cell_volume 6104.665235
_symmetry_space_group_name_H-M "C M C A"
_symmetry_group_IT_number 64
_symmetry_cell_setting 'orthorhombic'
loop_
_space_group_symop_operation_xyz
x,y,z
-x,1/2-y,1/2+z
x,-y,-z
-x,1/2+y,1/2-z
-x,-y,-z
x,1/2+y,1/2-z
-x,y,z
x,1/2-y,1/2+z
1/2+x,1/2+y,z
1/2-x,-y,1/2+z
1/2+x,1/2-y,-z
1/2-x,y,1/2-z
1/2-x,1/2-y,-z
1/2+x,y,1/2-z
1/2-x,1/2+y,z
1/2+x,-y,1/2+z
loop_
_atom_site_type_symbol
_atom_site_label
_atom_site_fract_x
_atom_site_fract_y
_atom_site_fract_z
Si Si1 0.301644 0.642753 0.347361
Si Si2 0.198541 0.019273 0.342769
Si Si3 0.281527 0.789423 0.104544
Si Si4 0.437584 0.198373 0.532355
Si Si5 0.380259 0.269465 0.762399
Si Si6 0.500000 0.500000 0.500000
Si Si7 0.562036 0.581445 0.001516
Si Si8 0.085583 0.502459 0.260097
O O1 0.250000 0.654492 0.250000
O O2 0.311719 0.581487 0.339113
O O3 0.289893 0.659794 0.508770
O O4 0.349442 0.679509 0.294492
O O5 0.250000 0.008321 0.250000
O O6 0.145247 0.992480 0.288301
O O7 0.209455 0.000000 0.500000
O O8 0.250000 0.798315 0.250000
O O9 0.336544 0.763471 0.151166
O O10 0.250000 0.750000 0.000000
O O11 0.500000 0.200782 0.566140
O O12 0.404408 0.234997 0.636785
O O13 0.426271 0.215672 0.371534
O O14 0.417848 0.138587 0.538885
O O15 0.453626 0.494598 0.626079
O O16 0.500000 0.587277 0.033141
O O17 0.567938 0.542844 0.868467
O O18 0.585717 0.554350 0.141272
#
# Coordination Sequence:
#
# PCOD9480463 Si02
#       8
#    16  16  16  16  16   4  16  16
#     4  11  23  42  67  94 127 166 217 268 323 384
#     4  11  27  45  63  93 138 178 212 269 336 409
#     4  12  20  37  65  94 122 154 207 274 317 370
#     4  11  25  41  62  91 134 172 218 260 323 391
#     4  12  21  41  64  90 125 170 215 263 321 377
#     4  12  20  38  76 104 124 162 220 306 332 362
#     4  10  21  41  68  97 127 173 216 264 332 396
#     4  11  21  43  70  97 134 166 224 277 332 395
#
# _framework density 19.001861000000002
#
# number of rings (size 3 to 8) (size 9 to 14) (size 15 to 20)
#    0.000    0.828    6.207    1.655    1.931    1.655 
#    0.000    0.000    3.034    0.000    0.000    0.000 
#    0.000    0.000    0.000    0.000    0.000    0.000 
#
# Total GULP energy -323465.178431 kJ/mol
# GULP energy per Si atom -5576.985835 kJ/mol
# Density = 1.895861 g / cm^3
# Si number density = 19.001861 Si / 1000 Ang^3
#
#
#
# Elastic Constant Matrix: (Units=GPa)
#
#
# Indices 1 2 3 4 5 6 
#
# 1 89.3650 23.4474 44.6580 0.0000 0.0000 0.0000
# 2 23.4474 64.8035 35.7122 0.0000 0.0000 0.0000
# 3 44.6580 35.7122 139.2987 0.0000 0.0000 0.0000
# 4 0.0000 0.0000 0.0000 17.7862 0.0000 0.0000
# 5 0.0000 0.0000 0.0000 0.0000 30.7657 0.0000
# 6 0.0000 0.0000 0.0000 0.0000 0.0000 21.8903
#
#
#
# Elastic Compliance Matrix: (Units=1/GPa)
#
#
# Indices 1 2 3 4 5 6 
#
# 1 0.013801 -0.002976 -0.003661 0.000000 0.000000 0.000000
# 2 -0.002976 0.018612 -0.003818 0.000000 0.000000 0.000000
# 3 -0.003661 -0.003818 0.009331 0.000000 0.000000 0.000000
# 4 0.000000 0.000000 0.000000 0.056223 0.000000 0.000000
# 5 0.000000 0.000000 0.000000 0.000000 0.032504 0.000000
# 6 0.000000 0.000000 0.000000 0.000000 0.000000 0.045682
#
#
# Mechanical properties :
#
#
# Convention : Reuss Voigt Hill
#
# Bulk Modulus (GPa) = 47.99760 55.67804 51.83782
# Shear Modulus (GPa) = 24.50896 26.73174 25.62035
#
# Velocity S-wave (km/s) = 3.59530 3.75480 3.67591
# Velocity P-wave (km/s) = 6.52297 6.93995 6.73469
#
# Compressibility (1/GPa) = 0.02083438
#
# Stress axis : x y z
#
# Youngs Moduli (GPa) = 72.46106 53.72963 107.16533
#
# Poissons Ratio (x) = 0.15988 0.39238
# Poissons Ratio (y) = 0.21561 0.40911
# Poissons Ratio (z) = 0.26532 0.20512
#
# Static dielectric constant tensor:
#      x y z
#    x 1.679140 0.000000 0.000000 
#    y 0.000000 1.683140 0.000000 
#    z 0.000000 0.000000 1.615310 
# 
# From -- ./inp_files/9748.got.cif
#   From: 2010.05.17/outbox.cif.g08.bks.cpg/sg64_5_cif.got.tgz:9748.got - 2010.06.03 16:29:19.
