data_PCOD9480311
_publ_section_title
;
Structure prediction by ZEFSAII (Michael W. Deem and Ramdas Pophale) SiO2 
 PCOD9480311
Probable space group: C M C A
;
_chemical_formula_sum "Si O2"
_cell_formula_units_Z 56
_cell_length_a 29.083903
_cell_length_b 13.818069
_cell_length_c 5.366151
_cell_angle_alpha 90.000000
_cell_angle_beta 90.000000
_cell_angle_gamma 90.000000
_cell_volume 2156.566893
_symmetry_space_group_name_H-M "C M C A"
_symmetry_group_IT_number 64
_symmetry_cell_setting 'orthorhombic'
loop_
_space_group_symop_operation_xyz
x,y,z
-x,1/2-y,1/2+z
x,-y,-z
-x,1/2+y,1/2-z
-x,-y,-z
x,1/2+y,1/2-z
-x,y,z
x,1/2-y,1/2+z
1/2+x,1/2+y,z
1/2-x,-y,1/2+z
1/2+x,1/2-y,-z
1/2-x,y,1/2-z
1/2-x,1/2-y,-z
1/2+x,y,1/2-z
1/2-x,1/2+y,z
1/2+x,-y,1/2+z
loop_
_atom_site_type_symbol
_atom_site_label
_atom_site_fract_x
_atom_site_fract_y
_atom_site_fract_z
Si Si1 0.000000 0.814099 0.454882
Si Si2 0.729990 0.640683 0.003138
Si Si3 0.128055 0.887445 0.808044
Si Si4 0.404496 0.392191 0.304204
O O1 0.954685 0.879889 0.420508
O O2 0.000000 0.761679 0.723040
O O3 0.750000 0.595188 0.250000
O O4 0.675982 0.629789 0.049848
O O5 0.750000 0.599997 0.750000
O O6 0.750000 0.750000 0.000000
O O7 0.128065 0.848246 0.523682
O O8 0.113742 0.999030 0.751048
O O9 0.093552 0.849687 0.022690
#
# Coordination Sequence:
#
# PCOD9480311 Si02
#       4
#     8  16  16  16
#     4  12  26  48  66 106 146 182 236 300 386 432
#     4  10  21  40  62 100 144 184 225 291 355 421
#     4  10  21  42  70 102 134 187 243 288 355 428
#     4  10  23  43  69 101 137 186 238 299 351 443
#
# _framework density 25.967199999999998
#
# number of rings (size 3 to 8) (size 9 to 14) (size 15 to 20)
#    0.000    1.714    0.000    3.429    0.000    4.571 
#   30.857   11.429    0.000    0.000    0.000    0.000 
#    0.000    0.000    0.000    0.000    0.000    0.000 
#
# Total GULP energy -156240.061812 kJ/mol
# GULP energy per Si atom -5580.002208 kJ/mol
# Density = 2.590810 g / cm^3
# Si number density = 25.967200 Si / 1000 Ang^3
#
#
#
# Elastic Constant Matrix: (Units=GPa)
#
#
# Indices 1 2 3 4 5 6 
#
# 1 157.9088 30.4885 40.8639 0.0000 0.0000 0.0000
# 2 30.4885 177.3788 16.5938 0.0000 0.0000 0.0000
# 3 40.8639 16.5938 302.2772 0.0000 0.0000 0.0000
# 4 0.0000 0.0000 0.0000 -136.4668 0.0000 0.0000
# 5 0.0000 0.0000 0.0000 0.0000 55.8194 0.0000
# 6 0.0000 0.0000 0.0000 0.0000 0.0000 111.2844
#
#
#
# Elastic Compliance Matrix: (Units=1/GPa)
#
#
# Indices 1 2 3 4 5 6 
#
# 1 0.006763 -0.001082 -0.000855 0.000000 0.000000 0.000000
# 2 -0.001082 0.005840 -0.000174 0.000000 0.000000 0.000000
# 3 -0.000855 -0.000174 0.003433 0.000000 0.000000 0.000000
# 4 0.000000 0.000000 0.000000 -0.007328 0.000000 0.000000
# 5 0.000000 0.000000 0.000000 0.000000 0.017915 0.000000
# 6 0.000000 0.000000 0.000000 0.000000 0.000000 0.008986
#
#
# Mechanical properties :
#
#
# Convention : Reuss Voigt Hill
#
# Bulk Modulus (GPa) = 84.65109 90.38416 87.51762
# Shear Modulus (GPa) = 114.23255 42.76864 78.50060
#
# Velocity S-wave (km/s) = 6.63977 4.06276 5.50421
# Velocity P-wave (km/s) = 9.56306 7.54259 8.61228
#
# Compressibility (1/GPa) = 0.01181320
#
# Stress axis : x y z
#
# Youngs Moduli (GPa) = 147.86363 171.23249 291.26063
#
# Poissons Ratio (x) = 0.18536 0.24898
# Poissons Ratio (y) = 0.16006 0.05075
# Poissons Ratio (z) = 0.12640 0.02984
#
# Static dielectric constant tensor:
#      x y z
#    x 2.100330 0.000000 0.000000 
#    y 0.000000 2.178090 0.000000 
#    z 0.000000 0.000000 1.659950 
# 
# From -- ./inp_files/3091.got.cif
#   From: 2010.05.17/outbox.cif.g08.bks.cpg/sg64_2_cif.got.tgz:3091.got - 2010.06.03 16:29:19.
