data_PCOD9480244
_publ_section_title
;
Structure prediction by ZEFSAII (Michael W. Deem and Ramdas Pophale) SiO2 
 PCOD9480244
Probable space group: C M C A
;
_chemical_formula_sum "Si O2"
_cell_formula_units_Z 96
_cell_length_a 8.589414
_cell_length_b 21.086014
_cell_length_c 27.434516
_cell_angle_alpha 90.000000
_cell_angle_beta 90.000000
_cell_angle_gamma 90.000000
_cell_volume 4968.843623
_symmetry_space_group_name_H-M "C M C A"
_symmetry_group_IT_number 64
_symmetry_cell_setting 'orthorhombic'
loop_
_space_group_symop_operation_xyz
x,y,z
-x,1/2-y,1/2+z
x,-y,-z
-x,1/2+y,1/2-z
-x,-y,-z
x,1/2+y,1/2-z
-x,y,z
x,1/2-y,1/2+z
1/2+x,1/2+y,z
1/2-x,-y,1/2+z
1/2+x,1/2-y,-z
1/2-x,y,1/2-z
1/2-x,1/2-y,-z
1/2+x,y,1/2-z
1/2-x,1/2+y,z
1/2+x,-y,1/2+z
loop_
_atom_site_type_symbol
_atom_site_label
_atom_site_fract_x
_atom_site_fract_y
_atom_site_fract_z
Si Si1 0.187060 0.065606 0.804869
Si Si2 0.812602 0.310946 0.471578
Si Si3 0.185907 0.312439 0.138115
Si Si4 0.314270 0.809672 0.804862
Si Si5 0.189645 0.562325 0.471136
Si Si6 0.188366 0.065826 0.141723
O O1 0.250000 0.065984 0.750000
O O2 0.254941 0.124900 0.834346
O O3 0.000000 0.070533 0.804397
O O4 0.229366 0.999545 0.831171
O O5 0.750000 0.250000 0.500000
O O6 0.748944 0.312248 0.416883
O O7 0.763544 0.374227 0.500575
O O8 0.000000 0.309248 0.470240
O O9 0.248139 0.250603 0.166125
O O10 0.000000 0.311102 0.137799
O O11 0.500000 0.806167 0.803785
O O12 0.250000 0.809284 0.750000
O O13 0.260876 0.873931 0.831487
O O14 0.243247 0.500000 0.500000
O O15 0.238057 0.563036 0.414784
O O16 0.000000 0.560847 0.471017
O O17 0.000000 0.072092 0.143049
#
# Coordination Sequence:
#
# PCOD9480244 Si02
#       6
#    16  16  16  16  16  16
#     4  11  23  40  63  91 124 161 203 251 305 366
#     4  11  22  38  62  91 123 160 203 251 306 364
#     4  12  25  42  63  88 122 162 207 256 308 364
#     4  12  25  42  64  90 122 158 202 253 308 369
#     4   9  18  35  60  88 118 155 198 243 292 349
#     4  10  21  39  64  93 125 161 202 248 302 364
#
# _framework density 19.32039
#
# number of rings (size 3 to 8) (size 9 to 14) (size 15 to 20)
#    0.000    1.167    0.000    7.000    0.000    6.667 
#    0.000    0.833    0.000    3.500    0.000    0.000 
#    0.000    0.000    0.000    0.000    0.000    0.000 
#
# Total GULP energy -268610.705862 kJ/mol
# GULP energy per Si atom -5596.056372 kJ/mol
# Density = 1.927642 g / cm^3
# Si number density = 19.320390 Si / 1000 Ang^3
#
#
#
# Elastic Constant Matrix: (Units=GPa)
#
#
# Indices 1 2 3 4 5 6 
#
# 1 96.2773 81.2545 70.5607 0.0000 0.0000 0.0000
# 2 81.2545 232.2681 143.7681 0.0000 0.0000 0.0000
# 3 70.5607 143.7681 242.4661 0.0000 0.0000 0.0000
# 4 0.0000 0.0000 0.0000 50.3365 0.0000 0.0000
# 5 0.0000 0.0000 0.0000 0.0000 23.8780 0.0000
# 6 0.0000 0.0000 0.0000 0.0000 0.0000 23.7067
#
#
#
# Elastic Compliance Matrix: (Units=1/GPa)
#
#
# Indices 1 2 3 4 5 6 
#
# 1 0.015343 -0.004113 -0.002026 0.000000 0.000000 0.000000
# 2 -0.004113 0.007904 -0.003490 0.000000 0.000000 0.000000
# 3 -0.002026 -0.003490 0.006783 0.000000 0.000000 0.000000
# 4 0.000000 0.000000 0.000000 0.019866 0.000000 0.000000
# 5 0.000000 0.000000 0.000000 0.000000 0.041879 0.000000
# 6 0.000000 0.000000 0.000000 0.000000 0.000000 0.042182
#
#
# Mechanical properties :
#
#
# Convention : Reuss Voigt Hill
#
# Bulk Modulus (GPa) = 92.83178 129.13090 110.98134
# Shear Modulus (GPa) = 31.88612 37.94613 34.91612
#
# Velocity S-wave (km/s) = 4.06690 4.43656 4.25575
# Velocity P-wave (km/s) = 8.37889 9.65535 9.03968
#
# Compressibility (1/GPa) = 0.01077217
#
# Stress axis : x y z
#
# Youngs Moduli (GPa) = 65.17591 126.51024 147.42414
#
# Poissons Ratio (x) = 0.52039 0.29868
# Poissons Ratio (y) = 0.26810 0.51449
# Poissons Ratio (z) = 0.13205 0.44150
#
# Static dielectric constant tensor:
#      x y z
#    x 1.658870 0.000000 0.000000 
#    y 0.000000 1.635820 0.000000 
#    z 0.000000 0.000000 1.632520 
# 
# From -- ./inp_files/48032.got.cif
#   From: 2010.05.17/outbox.cif.g08.bks.cpg/sg64_25_cif.got.tgz:48032.got - 2010.06.03 16:29:19.
