data_PCOD9480783
_publ_section_title
;
Structure prediction by ZEFSAII (Michael W. Deem and Ramdas Pophale) SiO2 
 PCOD9480783
Probable space group: C M C A
;
_chemical_formula_sum "Si O2"
_cell_formula_units_Z 80
_cell_length_a 18.030307
_cell_length_b 7.512571
_cell_length_c 24.932495
_cell_angle_alpha 90.000000
_cell_angle_beta 90.000000
_cell_angle_gamma 90.000000
_cell_volume 3377.205218
_symmetry_space_group_name_H-M "C M C A"
_symmetry_group_IT_number 64
_symmetry_cell_setting 'orthorhombic'
loop_
_space_group_symop_operation_xyz
x,y,z
-x,1/2-y,1/2+z
x,-y,-z
-x,1/2+y,1/2-z
-x,-y,-z
x,1/2+y,1/2-z
-x,y,z
x,1/2-y,1/2+z
1/2+x,1/2+y,z
1/2-x,-y,1/2+z
1/2+x,1/2-y,-z
1/2-x,y,1/2-z
1/2-x,1/2-y,-z
1/2+x,y,1/2-z
1/2-x,1/2+y,z
1/2+x,-y,1/2+z
loop_
_atom_site_type_symbol
_atom_site_label
_atom_site_fract_x
_atom_site_fract_y
_atom_site_fract_z
Si Si1 0.808014 0.911897 0.446088
Si Si2 0.916909 0.627045 0.430135
Si Si3 0.916669 0.284869 0.689607
Si Si4 0.161580 0.229689 0.891277
Si Si5 0.168791 0.390010 0.274925
O O1 0.859995 0.746693 0.463301
O O2 0.743991 0.835467 0.408013
O O3 0.775903 0.000000 0.500000
O O4 0.848720 0.076127 0.416551
O O5 0.916997 0.736036 0.373867
O O6 0.891003 0.427847 0.414392
O O7 0.000000 0.625397 0.451631
O O8 0.893528 0.129634 0.729234
O O9 0.849018 0.418968 0.700342
O O10 0.000000 0.349437 0.702734
O O11 0.157569 0.236611 0.826515
O O12 0.250000 0.379419 0.250000
#
# Coordination Sequence:
#
# PCOD9480783 Si02
#       5
#    16  16  16  16  16
#     4  12  25  44  73  97 125 174 228 276 335 390
#     4  10  24  45  66  98 138 169 212 273 328 389
#     4  10  22  40  60  89 131 172 204 252 322 388
#     4  11  25  42  68  98 130 171 220 269 327 393
#     4  11  23  36  62  94 126 163 212 262 314 379
#
# _framework density 23.688224999999999
#
# number of rings (size 3 to 8) (size 9 to 14) (size 15 to 20)
#    0.000    1.200    2.000    3.000    8.400    2.000 
#    0.000    1.000    0.000    0.000    0.000    0.000 
#    0.000    0.000    0.000    0.000    0.000    0.000 
#
# Total GULP energy -223530.612776 kJ/mol
# GULP energy per Si atom -5588.265319 kJ/mol
# Density = 2.363431 g / cm^3
# Si number density = 23.688225 Si / 1000 Ang^3
#
#
#
# Elastic Constant Matrix: (Units=GPa)
#
#
# Indices 1 2 3 4 5 6 
#
# 1 105.4989 32.3861 13.5101 0.0000 0.0000 0.0000
# 2 32.3861 102.4179 22.1805 0.0000 0.0000 0.0000
# 3 13.5101 22.1805 79.3359 0.0000 0.0000 0.0000
# 4 0.0000 0.0000 0.0000 16.3317 0.0000 0.0000
# 5 0.0000 0.0000 0.0000 0.0000 -3.3763 0.0000
# 6 0.0000 0.0000 0.0000 0.0000 0.0000 -44.8889
#
#
#
# Elastic Compliance Matrix: (Units=1/GPa)
#
#
# Indices 1 2 3 4 5 6 
#
# 1 0.010561 -0.003140 -0.000920 0.000000 0.000000 0.000000
# 2 -0.003140 0.011327 -0.002632 0.000000 0.000000 0.000000
# 3 -0.000920 -0.002632 0.013497 0.000000 0.000000 0.000000
# 4 0.000000 0.000000 0.000000 0.061230 0.000000 0.000000
# 5 0.000000 0.000000 0.000000 0.000000 -0.296184 0.000000
# 6 0.000000 0.000000 0.000000 0.000000 0.000000 -0.022277
#
#
# Mechanical properties :
#
#
# Convention : Reuss Voigt Hill
#
# Bulk Modulus (GPa) = 45.45540 47.04512 46.25026
# Shear Modulus (GPa) = -24.85984 8.22505 -8.31740
#
# Velocity S-wave (km/s) = -3.24305 1.86541 -1.87585
# Velocity P-wave (km/s) = 2.28200 4.95408 3.85684
#
# Compressibility (1/GPa) = 0.02199959
#
# Stress axis : x y z
#
# Youngs Moduli (GPa) = 94.69172 88.28565 74.08925
#
# Poissons Ratio (x) = 0.27722 0.06820
# Poissons Ratio (y) = 0.29734 0.19500
# Poissons Ratio (z) = 0.08716 0.23237
#
# Static dielectric constant tensor:
#      x y z
#    x 1.881900 0.000000 0.000000 
#    y 0.000000 1.964260 0.000000 
#    z 0.000000 0.000000 -1.229810 
# 
# From -- ./inp_files/50299.got.cif
#   From: 2010.05.17/outbox.cif.g08.bks.cpg/sg64_26_cif.got.tgz:50299.got - 2010.06.03 16:29:19.
