data_PCOD9480196
_publ_section_title
;
Structure prediction by ZEFSAII (Michael W. Deem and Ramdas Pophale) SiO2 
 PCOD9480196
Probable space group: C M C A
;
_chemical_formula_sum "Si O2"
_cell_formula_units_Z 64
_cell_length_a 21.648877
_cell_length_b 10.213863
_cell_length_c 13.175511
_cell_angle_alpha 90.000000
_cell_angle_beta 90.000000
_cell_angle_gamma 90.000000
_cell_volume 2913.351387
_symmetry_space_group_name_H-M "C M C A"
_symmetry_group_IT_number 64
_symmetry_cell_setting 'orthorhombic'
loop_
_space_group_symop_operation_xyz
x,y,z
-x,1/2-y,1/2+z
x,-y,-z
-x,1/2+y,1/2-z
-x,-y,-z
x,1/2+y,1/2-z
-x,y,z
x,1/2-y,1/2+z
1/2+x,1/2+y,z
1/2-x,-y,1/2+z
1/2+x,1/2-y,-z
1/2-x,y,1/2-z
1/2-x,1/2-y,-z
1/2+x,y,1/2-z
1/2-x,1/2+y,z
1/2+x,-y,1/2+z
loop_
_atom_site_type_symbol
_atom_site_label
_atom_site_fract_x
_atom_site_fract_y
_atom_site_fract_z
Si Si1 0.709978 0.654119 0.650781
Si Si2 0.000000 0.099940 0.405701
Si Si3 0.899112 0.487288 0.242859
Si Si4 0.195470 0.931249 0.904920
Si Si5 0.000000 0.400609 0.405025
O O1 0.750000 0.692690 0.750000
O O2 0.640276 0.617957 0.680048
O O3 0.745019 0.524388 0.611451
O O4 0.709237 0.779985 0.579629
O O5 0.000000 0.250167 0.440422
O O6 0.000000 0.000000 0.500000
O O7 0.940994 0.070284 0.333755
O O8 0.846556 0.563935 0.304878
O O9 0.942452 0.425348 0.329260
O O10 0.162333 0.000000 0.000000
O O11 0.000000 0.500000 0.500000
#
# Coordination Sequence:
#
# PCOD9480196 Si02
#       5
#    16   8  16  16   8
#     4  10  21  39  62  90 128 169 207 254 308 368
#     4  11  26  44  65  93 123 163 215 269 322 374
#     4  10  23  42  65  90 126 167 211 259 311 374
#     4  11  22  38  63  95 127 163 206 253 310 373
#     4  11  24  42  67  95 125 167 213 261 320 382
#
# _framework density 21.967827
#
# number of rings (size 3 to 8) (size 9 to 14) (size 15 to 20)
#    0.000    1.500    0.000    5.250    0.000   11.000 
#    0.000    0.000    0.000    0.000    0.000    0.000 
#    0.000    0.000    0.000    0.000    0.000    0.000 
#
# Total GULP energy -178808.362760 kJ/mol
# GULP energy per Si atom -5587.761336 kJ/mol
# Density = 2.191783 g / cm^3
# Si number density = 21.967827 Si / 1000 Ang^3
#
#
#
# Elastic Constant Matrix: (Units=GPa)
#
#
# Indices 1 2 3 4 5 6 
#
# 1 106.6246 79.7670 43.2708 0.0000 0.0000 0.0000
# 2 79.7670 181.8014 67.1392 0.0000 0.0000 0.0000
# 3 43.2708 67.1392 113.2976 0.0000 0.0000 0.0000
# 4 0.0000 0.0000 0.0000 33.8049 0.0000 0.0000
# 5 0.0000 0.0000 0.0000 0.0000 37.7642 0.0000
# 6 0.0000 0.0000 0.0000 0.0000 0.0000 3.5664
#
#
#
# Elastic Compliance Matrix: (Units=1/GPa)
#
#
# Indices 1 2 3 4 5 6 
#
# 1 0.014395 -0.005486 -0.002247 0.000000 0.000000 0.000000
# 2 -0.005486 0.009132 -0.003317 0.000000 0.000000 0.000000
# 3 -0.002247 -0.003317 0.011650 0.000000 0.000000 0.000000
# 4 0.000000 0.000000 0.000000 0.029581 0.000000 0.000000
# 5 0.000000 0.000000 0.000000 0.000000 0.026480 0.000000
# 6 0.000000 0.000000 0.000000 0.000000 0.000000 0.280399
#
#
# Mechanical properties :
#
#
# Convention : Reuss Voigt Hill
#
# Bulk Modulus (GPa) = 76.46279 86.89750 81.68014
# Shear Modulus (GPa) = 12.55982 29.13019 20.84501
#
# Velocity S-wave (km/s) = 2.39370 3.64543 3.08374
# Velocity P-wave (km/s) = 6.52089 7.57374 7.06695
#
# Compressibility (1/GPa) = 0.01307826
#
# Stress axis : x y z
#
# Youngs Moduli (GPa) = 69.47031 109.50058 85.83937
#
# Poissons Ratio (x) = 0.60073 0.19285
# Poissons Ratio (y) = 0.38112 0.28469
# Poissons Ratio (z) = 0.15607 0.36316
#
# Static dielectric constant tensor:
#      x y z
#    x 1.813380 0.000000 0.000000 
#    y 0.000000 1.786770 0.000000 
#    z 0.000000 0.000000 1.869290 
# 
# From -- ./inp_files/26942.got.cif
#   From: 2010.05.17/outbox.cif.g08.bks.cpg/sg64_14_cif.got.tgz:26942.got - 2010.06.03 16:29:19.
