data_PCOD9480709
_publ_section_title
;
Structure prediction by ZEFSAII (Michael W. Deem and Ramdas Pophale) SiO2 
 PCOD9480709
Probable space group: C M C A
;
_chemical_formula_sum "Si O2"
_cell_formula_units_Z 64
_cell_length_a 7.692888
_cell_length_b 20.540522
_cell_length_c 17.255911
_cell_angle_alpha 90.000000
_cell_angle_beta 90.000000
_cell_angle_gamma 90.000000
_cell_volume 2726.708915
_symmetry_space_group_name_H-M "C M C A"
_symmetry_group_IT_number 64
_symmetry_cell_setting 'orthorhombic'
loop_
_space_group_symop_operation_xyz
x,y,z
-x,1/2-y,1/2+z
x,-y,-z
-x,1/2+y,1/2-z
-x,-y,-z
x,1/2+y,1/2-z
-x,y,z
x,1/2-y,1/2+z
1/2+x,1/2+y,z
1/2-x,-y,1/2+z
1/2+x,1/2-y,-z
1/2-x,y,1/2-z
1/2-x,1/2-y,-z
1/2+x,y,1/2-z
1/2-x,1/2+y,z
1/2+x,-y,1/2+z
loop_
_atom_site_type_symbol
_atom_site_label
_atom_site_fract_x
_atom_site_fract_y
_atom_site_fract_z
Si Si1 0.290833 0.238533 0.664873
Si Si2 0.297501 0.867344 0.455794
Si Si3 0.292043 0.977420 0.163764
Si Si4 0.199833 0.379955 0.870022
O O1 0.500000 0.240580 0.656792
O O2 0.250000 0.212017 0.750000
O O3 0.227007 0.192469 0.595760
O O4 0.220630 0.312123 0.658723
O O5 0.500000 0.855423 0.473769
O O6 0.283407 0.930562 0.401547
O O7 0.203549 0.877091 0.536908
O O8 0.500000 0.978146 0.152793
O O9 0.250000 0.953642 0.250000
O O10 0.222310 0.051285 0.155723
O O11 0.000000 0.380573 0.842634
#
# Coordination Sequence:
#
# PCOD9480709 Si02
#       4
#    16  16  16  16
#     4  10  22  39  59  85 115 149 190 235 284 337
#     4  11  23  38  59  87 117 151 191 234 282 338
#     4  11  23  39  60  85 115 151 190 235 285 337
#     4  10  22  40  60  84 115 150 190 236 285 336
#
# _framework density 23.471518
#
# number of rings (size 3 to 8) (size 9 to 14) (size 15 to 20)
#    0.000    1.500    0.000    4.500    0.000   10.000 
#    0.000    0.000    0.000    0.000    0.000    0.000 
#    0.000    0.000    0.000    0.000    0.000    0.000 
#
# Total GULP energy -179086.589120 kJ/mol
# GULP energy per Si atom -5596.455910 kJ/mol
# Density = 2.341810 g / cm^3
# Si number density = 23.471518 Si / 1000 Ang^3
#
#
#
# Elastic Constant Matrix: (Units=GPa)
#
#
# Indices 1 2 3 4 5 6 
#
# 1 54.9978 -2.5283 -19.2817 0.0000 0.0000 0.0000
# 2 -2.5283 108.1353 9.3471 0.0000 0.0000 0.0000
# 3 -19.2817 9.3471 101.7103 0.0000 0.0000 0.0000
# 4 0.0000 0.0000 0.0000 46.8123 0.0000 0.0000
# 5 0.0000 0.0000 0.0000 0.0000 25.8151 0.0000
# 6 0.0000 0.0000 0.0000 0.0000 0.0000 14.4046
#
#
#
# Elastic Compliance Matrix: (Units=1/GPa)
#
#
# Indices 1 2 3 4 5 6 
#
# 1 0.019479 0.000137 0.003680 0.000000 0.000000 0.000000
# 2 0.000137 0.009323 -0.000831 0.000000 0.000000 0.000000
# 3 0.003680 -0.000831 0.010606 0.000000 0.000000 0.000000
# 4 0.000000 0.000000 0.000000 0.021362 0.000000 0.000000
# 5 0.000000 0.000000 0.000000 0.000000 0.038737 0.000000
# 6 0.000000 0.000000 0.000000 0.000000 0.000000 0.069422
#
#
# Mechanical properties :
#
#
# Convention : Reuss Voigt Hill
#
# Bulk Modulus (GPa) = 22.03561 26.65750 24.34656
# Shear Modulus (GPa) = 28.07693 35.89349 31.98521
#
# Velocity S-wave (km/s) = 3.46238 3.91479 3.69551
# Velocity P-wave (km/s) = 5.03912 5.64058 5.34831
#
# Compressibility (1/GPa) = 0.04538109
#
# Stress axis : x y z
#
# Youngs Moduli (GPa) = 51.33714 107.26519 94.28762
#
# Poissons Ratio (x) = -0.01473 -0.34699
# Poissons Ratio (y) = -0.00705 0.07833
# Poissons Ratio (z) = -0.18893 0.08911
#
# Static dielectric constant tensor:
#      x y z
#    x 1.896390 0.000000 0.000000 
#    y 0.000000 1.912580 0.000000 
#    z 0.000000 0.000000 1.806040 
# 
# From -- ./inp_files/20850.got.cif
#   From: 2010.05.17/outbox.cif.g08.bks.cpg/sg64_11_cif.got.tgz:20850.got - 2010.06.03 16:29:19.
