data_PCOD9480563
_publ_section_title
;
Structure prediction by ZEFSAII (Michael W. Deem and Ramdas Pophale) SiO2 
 PCOD9480563
Probable space group: C M C A
;
_chemical_formula_sum "Si O2"
_cell_formula_units_Z 64
_cell_length_a 29.888882
_cell_length_b 19.466929
_cell_length_c 5.016939
_cell_angle_alpha 90.000000
_cell_angle_beta 90.000000
_cell_angle_gamma 90.000000
_cell_volume 2919.079587
_symmetry_space_group_name_H-M "C M C A"
_symmetry_group_IT_number 64
_symmetry_cell_setting 'orthorhombic'
loop_
_space_group_symop_operation_xyz
x,y,z
-x,1/2-y,1/2+z
x,-y,-z
-x,1/2+y,1/2-z
-x,-y,-z
x,1/2+y,1/2-z
-x,y,z
x,1/2-y,1/2+z
1/2+x,1/2+y,z
1/2-x,-y,1/2+z
1/2+x,1/2-y,-z
1/2-x,y,1/2-z
1/2-x,1/2-y,-z
1/2+x,y,1/2-z
1/2-x,1/2+y,z
1/2+x,-y,1/2+z
loop_
_atom_site_type_symbol
_atom_site_label
_atom_site_fract_x
_atom_site_fract_y
_atom_site_fract_z
Si Si1 0.898039 0.792384 0.663955
Si Si2 0.000000 0.083020 0.698712
Si Si3 0.500000 0.832516 0.717385
Si Si4 0.570969 0.500000 0.000000
Si Si5 0.720192 0.000000 0.500000
Si Si6 0.644841 0.931945 0.812262
O O1 0.887211 0.769031 0.962241
O O2 0.868646 0.858201 0.570857
O O3 0.952630 0.801864 0.679394
O O4 0.000000 0.097522 0.388367
O O5 0.957718 0.039216 0.783532
O O6 0.000000 0.148880 0.902925
O O7 0.602358 0.556482 0.125801
O O8 0.688516 0.940893 0.626549
O O9 0.750000 0.975577 0.250000
O O10 0.646711 0.000000 0.000000
#
# Coordination Sequence:
#
# PCOD9480563 Si02
#       6
#    16   8   8   8   8  16
#     4  12  27  43  64  97 143 189 235 282 333 389
#     4  11  22  35  60  87 135 171 239 287 338 369
#     4  12  22  42  58  85 136 196 239 279 319 386
#     4  10  22  35  60 100 126 178 224 297 330 392
#     4  11  24  45  76 113 134 163 212 285 352 429
#     4  11  24  43  75 101 137 173 232 279 346 409
#
# _framework density 21.924720000000001
#
# number of rings (size 3 to 8) (size 9 to 14) (size 15 to 20)
#    0.000    0.750    3.750    3.750    7.000    1.000 
#    0.000    0.000    0.000    4.500    0.000    0.000 
#    0.000    0.000    0.000    0.000    0.000    0.000 
#
# Total GULP energy -178646.551924 kJ/mol
# GULP energy per Si atom -5582.704748 kJ/mol
# Density = 2.187482 g / cm^3
# Si number density = 21.924720 Si / 1000 Ang^3
#
#
#
# Elastic Constant Matrix: (Units=GPa)
#
#
# Indices 1 2 3 4 5 6 
#
# 1 104.4055 31.9291 28.8955 0.0000 0.0000 0.0000
# 2 31.9291 93.9411 20.7627 0.0000 0.0000 0.0000
# 3 28.8955 20.7627 88.0722 0.0000 0.0000 0.0000
# 4 0.0000 0.0000 0.0000 45.9669 0.0000 0.0000
# 5 0.0000 0.0000 0.0000 0.0000 24.0169 0.0000
# 6 0.0000 0.0000 0.0000 0.0000 0.0000 -9.6156
#
#
#
# Elastic Compliance Matrix: (Units=1/GPa)
#
#
# Indices 1 2 3 4 5 6 
#
# 1 0.011384 -0.003211 -0.002978 0.000000 0.000000 0.000000
# 2 -0.003211 0.012136 -0.001807 0.000000 0.000000 0.000000
# 3 -0.002978 -0.001807 0.012757 0.000000 0.000000 0.000000
# 4 0.000000 0.000000 0.000000 0.021755 0.000000 0.000000
# 5 0.000000 0.000000 0.000000 0.000000 0.041637 0.000000
# 6 0.000000 0.000000 0.000000 0.000000 0.000000 -0.103997
#
#
# Mechanical properties :
#
#
# Convention : Reuss Voigt Hill
#
# Bulk Modulus (GPa) = 49.29903 49.95482 49.62692
# Shear Modulus (GPa) = 271.33802 25.72906 148.53354
#
# Velocity S-wave (km/s) = 11.13677 3.42938 8.23979
# Velocity P-wave (km/s) = 13.70783 6.20605 10.64001
#
# Compressibility (1/GPa) = 0.02028438
#
# Stress axis : x y z
#
# Youngs Moduli (GPa) = 87.84050 82.40042 78.38536
#
# Poissons Ratio (x) = 0.26460 0.23344
# Poissons Ratio (y) = 0.28207 0.14168
# Poissons Ratio (z) = 0.26159 0.14893
#
# Static dielectric constant tensor:
#      x y z
#    x 1.823370 0.000000 0.000000 
#    y 0.000000 2.146500 0.000000 
#    z 0.000000 0.000000 1.828440 
# 
# From -- ./inp_files/3171.got.cif
#   From: 2010.05.17/outbox.cif.g08.bks.cpg/sg64_2_cif.got.tgz:3171.got - 2010.06.03 16:29:19.
