data_PCOD9480508
_publ_section_title
;
Structure prediction by ZEFSAII (Michael W. Deem and Ramdas Pophale) SiO2 
 PCOD9480508
Probable space group: C M C A
;
_chemical_formula_sum "Si O2"
_cell_formula_units_Z 88
_cell_length_a 16.755308
_cell_length_b 22.605287
_cell_length_c 10.999540
_cell_angle_alpha 90.000000
_cell_angle_beta 90.000000
_cell_angle_gamma 90.000000
_cell_volume 4166.169778
_symmetry_space_group_name_H-M "C M C A"
_symmetry_group_IT_number 64
_symmetry_cell_setting 'orthorhombic'
loop_
_space_group_symop_operation_xyz
x,y,z
-x,1/2-y,1/2+z
x,-y,-z
-x,1/2+y,1/2-z
-x,-y,-z
x,1/2+y,1/2-z
-x,y,z
x,1/2-y,1/2+z
1/2+x,1/2+y,z
1/2-x,-y,1/2+z
1/2+x,1/2-y,-z
1/2-x,y,1/2-z
1/2-x,1/2-y,-z
1/2+x,y,1/2-z
1/2-x,1/2+y,z
1/2+x,-y,1/2+z
loop_
_atom_site_type_symbol
_atom_site_label
_atom_site_fract_x
_atom_site_fract_y
_atom_site_fract_z
Si Si1 0.665037 0.636130 0.395565
Si Si2 0.876120 0.316091 0.131525
Si Si3 0.000000 0.133129 0.260098
Si Si4 0.250000 0.232369 0.250000
Si Si5 0.000000 0.368315 0.315610
Si Si6 0.184164 0.496208 0.852742
Si Si7 0.500000 0.723909 0.037096
Si Si8 0.000000 0.505348 0.759781
O O1 0.662585 0.637060 0.540632
O O2 0.576966 0.644902 0.341849
O O3 0.720791 0.689342 0.355598
O O4 0.689488 0.574427 0.339717
O O5 0.817841 0.274630 0.203736
O O6 0.926823 0.351418 0.229049
O O7 0.926585 0.269330 0.050377
O O8 0.000000 0.179969 0.152053
O O9 0.000000 0.063837 0.219157
O O10 0.000000 0.439304 0.334670
O O11 0.000000 0.321059 0.424647
O O12 0.250000 0.520045 0.750000
O O13 0.088245 0.511196 0.827902
O O14 0.201137 0.500000 0.000000
#
# Coordination Sequence:
#
# PCOD9480508 Si02
#       8
#    16  16   8   8   8  16   8   8
#     4  11  22  42  66  94 133 176 225 273 343 416
#     4  11  24  39  66  94 131 176 223 280 333 415
#     4  10  21  42  70  93 127 180 226 274 337 417
#     4  12  22  40  60  98 136 174 218 262 358 408
#     4  11  24  45  63  98 131 166 233 283 337 399
#     4  11  24  48  74 106 141 187 241 296 352 423
#     4  11  22  39  65  93 134 169 221 285 337 400
#     4  10  24  48  74 102 136 192 236 285 355 425
#
# _framework density 21.122519
#
# number of rings (size 3 to 8) (size 9 to 14) (size 15 to 20)
#    0.000    1.091    2.727    4.091    2.545    1.818 
#   16.364    0.000    0.000    0.000    0.000    0.000 
#    0.000    0.000    0.000    0.000    0.000    0.000 
#
# Total GULP energy -245103.693879 kJ/mol
# GULP energy per Si atom -5570.538497 kJ/mol
# Density = 2.107444 g / cm^3
# Si number density = 21.122519 Si / 1000 Ang^3
#
#
#
# Elastic Constant Matrix: (Units=GPa)
#
#
# Indices 1 2 3 4 5 6 
#
# 1 55.8480 8.1793 5.7528 0.0000 0.0000 0.0000
# 2 8.1793 97.0098 -3.5386 0.0000 0.0000 0.0000
# 3 5.7528 -3.5386 64.8478 0.0000 0.0000 0.0000
# 4 0.0000 0.0000 0.0000 -111.2017 0.0000 0.0000
# 5 0.0000 0.0000 0.0000 0.0000 -3.1003 0.0000
# 6 0.0000 0.0000 0.0000 0.0000 0.0000 35.8440
#
#
#
# Elastic Compliance Matrix: (Units=1/GPa)
#
#
# Indices 1 2 3 4 5 6 
#
# 1 0.018318 -0.001607 -0.001713 0.000000 0.000000 0.000000
# 2 -0.001607 0.010470 0.000714 0.000000 0.000000 0.000000
# 3 -0.001713 0.000714 0.015612 0.000000 0.000000 0.000000
# 4 0.000000 0.000000 0.000000 -0.008993 0.000000 0.000000
# 5 0.000000 0.000000 0.000000 0.000000 -0.322548 0.000000
# 6 0.000000 0.000000 0.000000 0.000000 0.000000 0.027899
#
#
# Mechanical properties :
#
#
# Convention : Reuss Voigt Hill
#
# Bulk Modulus (GPa) = 25.51838 26.49920 26.00879
# Shear Modulus (GPa) = -20.74954 -1.87082 -11.31018
#
# Velocity S-wave (km/s) = -3.13763 -0.94214 -2.31650
# Velocity P-wave (km/s) = 1.00944 3.37479 2.27709
#
# Compressibility (1/GPa) = 0.03918744
#
# Stress axis : x y z
#
# Youngs Moduli (GPa) = 54.59258 95.51313 64.05490
#
# Poissons Ratio (x) = 0.15348 0.10971
# Poissons Ratio (y) = 0.08773 -0.04573
# Poissons Ratio (z) = 0.09350 -0.06818
#
# Static dielectric constant tensor:
#      x y z
#    x 1.787290 0.000000 0.000000 
#    y 0.000000 1.734670 0.000000 
#    z 0.000000 0.000000 1.779460 
# 
# From -- ./inp_files/16104.got.cif
#   From: 2010.05.17/outbox.cif.g08.bks.cpg/sg64_9_cif.got.tgz:16104.got - 2010.06.03 16:29:19.
