data_PCOD9480865
_publ_section_title
;
Structure prediction by ZEFSAII (Michael W. Deem and Ramdas Pophale) SiO2 
 PCOD9480865
Probable space group: C M C A
;
_chemical_formula_sum "Si O2"
_cell_formula_units_Z 116
_cell_length_a 21.194945
_cell_length_b 10.177671
_cell_length_c 26.414941
_cell_angle_alpha 90.000000
_cell_angle_beta 90.000000
_cell_angle_gamma 90.000000
_cell_volume 5698.103675
_symmetry_space_group_name_H-M "C M C A"
_symmetry_group_IT_number 64
_symmetry_cell_setting 'orthorhombic'
loop_
_space_group_symop_operation_xyz
x,y,z
-x,1/2-y,1/2+z
x,-y,-z
-x,1/2+y,1/2-z
-x,-y,-z
x,1/2+y,1/2-z
-x,y,z
x,1/2-y,1/2+z
1/2+x,1/2+y,z
1/2-x,-y,1/2+z
1/2+x,1/2-y,-z
1/2-x,y,1/2-z
1/2-x,1/2-y,-z
1/2+x,y,1/2-z
1/2-x,1/2+y,z
1/2+x,-y,1/2+z
loop_
_atom_site_type_symbol
_atom_site_label
_atom_site_fract_x
_atom_site_fract_y
_atom_site_fract_z
Si Si1 0.733718 0.073313 0.051309
Si Si2 0.660155 0.143230 0.690750
Si Si3 0.637564 0.804528 0.589284
Si Si4 0.073927 0.414319 0.400357
Si Si5 0.824243 0.592872 0.238841
Si Si6 0.394830 0.706224 0.482030
Si Si7 0.199918 0.597206 0.851210
Si Si8 0.000000 0.000000 0.500000
O O1 0.792280 0.155527 0.071414
O O2 0.673578 0.160916 0.037149
O O3 0.715401 0.971192 0.095213
O O4 0.753247 0.000000 0.000000
O O5 0.615194 0.156358 0.642740
O O6 0.649537 0.262288 0.729631
O O7 0.733494 0.146435 0.672377
O O8 0.649817 0.002672 0.717647
O O9 0.606350 0.729238 0.542321
O O10 0.650680 0.712916 0.637412
O O11 0.599157 0.937047 0.598184
O O12 0.086669 0.338906 0.452915
O O13 0.000000 0.410769 0.389292
O O14 0.750000 0.608191 0.250000
O O15 0.827582 0.511049 0.186682
O O16 0.444929 0.591789 0.473280
#
# Coordination Sequence:
#
# PCOD9480865 Si02
#       8
#    16  16  16  16  16  16  16   4
#     4  12  22  38  62 100 136 175 219 281 335 393
#     4  11  24  42  70  99 135 174 221 285 346 420
#     4  12  25  39  67  99 138 182 223 283 336 406
#     4  12  27  45  66  93 137 184 231 278 351 414
#     4  10  22  40  70 102 135 169 213 280 353 415
#     4  12  24  43  65  93 137 183 236 275 330 408
#     4  11  21  39  65 102 139 168 221 275 346 404
#     4  12  24  44  66  88 132 196 234 278 324 408
#
# _framework density 20.35765
#
# number of rings (size 3 to 8) (size 9 to 14) (size 15 to 20)
#    0.000    0.552    4.138    5.379    4.828    0.552 
#    0.000    0.690    0.000    0.000    0.000    0.000 
#    0.000    0.000    0.000    0.000    0.000    0.000 
#
# Total GULP energy -324034.826685 kJ/mol
# GULP energy per Si atom -5586.807357 kJ/mol
# Density = 2.031132 g / cm^3
# Si number density = 20.357650 Si / 1000 Ang^3
#
#
#
# Elastic Constant Matrix: (Units=GPa)
#
#
# Indices 1 2 3 4 5 6 
#
# 1 45.8009 8.9750 -11.7621 0.0000 0.0000 0.0000
# 2 8.9750 84.9490 19.7430 0.0000 0.0000 0.0000
# 3 -11.7621 19.7430 67.8854 0.0000 0.0000 0.0000
# 4 0.0000 0.0000 0.0000 44.9263 0.0000 0.0000
# 5 0.0000 0.0000 0.0000 0.0000 4.1040 0.0000
# 6 0.0000 0.0000 0.0000 0.0000 0.0000 239.4050
#
#
#
# Elastic Compliance Matrix: (Units=1/GPa)
#
#
# Indices 1 2 3 4 5 6 
#
# 1 0.023910 -0.003742 0.005231 0.000000 0.000000 0.000000
# 2 -0.003742 0.013211 -0.004490 0.000000 0.000000 0.000000
# 3 0.005231 -0.004490 0.016943 0.000000 0.000000 0.000000
# 4 0.000000 0.000000 0.000000 0.022259 0.000000 0.000000
# 5 0.000000 0.000000 0.000000 0.000000 0.243664 0.000000
# 6 0.000000 0.000000 0.000000 0.000000 0.000000 0.004177
#
#
# Mechanical properties :
#
#
# Convention : Reuss Voigt Hill
#
# Bulk Modulus (GPa) = 20.80672 25.83860 23.32266
# Shear Modulus (GPa) = 14.44306 69.79902 42.12104
#
# Velocity S-wave (km/s) = 2.66647 5.86181 4.55362
# Velocity P-wave (km/s) = 4.44104 7.65077 6.25528
#
# Compressibility (1/GPa) = 0.04806140
#
# Stress axis : x y z
#
# Youngs Moduli (GPa) = 41.82310 75.69613 59.02148
#
# Poissons Ratio (x) = 0.28325 -0.30874
# Poissons Ratio (y) = 0.15650 0.26503
# Poissons Ratio (z) = -0.21878 0.33991
#
# Static dielectric constant tensor:
#      x y z
#    x 1.678760 0.000000 0.000000 
#    y 0.000000 1.774660 0.000000 
#    z 0.000000 0.000000 1.745930 
# 
# From -- ./inp_files/51076.got.cif
#   From: 2010.05.17/outbox.cif.g08.bks.cpg/sg64_26_cif.got.tgz:51076.got - 2010.06.03 16:29:19.
