data_PCOD9480147
_publ_section_title
;
Structure prediction by ZEFSAII (Michael W. Deem and Ramdas Pophale) SiO2 
 PCOD9480147
Probable space group: C M C A
;
_chemical_formula_sum "Si O2"
_cell_formula_units_Z 96
_cell_length_a 16.801254
_cell_length_b 14.000365
_cell_length_c 19.893344
_cell_angle_alpha 90.000000
_cell_angle_beta 90.000000
_cell_angle_gamma 90.000000
_cell_volume 4679.385751
_symmetry_space_group_name_H-M "C M C A"
_symmetry_group_IT_number 64
_symmetry_cell_setting 'orthorhombic'
loop_
_space_group_symop_operation_xyz
x,y,z
-x,1/2-y,1/2+z
x,-y,-z
-x,1/2+y,1/2-z
-x,-y,-z
x,1/2+y,1/2-z
-x,y,z
x,1/2-y,1/2+z
1/2+x,1/2+y,z
1/2-x,-y,1/2+z
1/2+x,1/2-y,-z
1/2-x,y,1/2-z
1/2-x,1/2-y,-z
1/2+x,y,1/2-z
1/2-x,1/2+y,z
1/2+x,-y,1/2+z
loop_
_atom_site_type_symbol
_atom_site_label
_atom_site_fract_x
_atom_site_fract_y
_atom_site_fract_z
Si Si1 0.653736 0.298047 0.743018
Si Si2 0.593672 0.868119 0.355899
Si Si3 0.592136 0.610328 0.490266
Si Si4 0.095722 0.990712 0.268958
Si Si5 0.641354 0.819296 0.135236
Si Si6 0.800320 0.737994 0.567012
O O1 0.750000 0.294312 0.750000
O O2 0.620739 0.223625 0.688165
O O3 0.627484 0.403457 0.723702
O O4 0.613549 0.263071 0.813312
O O5 0.500000 0.867545 0.366538
O O6 0.614581 0.955483 0.307039
O O7 0.639939 0.851376 0.425238
O O8 0.616913 0.500000 0.500000
O O9 0.500000 0.611269 0.469182
O O10 0.600117 0.661858 0.563396
O O11 0.645799 0.666783 0.436656
O O12 0.134151 0.916365 0.321437
O O13 0.000000 0.985503 0.277881
O O14 0.731227 0.787762 0.119282
O O15 0.750000 0.750000 0.500000
#
# Coordination Sequence:
#
# PCOD9480147 Si02
#       6
#    16  16  16  16  16  16
#     4  11  22  36  62  93 124 165 199 251 316 375
#     4  10  21  39  61  87 124 159 200 256 310 375
#     4  10  22  39  63  92 121 163 214 261 314 371
#     4  10  23  38  61  93 123 162 205 254 318 381
#     4  10  22  40  59  88 128 160 204 257 314 372
#     4  10  21  39  58  85 120 159 204 254 304 368
#
# _framework density 20.515512999999999
#
# number of rings (size 3 to 8) (size 9 to 14) (size 15 to 20)
#    0.000    1.833    1.667    1.500    4.667    2.000 
#    3.000    0.000    0.000    0.000    0.000    5.833 
#    0.000    0.000    0.000    0.000    0.000    0.000 
#
# Total GULP energy -267523.569137 kJ/mol
# GULP energy per Si atom -5573.407690 kJ/mol
# Density = 2.046882 g / cm^3
# Si number density = 20.515513 Si / 1000 Ang^3
#
#
#
# Elastic Constant Matrix: (Units=GPa)
#
#
# Indices 1 2 3 4 5 6 
#
# 1 41.7582 6.8997 17.2082 0.0000 0.0000 0.0000
# 2 6.8997 75.2485 18.7605 0.0000 0.0000 0.0000
# 3 17.2082 18.7605 66.4820 0.0000 0.0000 0.0000
# 4 0.0000 0.0000 0.0000 23.1625 0.0000 0.0000
# 5 0.0000 0.0000 0.0000 0.0000 35.8487 0.0000
# 6 0.0000 0.0000 0.0000 0.0000 0.0000 65.1061
#
#
#
# Elastic Compliance Matrix: (Units=1/GPa)
#
#
# Indices 1 2 3 4 5 6 
#
# 1 0.026850 -0.000784 -0.006728 0.000000 0.000000 0.000000
# 2 -0.000784 0.014318 -0.003837 0.000000 0.000000 0.000000
# 3 -0.006728 -0.003837 0.017866 0.000000 0.000000 0.000000
# 4 0.000000 0.000000 0.000000 0.043173 0.000000 0.000000
# 5 0.000000 0.000000 0.000000 0.000000 0.027895 0.000000
# 6 0.000000 0.000000 0.000000 0.000000 0.000000 0.015360
#
#
# Mechanical properties :
#
#
# Convention : Reuss Voigt Hill
#
# Bulk Modulus (GPa) = 27.52288 29.91394 28.71841
# Shear Modulus (GPa) = 27.73573 34.19816 30.96694
#
# Velocity S-wave (km/s) = 3.68086 4.08725 3.88937
# Velocity P-wave (km/s) = 5.61336 6.07346 5.84793
#
# Compressibility (1/GPa) = 0.03633340
#
# Stress axis : x y z
#
# Youngs Moduli (GPa) = 37.24438 69.84253 55.97195
#
# Poissons Ratio (x) = 0.05479 0.37660
# Poissons Ratio (y) = 0.02922 0.21478
# Poissons Ratio (z) = 0.25060 0.26801
#
# Static dielectric constant tensor:
#      x y z
#    x 1.751700 0.000000 0.000000 
#    y 0.000000 1.718970 0.000000 
#    z 0.000000 0.000000 1.889760 
# 
# From -- ./inp_files/39220.got.cif
#   From: 2010.05.17/outbox.cif.g08.bks.cpg/sg64_20_cif.got.tgz:39220.got - 2010.06.03 16:29:19.
