data_PCOD9480369
_publ_section_title
;
Structure prediction by ZEFSAII (Michael W. Deem and Ramdas Pophale) SiO2 
 PCOD9480369
Probable space group: C M C A
;
_chemical_formula_sum "Si O2"
_cell_formula_units_Z 112
_cell_length_a 29.032474
_cell_length_b 13.978910
_cell_length_c 11.877685
_cell_angle_alpha 90.000000
_cell_angle_beta 90.000000
_cell_angle_gamma 90.000000
_cell_volume 4820.467488
_symmetry_space_group_name_H-M "C M C A"
_symmetry_group_IT_number 64
_symmetry_cell_setting 'orthorhombic'
loop_
_space_group_symop_operation_xyz
x,y,z
-x,1/2-y,1/2+z
x,-y,-z
-x,1/2+y,1/2-z
-x,-y,-z
x,1/2+y,1/2-z
-x,y,z
x,1/2-y,1/2+z
1/2+x,1/2+y,z
1/2-x,-y,1/2+z
1/2+x,1/2-y,-z
1/2-x,y,1/2-z
1/2-x,1/2-y,-z
1/2+x,y,1/2-z
1/2-x,1/2+y,z
1/2+x,-y,1/2+z
loop_
_atom_site_type_symbol
_atom_site_label
_atom_site_fract_x
_atom_site_fract_y
_atom_site_fract_z
Si Si1 0.264922 0.026862 0.866561
Si Si2 0.446031 0.229528 0.505849
Si Si3 0.792699 0.697550 0.553513
Si Si4 0.128801 0.274375 0.816577
Si Si5 0.368775 0.100957 0.400562
Si Si6 0.050270 0.566336 0.889550
Si Si7 0.860872 0.059100 0.744303
O O1 0.250000 0.970256 0.750000
O O2 0.230715 0.119632 0.863672
O O3 0.318795 0.039218 0.839433
O O4 0.260684 0.000000 0.000000
O O5 0.500000 0.206976 0.523518
O O6 0.418846 0.266044 0.616130
O O7 0.415067 0.141413 0.459721
O O8 0.443905 0.322103 0.423680
O O9 0.750000 0.750000 0.500000
O O10 0.826871 0.778449 0.602697
O O11 0.824659 0.643508 0.463563
O O12 0.129887 0.353909 0.723680
O O13 0.137243 0.172119 0.760331
O O14 0.361069 0.990481 0.368018
O O15 0.090947 0.532889 0.811531
O O16 0.000000 0.555863 0.835738
O O17 0.050961 0.500000 0.000000
#
# Coordination Sequence:
#
# PCOD9480369 Si02
#       7
#    16  16  16  16  16  16  16
#     4  12  26  45  69 103 144 188 245 304 366 442
#     4  10  23  42  68 100 141 186 236 303 372 443
#     4  11  26  42  67  93 142 187 240 299 369 439
#     4  11  24  44  67  98 138 181 241 298 362 444
#     4  11  25  44  68 101 141 189 238 306 373 446
#     4  10  21  40  66  98 134 176 231 291 355 432
#     4  12  24  42  70 100 136 183 237 294 370 437
#
# _framework density 23.234262000000001
#
# number of rings (size 3 to 8) (size 9 to 14) (size 15 to 20)
#    0.000    1.000    2.857    3.000    4.000    3.429 
#    0.000    0.714    0.000    0.000    0.000    0.000 
#    0.000    0.000    0.000    0.000    0.000    0.000 
#
# Total GULP energy -312908.771892 kJ/mol
# GULP energy per Si atom -5587.656641 kJ/mol
# Density = 2.318138 g / cm^3
# Si number density = 23.234262 Si / 1000 Ang^3
#
#
#
# Elastic Constant Matrix: (Units=GPa)
#
#
# Indices 1 2 3 4 5 6 
#
# 1 216.9677 26.8642 67.2571 0.0000 0.0000 0.0000
# 2 26.8642 59.8275 5.0843 0.0000 0.0000 0.0000
# 3 67.2571 5.0843 98.6403 0.0000 0.0000 0.0000
# 4 0.0000 0.0000 0.0000 18.4019 0.0000 0.0000
# 5 0.0000 0.0000 0.0000 0.0000 23.2336 0.0000
# 6 0.0000 0.0000 0.0000 0.0000 0.0000 22.7672
#
#
#
# Elastic Compliance Matrix: (Units=1/GPa)
#
#
# Indices 1 2 3 4 5 6 
#
# 1 0.006176 -0.002426 -0.004086 0.000000 0.000000 0.000000
# 2 -0.002426 0.017741 0.000740 0.000000 0.000000 0.000000
# 3 -0.004086 0.000740 0.012886 0.000000 0.000000 0.000000
# 4 0.000000 0.000000 0.000000 0.054342 0.000000 0.000000
# 5 0.000000 0.000000 0.000000 0.000000 0.043041 0.000000
# 6 0.000000 0.000000 0.000000 0.000000 0.000000 0.043923
#
#
# Mechanical properties :
#
#
# Convention : Reuss Voigt Hill
#
# Bulk Modulus (GPa) = 39.59095 63.76078 51.67586
# Shear Modulus (GPa) = 25.24322 31.29586 28.26954
#
# Velocity S-wave (km/s) = 3.29973 3.67409 3.49193
# Velocity P-wave (km/s) = 5.62090 6.74542 6.20867
#
# Compressibility (1/GPa) = 0.02525830
#
# Stress axis : x y z
#
# Youngs Moduli (GPa) = 161.91836 56.36607 77.60536
#
# Poissons Ratio (x) = 0.13674 0.31709
# Poissons Ratio (y) = 0.39280 -0.05740
# Poissons Ratio (z) = 0.66160 -0.04169
#
# Static dielectric constant tensor:
#      x y z
#    x 1.854230 0.000000 0.000000 
#    y 0.000000 1.966190 0.000000 
#    z 0.000000 0.000000 1.997280 
# 
# From -- ./inp_files/19836.got.cif
#   From: 2010.05.17/outbox.cif.g08.bks.cpg/sg64_10_cif.got.tgz:19836.got - 2010.06.03 16:29:19.
