data_PCOD9480255
_publ_section_title
;
Structure prediction by ZEFSAII (Michael W. Deem and Ramdas Pophale) SiO2 
 PCOD9480255
Probable space group: C M C A
;
_chemical_formula_sum "Si O2"
_cell_formula_units_Z 88
_cell_length_a 22.588546
_cell_length_b 32.589006
_cell_length_c 5.057626
_cell_angle_alpha 90.000000
_cell_angle_beta 90.000000
_cell_angle_gamma 90.000000
_cell_volume 3723.112009
_symmetry_space_group_name_H-M "C M C A"
_symmetry_group_IT_number 64
_symmetry_cell_setting 'orthorhombic'
loop_
_space_group_symop_operation_xyz
x,y,z
-x,1/2-y,1/2+z
x,-y,-z
-x,1/2+y,1/2-z
-x,-y,-z
x,1/2+y,1/2-z
-x,y,z
x,1/2-y,1/2+z
1/2+x,1/2+y,z
1/2-x,-y,1/2+z
1/2+x,1/2-y,-z
1/2-x,y,1/2-z
1/2-x,1/2-y,-z
1/2+x,y,1/2-z
1/2-x,1/2+y,z
1/2+x,-y,1/2+z
loop_
_atom_site_type_symbol
_atom_site_label
_atom_site_fract_x
_atom_site_fract_y
_atom_site_fract_z
Si Si1 0.661854 0.155888 0.528601
Si Si2 0.357046 0.000000 0.500000
Si Si3 0.431002 0.455913 0.345479
Si Si4 0.328297 0.897584 0.967185
Si Si5 0.750000 0.958985 0.250000
Si Si6 0.929143 0.223558 0.868716
Si Si7 0.250000 0.280581 0.750000
O O1 0.679907 0.139320 0.818675
O O2 0.600854 0.180271 0.573446
O O3 0.700764 0.188316 0.363721
O O4 0.663649 0.117962 0.328614
O O5 0.403942 0.036219 0.552541
O O6 0.307145 0.012449 0.711923
O O7 0.424297 0.500000 0.500000
O O8 0.500000 0.445711 0.341722
O O9 0.388728 0.421497 0.463487
O O10 0.273755 0.928228 0.023888
O O11 0.911256 0.257294 0.087935
O O12 0.000000 0.219729 0.877160
O O13 0.250000 0.250000 0.500000
#
# Coordination Sequence:
#
# PCOD9480255 Si02
#       7
#    16   8  16  16   8  16   8
#     4  12  24  43  63  96 138 172 221 273 341 415
#     4  10  23  40  68  94 123 170 226 292 350 390
#     4  10  24  45  69  98 132 178 242 295 353 427
#     4  11  26  41  65  96 137 181 217 282 355 404
#     4  10  24  39  63  94 126 168 224 276 334 415
#     4  10  21  39  65  93 123 164 215 269 320 388
#     4  12  24  41  71  98 132 182 230 276 338 409
#
# _framework density 23.636143000000001
#
# number of rings (size 3 to 8) (size 9 to 14) (size 15 to 20)
#    0.000    1.273    0.000    4.636   10.182    1.455 
#    0.000    0.000    0.000    0.000    0.000    0.000 
#    0.000    0.000    0.000    0.000    0.000    0.000 
#
# Total GULP energy -245433.698291 kJ/mol
# GULP energy per Si atom -5578.038598 kJ/mol
# Density = 2.358235 g / cm^3
# Si number density = 23.636143 Si / 1000 Ang^3
#
#
#
# Elastic Constant Matrix: (Units=GPa)
#
#
# Indices 1 2 3 4 5 6 
#
# 1 128.0341 33.6628 7.1899 0.0000 0.0000 0.0000
# 2 33.6628 75.8630 32.6222 0.0000 0.0000 0.0000
# 3 7.1899 32.6222 108.4274 0.0000 0.0000 0.0000
# 4 0.0000 0.0000 0.0000 45.9914 0.0000 0.0000
# 5 0.0000 0.0000 0.0000 0.0000 18.1037 0.0000
# 6 0.0000 0.0000 0.0000 0.0000 0.0000 36.8491
#
#
#
# Elastic Compliance Matrix: (Units=1/GPa)
#
#
# Indices 1 2 3 4 5 6 
#
# 1 0.008886 -0.004238 0.000686 0.000000 0.000000 0.000000
# 2 -0.004238 0.017162 -0.004882 0.000000 0.000000 0.000000
# 3 0.000686 -0.004882 0.010646 0.000000 0.000000 0.000000
# 4 0.000000 0.000000 0.000000 0.021743 0.000000 0.000000
# 5 0.000000 0.000000 0.000000 0.000000 0.055237 0.000000
# 6 0.000000 0.000000 0.000000 0.000000 0.000000 0.027138
#
#
# Mechanical properties :
#
#
# Convention : Reuss Voigt Hill
#
# Bulk Modulus (GPa) = 50.44132 51.03049 50.73590
# Shear Modulus (GPa) = 30.43408 36.11217 33.27312
#
# Velocity S-wave (km/s) = 3.59222 3.91300 3.75603
# Velocity P-wave (km/s) = 6.21228 6.48477 6.34999
#
# Compressibility (1/GPa) = 0.01982502
#
# Stress axis : x y z
#
# Youngs Moduli (GPa) = 112.53458 58.26945 93.93011
#
# Poissons Ratio (x) = 0.24694 -0.06442
# Poissons Ratio (y) = 0.47692 0.45860
# Poissons Ratio (z) = -0.07718 0.28449
#
# Static dielectric constant tensor:
#      x y z
#    x 1.861840 0.000000 0.000000 
#    y 0.000000 1.952890 0.000000 
#    z 0.000000 0.000000 2.040500 
# 
# From -- ./inp_files/2458.got.cif
#   From: 2010.05.17/outbox.cif.g08.bks.cpg/sg64_2_cif.got.tgz:2458.got - 2010.06.03 16:29:19.
