data_PCOD9480486
_publ_section_title
;
Structure prediction by ZEFSAII (Michael W. Deem and Ramdas Pophale) SiO2 
 PCOD9480486
Probable space group: C M C A
;
_chemical_formula_sum "Si O2"
_cell_formula_units_Z 64
_cell_length_a 9.684677
_cell_length_b 16.875315
_cell_length_c 22.230141
_cell_angle_alpha 90.000000
_cell_angle_beta 90.000000
_cell_angle_gamma 90.000000
_cell_volume 3633.115849
_symmetry_space_group_name_H-M "C M C A"
_symmetry_group_IT_number 64
_symmetry_cell_setting 'orthorhombic'
loop_
_space_group_symop_operation_xyz
x,y,z
-x,1/2-y,1/2+z
x,-y,-z
-x,1/2+y,1/2-z
-x,-y,-z
x,1/2+y,1/2-z
-x,y,z
x,1/2-y,1/2+z
1/2+x,1/2+y,z
1/2-x,-y,1/2+z
1/2+x,1/2-y,-z
1/2-x,y,1/2-z
1/2-x,1/2-y,-z
1/2+x,y,1/2-z
1/2-x,1/2+y,z
1/2+x,-y,1/2+z
loop_
_atom_site_type_symbol
_atom_site_label
_atom_site_fract_x
_atom_site_fract_y
_atom_site_fract_z
Si Si1 0.000000 0.003611 0.927717
Si Si2 0.227158 0.630411 0.593318
Si Si3 0.500000 0.906267 0.015906
Si Si4 0.843868 0.227377 0.695156
Si Si5 0.000000 0.177678 0.102680
Si Si6 0.500000 0.757834 0.466384
O O1 0.132635 0.052987 0.907499
O O2 0.000000 0.915192 0.904408
O O3 0.000000 0.000000 0.000000
O O4 0.363373 0.613340 0.554488
O O5 0.272245 0.655808 0.659820
O O6 0.133021 0.699893 0.563620
O O7 0.500000 0.837845 0.964126
O O8 0.500000 0.000000 0.000000
O O9 0.750000 0.254088 0.750000
O O10 0.000000 0.206898 0.715750
O O11 0.871482 0.291679 0.642520
O O12 0.000000 0.217550 0.037035
#
# Coordination Sequence:
#
# PCOD9480486 Si02
#       6
#     8  16   8  16   8   8
#     4  11  22  37  64  94 132 165 197 248 331 390
#     4  11  22  39  62  92 124 168 204 249 318 379
#     4  12  23  33  55  96 132 151 200 263 312 365
#     4  10  23  42  68  84 119 168 223 255 297 368
#     4  10  21  42  64  90 124 161 214 252 301 390
#     4  11  22  37  62  89 128 168 196 245 333 386
#
# _framework density 17.615732999999999
#
# number of rings (size 3 to 8) (size 9 to 14) (size 15 to 20)
#    0.750    0.500    6.250    1.500    3.500    0.000 
#    0.000    1.250    2.750    0.000    0.000    0.000 
#    0.000    0.000    0.000    0.000    0.000    0.000 
#
# Total GULP energy -178400.510721 kJ/mol
# GULP energy per Si atom -5575.015960 kJ/mol
# Density = 1.757564 g / cm^3
# Si number density = 17.615733 Si / 1000 Ang^3
#
#
#
# Elastic Constant Matrix: (Units=GPa)
#
#
# Indices 1 2 3 4 5 6 
#
# 1 128.3627 33.7288 34.1947 0.0000 0.0000 0.0000
# 2 33.7288 113.8112 9.0122 0.0000 0.0000 0.0000
# 3 34.1947 9.0122 64.5939 0.0000 0.0000 0.0000
# 4 0.0000 0.0000 0.0000 16.6229 0.0000 0.0000
# 5 0.0000 0.0000 0.0000 0.0000 13.8109 0.0000
# 6 0.0000 0.0000 0.0000 0.0000 0.0000 12.9526
#
#
#
# Elastic Compliance Matrix: (Units=1/GPa)
#
#
# Indices 1 2 3 4 5 6 
#
# 1 0.009727 -0.002502 -0.004800 0.000000 0.000000 0.000000
# 2 -0.002502 0.009528 -0.000005 0.000000 0.000000 0.000000
# 3 -0.004800 -0.000005 0.018023 0.000000 0.000000 0.000000
# 4 0.000000 0.000000 0.000000 0.060158 0.000000 0.000000
# 5 0.000000 0.000000 0.000000 0.000000 0.072407 0.000000
# 6 0.000000 0.000000 0.000000 0.000000 0.000000 0.077204
#
#
# Mechanical properties :
#
#
# Convention : Reuss Voigt Hill
#
# Bulk Modulus (GPa) = 44.12291 51.18211 47.65251
# Shear Modulus (GPa) = 18.57244 23.99942 21.28593
#
# Velocity S-wave (km/s) = 3.25054 3.69505 3.47990
# Velocity P-wave (km/s) = 6.26018 6.87913 6.57694
#
# Compressibility (1/GPa) = 0.02266396
#
# Stress axis : x y z
#
# Youngs Moduli (GPa) = 102.81046 104.94855 55.48470
#
# Poissons Ratio (x) = 0.26263 0.26632
# Poissons Ratio (y) = 0.25728 0.00026
# Poissons Ratio (z) = 0.49348 0.00049
#
# Static dielectric constant tensor:
#      x y z
#    x 1.616880 0.000000 0.000000 
#    y 0.000000 1.599610 0.000000 
#    z 0.000000 0.000000 1.587910 
# 
# From -- ./inp_files/42600.got.cif
#   From: 2010.05.17/outbox.cif.g08.bks.cpg/sg64_22_cif.got.tgz:42600.got - 2010.06.03 16:29:19.
