data_PCOD9480506
_publ_section_title
;
Structure prediction by ZEFSAII (Michael W. Deem and Ramdas Pophale) SiO2 
 PCOD9480506
Probable space group: C M C A
;
_chemical_formula_sum "Si O2"
_cell_formula_units_Z 72
_cell_length_a 13.998289
_cell_length_b 6.884681
_cell_length_c 26.868781
_cell_angle_alpha 90.000000
_cell_angle_beta 90.000000
_cell_angle_gamma 90.000000
_cell_volume 2589.445299
_symmetry_space_group_name_H-M "C M C A"
_symmetry_group_IT_number 64
_symmetry_cell_setting 'orthorhombic'
loop_
_space_group_symop_operation_xyz
x,y,z
-x,1/2-y,1/2+z
x,-y,-z
-x,1/2+y,1/2-z
-x,-y,-z
x,1/2+y,1/2-z
-x,y,z
x,1/2-y,1/2+z
1/2+x,1/2+y,z
1/2-x,-y,1/2+z
1/2+x,1/2-y,-z
1/2-x,y,1/2-z
1/2-x,1/2-y,-z
1/2+x,y,1/2-z
1/2-x,1/2+y,z
1/2+x,-y,1/2+z
loop_
_atom_site_type_symbol
_atom_site_label
_atom_site_fract_x
_atom_site_fract_y
_atom_site_fract_z
Si Si1 0.674013 0.371540 0.047274
Si Si2 0.606428 0.063913 0.934980
Si Si3 0.849664 0.535235 0.659487
Si Si4 0.131124 0.518987 0.178905
Si Si5 0.000000 0.438440 0.729162
O O1 0.622807 0.162800 0.049627
O O2 0.790354 0.346366 0.048821
O O3 0.650712 0.476426 0.099815
O O4 0.646085 0.500000 0.000000
O O5 0.500000 0.129515 0.951398
O O6 0.604555 0.064542 0.875088
O O7 0.888590 0.749004 0.672476
O O8 0.743809 0.513570 0.679933
O O9 0.917207 0.391272 0.688270
O O10 0.080456 0.480213 0.230856
#
# Coordination Sequence:
#
# PCOD9480506 Si02
#       5
#    16  16  16  16   8
#     4  10  22  42  69  98 138 176 220 280 329 391
#     4  10  21  42  69  96 133 175 220 273 335 399
#     4  10  24  40  65  94 128 171 216 268 323 397
#     4  10  22  42  62  88 129 166 209 270 331 384
#     4  12  22  36  63  90 120 164 218 260 326 392
#
# _framework density 27.805184000000001
#
# number of rings (size 3 to 8) (size 9 to 14) (size 15 to 20)
#    0.000    1.778    1.111    2.000    4.667    6.222 
#    0.000    1.111   17.111    0.000    0.000    0.000 
#    0.000    0.000    0.000    0.000    0.000    0.000 
#
# Total GULP energy -200871.430737 kJ/mol
# GULP energy per Si atom -5579.761965 kJ/mol
# Density = 2.774190 g / cm^3
# Si number density = 27.805184 Si / 1000 Ang^3
#
#
#
# Elastic Constant Matrix: (Units=GPa)
#
#
# Indices 1 2 3 4 5 6 
#
# 1 225.0300 -19.4723 63.5172 0.0000 0.0000 0.0000
# 2 -19.4723 76.4442 14.2624 0.0000 0.0000 0.0000
# 3 63.5172 14.2624 194.7888 0.0000 0.0000 0.0000
# 4 0.0000 0.0000 0.0000 4017.8557 0.0000 0.0000
# 5 0.0000 0.0000 0.0000 0.0000 -110.5442 0.0000
# 6 0.0000 0.0000 0.0000 0.0000 0.0000 -52.6110
#
#
#
# Elastic Compliance Matrix: (Units=1/GPa)
#
#
# Indices 1 2 3 4 5 6 
#
# 1 0.005086 0.001627 -0.001778 0.000000 0.000000 0.000000
# 2 0.001627 0.013783 -0.001540 0.000000 0.000000 0.000000
# 3 -0.001778 -0.001540 0.005826 0.000000 0.000000 0.000000
# 4 0.000000 0.000000 0.000000 0.000249 0.000000 0.000000
# 5 0.000000 0.000000 0.000000 0.000000 -0.009046 0.000000
# 6 0.000000 0.000000 0.000000 0.000000 0.000000 -0.019007
#
#
# Mechanical properties :
#
#
# Convention : Reuss Voigt Hill
#
# Bulk Modulus (GPa) = 46.91449 68.09751 57.50600
# Shear Modulus (GPa) = 677.78919 800.13714 738.96317
#
# Velocity S-wave (km/s) = 15.62987 16.98205 16.31997
# Velocity P-wave (km/s) = 18.51035 20.22534 19.38682
#
# Compressibility (1/GPa) = 0.02131538
#
# Stress axis : x y z
#
# Youngs Moduli (GPa) = 196.60037 72.55177 171.63820
#
# Poissons Ratio (x) = -0.11807 0.30513
# Poissons Ratio (y) = -0.31993 0.26430
# Poissons Ratio (z) = 0.34951 0.11172
#
# Static dielectric constant tensor:
#      x y z
#    x 2.087990 0.000000 0.000000 
#    y 0.000000 2.421960 0.000000 
#    z 0.000000 0.000000 2.110160 
# 
# From -- ./inp_files/49793.got.cif
#   From: 2010.05.17/outbox.cif.g08.bks.cpg/sg64_25_cif.got.tgz:49793.got - 2010.06.03 16:29:19.
