data_PCOD9480404
_publ_section_title
;
Structure prediction by ZEFSAII (Michael W. Deem and Ramdas Pophale) SiO2 
 PCOD9480404
Probable space group: C M C A
;
_chemical_formula_sum "Si O2"
_cell_formula_units_Z 64
_cell_length_a 18.600940
_cell_length_b 11.590986
_cell_length_c 14.764982
_cell_angle_alpha 90.000000
_cell_angle_beta 90.000000
_cell_angle_gamma 90.000000
_cell_volume 3183.377886
_symmetry_space_group_name_H-M "C M C A"
_symmetry_group_IT_number 64
_symmetry_cell_setting 'orthorhombic'
loop_
_space_group_symop_operation_xyz
x,y,z
-x,1/2-y,1/2+z
x,-y,-z
-x,1/2+y,1/2-z
-x,-y,-z
x,1/2+y,1/2-z
-x,y,z
x,1/2-y,1/2+z
1/2+x,1/2+y,z
1/2-x,-y,1/2+z
1/2+x,1/2-y,-z
1/2-x,y,1/2-z
1/2-x,1/2-y,-z
1/2+x,y,1/2-z
1/2-x,1/2+y,z
1/2+x,-y,1/2+z
loop_
_atom_site_type_symbol
_atom_site_label
_atom_site_fract_x
_atom_site_fract_y
_atom_site_fract_z
Si Si1 0.849906 0.042890 0.897002
Si Si2 0.500000 0.540177 0.398111
Si Si3 0.250000 0.070106 0.250000
Si Si4 0.000000 0.208020 0.688283
Si Si5 0.881194 0.287230 0.829836
Si Si6 0.500000 0.559927 0.098347
O O1 0.861519 0.179844 0.893754
O O2 0.787326 0.005803 0.828441
O O3 0.924872 0.985416 0.861593
O O4 0.837512 0.000000 0.000000
O O5 0.500000 0.500000 0.500000
O O6 0.500000 0.423743 0.340003
O O7 0.568885 0.618563 0.377539
O O8 0.189122 0.151039 0.292680
O O9 0.069822 0.236154 0.748791
O O10 0.000000 0.301900 0.606557
O O11 0.500000 0.500000 0.000000
#
# Coordination Sequence:
#
# PCOD9480404 Si02
#       6
#    16   8   8   8  16   8
#     4  11  25  44  72  99 136 184 233 281 342 423
#     4  11  27  41  67 102 133 168 221 288 341 392
#     4  12  24  44  68 104 136 182 228 282 346 408
#     4  11  22  43  67  97 137 175 223 291 340 406
#     4  11  25  42  67  98 133 179 226 279 347 404
#     4  10  21  40  73  98 126 176 231 277 335 413
#
# _framework density 20.104431000000002
#
# number of rings (size 3 to 8) (size 9 to 14) (size 15 to 20)
#    0.000    1.000    2.500    3.750   10.500    2.000 
#    0.000    0.000    0.000    0.000    0.000    0.000 
#    0.000    0.000    0.000    0.000    0.000    0.000 
#
# Total GULP energy -178949.408697 kJ/mol
# GULP energy per Si atom -5592.169022 kJ/mol
# Density = 2.005867 g / cm^3
# Si number density = 20.104431 Si / 1000 Ang^3
#
#
#
# Elastic Constant Matrix: (Units=GPa)
#
#
# Indices 1 2 3 4 5 6 
#
# 1 159.0575 73.5945 67.8305 0.0000 0.0000 0.0000
# 2 73.5945 205.7261 90.7089 0.0000 0.0000 0.0000
# 3 67.8305 90.7089 131.3576 0.0000 0.0000 0.0000
# 4 0.0000 0.0000 0.0000 42.4478 0.0000 0.0000
# 5 0.0000 0.0000 0.0000 0.0000 12.2528 0.0000
# 6 0.0000 0.0000 0.0000 0.0000 0.0000 80.8837
#
#
#
# Elastic Compliance Matrix: (Units=1/GPa)
#
#
# Indices 1 2 3 4 5 6 
#
# 1 0.008401 -0.001571 -0.003254 0.000000 0.000000 0.000000
# 2 -0.001571 0.007282 -0.004218 0.000000 0.000000 0.000000
# 3 -0.003254 -0.004218 0.012205 0.000000 0.000000 0.000000
# 4 0.000000 0.000000 0.000000 0.023558 0.000000 0.000000
# 5 0.000000 0.000000 0.000000 0.000000 0.081614 0.000000
# 6 0.000000 0.000000 0.000000 0.000000 0.000000 0.012363
#
#
# Mechanical properties :
#
#
# Convention : Reuss Voigt Hill
#
# Bulk Modulus (GPa) = 101.98917 106.71211 104.35064
# Shear Modulus (GPa) = 29.98001 44.71733 37.34867
#
# Velocity S-wave (km/s) = 3.86581 4.72131 4.31482
# Velocity P-wave (km/s) = 8.41224 9.10578 8.76587
#
# Compressibility (1/GPa) = 0.00980496
#
# Stress axis : x y z
#
# Youngs Moduli (GPa) = 119.02866 137.31604 81.93072
#
# Poissons Ratio (x) = 0.21570 0.26656
# Poissons Ratio (y) = 0.18698 0.34556
# Poissons Ratio (z) = 0.38726 0.57916
#
# Static dielectric constant tensor:
#      x y z
#    x 1.709500 0.000000 0.000000 
#    y 0.000000 1.707130 0.000000 
#    z 0.000000 0.000000 1.727730 
# 
# From -- ./inp_files/24944.got.cif
#   From: 2010.05.17/outbox.cif.g08.bks.cpg/sg64_13_cif.got.tgz:24944.got - 2010.06.03 16:29:19.
