data_PCOD9480176
_publ_section_title
;
Structure prediction by ZEFSAII (Michael W. Deem and Ramdas Pophale) SiO2 
 PCOD9480176
Probable space group: C M C A
;
_chemical_formula_sum "Si O2"
_cell_formula_units_Z 88
_cell_length_a 15.059452
_cell_length_b 26.324442
_cell_length_c 11.528613
_cell_angle_alpha 90.000000
_cell_angle_beta 90.000000
_cell_angle_gamma 90.000000
_cell_volume 4570.307313
_symmetry_space_group_name_H-M "C M C A"
_symmetry_group_IT_number 64
_symmetry_cell_setting 'orthorhombic'
loop_
_space_group_symop_operation_xyz
x,y,z
-x,1/2-y,1/2+z
x,-y,-z
-x,1/2+y,1/2-z
-x,-y,-z
x,1/2+y,1/2-z
-x,y,z
x,1/2-y,1/2+z
1/2+x,1/2+y,z
1/2-x,-y,1/2+z
1/2+x,1/2-y,-z
1/2-x,y,1/2-z
1/2-x,1/2-y,-z
1/2+x,y,1/2-z
1/2-x,1/2+y,z
1/2+x,-y,1/2+z
loop_
_atom_site_type_symbol
_atom_site_label
_atom_site_fract_x
_atom_site_fract_y
_atom_site_fract_z
Si Si1 0.354287 0.378122 0.485712
Si Si2 0.000000 0.685346 0.571801
Si Si3 0.000000 0.366845 0.679821
Si Si4 0.102062 0.944672 0.258076
Si Si5 0.811466 0.640513 0.641385
Si Si6 0.147297 0.562580 0.221308
Si Si7 0.500000 0.693789 0.421782
O O1 0.382741 0.409998 0.372184
O O2 0.253925 0.358659 0.467764
O O3 0.367022 0.415538 0.593151
O O4 0.416194 0.330291 0.511752
O O5 0.906956 0.667151 0.630172
O O6 0.000000 0.746040 0.573515
O O7 0.000000 0.662036 0.441980
O O8 0.084830 0.403844 0.695474
O O9 0.000000 0.328098 0.789756
O O10 0.165600 0.918642 0.164293
O O11 0.000000 0.939738 0.222090
O O12 0.122816 0.003401 0.275751
O O13 0.750000 0.658803 0.750000
O O14 0.250000 0.568774 0.250000
#
# Coordination Sequence:
#
# PCOD9480176 Si02
#       7
#    16   8   8  16  16  16   8
#     4  10  21  39  61  89 120 162 210 252 303 360
#     4  12  24  45  66  89 126 161 201 261 318 353
#     4  10  24  40  60  92 122 159 201 252 309 361
#     4  11  20  36  61  90 123 162 204 247 300 367
#     4  10  23  40  63  92 124 162 205 253 304 367
#     4  11  21  37  59  88 127 163 201 248 301 368
#     4  10  24  41  66  91 117 160 210 257 303 362
#
# _framework density 19.254722999999998
#
# number of rings (size 3 to 8) (size 9 to 14) (size 15 to 20)
#    0.000    1.455    2.727    3.273    0.000    4.364 
#    0.000    7.273    0.000    0.000    0.000    0.000 
#    0.000    0.000    0.000    0.000    0.000    0.000 
#
# Total GULP energy -245641.986853 kJ/mol
# GULP energy per Si atom -5582.772428 kJ/mol
# Density = 1.921090 g / cm^3
# Si number density = 19.254723 Si / 1000 Ang^3
#
#
#
# Elastic Constant Matrix: (Units=GPa)
#
#
# Indices 1 2 3 4 5 6 
#
# 1 172.3937 67.5231 37.4892 0.0000 0.0000 0.0000
# 2 67.5231 154.7946 37.5802 0.0000 0.0000 0.0000
# 3 37.4892 37.5802 53.8671 0.0000 0.0000 0.0000
# 4 0.0000 0.0000 0.0000 16.5364 0.0000 0.0000
# 5 0.0000 0.0000 0.0000 0.0000 29.5339 0.0000
# 6 0.0000 0.0000 0.0000 0.0000 0.0000 7.4763
#
#
#
# Elastic Compliance Matrix: (Units=1/GPa)
#
#
# Indices 1 2 3 4 5 6 
#
# 1 0.007519 -0.002419 -0.003545 0.000000 0.000000 0.000000
# 2 -0.002419 0.008556 -0.004285 0.000000 0.000000 0.000000
# 3 -0.003545 -0.004285 0.024021 0.000000 0.000000 0.000000
# 4 0.000000 0.000000 0.000000 0.060473 0.000000 0.000000
# 5 0.000000 0.000000 0.000000 0.000000 0.033859 0.000000
# 6 0.000000 0.000000 0.000000 0.000000 0.000000 0.133756
#
#
# Mechanical properties :
#
#
# Convention : Reuss Voigt Hill
#
# Bulk Modulus (GPa) = 51.02915 74.02672 62.52794
# Shear Modulus (GPa) = 16.93678 26.60686 21.77182
#
# Velocity S-wave (km/s) = 2.96905 3.72134 3.36628
# Velocity P-wave (km/s) = 6.18978 7.54943 6.90316
#
# Compressibility (1/GPa) = 0.01959664
#
# Stress axis : x y z
#
# Youngs Moduli (GPa) = 132.99262 116.87933 41.63000
#
# Poissons Ratio (x) = 0.28276 0.14759
# Poissons Ratio (y) = 0.32174 0.17839
# Poissons Ratio (z) = 0.47149 0.50086
#
# Static dielectric constant tensor:
#      x y z
#    x 1.712680 0.000000 0.000000 
#    y 0.000000 1.624550 0.000000 
#    z 0.000000 0.000000 1.695380 
# 
# From -- ./inp_files/14641.got.cif
#   From: 2010.05.17/outbox.cif.g08.bks.cpg/sg64_8_cif.got.tgz:14641.got - 2010.06.03 16:29:19.
