data_PCOD9480633
_publ_section_title
;
Structure prediction by ZEFSAII (Michael W. Deem and Ramdas Pophale) SiO2 
 PCOD9480633
Probable space group: C M C A
;
_chemical_formula_sum "Si O2"
_cell_formula_units_Z 80
_cell_length_a 27.040676
_cell_length_b 14.231879
_cell_length_c 8.351630
_cell_angle_alpha 90.000000
_cell_angle_beta 90.000000
_cell_angle_gamma 90.000000
_cell_volume 3214.038190
_symmetry_space_group_name_H-M "C M C A"
_symmetry_group_IT_number 64
_symmetry_cell_setting 'orthorhombic'
loop_
_space_group_symop_operation_xyz
x,y,z
-x,1/2-y,1/2+z
x,-y,-z
-x,1/2+y,1/2-z
-x,-y,-z
x,1/2+y,1/2-z
-x,y,z
x,1/2-y,1/2+z
1/2+x,1/2+y,z
1/2-x,-y,1/2+z
1/2+x,1/2-y,-z
1/2-x,y,1/2-z
1/2-x,1/2-y,-z
1/2+x,y,1/2-z
1/2-x,1/2+y,z
1/2+x,-y,1/2+z
loop_
_atom_site_type_symbol
_atom_site_label
_atom_site_fract_x
_atom_site_fract_y
_atom_site_fract_z
Si Si1 0.336728 0.051960 0.155601
Si Si2 0.055088 0.480911 0.756511
Si Si3 0.945192 0.661801 0.544727
Si Si4 0.805510 0.622403 0.691511
Si Si5 0.845882 0.731512 0.992894
O O1 0.396224 0.045597 0.147957
O O2 0.319841 0.987161 0.301157
O O3 0.325789 0.839809 0.870593
O O4 0.314682 0.000000 0.000000
O O5 0.055840 0.407627 0.608244
O O6 0.061251 0.587297 0.689521
O O7 0.000000 0.473240 0.826916
O O8 0.902334 0.737522 0.523708
O O9 0.000000 0.704441 0.558195
O O10 0.750000 0.633773 0.750000
O O11 0.815964 0.672761 0.523789
O O12 0.838443 0.676280 0.827400
#
# Coordination Sequence:
#
# PCOD9480633 Si02
#       5
#    16  16  16  16  16
#     4  10  22  38  58  87 125 160 200 257 316 376
#     4   9  17  34  58  87 121 163 207 247 298 367
#     4   9  18  34  61  92 122 159 207 251 300 372
#     4  11  24  43  63  89 121 159 212 268 319 375
#     4  11  22  41  65  92 126 166 208 256 320 377
#
# _framework density 24.890806000000001
#
# number of rings (size 3 to 8) (size 9 to 14) (size 15 to 20)
#    0.000    2.000    2.000    3.000    0.000    2.000 
#    0.000   12.000    0.000    0.000    0.000    0.000 
#    0.000    0.000    0.000    0.000    0.000    0.000 
#
# Total GULP energy -223566.865848 kJ/mol
# GULP energy per Si atom -5589.171646 kJ/mol
# Density = 2.483415 g / cm^3
# Si number density = 24.890806 Si / 1000 Ang^3
#
#
#
# Elastic Constant Matrix: (Units=GPa)
#
#
# Indices 1 2 3 4 5 6 
#
# 1 89.4327 15.8506 -18.4760 0.0000 0.0000 0.0000
# 2 15.8506 133.6904 25.3066 0.0000 0.0000 0.0000
# 3 -18.4760 25.3066 47.4916 0.0000 0.0000 0.0000
# 4 0.0000 0.0000 0.0000 31.1546 0.0000 0.0000
# 5 0.0000 0.0000 0.0000 0.0000 19.1696 0.0000
# 6 0.0000 0.0000 0.0000 0.0000 0.0000 69.3527
#
#
#
# Elastic Compliance Matrix: (Units=1/GPa)
#
#
# Indices 1 2 3 4 5 6 
#
# 1 0.013029 -0.002785 0.006553 0.000000 0.000000 0.000000
# 2 -0.002785 0.008914 -0.005834 0.000000 0.000000 0.000000
# 3 0.006553 -0.005834 0.026714 0.000000 0.000000 0.000000
# 4 0.000000 0.000000 0.000000 0.032098 0.000000 0.000000
# 5 0.000000 0.000000 0.000000 0.000000 0.052166 0.000000
# 6 0.000000 0.000000 0.000000 0.000000 0.000000 0.014419
#
#
# Mechanical properties :
#
#
# Convention : Reuss Voigt Hill
#
# Bulk Modulus (GPa) = 22.45897 35.10859 28.78378
# Shear Modulus (GPa) = 30.06351 40.46428 35.26389
#
# Velocity S-wave (km/s) = 3.47913 4.03634 3.76805
# Velocity P-wave (km/s) = 5.01814 5.98818 5.52450
#
# Compressibility (1/GPa) = 0.04452564
#
# Stress axis : x y z
#
# Youngs Moduli (GPa) = 76.75198 112.17724 37.43320
#
# Poissons Ratio (x) = 0.31243 -0.24529
# Poissons Ratio (y) = 0.21377 0.21838
# Poissons Ratio (z) = -0.50295 0.65441
#
# Static dielectric constant tensor:
#      x y z
#    x 1.947190 0.000000 0.000000 
#    y 0.000000 1.946120 0.000000 
#    z 0.000000 0.000000 1.977560 
# 
# From -- ./inp_files/10153.got.cif
#   From: 2010.05.17/outbox.cif.g08.bks.cpg/sg64_6_cif.got.tgz:10153.got - 2010.06.03 16:29:19.
