data_PCOD9480232
_publ_section_title
;
Structure prediction by ZEFSAII (Michael W. Deem and Ramdas Pophale) SiO2 
 PCOD9480232
Probable space group: C M C A
;
_chemical_formula_sum "Si O2"
_cell_formula_units_Z 116
_cell_length_a 21.756754
_cell_length_b 14.094746
_cell_length_c 15.667126
_cell_angle_alpha 90.000000
_cell_angle_beta 90.000000
_cell_angle_gamma 90.000000
_cell_volume 4804.416959
_symmetry_space_group_name_H-M "C M C A"
_symmetry_group_IT_number 64
_symmetry_cell_setting 'orthorhombic'
loop_
_space_group_symop_operation_xyz
x,y,z
-x,1/2-y,1/2+z
x,-y,-z
-x,1/2+y,1/2-z
-x,-y,-z
x,1/2+y,1/2-z
-x,y,z
x,1/2-y,1/2+z
1/2+x,1/2+y,z
1/2-x,-y,1/2+z
1/2+x,1/2-y,-z
1/2-x,y,1/2-z
1/2-x,1/2-y,-z
1/2+x,y,1/2-z
1/2-x,1/2+y,z
1/2+x,-y,1/2+z
loop_
_atom_site_type_symbol
_atom_site_label
_atom_site_fract_x
_atom_site_fract_y
_atom_site_fract_z
Si Si1 0.908699 0.927279 0.372885
Si Si2 0.568601 0.162826 0.232858
Si Si3 0.766436 0.038284 0.648599
Si Si4 0.434960 0.614297 0.817399
Si Si5 0.068694 0.211909 0.071230
Si Si6 0.500000 0.500000 0.500000
Si Si7 0.830742 0.847146 0.063383
Si Si8 0.704850 0.667047 0.325546
O O1 0.836208 0.933509 0.369292
O O2 0.929586 0.930175 0.275243
O O3 0.927403 0.825635 0.413949
O O4 0.945541 0.003128 0.427117
O O5 0.500000 0.126242 0.210923
O O6 0.566973 0.272217 0.199242
O O7 0.570997 0.166300 0.335363
O O8 0.636838 0.130836 0.204287
O O9 0.750000 0.061064 0.750000
O O10 0.728664 0.089042 0.574018
O O11 0.760441 0.925273 0.641119
O O12 0.500000 0.586811 0.856134
O O13 0.377449 0.595008 0.875294
O O14 0.126721 0.177321 0.016860
O O15 0.000000 0.194190 0.033839
O O16 0.809045 0.748269 0.106408
O O17 0.750000 0.704759 0.250000
#
# Coordination Sequence:
#
# PCOD9480232 Si02
#       8
#    16  16  16  16  16   4  16  16
#     4  11  22  39  62  91 142 185 219 286 356 414
#     4   8  17  37  62  90 129 168 211 271 339 402
#     4  11  24  43  62  94 138 179 232 282 337 414
#     4   9  16  34  61  92 123 175 224 268 331 402
#     4  10  21  39  64 100 136 175 225 281 344 417
#     4  12  24  40  64  96 148 184 222 292 374 414
#     4  11  22  38  68  94 133 184 227 277 338 413
#     4  10  23  40  64  95 129 174 230 280 335 409
#
# _framework density 24.144449999999999
#
# number of rings (size 3 to 8) (size 9 to 14) (size 15 to 20)
#    0.000    1.931    2.759    1.655    5.793    1.103 
#    1.241    0.000    0.000    0.000    0.000    7.724 
#    0.000    0.000    0.000    0.000    0.000    0.000 
#
# Total GULP energy -323574.553904 kJ/mol
# GULP energy per Si atom -5578.871619 kJ/mol
# Density = 2.408950 g / cm^3
# Si number density = 24.144450 Si / 1000 Ang^3
#
#
#
# Elastic Constant Matrix: (Units=GPa)
#
#
# Indices 1 2 3 4 5 6 
#
# 1 167.0619 25.2636 41.1443 0.0000 0.0000 0.0000
# 2 25.2636 53.6308 12.2703 0.0000 0.0000 0.0000
# 3 41.1443 12.2703 47.1315 0.0000 0.0000 0.0000
# 4 0.0000 0.0000 0.0000 17.6814 0.0000 0.0000
# 5 0.0000 0.0000 0.0000 0.0000 44.5648 0.0000
# 6 0.0000 0.0000 0.0000 0.0000 0.0000 21.4484
#
#
#
# Elastic Compliance Matrix: (Units=1/GPa)
#
#
# Indices 1 2 3 4 5 6 
#
# 1 0.007877 -0.002273 -0.006285 0.000000 0.000000 0.000000
# 2 -0.002273 0.020483 -0.003348 0.000000 0.000000 0.000000
# 3 -0.006285 -0.003348 0.027576 0.000000 0.000000 0.000000
# 4 0.000000 0.000000 0.000000 0.056557 0.000000 0.000000
# 5 0.000000 0.000000 0.000000 0.000000 0.022439 0.000000
# 6 0.000000 0.000000 0.000000 0.000000 0.000000 0.046624
#
#
# Mechanical properties :
#
#
# Convention : Reuss Voigt Hill
#
# Bulk Modulus (GPa) = 31.13011 47.24229 39.18620
# Shear Modulus (GPa) = 23.14008 29.34864 26.24436
#
# Velocity S-wave (km/s) = 3.09916 3.49025 3.30050
# Velocity P-wave (km/s) = 5.07225 5.98761 5.54883
#
# Compressibility (1/GPa) = 0.03212324
#
# Stress axis : x y z
#
# Youngs Moduli (GPa) = 126.94563 48.82167 36.26397
#
# Poissons Ratio (x) = 0.11096 0.22792
# Poissons Ratio (y) = 0.28852 0.12143
# Poissons Ratio (z) = 0.79785 0.16347
#
# Static dielectric constant tensor:
#      x y z
#    x 2.067150 0.000000 0.000000 
#    y 0.000000 1.993840 0.000000 
#    z 0.000000 0.000000 1.933480 
# 
# From -- ./inp_files/33464.got.cif
#   From: 2010.05.17/outbox.cif.g08.bks.cpg/sg64_17_cif.got.tgz:33464.got - 2010.06.03 16:29:19.
