data_PCOD9480295
_publ_section_title
;
Structure prediction by ZEFSAII (Michael W. Deem and Ramdas Pophale) SiO2 
 PCOD9480295
Probable space group: C M C A
;
_chemical_formula_sum "Si O2"
_cell_formula_units_Z 56
_cell_length_a 14.479851
_cell_length_b 14.932202
_cell_length_c 11.031022
_cell_angle_alpha 90.000000
_cell_angle_beta 90.000000
_cell_angle_gamma 90.000000
_cell_volume 2385.084115
_symmetry_space_group_name_H-M "C M C A"
_symmetry_group_IT_number 64
_symmetry_cell_setting 'orthorhombic'
loop_
_space_group_symop_operation_xyz
x,y,z
-x,1/2-y,1/2+z
x,-y,-z
-x,1/2+y,1/2-z
-x,-y,-z
x,1/2+y,1/2-z
-x,y,z
x,1/2-y,1/2+z
1/2+x,1/2+y,z
1/2-x,-y,1/2+z
1/2+x,1/2-y,-z
1/2-x,y,1/2-z
1/2-x,1/2-y,-z
1/2+x,y,1/2-z
1/2-x,1/2+y,z
1/2+x,-y,1/2+z
loop_
_atom_site_type_symbol
_atom_site_label
_atom_site_fract_x
_atom_site_fract_y
_atom_site_fract_z
Si Si1 0.845647 0.172713 0.558093
Si Si2 0.000000 0.399703 0.670845
Si Si3 0.296474 0.367863 0.876712
Si Si4 0.000000 0.745281 0.123459
Si Si5 0.000000 0.089568 0.722506
O O1 0.768731 0.114371 0.491031
O O2 0.802979 0.258950 0.624317
O O3 0.911878 0.214053 0.453405
O O4 0.910043 0.117722 0.647191
O O5 0.098926 0.401071 0.606129
O O6 0.000000 0.308649 0.750078
O O7 0.000000 0.484993 0.756927
O O8 0.250000 0.397727 0.750000
O O9 0.000000 0.849425 0.156883
#
# Coordination Sequence:
#
# PCOD9480295 Si02
#       5
#    16   8  16   8   8
#     4  10  21  39  74  93 129 183 224 267 346 406
#     4  12  23  41  68  95 141 167 216 289 334 390
#     4  11  21  42  66  97 133 175 220 282 327 398
#     4  11  20  44  68  92 135 166 230 281 332 409
#     4  11  23  42  69 103 128 181 219 278 346 397
#
# _framework density 23.479254999999998
#
# number of rings (size 3 to 8) (size 9 to 14) (size 15 to 20)
#    0.000    1.143    5.714    0.857    0.000    2.286 
#    0.000   12.857    0.000    0.000    0.000    0.000 
#    0.000    0.000    0.000    0.000    0.000    0.000 
#
# Total GULP energy -156764.586781 kJ/mol
# GULP energy per Si atom -5598.735242 kJ/mol
# Density = 2.342582 g / cm^3
# Si number density = 23.479255 Si / 1000 Ang^3
#
#
#
# Elastic Constant Matrix: (Units=GPa)
#
#
# Indices 1 2 3 4 5 6 
#
# 1 171.1560 10.7853 57.5875 0.0000 0.0000 0.0000
# 2 10.7853 41.9024 0.1756 0.0000 0.0000 0.0000
# 3 57.5875 0.1756 59.5843 0.0000 0.0000 0.0000
# 4 0.0000 0.0000 0.0000 16.4529 0.0000 0.0000
# 5 0.0000 0.0000 0.0000 0.0000 19.3329 0.0000
# 6 0.0000 0.0000 0.0000 0.0000 0.0000 9.9939
#
#
#
# Elastic Compliance Matrix: (Units=1/GPa)
#
#
# Indices 1 2 3 4 5 6 
#
# 1 0.008865 -0.002246 -0.008561 0.000000 0.000000 0.000000
# 2 -0.002246 0.024434 0.002098 0.000000 0.000000 0.000000
# 3 -0.008561 0.002098 0.025051 0.000000 0.000000 0.000000
# 4 0.000000 0.000000 0.000000 0.060779 0.000000 0.000000
# 5 0.000000 0.000000 0.000000 0.000000 0.051725 0.000000
# 6 0.000000 0.000000 0.000000 0.000000 0.000000 0.100061
#
#
# Mechanical properties :
#
#
# Convention : Reuss Voigt Hill
#
# Bulk Modulus (GPa) = 24.43004 45.52661 34.97833
# Shear Modulus (GPa) = 16.55763 22.76224 19.65993
#
# Velocity S-wave (km/s) = 2.65845 3.11700 2.89681
# Velocity P-wave (km/s) = 4.45541 5.69091 5.11063
#
# Compressibility (1/GPa) = 0.04093320
#
# Stress axis : x y z
#
# Youngs Moduli (GPa) = 112.80910 40.92618 39.91909
#
# Poissons Ratio (x) = 0.09191 0.34174
# Poissons Ratio (y) = 0.25334 -0.08377
# Poissons Ratio (z) = 0.96574 -0.08588
#
# Static dielectric constant tensor:
#      x y z
#    x 1.908600 0.000000 0.000000 
#    y 0.000000 1.832970 0.000000 
#    z 0.000000 0.000000 1.885080 
# 
# From -- ./inp_files/13786.got.cif
#   From: 2010.05.17/outbox.cif.g08.bks.cpg/sg64_7_cif.got.tgz:13786.got - 2010.06.03 16:29:19.
