data_PCOD9480716
_publ_section_title
;
Structure prediction by ZEFSAII (Michael W. Deem and Ramdas Pophale) SiO2 
 PCOD9480716
Probable space group: C M C A
;
_chemical_formula_sum "Si O2"
_cell_formula_units_Z 96
_cell_length_a 23.075597
_cell_length_b 23.056681
_cell_length_c 9.928188
_cell_angle_alpha 90.000000
_cell_angle_beta 90.000000
_cell_angle_gamma 90.000000
_cell_volume 5282.259453
_symmetry_space_group_name_H-M "C M C A"
_symmetry_group_IT_number 64
_symmetry_cell_setting 'orthorhombic'
loop_
_space_group_symop_operation_xyz
x,y,z
-x,1/2-y,1/2+z
x,-y,-z
-x,1/2+y,1/2-z
-x,-y,-z
x,1/2+y,1/2-z
-x,y,z
x,1/2-y,1/2+z
1/2+x,1/2+y,z
1/2-x,-y,1/2+z
1/2+x,1/2-y,-z
1/2-x,y,1/2-z
1/2-x,1/2-y,-z
1/2+x,y,1/2-z
1/2-x,1/2+y,z
1/2+x,-y,1/2+z
loop_
_atom_site_type_symbol
_atom_site_label
_atom_site_fract_x
_atom_site_fract_y
_atom_site_fract_z
Si Si1 0.378353 0.684497 0.010383
Si Si2 0.627439 0.177586 0.976096
Si Si3 0.253439 0.309472 0.086416
Si Si4 0.930296 0.127277 0.265343
Si Si5 0.567078 0.375428 0.229179
Si Si6 0.929817 0.999627 0.845439
O O1 0.378841 0.753900 0.992996
O O2 0.314950 0.664147 0.958366
O O3 0.424844 0.651558 0.918343
O O4 0.394740 0.667799 0.161988
O O5 0.592055 0.142323 0.086768
O O6 0.694816 0.159733 0.963427
O O7 0.600869 0.165020 0.831002
O O8 0.250000 0.301169 0.250000
O O9 0.250000 0.250000 0.000000
O O10 0.916690 0.060850 0.225829
O O11 0.000000 0.136075 0.253658
O O12 0.500000 0.376078 0.267162
O O13 0.589781 0.441458 0.226846
O O14 0.000000 0.003721 0.850642
O O15 0.909068 0.000000 0.000000
#
# Coordination Sequence:
#
# PCOD9480716 Si02
#       6
#    16  16  16  16  16  16
#     4  11  22  37  61  85 119 156 195 236 290 352
#     4  11  24  37  56  88 124 152 188 244 299 347
#     4  10  22  39  60  84 115 158 206 239 277 349
#     4  11  23  38  59  89 121 155 196 241 290 353
#     4  11  21  36  60  86 116 157 192 237 299 347
#     4   9  18  36  59  81 110 156 206 235 272 348
#
# _framework density 18.174042
#
# number of rings (size 3 to 8) (size 9 to 14) (size 15 to 20)
#    0.000    1.500    3.333    2.000    7.000    4.667 
#    0.000    2.500    0.000    6.000    0.000    0.000 
#    0.000    0.000    0.000    0.000    0.000    0.000 
#
# Total GULP energy -267635.195232 kJ/mol
# GULP energy per Si atom -5575.733234 kJ/mol
# Density = 1.813268 g / cm^3
# Si number density = 18.174042 Si / 1000 Ang^3
#
#
#
# Elastic Constant Matrix: (Units=GPa)
#
#
# Indices 1 2 3 4 5 6 
#
# 1 77.0942 12.8938 3.1035 0.0000 0.0000 0.0000
# 2 12.8938 72.4707 -7.3223 0.0000 0.0000 0.0000
# 3 3.1035 -7.3223 43.6067 0.0000 0.0000 0.0000
# 4 0.0000 0.0000 0.0000 10.5559 0.0000 0.0000
# 5 0.0000 0.0000 0.0000 0.0000 29.6364 0.0000
# 6 0.0000 0.0000 0.0000 0.0000 0.0000 -13.5970
#
#
#
# Elastic Compliance Matrix: (Units=1/GPa)
#
#
# Indices 1 2 3 4 5 6 
#
# 1 0.013450 -0.002533 -0.001383 0.000000 0.000000 0.000000
# 2 -0.002533 0.014514 0.002617 0.000000 0.000000 0.000000
# 3 -0.001383 0.002617 0.023470 0.000000 0.000000 0.000000
# 4 0.000000 0.000000 0.000000 0.094734 0.000000 0.000000
# 5 0.000000 0.000000 0.000000 0.000000 0.033742 0.000000
# 6 0.000000 0.000000 0.000000 0.000000 0.000000 -0.073546
#
#
# Mechanical properties :
#
#
# Convention : Reuss Voigt Hill
#
# Bulk Modulus (GPa) = 20.47570 23.39129 21.93349
# Shear Modulus (GPa) = 39.92340 17.61884 28.77112
#
# Velocity S-wave (km/s) = 4.69201 3.11698 3.98312
# Velocity P-wave (km/s) = 6.37528 5.08456 5.76615
#
# Compressibility (1/GPa) = 0.04883838
#
# Stress axis : x y z
#
# Youngs Moduli (GPa) = 74.34725 68.90018 42.60735
#
# Poissons Ratio (x) = 0.17451 0.05891
# Poissons Ratio (y) = 0.18830 -0.11152
# Poissons Ratio (z) = 0.10279 -0.18034
#
# Static dielectric constant tensor:
#      x y z
#    x 1.652530 0.000000 0.000000 
#    y 0.000000 1.623850 0.000000 
#    z 0.000000 0.000000 1.606480 
# 
# From -- ./inp_files/9499.got.cif
#   From: 2010.05.17/outbox.cif.g08.bks.cpg/sg64_5_cif.got.tgz:9499.got - 2010.06.03 16:29:19.
