data_PCOD9480233
_publ_section_title
;
Structure prediction by ZEFSAII (Michael W. Deem and Ramdas Pophale) SiO2 
 PCOD9480233
Probable space group: C M C A
;
_chemical_formula_sum "Si O2"
_cell_formula_units_Z 96
_cell_length_a 16.388237
_cell_length_b 23.835502
_cell_length_c 11.973587
_cell_angle_alpha 90.000000
_cell_angle_beta 90.000000
_cell_angle_gamma 90.000000
_cell_volume 4677.144774
_symmetry_space_group_name_H-M "C M C A"
_symmetry_group_IT_number 64
_symmetry_cell_setting 'orthorhombic'
loop_
_space_group_symop_operation_xyz
x,y,z
-x,1/2-y,1/2+z
x,-y,-z
-x,1/2+y,1/2-z
-x,-y,-z
x,1/2+y,1/2-z
-x,y,z
x,1/2-y,1/2+z
1/2+x,1/2+y,z
1/2-x,-y,1/2+z
1/2+x,1/2-y,-z
1/2-x,y,1/2-z
1/2-x,1/2-y,-z
1/2+x,y,1/2-z
1/2-x,1/2+y,z
1/2+x,-y,1/2+z
loop_
_atom_site_type_symbol
_atom_site_label
_atom_site_fract_x
_atom_site_fract_y
_atom_site_fract_z
Si Si1 0.593544 0.220115 0.903194
Si Si2 0.095046 0.562259 0.960101
Si Si3 0.824089 0.658306 0.094077
Si Si4 0.903676 0.436776 0.482700
Si Si5 0.403900 0.375215 0.235687
Si Si6 0.865152 0.656458 0.343562
O O1 0.500000 0.201377 0.922701
O O2 0.625940 0.181456 0.799469
O O3 0.593881 0.285558 0.879027
O O4 0.644648 0.207730 0.014297
O O5 0.155344 0.603367 0.023484
O O6 0.000000 0.574499 0.988811
O O7 0.111714 0.500000 0.000000
O O8 0.102804 0.575958 0.828913
O O9 0.871357 0.653206 0.210554
O O10 0.729680 0.662841 0.123130
O O11 0.869877 0.500000 0.500000
O O12 0.868074 0.399711 0.379443
O O13 0.896188 0.398392 0.592343
O O14 0.000000 0.444212 0.456652
O O15 0.500000 0.363650 0.213993
#
# Coordination Sequence:
#
# PCOD9480233 Si02
#       6
#    16  16  16  16  16  16
#     4  10  21  39  64  88 115 153 202 252 295 352
#     4   9  18  34  62  88 111 150 199 250 295 346
#     4  10  23  41  57  86 122 155 196 247 294 362
#     4  10  22  38  59  88 122 158 199 247 300 359
#     4   8  17  35  55  85 117 143 187 245 296 343
#     4  11  24  39  59  86 122 163 194 240 304 363
#
# _framework density 20.525342999999999
#
# number of rings (size 3 to 8) (size 9 to 14) (size 15 to 20)
#    0.000    2.333    0.000    2.500    4.667    3.333 
#    0.000    2.500    0.000    0.000    0.000    0.000 
#    0.000    0.000    0.000    0.000    0.000    0.000 
#
# Total GULP energy -267727.395352 kJ/mol
# GULP energy per Si atom -5577.654070 kJ/mol
# Density = 2.047863 g / cm^3
# Si number density = 20.525343 Si / 1000 Ang^3
#
#
#
# Elastic Constant Matrix: (Units=GPa)
#
#
# Indices 1 2 3 4 5 6 
#
# 1 17.8143 -7.0364 9.3138 0.0000 0.0000 0.0000
# 2 -7.0364 106.9677 29.8911 0.0000 0.0000 0.0000
# 3 9.3138 29.8911 106.3891 0.0000 0.0000 0.0000
# 4 0.0000 0.0000 0.0000 12.2657 0.0000 0.0000
# 5 0.0000 0.0000 0.0000 0.0000 19.9740 0.0000
# 6 0.0000 0.0000 0.0000 0.0000 0.0000 15.3465
#
#
#
# Elastic Compliance Matrix: (Units=1/GPa)
#
#
# Indices 1 2 3 4 5 6 
#
# 1 0.062291 0.006100 -0.007167 0.000000 0.000000 0.000000
# 2 0.006100 0.010743 -0.003552 0.000000 0.000000 0.000000
# 3 -0.007167 -0.003552 0.011025 0.000000 0.000000 0.000000
# 4 0.000000 0.000000 0.000000 0.081528 0.000000 0.000000
# 5 0.000000 0.000000 0.000000 0.000000 0.050065 0.000000
# 6 0.000000 0.000000 0.000000 0.000000 0.000000 0.065161
#
#
# Mechanical properties :
#
#
# Convention : Reuss Voigt Hill
#
# Bulk Modulus (GPa) = 13.36531 32.83424 23.09978
# Shear Modulus (GPa) = 15.87342 22.78407 19.32875
#
# Velocity S-wave (km/s) = 2.78395 3.33535 3.07204
# Velocity P-wave (km/s) = 4.10604 5.55557 4.88487
#
# Compressibility (1/GPa) = 0.07482054
#
# Stress axis : x y z
#
# Youngs Moduli (GPa) = 16.05359 93.08771 90.70322
#
# Poissons Ratio (x) = -0.56787 0.65009
# Poissons Ratio (y) = -0.09793 0.32220
# Poissons Ratio (z) = 0.11506 0.33067
#
# Static dielectric constant tensor:
#      x y z
#    x 1.766380 0.000000 0.000000 
#    y 0.000000 1.754090 0.000000 
#    z 0.000000 0.000000 1.737730 
# 
# From -- ./inp_files/16216.got.cif
#   From: 2010.05.17/outbox.cif.g08.bks.cpg/sg64_9_cif.got.tgz:16216.got - 2010.06.03 16:29:19.
