data_PCOD9480691
_publ_section_title
;
Structure prediction by ZEFSAII (Michael W. Deem and Ramdas Pophale) SiO2 
 PCOD9480691
Probable space group: C M C A
;
_chemical_formula_sum "Si O2"
_cell_formula_units_Z 96
_cell_length_a 9.503988
_cell_length_b 20.708951
_cell_length_c 23.845205
_cell_angle_alpha 90.000000
_cell_angle_beta 90.000000
_cell_angle_gamma 90.000000
_cell_volume 4693.156539
_symmetry_space_group_name_H-M "C M C A"
_symmetry_group_IT_number 64
_symmetry_cell_setting 'orthorhombic'
loop_
_space_group_symop_operation_xyz
x,y,z
-x,1/2-y,1/2+z
x,-y,-z
-x,1/2+y,1/2-z
-x,-y,-z
x,1/2+y,1/2-z
-x,y,z
x,1/2-y,1/2+z
1/2+x,1/2+y,z
1/2-x,-y,1/2+z
1/2+x,1/2-y,-z
1/2-x,y,1/2-z
1/2-x,1/2-y,-z
1/2+x,y,1/2-z
1/2-x,1/2+y,z
1/2+x,-y,1/2+z
loop_
_atom_site_type_symbol
_atom_site_label
_atom_site_fract_x
_atom_site_fract_y
_atom_site_fract_z
Si Si1 0.333204 0.610882 0.929517
Si Si2 0.342769 0.988947 0.923332
Si Si3 0.671089 0.800324 0.851043
Si Si4 0.168666 0.339003 0.305474
Si Si5 0.836862 0.842757 0.529122
Si Si6 0.337171 0.064028 0.198749
O O1 0.500000 0.615448 0.936717
O O2 0.274037 0.539414 0.941381
O O3 0.299920 0.625971 0.864479
O O4 0.256484 0.658030 0.973562
O O5 0.500000 0.015117 0.935722
O O6 0.334654 0.917394 0.949027
O O7 0.330514 0.978412 0.856861
O O8 0.500000 0.803706 0.853510
O O9 0.708736 0.735503 0.818834
O O10 0.715369 0.803336 0.916331
O O11 0.718273 0.864951 0.819174
O O12 0.250000 0.361300 0.250000
O O13 0.000000 0.342742 0.296404
O O14 0.000000 0.826066 0.517558
O O15 0.500000 0.070577 0.214973
O O16 0.250000 0.037292 0.250000
#
# Coordination Sequence:
#
# PCOD9480691 Si02
#       6
#    16  16  16  16  16  16
#     4  11  23  35  50  77 110 139 169 211 257 299
#     4   9  19  35  53  74 102 138 177 212 252 308
#     4   8  16  34  57  78 102 132 168 213 260 305
#     4  10  22  39  56  76 105 140 176 212 252 301
#     4   9  18  35  59  81 101 132 172 211 257 312
#     4   9  17  30  51  77 101 129 169 216 263 307
#
# _framework density 20.455317000000001
#
# number of rings (size 3 to 8) (size 9 to 14) (size 15 to 20)
#    0.000    2.667    0.000    3.500    0.000    6.000 
#    0.000    6.667    0.000    0.000    0.000    0.000 
#    0.000    0.000    0.000    0.000    0.000    0.000 
#
# Total GULP energy -267900.223926 kJ/mol
# GULP energy per Si atom -5581.254665 kJ/mol
# Density = 2.040876 g / cm^3
# Si number density = 20.455317 Si / 1000 Ang^3
#
#
#
# Elastic Constant Matrix: (Units=GPa)
#
#
# Indices 1 2 3 4 5 6 
#
# 1 51.6493 4.8994 61.7506 0.0000 0.0000 0.0000
# 2 4.8994 21.0426 7.7953 0.0000 0.0000 0.0000
# 3 61.7506 7.7953 152.3415 0.0000 0.0000 0.0000
# 4 0.0000 0.0000 0.0000 12.0700 0.0000 0.0000
# 5 0.0000 0.0000 0.0000 0.0000 34.7206 0.0000
# 6 0.0000 0.0000 0.0000 0.0000 0.0000 8.8239
#
#
#
# Elastic Compliance Matrix: (Units=1/GPa)
#
#
# Indices 1 2 3 4 5 6 
#
# 1 0.037775 -0.003183 -0.015149 0.000000 0.000000 0.000000
# 2 -0.003183 0.048709 -0.001202 0.000000 0.000000 0.000000
# 3 -0.015149 -0.001202 0.012766 0.000000 0.000000 0.000000
# 4 0.000000 0.000000 0.000000 0.082850 0.000000 0.000000
# 5 0.000000 0.000000 0.000000 0.000000 0.028801 0.000000
# 6 0.000000 0.000000 0.000000 0.000000 0.000000 0.113329
#
#
# Mechanical properties :
#
#
# Convention : Reuss Voigt Hill
#
# Bulk Modulus (GPa) = 16.61630 41.54709 29.08169
# Shear Modulus (GPa) = 13.04256 21.16210 17.10233
#
# Velocity S-wave (km/s) = 2.52784 3.21994 2.89465
# Velocity P-wave (km/s) = 4.08176 5.84630 5.04183
#
# Compressibility (1/GPa) = 0.06018187
#
# Stress axis : x y z
#
# Youngs Moduli (GPa) = 26.47249 20.52999 78.33153
#
# Poissons Ratio (x) = 0.06535 1.18664
# Poissons Ratio (y) = 0.08427 0.09417
# Poissons Ratio (z) = 0.40103 0.02468
#
# Static dielectric constant tensor:
#      x y z
#    x 1.682120 0.000000 0.000000 
#    y 0.000000 1.755780 0.000000 
#    z 0.000000 0.000000 1.749970 
# 
# From -- ./inp_files/42961.got.cif
#   From: 2010.05.17/outbox.cif.g08.bks.cpg/sg64_22_cif.got.tgz:42961.got - 2010.06.03 16:29:19.
