data_PCOD9480960
_publ_section_title
;
Structure prediction by ZEFSAII (Michael W. Deem and Ramdas Pophale) SiO2 
 PCOD9480960
Probable space group: C M C A
;
_chemical_formula_sum "Si O2"
_cell_formula_units_Z 48
_cell_length_a 18.666598
_cell_length_b 5.568874
_cell_length_c 18.547469
_cell_angle_alpha 90.000000
_cell_angle_beta 90.000000
_cell_angle_gamma 90.000000
_cell_volume 1928.045241
_symmetry_space_group_name_H-M "C M C A"
_symmetry_group_IT_number 64
_symmetry_cell_setting 'orthorhombic'
loop_
_space_group_symop_operation_xyz
x,y,z
-x,1/2-y,1/2+z
x,-y,-z
-x,1/2+y,1/2-z
-x,-y,-z
x,1/2+y,1/2-z
-x,y,z
x,1/2-y,1/2+z
1/2+x,1/2+y,z
1/2-x,-y,1/2+z
1/2+x,1/2-y,-z
1/2-x,y,1/2-z
1/2-x,1/2-y,-z
1/2+x,y,1/2-z
1/2-x,1/2+y,z
1/2+x,-y,1/2+z
loop_
_atom_site_type_symbol
_atom_site_label
_atom_site_fract_x
_atom_site_fract_y
_atom_site_fract_z
Si Si1 0.224460 0.126600 0.092120
Si Si2 0.581340 0.108837 0.920067
Si Si3 0.655122 0.122072 0.207609
O O1 0.261899 0.364903 0.061167
O O2 0.141127 0.188120 0.092796
O O3 0.266647 0.111686 0.169161
O O4 0.500000 0.192313 0.912307
O O5 0.600959 0.910703 0.859956
O O6 0.590550 0.000000 0.000000
O O7 0.644424 0.377793 0.246111
#
# Coordination Sequence:
#
# PCOD9480960 Si02
#       3
#    16  16  16
#     4  10  22  41  70 101 138 182 237 295 357 423
#     4  10  24  47  74 109 154 200 248 306 374 449
#     4  11  24  44  71 104 141 185 241 304 365 432
#
# _framework density 24.895678
#
# number of rings (size 3 to 8) (size 9 to 14) (size 15 to 20)
#    0.000    1.667    0.000    4.000    0.000   22.667 
#    0.000   21.667    0.000   38.000    0.000    0.000 
#    0.000    0.000    0.000    0.000    0.000    0.000 
#
# Total GULP energy -134279.132987 kJ/mol
# GULP energy per Si atom -5594.963874 kJ/mol
# Density = 2.483901 g / cm^3
# Si number density = 24.895678 Si / 1000 Ang^3
#
#
#
# Elastic Constant Matrix: (Units=GPa)
#
#
# Indices 1 2 3 4 5 6 
#
# 1 215.8831 63.5407 56.5855 0.0000 0.0000 0.0000
# 2 63.5407 230.3817 91.7058 0.0000 0.0000 0.0000
# 3 56.5855 91.7058 163.2780 0.0000 0.0000 0.0000
# 4 0.0000 0.0000 0.0000 62.6755 0.0000 0.0000
# 5 0.0000 0.0000 0.0000 0.0000 10.7195 0.0000
# 6 0.0000 0.0000 0.0000 0.0000 0.0000 11.3656
#
#
#
# Elastic Compliance Matrix: (Units=1/GPa)
#
#
# Indices 1 2 3 4 5 6 
#
# 1 0.005246 -0.000931 -0.001295 0.000000 0.000000 0.000000
# 2 -0.000931 0.005756 -0.002910 0.000000 0.000000 0.000000
# 3 -0.001295 -0.002910 0.008208 0.000000 0.000000 0.000000
# 4 0.000000 0.000000 0.000000 0.015955 0.000000 0.000000
# 5 0.000000 0.000000 0.000000 0.000000 0.093288 0.000000
# 6 0.000000 0.000000 0.000000 0.000000 0.000000 0.087985
#
#
# Mechanical properties :
#
#
# Convention : Reuss Voigt Hill
#
# Bulk Modulus (GPa) = 111.89734 114.80075 113.34904
# Shear Modulus (GPa) = 21.76857 43.46615 32.61736
#
# Velocity S-wave (km/s) = 2.96022 4.18297 3.62354
# Velocity P-wave (km/s) = 7.53179 8.33921 7.94577
#
# Compressibility (1/GPa) = 0.00893676
#
# Stress axis : x y z
#
# Youngs Moduli (GPa) = 190.63400 173.73567 121.83694
#
# Poissons Ratio (x) = 0.16181 0.15776
# Poissons Ratio (y) = 0.17755 0.35455
# Poissons Ratio (z) = 0.24684 0.50558
#
# Static dielectric constant tensor:
#      x y z
#    x 1.925530 0.000000 0.000000 
#    y 0.000000 1.958280 0.000000 
#    z 0.000000 0.000000 2.179130 
# 
# From -- ./inp_files/46066.got.cif
#   From: 2010.05.17/outbox.cif.g08.bks.cpg/sg64_24_cif.got.tgz:46066.got - 2010.06.03 16:29:19.
