data_PCOD9480773
_publ_section_title
;
Structure prediction by ZEFSAII (Michael W. Deem and Ramdas Pophale) SiO2 
 PCOD9480773
Probable space group: C M C A
;
_chemical_formula_sum "Si O2"
_cell_formula_units_Z 48
_cell_length_a 29.805671
_cell_length_b 13.968566
_cell_length_c 4.980549
_cell_angle_alpha 90.000000
_cell_angle_beta 90.000000
_cell_angle_gamma 90.000000
_cell_volume 2073.614135
_symmetry_space_group_name_H-M "C M C A"
_symmetry_group_IT_number 64
_symmetry_cell_setting 'orthorhombic'
loop_
_space_group_symop_operation_xyz
x,y,z
-x,1/2-y,1/2+z
x,-y,-z
-x,1/2+y,1/2-z
-x,-y,-z
x,1/2+y,1/2-z
-x,y,z
x,1/2-y,1/2+z
1/2+x,1/2+y,z
1/2-x,-y,1/2+z
1/2+x,1/2-y,-z
1/2-x,y,1/2-z
1/2-x,1/2-y,-z
1/2+x,y,1/2-z
1/2-x,1/2+y,z
1/2+x,-y,1/2+z
loop_
_atom_site_type_symbol
_atom_site_label
_atom_site_fract_x
_atom_site_fract_y
_atom_site_fract_z
Si Si1 0.220228 0.616461 0.006261
Si Si2 0.365790 0.064033 0.252150
Si Si3 0.049566 0.683497 0.341535
O O1 0.250000 0.643469 0.750000
O O2 0.218023 0.500000 0.000000
O O3 0.250000 0.648617 0.250000
O O4 0.169433 0.636889 0.106926
O O5 0.408405 0.115199 0.380164
O O6 0.345085 0.000000 0.500000
O O7 0.381052 0.000000 0.000000
O O8 0.052344 0.772139 0.545337
O O9 0.000000 0.639048 0.378568
#
# Coordination Sequence:
#
# PCOD9480773 Si02
#       3
#    16  16  16
#     4   9  16  28  47  74 109 141 173 219 274 330
#     4  11  21  34  58  89 115 144 193 247 285 324
#     4  10  22  40  59  80 114 159 194 227 288 358
#
# _framework density 23.147988999999999
#
# number of rings (size 3 to 8) (size 9 to 14) (size 15 to 20)
#    0.000    2.000    0.000    7.000    0.000    1.333 
#    0.000    0.000    0.000    6.000    0.000    0.000 
#    0.000   10.667    0.000    0.000    0.000    0.000 
#
# Total GULP energy -133767.697981 kJ/mol
# GULP energy per Si atom -5573.654083 kJ/mol
# Density = 2.309530 g / cm^3
# Si number density = 23.147989 Si / 1000 Ang^3
#
#
#
# Elastic Constant Matrix: (Units=GPa)
#
#
# Indices 1 2 3 4 5 6 
#
# 1 155.3800 21.8540 27.4331 0.0000 0.0000 0.0000
# 2 21.8540 30.5826 -2.8392 0.0000 0.0000 0.0000
# 3 27.4331 -2.8392 130.6199 0.0000 0.0000 0.0000
# 4 0.0000 0.0000 0.0000 18.5237 0.0000 0.0000
# 5 0.0000 0.0000 0.0000 0.0000 35.8162 0.0000
# 6 0.0000 0.0000 0.0000 0.0000 0.0000 66.3942
#
#
#
# Elastic Compliance Matrix: (Units=1/GPa)
#
#
# Indices 1 2 3 4 5 6 
#
# 1 0.007513 -0.005526 -0.001698 0.000000 0.000000 0.000000
# 2 -0.005526 0.036829 0.001961 0.000000 0.000000 0.000000
# 3 -0.001698 0.001961 0.008055 0.000000 0.000000 0.000000
# 4 0.000000 0.000000 0.000000 0.053985 0.000000 0.000000
# 5 0.000000 0.000000 0.000000 0.000000 0.027920 0.000000
# 6 0.000000 0.000000 0.000000 0.000000 0.000000 0.015062
#
#
# Mechanical properties :
#
#
# Convention : Reuss Voigt Hill
#
# Bulk Modulus (GPa) = 23.88274 45.49758 34.69016
# Shear Modulus (GPa) = 28.76087 42.15580 35.45833
#
# Velocity S-wave (km/s) = 3.52870 4.27211 3.91808
# Velocity P-wave (km/s) = 5.19058 6.63569 5.95712
#
# Compressibility (1/GPa) = 0.04187125
#
# Stress axis : x y z
#
# Youngs Moduli (GPa) = 133.10460 27.15216 124.14574
#
# Poissons Ratio (x) = 0.15005 0.21080
# Poissons Ratio (y) = 0.73557 -0.24347
# Poissons Ratio (z) = 0.22601 -0.05325
#
# Static dielectric constant tensor:
#      x y z
#    x 1.768540 0.000000 0.000000 
#    y 0.000000 1.904460 0.000000 
#    z 0.000000 0.000000 1.810080 
# 
# From -- ./inp_files/2544.got.cif
#   From: 2010.05.17/outbox.cif.g08.bks.cpg/sg64_2_cif.got.tgz:2544.got - 2010.06.03 16:29:19.
