data_PCOD9480741
_publ_section_title
;
Structure prediction by ZEFSAII (Michael W. Deem and Ramdas Pophale) SiO2 
 PCOD9480741
Probable space group: C M C A
;
_chemical_formula_sum "Si O2"
_cell_formula_units_Z 104
_cell_length_a 19.619051
_cell_length_b 18.837707
_cell_length_c 12.196856
_cell_angle_alpha 90.000000
_cell_angle_beta 90.000000
_cell_angle_gamma 90.000000
_cell_volume 4507.688846
_symmetry_space_group_name_H-M "C M C A"
_symmetry_group_IT_number 64
_symmetry_cell_setting 'orthorhombic'
loop_
_space_group_symop_operation_xyz
x,y,z
-x,1/2-y,1/2+z
x,-y,-z
-x,1/2+y,1/2-z
-x,-y,-z
x,1/2+y,1/2-z
-x,y,z
x,1/2-y,1/2+z
1/2+x,1/2+y,z
1/2-x,-y,1/2+z
1/2+x,1/2-y,-z
1/2-x,y,1/2-z
1/2-x,1/2-y,-z
1/2+x,y,1/2-z
1/2-x,1/2+y,z
1/2+x,-y,1/2+z
loop_
_atom_site_type_symbol
_atom_site_label
_atom_site_fract_x
_atom_site_fract_y
_atom_site_fract_z
Si Si1 0.233817 0.103314 0.902671
Si Si2 0.392289 0.362665 0.358886
Si Si3 0.871758 0.277831 0.338755
Si Si4 0.000000 0.112312 0.214428
Si Si5 0.500000 0.554531 0.784234
Si Si6 0.500000 0.831316 0.469794
Si Si7 0.885710 0.129300 0.395787
Si Si8 0.755277 0.558092 0.131124
O O1 0.311950 0.121904 0.875705
O O2 0.183450 0.160453 0.853808
O O3 0.225592 0.021379 0.866641
O O4 0.221348 0.100642 0.032976
O O5 0.398199 0.290979 0.285705
O O6 0.434666 0.419319 0.286850
O O7 0.418313 0.363127 0.483912
O O8 0.933758 0.291214 0.422854
O O9 0.843336 0.201229 0.370972
O O10 0.936544 0.127076 0.294412
O O11 0.000000 0.028197 0.194149
O O12 0.000000 0.153056 0.098856
O O13 0.500000 0.595738 0.899305
O O14 0.835708 0.061566 0.396738
O O15 0.750000 0.590245 0.250000
#
# Coordination Sequence:
#
# PCOD9480741 Si02
#       8
#    16  16  16   8   8   8  16  16
#     4  10  22  41  66  95 131 187 225 276 346 413
#     4  10  22  42  67  96 136 175 230 268 351 418
#     4  11  24  44  67  95 139 188 227 283 343 414
#     4  12  25  43  69 103 136 171 236 291 342 409
#     4  10  22  45  70 100 136 180 217 293 347 417
#     4  10  26  44  67  99 132 183 235 280 348 419
#     4  11  26  40  67 102 133 180 224 290 341 407
#     4  10  22  39  62  97 133 170 227 280 339 400
#
# _framework density 23.07169
#
# number of rings (size 3 to 8) (size 9 to 14) (size 15 to 20)
#    0.000    1.538    0.000    3.462    4.308    7.385 
#    5.538    0.000    0.000    0.000    0.000    0.000 
#    0.000    0.000    0.000    0.000    0.000    0.000 
#
# Total GULP energy -290505.885267 kJ/mol
# GULP energy per Si atom -5586.651640 kJ/mol
# Density = 2.301918 g / cm^3
# Si number density = 23.071690 Si / 1000 Ang^3
#
#
#
# Elastic Constant Matrix: (Units=GPa)
#
#
# Indices 1 2 3 4 5 6 
#
# 1 85.3386 20.5810 4.1367 0.0000 0.0000 0.0000
# 2 20.5810 80.8648 8.7739 0.0000 0.0000 0.0000
# 3 4.1367 8.7739 175.0023 0.0000 0.0000 0.0000
# 4 0.0000 0.0000 0.0000 16.4551 0.0000 0.0000
# 5 0.0000 0.0000 0.0000 0.0000 29.4893 0.0000
# 6 0.0000 0.0000 0.0000 0.0000 0.0000 22.3122
#
#
#
# Elastic Compliance Matrix: (Units=1/GPa)
#
#
# Indices 1 2 3 4 5 6 
#
# 1 0.012488 -0.003163 -0.000137 0.000000 0.000000 0.000000
# 2 -0.003163 0.013235 -0.000589 0.000000 0.000000 0.000000
# 3 -0.000137 -0.000589 0.005747 0.000000 0.000000 0.000000
# 4 0.000000 0.000000 0.000000 0.060771 0.000000 0.000000
# 5 0.000000 0.000000 0.000000 0.000000 0.033911 0.000000
# 6 0.000000 0.000000 0.000000 0.000000 0.000000 0.044818
#
#
# Mechanical properties :
#
#
# Convention : Reuss Voigt Hill
#
# Bulk Modulus (GPa) = 42.20780 45.35432 43.78106
# Shear Modulus (GPa) = 26.78879 34.16561 30.47720
#
# Velocity S-wave (km/s) = 3.41120 3.85235 3.63847
# Velocity P-wave (km/s) = 5.81799 6.28396 6.05546
#
# Compressibility (1/GPa) = 0.02369230
#
# Stress axis : x y z
#
# Youngs Moduli (GPa) = 80.07973 75.55545 174.00510
#
# Poissons Ratio (x) = 0.23901 0.02377
# Poissons Ratio (y) = 0.25332 0.10245
# Poissons Ratio (z) = 0.01094 0.04449
#
# Static dielectric constant tensor:
#      x y z
#    x 1.895940 0.000000 0.000000 
#    y 0.000000 1.862570 0.000000 
#    z 0.000000 0.000000 1.892940 
# 
# From -- ./inp_files/26605.got.cif
#   From: 2010.05.17/outbox.cif.g08.bks.cpg/sg64_14_cif.got.tgz:26605.got - 2010.06.03 16:29:19.
