data_PCOD9480082
_publ_section_title
;
Structure prediction by ZEFSAII (Michael W. Deem and Ramdas Pophale) SiO2 
 PCOD9480082
Probable space group: C M C A
;
_chemical_formula_sum "Si O2"
_cell_formula_units_Z 80
_cell_length_a 8.851050
_cell_length_b 25.402166
_cell_length_c 18.733115
_cell_angle_alpha 90.000000
_cell_angle_beta 90.000000
_cell_angle_gamma 90.000000
_cell_volume 4211.875673
_symmetry_space_group_name_H-M "C M C A"
_symmetry_group_IT_number 64
_symmetry_cell_setting 'orthorhombic'
loop_
_space_group_symop_operation_xyz
x,y,z
-x,1/2-y,1/2+z
x,-y,-z
-x,1/2+y,1/2-z
-x,-y,-z
x,1/2+y,1/2-z
-x,y,z
x,1/2-y,1/2+z
1/2+x,1/2+y,z
1/2-x,-y,1/2+z
1/2+x,1/2-y,-z
1/2-x,y,1/2-z
1/2-x,1/2-y,-z
1/2+x,y,1/2-z
1/2-x,1/2+y,z
1/2+x,-y,1/2+z
loop_
_atom_site_type_symbol
_atom_site_label
_atom_site_fract_x
_atom_site_fract_y
_atom_site_fract_z
Si Si1 0.820270 0.191474 0.172584
Si Si2 0.820477 0.397568 0.922442
Si Si3 0.320068 0.501259 0.671415
Si Si4 0.319996 0.184394 0.827510
Si Si5 0.180391 0.405125 0.422207
O O1 0.750000 0.178885 0.250000
O O2 0.744725 0.154906 0.113542
O O3 0.793714 0.253536 0.159235
O O4 0.000000 0.182548 0.174546
O O5 0.793738 0.445892 0.868322
O O6 0.000000 0.392756 0.933695
O O7 0.740957 0.408889 0.997409
O O8 0.500000 0.510091 0.675756
O O9 0.250000 0.500683 0.750000
O O10 0.245704 0.547122 0.624597
O O11 0.500000 0.175154 0.826167
O O12 0.250000 0.171612 0.750000
O O13 0.242411 0.148203 0.886315
O O14 0.000000 0.405878 0.421059
#
# Coordination Sequence:
#
# PCOD9480082 Si02
#       5
#    16  16  16  16  16
#     4  10  21  38  62  90 120 157 199 244 293 347
#     4  11  24  41  62  88 121 158 196 243 296 351
#     4  11  24  42  64  89 118 154 196 241 292 350
#     4  10  21  39  62  88 120 157 199 245 293 348
#     4  12  25  40  61  88 120 157 197 244 297 352
#
# _framework density 18.993912000000002
#
# number of rings (size 3 to 8) (size 9 to 14) (size 15 to 20)
#    0.000    1.200    0.000    6.000    0.000   10.400 
#    0.000    0.000    0.000    0.000    0.000    0.000 
#    0.000    0.000    0.000    0.000    0.000    0.000 
#
# Total GULP energy -223837.652480 kJ/mol
# GULP energy per Si atom -5595.941312 kJ/mol
# Density = 1.895068 g / cm^3
# Si number density = 18.993912 Si / 1000 Ang^3
#
#
#
# Elastic Constant Matrix: (Units=GPa)
#
#
# Indices 1 2 3 4 5 6 
#
# 1 -3860.1373-3410.3845-6697.2704 0.0000 0.0000 0.0000
# 2 -3410.3845-2969.9787-5857.9957 0.0000 0.0000 0.0000
# 3 -6697.2704-5857.9957********** 0.0000 0.0000 0.0000
# 4 0.0000 0.0000 0.0000 -242.7788 0.0000 0.0000
# 5 0.0000 0.0000 0.0000 0.0000 41.6368 0.0000
# 6 0.0000 0.0000 0.0000 0.0000 0.0000 24.4196
#
#
#
# Elastic Compliance Matrix: (Units=1/GPa)
#
#
# Indices 1 2 3 4 5 6 
#
# 1 0.019663 -0.015843 -0.003415 0.000000 0.000000 0.000000
# 2 -0.015843 0.035424 -0.008907 0.000000 0.000000 0.000000
# 3 -0.003415 -0.008907 0.006504 0.000000 0.000000 0.000000
# 4 0.000000 0.000000 0.000000 -0.004119 0.000000 0.000000
# 5 0.000000 0.000000 0.000000 0.000000 0.024017 0.000000
# 6 0.000000 0.000000 0.000000 0.000000 0.000000 0.040951
#
#
# Mechanical properties :
#
#
# Convention : Reuss Voigt Hill
#
# Bulk Modulus (GPa) = 190.08909 -5571.84057 -2690.87574
# Shear Modulus (GPa) = 27.69713 -185.31869 -78.81078
#
# Velocity S-wave (km/s) = 3.82280 -9.88834 -6.44847
# Velocity P-wave (km/s) = 10.94446 55.40964 38.40864
#
# Compressibility (1/GPa) = 0.00526069
#
# Stress axis : x y z
#
# Youngs Moduli (GPa) = 50.85580 28.22963 153.75359
#
# Poissons Ratio (x) = 0.44725 0.52508
# Poissons Ratio (y) = 0.80572 1.36946
# Poissons Ratio (z) = 0.17368 0.25144
#
# Static dielectric constant tensor:
#      x y z
#    x 1.630490 0.000000 0.000000 
#    y 0.000000 1.647410 0.000000 
#    z 0.000000 0.000000 1.614720 
# 
# From -- ./inp_files/29773.got.cif
#   From: 2010.05.17/outbox.cif.g08.bks.cpg/sg64_15_cif.got.tgz:29773.got - 2010.06.03 16:29:19.
