data_PCOD9480816
_publ_section_title
;
Structure prediction by ZEFSAII (Michael W. Deem and Ramdas Pophale) SiO2 
 PCOD9480816
Probable space group: C M C A
;
_chemical_formula_sum "Si O2"
_cell_formula_units_Z 72
_cell_length_a 20.858213
_cell_length_b 16.092568
_cell_length_c 8.558268
_cell_angle_alpha 90.000000
_cell_angle_beta 90.000000
_cell_angle_gamma 90.000000
_cell_volume 2872.687160
_symmetry_space_group_name_H-M "C M C A"
_symmetry_group_IT_number 64
_symmetry_cell_setting 'orthorhombic'
loop_
_space_group_symop_operation_xyz
x,y,z
-x,1/2-y,1/2+z
x,-y,-z
-x,1/2+y,1/2-z
-x,-y,-z
x,1/2+y,1/2-z
-x,y,z
x,1/2-y,1/2+z
1/2+x,1/2+y,z
1/2-x,-y,1/2+z
1/2+x,1/2-y,-z
1/2-x,y,1/2-z
1/2-x,1/2-y,-z
1/2+x,y,1/2-z
1/2-x,1/2+y,z
1/2+x,-y,1/2+z
loop_
_atom_site_type_symbol
_atom_site_label
_atom_site_fract_x
_atom_site_fract_y
_atom_site_fract_z
Si Si1 0.429434 0.052597 0.196329
Si Si2 0.750000 0.801148 0.750000
Si Si3 0.803439 0.585169 0.986805
Si Si4 0.890466 0.632152 0.735159
Si Si5 0.389633 0.790097 0.607262
O O1 0.500000 0.058784 0.125888
O O2 0.370726 0.068414 0.078070
O O3 0.421664 0.130007 0.313169
O O4 0.422703 0.959722 0.270967
O O5 0.769494 0.848043 0.590994
O O6 0.679914 0.773430 0.687396
O O7 0.764505 0.500000 0.000000
O O8 0.821960 0.606572 0.811437
O O9 0.886268 0.680863 0.571862
O O10 0.921013 0.700388 0.854966
#
# Coordination Sequence:
#
# PCOD9480816 Si02
#       5
#    16   8  16  16  16
#     4  10  23  46  71  94 126 169 218 270 320 375
#     4  10  22  40  62  92 132 170 212 262 314 380
#     4   9  21  39  63  95 128 170 215 259 318 379
#     4  11  24  42  64  96 132 168 215 264 319 383
#     4  11  24  42  65  97 131 169 215 263 320 383
#
# _framework density 25.063642999999999
#
# number of rings (size 3 to 8) (size 9 to 14) (size 15 to 20)
#    0.000    1.778    0.000    3.333    0.000   16.444 
#    0.000    6.667    0.000    0.000    0.000    0.000 
#    0.000    0.000    0.000    0.000    0.000    0.000 
#
# Total GULP energy -200640.387564 kJ/mol
# GULP energy per Si atom -5573.344099 kJ/mol
# Density = 2.500660 g / cm^3
# Si number density = 25.063643 Si / 1000 Ang^3
#
#
#
# Elastic Constant Matrix: (Units=GPa)
#
#
# Indices 1 2 3 4 5 6 
#
# 1 96.4261 23.6579 -7.4082 0.0000 0.0000 0.0000
# 2 23.6579 197.3038 38.5165 0.0000 0.0000 0.0000
# 3 -7.4082 38.5165 86.3218 0.0000 0.0000 0.0000
# 4 0.0000 0.0000 0.0000 54.0231 0.0000 0.0000
# 5 0.0000 0.0000 0.0000 0.0000 -15.7454 0.0000
# 6 0.0000 0.0000 0.0000 0.0000 0.0000 -14.2826
#
#
#
# Elastic Compliance Matrix: (Units=1/GPa)
#
#
# Indices 1 2 3 4 5 6 
#
# 1 0.010899 -0.001632 0.001663 0.000000 0.000000 0.000000
# 2 -0.001632 0.005796 -0.002726 0.000000 0.000000 0.000000
# 3 0.001663 -0.002726 0.012944 0.000000 0.000000 0.000000
# 4 0.000000 0.000000 0.000000 0.018511 0.000000 0.000000
# 5 0.000000 0.000000 0.000000 0.000000 -0.063511 0.000000
# 6 0.000000 0.000000 0.000000 0.000000 0.000000 -0.070015
#
#
# Mechanical properties :
#
#
# Convention : Reuss Voigt Hill
#
# Bulk Modulus (GPa) = 41.23763 54.39826 47.81794
# Shear Modulus (GPa) = -69.53636 26.48473 -21.52581
#
# Velocity S-wave (km/s) = -5.27296 3.25422 -2.93379
# Velocity P-wave (km/s) = 4.53688 5.98925 2.76476
#
# Compressibility (1/GPa) = 0.02424970
#
# Stress axis : x y z
#
# Youngs Moduli (GPa) = 91.75397 172.52807 77.25739
#
# Poissons Ratio (x) = 0.28148 -0.12850
# Poissons Ratio (y) = 0.14970 0.21062
# Poissons Ratio (z) = -0.15262 0.47035
#
# Static dielectric constant tensor:
#      x y z
#    x 1.991350 0.000000 0.000000 
#    y 0.000000 2.135820 0.000000 
#    z 0.000000 0.000000 2.003000 
# 
# From -- ./inp_files/9135.got.cif
#   From: 2010.05.17/outbox.cif.g08.bks.cpg/sg64_5_cif.got.tgz:9135.got - 2010.06.03 16:29:19.
