data_PCOD9480467
_publ_section_title
;
Structure prediction by ZEFSAII (Michael W. Deem and Ramdas Pophale) SiO2 
 PCOD9480467
Probable space group: C M C A
;
_chemical_formula_sum "Si O2"
_cell_formula_units_Z 88
_cell_length_a 15.474446
_cell_length_b 25.232938
_cell_length_c 9.804311
_cell_angle_alpha 90.000000
_cell_angle_beta 90.000000
_cell_angle_gamma 90.000000
_cell_volume 3828.247516
_symmetry_space_group_name_H-M "C M C A"
_symmetry_group_IT_number 64
_symmetry_cell_setting 'orthorhombic'
loop_
_space_group_symop_operation_xyz
x,y,z
-x,1/2-y,1/2+z
x,-y,-z
-x,1/2+y,1/2-z
-x,-y,-z
x,1/2+y,1/2-z
-x,y,z
x,1/2-y,1/2+z
1/2+x,1/2+y,z
1/2-x,-y,1/2+z
1/2+x,1/2-y,-z
1/2-x,y,1/2-z
1/2-x,1/2-y,-z
1/2+x,y,1/2-z
1/2-x,1/2+y,z
1/2+x,-y,1/2+z
loop_
_atom_site_type_symbol
_atom_site_label
_atom_site_fract_x
_atom_site_fract_y
_atom_site_fract_z
Si Si1 0.396883 0.021269 0.149532
Si Si2 0.643829 0.344813 0.007576
Si Si3 0.852406 0.411649 0.242742
Si Si4 0.163296 0.626862 0.054097
Si Si5 0.000000 0.290286 0.667402
Si Si6 0.841560 0.260986 0.823854
O O1 0.500000 0.023577 0.151676
O O2 0.361723 0.080481 0.158686
O O3 0.367629 0.974579 0.249246
O O4 0.368205 0.000000 0.000000
O O5 0.608145 0.381373 0.129387
O O6 0.668451 0.288613 0.076846
O O7 0.733000 0.370031 0.955611
O O8 0.575288 0.330121 0.893938
O O9 0.750000 0.401218 0.250000
O O10 0.877008 0.389305 0.093177
O O11 0.133000 0.685048 0.097504
O O12 0.077367 0.251353 0.725800
O O13 0.750000 0.268949 0.750000
#
# Coordination Sequence:
#
# PCOD9480467 Si02
#       6
#    16  16  16  16   8  16
#     4   9  19  37  61  98 131 168 226 287 339 405
#     4  11  24  45  69  98 141 182 237 290 352 432
#     4   9  20  39  68 100 131 184 234 283 353 421
#     4  10  21  41  69  92 134 183 234 287 350 418
#     4  12  28  44  62 107 140 179 243 285 361 428
#     4  12  25  45  69  96 143 187 226 291 352 425
#
# _framework density 22.987019
#
# number of rings (size 3 to 8) (size 9 to 14) (size 15 to 20)
#    0.000    1.636    1.818    2.727    5.091    0.727 
#    0.000    0.000    0.000    1.091    0.000    0.000 
#    0.000    0.000    0.000    0.000    0.000    0.000 
#
# Total GULP energy -244988.587325 kJ/mol
# GULP energy per Si atom -5567.922439 kJ/mol
# Density = 2.293470 g / cm^3
# Si number density = 22.987019 Si / 1000 Ang^3
#
#
#
# Elastic Constant Matrix: (Units=GPa)
#
#
# Indices 1 2 3 4 5 6 
#
# 1 64.5115 -22.1156 1.8058 0.0000 0.0000 0.0000
# 2 -22.1156 114.6035 20.0304 0.0000 0.0000 0.0000
# 3 1.8058 20.0304 41.5819 0.0000 0.0000 0.0000
# 4 0.0000 0.0000 0.0000 41.5468 0.0000 0.0000
# 5 0.0000 0.0000 0.0000 0.0000 -1.1568 0.0000
# 6 0.0000 0.0000 0.0000 0.0000 0.0000 -35.3123
#
#
#
# Elastic Compliance Matrix: (Units=1/GPa)
#
#
# Indices 1 2 3 4 5 6 
#
# 1 0.016835 0.003687 -0.002507 0.000000 0.000000 0.000000
# 2 0.003687 0.010335 -0.005139 0.000000 0.000000 0.000000
# 3 -0.002507 -0.005139 0.026633 0.000000 0.000000 0.000000
# 4 0.000000 0.000000 0.000000 0.024069 0.000000 0.000000
# 5 0.000000 0.000000 0.000000 0.000000 -0.864452 0.000000
# 6 0.000000 0.000000 0.000000 0.000000 0.000000 -0.028319
#
#
# Mechanical properties :
#
#
# Convention : Reuss Voigt Hill
#
# Bulk Modulus (GPa) = 21.79317 24.45978 23.12647
# Shear Modulus (GPa) = -6.31565 15.74730 4.71582
#
# Velocity S-wave (km/s) = -1.65935 2.62019 1.43387
# Velocity P-wave (km/s) = 2.41453 4.45170 3.58103
#
# Compressibility (1/GPa) = 0.04588594
#
# Stress axis : x y z
#
# Youngs Moduli (GPa) = 59.39919 96.75504 37.54714
#
# Poissons Ratio (x) = -0.35673 0.09414
# Poissons Ratio (y) = -0.21900 0.19295
# Poissons Ratio (z) = 0.14892 0.49720
#
# Static dielectric constant tensor:
#      x y z
#    x 1.810600 0.000000 0.000000 
#    y 0.000000 1.849710 0.000000 
#    z 0.000000 0.000000 1.991030 
# 
# From -- ./inp_files/14614.got.cif
#   From: 2010.05.17/outbox.cif.g08.bks.cpg/sg64_8_cif.got.tgz:14614.got - 2010.06.03 16:29:19.
