data_PCOD9480225
_publ_section_title
;
Structure prediction by ZEFSAII (Michael W. Deem and Ramdas Pophale) SiO2 
 PCOD9480225
Probable space group: C M C A
;
_chemical_formula_sum "Si O2"
_cell_formula_units_Z 112
_cell_length_a 25.036428
_cell_length_b 13.099081
_cell_length_c 16.272478
_cell_angle_alpha 90.000000
_cell_angle_beta 90.000000
_cell_angle_gamma 90.000000
_cell_volume 5336.627477
_symmetry_space_group_name_H-M "C M C A"
_symmetry_group_IT_number 64
_symmetry_cell_setting 'orthorhombic'
loop_
_space_group_symop_operation_xyz
x,y,z
-x,1/2-y,1/2+z
x,-y,-z
-x,1/2+y,1/2-z
-x,-y,-z
x,1/2+y,1/2-z
-x,y,z
x,1/2-y,1/2+z
1/2+x,1/2+y,z
1/2-x,-y,1/2+z
1/2+x,1/2-y,-z
1/2-x,y,1/2-z
1/2-x,1/2-y,-z
1/2+x,y,1/2-z
1/2-x,1/2+y,z
1/2+x,-y,1/2+z
loop_
_atom_site_type_symbol
_atom_site_label
_atom_site_fract_x
_atom_site_fract_y
_atom_site_fract_z
Si Si1 0.560154 0.592921 0.318216
Si Si2 0.211251 0.589851 0.942177
Si Si3 0.359544 0.074350 0.792501
Si Si4 0.937164 0.120098 0.008738
Si Si5 0.289242 0.702110 0.823153
Si Si6 0.369172 0.801295 0.934821
Si Si7 0.440407 0.252984 0.826865
O O1 0.500000 0.554986 0.325272
O O2 0.598026 0.512092 0.273980
O O3 0.585076 0.620796 0.406196
O O4 0.559708 0.693010 0.261497
O O5 0.179722 0.541035 0.865488
O O6 0.255205 0.661627 0.900221
O O7 0.233041 0.500000 0.000000
O O8 0.168232 0.654495 0.994001
O O9 0.323573 0.111202 0.717294
O O10 0.394003 0.169997 0.826059
O O11 0.933049 0.162361 0.102091
O O12 0.000000 0.132279 0.983857
O O13 0.898207 0.195235 0.958408
O O14 0.924225 0.000000 0.000000
O O15 0.250000 0.738194 0.750000
O O16 0.330688 0.783766 0.856863
O O17 0.500000 0.208441 0.840362
#
# Coordination Sequence:
#
# PCOD9480225 Si02
#       7
#    16  16  16  16  16  16  16
#     4  11  24  39  65 101 132 174 214 258 330 401
#     4  11  23  44  65  95 127 163 220 279 326 387
#     4  11  21  44  65  92 132 169 218 268 322 391
#     4  10  23  40  63  98 135 170 210 260 326 398
#     4  10  25  44  64  90 125 171 223 270 324 379
#     4  12  22  43  67  94 129 167 212 278 328 386
#     4  10  21  39  63  92 131 170 212 261 318 394
#
# _framework density 20.987037999999998
#
# number of rings (size 3 to 8) (size 9 to 14) (size 15 to 20)
#    0.000    1.286    4.286    1.286    2.000    0.571 
#    2.571    0.714    0.000    0.000    0.000    0.000 
#    0.000    0.000    0.000    0.000    0.000    0.000 
#
# Total GULP energy -312823.987190 kJ/mol
# GULP energy per Si atom -5586.142628 kJ/mol
# Density = 2.093927 g / cm^3
# Si number density = 20.987038 Si / 1000 Ang^3
#
#
#
# Elastic Constant Matrix: (Units=GPa)
#
#
# Indices 1 2 3 4 5 6 
#
# 1 67.6311 -4.9934 19.7256 0.0000 0.0000 0.0000
# 2 -4.9934 34.5146 0.1298 0.0000 0.0000 0.0000
# 3 19.7256 0.1298 67.8797 0.0000 0.0000 0.0000
# 4 0.0000 0.0000 0.0000 22.0003 0.0000 0.0000
# 5 0.0000 0.0000 0.0000 0.0000 14.7745 0.0000
# 6 0.0000 0.0000 0.0000 0.0000 0.0000 6.2283
#
#
#
# Elastic Compliance Matrix: (Units=1/GPa)
#
#
# Indices 1 2 3 4 5 6 
#
# 1 0.016349 0.002383 -0.004756 0.000000 0.000000 0.000000
# 2 0.002383 0.029321 -0.000749 0.000000 0.000000 0.000000
# 3 -0.004756 -0.000749 0.016115 0.000000 0.000000 0.000000
# 4 0.000000 0.000000 0.000000 0.045454 0.000000 0.000000
# 5 0.000000 0.000000 0.000000 0.000000 0.067684 0.000000
# 6 0.000000 0.000000 0.000000 0.000000 0.000000 0.160558
#
#
# Mechanical properties :
#
#
# Convention : Reuss Voigt Hill
#
# Bulk Modulus (GPa) = 18.00399 22.19439 20.09919
# Shear Modulus (GPa) = 13.87973 18.94485 16.41229
#
# Velocity S-wave (km/s) = 2.57446 3.00774 2.79950
# Velocity P-wave (km/s) = 4.17545 4.76028 4.47742
#
# Compressibility (1/GPa) = 0.05554326
#
# Stress axis : x y z
#
# Youngs Moduli (GPa) = 61.16555 34.10544 62.05277
#
# Poissons Ratio (x) = -0.08128 0.29509
# Poissons Ratio (y) = -0.14577 0.04645
# Poissons Ratio (z) = 0.29087 0.02553
#
# Static dielectric constant tensor:
#      x y z
#    x 1.760110 0.000000 0.000000 
#    y 0.000000 1.745160 0.000000 
#    z 0.000000 0.000000 1.752190 
# 
# From -- ./inp_files/27446.got.cif
#   From: 2010.05.17/outbox.cif.g08.bks.cpg/sg64_14_cif.got.tgz:27446.got - 2010.06.03 16:29:19.
