data_PCOD9480316
_publ_section_title
;
Structure prediction by ZEFSAII (Michael W. Deem and Ramdas Pophale) SiO2 
 PCOD9480316
Probable space group: C M C A
;
_chemical_formula_sum "Si O2"
_cell_formula_units_Z 96
_cell_length_a 14.684789
_cell_length_b 19.608603
_cell_length_c 13.974983
_cell_angle_alpha 90.000000
_cell_angle_beta 90.000000
_cell_angle_gamma 90.000000
_cell_volume 4024.071167
_symmetry_space_group_name_H-M "C M C A"
_symmetry_group_IT_number 64
_symmetry_cell_setting 'orthorhombic'
loop_
_space_group_symop_operation_xyz
x,y,z
-x,1/2-y,1/2+z
x,-y,-z
-x,1/2+y,1/2-z
-x,-y,-z
x,1/2+y,1/2-z
-x,y,z
x,1/2-y,1/2+z
1/2+x,1/2+y,z
1/2-x,-y,1/2+z
1/2+x,1/2-y,-z
1/2-x,y,1/2-z
1/2-x,1/2-y,-z
1/2+x,y,1/2-z
1/2-x,1/2+y,z
1/2+x,-y,1/2+z
loop_
_atom_site_type_symbol
_atom_site_label
_atom_site_fract_x
_atom_site_fract_y
_atom_site_fract_z
Si Si1 0.500000 0.738786 0.786136
Si Si2 0.000000 0.579735 0.701556
Si Si3 0.187700 0.470039 0.394281
Si Si4 0.500000 0.060853 0.228780
Si Si5 0.376243 0.265520 0.034504
Si Si6 0.702611 0.599825 0.333306
Si Si7 0.298048 0.347644 0.452790
Si Si8 0.000000 0.658978 0.395054
O O1 0.500000 0.657706 0.764299
O O2 0.500000 0.788655 0.695564
O O3 0.420132 0.750551 0.863386
O O4 0.094575 0.563473 0.644889
O O5 0.000000 0.520730 0.780874
O O6 0.170861 0.500000 0.500000
O O7 0.229139 0.534520 0.339376
O O8 0.269951 0.414102 0.394361
O O9 0.403992 0.085892 0.186108
O O10 0.500000 0.086535 0.340353
O O11 0.385412 0.200884 0.962242
O O12 0.418205 0.326185 0.969305
O O13 0.279024 0.292496 0.067202
O O14 0.750000 0.643665 0.250000
O O15 0.710171 0.630785 0.437228
#
# Coordination Sequence:
#
# PCOD9480316 Si02
#       8
#     8   8  16   8  16  16  16   8
#     4  11  23  42  65  98 131 168 225 285 340 400
#     4  12  22  38  67  97 129 170 216 287 334 393
#     4  10  22  38  63  95 128 168 219 274 340 396
#     4  12  25  40  65  99 132 176 216 277 332 405
#     4  10  22  40  64  90 129 170 222 277 331 399
#     4  11  22  40  63  94 132 169 219 272 334 403
#     4  10  21  40  62  90 124 176 219 268 335 400
#     4  11  25  42  63  96 129 178 225 273 346 406
#
# _framework density 23.856437
#
# number of rings (size 3 to 8) (size 9 to 14) (size 15 to 20)
#    0.000    1.333    3.333    2.250    2.333    2.000 
#    0.000    7.083    0.000    0.000    0.000    0.000 
#    0.000    0.000    0.000    0.000    0.000    0.000 
#
# Total GULP energy -267457.083774 kJ/mol
# GULP energy per Si atom -5572.022579 kJ/mol
# Density = 2.380214 g / cm^3
# Si number density = 23.856437 Si / 1000 Ang^3
#
#
#
# Elastic Constant Matrix: (Units=GPa)
#
#
# Indices 1 2 3 4 5 6 
#
# 1 83.7303 4.3257 21.1647 0.0000 0.0000 0.0000
# 2 4.3257 81.4024 -12.3653 0.0000 0.0000 0.0000
# 3 21.1647 -12.3653 65.7325 0.0000 0.0000 0.0000
# 4 0.0000 0.0000 0.0000 16.9083 0.0000 0.0000
# 5 0.0000 0.0000 0.0000 0.0000 0.6782 0.0000
# 6 0.0000 0.0000 0.0000 0.0000 0.0000 14.9201
#
#
#
# Elastic Compliance Matrix: (Units=1/GPa)
#
#
# Indices 1 2 3 4 5 6 
#
# 1 0.013150 -0.001381 -0.004494 0.000000 0.000000 0.000000
# 2 -0.001381 0.012791 0.002851 0.000000 0.000000 0.000000
# 3 -0.004494 0.002851 0.017197 0.000000 0.000000 0.000000
# 4 0.000000 0.000000 0.000000 0.059142 0.000000 0.000000
# 5 0.000000 0.000000 0.000000 0.000000 1.474452 0.000000
# 6 0.000000 0.000000 0.000000 0.000000 0.000000 0.067024
#
#
# Mechanical properties :
#
#
# Convention : Reuss Voigt Hill
#
# Bulk Modulus (GPa) = 26.96216 28.56838 27.76527
# Shear Modulus (GPa) = 3.00812 21.01733 12.01273
#
# Velocity S-wave (km/s) = 1.12413 2.97137 2.24641
# Velocity P-wave (km/s) = 3.60711 4.87578 4.28862
#
# Compressibility (1/GPa) = 0.03708902
#
# Stress axis : x y z
#
# Youngs Moduli (GPa) = 76.04302 78.17911 58.15133
#
# Poissons Ratio (x) = 0.10800 0.26134
# Poissons Ratio (y) = 0.10505 -0.16579
# Poissons Ratio (z) = 0.34174 -0.22289
#
# Static dielectric constant tensor:
#      x y z
#    x 2.127320 0.000000 0.000000 
#    y 0.000000 2.025660 0.000000 
#    z 0.000000 0.000000 1.943180 
# 
# From -- ./inp_files/23997.got.cif
#   From: 2010.05.17/outbox.cif.g08.bks.cpg/sg64_12_cif.got.tgz:23997.got - 2010.06.03 16:29:19.
