data_PCOD9480247
_publ_section_title
;
Structure prediction by ZEFSAII (Michael W. Deem and Ramdas Pophale) SiO2 
 PCOD9480247
Probable space group: C M C A
;
_chemical_formula_sum "Si O2"
_cell_formula_units_Z 80
_cell_length_a 14.239322
_cell_length_b 24.578450
_cell_length_c 8.680569
_cell_angle_alpha 90.000000
_cell_angle_beta 90.000000
_cell_angle_gamma 90.000000
_cell_volume 3038.029565
_symmetry_space_group_name_H-M "C M C A"
_symmetry_group_IT_number 64
_symmetry_cell_setting 'orthorhombic'
loop_
_space_group_symop_operation_xyz
x,y,z
-x,1/2-y,1/2+z
x,-y,-z
-x,1/2+y,1/2-z
-x,-y,-z
x,1/2+y,1/2-z
-x,y,z
x,1/2-y,1/2+z
1/2+x,1/2+y,z
1/2-x,-y,1/2+z
1/2+x,1/2-y,-z
1/2-x,y,1/2-z
1/2-x,1/2-y,-z
1/2+x,y,1/2-z
1/2-x,1/2+y,z
1/2+x,-y,1/2+z
loop_
_atom_site_type_symbol
_atom_site_label
_atom_site_fract_x
_atom_site_fract_y
_atom_site_fract_z
Si Si1 0.102638 0.591831 0.014224
Si Si2 0.105721 0.297449 0.559248
Si Si3 0.850141 0.688935 0.793510
Si Si4 0.327678 0.084745 0.421758
Si Si5 0.860124 0.527009 0.725410
O O1 0.105509 0.648151 0.916370
O O2 0.096556 0.545414 0.883354
O O3 0.000000 0.592116 0.096879
O O4 0.212038 0.584365 0.075978
O O5 0.163456 0.246519 0.622046
O O6 0.105173 0.300942 0.373505
O O7 0.142713 0.354855 0.622005
O O8 0.000000 0.288008 0.614119
O O9 0.750000 0.663709 0.750000
O O10 0.373106 0.070305 0.588808
O O11 0.373516 0.034789 0.327588
O O12 0.750000 0.529287 0.750000
#
# Coordination Sequence:
#
# PCOD9480247 Si02
#       5
#    16  16  16  16  16
#     4  11  21  40  69  99 133 178 228 277 343 416
#     4  12  25  43  69 103 140 181 234 288 345 417
#     4  12  24  45  69  99 139 188 230 285 348 410
#     4  10  21  39  64  94 131 175 222 281 341 402
#     4   9  19  39  63  89 127 172 218 270 336 402
#
# _framework density 26.332858000000002
#
# number of rings (size 3 to 8) (size 9 to 14) (size 15 to 20)
#    0.000    1.200    4.000    3.000    0.000    1.600 
#    0.000   10.000    0.000    1.200    0.000    0.000 
#    0.000    0.000    0.000    0.000    0.000    0.000 
#
# Total GULP energy -223687.307189 kJ/mol
# GULP energy per Si atom -5592.182680 kJ/mol
# Density = 2.627292 g / cm^3
# Si number density = 26.332858 Si / 1000 Ang^3
#
#
#
# Elastic Constant Matrix: (Units=GPa)
#
#
# Indices 1 2 3 4 5 6 
#
# 1 132.3800 3.4730 5.2457 0.0000 0.0000 0.0000
# 2 3.4730 195.4575 45.8171 0.0000 0.0000 0.0000
# 3 5.2457 45.8171 32.7569 0.0000 0.0000 0.0000
# 4 0.0000 0.0000 0.0000 47.8183 0.0000 0.0000
# 5 0.0000 0.0000 0.0000 0.0000 31.8212 0.0000
# 6 0.0000 0.0000 0.0000 0.0000 0.0000 -425.4910
#
#
#
# Elastic Compliance Matrix: (Units=1/GPa)
#
#
# Indices 1 2 3 4 5 6 
#
# 1 0.007609 0.000224 -0.001532 0.000000 0.000000 0.000000
# 2 0.000224 0.007618 -0.010692 0.000000 0.000000 0.000000
# 3 -0.001532 -0.010692 0.045728 0.000000 0.000000 0.000000
# 4 0.000000 0.000000 0.000000 0.020912 0.000000 0.000000
# 5 0.000000 0.000000 0.000000 0.000000 0.031426 0.000000
# 6 0.000000 0.000000 0.000000 0.000000 0.000000 -0.002350
#
#
# Mechanical properties :
#
#
# Convention : Reuss Voigt Hill
#
# Bulk Modulus (GPa) = 27.05915 52.18513 39.62214
# Shear Modulus (GPa) = 33.95335 -48.76641 -7.40653
#
# Velocity S-wave (km/s) = 3.59470 -4.30807 -1.67892
# Velocity P-wave (km/s) = 5.24665 2.21029 3.36466
#
# Compressibility (1/GPa) = 0.03695607
#
# Stress axis : x y z
#
# Youngs Moduli (GPa) = 131.42633 131.25953 21.86850
#
# Poissons Ratio (x) = -0.02938 0.03349
# Poissons Ratio (y) = -0.02941 0.23381
# Poissons Ratio (z) = 0.20128 1.40341
#
# Static dielectric constant tensor:
#      x y z
#    x 2.061040 0.000000 0.000000 
#    y 0.000000 2.014780 0.000000 
#    z 0.000000 0.000000 2.221420 
# 
# From -- ./inp_files/14439.got.cif
#   From: 2010.05.17/outbox.cif.g08.bks.cpg/sg64_8_cif.got.tgz:14439.got - 2010.06.03 16:29:19.
