data_PCOD9480577
_publ_section_title
;
Structure prediction by ZEFSAII (Michael W. Deem and Ramdas Pophale) SiO2 
 PCOD9480577
Probable space group: C M C A
;
_chemical_formula_sum "Si O2"
_cell_formula_units_Z 96
_cell_length_a 25.945871
_cell_length_b 21.656904
_cell_length_c 8.904135
_cell_angle_alpha 90.000000
_cell_angle_beta 90.000000
_cell_angle_gamma 90.000000
_cell_volume 5003.297900
_symmetry_space_group_name_H-M "C M C A"
_symmetry_group_IT_number 64
_symmetry_cell_setting 'orthorhombic'
loop_
_space_group_symop_operation_xyz
x,y,z
-x,1/2-y,1/2+z
x,-y,-z
-x,1/2+y,1/2-z
-x,-y,-z
x,1/2+y,1/2-z
-x,y,z
x,1/2-y,1/2+z
1/2+x,1/2+y,z
1/2-x,-y,1/2+z
1/2+x,1/2-y,-z
1/2-x,y,1/2-z
1/2-x,1/2-y,-z
1/2+x,y,1/2-z
1/2-x,1/2+y,z
1/2+x,-y,1/2+z
loop_
_atom_site_type_symbol
_atom_site_label
_atom_site_fract_x
_atom_site_fract_y
_atom_site_fract_z
Si Si1 0.821687 0.639447 0.368060
Si Si2 0.294186 0.650696 0.456263
Si Si3 0.880564 0.755611 0.465556
Si Si4 0.116660 0.055363 0.903403
Si Si5 0.561203 0.323599 0.211231
Si Si6 0.698546 0.463530 0.343631
O O1 0.766002 0.661841 0.426671
O O2 0.814109 0.617804 0.197057
O O3 0.860626 0.696914 0.370867
O O4 0.843015 0.588760 0.482997
O O5 0.329424 0.710582 0.474498
O O6 0.299418 0.607784 0.601669
O O7 0.916189 0.725968 0.593101
O O8 0.911951 0.804580 0.367015
O O9 0.079121 0.108832 0.844233
O O10 0.149466 0.029564 0.763729
O O11 0.092248 0.000000 0.000000
O O12 0.500000 0.319938 0.221036
O O13 0.697177 0.500000 0.500000
O O14 0.750000 0.478793 0.250000
#
# Coordination Sequence:
#
# PCOD9480577 Si02
#       6
#    16  16  16  16  16  16
#     4  10  22  36  60  90 130 165 204 238 301 377
#     4  11  21  36  58  90 125 166 201 248 296 371
#     4  11  21  41  60  91 125 159 202 256 315 369
#     4  11  23  42  62  89 125 164 209 258 313 371
#     4  11  24  42  67  90 117 161 213 271 320 367
#     4  12  24  37  60  89 127 167 208 246 301 369
#
# _framework density 19.187345000000001
#
# number of rings (size 3 to 8) (size 9 to 14) (size 15 to 20)
#    0.000    1.000    5.000    2.500    2.333    0.333 
#    3.000    0.000    0.000    0.500    0.000    0.000 
#    0.000    0.000    0.000    0.000    0.000    0.000 
#
# Total GULP energy -268143.978863 kJ/mol
# GULP energy per Si atom -5586.332893 kJ/mol
# Density = 1.914367 g / cm^3
# Si number density = 19.187345 Si / 1000 Ang^3
#
#
#
# Elastic Constant Matrix: (Units=GPa)
#
#
# Indices 1 2 3 4 5 6 
#
# 1 65.0297 22.6233 2.7147 0.0000 0.0000 0.0000
# 2 22.6233 78.0153 27.4312 0.0000 0.0000 0.0000
# 3 2.7147 27.4312 69.6478 0.0000 0.0000 0.0000
# 4 0.0000 0.0000 0.0000 36.8672 0.0000 0.0000
# 5 0.0000 0.0000 0.0000 0.0000 16.2239 0.0000
# 6 0.0000 0.0000 0.0000 0.0000 0.0000 14.8676
#
#
#
# Elastic Compliance Matrix: (Units=1/GPa)
#
#
# Indices 1 2 3 4 5 6 
#
# 1 0.017238 -0.005528 0.001505 0.000000 0.000000 0.000000
# 2 -0.005528 0.016651 -0.006343 0.000000 0.000000 0.000000
# 3 0.001505 -0.006343 0.016797 0.000000 0.000000 0.000000
# 4 0.000000 0.000000 0.000000 0.027124 0.000000 0.000000
# 5 0.000000 0.000000 0.000000 0.000000 0.061638 0.000000
# 6 0.000000 0.000000 0.000000 0.000000 0.000000 0.067261
#
#
# Mechanical properties :
#
#
# Convention : Reuss Voigt Hill
#
# Bulk Modulus (GPa) = 33.38257 35.35902 34.37080
# Shear Modulus (GPa) = 21.05927 24.25330 22.65629
#
# Velocity S-wave (km/s) = 3.31654 3.55917 3.44000
# Velocity P-wave (km/s) = 5.66585 5.94631 5.80777
#
# Compressibility (1/GPa) = 0.02995575
#
# Stress axis : x y z
#
# Youngs Moduli (GPa) = 58.01165 60.05551 59.53294
#
# Poissons Ratio (x) = 0.33199 -0.08962
# Poissons Ratio (y) = 0.32069 0.37760
# Poissons Ratio (z) = -0.08733 0.38092
#
# Static dielectric constant tensor:
#      x y z
#    x 1.610040 0.000000 0.000000 
#    y 0.000000 1.705260 0.000000 
#    z 0.000000 0.000000 1.679450 
# 
# From -- ./inp_files/10367.got.cif
#   From: 2010.05.17/outbox.cif.g08.bks.cpg/sg64_6_cif.got.tgz:10367.got - 2010.06.03 16:29:19.
