data_PCOD9480122
_publ_section_title
;
Structure prediction by ZEFSAII (Michael W. Deem and Ramdas Pophale) SiO2 
 PCOD9480122
Probable space group: C M C A
;
_chemical_formula_sum "Si O2"
_cell_formula_units_Z 88
_cell_length_a 29.770656
_cell_length_b 9.691474
_cell_length_c 16.713182
_cell_angle_alpha 90.000000
_cell_angle_beta 90.000000
_cell_angle_gamma 90.000000
_cell_volume 4822.112985
_symmetry_space_group_name_H-M "C M C A"
_symmetry_group_IT_number 64
_symmetry_cell_setting 'orthorhombic'
loop_
_space_group_symop_operation_xyz
x,y,z
-x,1/2-y,1/2+z
x,-y,-z
-x,1/2+y,1/2-z
-x,-y,-z
x,1/2+y,1/2-z
-x,y,z
x,1/2-y,1/2+z
1/2+x,1/2+y,z
1/2-x,-y,1/2+z
1/2+x,1/2-y,-z
1/2-x,y,1/2-z
1/2-x,1/2-y,-z
1/2+x,y,1/2-z
1/2-x,1/2+y,z
1/2+x,-y,1/2+z
loop_
_atom_site_type_symbol
_atom_site_label
_atom_site_fract_x
_atom_site_fract_y
_atom_site_fract_z
Si Si1 0.500000 0.211963 0.091573
Si Si2 0.167736 0.034225 0.657233
Si Si3 0.436889 0.528505 0.642557
Si Si4 0.253885 0.381575 0.056302
Si Si5 0.702154 0.239179 0.710117
Si Si6 0.000000 0.269369 0.587821
Si Si7 0.000000 0.971483 0.207081
O O1 0.500000 0.324502 0.162161
O O2 0.541845 0.105822 0.099406
O O3 0.500000 0.290251 0.007215
O O4 0.116065 0.035513 0.633032
O O5 0.205271 0.072086 0.590822
O O6 0.175479 0.144343 0.728105
O O7 0.178457 0.880797 0.687911
O O8 0.458341 0.669177 0.608945
O O9 0.456950 0.518134 0.733268
O O10 0.285171 0.346984 0.131309
O O11 0.272828 0.500000 0.000000
O O12 0.250000 0.250000 0.000000
O O13 0.750000 0.276232 0.750000
O O14 0.000000 0.404832 0.642804
#
# Coordination Sequence:
#
# PCOD9480122 Si02
#       7
#     8  16  16  16  16   8   8
#     4  10  21  40  63  84 126 156 190 248 305 374
#     4  11  24  37  65  87 121 155 207 255 290 364
#     4  10  21  39  62  88 117 159 206 238 300 361
#     4  11  22  41  61  86 120 162 202 246 307 359
#     4  10  22  40  60  86 118 160 200 249 307 351
#     4  10  21  40  61  88 124 160 190 246 313 368
#     4  10  21  38  65  88 120 154 200 248 303 356
#
# _framework density 18.249262000000002
#
# number of rings (size 3 to 8) (size 9 to 14) (size 15 to 20)
#    0.000    1.818    1.818    5.182    7.636    1.455 
#    0.000    0.000    0.000    0.000    0.000    0.000 
#    0.000    0.000    0.000    0.000    0.000    0.000 
#
# Total GULP energy -245618.236050 kJ/mol
# GULP energy per Si atom -5582.232638 kJ/mol
# Density = 1.820773 g / cm^3
# Si number density = 18.249262 Si / 1000 Ang^3
#
#
#
# Elastic Constant Matrix: (Units=GPa)
#
#
# Indices 1 2 3 4 5 6 
#
# 1 85.6162 19.8781 -2.4305 0.0000 0.0000 0.0000
# 2 19.8781 83.2266 8.8784 0.0000 0.0000 0.0000
# 3 -2.4305 8.8784 72.5529 0.0000 0.0000 0.0000
# 4 0.0000 0.0000 0.0000 38.5659 0.0000 0.0000
# 5 0.0000 0.0000 0.0000 0.0000 -0.1427 0.0000
# 6 0.0000 0.0000 0.0000 0.0000 0.0000 -186.3844
#
#
#
# Elastic Compliance Matrix: (Units=1/GPa)
#
#
# Indices 1 2 3 4 5 6 
#
# 1 0.012410 -0.003048 0.000789 0.000000 0.000000 0.000000
# 2 -0.003048 0.012923 -0.001684 0.000000 0.000000 0.000000
# 3 0.000789 -0.001684 0.014015 0.000000 0.000000 0.000000
# 4 0.000000 0.000000 0.000000 0.025930 0.000000 0.000000
# 5 0.000000 0.000000 0.000000 0.000000 -7.009915 0.000000
# 6 0.000000 0.000000 0.000000 0.000000 0.000000 -0.005365
#
#
# Mechanical properties :
#
#
# Convention : Reuss Voigt Hill
#
# Bulk Modulus (GPa) = 31.78369 32.67197 32.22783
# Shear Modulus (GPa) = -0.72133 -15.25425 -7.98779
#
# Velocity S-wave (km/s) = -0.62938 -2.89430 -2.09441
# Velocity P-wave (km/s) = 4.11413 2.60245 3.44230
#
# Compressibility (1/GPa) = 0.03146268
#
# Stress axis : x y z
#
# Youngs Moduli (GPa) = 80.57913 77.38121 71.34964
#
# Poissons Ratio (x) = 0.23588 -0.05628
# Poissons Ratio (y) = 0.24562 0.12012
# Poissons Ratio (z) = -0.06356 0.13027
#
# Static dielectric constant tensor:
#      x y z
#    x 1.539070 0.000000 0.000000 
#    y 0.000000 1.594610 0.000000 
#    z 0.000000 0.000000 1.659620 
# 
# From -- ./inp_files/35728.got.cif
#   From: 2010.05.17/outbox.cif.g08.bks.cpg/sg64_18_cif.got.tgz:35728.got - 2010.06.03 16:29:19.
