data_PCOD9480795
_publ_section_title
;
Structure prediction by ZEFSAII (Michael W. Deem and Ramdas Pophale) SiO2 
 PCOD9480795
Probable space group: C M C A
;
_chemical_formula_sum "Si O2"
_cell_formula_units_Z 80
_cell_length_a 22.972443
_cell_length_b 11.605138
_cell_length_c 13.546330
_cell_angle_alpha 90.000000
_cell_angle_beta 90.000000
_cell_angle_gamma 90.000000
_cell_volume 3611.429514
_symmetry_space_group_name_H-M "C M C A"
_symmetry_group_IT_number 64
_symmetry_cell_setting 'orthorhombic'
loop_
_space_group_symop_operation_xyz
x,y,z
-x,1/2-y,1/2+z
x,-y,-z
-x,1/2+y,1/2-z
-x,-y,-z
x,1/2+y,1/2-z
-x,y,z
x,1/2-y,1/2+z
1/2+x,1/2+y,z
1/2-x,-y,1/2+z
1/2+x,1/2-y,-z
1/2-x,y,1/2-z
1/2-x,1/2-y,-z
1/2+x,y,1/2-z
1/2-x,1/2+y,z
1/2+x,-y,1/2+z
loop_
_atom_site_type_symbol
_atom_site_label
_atom_site_fract_x
_atom_site_fract_y
_atom_site_fract_z
Si Si1 0.866838 0.649091 0.570284
Si Si2 0.147376 0.282169 0.636970
Si Si3 0.431163 0.088716 0.763878
Si Si4 0.259937 0.409613 0.368138
Si Si5 0.346766 0.602831 0.337186
O O1 0.878911 0.648375 0.454349
O O2 0.910159 0.593730 0.649903
O O3 0.802983 0.596387 0.585170
O O4 0.861986 0.783765 0.602179
O O5 0.098399 0.199754 0.684741
O O6 0.199532 0.198318 0.602562
O O7 0.171245 0.358155 0.726921
O O8 0.500000 0.088902 0.771450
O O9 0.401906 0.979873 0.818278
O O10 0.250000 0.398424 0.250000
O O11 0.296127 0.526055 0.384392
#
# Coordination Sequence:
#
# PCOD9480795 Si02
#       5
#    16  16  16  16  16
#     4  11  23  41  63  93 122 161 206 252 304 366
#     4  10  23  41  63  92 124 160 203 253 306 364
#     4  10  23  42  62  88 120 161 211 255 309 365
#     4  11  20  38  59  92 122 162 196 240 298 375
#     4  10  22  40  62  83 129 161 199 249 313 356
#
# _framework density 22.151893999999999
#
# number of rings (size 3 to 8) (size 9 to 14) (size 15 to 20)
#    0.000    1.600    6.000    0.600    2.800    8.000 
#    3.600    2.000    0.000    0.000    0.000    0.000 
#    0.000    0.000    0.000    0.000    0.000    0.000 
#
# Total GULP energy -223969.646699 kJ/mol
# GULP energy per Si atom -5599.241167 kJ/mol
# Density = 2.210148 g / cm^3
# Si number density = 22.151894 Si / 1000 Ang^3
#
#
#
# Elastic Constant Matrix: (Units=GPa)
#
#
# Indices 1 2 3 4 5 6 
#
# 1 128.7151 50.3942 11.6366 0.0000 0.0000 0.0000
# 2 50.3942 83.3661 21.0093 0.0000 0.0000 0.0000
# 3 11.6366 21.0093 109.3362 0.0000 0.0000 0.0000
# 4 0.0000 0.0000 0.0000 28.2263 0.0000 0.0000
# 5 0.0000 0.0000 0.0000 0.0000 12.3422 0.0000
# 6 0.0000 0.0000 0.0000 0.0000 0.0000 3.4427
#
#
#
# Elastic Compliance Matrix: (Units=1/GPa)
#
#
# Indices 1 2 3 4 5 6 
#
# 1 0.010179 -0.006179 0.000104 0.000000 0.000000 0.000000
# 2 -0.006179 0.016357 -0.002485 0.000000 0.000000 0.000000
# 3 0.000104 -0.002485 0.009613 0.000000 0.000000 0.000000
# 4 0.000000 0.000000 0.000000 0.035428 0.000000 0.000000
# 5 0.000000 0.000000 0.000000 0.000000 0.081023 0.000000
# 6 0.000000 0.000000 0.000000 0.000000 0.000000 0.290470
#
#
# Mechanical properties :
#
#
# Convention : Reuss Voigt Hill
#
# Bulk Modulus (GPa) = 52.55629 54.16638 53.36134
# Shear Modulus (GPa) = 10.71736 24.69406 17.70571
#
# Velocity S-wave (km/s) = 2.20196 3.34243 2.83023
# Velocity P-wave (km/s) = 5.49925 6.27703 5.90097
#
# Compressibility (1/GPa) = 0.01902722
#
# Stress axis : x y z
#
# Youngs Moduli (GPa) = 98.24135 61.13587 104.03010
#
# Poissons Ratio (x) = 0.37778 -0.01082
# Poissons Ratio (y) = 0.60707 0.25855
# Poissons Ratio (z) = -0.01022 0.15195
#
# Static dielectric constant tensor:
#      x y z
#    x 1.738830 0.000000 0.000000 
#    y 0.000000 1.867090 0.000000 
#    z 0.000000 0.000000 1.831440 
# 
# From -- ./inp_files/27049.got.cif
#   From: 2010.05.17/outbox.cif.g08.bks.cpg/sg64_14_cif.got.tgz:27049.got - 2010.06.03 16:29:19.
