data_PCOD9480511
_publ_section_title
;
Structure prediction by ZEFSAII (Michael W. Deem and Ramdas Pophale) SiO2 
 PCOD9480511
Probable space group: C M C A
;
_chemical_formula_sum "Si O2"
_cell_formula_units_Z 68
_cell_length_a 17.230807
_cell_length_b 9.839207
_cell_length_c 16.294185
_cell_angle_alpha 90.000000
_cell_angle_beta 90.000000
_cell_angle_gamma 90.000000
_cell_volume 2762.475012
_symmetry_space_group_name_H-M "C M C A"
_symmetry_group_IT_number 64
_symmetry_cell_setting 'orthorhombic'
loop_
_space_group_symop_operation_xyz
x,y,z
-x,1/2-y,1/2+z
x,-y,-z
-x,1/2+y,1/2-z
-x,-y,-z
x,1/2+y,1/2-z
-x,y,z
x,1/2-y,1/2+z
1/2+x,1/2+y,z
1/2-x,-y,1/2+z
1/2+x,1/2-y,-z
1/2-x,y,1/2-z
1/2-x,1/2-y,-z
1/2+x,y,1/2-z
1/2-x,1/2+y,z
1/2+x,-y,1/2+z
loop_
_atom_site_type_symbol
_atom_site_label
_atom_site_fract_x
_atom_site_fract_y
_atom_site_fract_z
Si Si1 0.583645 0.598437 0.838833
Si Si2 0.000000 0.000000 0.000000
Si Si3 0.706488 0.377663 0.830961
Si Si4 0.630564 0.618383 0.399294
Si Si5 0.413558 0.323308 0.413057
O O1 0.500000 0.579167 0.795781
O O2 0.566334 0.547926 0.932140
O O3 0.655775 0.510078 0.809189
O O4 0.603509 0.757321 0.842827
O O5 0.750000 0.328537 0.750000
O O6 0.777155 0.404693 0.893301
O O7 0.647807 0.268532 0.867225
O O8 0.607338 0.660180 0.491401
O O9 0.589791 0.476319 0.379795
O O10 0.500000 0.260970 0.408750
#
# Coordination Sequence:
#
# PCOD9480511 Si02
#       5
#    16   4  16  16  16
#     4  10  21  42  71 101 134 185 244 296 351 432
#     4   8  20  36  76  98 132 168 242 286 364 402
#     4  12  27  45  66 101 149 196 237 295 376 443
#     4  11  23  42  72 110 140 182 244 307 363 428
#     4  11  24  45  71 104 143 184 239 308 363 430
#
# _framework density 24.615608999999999
#
# number of rings (size 3 to 8) (size 9 to 14) (size 15 to 20)
#    0.706    0.471    0.000    7.059    3.294    7.529 
#    0.000    9.412    0.000    0.000    0.000    0.000 
#    0.000    0.000    0.000    0.000    0.000    0.000 
#
# Total GULP energy -190056.888332 kJ/mol
# GULP energy per Si atom -5589.908480 kJ/mol
# Density = 2.455958 g / cm^3
# Si number density = 24.615609 Si / 1000 Ang^3
#
#
#
# Elastic Constant Matrix: (Units=GPa)
#
#
# Indices 1 2 3 4 5 6 
#
# 1 203.5876 34.6531 24.0843 0.0000 0.0000 0.0000
# 2 34.6531 85.7747 -9.6102 0.0000 0.0000 0.0000
# 3 24.0843 -9.6102 39.7997 0.0000 0.0000 0.0000
# 4 0.0000 0.0000 0.0000 -34.5091 0.0000 0.0000
# 5 0.0000 0.0000 0.0000 0.0000 4.2985 0.0000
# 6 0.0000 0.0000 0.0000 0.0000 0.0000 37.3022
#
#
#
# Elastic Compliance Matrix: (Units=1/GPa)
#
#
# Indices 1 2 3 4 5 6 
#
# 1 0.005904 -0.002863 -0.004264 0.000000 0.000000 0.000000
# 2 -0.002863 0.013371 0.004961 0.000000 0.000000 0.000000
# 3 -0.004264 0.004961 0.028904 0.000000 0.000000 0.000000
# 4 0.000000 0.000000 0.000000 -0.028978 0.000000 0.000000
# 5 0.000000 0.000000 0.000000 0.000000 0.232639 0.000000
# 6 0.000000 0.000000 0.000000 0.000000 0.000000 0.026808
#
#
# Mechanical properties :
#
#
# Convention : Reuss Voigt Hill
#
# Bulk Modulus (GPa) = 22.80652 47.49073 35.14863
# Shear Modulus (GPa) = 16.80143 20.08731 18.44437
#
# Velocity S-wave (km/s) = 2.61540 2.85974 2.74030
# Velocity P-wave (km/s) = 4.29018 5.49900 4.93176
#
# Compressibility (1/GPa) = 0.04384711
#
# Stress axis : x y z
#
# Youngs Moduli (GPa) = 169.38927 74.78974 34.59749
#
# Poissons Ratio (x) = 0.21410 0.14751
# Poissons Ratio (y) = 0.48492 -0.17164
# Poissons Ratio (z) = 0.72223 -0.37103
#
# Static dielectric constant tensor:
#      x y z
#    x 1.932590 0.000000 0.000000 
#    y 0.000000 1.976870 0.000000 
#    z 0.000000 0.000000 2.012500 
# 
# From -- ./inp_files/38881.got.cif
#   From: 2010.05.17/outbox.cif.g08.bks.cpg/sg64_20_cif.got.tgz:38881.got - 2010.06.03 16:29:19.
