data_PCOD9480559
_publ_section_title
;
Structure prediction by ZEFSAII (Michael W. Deem and Ramdas Pophale) SiO2 
 PCOD9480559
Probable space group: C M C A
;
_chemical_formula_sum "Si O2"
_cell_formula_units_Z 88
_cell_length_a 31.765510
_cell_length_b 24.050462
_cell_length_c 5.250070
_cell_angle_alpha 90.000000
_cell_angle_beta 90.000000
_cell_angle_gamma 90.000000
_cell_volume 4010.923232
_symmetry_space_group_name_H-M "C M C A"
_symmetry_group_IT_number 64
_symmetry_cell_setting 'orthorhombic'
loop_
_space_group_symop_operation_xyz
x,y,z
-x,1/2-y,1/2+z
x,-y,-z
-x,1/2+y,1/2-z
-x,-y,-z
x,1/2+y,1/2-z
-x,y,z
x,1/2-y,1/2+z
1/2+x,1/2+y,z
1/2-x,-y,1/2+z
1/2+x,1/2-y,-z
1/2-x,y,1/2-z
1/2-x,1/2-y,-z
1/2+x,y,1/2-z
1/2-x,1/2+y,z
1/2+x,-y,1/2+z
loop_
_atom_site_type_symbol
_atom_site_label
_atom_site_fract_x
_atom_site_fract_y
_atom_site_fract_z
Si Si1 0.549065 0.435693 0.079748
Si Si2 0.880822 0.218183 0.663173
Si Si3 0.906614 0.395886 0.920381
Si Si4 0.201916 0.164804 0.838002
Si Si5 0.815109 0.565369 0.958723
Si Si6 0.750000 0.362011 0.750000
O O1 0.500000 0.419900 0.086793
O O2 0.572551 0.401496 0.856391
O O3 0.552480 0.500000 0.000000
O O4 0.568670 0.429427 0.360059
O O5 0.890006 0.266008 0.456076
O O6 0.903982 0.165418 0.541719
O O7 0.831588 0.201073 0.688847
O O8 0.859018 0.418651 0.910408
O O9 0.250000 0.175139 0.750000
O O10 0.184939 0.100479 0.808305
O O11 0.211303 0.173090 0.135505
O O12 0.774324 0.595615 0.068748
O O13 0.810039 0.500000 0.000000
#
# Coordination Sequence:
#
# PCOD9480559 Si02
#       6
#    16  16  16  16  16   8
#     4  11  23  42  72 107 139 170 204 252 324 404
#     4  11  25  42  67  91 122 171 227 277 334 382
#     4  11  24  43  67  97 137 170 218 273 322 394
#     4   9  22  38  55  84 119 163 216 285 331 385
#     4  10  22  35  57  86 125 178 217 259 327 400
#     4  10  22  36  56  80 134 164 226 276 324 398
#
# _framework density 21.940083999999999
#
# number of rings (size 3 to 8) (size 9 to 14) (size 15 to 20)
#    0.000    1.636    0.000    3.273   16.545    2.182 
#    0.000    0.000    0.000   10.909    0.000    0.000 
#    0.000    0.000    0.000    0.000    0.000    0.000 
#
# Total GULP energy -245079.880878 kJ/mol
# GULP energy per Si atom -5569.997293 kJ/mol
# Density = 2.189015 g / cm^3
# Si number density = 21.940084 Si / 1000 Ang^3
#
#
#
# Elastic Constant Matrix: (Units=GPa)
#
#
# Indices 1 2 3 4 5 6 
#
# 1 68.9468 4.0766 11.1115 0.0000 0.0000 0.0000
# 2 4.0766 55.4981 8.4293 0.0000 0.0000 0.0000
# 3 11.1115 8.4293 83.5149 0.0000 0.0000 0.0000
# 4 0.0000 0.0000 0.0000 28.5285 0.0000 0.0000
# 5 0.0000 0.0000 0.0000 0.0000 20.8164 0.0000
# 6 0.0000 0.0000 0.0000 0.0000 0.0000 11.7213
#
#
#
# Elastic Compliance Matrix: (Units=1/GPa)
#
#
# Indices 1 2 3 4 5 6 
#
# 1 0.014857 -0.000803 -0.001896 0.000000 0.000000 0.000000
# 2 -0.000803 0.018343 -0.001744 0.000000 0.000000 0.000000
# 3 -0.001896 -0.001744 0.012402 0.000000 0.000000 0.000000
# 4 0.000000 0.000000 0.000000 0.035053 0.000000 0.000000
# 5 0.000000 0.000000 0.000000 0.000000 0.048039 0.000000
# 6 0.000000 0.000000 0.000000 0.000000 0.000000 0.085315
#
#
# Mechanical properties :
#
#
# Convention : Reuss Voigt Hill
#
# Bulk Modulus (GPa) = 27.23696 28.35494 27.79595
# Shear Modulus (GPa) = 21.26452 24.50273 22.88362
#
# Velocity S-wave (km/s) = 3.11659 3.34548 3.23306
# Velocity P-wave (km/s) = 5.03905 5.27967 5.16076
#
# Compressibility (1/GPa) = 0.03671482
#
# Stress axis : x y z
#
# Youngs Moduli (GPa) = 67.30868 54.51793 80.63092
#
# Poissons Ratio (x) = 0.04380 0.15284
# Poissons Ratio (y) = 0.05408 0.14066
# Poissons Ratio (z) = 0.12759 0.09510
#
# Static dielectric constant tensor:
#      x y z
#    x 1.802850 0.000000 0.000000 
#    y 0.000000 1.860660 0.000000 
#    z 0.000000 0.000000 2.415660 
# 
# From -- ./inp_files/3299.got.cif
#   From: 2010.05.17/outbox.cif.g08.bks.cpg/sg64_2_cif.got.tgz:3299.got - 2010.06.03 16:29:19.
