data_PCOD9480548
_publ_section_title
;
Structure prediction by ZEFSAII (Michael W. Deem and Ramdas Pophale) SiO2 
 PCOD9480548
Probable space group: C M C A
;
_chemical_formula_sum "Si O2"
_cell_formula_units_Z 72
_cell_length_a 15.943340
_cell_length_b 7.759108
_cell_length_c 21.670206
_cell_angle_alpha 90.000000
_cell_angle_beta 90.000000
_cell_angle_gamma 90.000000
_cell_volume 2680.736604
_symmetry_space_group_name_H-M "C M C A"
_symmetry_group_IT_number 64
_symmetry_cell_setting 'orthorhombic'
loop_
_space_group_symop_operation_xyz
x,y,z
-x,1/2-y,1/2+z
x,-y,-z
-x,1/2+y,1/2-z
-x,-y,-z
x,1/2+y,1/2-z
-x,y,z
x,1/2-y,1/2+z
1/2+x,1/2+y,z
1/2-x,-y,1/2+z
1/2+x,1/2-y,-z
1/2-x,y,1/2-z
1/2-x,1/2-y,-z
1/2+x,y,1/2-z
1/2-x,1/2+y,z
1/2+x,-y,1/2+z
loop_
_atom_site_type_symbol
_atom_site_label
_atom_site_fract_x
_atom_site_fract_y
_atom_site_fract_z
Si Si1 0.323682 0.543503 0.843464
Si Si2 0.101037 0.797849 0.000236
Si Si3 0.147808 0.498750 0.095241
Si Si4 0.000000 0.927772 0.313232
Si Si5 0.250000 0.196304 0.250000
Si Si6 0.500000 0.521554 0.169246
O O1 0.244980 0.510225 0.886612
O O2 0.299647 0.706060 0.802697
O O3 0.319288 0.401779 0.789189
O O4 0.417643 0.541396 0.866335
O O5 0.127949 0.679230 0.941477
O O6 0.000000 0.796676 0.001203
O O7 0.133609 0.670795 0.054816
O O8 0.129124 0.000000 0.000000
O O9 0.083062 0.500900 0.152697
O O10 0.000000 0.953116 0.239661
O O11 0.000000 0.725673 0.327211
#
# Coordination Sequence:
#
# PCOD9480548 Si02
#       6
#    16  16  16   8   8   8
#     4  11  23  44  72 111 160 220 266 323 390 471
#     4  10  21  47  82 131 158 198 273 350 410 496
#     4  11  22  44  81 124 165 209 256 345 418 472
#     4  12  24  47  76 120 162 211 262 332 404 472
#     4  10  22  46  70 110 158 210 274 326 382 486
#     4  12  26  44  72 113 168 218 273 315 375 484
#
# _framework density 26.858291000000001
#
# number of rings (size 3 to 8) (size 9 to 14) (size 15 to 20)
#    0.000    1.111    2.222    6.000    0.000    0.000 
#   16.000    0.000    0.000   24.000   11.556    0.778 
#    0.000    0.000    0.000    0.000    0.000    0.000 
#
# Total GULP energy -201992.438931 kJ/mol
# GULP energy per Si atom -5610.901081 kJ/mol
# Density = 2.679716 g / cm^3
# Si number density = 26.858291 Si / 1000 Ang^3
#
#
#
# Elastic Constant Matrix: (Units=GPa)
#
#
# Indices 1 2 3 4 5 6 
#
# 1 251.6340 70.0458 78.0798 0.0000 0.0000 0.0000
# 2 70.0458 207.2619 60.9312 0.0000 0.0000 0.0000
# 3 78.0798 60.9312 135.9085 0.0000 0.0000 0.0000
# 4 0.0000 0.0000 0.0000 39.6634 0.0000 0.0000
# 5 0.0000 0.0000 0.0000 0.0000 37.3904 0.0000
# 6 0.0000 0.0000 0.0000 0.0000 0.0000 37.2919
#
#
#
# Elastic Compliance Matrix: (Units=1/GPa)
#
#
# Indices 1 2 3 4 5 6 
#
# 1 0.005001 -0.000974 -0.002437 0.000000 0.000000 0.000000
# 2 -0.000974 0.005747 -0.002017 0.000000 0.000000 0.000000
# 3 -0.002437 -0.002017 0.009662 0.000000 0.000000 0.000000
# 4 0.000000 0.000000 0.000000 0.025212 0.000000 0.000000
# 5 0.000000 0.000000 0.000000 0.000000 0.026745 0.000000
# 6 0.000000 0.000000 0.000000 0.000000 0.000000 0.026816
#
#
# Mechanical properties :
#
#
# Convention : Reuss Voigt Hill
#
# Bulk Modulus (GPa) = 104.65530 112.54642 108.60086
# Shear Modulus (GPa) = 44.16086 48.58565 46.37326
#
# Velocity S-wave (km/s) = 4.05929 4.25780 4.15973
# Velocity P-wave (km/s) = 7.81158 8.13429 7.97457
#
# Compressibility (1/GPa) = 0.00955518
#
# Stress axis : x y z
#
# Youngs Moduli (GPa) = 199.95350 174.00689 103.49853
#
# Poissons Ratio (x) = 0.16946 0.25218
# Poissons Ratio (y) = 0.19473 0.20875
# Poissons Ratio (z) = 0.48720 0.35097
#
# Static dielectric constant tensor:
#      x y z
#    x 1.970130 0.000000 0.000000 
#    y 0.000000 2.173790 0.000000 
#    z 0.000000 0.000000 2.125850 
# 
# From -- ./inp_files/49853.got.cif
#   From: 2010.05.17/outbox.cif.g08.bks.cpg/sg64_25_cif.got.tgz:49853.got - 2010.06.03 16:29:19.
