data_PCOD9480451
_publ_section_title
;
Structure prediction by ZEFSAII (Michael W. Deem and Ramdas Pophale) SiO2 
 PCOD9480451
Probable space group: C M C A
;
_chemical_formula_sum "Si O2"
_cell_formula_units_Z 72
_cell_length_a 13.411745
_cell_length_b 30.687747
_cell_length_c 7.755474
_cell_angle_alpha 90.000000
_cell_angle_beta 90.000000
_cell_angle_gamma 90.000000
_cell_volume 3191.968808
_symmetry_space_group_name_H-M "C M C A"
_symmetry_group_IT_number 64
_symmetry_cell_setting 'orthorhombic'
loop_
_space_group_symop_operation_xyz
x,y,z
-x,1/2-y,1/2+z
x,-y,-z
-x,1/2+y,1/2-z
-x,-y,-z
x,1/2+y,1/2-z
-x,y,z
x,1/2-y,1/2+z
1/2+x,1/2+y,z
1/2-x,-y,1/2+z
1/2+x,1/2-y,-z
1/2-x,y,1/2-z
1/2-x,1/2-y,-z
1/2+x,y,1/2-z
1/2-x,1/2+y,z
1/2+x,-y,1/2+z
loop_
_atom_site_type_symbol
_atom_site_label
_atom_site_fract_x
_atom_site_fract_y
_atom_site_fract_z
Si Si1 0.878606 0.192516 0.138155
Si Si2 0.276362 0.500000 0.500000
Si Si3 0.619382 0.143205 0.687624
Si Si4 0.882158 0.455753 0.314409
Si Si5 0.879045 0.210506 0.521299
O O1 0.845546 0.193146 0.335915
O O2 0.000000 0.190960 0.145977
O O3 0.846915 0.155066 0.005461
O O4 0.852551 0.239352 0.055505
O O5 0.192646 0.538014 0.523474
O O6 0.346296 0.489624 0.335018
O O7 0.500000 0.147758 0.682039
O O8 0.635990 0.093762 0.745364
O O9 0.652942 0.178736 0.825982
O O10 0.000000 0.460981 0.351727
O O11 0.000000 0.210283 0.520184
#
# Coordination Sequence:
#
# PCOD9480451 Si02
#       5
#    16   8  16  16  16
#     4   9  14  22  39  68 113 164 209 253 300 358
#     4  10  22  42  68  92 120 166 206 262 354 410
#     4   9  17  29  47  78 118 160 210 264 309 367
#     4  10  21  41  66  95 128 163 215 276 332 404
#     4   9  14  22  39  68 113 164 209 253 300 358
#
# _framework density 22.556612000000001
#
# number of rings (size 3 to 8) (size 9 to 14) (size 15 to 20)
#    0.000    2.667    2.222    0.667    0.000    0.000 
#    8.000    0.000    0.000    0.000    0.000    6.222 
#    0.000    0.000    0.000    0.000    0.000    5.778 
#
# Total GULP energy -200728.610021 kJ/mol
# GULP energy per Si atom -5575.794723 kJ/mol
# Density = 2.250527 g / cm^3
# Si number density = 22.556612 Si / 1000 Ang^3
#
#
#
# Elastic Constant Matrix: (Units=GPa)
#
#
# Indices 1 2 3 4 5 6 
#
# 1 131.2321 8.3302 21.1992 0.0000 0.0000 0.0000
# 2 8.3302 77.7719 45.8180 0.0000 0.0000 0.0000
# 3 21.1992 45.8180 138.1547 0.0000 0.0000 0.0000
# 4 0.0000 0.0000 0.0000 25.8192 0.0000 0.0000
# 5 0.0000 0.0000 0.0000 0.0000 39.9971 0.0000
# 6 0.0000 0.0000 0.0000 0.0000 0.0000 -29.8250
#
#
#
# Elastic Compliance Matrix: (Units=1/GPa)
#
#
# Indices 1 2 3 4 5 6 
#
# 1 0.007815 -0.000162 -0.001145 0.000000 0.000000 0.000000
# 2 -0.000162 0.015984 -0.005276 0.000000 0.000000 0.000000
# 3 -0.001145 -0.005276 0.009164 0.000000 0.000000 0.000000
# 4 0.000000 0.000000 0.000000 0.038731 0.000000 0.000000
# 5 0.000000 0.000000 0.000000 0.000000 0.025002 0.000000
# 6 0.000000 0.000000 0.000000 0.000000 0.000000 -0.033529
#
#
# Mechanical properties :
#
#
# Convention : Reuss Voigt Hill
#
# Bulk Modulus (GPa) = 50.51651 55.31706 52.91679
# Shear Modulus (GPa) = 60.28991 25.31901 42.80446
#
# Velocity S-wave (km/s) = 5.17555 3.35396 4.36092
# Velocity P-wave (km/s) = 7.62621 6.29091 6.99052
#
# Compressibility (1/GPa) = 0.01979551
#
# Stress axis : x y z
#
# Youngs Moduli (GPa) = 127.95218 62.56352 109.12548
#
# Poissons Ratio (x) = 0.01016 0.12499
# Poissons Ratio (y) = 0.02077 0.57575
# Poissons Ratio (z) = 0.14656 0.33008
#
# Static dielectric constant tensor:
#      x y z
#    x 1.948260 0.000000 0.000000 
#    y 0.000000 1.784820 0.000000 
#    z 0.000000 0.000000 1.848310 
# 
# From -- ./inp_files/5978.got.cif
#   From: 2010.05.17/outbox.cif.g08.bks.cpg/sg64_3_cif.got.tgz:5978.got - 2010.06.03 16:29:19.
