data_PCOD9480440
_publ_section_title
;
Structure prediction by ZEFSAII (Michael W. Deem and Ramdas Pophale) SiO2 
 PCOD9480440
Probable space group: C M C A
;
_chemical_formula_sum "Si O2"
_cell_formula_units_Z 88
_cell_length_a 13.303039
_cell_length_b 15.139168
_cell_length_c 23.401568
_cell_angle_alpha 90.000000
_cell_angle_beta 90.000000
_cell_angle_gamma 90.000000
_cell_volume 4713.004241
_symmetry_space_group_name_H-M "C M C A"
_symmetry_group_IT_number 64
_symmetry_cell_setting 'orthorhombic'
loop_
_space_group_symop_operation_xyz
x,y,z
-x,1/2-y,1/2+z
x,-y,-z
-x,1/2+y,1/2-z
-x,-y,-z
x,1/2+y,1/2-z
-x,y,z
x,1/2-y,1/2+z
1/2+x,1/2+y,z
1/2-x,-y,1/2+z
1/2+x,1/2-y,-z
1/2-x,y,1/2-z
1/2-x,1/2-y,-z
1/2+x,y,1/2-z
1/2-x,1/2+y,z
1/2+x,-y,1/2+z
loop_
_atom_site_type_symbol
_atom_site_label
_atom_site_fract_x
_atom_site_fract_y
_atom_site_fract_z
Si Si1 0.776583 0.407831 0.371209
Si Si2 0.279769 0.598235 0.349144
Si Si3 0.885513 0.155206 0.239577
Si Si4 0.291075 0.239047 0.436203
Si Si5 0.250000 0.822836 0.250000
Si Si6 0.500000 0.637836 0.046484
Si Si7 0.000000 0.064931 0.917137
O O1 0.728355 0.504061 0.378818
O O2 0.717160 0.334491 0.407135
O O3 0.765288 0.381246 0.305362
O O4 0.894667 0.409048 0.387641
O O5 0.181397 0.608489 0.308607
O O6 0.366360 0.612408 0.301968
O O7 0.276211 0.674953 0.396178
O O8 0.842865 0.254878 0.242970
O O9 0.000000 0.152516 0.223502
O O10 0.250000 0.250000 0.500000
O O11 0.400699 0.193798 0.438461
O O12 0.500000 0.541709 0.076436
O O13 0.500000 0.611749 0.979309
#
# Coordination Sequence:
#
# PCOD9480440 Si02
#       7
#    16  16  16  16   8   8   8
#     4  12  23  43  66  98 132 170 215 274 327 391
#     4  10  23  42  62  94 130 167 219 268 324 383
#     4  10  21  41  65  90 130 175 213 266 323 390
#     4  12  24  42  67  94 136 166 214 282 321 377
#     4  10  22  38  62 100 126 166 216 256 334 396
#     4  11  24  44  65 104 123 178 234 260 323 382
#     4  11  24  40  75  95 128 177 229 265 317 391
#
# _framework density 18.671741999999998
#
# number of rings (size 3 to 8) (size 9 to 14) (size 15 to 20)
#    0.000    1.273    7.273    1.091    3.818    0.727 
#    3.273    0.000    0.000    1.091    0.000    0.000 
#    0.000    0.000    0.000    0.000    0.000    0.000 
#
# Total GULP energy -245727.880027 kJ/mol
# GULP energy per Si atom -5584.724546 kJ/mol
# Density = 1.862924 g / cm^3
# Si number density = 18.671742 Si / 1000 Ang^3
#
#
#
# Elastic Constant Matrix: (Units=GPa)
#
#
# Indices 1 2 3 4 5 6 
#
# 1 66.8383 6.0188 6.8053 0.0000 0.0000 0.0000
# 2 6.0188 108.9357 30.4086 0.0000 0.0000 0.0000
# 3 6.8053 30.4086 108.5003 0.0000 0.0000 0.0000
# 4 0.0000 0.0000 0.0000 25.8590 0.0000 0.0000
# 5 0.0000 0.0000 0.0000 0.0000 6.9973 0.0000
# 6 0.0000 0.0000 0.0000 0.0000 0.0000 -4.8439
#
#
#
# Elastic Compliance Matrix: (Units=1/GPa)
#
#
# Indices 1 2 3 4 5 6 
#
# 1 0.015096 -0.000618 -0.000774 0.000000 0.000000 0.000000
# 2 -0.000618 0.009984 -0.002759 0.000000 0.000000 0.000000
# 3 -0.000774 -0.002759 0.010038 0.000000 0.000000 0.000000
# 4 0.000000 0.000000 0.000000 0.038671 0.000000 0.000000
# 5 0.000000 0.000000 0.000000 0.000000 0.142912 0.000000
# 6 0.000000 0.000000 0.000000 0.000000 0.000000 -0.206445
#
#
# Mechanical properties :
#
#
# Convention : Reuss Voigt Hill
#
# Bulk Modulus (GPa) = 37.29082 41.19328 39.24205
# Shear Modulus (GPa) = 181.83507 21.67192 101.75349
#
# Velocity S-wave (km/s) = 9.87910 3.41057 7.39015
# Velocity P-wave (km/s) = 12.25332 6.13344 9.68925
#
# Compressibility (1/GPa) = 0.02681625
#
# Stress axis : x y z
#
# Youngs Moduli (GPa) = 66.24307 100.15878 99.61699
#
# Poissons Ratio (x) = 0.06191 0.07706
# Poissons Ratio (y) = 0.04095 0.27488
# Poissons Ratio (z) = 0.05125 0.27638
#
# Static dielectric constant tensor:
#      x y z
#    x 1.628110 0.000000 0.000000 
#    y 0.000000 1.661900 0.000000 
#    z 0.000000 0.000000 1.669160 
# 
# From -- ./inp_files/39117.got.cif
#   From: 2010.05.17/outbox.cif.g08.bks.cpg/sg64_20_cif.got.tgz:39117.got - 2010.06.03 16:29:19.
