data_PCOD9480419
_publ_section_title
;
Structure prediction by ZEFSAII (Michael W. Deem and Ramdas Pophale) SiO2 
 PCOD9480419
Probable space group: C M C A
;
_chemical_formula_sum "Si O2"
_cell_formula_units_Z 80
_cell_length_a 16.791973
_cell_length_b 26.082251
_cell_length_c 7.905889
_cell_angle_alpha 90.000000
_cell_angle_beta 90.000000
_cell_angle_gamma 90.000000
_cell_volume 3462.561611
_symmetry_space_group_name_H-M "C M C A"
_symmetry_group_IT_number 64
_symmetry_cell_setting 'orthorhombic'
loop_
_space_group_symop_operation_xyz
x,y,z
-x,1/2-y,1/2+z
x,-y,-z
-x,1/2+y,1/2-z
-x,-y,-z
x,1/2+y,1/2-z
-x,y,z
x,1/2-y,1/2+z
1/2+x,1/2+y,z
1/2-x,-y,1/2+z
1/2+x,1/2-y,-z
1/2-x,y,1/2-z
1/2-x,1/2-y,-z
1/2+x,y,1/2-z
1/2-x,1/2+y,z
1/2+x,-y,1/2+z
loop_
_atom_site_type_symbol
_atom_site_label
_atom_site_fract_x
_atom_site_fract_y
_atom_site_fract_z
Si Si1 0.909651 0.078206 0.192049
Si Si2 0.306445 0.500000 0.000000
Si Si3 0.087862 0.632748 0.673354
Si Si4 0.750000 0.920297 0.250000
Si Si5 0.090249 0.730914 0.867438
Si Si6 0.338961 0.823629 0.820525
O O1 0.872178 0.118596 0.322157
O O2 0.000000 0.065239 0.237504
O O3 0.910539 0.110764 0.016128
O O4 0.860409 0.027499 0.143400
O O5 0.255582 0.543797 0.913443
O O6 0.168128 0.610823 0.754553
O O7 0.092140 0.693557 0.703282
O O8 0.000000 0.617272 0.743680
O O9 0.112285 0.787216 0.807556
O O10 0.000000 0.728504 0.935860
O O11 0.149727 0.705022 0.001309
O O12 0.250000 0.825314 0.750000
#
# Coordination Sequence:
#
# PCOD9480419 Si02
#       6
#    16   8  16   8  16  16
#     4  10  21  41  63  88 121 165 215 266 316 379
#     4  10  23  38  63  90 118 166 208 266 322 382
#     4   9  21  39  64  90 120 164 212 255 314 383
#     4  10  22  38  64  84 130 156 210 266 330 370
#     4  11  23  41  62  90 128 171 209 252 313 385
#     4  12  26  38  63  95 131 163 211 260 317 380
#
# _framework density 23.104281
#
# number of rings (size 3 to 8) (size 9 to 14) (size 15 to 20)
#    0.000    1.600    0.000    3.900    8.400    2.400 
#    0.000    0.500    0.000    0.000    0.000    0.000 
#    0.000    0.000    0.000    0.000    0.000    0.000 
#
# Total GULP energy -223634.673760 kJ/mol
# GULP energy per Si atom -5590.866844 kJ/mol
# Density = 2.305169 g / cm^3
# Si number density = 23.104281 Si / 1000 Ang^3
#
#
#
# Elastic Constant Matrix: (Units=GPa)
#
#
# Indices 1 2 3 4 5 6 
#
# 1 114.3673 33.9506 -2.3191 0.0000 0.0000 0.0000
# 2 33.9506 96.2040 -4.6398 0.0000 0.0000 0.0000
# 3 -2.3191 -4.6398 39.0341 0.0000 0.0000 0.0000
# 4 0.0000 0.0000 0.0000 22.5650 0.0000 0.0000
# 5 0.0000 0.0000 0.0000 0.0000 10.4290 0.0000
# 6 0.0000 0.0000 0.0000 0.0000 0.0000 20.8521
#
#
#
# Elastic Compliance Matrix: (Units=1/GPa)
#
#
# Indices 1 2 3 4 5 6 
#
# 1 0.009768 -0.003439 0.000172 0.000000 0.000000 0.000000
# 2 -0.003439 0.011665 0.001182 0.000000 0.000000 0.000000
# 3 0.000172 0.001182 0.025769 0.000000 0.000000 0.000000
# 4 0.000000 0.000000 0.000000 0.044316 0.000000 0.000000
# 5 0.000000 0.000000 0.000000 0.000000 0.095886 0.000000
# 6 0.000000 0.000000 0.000000 0.000000 0.000000 0.047957
#
#
# Mechanical properties :
#
#
# Convention : Reuss Voigt Hill
#
# Bulk Modulus (GPa) = 23.23827 33.73211 28.48519
# Shear Modulus (GPa) = 19.69462 25.61014 22.65238
#
# Velocity S-wave (km/s) = 2.92280 3.33296 3.13460
# Velocity P-wave (km/s) = 4.63359 5.42616 5.04546
#
# Compressibility (1/GPa) = 0.04303246
#
# Stress axis : x y z
#
# Youngs Moduli (GPa) = 102.37408 85.72513 38.80584
#
# Poissons Ratio (x) = 0.29480 -0.00666
# Poissons Ratio (y) = 0.35205 -0.04588
# Poissons Ratio (z) = -0.01756 -0.10135
#
# Static dielectric constant tensor:
#      x y z
#    x 1.845150 0.000000 0.000000 
#    y 0.000000 1.826250 0.000000 
#    z 0.000000 0.000000 1.932780 
# 
# From -- ./inp_files/7184.got.cif
#   From: 2010.05.17/outbox.cif.g08.bks.cpg/sg64_4_cif.got.tgz:7184.got - 2010.06.03 16:29:19.
