data_PCOD9480743
_publ_section_title
;
Structure prediction by ZEFSAII (Michael W. Deem and Ramdas Pophale) SiO2 
 PCOD9480743
Probable space group: C M C A
;
_chemical_formula_sum "Si O2"
_cell_formula_units_Z 88
_cell_length_a 21.383416
_cell_length_b 9.112279
_cell_length_c 22.040699
_cell_angle_alpha 90.000000
_cell_angle_beta 90.000000
_cell_angle_gamma 90.000000
_cell_volume 4294.666624
_symmetry_space_group_name_H-M "C M C A"
_symmetry_group_IT_number 64
_symmetry_cell_setting 'orthorhombic'
loop_
_space_group_symop_operation_xyz
x,y,z
-x,1/2-y,1/2+z
x,-y,-z
-x,1/2+y,1/2-z
-x,-y,-z
x,1/2+y,1/2-z
-x,y,z
x,1/2-y,1/2+z
1/2+x,1/2+y,z
1/2-x,-y,1/2+z
1/2+x,1/2-y,-z
1/2-x,y,1/2-z
1/2-x,1/2-y,-z
1/2+x,y,1/2-z
1/2-x,1/2+y,z
1/2+x,-y,1/2+z
loop_
_atom_site_type_symbol
_atom_site_label
_atom_site_fract_x
_atom_site_fract_y
_atom_site_fract_z
Si Si1 0.300056 0.627379 0.047378
Si Si2 0.075145 0.899571 0.658574
Si Si3 0.341978 0.148839 0.038590
Si Si4 0.250000 0.701576 0.750000
Si Si5 0.326074 0.548414 0.181435
Si Si6 0.074042 0.384874 0.258173
O O1 0.229490 0.686995 0.059441
O O2 0.322693 0.567842 0.110586
O O3 0.289168 0.500000 0.000000
O O4 0.350096 0.730857 0.014223
O O5 0.113949 0.864569 0.597415
O O6 0.087347 0.768995 0.707683
O O7 0.095220 0.054046 0.691297
O O8 0.000000 0.902328 0.646688
O O9 0.345086 0.000000 0.000000
O O10 0.286725 0.592116 0.794724
O O11 0.296439 0.809265 0.713774
O O12 0.396223 0.508844 0.199209
O O13 0.000000 0.394686 0.255517
#
# Coordination Sequence:
#
# PCOD9480743 Si02
#       6
#    16  16  16   8  16  16
#     4  10  23  39  60  87 119 166 205 252 309 370
#     4  10  22  41  64  91 123 161 210 258 313 374
#     4  10  23  39  60  86 121 163 207 254 305 370
#     4  10  26  36  58  96 122 160 198 260 314 364
#     4  11  23  39  60  89 127 157 204 253 310 372
#     4  10  22  39  63  90 121 162 199 253 313 372
#
# _framework density 20.49053
#
# number of rings (size 3 to 8) (size 9 to 14) (size 15 to 20)
#    0.000    1.818    0.000    2.182   15.273    1.818 
#    0.000    0.909    0.000    3.273    0.000    0.000 
#    0.000    0.000    0.000    0.000    0.000    0.000 
#
# Total GULP energy -245235.168612 kJ/mol
# GULP energy per Si atom -5573.526559 kJ/mol
# Density = 2.044389 g / cm^3
# Si number density = 20.490530 Si / 1000 Ang^3
#
#
#
# Elastic Constant Matrix: (Units=GPa)
#
#
# Indices 1 2 3 4 5 6 
#
# 1 37.0696 28.2754 48.0826 0.0000 0.0000 0.0000
# 2 28.2754 114.0483 52.2606 0.0000 0.0000 0.0000
# 3 48.0826 52.2606 133.3844 0.0000 0.0000 0.0000
# 4 0.0000 0.0000 0.0000 30.7988 0.0000 0.0000
# 5 0.0000 0.0000 0.0000 0.0000 -45.3308 0.0000
# 6 0.0000 0.0000 0.0000 0.0000 0.0000 10.7535
#
#
#
# Elastic Compliance Matrix: (Units=1/GPa)
#
#
# Indices 1 2 3 4 5 6 
#
# 1 0.053234 -0.005368 -0.017086 0.000000 0.000000 0.000000
# 2 -0.005368 0.011228 -0.002464 0.000000 0.000000 0.000000
# 3 -0.017086 -0.002464 0.014622 0.000000 0.000000 0.000000
# 4 0.000000 0.000000 0.000000 0.032469 0.000000 0.000000
# 5 0.000000 0.000000 0.000000 0.000000 -0.022060 0.000000
# 6 0.000000 0.000000 0.000000 0.000000 0.000000 0.092993
#
#
# Mechanical properties :
#
#
# Convention : Reuss Voigt Hill
#
# Bulk Modulus (GPa) = 34.19255 60.19329 47.19292
# Shear Modulus (GPa) = 20.65500 9.63655 15.14577
#
# Velocity S-wave (km/s) = 3.17839 2.17098 2.72170
# Velocity P-wave (km/s) = 5.49479 5.97696 5.74094
#
# Compressibility (1/GPa) = 0.02924614
#
# Stress axis : x y z
#
# Youngs Moduli (GPa) = 18.78505 89.06068 68.39042
#
# Poissons Ratio (x) = 0.47811 1.16855
# Poissons Ratio (y) = 0.10085 0.16852
# Poissons Ratio (z) = 0.32097 0.21945
#
# Static dielectric constant tensor:
#      x y z
#    x 1.780290 0.000000 0.000000 
#    y 0.000000 1.784830 0.000000 
#    z 0.000000 0.000000 1.688690 
# 
# From -- ./inp_files/41351.got.cif
#   From: 2010.05.17/outbox.cif.g08.bks.cpg/sg64_21_cif.got.tgz:41351.got - 2010.06.03 16:29:19.
