data_PCOD9480429
_publ_section_title
;
Structure prediction by ZEFSAII (Michael W. Deem and Ramdas Pophale) SiO2 
 PCOD9480429
Probable space group: C M C A
;
_chemical_formula_sum "Si O2"
_cell_formula_units_Z 96
_cell_length_a 18.068799
_cell_length_b 10.084151
_cell_length_c 28.396187
_cell_angle_alpha 90.000000
_cell_angle_beta 90.000000
_cell_angle_gamma 90.000000
_cell_volume 5174.026568
_symmetry_space_group_name_H-M "C M C A"
_symmetry_group_IT_number 64
_symmetry_cell_setting 'orthorhombic'
loop_
_space_group_symop_operation_xyz
x,y,z
-x,1/2-y,1/2+z
x,-y,-z
-x,1/2+y,1/2-z
-x,-y,-z
x,1/2+y,1/2-z
-x,y,z
x,1/2-y,1/2+z
1/2+x,1/2+y,z
1/2-x,-y,1/2+z
1/2+x,1/2-y,-z
1/2-x,y,1/2-z
1/2-x,1/2-y,-z
1/2+x,y,1/2-z
1/2-x,1/2+y,z
1/2+x,-y,1/2+z
loop_
_atom_site_type_symbol
_atom_site_label
_atom_site_fract_x
_atom_site_fract_y
_atom_site_fract_z
Si Si1 0.169711 0.800367 0.888890
Si Si2 0.411350 0.650705 0.013498
Si Si3 0.912149 0.186289 0.208212
Si Si4 0.803159 0.499779 0.874458
Si Si5 0.587645 0.095884 0.044799
Si Si6 0.666237 0.458391 0.267469
O O1 0.130408 0.809364 0.939128
O O2 0.110753 0.813337 0.846674
O O3 0.207463 0.656615 0.882853
O O4 0.229807 0.915416 0.883173
O O5 0.500000 0.659793 0.021160
O O6 0.393112 0.500000 0.000000
O O7 0.393300 0.755872 0.972522
O O8 0.877458 0.320267 0.229835
O O9 0.874337 0.061844 0.233691
O O10 0.000000 0.183822 0.213746
O O11 0.864982 0.450232 0.911006
O O12 0.828836 0.484528 0.820500
O O13 0.500000 0.088902 0.055210
O O14 0.601516 0.000000 0.000000
O O15 0.750000 0.435677 0.250000
#
# Coordination Sequence:
#
# PCOD9480429 Si02
#       6
#    16  16  16  16  16  16
#     4  11  24  41  62  92 128 166 211 261 320 384
#     4  10  22  41  63  89 125 166 206 260 321 376
#     4  11  24  42  68  97 128 168 217 270 320 384
#     4  11  25  39  66  92 122 170 213 257 324 388
#     4  10  21  41  64  89 125 165 211 264 315 377
#     4  11  23  44  67  93 133 171 212 265 329 387
#
# _framework density 18.554214999999999
#
# number of rings (size 3 to 8) (size 9 to 14) (size 15 to 20)
#    0.000    1.333    3.333    1.500    4.667    4.667 
#    0.000    0.000    0.000    0.000    0.000    0.000 
#    0.000    0.000    0.000    0.000    0.000    0.000 
#
# Total GULP energy -268324.363240 kJ/mol
# GULP energy per Si atom -5590.090901 kJ/mol
# Density = 1.851198 g / cm^3
# Si number density = 18.554215 Si / 1000 Ang^3
#
#
#
# Elastic Constant Matrix: (Units=GPa)
#
#
# Indices 1 2 3 4 5 6 
#
# 1 104.9688 39.2737 34.2377 0.0000 0.0000 0.0000
# 2 39.2737 80.5413 19.4167 0.0000 0.0000 0.0000
# 3 34.2377 19.4167 73.1672 0.0000 0.0000 0.0000
# 4 0.0000 0.0000 0.0000 25.0645 0.0000 0.0000
# 5 0.0000 0.0000 0.0000 0.0000 23.3767 0.0000
# 6 0.0000 0.0000 0.0000 0.0000 0.0000 26.7580
#
#
#
# Elastic Compliance Matrix: (Units=1/GPa)
#
#
# Indices 1 2 3 4 5 6 
#
# 1 0.013011 -0.005210 -0.004706 0.000000 0.000000 0.000000
# 2 -0.005210 0.015351 -0.001636 0.000000 0.000000 0.000000
# 3 -0.004706 -0.001636 0.016303 0.000000 0.000000 0.000000
# 4 0.000000 0.000000 0.000000 0.039897 0.000000 0.000000
# 5 0.000000 0.000000 0.000000 0.000000 0.042778 0.000000
# 6 0.000000 0.000000 0.000000 0.000000 0.000000 0.037372
#
#
# Mechanical properties :
#
#
# Convention : Reuss Voigt Hill
#
# Bulk Modulus (GPa) = 46.37737 49.39261 47.88499
# Shear Modulus (GPa) = 25.64080 26.08980 25.86530
#
# Velocity S-wave (km/s) = 3.72148 3.75392 3.73773
# Velocity P-wave (km/s) = 6.59664 6.74297 6.67021
#
# Compressibility (1/GPa) = 0.02156224
#
# Stress axis : x y z
#
# Youngs Moduli (GPa) = 76.85950 65.14313 61.33702
#
# Poissons Ratio (x) = 0.33939 0.28863
# Poissons Ratio (y) = 0.40043 0.10033
# Poissons Ratio (z) = 0.36167 0.10656
#
# Static dielectric constant tensor:
#      x y z
#    x 1.606120 0.000000 0.000000 
#    y 0.000000 1.636400 0.000000 
#    z 0.000000 0.000000 1.614350 
# 
# From -- ./inp_files/50682.got.cif
#   From: 2010.05.17/outbox.cif.g08.bks.cpg/sg64_26_cif.got.tgz:50682.got - 2010.06.03 16:29:19.
