data_PCOD9480777
_publ_section_title
;
Structure prediction by ZEFSAII (Michael W. Deem and Ramdas Pophale) SiO2 
 PCOD9480777
Probable space group: C M C A
;
_chemical_formula_sum "Si O2"
_cell_formula_units_Z 64
_cell_length_a 9.320171
_cell_length_b 9.799240
_cell_length_c 34.698579
_cell_angle_alpha 90.000000
_cell_angle_beta 90.000000
_cell_angle_gamma 90.000000
_cell_volume 3169.041778
_symmetry_space_group_name_H-M "C M C A"
_symmetry_group_IT_number 64
_symmetry_cell_setting 'orthorhombic'
loop_
_space_group_symop_operation_xyz
x,y,z
-x,1/2-y,1/2+z
x,-y,-z
-x,1/2+y,1/2-z
-x,-y,-z
x,1/2+y,1/2-z
-x,y,z
x,1/2-y,1/2+z
1/2+x,1/2+y,z
1/2-x,-y,1/2+z
1/2+x,1/2-y,-z
1/2-x,y,1/2-z
1/2-x,1/2-y,-z
1/2+x,y,1/2-z
1/2-x,1/2+y,z
1/2+x,-y,1/2+z
loop_
_atom_site_type_symbol
_atom_site_label
_atom_site_fract_x
_atom_site_fract_y
_atom_site_fract_z
Si Si1 0.330238 0.290621 0.539000
Si Si2 0.667720 0.568734 0.335049
Si Si3 0.832169 0.791890 0.289893
Si Si4 0.830448 0.565459 0.917155
O O1 0.500000 0.267807 0.535115
O O2 0.250000 0.250000 0.500000
O O3 0.265102 0.194555 0.572254
O O4 0.308876 0.447789 0.550868
O O5 0.500000 0.610237 0.336603
O O6 0.764957 0.693742 0.322150
O O7 0.682525 0.447552 0.303948
O O8 0.704481 0.502902 0.376228
O O9 0.750000 0.770342 0.250000
O O10 0.000000 0.761520 0.285110
O O11 0.000000 0.602094 0.916718
#
# Coordination Sequence:
#
# PCOD9480777 Si02
#       4
#    16  16  16  16
#     4  11  23  38  59  86 116 153 194 237 287 342
#     4  10  22  40  61  86 116 150 190 237 287 340
#     4  11  23  38  59  86 115 150 190 232 281 337
#     4  10  22  40  60  85 117 150 189 238 288 340
#
# _framework density 20.195378999999999
#
# number of rings (size 3 to 8) (size 9 to 14) (size 15 to 20)
#    0.000    1.500    0.000    4.500    0.000   10.000 
#    0.000    0.000    0.000    0.000    0.000    0.000 
#    0.000    0.000    0.000    0.000    0.000    0.000 
#
# Total GULP energy -179034.525123 kJ/mol
# GULP energy per Si atom -5594.828910 kJ/mol
# Density = 2.014941 g / cm^3
# Si number density = 20.195379 Si / 1000 Ang^3
#
#
#
# Elastic Constant Matrix: (Units=GPa)
#
#
# Indices 1 2 3 4 5 6 
#
# 1 63.7318 33.3238 8.4015 0.0000 0.0000 0.0000
# 2 33.3238 43.1605 -13.3781 0.0000 0.0000 0.0000
# 3 8.4015 -13.3781 56.9587 0.0000 0.0000 0.0000
# 4 0.0000 0.0000 0.0000 23.5714 0.0000 0.0000
# 5 0.0000 0.0000 0.0000 0.0000 35.3831 0.0000
# 6 0.0000 0.0000 0.0000 0.0000 0.0000 28.2483
#
#
#
# Elastic Compliance Matrix: (Units=1/GPa)
#
#
# Indices 1 2 3 4 5 6 
#
# 1 0.031888 -0.028126 -0.011310 0.000000 0.000000 0.000000
# 2 -0.028126 0.049796 0.015844 0.000000 0.000000 0.000000
# 3 -0.011310 0.015844 0.022946 0.000000 0.000000 0.000000
# 4 0.000000 0.000000 0.000000 0.042424 0.000000 0.000000
# 5 0.000000 0.000000 0.000000 0.000000 0.028262 0.000000
# 6 0.000000 0.000000 0.000000 0.000000 0.000000 0.035400
#
#
# Mechanical properties :
#
#
# Convention : Reuss Voigt Hill
#
# Bulk Modulus (GPa) = 17.40693 24.50504 20.95598
# Shear Modulus (GPa) = 18.04737 26.47416 22.26077
#
# Velocity S-wave (km/s) = 2.99262 3.62457 3.32365
# Velocity P-wave (km/s) = 4.53641 5.44766 5.01278
#
# Compressibility (1/GPa) = 0.05744840
#
# Stress axis : x y z
#
# Youngs Moduli (GPa) = 31.35976 20.08182 43.58015
#
# Poissons Ratio (x) = 0.56482 0.49287
# Poissons Ratio (y) = 0.88202 -0.69050
# Poissons Ratio (z) = 0.35467 -0.31819
#
# Static dielectric constant tensor:
#      x y z
#    x 1.667520 0.000000 0.000000 
#    y 0.000000 1.688410 0.000000 
#    z 0.000000 0.000000 1.732290 
# 
# From -- ./inp_files/51542.got.cif
#   From: 2010.05.17/outbox.cif.g08.bks.cpg/sg64_26_cif.got.tgz:51542.got - 2010.06.03 16:29:19.
