data_PCOD9480220
_publ_section_title
;
Structure prediction by ZEFSAII (Michael W. Deem and Ramdas Pophale) SiO2 
 PCOD9480220
Probable space group: C M C A
;
_chemical_formula_sum "Si O2"
_cell_formula_units_Z 96
_cell_length_a 23.366455
_cell_length_b 10.899579
_cell_length_c 17.246632
_cell_angle_alpha 90.000000
_cell_angle_beta 90.000000
_cell_angle_gamma 90.000000
_cell_volume 4392.450231
_symmetry_space_group_name_H-M "C M C A"
_symmetry_group_IT_number 64
_symmetry_cell_setting 'orthorhombic'
loop_
_space_group_symop_operation_xyz
x,y,z
-x,1/2-y,1/2+z
x,-y,-z
-x,1/2+y,1/2-z
-x,-y,-z
x,1/2+y,1/2-z
-x,y,z
x,1/2-y,1/2+z
1/2+x,1/2+y,z
1/2-x,-y,1/2+z
1/2+x,1/2-y,-z
1/2-x,y,1/2-z
1/2-x,1/2-y,-z
1/2+x,y,1/2-z
1/2-x,1/2+y,z
1/2+x,-y,1/2+z
loop_
_atom_site_type_symbol
_atom_site_label
_atom_site_fract_x
_atom_site_fract_y
_atom_site_fract_z
Si Si1 0.434090 0.851666 0.442739
Si Si2 0.339570 0.926227 0.336367
Si Si3 0.847314 0.410297 0.158452
Si Si4 0.565252 0.938536 0.919425
Si Si5 0.746161 0.636030 0.958769
Si Si6 0.653762 0.829753 0.580194
O O1 0.500000 0.888550 0.452913
O O2 0.404371 0.906523 0.366325
O O3 0.433394 0.705548 0.431171
O O4 0.392835 0.872382 0.517236
O O5 0.329058 0.902529 0.246946
O O6 0.301617 0.839703 0.391482
O O7 0.327433 0.066445 0.360240
O O8 0.893032 0.516848 0.147242
O O9 0.796863 0.424847 0.096510
O O10 0.872919 0.281126 0.128983
O O11 0.500000 0.978636 0.905710
O O12 0.585075 0.000000 0.000000
O O13 0.729611 0.500000 0.000000
O O14 0.711323 0.722614 0.033836
#
# Coordination Sequence:
#
# PCOD9480220 Si02
#       6
#    16  16  16  16  16  16
#     4  10  21  41  66  90 122 167 214 256 304 366
#     4  11  24  40  61  96 133 155 207 261 313 375
#     4  11  23  40  64  90 128 167 199 256 331 355
#     4  10  21  39  63  92 121 160 218 259 293 372
#     4   9  20  42  63  87 120 166 208 247 297 372
#     4  10  22  42  61  91 127 161 212 258 294 379
#
# _framework density 21.855682999999999
#
# number of rings (size 3 to 8) (size 9 to 14) (size 15 to 20)
#    0.000    1.833    1.667    2.500    2.333    3.333 
#    6.000    3.333    0.000    0.000    0.000    0.000 
#    0.000    0.000    0.000    0.000    0.000    0.000 
#
# Total GULP energy -267625.754304 kJ/mol
# GULP energy per Si atom -5575.536548 kJ/mol
# Density = 2.180594 g / cm^3
# Si number density = 21.855683 Si / 1000 Ang^3
#
#
#
# Elastic Constant Matrix: (Units=GPa)
#
#
# Indices 1 2 3 4 5 6 
#
# 1 113.2518 24.5521 38.0819 0.0000 0.0000 0.0000
# 2 24.5521 79.9516 45.5942 0.0000 0.0000 0.0000
# 3 38.0819 45.5942 98.3368 0.0000 0.0000 0.0000
# 4 0.0000 0.0000 0.0000 28.7513 0.0000 0.0000
# 5 0.0000 0.0000 0.0000 0.0000 13.8918 0.0000
# 6 0.0000 0.0000 0.0000 0.0000 0.0000 28.8796
#
#
#
# Elastic Compliance Matrix: (Units=1/GPa)
#
#
# Indices 1 2 3 4 5 6 
#
# 1 0.010236 -0.001200 -0.003408 0.000000 0.000000 0.000000
# 2 -0.001200 0.017144 -0.007484 0.000000 0.000000 0.000000
# 3 -0.003408 -0.007484 0.014959 0.000000 0.000000 0.000000
# 4 0.000000 0.000000 0.000000 0.034781 0.000000 0.000000
# 5 0.000000 0.000000 0.000000 0.000000 0.071985 0.000000
# 6 0.000000 0.000000 0.000000 0.000000 0.000000 0.034627
#
#
# Mechanical properties :
#
#
# Convention : Reuss Voigt Hill
#
# Bulk Modulus (GPa) = 55.08064 56.44406 55.76235
# Shear Modulus (GPa) = 23.36812 26.52532 24.94672
#
# Velocity S-wave (km/s) = 3.27341 3.48754 3.38217
# Velocity P-wave (km/s) = 6.28837 6.48838 6.38916
#
# Compressibility (1/GPa) = 0.01815520
#
# Stress axis : x y z
#
# Youngs Moduli (GPa) = 97.69576 58.32904 66.85028
#
# Poissons Ratio (x) = 0.07000 0.22779
# Poissons Ratio (y) = 0.11724 0.50032
# Poissons Ratio (z) = 0.33290 0.43655
#
# Static dielectric constant tensor:
#      x y z
#    x 1.854520 0.000000 0.000000 
#    y 0.000000 1.900920 0.000000 
#    z 0.000000 0.000000 1.778940 
# 
# From -- ./inp_files/34921.got.cif
#   From: 2010.05.17/outbox.cif.g08.bks.cpg/sg64_18_cif.got.tgz:34921.got - 2010.06.03 16:29:19.
