data_PCOD9480810
_publ_section_title
;
Structure prediction by ZEFSAII (Michael W. Deem and Ramdas Pophale) SiO2 
 PCOD9480810
Probable space group: C M C A
;
_chemical_formula_sum "Si O2"
_cell_formula_units_Z 96
_cell_length_a 23.237465
_cell_length_b 9.122083
_cell_length_c 25.100339
_cell_angle_alpha 90.000000
_cell_angle_beta 90.000000
_cell_angle_gamma 90.000000
_cell_volume 5320.621379
_symmetry_space_group_name_H-M "C M C A"
_symmetry_group_IT_number 64
_symmetry_cell_setting 'orthorhombic'
loop_
_space_group_symop_operation_xyz
x,y,z
-x,1/2-y,1/2+z
x,-y,-z
-x,1/2+y,1/2-z
-x,-y,-z
x,1/2+y,1/2-z
-x,y,z
x,1/2-y,1/2+z
1/2+x,1/2+y,z
1/2-x,-y,1/2+z
1/2+x,1/2-y,-z
1/2-x,y,1/2-z
1/2-x,1/2-y,-z
1/2+x,y,1/2-z
1/2-x,1/2+y,z
1/2+x,-y,1/2+z
loop_
_atom_site_type_symbol
_atom_site_label
_atom_site_fract_x
_atom_site_fract_y
_atom_site_fract_z
Si Si1 0.937845 0.675751 0.990622
Si Si2 0.145754 0.101990 0.599135
Si Si3 0.766469 0.127901 0.957794
Si Si4 0.931325 0.757479 0.309210
Si Si5 0.120801 0.754816 0.595170
Si Si6 0.067326 0.591973 0.694783
O O1 0.886160 0.686781 0.949310
O O2 0.000000 0.722787 0.969127
O O3 0.940581 0.500000 0.000000
O O4 0.924139 0.753949 0.046126
O O5 0.213003 0.104956 0.582923
O O6 0.115674 0.175761 0.650287
O O7 0.130183 0.929419 0.601832
O O8 0.821363 0.178055 0.924819
O O9 0.750000 0.250000 0.000000
O O10 0.778791 0.000000 0.000000
O O11 0.922400 0.835962 0.252395
O O12 0.921961 0.582594 0.304684
O O13 0.000000 0.781488 0.324032
O O14 0.100740 0.677152 0.648722
O O15 0.000000 0.612233 0.683092
#
# Coordination Sequence:
#
# PCOD9480810 Si02
#       6
#    16  16  16  16  16  16
#     4   9  17  30  51  82 116 149 189 235 289 355
#     4  11  21  37  58  87 118 160 203 243 301 361
#     4  12  23  41  60  86 122 163 206 246 296 359
#     4  10  22  40  63  90 122 158 199 248 305 367
#     4  11  22  36  60  87 120 158 202 250 300 357
#     4  10  22  40  62  90 121 157 198 247 307 363
#
# _framework density 18.043005000000001
#
# number of rings (size 3 to 8) (size 9 to 14) (size 15 to 20)
#    0.000    1.500    3.333    2.500    2.333    3.333 
#    0.000    0.833    0.000    8.000    0.000    0.000 
#    0.000    0.000    0.000    0.000    0.000    0.000 
#
# Total GULP energy -267525.320795 kJ/mol
# GULP energy per Si atom -5573.444183 kJ/mol
# Density = 1.800194 g / cm^3
# Si number density = 18.043005 Si / 1000 Ang^3
#
#
#
# Elastic Constant Matrix: (Units=GPa)
#
#
# Indices 1 2 3 4 5 6 
#
# 1 90.3168 31.1445 57.0113 0.0000 0.0000 0.0000
# 2 31.1445 90.5854 50.7584 0.0000 0.0000 0.0000
# 3 57.0113 50.7584 118.4924 0.0000 0.0000 0.0000
# 4 0.0000 0.0000 0.0000 38.9387 0.0000 0.0000
# 5 0.0000 0.0000 0.0000 0.0000 37.0900 0.0000
# 6 0.0000 0.0000 0.0000 0.0000 0.0000 22.6457
#
#
#
# Elastic Compliance Matrix: (Units=1/GPa)
#
#
# Indices 1 2 3 4 5 6 
#
# 1 0.016069 -0.001569 -0.007059 0.000000 0.000000 0.000000
# 2 -0.001569 0.014679 -0.005533 0.000000 0.000000 0.000000
# 3 -0.007059 -0.005533 0.014206 0.000000 0.000000 0.000000
# 4 0.000000 0.000000 0.000000 0.025681 0.000000 0.000000
# 5 0.000000 0.000000 0.000000 0.000000 0.026961 0.000000
# 6 0.000000 0.000000 0.000000 0.000000 0.000000 0.044159
#
#
# Mechanical properties :
#
#
# Convention : Reuss Voigt Hill
#
# Bulk Modulus (GPa) = 60.12762 64.13588 62.13175
# Shear Modulus (GPa) = 28.46999 30.43356 29.45177
#
# Velocity S-wave (km/s) = 3.97658 4.11143 4.04457
# Velocity P-wave (km/s) = 7.38114 7.62639 7.50477
#
# Compressibility (1/GPa) = 0.01663129
#
# Stress axis : x y z
#
# Youngs Moduli (GPa) = 62.22993 68.12338 70.39211
#
# Poissons Ratio (x) = 0.10690 0.49693
# Poissons Ratio (y) = 0.09765 0.38949
# Poissons Ratio (z) = 0.43931 0.37693
#
# Static dielectric constant tensor:
#      x y z
#    x 1.614940 0.000000 0.000000 
#    y 0.000000 1.518670 0.000000 
#    z 0.000000 0.000000 1.603590 
# 
# From -- ./inp_files/46612.got.cif
#   From: 2010.05.17/outbox.cif.g08.bks.cpg/sg64_24_cif.got.tgz:46612.got - 2010.06.03 16:29:19.
