data_PCOD9480713
_publ_section_title
;
Structure prediction by ZEFSAII (Michael W. Deem and Ramdas Pophale) SiO2 
 PCOD9480713
Probable space group: C M C A
;
_chemical_formula_sum "Si O2"
_cell_formula_units_Z 88
_cell_length_a 15.272312
_cell_length_b 19.925042
_cell_length_c 13.315034
_cell_angle_alpha 90.000000
_cell_angle_beta 90.000000
_cell_angle_gamma 90.000000
_cell_volume 4051.784260
_symmetry_space_group_name_H-M "C M C A"
_symmetry_group_IT_number 64
_symmetry_cell_setting 'orthorhombic'
loop_
_space_group_symop_operation_xyz
x,y,z
-x,1/2-y,1/2+z
x,-y,-z
-x,1/2+y,1/2-z
-x,-y,-z
x,1/2+y,1/2-z
-x,y,z
x,1/2-y,1/2+z
1/2+x,1/2+y,z
1/2-x,-y,1/2+z
1/2+x,1/2-y,-z
1/2-x,y,1/2-z
1/2-x,1/2-y,-z
1/2+x,y,1/2-z
1/2-x,1/2+y,z
1/2+x,-y,1/2+z
loop_
_atom_site_type_symbol
_atom_site_label
_atom_site_fract_x
_atom_site_fract_y
_atom_site_fract_z
Si Si1 0.838859 0.550782 0.908751
Si Si2 0.750000 0.865551 0.250000
Si Si3 0.105858 0.429228 0.547203
Si Si4 0.103978 0.336955 0.942465
Si Si5 0.606486 0.688449 0.889497
Si Si6 0.103447 0.566964 0.228056
O O1 0.765347 0.584851 0.842747
O O2 0.889271 0.504903 0.827181
O O3 0.820338 0.500000 0.000000
O O4 0.882039 0.615776 0.961298
O O5 0.664846 0.824340 0.289092
O O6 0.131330 0.500000 0.500000
O O7 0.126318 0.367312 0.474638
O O8 0.141729 0.427843 0.660594
O O9 0.000000 0.429855 0.553377
O O10 0.133074 0.260189 0.937132
O O11 0.141485 0.378042 0.847827
O O12 0.000000 0.333157 0.930188
O O13 0.500000 0.686196 0.869642
O O14 0.000000 0.580394 0.237549
#
# Coordination Sequence:
#
# PCOD9480713 Si02
#       6
#    16   8  16  16  16  16
#     4  10  22  39  59  88 124 162 208 260 309 366
#     4  12  26  40  62  92 124 166 210 258 314 366
#     4   9  17  31  54  84 119 157 197 247 304 361
#     4   9  19  38  63  90 122 161 205 255 310 367
#     4  10  23  42  63  92 128 165 208 255 307 370
#     4   9  17  33  61  93 121 157 206 256 310 370
#
# _framework density 21.718827000000001
#
# number of rings (size 3 to 8) (size 9 to 14) (size 15 to 20)
#    0.000    2.364    0.000    1.636    0.000    9.455 
#    0.000    7.273    0.000    0.000    0.000    0.000 
#    0.000    0.000    0.000    0.000    0.000    0.000 
#
# Total GULP energy -245218.619909 kJ/mol
# GULP energy per Si atom -5573.150452 kJ/mol
# Density = 2.166939 g / cm^3
# Si number density = 21.718827 Si / 1000 Ang^3
#
#
#
# Elastic Constant Matrix: (Units=GPa)
#
#
# Indices 1 2 3 4 5 6 
#
# 1 45.7846 31.4539 38.9448 0.0000 0.0000 0.0000
# 2 31.4539 172.4935 65.8996 0.0000 0.0000 0.0000
# 3 38.9448 65.8996 131.1180 0.0000 0.0000 0.0000
# 4 0.0000 0.0000 0.0000 7.3696 0.0000 0.0000
# 5 0.0000 0.0000 0.0000 0.0000 29.4296 0.0000
# 6 0.0000 0.0000 0.0000 0.0000 0.0000 7.8969
#
#
#
# Elastic Compliance Matrix: (Units=1/GPa)
#
#
# Indices 1 2 3 4 5 6 
#
# 1 0.030116 -0.002567 -0.007655 0.000000 0.000000 0.000000
# 2 -0.002567 0.007394 -0.002954 0.000000 0.000000 0.000000
# 3 -0.007655 -0.002954 0.011385 0.000000 0.000000 0.000000
# 4 0.000000 0.000000 0.000000 0.135692 0.000000 0.000000
# 5 0.000000 0.000000 0.000000 0.000000 0.033979 0.000000
# 6 0.000000 0.000000 0.000000 0.000000 0.000000 0.126631
#
#
# Mechanical properties :
#
#
# Convention : Reuss Voigt Hill
#
# Bulk Modulus (GPa) = 44.35841 69.11028 56.73434
# Shear Modulus (GPa) = 13.19037 23.14574 18.16805
#
# Velocity S-wave (km/s) = 2.46707 3.26805 2.89539
# Velocity P-wave (km/s) = 5.34636 6.79188 6.11201
#
# Compressibility (1/GPa) = 0.02254364
#
# Stress axis : x y z
#
# Youngs Moduli (GPa) = 33.20451 135.24760 87.83579
#
# Poissons Ratio (x) = 0.34720 0.67238
# Poissons Ratio (y) = 0.08524 0.25943
# Poissons Ratio (z) = 0.25418 0.39947
#
# Static dielectric constant tensor:
#      x y z
#    x 1.828840 0.000000 0.000000 
#    y 0.000000 1.783010 0.000000 
#    z 0.000000 0.000000 3.009070 
# 
# From -- ./inp_files/16027.got.cif
#   From: 2010.05.17/outbox.cif.g08.bks.cpg/sg64_9_cif.got.tgz:16027.got - 2010.06.03 16:29:19.
