data_PCOD9480409
_publ_section_title
;
Structure prediction by ZEFSAII (Michael W. Deem and Ramdas Pophale) SiO2 
 PCOD9480409
Probable space group: C M C A
;
_chemical_formula_sum "Si O2"
_cell_formula_units_Z 128
_cell_length_a 22.585545
_cell_length_b 23.023325
_cell_length_c 11.614748
_cell_angle_alpha 90.000000
_cell_angle_beta 90.000000
_cell_angle_gamma 90.000000
_cell_volume 6039.603253
_symmetry_space_group_name_H-M "C M C A"
_symmetry_group_IT_number 64
_symmetry_cell_setting 'orthorhombic'
loop_
_space_group_symop_operation_xyz
x,y,z
-x,1/2-y,1/2+z
x,-y,-z
-x,1/2+y,1/2-z
-x,-y,-z
x,1/2+y,1/2-z
-x,y,z
x,1/2-y,1/2+z
1/2+x,1/2+y,z
1/2-x,-y,1/2+z
1/2+x,1/2-y,-z
1/2-x,y,1/2-z
1/2-x,1/2-y,-z
1/2+x,y,1/2-z
1/2-x,1/2+y,z
1/2+x,-y,1/2+z
loop_
_atom_site_type_symbol
_atom_site_label
_atom_site_fract_x
_atom_site_fract_y
_atom_site_fract_z
Si Si1 0.240974 0.371798 0.875300
Si Si2 0.773526 0.005584 0.625289
Si Si3 0.429442 0.359771 0.249897
Si Si4 0.125941 0.349352 0.602781
Si Si5 0.432392 0.265665 0.050043
Si Si6 0.069970 0.942275 0.055736
Si Si7 0.432021 0.137376 0.153055
Si Si8 0.643852 0.891986 0.037635
O O1 0.250000 0.342380 0.750000
O O2 0.216470 0.437141 0.851229
O O3 0.307433 0.369400 0.923113
O O4 0.193917 0.353348 0.971798
O O5 0.750000 0.027096 0.750000
O O6 0.824840 0.050672 0.589469
O O7 0.739197 0.000000 0.500000
O O8 0.500000 0.362977 0.276845
O O9 0.421879 0.305890 0.162710
O O10 0.389751 0.358190 0.361943
O O11 0.409838 0.417192 0.177905
O O12 0.111489 0.286415 0.550067
O O13 0.082087 0.391499 0.534068
O O14 0.108893 0.356752 0.735245
O O15 0.500000 0.276921 0.010027
O O16 0.429889 0.199652 0.089797
O O17 0.000000 0.950885 0.070085
O O18 0.096113 0.000000 0.000000
O O19 0.500000 0.124489 0.184109
O O20 0.404678 0.093519 0.060255
#
# Coordination Sequence:
#
# PCOD9480409 Si02
#       8
#    16  16  16  16  16  16  16  16
#     4  10  21  41  60  85 123 168 208 262 315 377
#     4   9  21  39  64  90 120 167 219 264 313 383
#     4   9  19  37  60  90 131 165 206 272 328 387
#     4  11  21  39  69  90 125 166 224 267 317 389
#     4   9  21  40  65  96 127 165 215 267 324 388
#     4   9  19  36  58  90 127 164 207 262 327 387
#     4  11  23  39  67  98 127 170 214 269 340 392
#     4  11  22  38  62  91 132 161 215 266 321 389
#
# _framework density 21.193446000000002
#
# number of rings (size 3 to 8) (size 9 to 14) (size 15 to 20)
#    0.000    2.125    1.250    2.250    1.750    7.500 
#    2.250    0.625    2.750    6.750    0.000    0.000 
#    0.000    0.000    0.000    0.000    0.000    0.000 
#
# Total GULP energy -356454.417872 kJ/mol
# GULP energy per Si atom -5569.600279 kJ/mol
# Density = 2.114521 g / cm^3
# Si number density = 21.193446 Si / 1000 Ang^3
#
#
#
# Elastic Constant Matrix: (Units=GPa)
#
#
# Indices 1 2 3 4 5 6 
#
# 1 94.0484 25.1123 48.1602 0.0000 0.0000 0.0000
# 2 25.1123 39.0244 22.4124 0.0000 0.0000 0.0000
# 3 48.1602 22.4124 140.6697 0.0000 0.0000 0.0000
# 4 0.0000 0.0000 0.0000 11.9927 0.0000 0.0000
# 5 0.0000 0.0000 0.0000 0.0000 25.5671 0.0000
# 6 0.0000 0.0000 0.0000 0.0000 0.0000 10.3684
#
#
#
# Elastic Compliance Matrix: (Units=1/GPa)
#
#
# Indices 1 2 3 4 5 6 
#
# 1 0.014497 -0.007131 -0.003827 0.000000 0.000000 0.000000
# 2 -0.007131 0.031713 -0.002612 0.000000 0.000000 0.000000
# 3 -0.003827 -0.002612 0.008835 0.000000 0.000000 0.000000
# 4 0.000000 0.000000 0.000000 0.083384 0.000000 0.000000
# 5 0.000000 0.000000 0.000000 0.000000 0.039113 0.000000
# 6 0.000000 0.000000 0.000000 0.000000 0.000000 0.096447
#
#
# Mechanical properties :
#
#
# Convention : Reuss Voigt Hill
#
# Bulk Modulus (GPa) = 35.83354 51.67915 43.75634
# Shear Modulus (GPa) = 16.10673 21.45616 18.78145
#
# Velocity S-wave (km/s) = 2.75978 3.18527 2.98013
# Velocity P-wave (km/s) = 5.20574 6.16160 5.70373
#
# Compressibility (1/GPa) = 0.02790681
#
# Stress axis : x y z
#
# Youngs Moduli (GPa) = 68.98203 31.53240 113.18421
#
# Poissons Ratio (x) = 0.22485 0.43315
# Poissons Ratio (y) = 0.49189 0.29558
# Poissons Ratio (z) = 0.26399 0.08235
#
# Static dielectric constant tensor:
#      x y z
#    x 1.804240 0.000000 0.000000 
#    y 0.000000 1.808830 0.000000 
#    z 0.000000 0.000000 1.831740 
# 
# From -- ./inp_files/18745.got.cif
#   From: 2010.05.17/outbox.cif.g08.bks.cpg/sg64_10_cif.got.tgz:18745.got - 2010.06.03 16:29:19.
