data_PCOD9480774
_publ_section_title
;
Structure prediction by ZEFSAII (Michael W. Deem and Ramdas Pophale) SiO2 
 PCOD9480774
Probable space group: C M C A
;
_chemical_formula_sum "Si O2"
_cell_formula_units_Z 112
_cell_length_a 14.409881
_cell_length_b 12.004955
_cell_length_c 31.142911
_cell_angle_alpha 90.000000
_cell_angle_beta 90.000000
_cell_angle_gamma 90.000000
_cell_volume 5387.411332
_symmetry_space_group_name_H-M "C M C A"
_symmetry_group_IT_number 64
_symmetry_cell_setting 'orthorhombic'
loop_
_space_group_symop_operation_xyz
x,y,z
-x,1/2-y,1/2+z
x,-y,-z
-x,1/2+y,1/2-z
-x,-y,-z
x,1/2+y,1/2-z
-x,y,z
x,1/2-y,1/2+z
1/2+x,1/2+y,z
1/2-x,-y,1/2+z
1/2+x,1/2-y,-z
1/2-x,y,1/2-z
1/2-x,1/2-y,-z
1/2+x,y,1/2-z
1/2-x,1/2+y,z
1/2+x,-y,1/2+z
loop_
_atom_site_type_symbol
_atom_site_label
_atom_site_fract_x
_atom_site_fract_y
_atom_site_fract_z
Si Si1 0.232246 0.254297 0.566032
Si Si2 0.112022 0.866085 0.507081
Si Si3 0.341414 0.371053 0.133861
Si Si4 0.890966 0.767646 0.777205
Si Si5 0.606162 0.880010 0.634664
Si Si6 0.893706 0.838511 0.682891
Si Si7 0.205667 0.453817 0.204499
O O1 0.157706 0.202282 0.532752
O O2 0.316828 0.324580 0.544503
O O3 0.280865 0.154323 0.592121
O O4 0.174881 0.327816 0.599948
O O5 0.000000 0.842477 0.512887
O O6 0.119923 0.000000 0.500000
O O7 0.395293 0.486630 0.130036
O O8 0.391372 0.256634 0.147064
O O9 0.278743 0.391124 0.175415
O O10 0.859417 0.841303 0.817884
O O11 0.857434 0.796402 0.729475
O O12 0.871349 0.638439 0.785133
O O13 0.000000 0.787408 0.775643
O O14 0.500000 0.838445 0.629360
O O15 0.000000 0.873237 0.688246
O O16 0.834296 0.947863 0.675468
O O17 0.250000 0.488155 0.250000
#
# Coordination Sequence:
#
# PCOD9480774 Si02
#       7
#    16  16  16  16  16  16  16
#     4  11  23  43  69  99 132 165 208 257 316 391
#     4  10  23  45  72 100 130 165 204 252 313 387
#     4  12  24  39  63  93 129 165 210 267 321 375
#     4  10  22  40  59  86 123 171 223 271 314 369
#     4  11  23  41  64  94 131 172 218 267 322 378
#     4  11  25  41  58  85 124 172 222 268 318 368
#     4  12  23  37  62  85 123 167 222 269 318 373
#
# _framework density 20.789204999999999
#
# number of rings (size 3 to 8) (size 9 to 14) (size 15 to 20)
#    0.000    1.000    2.857    3.857    2.000    1.143 
#    0.000    1.429    0.000    4.714    0.000    0.000 
#    0.000    0.000    0.000    0.000    0.000    0.000 
#
# Total GULP energy -312535.031019 kJ/mol
# GULP energy per Si atom -5580.982697 kJ/mol
# Density = 2.074189 g / cm^3
# Si number density = 20.789205 Si / 1000 Ang^3
#
#
#
# Elastic Constant Matrix: (Units=GPa)
#
#
# Indices 1 2 3 4 5 6 
#
# 1 106.3239 34.0026 41.6350 0.0000 0.0000 0.0000
# 2 34.0026 90.9369 7.6058 0.0000 0.0000 0.0000
# 3 41.6350 7.6058 74.9128 0.0000 0.0000 0.0000
# 4 0.0000 0.0000 0.0000 12.0180 0.0000 0.0000
# 5 0.0000 0.0000 0.0000 0.0000 -91.8476 0.0000
# 6 0.0000 0.0000 0.0000 0.0000 0.0000 0.1373
#
#
#
# Elastic Compliance Matrix: (Units=1/GPa)
#
#
# Indices 1 2 3 4 5 6 
#
# 1 0.013633 -0.004502 -0.007120 0.000000 0.000000 0.000000
# 2 -0.004502 0.012578 0.001225 0.000000 0.000000 0.000000
# 3 -0.007120 0.001225 0.017182 0.000000 0.000000 0.000000
# 4 0.000000 0.000000 0.000000 0.083208 0.000000 0.000000
# 5 0.000000 0.000000 0.000000 0.000000 -0.010888 0.000000
# 6 0.000000 0.000000 0.000000 0.000000 0.000000 7.281688
#
#
# Mechanical properties :
#
#
# Convention : Reuss Voigt Hill
#
# Bulk Modulus (GPa) = 44.25052 48.74002 46.49527
# Shear Modulus (GPa) = 0.67333 -3.34310 -1.33488
#
# Velocity S-wave (km/s) = 0.56973 -1.26948 -0.80218
# Velocity P-wave (km/s) = 4.66523 4.62028 4.64281
#
# Compressibility (1/GPa) = 0.02259860
#
# Stress axis : x y z
#
# Youngs Moduli (GPa) = 73.35114 79.50666 58.20192
#
# Poissons Ratio (x) = 0.35795 0.41439
# Poissons Ratio (y) = 0.33023 -0.07131
# Poissons Ratio (z) = 0.52225 -0.09741
#
# Static dielectric constant tensor:
#      x y z
#    x 1.768850 0.000000 0.000000 
#    y 0.000000 1.754260 0.000000 
#    z 0.000000 0.000000 1.746920 
# 
# From -- ./inp_files/53259.got.cif
#   From: 2010.05.17/outbox.cif.g08.bks.cpg/sg64_27_cif.got.tgz:53259.got - 2010.06.03 16:29:19.
