data_PCOD9480580
_publ_section_title
;
Structure prediction by ZEFSAII (Michael W. Deem and Ramdas Pophale) SiO2 
 PCOD9480580
Probable space group: C M C A
;
_chemical_formula_sum "Si O2"
_cell_formula_units_Z 88
_cell_length_a 21.878790
_cell_length_b 14.748649
_cell_length_c 12.490026
_cell_angle_alpha 90.000000
_cell_angle_beta 90.000000
_cell_angle_gamma 90.000000
_cell_volume 4030.313992
_symmetry_space_group_name_H-M "C M C A"
_symmetry_group_IT_number 64
_symmetry_cell_setting 'orthorhombic'
loop_
_space_group_symop_operation_xyz
x,y,z
-x,1/2-y,1/2+z
x,-y,-z
-x,1/2+y,1/2-z
-x,-y,-z
x,1/2+y,1/2-z
-x,y,z
x,1/2-y,1/2+z
1/2+x,1/2+y,z
1/2-x,-y,1/2+z
1/2+x,1/2-y,-z
1/2-x,y,1/2-z
1/2-x,1/2-y,-z
1/2+x,y,1/2-z
1/2-x,1/2+y,z
1/2+x,-y,1/2+z
loop_
_atom_site_type_symbol
_atom_site_label
_atom_site_fract_x
_atom_site_fract_y
_atom_site_fract_z
Si Si1 0.217441 0.574890 0.590622
Si Si2 0.750000 0.182852 0.250000
Si Si3 0.832640 0.264021 0.552905
Si Si4 0.135484 0.375705 0.875585
Si Si5 0.851171 0.434832 0.196651
Si Si6 0.571936 0.751330 0.705527
O O1 0.219517 0.500000 0.500000
O O2 0.196609 0.668021 0.533312
O O3 0.168315 0.547555 0.680383
O O4 0.284616 0.578978 0.642248
O O5 0.788008 0.234916 0.157697
O O6 0.799921 0.126141 0.312975
O O7 0.849813 0.172488 0.488004
O O8 0.896014 0.299681 0.603648
O O9 0.117276 0.480463 0.864030
O O10 0.091128 0.308800 0.809915
O O11 0.894398 0.346509 0.203476
O O12 0.500000 0.742982 0.696670
#
# Coordination Sequence:
#
# PCOD9480580 Si02
#       6
#    16   8  16  16  16  16
#     4  11  23  42  70 106 146 177 228 299 374 449
#     4  10  22  36  64 108 140 170 226 286 358 456
#     4  11  24  41  70 102 145 188 230 289 376 430
#     4  11  23  43  71 100 141 186 231 295 376 429
#     4  11  25  43  68 108 141 179 239 301 363 439
#     4  11  27  47  68 100 141 192 256 300 342 422
#
# _framework density 21.834527000000001
#
# number of rings (size 3 to 8) (size 9 to 14) (size 15 to 20)
#    0.000    1.091    1.818    4.909   10.182    1.455 
#    0.000    0.909    0.000    2.182    0.000    0.000 
#    0.000    0.000    0.000    0.000    0.000    0.000 
#
# Total GULP energy -245855.833218 kJ/mol
# GULP energy per Si atom -5587.632573 kJ/mol
# Density = 2.178483 g / cm^3
# Si number density = 21.834527 Si / 1000 Ang^3
#
#
#
# Elastic Constant Matrix: (Units=GPa)
#
#
# Indices 1 2 3 4 5 6 
#
# 1 138.3341 29.9054 34.0997 0.0000 0.0000 0.0000
# 2 29.9054 131.9896 27.5215 0.0000 0.0000 0.0000
# 3 34.0997 27.5215 121.7146 0.0000 0.0000 0.0000
# 4 0.0000 0.0000 0.0000 19.6728 0.0000 0.0000
# 5 0.0000 0.0000 0.0000 0.0000 20.6767 0.0000
# 6 0.0000 0.0000 0.0000 0.0000 0.0000 15.0896
#
#
#
# Elastic Compliance Matrix: (Units=1/GPa)
#
#
# Indices 1 2 3 4 5 6 
#
# 1 0.008009 -0.001413 -0.001924 0.000000 0.000000 0.000000
# 2 -0.001413 0.008201 -0.001458 0.000000 0.000000 0.000000
# 3 -0.001924 -0.001458 0.009085 0.000000 0.000000 0.000000
# 4 0.000000 0.000000 0.000000 0.050832 0.000000 0.000000
# 5 0.000000 0.000000 0.000000 0.000000 0.048364 0.000000
# 6 0.000000 0.000000 0.000000 0.000000 0.000000 0.066271
#
#
# Mechanical properties :
#
#
# Convention : Reuss Voigt Hill
#
# Bulk Modulus (GPa) = 63.68420 63.89906 63.79163
# Shear Modulus (GPa) = 24.32068 31.12191 27.72129
#
# Velocity S-wave (km/s) = 3.34108 3.77948 3.56702
# Velocity P-wave (km/s) = 6.64182 6.95519 6.80031
#
# Compressibility (1/GPa) = 0.01570248
#
# Stress axis : x y z
#
# Youngs Moduli (GPa) = 124.86376 121.94137 110.07435
#
# Poissons Ratio (x) = 0.17235 0.21180
# Poissons Ratio (y) = 0.17648 0.16052
# Poissons Ratio (z) = 0.24026 0.17783
#
# Static dielectric constant tensor:
#      x y z
#    x 1.757080 0.000000 0.000000 
#    y 0.000000 1.934590 0.000000 
#    z 0.000000 0.000000 1.849840 
# 
# From -- ./inp_files/18196.got.cif
#   From: 2010.05.17/outbox.cif.g08.bks.cpg/sg64_10_cif.got.tgz:18196.got - 2010.06.03 16:29:19.
