data_PCOD9480893
_publ_section_title
;
Structure prediction by ZEFSAII (Michael W. Deem and Ramdas Pophale) SiO2 
 PCOD9480893
Probable space group: C M C A
;
_chemical_formula_sum "Si O2"
_cell_formula_units_Z 64
_cell_length_a 18.967512
_cell_length_b 8.968154
_cell_length_c 16.431542
_cell_angle_alpha 90.000000
_cell_angle_beta 90.000000
_cell_angle_gamma 90.000000
_cell_volume 2795.063932
_symmetry_space_group_name_H-M "C M C A"
_symmetry_group_IT_number 64
_symmetry_cell_setting 'orthorhombic'
loop_
_space_group_symop_operation_xyz
x,y,z
-x,1/2-y,1/2+z
x,-y,-z
-x,1/2+y,1/2-z
-x,-y,-z
x,1/2+y,1/2-z
-x,y,z
x,1/2-y,1/2+z
1/2+x,1/2+y,z
1/2-x,-y,1/2+z
1/2+x,1/2-y,-z
1/2-x,y,1/2-z
1/2-x,1/2-y,-z
1/2+x,y,1/2-z
1/2-x,1/2+y,z
1/2+x,-y,1/2+z
loop_
_atom_site_type_symbol
_atom_site_label
_atom_site_fract_x
_atom_site_fract_y
_atom_site_fract_z
Si Si1 0.873743 0.864052 0.054848
Si Si2 0.000000 0.687702 0.090864
Si Si3 0.000000 0.653690 0.892442
Si Si4 0.343023 0.692151 0.603559
Si Si5 0.255443 0.534630 0.155406
O O1 0.813911 0.939616 0.107690
O O2 0.931393 0.783854 0.109401
O O3 0.843537 0.745823 0.989945
O O4 0.905075 0.000000 0.000000
O O5 0.000000 0.522592 0.125134
O O6 0.000000 0.672691 0.991311
O O7 0.076419 0.714887 0.865600
O O8 0.317600 0.522632 0.615745
O O9 0.285550 0.798630 0.646006
O O10 0.250000 0.501044 0.250000
#
# Coordination Sequence:
#
# PCOD9480893 Si02
#       5
#    16   8   8  16  16
#     4   9  19  36  62  98 128 165 208 263 317 381
#     4   9  17  34  63  95 129 157 207 262 320 364
#     4   9  20  38  61  91 126 160 207 266 309 371
#     4  10  22  41  63  89 127 165 210 261 319 379
#     4  11  23  39  62  90 126 165 211 261 317 377
#
# _framework density 22.897507000000001
#
# number of rings (size 3 to 8) (size 9 to 14) (size 15 to 20)
#    0.000    2.250    0.000    1.875    3.500    3.000 
#    9.000    2.500    0.000    0.000    0.000    0.000 
#    0.000    0.000    0.000    0.000    0.000    0.000 
#
# Total GULP energy -178695.883381 kJ/mol
# GULP energy per Si atom -5584.246356 kJ/mol
# Density = 2.284539 g / cm^3
# Si number density = 22.897507 Si / 1000 Ang^3
#
#
#
# Elastic Constant Matrix: (Units=GPa)
#
#
# Indices 1 2 3 4 5 6 
#
# 1 90.1975 50.9697 -2.7107 0.0000 0.0000 0.0000
# 2 50.9697 92.6120 22.8790 0.0000 0.0000 0.0000
# 3 -2.7107 22.8790 42.8249 0.0000 0.0000 0.0000
# 4 0.0000 0.0000 0.0000 8.7443 0.0000 0.0000
# 5 0.0000 0.0000 0.0000 0.0000 -17.4942 0.0000
# 6 0.0000 0.0000 0.0000 0.0000 0.0000 68.7962
#
#
#
# Elastic Compliance Matrix: (Units=1/GPa)
#
#
# Indices 1 2 3 4 5 6 
#
# 1 0.017906 -0.011676 0.007371 0.000000 0.000000 0.000000
# 2 -0.011676 0.020053 -0.011452 0.000000 0.000000 0.000000
# 3 0.007371 -0.011452 0.029936 0.000000 0.000000 0.000000
# 4 0.000000 0.000000 0.000000 0.114360 0.000000 0.000000
# 5 0.000000 0.000000 0.000000 0.000000 -0.057162 0.000000
# 6 0.000000 0.000000 0.000000 0.000000 0.000000 0.014536
#
#
# Mechanical properties :
#
#
# Convention : Reuss Voigt Hill
#
# Bulk Modulus (GPa) = 27.48679 40.87891 34.18285
# Shear Modulus (GPa) = 27.28226 22.30902 24.79564
#
# Velocity S-wave (km/s) = 3.45555 3.12476 3.29431
# Velocity P-wave (km/s) = 5.28691 5.55973 5.42504
#
# Compressibility (1/GPa) = 0.03638111
#
# Stress axis : x y z
#
# Youngs Moduli (GPa) = 55.84672 49.86857 33.40494
#
# Poissons Ratio (x) = 0.58225 -0.24623
# Poissons Ratio (y) = 0.65205 0.38256
# Poissons Ratio (z) = -0.41165 0.57110
#
# Static dielectric constant tensor:
#      x y z
#    x 1.886430 0.000000 0.000000 
#    y 0.000000 1.935340 0.000000 
#    z 0.000000 0.000000 1.823270 
# 
# From -- ./inp_files/33902.got.cif
#   From: 2010.05.17/outbox.cif.g08.bks.cpg/sg64_17_cif.got.tgz:33902.got - 2010.06.03 16:29:19.
