data_PCOD9480884
_publ_section_title
;
Structure prediction by ZEFSAII (Michael W. Deem and Ramdas Pophale) SiO2 
 PCOD9480884
Probable space group: C M C A
;
_chemical_formula_sum "Si O2"
_cell_formula_units_Z 116
_cell_length_a 16.939706
_cell_length_b 24.691652
_cell_length_c 14.339343
_cell_angle_alpha 90.000000
_cell_angle_beta 90.000000
_cell_angle_gamma 90.000000
_cell_volume 5997.707325
_symmetry_space_group_name_H-M "C M C A"
_symmetry_group_IT_number 64
_symmetry_cell_setting 'orthorhombic'
loop_
_space_group_symop_operation_xyz
x,y,z
-x,1/2-y,1/2+z
x,-y,-z
-x,1/2+y,1/2-z
-x,-y,-z
x,1/2+y,1/2-z
-x,y,z
x,1/2-y,1/2+z
1/2+x,1/2+y,z
1/2-x,-y,1/2+z
1/2+x,1/2-y,-z
1/2-x,y,1/2-z
1/2-x,1/2-y,-z
1/2+x,y,1/2-z
1/2-x,1/2+y,z
1/2+x,-y,1/2+z
loop_
_atom_site_type_symbol
_atom_site_label
_atom_site_fract_x
_atom_site_fract_y
_atom_site_fract_z
Si Si1 0.223528 0.398122 0.546837
Si Si2 0.352808 0.474799 0.635941
Si Si3 0.000000 0.000000 0.500000
Si Si4 0.307711 0.785157 0.934923
Si Si5 0.592400 0.725243 0.260904
Si Si6 0.285370 0.094635 0.848943
Si Si7 0.590749 0.686349 0.601442
Si Si8 0.907160 0.399375 0.695228
O O1 0.284723 0.443668 0.579816
O O2 0.261645 0.341269 0.579920
O O3 0.223886 0.400133 0.434670
O O4 0.141305 0.404766 0.599548
O O5 0.430472 0.479229 0.572748
O O6 0.320771 0.534548 0.657335
O O7 0.371693 0.440522 0.728697
O O8 0.342428 0.761615 0.839454
O O9 0.250000 0.750000 0.000000
O O10 0.384330 0.796806 0.998044
O O11 0.500000 0.732624 0.290711
O O12 0.604439 0.763909 0.171967
O O13 0.601736 0.662268 0.232894
O O14 0.250000 0.109769 0.750000
O O15 0.354952 0.136033 0.872970
O O16 0.500000 0.670434 0.605834
O O17 0.000000 0.409569 0.683030
#
# Coordination Sequence:
#
# PCOD9480884 Si02
#       8
#    16  16   4  16  16  16  16  16
#     4  11  23  41  63  97 126 169 213 272 330 381
#     4  12  23  41  68  98 131 165 215 277 330 387
#     4  12  24  40  68 108 128 164 220 272 336 394
#     4  11  23  36  64  92 123 169 212 264 323 393
#     4  10  22  41  61  92 128 167 217 271 325 385
#     4  11  25  42  64  90 129 172 215 261 326 400
#     4  10  24  41  61  89 129 169 211 268 322 389
#     4  11  23  40  68  97 129 168 218 274 329 386
#
# _framework density 19.340722
#
# number of rings (size 3 to 8) (size 9 to 14) (size 15 to 20)
#    0.000    1.103    3.448    2.483    4.828    1.103 
#    0.000    1.379    0.000    2.483    0.000    0.000 
#    0.000    0.000    0.000    0.000    0.000    0.000 
#
# Total GULP energy -323711.310323 kJ/mol
# GULP energy per Si atom -5581.229488 kJ/mol
# Density = 1.929670 g / cm^3
# Si number density = 19.340722 Si / 1000 Ang^3
#
#
#
# Elastic Constant Matrix: (Units=GPa)
#
#
# Indices 1 2 3 4 5 6 
#
# 1 46.0626 -16.8671 38.3816 0.0000 0.0000 0.0000
# 2 -16.8671 42.4317 -8.7412 0.0000 0.0000 0.0000
# 3 38.3816 -8.7412 102.4747 0.0000 0.0000 0.0000
# 4 0.0000 0.0000 0.0000 25.8998 0.0000 0.0000
# 5 0.0000 0.0000 0.0000 0.0000 38.6002 0.0000
# 6 0.0000 0.0000 0.0000 0.0000 0.0000 1.2728
#
#
#
# Elastic Compliance Matrix: (Units=1/GPa)
#
#
# Indices 1 2 3 4 5 6 
#
# 1 0.036691 0.011964 -0.012722 0.000000 0.000000 0.000000
# 2 0.011964 0.027890 -0.002102 0.000000 0.000000 0.000000
# 3 -0.012722 -0.002102 0.014344 0.000000 0.000000 0.000000
# 4 0.000000 0.000000 0.000000 0.038610 0.000000 0.000000
# 5 0.000000 0.000000 0.000000 0.000000 0.025907 0.000000
# 6 0.000000 0.000000 0.000000 0.000000 0.000000 0.785683
#
#
# Mechanical properties :
#
#
# Convention : Reuss Voigt Hill
#
# Bulk Modulus (GPa) = 13.66007 24.05728 18.85867
# Shear Modulus (GPa) = 5.21242 25.03429 15.12336
#
# Velocity S-wave (km/s) = 1.64344 3.60166 2.79936
# Velocity P-wave (km/s) = 3.26793 5.45542 4.49672
#
# Compressibility (1/GPa) = 0.07320609
#
# Stress axis : x y z
#
# Youngs Moduli (GPa) = 27.25448 35.85485 69.71475
#
# Poissons Ratio (x) = -0.42898 0.88691
# Poissons Ratio (y) = -0.32608 0.14655
# Poissons Ratio (z) = 0.34673 0.07537
#
# Static dielectric constant tensor:
#      x y z
#    x 1.663400 0.000000 0.000000 
#    y 0.000000 1.681030 0.000000 
#    z 0.000000 0.000000 1.687420 
# 
# From -- ./inp_files/16466.got.cif
#   From: 2010.05.17/outbox.cif.g08.bks.cpg/sg64_9_cif.got.tgz:16466.got - 2010.06.03 16:29:19.
