data_PCOD9480278
_publ_section_title
;
Structure prediction by ZEFSAII (Michael W. Deem and Ramdas Pophale) SiO2 
 PCOD9480278
Probable space group: C M C A
;
_chemical_formula_sum "Si O2"
_cell_formula_units_Z 88
_cell_length_a 27.683084
_cell_length_b 5.343277
_cell_length_c 25.590851
_cell_angle_alpha 90.000000
_cell_angle_beta 90.000000
_cell_angle_gamma 90.000000
_cell_volume 3785.357377
_symmetry_space_group_name_H-M "C M C A"
_symmetry_group_IT_number 64
_symmetry_cell_setting 'orthorhombic'
loop_
_space_group_symop_operation_xyz
x,y,z
-x,1/2-y,1/2+z
x,-y,-z
-x,1/2+y,1/2-z
-x,-y,-z
x,1/2+y,1/2-z
-x,y,z
x,1/2-y,1/2+z
1/2+x,1/2+y,z
1/2-x,-y,1/2+z
1/2+x,1/2-y,-z
1/2-x,y,1/2-z
1/2-x,1/2-y,-z
1/2+x,y,1/2-z
1/2-x,1/2+y,z
1/2+x,-y,1/2+z
loop_
_atom_site_type_symbol
_atom_site_label
_atom_site_fract_x
_atom_site_fract_y
_atom_site_fract_z
Si Si1 0.000000 0.250267 0.534774
Si Si2 0.944253 0.926516 0.269642
Si Si3 0.414621 0.262852 0.381804
Si Si4 0.731229 0.962005 0.439192
Si Si5 0.647301 0.262962 0.118690
Si Si6 0.305398 0.819993 0.772005
O O1 0.000000 0.500000 0.500000
O O2 0.047262 0.250031 0.571429
O O3 0.000000 0.000000 0.500000
O O4 0.922565 0.703176 0.235027
O O5 0.941621 0.830580 0.328243
O O6 0.000000 0.963368 0.252883
O O7 0.378080 0.496376 0.389163
O O8 0.389047 0.994981 0.374203
O O9 0.765421 0.742221 0.416127
O O10 0.679145 0.842123 0.431047
O O11 0.742802 0.000000 0.500000
O O12 0.684197 0.249449 0.168104
O O13 0.326504 0.594136 0.737849
O O14 0.250000 0.843425 0.750000
#
# Coordination Sequence:
#
# PCOD9480278 Si02
#       6
#     8  16  16  16  16  16
#     4  12  28  52  78 102 144 198 238 302 386 436
#     4  10  21  39  67  95 132 182 221 275 340 408
#     4  12  26  46  68 109 140 182 245 291 353 437
#     4  10  23  43  68  94 126 172 227 285 356 420
#     4  12  26  40  72 102 141 183 234 300 344 418
#     4  10  23  40  62  97 140 194 233 277 348 430
#
# _framework density 23.247472999999999
#
# number of rings (size 3 to 8) (size 9 to 14) (size 15 to 20)
#    0.000    1.091    0.909    4.364    5.091    6.545 
#    0.000    0.000    0.000    0.000    0.000    0.000 
#    0.000    0.000    0.000    0.000    0.000    0.000 
#
# Total GULP energy -245903.985944 kJ/mol
# GULP energy per Si atom -5588.726953 kJ/mol
# Density = 2.319456 g / cm^3
# Si number density = 23.247473 Si / 1000 Ang^3
#
#
#
# Elastic Constant Matrix: (Units=GPa)
#
#
# Indices 1 2 3 4 5 6 
#
# 1 101.2397 54.0247 38.2119 0.0000 0.0000 0.0000
# 2 54.0247 190.3341 53.0814 0.0000 0.0000 0.0000
# 3 38.2119 53.0814 81.2369 0.0000 0.0000 0.0000
# 4 0.0000 0.0000 0.0000 37.5481 0.0000 0.0000
# 5 0.0000 0.0000 0.0000 0.0000 17.8719 0.0000
# 6 0.0000 0.0000 0.0000 0.0000 0.0000 45.8327
#
#
#
# Elastic Compliance Matrix: (Units=1/GPa)
#
#
# Indices 1 2 3 4 5 6 
#
# 1 0.012847 -0.002398 -0.004476 0.000000 0.000000 0.000000
# 2 -0.002398 0.006872 -0.003362 0.000000 0.000000 0.000000
# 3 -0.004476 -0.003362 0.016612 0.000000 0.000000 0.000000
# 4 0.000000 0.000000 0.000000 0.026633 0.000000 0.000000
# 5 0.000000 0.000000 0.000000 0.000000 0.055954 0.000000
# 6 0.000000 0.000000 0.000000 0.000000 0.000000 0.021818
#
#
# Mechanical properties :
#
#
# Convention : Reuss Voigt Hill
#
# Bulk Modulus (GPa) = 63.05857 73.71628 68.38742
# Shear Modulus (GPa) = 30.03103 35.41673 32.72388
#
# Velocity S-wave (km/s) = 3.59806 3.90739 3.75591
# Velocity P-wave (km/s) = 6.66672 7.22047 6.94911
#
# Compressibility (1/GPa) = 0.01585827
#
# Stress axis : x y z
#
# Youngs Moduli (GPa) = 77.84152 145.51043 60.19734
#
# Poissons Ratio (x) = 0.34896 0.26943
# Poissons Ratio (y) = 0.18668 0.20241
# Poissons Ratio (z) = 0.34840 0.48927
#
# Static dielectric constant tensor:
#      x y z
#    x 1.581480 0.000000 0.000000 
#    y 0.000000 1.952340 0.000000 
#    z 0.000000 0.000000 1.835750 
# 
# From -- ./inp_files/47104.got.cif
#   From: 2010.05.17/outbox.cif.g08.bks.cpg/sg64_24_cif.got.tgz:47104.got - 2010.06.03 16:29:19.
