data_PCOD9480877
_publ_section_title
;
Structure prediction by ZEFSAII (Michael W. Deem and Ramdas Pophale) SiO2 
 PCOD9480877
Probable space group: C M C A
;
_chemical_formula_sum "Si O2"
_cell_formula_units_Z 96
_cell_length_a 11.446568
_cell_length_b 19.926783
_cell_length_c 16.475628
_cell_angle_alpha 90.000000
_cell_angle_beta 90.000000
_cell_angle_gamma 90.000000
_cell_volume 3757.979975
_symmetry_space_group_name_H-M "C M C A"
_symmetry_group_IT_number 64
_symmetry_cell_setting 'orthorhombic'
loop_
_space_group_symop_operation_xyz
x,y,z
-x,1/2-y,1/2+z
x,-y,-z
-x,1/2+y,1/2-z
-x,-y,-z
x,1/2+y,1/2-z
-x,y,z
x,1/2-y,1/2+z
1/2+x,1/2+y,z
1/2-x,-y,1/2+z
1/2+x,1/2-y,-z
1/2-x,y,1/2-z
1/2-x,1/2-y,-z
1/2+x,y,1/2-z
1/2-x,1/2+y,z
1/2+x,-y,1/2+z
loop_
_atom_site_type_symbol
_atom_site_label
_atom_site_fract_x
_atom_site_fract_y
_atom_site_fract_z
Si Si1 0.874132 0.435646 0.381843
Si Si2 0.626203 0.081249 0.335540
Si Si3 0.375487 0.405725 0.412050
Si Si4 0.875664 0.224311 0.475592
Si Si5 0.374685 0.681658 0.753200
Si Si6 0.872530 0.628593 0.152874
O O1 0.872829 0.500819 0.323492
O O2 0.749605 0.439861 0.425665
O O3 0.876079 0.366138 0.332264
O O4 0.000000 0.439604 0.426336
O O5 0.500000 0.097734 0.374687
O O6 0.748682 0.099230 0.377190
O O7 0.627619 0.117745 0.248929
O O8 0.500000 0.443418 0.416379
O O9 0.382099 0.344984 0.475111
O O10 0.371472 0.370709 0.322978
O O11 0.750000 0.250000 0.500000
O O12 0.872868 0.203997 0.381336
O O13 0.000000 0.260751 0.491921
O O14 0.500000 0.717480 0.744661
O O15 0.250000 0.718377 0.750000
O O16 0.000000 0.600466 0.126430
#
# Coordination Sequence:
#
# PCOD9480877 Si02
#       6
#    16  16  16  16  16  16
#     4   9  17  29  50  81 113 148 182 212 260 320
#     4   9  18  32  55  84 113 145 182 223 268 323
#     4   9  18  31  51  78 107 139 181 224 267 325
#     4  10  22  41  61  80 105 144 190 236 286 335
#     4   8  14  24  42  68 101 135 169 207 247 298
#     4   9  19  34  55  82 109 140 184 232 276 330
#
# _framework density 25.545639000000001
#
# number of rings (size 3 to 8) (size 9 to 14) (size 15 to 20)
#    0.000    3.000    0.000    0.000    7.000    2.000 
#    0.000    0.833   11.000    5.000    0.000    0.000 
#    0.000    0.000    0.000    0.000    0.000    0.000 
#
# Total GULP energy -267417.221784 kJ/mol
# GULP energy per Si atom -5571.192120 kJ/mol
# Density = 2.548750 g / cm^3
# Si number density = 25.545639 Si / 1000 Ang^3
#
#
#
# Elastic Constant Matrix: (Units=GPa)
#
#
# Indices 1 2 3 4 5 6 
#
# 1 401.3509 46.3022 29.7969 0.0000 0.0000 0.0000
# 2 46.3022 46.8842 18.1659 0.0000 0.0000 0.0000
# 3 29.7969 18.1659 48.5467 0.0000 0.0000 0.0000
# 4 0.0000 0.0000 0.0000 -144.5826 0.0000 0.0000
# 5 0.0000 0.0000 0.0000 0.0000 -3.4492 0.0000
# 6 0.0000 0.0000 0.0000 0.0000 0.0000 21.2458
#
#
#
# Elastic Compliance Matrix: (Units=1/GPa)
#
#
# Indices 1 2 3 4 5 6 
#
# 1 0.002839 -0.002490 -0.000811 0.000000 0.000000 0.000000
# 2 -0.002490 0.027129 -0.008624 0.000000 0.000000 0.000000
# 3 -0.000811 -0.008624 0.024323 0.000000 0.000000 0.000000
# 4 0.000000 0.000000 0.000000 -0.006916 0.000000 0.000000
# 5 0.000000 0.000000 0.000000 0.000000 -0.289925 0.000000
# 6 0.000000 0.000000 0.000000 0.000000 0.000000 0.047068
#
#
# Mechanical properties :
#
#
# Convention : Reuss Voigt Hill
#
# Bulk Modulus (GPa) = 32.84786 76.14576 54.49681
# Shear Modulus (GPa) = -30.96241 1.47727 -14.74257
#
# Velocity S-wave (km/s) = -3.48522 0.76128 -2.40491
# Velocity P-wave (km/s) = 1.81913 5.53581 3.69702
#
# Compressibility (1/GPa) = 0.03044339
#
# Stress axis : x y z
#
# Youngs Moduli (GPa) = 352.23673 36.86077 41.11272
#
# Poissons Ratio (x) = 0.09177 0.03334
# Poissons Ratio (y) = 0.87691 0.35454
# Poissons Ratio (z) = 0.28564 0.31787
#
# Static dielectric constant tensor:
#      x y z
#    x 2.201830 0.000000 0.000000 
#    y 0.000000 1.980520 0.000000 
#    z 0.000000 0.000000 2.040930 
# 
# From -- ./inp_files/31094.got.cif
#   From: 2010.05.17/outbox.cif.g08.bks.cpg/sg64_16_cif.got.tgz:31094.got - 2010.06.03 16:29:19.
