data_PCOD9480020
_publ_section_title
;
Structure prediction by ZEFSAII (Michael W. Deem and Ramdas Pophale) SiO2 
 PCOD9480020
Probable space group: C M C A
;
_chemical_formula_sum "Si O2"
_cell_formula_units_Z 72
_cell_length_a 29.115217
_cell_length_b 15.029789
_cell_length_c 6.793483
_cell_angle_alpha 90.000000
_cell_angle_beta 90.000000
_cell_angle_gamma 90.000000
_cell_volume 2972.798053
_symmetry_space_group_name_H-M "C M C A"
_symmetry_group_IT_number 64
_symmetry_cell_setting 'orthorhombic'
loop_
_space_group_symop_operation_xyz
x,y,z
-x,1/2-y,1/2+z
x,-y,-z
-x,1/2+y,1/2-z
-x,-y,-z
x,1/2+y,1/2-z
-x,y,z
x,1/2-y,1/2+z
1/2+x,1/2+y,z
1/2-x,-y,1/2+z
1/2+x,1/2-y,-z
1/2-x,y,1/2-z
1/2-x,1/2-y,-z
1/2+x,y,1/2-z
1/2-x,1/2+y,z
1/2+x,-y,1/2+z
loop_
_atom_site_type_symbol
_atom_site_label
_atom_site_fract_x
_atom_site_fract_y
_atom_site_fract_z
Si Si1 0.854165 0.669001 0.370525
Si Si2 0.758524 0.143050 0.021480
Si Si3 0.550345 0.910261 0.628493
Si Si4 0.162371 0.625146 0.916524
Si Si5 0.911792 0.000000 0.500000
O O1 0.813082 0.629693 0.506382
O O2 0.905818 0.648278 0.431358
O O3 0.846437 0.774314 0.349713
O O4 0.846027 0.630762 0.153430
O O5 0.750000 0.121237 0.250000
O O6 0.716319 0.101272 0.900834
O O7 0.750000 0.250000 0.000000
O O8 0.500000 0.868239 0.604162
O O9 0.551016 0.000000 0.500000
O O10 0.558186 0.939290 0.855829
O O11 0.122640 0.557067 0.860035
#
# Coordination Sequence:
#
# PCOD9480020 Si02
#       5
#    16  16  16  16   8
#     4   9  18  33  55  79 110 146 189 231 277 338
#     4   8  14  28  49  75 109 142 176 221 271 330
#     4  10  22  40  59  80 110 148 189 238 288 332
#     4   9  18  32  56  82 112 147 183 229 283 345
#     4  10  21  38  60  84 116 148 181 236 296 340
#
# _framework density 24.219605000000001
#
# number of rings (size 3 to 8) (size 9 to 14) (size 15 to 20)
#    0.000    2.889    0.000    0.333    3.111    0.000 
#    2.000    5.556    0.000    0.000    0.000    0.000 
#    0.000    0.000    0.000    0.000    0.000    0.000 
#
# Total GULP energy -201067.335471 kJ/mol
# GULP energy per Si atom -5585.203763 kJ/mol
# Density = 2.416448 g / cm^3
# Si number density = 24.219605 Si / 1000 Ang^3
#
#
#
# Elastic Constant Matrix: (Units=GPa)
#
#
# Indices 1 2 3 4 5 6 
#
# 1 256.0939 31.2819 24.4891 0.0000 0.0000 0.0000
# 2 31.2819 47.3743 -0.3437 0.0000 0.0000 0.0000
# 3 24.4891 -0.3437 56.9780 0.0000 0.0000 0.0000
# 4 0.0000 0.0000 0.0000 21.2727 0.0000 0.0000
# 5 0.0000 0.0000 0.0000 0.0000 27.2971 0.0000
# 6 0.0000 0.0000 0.0000 0.0000 0.0000 53.5102
#
#
#
# Elastic Compliance Matrix: (Units=1/GPa)
#
#
# Indices 1 2 3 4 5 6 
#
# 1 0.004450 -0.002952 -0.001930 0.000000 0.000000 0.000000
# 2 -0.002952 0.023068 0.001408 0.000000 0.000000 0.000000
# 3 -0.001930 0.001408 0.018389 0.000000 0.000000 0.000000
# 4 0.000000 0.000000 0.000000 0.047009 0.000000 0.000000
# 5 0.000000 0.000000 0.000000 0.000000 0.036634 0.000000
# 6 0.000000 0.000000 0.000000 0.000000 0.000000 0.018688
#
#
# Mechanical properties :
#
#
# Convention : Reuss Voigt Hill
#
# Bulk Modulus (GPa) = 25.66893 52.36676 39.01784
# Shear Modulus (GPa) = 29.73127 40.75059 35.24093
#
# Velocity S-wave (km/s) = 3.50747 4.10633 3.81866
# Velocity P-wave (km/s) = 5.19852 6.64464 5.96556
#
# Compressibility (1/GPa) = 0.03895760
#
# Stress axis : x y z
#
# Youngs Moduli (GPa) = 224.71607 43.34965 54.38085
#
# Poissons Ratio (x) = 0.12799 0.10498
# Poissons Ratio (y) = 0.66346 -0.07658
# Poissons Ratio (z) = 0.43380 -0.06104
#
# Static dielectric constant tensor:
#      x y z
#    x 2.002490 0.000000 0.000000 
#    y 0.000000 1.803170 0.000000 
#    z 0.000000 0.000000 2.085900 
# 
# From -- ./inp_files/9120.got.cif
#   From: 2010.05.17/outbox.cif.g08.bks.cpg/sg64_5_cif.got.tgz:9120.got - 2010.06.03 16:29:19.
