data_PCOD9480941
_publ_section_title
;
Structure prediction by ZEFSAII (Michael W. Deem and Ramdas Pophale) SiO2 
 PCOD9480941
Probable space group: C M C A
;
_chemical_formula_sum "Si O2"
_cell_formula_units_Z 112
_cell_length_a 24.136183
_cell_length_b 13.693985
_cell_length_c 12.746056
_cell_angle_alpha 90.000000
_cell_angle_beta 90.000000
_cell_angle_gamma 90.000000
_cell_volume 4212.833159
_symmetry_space_group_name_H-M "C M C A"
_symmetry_group_IT_number 64
_symmetry_cell_setting 'orthorhombic'
loop_
_space_group_symop_operation_xyz
x,y,z
-x,1/2-y,1/2+z
x,-y,-z
-x,1/2+y,1/2-z
-x,-y,-z
x,1/2+y,1/2-z
-x,y,z
x,1/2-y,1/2+z
1/2+x,1/2+y,z
1/2-x,-y,1/2+z
1/2+x,1/2-y,-z
1/2-x,y,1/2-z
1/2-x,1/2-y,-z
1/2+x,y,1/2-z
1/2-x,1/2+y,z
1/2+x,-y,1/2+z
loop_
_atom_site_type_symbol
_atom_site_label
_atom_site_fract_x
_atom_site_fract_y
_atom_site_fract_z
Si Si1 0.061571 0.871904 0.693605
Si Si2 0.409223 0.814070 0.034514
Si Si3 0.800322 0.682980 0.031857
Si Si4 0.310325 0.157120 0.690943
Si Si5 0.272611 0.457379 0.868218
Si Si6 0.106254 0.591412 0.419618
Si Si7 0.438969 0.641704 0.753548
O O1 0.085433 0.869803 0.575754
O O2 0.084118 0.921700 0.800207
O O3 0.059826 0.757472 0.722456
O O4 0.000000 0.909860 0.680707
O O5 0.417818 0.694872 0.033982
O O6 0.441196 0.864529 0.127596
O O7 0.344107 0.822392 0.059952
O O8 0.823003 0.742333 0.132259
O O9 0.778986 0.580498 0.068284
O O10 0.750000 0.750000 0.000000
O O11 0.250000 0.174205 0.750000
O O12 0.373031 0.119464 0.722196
O O13 0.291118 0.068134 0.617065
O O14 0.250000 0.448110 0.750000
O O15 0.327927 0.397892 0.897223
O O16 0.096028 0.500000 0.500000
O O17 0.500000 0.606058 0.796886
#
# Coordination Sequence:
#
# PCOD9480941 Si02
#       7
#    16  16  16  16  16  16  16
#     4  10  22  41  67 101 142 199 255 314 389 467
#     4  11  21  40  71 108 147 200 263 316 395 482
#     4  12  22  37  67 103 147 201 248 315 396 466
#     4  11  24  42  67 106 150 203 259 324 393 470
#     4  11  25  41  66 105 154 196 249 319 384 467
#     4  11  24  43  70 108 152 192 259 331 395 472
#     4  10  22  42  70 105 147 200 262 320 385 473
#
# _framework density 26.585435
#
# number of rings (size 3 to 8) (size 9 to 14) (size 15 to 20)
#    0.000    1.143    2.857    3.429    4.000    0.857 
#    0.000    0.714    0.000    0.000    0.000   10.000 
#    0.000    0.000    0.000    0.000    0.000    0.000 
#
# Total GULP energy -312221.519157 kJ/mol
# GULP energy per Si atom -5575.384271 kJ/mol
# Density = 2.652493 g / cm^3
# Si number density = 26.585435 Si / 1000 Ang^3
#
#
#
# Elastic Constant Matrix: (Units=GPa)
#
#
# Indices 1 2 3 4 5 6 
#
# 1 171.2657 30.0485 45.7858 0.0000 0.0000 0.0000
# 2 30.0485 103.3942 22.4551 0.0000 0.0000 0.0000
# 3 45.7858 22.4551 116.7941 0.0000 0.0000 0.0000
# 4 0.0000 0.0000 0.0000 20.2883 0.0000 0.0000
# 5 0.0000 0.0000 0.0000 0.0000 38.8446 0.0000
# 6 0.0000 0.0000 0.0000 0.0000 0.0000 16.8736
#
#
#
# Elastic Compliance Matrix: (Units=1/GPa)
#
#
# Indices 1 2 3 4 5 6 
#
# 1 0.006722 -0.001441 -0.002358 0.000000 0.000000 0.000000
# 2 -0.001441 0.010402 -0.001435 0.000000 0.000000 0.000000
# 3 -0.002358 -0.001435 0.009762 0.000000 0.000000 0.000000
# 4 0.000000 0.000000 0.000000 0.049290 0.000000 0.000000
# 5 0.000000 0.000000 0.000000 0.000000 0.025744 0.000000
# 6 0.000000 0.000000 0.000000 0.000000 0.000000 0.059264
#
#
# Mechanical properties :
#
#
# Convention : Reuss Voigt Hill
#
# Bulk Modulus (GPa) = 60.90900 65.33696 63.12298
# Shear Modulus (GPa) = 28.22854 34.74561 31.48707
#
# Velocity S-wave (km/s) = 3.26207 3.61909 3.44521
# Velocity P-wave (km/s) = 6.09496 6.48793 6.29451
#
# Compressibility (1/GPa) = 0.01641794
#
# Stress axis : x y z
#
# Youngs Moduli (GPa) = 148.76086 96.13285 102.43404
#
# Poissons Ratio (x) = 0.13857 0.24155
# Poissons Ratio (y) = 0.21444 0.14698
# Poissons Ratio (z) = 0.35079 0.13794
#
# Static dielectric constant tensor:
#      x y z
#    x 2.192660 0.000000 0.000000 
#    y 0.000000 2.084920 0.000000 
#    z 0.000000 0.000000 2.239160 
# 
# From -- ./inp_files/27450.got.cif
#   From: 2010.05.17/outbox.cif.g08.bks.cpg/sg64_14_cif.got.tgz:27450.got - 2010.06.03 16:29:19.
