data_PCOD9480963
_publ_section_title
;
Structure prediction by ZEFSAII (Michael W. Deem and Ramdas Pophale) SiO2 
 PCOD9480963
Probable space group: C M C A
;
_chemical_formula_sum "Si O2"
_cell_formula_units_Z 56
_cell_length_a 14.032763
_cell_length_b 20.492172
_cell_length_c 6.997612
_cell_angle_alpha 90.000000
_cell_angle_beta 90.000000
_cell_angle_gamma 90.000000
_cell_volume 2012.245854
_symmetry_space_group_name_H-M "C M C A"
_symmetry_group_IT_number 64
_symmetry_cell_setting 'orthorhombic'
loop_
_space_group_symop_operation_xyz
x,y,z
-x,1/2-y,1/2+z
x,-y,-z
-x,1/2+y,1/2-z
-x,-y,-z
x,1/2+y,1/2-z
-x,y,z
x,1/2-y,1/2+z
1/2+x,1/2+y,z
1/2-x,-y,1/2+z
1/2+x,1/2-y,-z
1/2-x,y,1/2-z
1/2-x,1/2-y,-z
1/2+x,y,1/2-z
1/2-x,1/2+y,z
1/2+x,-y,1/2+z
loop_
_atom_site_type_symbol
_atom_site_label
_atom_site_fract_x
_atom_site_fract_y
_atom_site_fract_z
Si Si1 0.364086 0.986281 0.776933
Si Si2 0.863115 0.341748 0.787613
Si Si3 0.500000 0.404339 0.103779
Si Si4 0.363401 0.305577 0.280952
O O1 0.250000 0.989583 0.750000
O O2 0.400311 0.912913 0.724682
O O3 0.417633 0.040863 0.659843
O O4 0.383141 0.000000 0.000000
O O5 0.750000 0.344700 0.750000
O O6 0.892270 0.270205 0.717415
O O7 0.882963 0.338137 0.014629
O O8 0.417659 0.346108 0.122457
O O9 0.250000 0.307452 0.250000
#
# Coordination Sequence:
#
# PCOD9480963 Si02
#       4
#    16  16   8  16
#     4  11  24  45  73  95 132 176 221 268 329 391
#     4  10  22  41  71  95 130 175 224 266 326 387
#     4  12  25  40  69  98 134 173 217 269 333 398
#     4  11  23  42  68  96 134 174 219 273 327 382
#
# _framework density 27.829599000000002
#
# number of rings (size 3 to 8) (size 9 to 14) (size 15 to 20)
#    0.000    1.143    2.857    4.714    0.000    2.286 
#    0.000    0.714    0.000    1.714    0.000    0.000 
#    0.000    0.000    0.000    0.000    0.000    0.000 
#
# Total GULP energy -156238.718146 kJ/mol
# GULP energy per Si atom -5579.954219 kJ/mol
# Density = 2.776626 g / cm^3
# Si number density = 27.829599 Si / 1000 Ang^3
#
#
#
# Elastic Constant Matrix: (Units=GPa)
#
#
# Indices 1 2 3 4 5 6 
#
# 1 217.0583 44.1650 -43.2096 0.0000 0.0000 0.0000
# 2 44.1650 313.9821 33.8128 0.0000 0.0000 0.0000
# 3 -43.2096 33.8128 106.5799 0.0000 0.0000 0.0000
# 4 0.0000 0.0000 0.0000 70.1811 0.0000 0.0000
# 5 0.0000 0.0000 0.0000 0.0000 -292.5740 0.0000
# 6 0.0000 0.0000 0.0000 0.0000 0.0000 161.5105
#
#
#
# Elastic Compliance Matrix: (Units=1/GPa)
#
#
# Indices 1 2 3 4 5 6 
#
# 1 0.005305 -0.001012 0.002472 0.000000 0.000000 0.000000
# 2 -0.001012 0.003491 -0.001518 0.000000 0.000000 0.000000
# 3 0.002472 -0.001518 0.010866 0.000000 0.000000 0.000000
# 4 0.000000 0.000000 0.000000 0.014249 0.000000 0.000000
# 5 0.000000 0.000000 0.000000 0.000000 -0.003418 0.000000
# 6 0.000000 0.000000 0.000000 0.000000 0.000000 0.006192
#
#
# Mechanical properties :
#
#
# Convention : Reuss Voigt Hill
#
# Bulk Modulus (GPa) = 51.16229 78.57296 64.86763
# Shear Modulus (GPa) = 115.42897 28.01368 71.72133
#
# Velocity S-wave (km/s) = 6.44725 3.17616 5.08208
# Velocity P-wave (km/s) = 8.59342 6.46108 7.60238
#
# Compressibility (1/GPa) = 0.01954565
#
# Stress axis : x y z
#
# Youngs Moduli (GPa) = 188.49571 286.46973 92.02679
#
# Poissons Ratio (x) = 0.29003 -0.22749
# Poissons Ratio (y) = 0.19084 0.13969
# Poissons Ratio (z) = -0.46596 0.43484
#
# Static dielectric constant tensor:
#      x y z
#    x 2.430960 0.000000 0.000000 
#    y 0.000000 2.059090 0.000000 
#    z 0.000000 0.000000 2.364040 
# 
# From -- ./inp_files/5321.got.cif
#   From: 2010.05.17/outbox.cif.g08.bks.cpg/sg64_3_cif.got.tgz:5321.got - 2010.06.03 16:29:19.
