data_PCOD9480106
_publ_section_title
;
Structure prediction by ZEFSAII (Michael W. Deem and Ramdas Pophale) SiO2 
 PCOD9480106
Probable space group: C M C A
;
_chemical_formula_sum "Si O2"
_cell_formula_units_Z 64
_cell_length_a 25.156915
_cell_length_b 5.226136
_cell_length_c 18.535918
_cell_angle_alpha 90.000000
_cell_angle_beta 90.000000
_cell_angle_gamma 90.000000
_cell_volume 2436.981258
_symmetry_space_group_name_H-M "C M C A"
_symmetry_group_IT_number 64
_symmetry_cell_setting 'orthorhombic'
loop_
_space_group_symop_operation_xyz
x,y,z
-x,1/2-y,1/2+z
x,-y,-z
-x,1/2+y,1/2-z
-x,-y,-z
x,1/2+y,1/2-z
-x,y,z
x,1/2-y,1/2+z
1/2+x,1/2+y,z
1/2-x,-y,1/2+z
1/2+x,1/2-y,-z
1/2-x,y,1/2-z
1/2-x,1/2-y,-z
1/2+x,y,1/2-z
1/2-x,1/2+y,z
1/2+x,-y,1/2+z
loop_
_atom_site_type_symbol
_atom_site_label
_atom_site_fract_x
_atom_site_fract_y
_atom_site_fract_z
Si Si1 0.618055 0.748191 0.701356
Si Si2 0.500000 0.692864 0.208472
Si Si3 0.117005 0.121242 0.921318
Si Si4 0.000000 0.749502 0.050575
Si Si5 0.727408 0.814492 0.918560
O O1 0.626738 0.965289 0.765002
O O2 0.556073 0.742576 0.675459
O O3 0.638768 0.900377 0.632108
O O4 0.500000 0.894188 0.274161
O O5 0.057437 0.230941 0.909236
O O6 0.163953 0.329090 0.921065
O O7 0.116402 0.000000 0.000000
O O8 0.000000 0.500000 0.000000
O O9 0.000000 0.000000 0.000000
O O10 0.748820 0.560449 0.881015
O O11 0.750000 0.750000 0.000000
#
# Coordination Sequence:
#
# PCOD9480106 Si02
#       5
#    16   8  16   8  16
#     4  10  22  39  59  90 126 171 213 264 322 390
#     4   8  15  32  56  76 113 164 214 236 289 388
#     4  11  23  42  69  97 135 172 220 274 330 398
#     4  10  25  38  59 100 142 164 199 270 348 372
#     4  10  21  38  63  94 119 162 225 268 308 376
#
# _framework density 26.262001000000001
#
# number of rings (size 3 to 8) (size 9 to 14) (size 15 to 20)
#    0.000    2.000    2.500    0.750    3.500    6.000 
#    0.000    7.500    0.000    4.500    0.000    0.000 
#    0.000    0.000    0.000    0.000    0.000    0.000 
#
# Total GULP energy -178441.306799 kJ/mol
# GULP energy per Si atom -5576.290837 kJ/mol
# Density = 2.620223 g / cm^3
# Si number density = 26.262001 Si / 1000 Ang^3
#
#
#
# Elastic Constant Matrix: (Units=GPa)
#
#
# Indices 1 2 3 4 5 6 
#
# 1 169.5843 34.3511 -4.6479 0.0000 0.0000 0.0000
# 2 34.3511 198.4920 23.8257 0.0000 0.0000 0.0000
# 3 -4.6479 23.8257 74.1447 0.0000 0.0000 0.0000
# 4 0.0000 0.0000 0.0000 42.9846 0.0000 0.0000
# 5 0.0000 0.0000 0.0000 0.0000 -1.4709 0.0000
# 6 0.0000 0.0000 0.0000 0.0000 0.0000 -28.3965
#
#
#
# Elastic Compliance Matrix: (Units=1/GPa)
#
#
# Indices 1 2 3 4 5 6 
#
# 1 0.006152 -0.001155 0.000757 0.000000 0.000000 0.000000
# 2 -0.001155 0.005457 -0.001826 0.000000 0.000000 0.000000
# 3 0.000757 -0.001826 0.014121 0.000000 0.000000 0.000000
# 4 0.000000 0.000000 0.000000 0.023264 0.000000 0.000000
# 5 0.000000 0.000000 0.000000 0.000000 -0.679861 0.000000
# 6 0.000000 0.000000 0.000000 0.000000 0.000000 -0.035216
#
#
# Mechanical properties :
#
#
# Convention : Reuss Voigt Hill
#
# Bulk Modulus (GPa) = 46.99040 61.03099 54.01070
# Shear Modulus (GPa) = -7.63895 28.53626 10.44865
#
# Velocity S-wave (km/s) = -1.70736 3.29994 1.99681
# Velocity P-wave (km/s) = 3.74767 6.14892 5.09187
#
# Compressibility (1/GPa) = 0.02128094
#
# Stress axis : x y z
#
# Youngs Moduli (GPa) = 162.56026 183.24638 70.81464
#
# Poissons Ratio (x) = 0.21173 -0.05360
# Poissons Ratio (y) = 0.18783 0.12931
# Poissons Ratio (z) = -0.12304 0.33461
#
# Static dielectric constant tensor:
#      x y z
#    x 2.235260 0.000000 0.000000 
#    y 0.000000 2.280950 0.000000 
#    z 0.000000 0.000000 2.115420 
# 
# From -- ./inp_files/41704.got.cif
#   From: 2010.05.17/outbox.cif.g08.bks.cpg/sg64_21_cif.got.tgz:41704.got - 2010.06.03 16:29:19.
