data_PCOD9480421
_publ_section_title
;
Structure prediction by ZEFSAII (Michael W. Deem and Ramdas Pophale) SiO2 
 PCOD9480421
Probable space group: C M C A
;
_chemical_formula_sum "Si O2"
_cell_formula_units_Z 72
_cell_length_a 15.925728
_cell_length_b 13.971795
_cell_length_c 14.204531
_cell_angle_alpha 90.000000
_cell_angle_beta 90.000000
_cell_angle_gamma 90.000000
_cell_volume 3160.664495
_symmetry_space_group_name_H-M "C M C A"
_symmetry_group_IT_number 64
_symmetry_cell_setting 'orthorhombic'
loop_
_space_group_symop_operation_xyz
x,y,z
-x,1/2-y,1/2+z
x,-y,-z
-x,1/2+y,1/2-z
-x,-y,-z
x,1/2+y,1/2-z
-x,y,z
x,1/2-y,1/2+z
1/2+x,1/2+y,z
1/2-x,-y,1/2+z
1/2+x,1/2-y,-z
1/2-x,y,1/2-z
1/2-x,1/2-y,-z
1/2+x,y,1/2-z
1/2-x,1/2+y,z
1/2+x,-y,1/2+z
loop_
_atom_site_type_symbol
_atom_site_label
_atom_site_fract_x
_atom_site_fract_y
_atom_site_fract_z
Si Si1 0.169781 0.338683 0.201004
Si Si2 0.000000 0.407713 0.891499
Si Si3 0.313523 0.627309 0.173345
Si Si4 0.677615 0.112823 0.015600
Si Si5 0.500000 0.619258 0.675304
Si Si6 0.500000 0.351478 0.827582
O O1 0.250000 0.379412 0.250000
O O2 0.165608 0.227515 0.225385
O O3 0.085667 0.390954 0.231125
O O4 0.176617 0.344651 0.088681
O O5 0.086226 0.372007 0.938188
O O6 0.000000 0.525728 0.892467
O O7 0.000000 0.370996 0.784577
O O8 0.250000 0.578475 0.250000
O O9 0.254065 0.642147 0.082806
O O10 0.409543 0.601696 0.142467
O O11 0.687616 0.000000 0.000000
O O12 0.500000 0.734594 0.646630
#
# Coordination Sequence:
#
# PCOD9480421 Si02
#       6
#    16   8  16  16   8   8
#     4  10  22  40  63  91 130 168 216 270 322 388
#     4  12  22  40  69  97 130 174 225 283 312 394
#     4  10  21  41  63  89 126 172 212 263 329 392
#     4  12  23  37  63  98 128 165 221 269 329 385
#     4  10  21  42  65  96 126 167 222 269 327 384
#     4  10  22  41  68  94 132 172 214 273 334 391
#
# _framework density 22.780018999999999
#
# number of rings (size 3 to 8) (size 9 to 14) (size 15 to 20)
#    0.000    1.333    4.444    1.667    0.000    2.667 
#    0.000    1.667    0.000    0.000    0.000    0.000 
#    0.000    0.000    0.000    0.000    0.000    0.000 
#
# Total GULP energy -200504.292371 kJ/mol
# GULP energy per Si atom -5569.563677 kJ/mol
# Density = 2.272817 g / cm^3
# Si number density = 22.780019 Si / 1000 Ang^3
#
#
#
# Elastic Constant Matrix: (Units=GPa)
#
#
# Indices 1 2 3 4 5 6 
#
# 1 287.9855 12.1599 68.5181 0.0000 0.0000 0.0000
# 2 12.1599 69.5729 11.8867 0.0000 0.0000 0.0000
# 3 68.5181 11.8867 84.0699 0.0000 0.0000 0.0000
# 4 0.0000 0.0000 0.0000 25.5107 0.0000 0.0000
# 5 0.0000 0.0000 0.0000 0.0000 39.0237 0.0000
# 6 0.0000 0.0000 0.0000 0.0000 0.0000 21.3903
#
#
#
# Elastic Compliance Matrix: (Units=1/GPa)
#
#
# Indices 1 2 3 4 5 6 
#
# 1 0.004309 -0.000157 -0.003490 0.000000 0.000000 0.000000
# 2 -0.000157 0.014735 -0.001956 0.000000 0.000000 0.000000
# 3 -0.003490 -0.001956 0.015016 0.000000 0.000000 0.000000
# 4 0.000000 0.000000 0.000000 0.039199 0.000000 0.000000
# 5 0.000000 0.000000 0.000000 0.000000 0.025625 0.000000
# 6 0.000000 0.000000 0.000000 0.000000 0.000000 0.046750
#
#
# Mechanical properties :
#
#
# Convention : Reuss Voigt Hill
#
# Bulk Modulus (GPa) = 43.75366 69.63974 56.69670
# Shear Modulus (GPa) = 30.40288 40.45585 35.42936
#
# Velocity S-wave (km/s) = 3.65722 4.21876 3.94799
# Velocity P-wave (km/s) = 6.08953 7.37343 6.76202
#
# Compressibility (1/GPa) = 0.02285523
#
# Stress axis : x y z
#
# Youngs Moduli (GPa) = 232.05225 67.86590 66.59664
#
# Poissons Ratio (x) = 0.01065 0.23242
# Poissons Ratio (y) = 0.03641 0.13023
# Poissons Ratio (z) = 0.80987 0.13271
#
# Static dielectric constant tensor:
#      x y z
#    x 1.980630 0.000000 0.000000 
#    y 0.000000 1.867690 0.000000 
#    z 0.000000 0.000000 1.923960 
# 
# From -- ./inp_files/23572.got.cif
#   From: 2010.05.17/outbox.cif.g08.bks.cpg/sg64_12_cif.got.tgz:23572.got - 2010.06.03 16:29:19.
