data_PCOD9480029
_publ_section_title
;
Structure prediction by ZEFSAII (Michael W. Deem and Ramdas Pophale) SiO2 
 PCOD9480029
Probable space group: C M C A
;
_chemical_formula_sum "Si O2"
_cell_formula_units_Z 96
_cell_length_a 8.123974
_cell_length_b 24.804735
_cell_length_c 22.249655
_cell_angle_alpha 90.000000
_cell_angle_beta 90.000000
_cell_angle_gamma 90.000000
_cell_volume 4483.595222
_symmetry_space_group_name_H-M "C M C A"
_symmetry_group_IT_number 64
_symmetry_cell_setting 'orthorhombic'
loop_
_space_group_symop_operation_xyz
x,y,z
-x,1/2-y,1/2+z
x,-y,-z
-x,1/2+y,1/2-z
-x,-y,-z
x,1/2+y,1/2-z
-x,y,z
x,1/2-y,1/2+z
1/2+x,1/2+y,z
1/2-x,-y,1/2+z
1/2+x,1/2-y,-z
1/2-x,y,1/2-z
1/2-x,1/2-y,-z
1/2+x,y,1/2-z
1/2-x,1/2+y,z
1/2+x,-y,1/2+z
loop_
_atom_site_type_symbol
_atom_site_label
_atom_site_fract_x
_atom_site_fract_y
_atom_site_fract_z
Si Si1 0.810792 0.683283 0.662924
Si Si2 0.300401 0.436362 0.184747
Si Si3 0.801754 0.505032 0.430641
Si Si4 0.301690 0.129189 0.424651
Si Si5 0.807966 0.698354 0.313807
Si Si6 0.809173 0.195497 0.532470
O O1 0.740192 0.625775 0.682646
O O2 0.725036 0.737979 0.683378
O O3 0.797815 0.684641 0.590977
O O4 0.000000 0.686624 0.682597
O O5 0.500000 0.435667 0.182420
O O6 0.250000 0.459552 0.250000
O O7 0.242131 0.466722 0.123895
O O8 0.740502 0.500000 0.500000
O O9 0.773473 0.566751 0.411554
O O10 0.000000 0.495963 0.434086
O O11 0.500000 0.136736 0.432679
O O12 0.237014 0.167591 0.371437
O O13 0.216064 0.147512 0.485678
O O14 0.750000 0.676906 0.250000
O O15 0.000000 0.689234 0.317357
O O16 0.750000 0.250000 0.500000
O O17 0.000000 0.201534 0.549999
#
# Coordination Sequence:
#
# PCOD9480029 Si02
#       6
#    16  16  16  16  16  16
#     4  11  22  38  61  87 119 158 202 249 300 361
#     4  10  22  39  62  91 121 161 209 258 311 369
#     4   9  18  37  64  89 116 155 206 257 304 360
#     4  10  21  38  60  86 116 154 199 244 294 357
#     4  11  23  37  55  81 116 155 197 243 294 356
#     4  12  23  36  58  88 122 156 193 241 300 363
#
# _framework density 21.411387999999999
#
# number of rings (size 3 to 8) (size 9 to 14) (size 15 to 20)
#    0.000    1.500    1.667    4.000    0.000    6.667 
#    0.000    0.833    0.000    2.000    0.000    0.000 
#    0.000    0.000    0.000    0.000    0.000    0.000 
#
# Total GULP energy -268152.264226 kJ/mol
# GULP energy per Si atom -5586.505505 kJ/mol
# Density = 2.136265 g / cm^3
# Si number density = 21.411388 Si / 1000 Ang^3
#
#
#
# Elastic Constant Matrix: (Units=GPa)
#
#
# Indices 1 2 3 4 5 6 
#
# 1 25.0680 2.1418 -8.7604 0.0000 0.0000 0.0000
# 2 2.1418 60.5391 37.3979 0.0000 0.0000 0.0000
# 3 -8.7604 37.3979 150.9087 0.0000 0.0000 0.0000
# 4 0.0000 0.0000 0.0000 12.2707 0.0000 0.0000
# 5 0.0000 0.0000 0.0000 0.0000 30.5719 0.0000
# 6 0.0000 0.0000 0.0000 0.0000 0.0000 15.0479
#
#
#
# Elastic Compliance Matrix: (Units=1/GPa)
#
#
# Indices 1 2 3 4 5 6 
#
# 1 0.041328 -0.003476 0.003261 0.000000 0.000000 0.000000
# 2 -0.003476 0.019797 -0.005108 0.000000 0.000000 0.000000
# 3 0.003261 -0.005108 0.008082 0.000000 0.000000 0.000000
# 4 0.000000 0.000000 0.000000 0.081495 0.000000 0.000000
# 5 0.000000 0.000000 0.000000 0.000000 0.032710 0.000000
# 6 0.000000 0.000000 0.000000 0.000000 0.000000 0.066454
#
#
# Mechanical properties :
#
#
# Convention : Reuss Voigt Hill
#
# Bulk Modulus (GPa) = 17.07674 33.11938 25.09806
# Shear Modulus (GPa) = 17.85511 25.29388 21.57449
#
# Velocity S-wave (km/s) = 2.89088 3.44077 3.17774
# Velocity P-wave (km/s) = 4.37444 5.59347 5.02109
#
# Compressibility (1/GPa) = 0.05855920
#
# Stress axis : x y z
#
# Youngs Moduli (GPa) = 24.19667 50.51390 123.73795
#
# Poissons Ratio (x) = 0.17560 -0.40346
# Poissons Ratio (y) = 0.08412 0.63202
# Poissons Ratio (z) = -0.07890 0.25801
#
# Static dielectric constant tensor:
#      x y z
#    x 1.711840 0.000000 0.000000 
#    y 0.000000 1.772530 0.000000 
#    z 0.000000 0.000000 1.799490 
# 
# From -- ./inp_files/37077.got.cif
#   From: 2010.05.17/outbox.cif.g08.bks.cpg/sg64_19_cif.got.tgz:37077.got - 2010.06.03 16:29:19.
