data_PCOD9480162
_publ_section_title
;
Structure prediction by ZEFSAII (Michael W. Deem and Ramdas Pophale) SiO2 
 PCOD9480162
Probable space group: C M C A
;
_chemical_formula_sum "Si O2"
_cell_formula_units_Z 112
_cell_length_a 14.375501
_cell_length_b 24.253618
_cell_length_c 16.360904
_cell_angle_alpha 90.000000
_cell_angle_beta 90.000000
_cell_angle_gamma 90.000000
_cell_volume 5704.358591
_symmetry_space_group_name_H-M "C M C A"
_symmetry_group_IT_number 64
_symmetry_cell_setting 'orthorhombic'
loop_
_space_group_symop_operation_xyz
x,y,z
-x,1/2-y,1/2+z
x,-y,-z
-x,1/2+y,1/2-z
-x,-y,-z
x,1/2+y,1/2-z
-x,y,z
x,1/2-y,1/2+z
1/2+x,1/2+y,z
1/2-x,-y,1/2+z
1/2+x,1/2-y,-z
1/2-x,y,1/2-z
1/2-x,1/2-y,-z
1/2+x,y,1/2-z
1/2-x,1/2+y,z
1/2+x,-y,1/2+z
loop_
_atom_site_type_symbol
_atom_site_label
_atom_site_fract_x
_atom_site_fract_y
_atom_site_fract_z
Si Si1 0.107170 0.454031 0.931172
Si Si2 0.602595 0.163869 0.293640
Si Si3 0.890737 0.521764 0.587394
Si Si4 0.859483 0.545430 0.247250
Si Si5 0.743336 0.152181 0.068576
Si Si6 0.888725 0.854850 0.077777
Si Si7 0.607845 0.762467 0.860553
O O1 0.113883 0.480505 0.839951
O O2 0.180754 0.403448 0.934503
O O3 0.000000 0.434815 0.942509
O O4 0.126016 0.500000 0.000000
O O5 0.500000 0.172146 0.332502
O O6 0.598589 0.106462 0.244922
O O7 0.687816 0.155116 0.354000
O O8 0.620736 0.212066 0.229276
O O9 0.850384 0.500000 0.500000
O O10 0.882320 0.483386 0.666740
O O11 0.861933 0.584111 0.608445
O O12 0.000000 0.525901 0.572449
O O13 0.750000 0.550075 0.250000
O O14 0.674224 0.203889 0.078470
O O15 0.816597 0.155114 0.995228
O O16 0.876817 0.802895 0.137138
O O17 0.000000 0.855279 0.054647
O O18 0.500000 0.772632 0.883033
#
# Coordination Sequence:
#
# PCOD9480162 Si02
#       7
#    16  16  16  16  16  16  16
#     4  11  25  42  62  92 132 175 215 259 315 381
#     4  11  21  36  62  94 123 153 204 267 318 369
#     4  10  22  39  63  94 127 162 204 259 322 380
#     4  12  22  37  62  93 127 167 209 260 315 379
#     4  12  21  37  63  94 118 158 212 264 306 371
#     4  10  23  40  61  90 126 163 196 254 326 380
#     4  10  21  39  60  84 122 164 203 250 312 375
#
# _framework density 19.63411
#
# number of rings (size 3 to 8) (size 9 to 14) (size 15 to 20)
#    0.000    1.143    2.857    3.857    2.000    1.143 
#    0.000    1.429    3.143    0.429    0.000    0.000 
#    0.000    0.000    0.000    0.000    0.000    0.000 
#
# Total GULP energy -312317.374086 kJ/mol
# GULP energy per Si atom -5577.095966 kJ/mol
# Density = 1.958942 g / cm^3
# Si number density = 19.634110 Si / 1000 Ang^3
#
#
#
# Elastic Constant Matrix: (Units=GPa)
#
#
# Indices 1 2 3 4 5 6 
#
# 1 103.0381 40.4555 21.0225 0.0000 0.0000 0.0000
# 2 40.4555 140.7335 69.5603 0.0000 0.0000 0.0000
# 3 21.0225 69.5603 108.6893 0.0000 0.0000 0.0000
# 4 0.0000 0.0000 0.0000 22.7434 0.0000 0.0000
# 5 0.0000 0.0000 0.0000 0.0000 34.6871 0.0000
# 6 0.0000 0.0000 0.0000 0.0000 0.0000 13.6965
#
#
#
# Elastic Compliance Matrix: (Units=1/GPa)
#
#
# Indices 1 2 3 4 5 6 
#
# 1 0.010942 -0.003071 -0.000151 0.000000 0.000000 0.000000
# 2 -0.003071 0.011255 -0.006609 0.000000 0.000000 0.000000
# 3 -0.000151 -0.006609 0.013460 0.000000 0.000000 0.000000
# 4 0.000000 0.000000 0.000000 0.043969 0.000000 0.000000
# 5 0.000000 0.000000 0.000000 0.000000 0.028829 0.000000
# 6 0.000000 0.000000 0.000000 0.000000 0.000000 0.073012
#
#
# Mechanical properties :
#
#
# Convention : Reuss Voigt Hill
#
# Bulk Modulus (GPa) = 62.52216 68.28192 65.40204
# Shear Modulus (GPa) = 24.21785 28.98689 26.60237
#
# Velocity S-wave (km/s) = 3.51587 3.84650 3.68490
# Velocity P-wave (km/s) = 6.95662 7.38784 7.17547
#
# Compressibility (1/GPa) = 0.01599433
#
# Stress axis : x y z
#
# Youngs Moduli (GPa) = 91.39451 88.84906 74.29621
#
# Poissons Ratio (x) = 0.27282 0.01123
# Poissons Ratio (y) = 0.28063 0.49104
# Poissons Ratio (z) = 0.01381 0.58722
#
# Static dielectric constant tensor:
#      x y z
#    x 1.701210 0.000000 0.000000 
#    y 0.000000 1.711540 0.000000 
#    z 0.000000 0.000000 1.732950 
# 
# From -- ./inp_files/24285.got.cif
#   From: 2010.05.17/outbox.cif.g08.bks.cpg/sg64_13_cif.got.tgz:24285.got - 2010.06.03 16:29:19.
