data_PCOD9480234
_publ_section_title
;
Structure prediction by ZEFSAII (Michael W. Deem and Ramdas Pophale) SiO2 
 PCOD9480234
Probable space group: C M C A
;
_chemical_formula_sum "Si O2"
_cell_formula_units_Z 88
_cell_length_a 28.703676
_cell_length_b 27.575956
_cell_length_c 5.264163
_cell_angle_alpha 90.000000
_cell_angle_beta 90.000000
_cell_angle_gamma 90.000000
_cell_volume 4166.749817
_symmetry_space_group_name_H-M "C M C A"
_symmetry_group_IT_number 64
_symmetry_cell_setting 'orthorhombic'
loop_
_space_group_symop_operation_xyz
x,y,z
-x,1/2-y,1/2+z
x,-y,-z
-x,1/2+y,1/2-z
-x,-y,-z
x,1/2+y,1/2-z
-x,y,z
x,1/2-y,1/2+z
1/2+x,1/2+y,z
1/2-x,-y,1/2+z
1/2+x,1/2-y,-z
1/2-x,y,1/2-z
1/2-x,1/2-y,-z
1/2+x,y,1/2-z
1/2-x,1/2+y,z
1/2+x,-y,1/2+z
loop_
_atom_site_type_symbol
_atom_site_label
_atom_site_fract_x
_atom_site_fract_y
_atom_site_fract_z
Si Si1 0.055326 0.775581 0.712208
Si Si2 0.358666 0.879685 0.304941
Si Si3 0.000000 0.534085 0.249397
Si Si4 0.304622 0.781052 0.225275
Si Si5 0.918103 0.887384 0.695682
Si Si6 0.805595 0.474109 0.249760
O O1 0.075241 0.751160 0.458860
O O2 0.061251 0.833074 0.720667
O O3 0.000000 0.765717 0.709421
O O4 0.337963 0.826261 0.275571
O O5 0.379453 0.889048 0.583397
O O6 0.318214 0.918248 0.254759
O O7 0.396917 0.889609 0.086906
O O8 0.000000 0.500000 0.500000
O O9 0.044435 0.570302 0.240816
O O10 0.000000 0.500000 0.000000
O O11 0.311704 0.740932 0.444982
O O12 0.250000 0.795907 0.250000
O O13 0.824752 0.500000 0.500000
O O14 0.750000 0.479945 0.250000
O O15 0.824880 0.500000 0.000000
#
# Coordination Sequence:
#
# PCOD9480234 Si02
#       6
#    16  16   8  16  16  16
#     4  10  21  39  64  88 119 158 196 249 306 359
#     4  12  25  39  66  96 129 164 208 269 312 369
#     4  12  28  50  70  88 124 172 216 266 330 394
#     4  10  22  41  64  94 136 181 217 250 304 379
#     4  12  26  43  64  96 127 162 215 264 315 383
#     4  10  22  41  64  90 123 160 203 257 316 376
#
# _framework density 21.119579999999999
#
# number of rings (size 3 to 8) (size 9 to 14) (size 15 to 20)
#    0.000    1.091    0.909    4.909    0.000    8.727 
#    0.000    7.273    0.000    0.000    0.000    0.000 
#    0.000    0.000    0.000    0.000    0.000    0.000 
#
# Total GULP energy -246167.325600 kJ/mol
# GULP energy per Si atom -5594.711945 kJ/mol
# Density = 2.107151 g / cm^3
# Si number density = 21.119580 Si / 1000 Ang^3
#
#
#
# Elastic Constant Matrix: (Units=GPa)
#
#
# Indices 1 2 3 4 5 6 
#
# 1 20.4947 5.3712 -3.7226 0.0000 0.0000 0.0000
# 2 5.3712 121.5482 35.4704 0.0000 0.0000 0.0000
# 3 -3.7226 35.4704 112.1967 0.0000 0.0000 0.0000
# 4 0.0000 0.0000 0.0000 34.2684 0.0000 0.0000
# 5 0.0000 0.0000 0.0000 0.0000 3.7772 0.0000
# 6 0.0000 0.0000 0.0000 0.0000 0.0000 28.8896
#
#
#
# Elastic Compliance Matrix: (Units=1/GPa)
#
#
# Indices 1 2 3 4 5 6 
#
# 1 0.050044 -0.002970 0.002599 0.000000 0.000000 0.000000
# 2 -0.002970 0.009240 -0.003020 0.000000 0.000000 0.000000
# 3 0.002599 -0.003020 0.009954 0.000000 0.000000 0.000000
# 4 0.000000 0.000000 0.000000 0.029181 0.000000 0.000000
# 5 0.000000 0.000000 0.000000 0.000000 0.264749 0.000000
# 6 0.000000 0.000000 0.000000 0.000000 0.000000 0.034615
#
#
# Mechanical properties :
#
#
# Convention : Reuss Voigt Hill
#
# Bulk Modulus (GPa) = 16.01115 36.49752 26.25434
# Shear Modulus (GPa) = 11.75418 27.86174 19.80796
#
# Velocity S-wave (km/s) = 2.36170 3.63607 3.06583
# Velocity P-wave (km/s) = 3.87743 5.91159 4.99907
#
# Compressibility (1/GPa) = 0.06245649
#
# Stress axis : x y z
#
# Youngs Moduli (GPa) = 19.98259 108.22959 100.46419
#
# Poissons Ratio (x) = 0.32144 -0.26114
# Poissons Ratio (y) = 0.05935 0.30336
# Poissons Ratio (z) = -0.05194 0.32681
#
# Static dielectric constant tensor:
#      x y z
#    x 1.765800 0.000000 0.000000 
#    y 0.000000 1.705780 0.000000 
#    z 0.000000 0.000000 1.946520 
# 
# From -- ./inp_files/3300.got.cif
#   From: 2010.05.17/outbox.cif.g08.bks.cpg/sg64_2_cif.got.tgz:3300.got - 2010.06.03 16:29:19.
