data_PCOD9480825
_publ_section_title
;
Structure prediction by ZEFSAII (Michael W. Deem and Ramdas Pophale) SiO2 
 PCOD9480825
Probable space group: C M C A
;
_chemical_formula_sum "Si O2"
_cell_formula_units_Z 56
_cell_length_a 12.468881
_cell_length_b 19.222391
_cell_length_c 10.512122
_cell_angle_alpha 90.000000
_cell_angle_beta 90.000000
_cell_angle_gamma 90.000000
_cell_volume 2519.563334
_symmetry_space_group_name_H-M "C M C A"
_symmetry_group_IT_number 64
_symmetry_cell_setting 'orthorhombic'
loop_
_space_group_symop_operation_xyz
x,y,z
-x,1/2-y,1/2+z
x,-y,-z
-x,1/2+y,1/2-z
-x,-y,-z
x,1/2+y,1/2-z
-x,y,z
x,1/2-y,1/2+z
1/2+x,1/2+y,z
1/2-x,-y,1/2+z
1/2+x,1/2-y,-z
1/2-x,y,1/2-z
1/2-x,1/2-y,-z
1/2+x,y,1/2-z
1/2-x,1/2+y,z
1/2+x,-y,1/2+z
loop_
_atom_site_type_symbol
_atom_site_label
_atom_site_fract_x
_atom_site_fract_y
_atom_site_fract_z
Si Si1 0.235309 0.355166 0.611837
Si Si2 0.380710 0.389340 0.388869
Si Si3 0.000000 0.025965 0.793154
Si Si4 0.250000 0.275838 0.250000
Si Si5 0.500000 0.385798 0.949644
O O1 0.250000 0.390028 0.750000
O O2 0.295623 0.394906 0.500588
O O3 0.283688 0.278213 0.639317
O O4 0.110892 0.346769 0.576272
O O5 0.500000 0.375732 0.442251
O O6 0.399331 0.455164 0.297056
O O7 0.342311 0.325623 0.301299
O O8 0.000000 0.950503 0.851521
O O9 0.000000 0.080412 0.910125
#
# Coordination Sequence:
#
# PCOD9480825 Si02
#       5
#    16  16   8   8   8
#     4  10  25  40  68 100 139 175 222 283 351 402
#     4  10  22  43  69 101 132 178 233 270 352 414
#     4   9  24  42  73  91 134 181 225 283 336 399
#     4  10  22  40  64 102 130 184 208 292 342 394
#     4  11  22  48  61 105 132 175 232 280 343 408
#
# _framework density 22.226074000000001
#
# number of rings (size 3 to 8) (size 9 to 14) (size 15 to 20)
#    1.714    0.286    0.000    2.571    4.000    1.143 
#   12.857    1.429    0.000    0.000    0.000    0.000 
#    0.000    0.000    0.000    0.000    0.000    0.000 
#
# Total GULP energy -156120.496112 kJ/mol
# GULP energy per Si atom -5575.732004 kJ/mol
# Density = 2.217549 g / cm^3
# Si number density = 22.226074 Si / 1000 Ang^3
#
#
#
# Elastic Constant Matrix: (Units=GPa)
#
#
# Indices 1 2 3 4 5 6 
#
# 1 115.9384 -3.3811 56.6970 0.0000 0.0000 0.0000
# 2 -3.3811 47.8240 33.2649 0.0000 0.0000 0.0000
# 3 56.6970 33.2649 122.9722 0.0000 0.0000 0.0000
# 4 0.0000 0.0000 0.0000 31.2348 0.0000 0.0000
# 5 0.0000 0.0000 0.0000 0.0000 30.7551 0.0000
# 6 0.0000 0.0000 0.0000 0.0000 0.0000 22.3902
#
#
#
# Elastic Compliance Matrix: (Units=1/GPa)
#
#
# Indices 1 2 3 4 5 6 
#
# 1 0.012380 0.005969 -0.007323 0.000000 0.000000 0.000000
# 2 0.005969 0.028634 -0.010497 0.000000 0.000000 0.000000
# 3 -0.007323 -0.010497 0.014348 0.000000 0.000000 0.000000
# 4 0.000000 0.000000 0.000000 0.032016 0.000000 0.000000
# 5 0.000000 0.000000 0.000000 0.000000 0.032515 0.000000
# 6 0.000000 0.000000 0.000000 0.000000 0.000000 0.044662
#
#
# Mechanical properties :
#
#
# Convention : Reuss Voigt Hill
#
# Bulk Modulus (GPa) = 31.58681 51.09958 41.34320
# Shear Modulus (GPa) = 25.14960 30.21960 27.68460
#
# Velocity S-wave (km/s) = 3.36748 3.69134 3.53312
# Velocity P-wave (km/s) = 5.41870 6.41940 5.94016
#
# Compressibility (1/GPa) = 0.03165878
#
# Stress axis : x y z
#
# Youngs Moduli (GPa) = 80.77385 34.92388 69.69783
#
# Poissons Ratio (x) = -0.20845 0.51036
# Poissons Ratio (y) = -0.48211 0.73165
# Poissons Ratio (z) = 0.59147 0.36661
#
# Static dielectric constant tensor:
#      x y z
#    x 1.787870 0.000000 0.000000 
#    y 0.000000 1.811300 0.000000 
#    z 0.000000 0.000000 1.852510 
# 
# From -- ./inp_files/12912.got.cif
#   From: 2010.05.17/outbox.cif.g08.bks.cpg/sg64_7_cif.got.tgz:12912.got - 2010.06.03 16:29:19.
