data_PCOD9480133
_publ_section_title
;
Structure prediction by ZEFSAII (Michael W. Deem and Ramdas Pophale) SiO2 
 PCOD9480133
Probable space group: C M C A
;
_chemical_formula_sum "Si O2"
_cell_formula_units_Z 88
_cell_length_a 21.172893
_cell_length_b 14.017079
_cell_length_c 12.644370
_cell_angle_alpha 90.000000
_cell_angle_beta 90.000000
_cell_angle_gamma 90.000000
_cell_volume 3752.622857
_symmetry_space_group_name_H-M "C M C A"
_symmetry_group_IT_number 64
_symmetry_cell_setting 'orthorhombic'
loop_
_space_group_symop_operation_xyz
x,y,z
-x,1/2-y,1/2+z
x,-y,-z
-x,1/2+y,1/2-z
-x,-y,-z
x,1/2+y,1/2-z
-x,y,z
x,1/2-y,1/2+z
1/2+x,1/2+y,z
1/2-x,-y,1/2+z
1/2+x,1/2-y,-z
1/2-x,y,1/2-z
1/2-x,1/2-y,-z
1/2+x,y,1/2-z
1/2-x,1/2+y,z
1/2+x,-y,1/2+z
loop_
_atom_site_type_symbol
_atom_site_label
_atom_site_fract_x
_atom_site_fract_y
_atom_site_fract_z
Si Si1 0.428103 0.621410 0.303902
Si Si2 0.707777 0.839816 0.146916
Si Si3 0.831644 0.856629 0.885144
Si Si4 0.243060 0.500000 0.500000
Si Si5 0.570605 0.310750 0.067213
Si Si6 0.929863 0.101476 0.702667
O O1 0.500000 0.636219 0.262955
O O2 0.375174 0.639437 0.217229
O O3 0.420366 0.701487 0.393775
O O4 0.424272 0.509315 0.330315
O O5 0.750000 0.864039 0.250000
O O6 0.718612 0.728764 0.122649
O O7 0.632362 0.845888 0.164007
O O8 0.721084 0.912152 0.052324
O O9 0.798095 0.956258 0.905658
O O10 0.875894 0.838868 0.986157
O O11 0.500000 0.319564 0.021614
O O12 0.572039 0.378925 0.170871
O O13 0.000000 0.134912 0.667574
#
# Coordination Sequence:
#
# PCOD9480133 Si02
#       6
#    16  16  16   8  16  16
#     4  10  21  38  67 101 135 179 222 281 353 414
#     4  12  27  47  71 101 141 184 236 292 359 418
#     4  12  24  43  71  94 138 183 234 282 361 414
#     4  12  30  46  64 102 132 184 244 294 346 428
#     4  10  21  39  66 104 137 169 228 288 344 423
#     4  10  22  43  70  99 139 182 228 282 348 418
#
# _framework density 23.450265999999999
#
# number of rings (size 3 to 8) (size 9 to 14) (size 15 to 20)
#    0.000    1.091    1.818    4.364    2.545    2.909 
#    0.000    4.091    0.000    0.000    0.000    0.000 
#    0.000    0.000    0.000    0.000    0.000    0.000 
#
# Total GULP energy -246196.983874 kJ/mol
# GULP energy per Si atom -5595.385997 kJ/mol
# Density = 2.339689 g / cm^3
# Si number density = 23.450266 Si / 1000 Ang^3
#
#
#
# Elastic Constant Matrix: (Units=GPa)
#
#
# Indices 1 2 3 4 5 6 
#
# 1 81.9615 17.5034 22.0513 0.0000 0.0000 0.0000
# 2 17.5034 81.7937 -16.5286 0.0000 0.0000 0.0000
# 3 22.0513 -16.5286 19.6111 0.0000 0.0000 0.0000
# 4 0.0000 0.0000 0.0000 25.2388 0.0000 0.0000
# 5 0.0000 0.0000 0.0000 0.0000 -0.4441 0.0000
# 6 0.0000 0.0000 0.0000 0.0000 0.0000 67.8545
#
#
#
# Elastic Compliance Matrix: (Units=1/GPa)
#
#
# Indices 1 2 3 4 5 6 
#
# 1 0.026333 -0.014004 -0.041412 0.000000 0.000000 0.000000
# 2 -0.014004 0.022183 0.034442 0.000000 0.000000 0.000000
# 3 -0.041412 0.034442 0.126585 0.000000 0.000000 0.000000
# 4 0.000000 0.000000 0.000000 0.039621 0.000000 0.000000
# 5 0.000000 0.000000 0.000000 0.000000 -2.251670 0.000000
# 6 0.000000 0.000000 0.000000 0.000000 0.000000 0.014737
#
#
# Mechanical properties :
#
#
# Convention : Reuss Voigt Hill
#
# Bulk Modulus (GPa) = 7.51018 25.49095 16.50056
# Shear Modulus (GPa) = -2.58281 29.21919 13.31819
#
# Velocity S-wave (km/s) = -1.05061 3.53371 2.38572
# Velocity P-wave (km/s) = 1.31827 5.24817 3.82630
#
# Compressibility (1/GPa) = 0.13315269
#
# Stress axis : x y z
#
# Youngs Moduli (GPa) = 37.97484 45.08055 7.89982
#
# Poissons Ratio (x) = 0.63129 0.32715
# Poissons Ratio (y) = 0.53179 -0.27209
# Poissons Ratio (z) = 1.57263 -1.55266
#
# Static dielectric constant tensor:
#      x y z
#    x 1.910170 0.000000 0.000000 
#    y 0.000000 1.883950 0.000000 
#    z 0.000000 0.000000 1.859860 
# 
# From -- ./inp_files/18225.got.cif
#   From: 2010.05.17/outbox.cif.g08.bks.cpg/sg64_10_cif.got.tgz:18225.got - 2010.06.03 16:29:19.
