data_PCOD9480641
_publ_section_title
;
Structure prediction by ZEFSAII (Michael W. Deem and Ramdas Pophale) SiO2 
 PCOD9480641
Probable space group: C M C A
;
_chemical_formula_sum "Si O2"
_cell_formula_units_Z 104
_cell_length_a 9.442224
_cell_length_b 19.279943
_cell_length_c 25.254100
_cell_angle_alpha 90.000000
_cell_angle_beta 90.000000
_cell_angle_gamma 90.000000
_cell_volume 4597.396285
_symmetry_space_group_name_H-M "C M C A"
_symmetry_group_IT_number 64
_symmetry_cell_setting 'orthorhombic'
loop_
_space_group_symop_operation_xyz
x,y,z
-x,1/2-y,1/2+z
x,-y,-z
-x,1/2+y,1/2-z
-x,-y,-z
x,1/2+y,1/2-z
-x,y,z
x,1/2-y,1/2+z
1/2+x,1/2+y,z
1/2-x,-y,1/2+z
1/2+x,1/2-y,-z
1/2-x,y,1/2-z
1/2-x,1/2-y,-z
1/2+x,y,1/2-z
1/2-x,1/2+y,z
1/2+x,-y,1/2+z
loop_
_atom_site_type_symbol
_atom_site_label
_atom_site_fract_x
_atom_site_fract_y
_atom_site_fract_z
Si Si1 0.661191 0.244516 0.581742
Si Si2 0.165912 0.437867 0.155847
Si Si3 0.163175 0.417623 0.448264
Si Si4 0.261385 0.590834 0.323200
Si Si5 0.829367 0.804710 0.197561
Si Si6 0.500000 0.124341 0.247312
Si Si7 0.330573 0.126631 0.440206
O O1 0.500000 0.270847 0.577422
O O2 0.660585 0.165794 0.561107
O O3 0.702322 0.236391 0.643542
O O4 0.766805 0.296546 0.553339
O O5 0.231142 0.444295 0.096678
O O6 0.180342 0.512366 0.183439
O O7 0.261941 0.380751 0.185404
O O8 0.000000 0.417393 0.154856
O O9 0.204019 0.422325 0.509849
O O10 0.000000 0.442781 0.439931
O O11 0.379019 0.638948 0.297724
O O12 0.233145 0.601760 0.384937
O O13 0.121357 0.603348 0.290426
O O14 0.750000 0.778654 0.250000
O O15 0.000000 0.808564 0.204878
O O16 0.500000 0.129888 0.437264
#
# Coordination Sequence:
#
# PCOD9480641 Si02
#       7
#    16  16  16  16  16   8  16
#     4   9  20  39  60  87 118 158 203 247 302 357
#     4  11  23  38  62  92 121 155 199 249 303 362
#     4   9  21  41  63  90 123 158 197 248 303 359
#     4  11  24  42  61  93 116 162 202 245 300 358
#     4  10  22  38  59  88 121 158 200 250 305 359
#     4  10  24  44  62  80 126 158 204 248 294 356
#     4  11  23  40  63  89 120 161 205 247 297 359
#
# _framework density 22.621500999999999
#
# number of rings (size 3 to 8) (size 9 to 14) (size 15 to 20)
#    0.000    1.846    1.538    2.308    5.385    4.308 
#    2.769    2.308    0.000    0.000    0.000    0.000 
#    0.000    0.000    0.000    0.000    0.000    0.000 
#
# Total GULP energy -289824.652872 kJ/mol
# GULP energy per Si atom -5573.551017 kJ/mol
# Density = 2.257001 g / cm^3
# Si number density = 22.621501 Si / 1000 Ang^3
#
#
#
# Elastic Constant Matrix: (Units=GPa)
#
#
# Indices 1 2 3 4 5 6 
#
# 1 136.8745 5.8611 45.6399 0.0000 0.0000 0.0000
# 2 5.8611 59.1438 3.5724 0.0000 0.0000 0.0000
# 3 45.6399 3.5724 149.9491 0.0000 0.0000 0.0000
# 4 0.0000 0.0000 0.0000 21.0643 0.0000 0.0000
# 5 0.0000 0.0000 0.0000 0.0000 40.4650 0.0000
# 6 0.0000 0.0000 0.0000 0.0000 0.0000 -0.4407
#
#
#
# Elastic Compliance Matrix: (Units=1/GPa)
#
#
# Indices 1 2 3 4 5 6 
#
# 1 0.008157 -0.000659 -0.002467 0.000000 0.000000 0.000000
# 2 -0.000659 0.016986 -0.000204 0.000000 0.000000 0.000000
# 3 -0.002467 -0.000204 0.007425 0.000000 0.000000 0.000000
# 4 0.000000 0.000000 0.000000 0.047474 0.000000 0.000000
# 5 0.000000 0.000000 0.000000 0.000000 0.024713 0.000000
# 6 0.000000 0.000000 0.000000 0.000000 0.000000 -2.269174
#
#
# Mechanical properties :
#
#
# Convention : Reuss Voigt Hill
#
# Bulk Modulus (GPa) = 38.60039 50.67936 44.63988
# Shear Modulus (GPa) = -2.32653 31.61067 14.64207
#
# Velocity S-wave (km/s) = -1.01523 3.74220 2.54690
# Velocity P-wave (km/s) = 3.96565 6.41279 5.33152
#
# Compressibility (1/GPa) = 0.02590647
#
# Stress axis : x y z
#
# Youngs Moduli (GPa) = 122.59723 58.87343 134.68633
#
# Poissons Ratio (x) = 0.03882 0.33227
# Poissons Ratio (y) = 0.08083 0.02747
# Poissons Ratio (z) = 0.30244 0.01201
#
# Static dielectric constant tensor:
#      x y z
#    x 1.743980 0.000000 0.000000 
#    y 0.000000 1.926080 0.000000 
#    z 0.000000 0.000000 1.864070 
# 
# From -- ./inp_files/48270.got.cif
#   From: 2010.05.17/outbox.cif.g08.bks.cpg/sg64_25_cif.got.tgz:48270.got - 2010.06.03 16:29:19.
