data_PCOD9480216
_publ_section_title
;
Structure prediction by ZEFSAII (Michael W. Deem and Ramdas Pophale) SiO2 
 PCOD9480216
Probable space group: C M C A
;
_chemical_formula_sum "Si O2"
_cell_formula_units_Z 64
_cell_length_a 20.678530
_cell_length_b 21.101698
_cell_length_c 7.572268
_cell_angle_alpha 90.000000
_cell_angle_beta 90.000000
_cell_angle_gamma 90.000000
_cell_volume 3304.175007
_symmetry_space_group_name_H-M "C M C A"
_symmetry_group_IT_number 64
_symmetry_cell_setting 'orthorhombic'
loop_
_space_group_symop_operation_xyz
x,y,z
-x,1/2-y,1/2+z
x,-y,-z
-x,1/2+y,1/2-z
-x,-y,-z
x,1/2+y,1/2-z
-x,y,z
x,1/2-y,1/2+z
1/2+x,1/2+y,z
1/2-x,-y,1/2+z
1/2+x,1/2-y,-z
1/2-x,y,1/2-z
1/2-x,1/2-y,-z
1/2+x,y,1/2-z
1/2-x,1/2+y,z
1/2+x,-y,1/2+z
loop_
_atom_site_type_symbol
_atom_site_label
_atom_site_fract_x
_atom_site_fract_y
_atom_site_fract_z
Si Si1 0.926526 0.795860 0.626478
Si Si2 0.750000 0.096268 0.750000
Si Si3 0.821561 0.500000 0.500000
Si Si4 0.881083 0.166969 0.750680
Si Si5 0.574186 0.907449 0.591099
O O1 0.918441 0.824386 0.432465
O O2 0.880234 0.736265 0.659259
O O3 0.916879 0.849821 0.772535
O O4 0.000000 0.771083 0.645447
O O5 0.723503 0.050345 0.597382
O O6 0.810799 0.139995 0.703832
O O7 0.871771 0.539070 0.377071
O O8 0.913322 0.120243 0.894373
O O9 0.500000 0.929762 0.606880
#
# Coordination Sequence:
#
# PCOD9480216 Si02
#       5
#    16   8   8  16  16
#     4  11  21  36  63  94 122 151 192 250 312 363
#     4  10  26  42  60  84 120 166 210 244 290 360
#     4  10  23  44  60  82 117 168 206 258 286 350
#     4  11  22  39  59  92 125 159 192 245 301 363
#     4  10  21  39  63  91 118 156 202 254 308 352
#
# _framework density 19.369433000000001
#
# number of rings (size 3 to 8) (size 9 to 14) (size 15 to 20)
#    0.000    1.500    2.500    2.625    3.500    1.000 
#    0.000    0.000    0.000    7.500    0.000    0.000 
#    0.000    0.000    0.000    0.000    0.000    0.000 
#
# Total GULP energy -178643.488514 kJ/mol
# GULP energy per Si atom -5582.609016 kJ/mol
# Density = 1.932535 g / cm^3
# Si number density = 19.369433 Si / 1000 Ang^3
#
#
#
# Elastic Constant Matrix: (Units=GPa)
#
#
# Indices 1 2 3 4 5 6 
#
# 1 75.0978 34.0231 19.6436 0.0000 0.0000 0.0000
# 2 34.0231 75.7331 17.5596 0.0000 0.0000 0.0000
# 3 19.6436 17.5596 83.6575 0.0000 0.0000 0.0000
# 4 0.0000 0.0000 0.0000 19.2788 0.0000 0.0000
# 5 0.0000 0.0000 0.0000 0.0000 18.4478 0.0000
# 6 0.0000 0.0000 0.0000 0.0000 0.0000 106.9555
#
#
#
# Elastic Compliance Matrix: (Units=1/GPa)
#
#
# Indices 1 2 3 4 5 6 
#
# 1 0.017219 -0.007146 -0.002543 0.000000 0.000000 0.000000
# 2 -0.007146 0.016845 -0.001858 0.000000 0.000000 0.000000
# 3 -0.002543 -0.001858 0.012941 0.000000 0.000000 0.000000
# 4 0.000000 0.000000 0.000000 0.051871 0.000000 0.000000
# 5 0.000000 0.000000 0.000000 0.000000 0.054207 0.000000
# 6 0.000000 0.000000 0.000000 0.000000 0.000000 0.009350
#
#
# Mechanical properties :
#
#
# Convention : Reuss Voigt Hill
#
# Bulk Modulus (GPa) = 41.82219 41.88232 41.85226
# Shear Modulus (GPa) = 25.84035 39.82054 32.83045
#
# Velocity S-wave (km/s) = 3.65647 4.53906 4.12146
# Velocity P-wave (km/s) = 6.28212 7.01004 6.65604
#
# Compressibility (1/GPa) = 0.02391075
#
# Stress axis : x y z
#
# Youngs Moduli (GPa) = 58.07673 59.36376 77.27587
#
# Poissons Ratio (x) = 0.42420 0.19653
# Poissons Ratio (y) = 0.41500 0.14357
# Poissons Ratio (z) = 0.14770 0.11029
#
# Static dielectric constant tensor:
#      x y z
#    x 1.670070 0.000000 0.000000 
#    y 0.000000 1.690000 0.000000 
#    z 0.000000 0.000000 1.679950 
# 
# From -- ./inp_files/6657.got.cif
#   From: 2010.05.17/outbox.cif.g08.bks.cpg/sg64_4_cif.got.tgz:6657.got - 2010.06.03 16:29:19.
