data_PCOD9480710
_publ_section_title
;
Structure prediction by ZEFSAII (Michael W. Deem and Ramdas Pophale) SiO2 
 PCOD9480710
Probable space group: C M C A
;
_chemical_formula_sum "Si O2"
_cell_formula_units_Z 80
_cell_length_a 18.836811
_cell_length_b 8.866643
_cell_length_c 23.281245
_cell_angle_alpha 90.000000
_cell_angle_beta 90.000000
_cell_angle_gamma 90.000000
_cell_volume 3888.416740
_symmetry_space_group_name_H-M "C M C A"
_symmetry_group_IT_number 64
_symmetry_cell_setting 'orthorhombic'
loop_
_space_group_symop_operation_xyz
x,y,z
-x,1/2-y,1/2+z
x,-y,-z
-x,1/2+y,1/2-z
-x,-y,-z
x,1/2+y,1/2-z
-x,y,z
x,1/2-y,1/2+z
1/2+x,1/2+y,z
1/2-x,-y,1/2+z
1/2+x,1/2-y,-z
1/2-x,y,1/2-z
1/2-x,1/2-y,-z
1/2+x,y,1/2-z
1/2-x,1/2+y,z
1/2+x,-y,1/2+z
loop_
_atom_site_type_symbol
_atom_site_label
_atom_site_fract_x
_atom_site_fract_y
_atom_site_fract_z
Si Si1 0.823590 0.416122 0.777516
Si Si2 0.082421 0.593154 0.870418
Si Si3 0.800205 0.037959 0.436692
Si Si4 0.310203 0.663052 0.872223
Si Si5 0.581894 0.425478 0.833663
O O1 0.750000 0.475187 0.750000
O O2 0.871087 0.524341 0.818022
O O3 0.804464 0.267486 0.815152
O O4 0.874178 0.386812 0.723494
O O5 0.121845 0.529973 0.926126
O O6 0.086539 0.773563 0.870694
O O7 0.000000 0.549347 0.864809
O O8 0.749327 0.958910 0.389179
O O9 0.774221 0.000000 0.500000
O O10 0.805791 0.213901 0.422652
O O11 0.381540 0.567424 0.864055
O O12 0.500000 0.456177 0.820028
#
# Coordination Sequence:
#
# PCOD9480710 Si02
#       5
#    16  16  16  16  16
#     4  11  22  37  61  91 124 163 201 245 306 375
#     4  10  22  39  59  87 121 156 201 254 306 368
#     4  11  23  42  67  90 119 161 209 263 316 362
#     4  11  24  39  62  94 125 159 208 257 304 367
#     4  11  23  39  60  89 127 165 199 243 303 371
#
# _framework density 20.573924999999999
#
# number of rings (size 3 to 8) (size 9 to 14) (size 15 to 20)
#    0.000    1.200    0.000    7.200    0.000    9.200 
#    0.000    0.000    0.000    3.000    0.000    0.000 
#    0.000    0.000    0.000    0.000    0.000    0.000 
#
# Total GULP energy -223376.622653 kJ/mol
# GULP energy per Si atom -5584.415566 kJ/mol
# Density = 2.052710 g / cm^3
# Si number density = 20.573925 Si / 1000 Ang^3
#
#
#
# Elastic Constant Matrix: (Units=GPa)
#
#
# Indices 1 2 3 4 5 6 
#
# 1 144.1246 56.3138 34.4565 0.0000 0.0000 0.0000
# 2 56.3138 104.9402 26.1925 0.0000 0.0000 0.0000
# 3 34.4565 26.1925 41.7734 0.0000 0.0000 0.0000
# 4 0.0000 0.0000 0.0000 -13.8617 0.0000 0.0000
# 5 0.0000 0.0000 0.0000 0.0000 21.0276 0.0000
# 6 0.0000 0.0000 0.0000 0.0000 0.0000 35.8722
#
#
#
# Elastic Compliance Matrix: (Units=1/GPa)
#
#
# Indices 1 2 3 4 5 6 
#
# 1 0.009795 -0.003841 -0.005671 0.000000 0.000000 0.000000
# 2 -0.003841 0.012803 -0.004860 0.000000 0.000000 0.000000
# 3 -0.005671 -0.004860 0.031664 0.000000 0.000000 0.000000
# 4 0.000000 0.000000 0.000000 -0.072141 0.000000 0.000000
# 5 0.000000 0.000000 0.000000 0.000000 0.047557 0.000000
# 6 0.000000 0.000000 0.000000 0.000000 0.000000 0.027877
#
#
# Mechanical properties :
#
#
# Convention : Reuss Voigt Hill
#
# Bulk Modulus (GPa) = 39.18722 58.30709 48.74715
# Shear Modulus (GPa) = 52.74076 20.19932 36.47004
#
# Velocity S-wave (km/s) = 5.06857 3.13676 4.21483
# Velocity P-wave (km/s) = 7.30358 6.44366 6.88705
#
# Compressibility (1/GPa) = 0.02551852
#
# Stress axis : x y z
#
# Youngs Moduli (GPa) = 102.09335 78.10491 31.58199
#
# Poissons Ratio (x) = 0.29998 0.17910
# Poissons Ratio (y) = 0.39212 0.15348
# Poissons Ratio (z) = 0.57898 0.37958
#
# Static dielectric constant tensor:
#      x y z
#    x 1.731750 0.000000 0.000000 
#    y 0.000000 1.749870 0.000000 
#    z 0.000000 0.000000 1.781610 
# 
# From -- ./inp_files/50288.got.cif
#   From: 2010.05.17/outbox.cif.g08.bks.cpg/sg64_26_cif.got.tgz:50288.got - 2010.06.03 16:29:19.
