data_PCOD9480707
_publ_section_title
;
Structure prediction by ZEFSAII (Michael W. Deem and Ramdas Pophale) SiO2 
 PCOD9480707
Probable space group: C M C A
;
_chemical_formula_sum "Si O2"
_cell_formula_units_Z 96
_cell_length_a 16.730373
_cell_length_b 11.891038
_cell_length_c 25.048702
_cell_angle_alpha 90.000000
_cell_angle_beta 90.000000
_cell_angle_gamma 90.000000
_cell_volume 4983.226376
_symmetry_space_group_name_H-M "C M C A"
_symmetry_group_IT_number 64
_symmetry_cell_setting 'orthorhombic'
loop_
_space_group_symop_operation_xyz
x,y,z
-x,1/2-y,1/2+z
x,-y,-z
-x,1/2+y,1/2-z
-x,-y,-z
x,1/2+y,1/2-z
-x,y,z
x,1/2-y,1/2+z
1/2+x,1/2+y,z
1/2-x,-y,1/2+z
1/2+x,1/2-y,-z
1/2-x,y,1/2-z
1/2-x,1/2-y,-z
1/2+x,y,1/2-z
1/2-x,1/2+y,z
1/2+x,-y,1/2+z
loop_
_atom_site_type_symbol
_atom_site_label
_atom_site_fract_x
_atom_site_fract_y
_atom_site_fract_z
Si Si1 0.593856 0.823655 0.306621
Si Si2 0.091394 0.729707 0.307397
Si Si3 0.705049 0.032555 0.305444
Si Si4 0.905348 0.681488 0.094904
Si Si5 0.907344 0.870160 0.481003
Si Si6 0.150549 0.062780 0.627676
O O1 0.500000 0.848207 0.313495
O O2 0.600161 0.739742 0.256597
O O3 0.640579 0.936249 0.293587
O O4 0.626836 0.765237 0.360168
O O5 0.157585 0.641223 0.326324
O O6 0.108302 0.852839 0.331239
O O7 0.000000 0.696633 0.319861
O O8 0.750000 0.059154 0.250000
O O9 0.766248 0.978488 0.347609
O O10 0.875716 0.692394 0.033982
O O11 0.894405 0.554476 0.116046
O O12 0.000000 0.700898 0.091052
O O13 0.852987 0.870432 0.428564
O O14 0.000000 0.836907 0.468179
O O15 0.911589 0.000000 0.500000
#
# Coordination Sequence:
#
# PCOD9480707 Si02
#       6
#    16  16  16  16  16  16
#     4  10  22  39  59  83 114 157 201 237 290 357
#     4  11  24  40  60  85 117 159 201 237 286 361
#     4  12  25  38  56  82 125 156 189 239 306 351
#     4   9  18  35  63  90 116 150 196 247 293 344
#     4   8  15  32  58  89 116 147 194 246 291 339
#     4  11  21  34  62  88 119 148 194 242 295 341
#
# _framework density 19.264627000000001
#
# number of rings (size 3 to 8) (size 9 to 14) (size 15 to 20)
#    0.000    1.833    1.667    4.000    4.667    0.000 
#    0.000    0.833    3.667    0.000    0.000    4.667 
#    0.000    0.000    0.000    0.000    0.000    0.000 
#
# Total GULP energy -267642.297692 kJ/mol
# GULP energy per Si atom -5575.881202 kJ/mol
# Density = 1.922078 g / cm^3
# Si number density = 19.264627 Si / 1000 Ang^3
#
#
#
# Elastic Constant Matrix: (Units=GPa)
#
#
# Indices 1 2 3 4 5 6 
#
# 1 63.7989 16.8797 34.3103 0.0000 0.0000 0.0000
# 2 16.8797 35.8884 3.8283 0.0000 0.0000 0.0000
# 3 34.3103 3.8283 93.6981 0.0000 0.0000 0.0000
# 4 0.0000 0.0000 0.0000 21.7483 0.0000 0.0000
# 5 0.0000 0.0000 0.0000 0.0000 24.8848 0.0000
# 6 0.0000 0.0000 0.0000 0.0000 0.0000 46.6756
#
#
#
# Elastic Compliance Matrix: (Units=1/GPa)
#
#
# Indices 1 2 3 4 5 6 
#
# 1 0.022456 -0.009727 -0.007826 0.000000 0.000000 0.000000
# 2 -0.009727 0.032200 0.002246 0.000000 0.000000 0.000000
# 3 -0.007826 0.002246 0.013446 0.000000 0.000000 0.000000
# 4 0.000000 0.000000 0.000000 0.045981 0.000000 0.000000
# 5 0.000000 0.000000 0.000000 0.000000 0.040185 0.000000
# 6 0.000000 0.000000 0.000000 0.000000 0.000000 0.021424
#
#
# Mechanical properties :
#
#
# Convention : Reuss Voigt Hill
#
# Bulk Modulus (GPa) = 26.67435 33.71355 30.19395
# Shear Modulus (GPa) = 22.85167 27.88620 25.36894
#
# Velocity S-wave (km/s) = 3.44786 3.80877 3.63280
# Velocity P-wave (km/s) = 5.45222 6.07294 5.77093
#
# Compressibility (1/GPa) = 0.03748920
#
# Stress axis : x y z
#
# Youngs Moduli (GPa) = 44.53071 31.05627 74.36946
#
# Poissons Ratio (x) = 0.30209 0.58199
# Poissons Ratio (y) = 0.43316 -0.16706
# Poissons Ratio (z) = 0.34848 -0.06976
#
# Static dielectric constant tensor:
#      x y z
#    x 1.680570 0.000000 0.000000 
#    y 0.000000 1.652560 0.000000 
#    z 0.000000 0.000000 1.731540 
# 
# From -- ./inp_files/46299.got.cif
#   From: 2010.05.17/outbox.cif.g08.bks.cpg/sg64_24_cif.got.tgz:46299.got - 2010.06.03 16:29:19.
