data_PCOD9480739
_publ_section_title
;
Structure prediction by ZEFSAII (Michael W. Deem and Ramdas Pophale) SiO2 
 PCOD9480739
Probable space group: C M C A
;
_chemical_formula_sum "Si O2"
_cell_formula_units_Z 112
_cell_length_a 15.700585
_cell_length_b 16.566743
_cell_length_c 21.880896
_cell_angle_alpha 90.000000
_cell_angle_beta 90.000000
_cell_angle_gamma 90.000000
_cell_volume 5691.386396
_symmetry_space_group_name_H-M "C M C A"
_symmetry_group_IT_number 64
_symmetry_cell_setting 'orthorhombic'
loop_
_space_group_symop_operation_xyz
x,y,z
-x,1/2-y,1/2+z
x,-y,-z
-x,1/2+y,1/2-z
-x,-y,-z
x,1/2+y,1/2-z
-x,y,z
x,1/2-y,1/2+z
1/2+x,1/2+y,z
1/2-x,-y,1/2+z
1/2+x,1/2-y,-z
1/2-x,y,1/2-z
1/2-x,1/2-y,-z
1/2+x,y,1/2-z
1/2-x,1/2+y,z
1/2+x,-y,1/2+z
loop_
_atom_site_type_symbol
_atom_site_label
_atom_site_fract_x
_atom_site_fract_y
_atom_site_fract_z
Si Si1 0.594429 0.160915 0.131073
Si Si2 0.596238 0.997273 0.200031
Si Si3 0.665207 0.033677 0.435867
Si Si4 0.200821 0.333699 0.985847
Si Si5 0.254772 0.257353 0.815941
Si Si6 0.598556 0.106972 0.316017
Si Si7 0.208931 0.896958 0.387562
O O1 0.500000 0.193466 0.142424
O O2 0.593265 0.066688 0.148044
O O3 0.625899 0.177185 0.062777
O O4 0.667288 0.195433 0.174275
O O5 0.500000 0.967593 0.210843
O O6 0.623835 0.042358 0.262808
O O7 0.653841 0.930068 0.168722
O O8 0.731084 0.104743 0.455105
O O9 0.604381 0.067082 0.383117
O O10 0.628317 0.000000 0.500000
O O11 0.719291 0.962113 0.404324
O O12 0.250000 0.250000 0.000000
O O13 0.166102 0.376517 0.047209
O O14 0.250000 0.217532 0.750000
O O15 0.334116 0.319390 0.817462
O O16 0.257227 0.189322 0.866596
O O17 0.500000 0.130568 0.302820
#
# Coordination Sequence:
#
# PCOD9480739 Si02
#       7
#    16  16  16  16  16  16  16
#     4  11  22  41  67  96 130 173 217 267 327 391
#     4  10  22  39  62  95 131 166 214 271 326 386
#     4  10  22  39  63  94 128 165 209 263 321 382
#     4  11  20  40  65  94 128 172 218 263 319 389
#     4  12  24  40  67  95 126 173 215 268 331 384
#     4  11  23  42  66  91 128 173 218 264 319 389
#     4  11  23  38  65  93 130 167 215 266 326 387
#
# _framework density 19.678861000000001
#
# number of rings (size 3 to 8) (size 9 to 14) (size 15 to 20)
#    0.000    1.143    5.714    0.000    2.000    1.429 
#    0.000    4.286    0.000    0.000    0.000    0.000 
#    0.000    0.000    0.000    0.000    0.000    0.000 
#
# Total GULP energy -312325.171091 kJ/mol
# GULP energy per Si atom -5577.235198 kJ/mol
# Density = 1.963407 g / cm^3
# Si number density = 19.678861 Si / 1000 Ang^3
#
#
#
# Elastic Constant Matrix: (Units=GPa)
#
#
# Indices 1 2 3 4 5 6 
#
# 1 80.4582 31.4237 22.6073 0.0000 0.0000 0.0000
# 2 31.4237 67.8306 26.3463 0.0000 0.0000 0.0000
# 3 22.6073 26.3463 102.6034 0.0000 0.0000 0.0000
# 4 0.0000 0.0000 0.0000 41.4058 0.0000 0.0000
# 5 0.0000 0.0000 0.0000 0.0000 7.7037 0.0000
# 6 0.0000 0.0000 0.0000 0.0000 0.0000 9.3993
#
#
#
# Elastic Compliance Matrix: (Units=1/GPa)
#
#
# Indices 1 2 3 4 5 6 
#
# 1 0.015449 -0.006481 -0.001740 0.000000 0.000000 0.000000
# 2 -0.006481 0.019095 -0.003475 0.000000 0.000000 0.000000
# 3 -0.001740 -0.003475 0.011022 0.000000 0.000000 0.000000
# 4 0.000000 0.000000 0.000000 0.024151 0.000000 0.000000
# 5 0.000000 0.000000 0.000000 0.000000 0.129807 0.000000
# 6 0.000000 0.000000 0.000000 0.000000 0.000000 0.106391
#
#
# Mechanical properties :
#
#
# Convention : Reuss Voigt Hill
#
# Bulk Modulus (GPa) = 45.09861 45.73854 45.41858
# Shear Modulus (GPa) = 14.85009 23.06943 18.95976
#
# Velocity S-wave (km/s) = 2.75002 3.42759 3.10733
# Velocity P-wave (km/s) = 5.74896 6.24159 6.00033
#
# Compressibility (1/GPa) = 0.02217363
#
# Stress axis : x y z
#
# Youngs Moduli (GPa) = 64.72925 52.36992 90.72826
#
# Poissons Ratio (x) = 0.33942 0.15784
# Poissons Ratio (y) = 0.41953 0.31529
# Poissons Ratio (z) = 0.11261 0.18199
#
# Static dielectric constant tensor:
#      x y z
#    x 1.695490 0.000000 0.000000 
#    y 0.000000 1.671650 0.000000 
#    z 0.000000 0.000000 3.446730 
# 
# From -- ./inp_files/45247.got.cif
#   From: 2010.05.17/outbox.cif.g08.bks.cpg/sg64_23_cif.got.tgz:45247.got - 2010.06.03 16:29:19.
