data_PCOD9480041
_publ_section_title
;
Structure prediction by ZEFSAII (Michael W. Deem and Ramdas Pophale) SiO2 
 PCOD9480041
Probable space group: C M C A
;
_chemical_formula_sum "Si O2"
_cell_formula_units_Z 112
_cell_length_a 15.499023
_cell_length_b 29.471978
_cell_length_c 10.489635
_cell_angle_alpha 90.000000
_cell_angle_beta 90.000000
_cell_angle_gamma 90.000000
_cell_volume 4791.527485
_symmetry_space_group_name_H-M "C M C A"
_symmetry_group_IT_number 64
_symmetry_cell_setting 'orthorhombic'
loop_
_space_group_symop_operation_xyz
x,y,z
-x,1/2-y,1/2+z
x,-y,-z
-x,1/2+y,1/2-z
-x,-y,-z
x,1/2+y,1/2-z
-x,y,z
x,1/2-y,1/2+z
1/2+x,1/2+y,z
1/2-x,-y,1/2+z
1/2+x,1/2-y,-z
1/2-x,y,1/2-z
1/2-x,1/2-y,-z
1/2+x,y,1/2-z
1/2-x,1/2+y,z
1/2+x,-y,1/2+z
loop_
_atom_site_type_symbol
_atom_site_label
_atom_site_fract_x
_atom_site_fract_y
_atom_site_fract_z
Si Si1 0.907971 0.225008 0.208822
Si Si2 0.603153 0.409934 0.817154
Si Si3 0.599400 0.599999 0.898035
Si Si4 0.598786 0.841548 0.921027
Si Si5 0.150247 0.318712 0.271263
Si Si6 0.775480 0.697853 0.479284
Si Si7 0.182653 0.493036 0.355933
O O1 0.908971 0.207495 0.353355
O O2 0.901297 0.279418 0.201380
O O3 0.824384 0.200485 0.154017
O O4 0.000000 0.209933 0.152977
O O5 0.500000 0.414718 0.829553
O O6 0.615553 0.378285 0.692646
O O7 0.644611 0.459545 0.805370
O O8 0.636069 0.392950 0.956951
O O9 0.500000 0.612367 0.903595
O O10 0.633201 0.628021 0.774728
O O11 0.612964 0.546703 0.873368
O O12 0.500000 0.851030 0.973458
O O13 0.690480 0.834331 0.995034
O O14 0.250000 0.308599 0.250000
O O15 0.146437 0.310562 0.422557
O O16 0.750000 0.750000 0.500000
O O17 0.219023 0.500000 0.500000
O O18 0.250000 0.477186 0.250000
#
# Coordination Sequence:
#
# PCOD9480041 Si02
#       7
#    16  16  16  16  16  16  16
#     4  11  23  38  58  82 113 154 203 255 308 370
#     4   9  19  38  64  92 120 156 208 265 318 381
#     4  10  21  38  61  90 122 162 210 262 320 386
#     4  10  21  38  60  89 122 159 205 260 320 381
#     4  12  23  39  57  82 117 160 202 251 310 382
#     4  12  23  40  60  83 123 162 206 260 321 384
#     4  10  21  38  64  96 129 166 210 267 335 402
#
# _framework density 23.374593000000001
#
# number of rings (size 3 to 8) (size 9 to 14) (size 15 to 20)
#    0.000    1.429    2.857    2.571    0.000    8.000 
#    0.000    0.000    0.000    3.429    0.000    0.000 
#    0.000    1.143    0.000    0.000    0.000    0.000 
#
# Total GULP energy -311880.543372 kJ/mol
# GULP energy per Si atom -5569.295417 kJ/mol
# Density = 2.332139 g / cm^3
# Si number density = 23.374593 Si / 1000 Ang^3
#
#
#
# Elastic Constant Matrix: (Units=GPa)
#
#
# Indices 1 2 3 4 5 6 
#
# 1 92.7750 4.5948 24.0056 0.0000 0.0000 0.0000
# 2 4.5948 90.0890 5.3226 0.0000 0.0000 0.0000
# 3 24.0056 5.3226 40.7104 0.0000 0.0000 0.0000
# 4 0.0000 0.0000 0.0000 32.6100 0.0000 0.0000
# 5 0.0000 0.0000 0.0000 0.0000 30.7222 0.0000
# 6 0.0000 0.0000 0.0000 0.0000 0.0000 29.1905
#
#
#
# Elastic Compliance Matrix: (Units=1/GPa)
#
#
# Indices 1 2 3 4 5 6 
#
# 1 0.012723 -0.000207 -0.007475 0.000000 0.000000 0.000000
# 2 -0.000207 0.011190 -0.001341 0.000000 0.000000 0.000000
# 3 -0.007475 -0.001341 0.029147 0.000000 0.000000 0.000000
# 4 0.000000 0.000000 0.000000 0.030665 0.000000 0.000000
# 5 0.000000 0.000000 0.000000 0.000000 0.032550 0.000000
# 6 0.000000 0.000000 0.000000 0.000000 0.000000 0.034258
#
#
# Mechanical properties :
#
#
# Convention : Reuss Voigt Hill
#
# Bulk Modulus (GPa) = 28.56055 32.38005 30.47030
# Shear Modulus (GPa) = 27.73908 31.14798 29.44353
#
# Velocity S-wave (km/s) = 3.44862 3.65438 3.55299
# Velocity P-wave (km/s) = 5.30117 5.62928 5.46769
#
# Compressibility (1/GPa) = 0.03501333
#
# Stress axis : x y z
#
# Youngs Moduli (GPa) = 78.59596 89.36611 34.30883
#
# Poissons Ratio (x) = 0.01852 0.25647
# Poissons Ratio (y) = 0.01629 0.04600
# Poissons Ratio (z) = 0.58754 0.11982
#
# Static dielectric constant tensor:
#      x y z
#    x 1.916500 0.000000 0.000000 
#    y 0.000000 1.972870 0.000000 
#    z 0.000000 0.000000 2.120890 
# 
# From -- ./inp_files/14953.got.cif
#   From: 2010.05.17/outbox.cif.g08.bks.cpg/sg64_8_cif.got.tgz:14953.got - 2010.06.03 16:29:19.
