data_PCOD9480226
_publ_section_title
;
Structure prediction by ZEFSAII (Michael W. Deem and Ramdas Pophale) SiO2 
 PCOD9480226
Probable space group: C M C A
;
_chemical_formula_sum "Si O2"
_cell_formula_units_Z 56
_cell_length_a 13.633065
_cell_length_b 23.500010
_cell_length_c 6.705146
_cell_angle_alpha 90.000000
_cell_angle_beta 90.000000
_cell_angle_gamma 90.000000
_cell_volume 2148.175659
_symmetry_space_group_name_H-M "C M C A"
_symmetry_group_IT_number 64
_symmetry_cell_setting 'orthorhombic'
loop_
_space_group_symop_operation_xyz
x,y,z
-x,1/2-y,1/2+z
x,-y,-z
-x,1/2+y,1/2-z
-x,-y,-z
x,1/2+y,1/2-z
-x,y,z
x,1/2-y,1/2+z
1/2+x,1/2+y,z
1/2-x,-y,1/2+z
1/2+x,1/2-y,-z
1/2-x,y,1/2-z
1/2-x,1/2-y,-z
1/2+x,y,1/2-z
1/2-x,1/2+y,z
1/2+x,-y,1/2+z
loop_
_atom_site_type_symbol
_atom_site_label
_atom_site_fract_x
_atom_site_fract_y
_atom_site_fract_z
Si Si1 0.608165 0.672228 0.126044
Si Si2 0.783722 0.935098 0.977322
Si Si3 0.750000 0.264543 0.250000
Si Si4 0.388428 0.139112 0.902997
O O1 0.500000 0.694459 0.074172
O O2 0.632461 0.612837 0.017198
O O3 0.697255 0.716467 0.102312
O O4 0.608090 0.660038 0.365087
O O5 0.750000 0.931226 0.750000
O O6 0.686118 0.914568 0.096305
O O7 0.814510 0.000000 0.000000
O O8 0.659346 0.309753 0.276216
O O9 0.500000 0.125800 0.850097
#
# Coordination Sequence:
#
# PCOD9480226 Si02
#       4
#    16  16   8  16
#     4  10  21  39  63  93 128 168 209 264 325 377
#     4  10  22  42  66  93 130 172 216 268 320 379
#     4  12  20  38  62  92 126 168 210 260 318 388
#     4  10  22  39  62  91 127 169 210 263 326 380
#
# _framework density 26.068632000000001
#
# number of rings (size 3 to 8) (size 9 to 14) (size 15 to 20)
#    0.000    1.714    4.286    1.714    2.000    1.143 
#    0.000    1.429    0.000    0.000    0.000    0.000 
#    0.000    0.000    0.000    0.000    0.000    0.000 
#
# Total GULP energy -156410.098050 kJ/mol
# GULP energy per Si atom -5586.074930 kJ/mol
# Density = 2.600930 g / cm^3
# Si number density = 26.068632 Si / 1000 Ang^3
#
#
#
# Elastic Constant Matrix: (Units=GPa)
#
#
# Indices 1 2 3 4 5 6 
#
# 1 240.2246 97.8647 50.7044 0.0000 0.0000 0.0000
# 2 97.8647 187.9013 43.1106 0.0000 0.0000 0.0000
# 3 50.7044 43.1106 87.8400 0.0000 0.0000 0.0000
# 4 0.0000 0.0000 0.0000 52.2185 0.0000 0.0000
# 5 0.0000 0.0000 0.0000 0.0000 47.8915 0.0000
# 6 0.0000 0.0000 0.0000 0.0000 0.0000 20.6238
#
#
#
# Elastic Compliance Matrix: (Units=1/GPa)
#
#
# Indices 1 2 3 4 5 6 
#
# 1 0.005586 -0.002445 -0.002025 0.000000 0.000000 0.000000
# 2 -0.002445 0.007067 -0.002057 0.000000 0.000000 0.000000
# 3 -0.002025 -0.002057 0.013563 0.000000 0.000000 0.000000
# 4 0.000000 0.000000 0.000000 0.019150 0.000000 0.000000
# 5 0.000000 0.000000 0.000000 0.000000 0.020881 0.000000
# 6 0.000000 0.000000 0.000000 0.000000 0.000000 0.048488
#
#
# Mechanical properties :
#
#
# Convention : Reuss Voigt Hill
#
# Bulk Modulus (GPa) = 75.97271 99.92504 87.94887
# Shear Modulus (GPa) = 37.82846 45.76584 41.79715
#
# Velocity S-wave (km/s) = 3.81348 4.19452 4.00853
# Velocity P-wave (km/s) = 6.97114 7.86597 7.43203
#
# Compressibility (1/GPa) = 0.01316262
#
# Stress axis : x y z
#
# Youngs Moduli (GPa) = 179.01467 141.49606 73.73181
#
# Poissons Ratio (x) = 0.34595 0.14928
# Poissons Ratio (y) = 0.43768 0.15168
# Poissons Ratio (z) = 0.36243 0.29109
#
# Static dielectric constant tensor:
#      x y z
#    x -4.664160 0.000000 0.000000 
#    y 0.000000 2.052300 0.000000 
#    z 0.000000 0.000000 -1.079120 
# 
# From -- ./inp_files/5504.got.cif
#   From: 2010.05.17/outbox.cif.g08.bks.cpg/sg64_3_cif.got.tgz:5504.got - 2010.06.03 16:29:19.
