data_PCOD9480916
_publ_section_title
;
Structure prediction by ZEFSAII (Michael W. Deem and Ramdas Pophale) SiO2 
 PCOD9480916
Probable space group: C M C A
;
_chemical_formula_sum "Si O2"
_cell_formula_units_Z 96
_cell_length_a 22.286831
_cell_length_b 24.148835
_cell_length_c 8.212618
_cell_angle_alpha 90.000000
_cell_angle_beta 90.000000
_cell_angle_gamma 90.000000
_cell_volume 4420.039257
_symmetry_space_group_name_H-M "C M C A"
_symmetry_group_IT_number 64
_symmetry_cell_setting 'orthorhombic'
loop_
_space_group_symop_operation_xyz
x,y,z
-x,1/2-y,1/2+z
x,-y,-z
-x,1/2+y,1/2-z
-x,-y,-z
x,1/2+y,1/2-z
-x,y,z
x,1/2-y,1/2+z
1/2+x,1/2+y,z
1/2-x,-y,1/2+z
1/2+x,1/2-y,-z
1/2-x,y,1/2-z
1/2-x,1/2-y,-z
1/2+x,y,1/2-z
1/2-x,1/2+y,z
1/2+x,-y,1/2+z
loop_
_atom_site_type_symbol
_atom_site_label
_atom_site_fract_x
_atom_site_fract_y
_atom_site_fract_z
Si Si1 0.127854 0.133834 0.997583
Si Si2 0.187615 0.534035 0.671878
Si Si3 0.500000 0.312600 0.468436
Si Si4 0.632328 0.330687 0.510713
Si Si5 0.000000 0.315147 0.421396
Si Si6 0.819197 0.422368 0.807499
Si Si7 0.681743 0.273321 0.193587
O O1 0.144330 0.084213 0.872941
O O2 0.172470 0.184650 0.956898
O O3 0.060582 0.155535 0.981148
O O4 0.141445 0.109005 0.172965
O O5 0.198608 0.500000 0.500000
O O6 0.250000 0.554065 0.750000
O O7 0.164649 0.486825 0.795330
O O8 0.561555 0.338832 0.531661
O O9 0.500000 0.248216 0.519545
O O10 0.500000 0.315991 0.273674
O O11 0.668468 0.387746 0.530660
O O12 0.643789 0.301399 0.337700
O O13 0.656794 0.285736 0.639521
O O14 0.750000 0.418180 0.750000
O O15 0.750000 0.269833 0.250000
#
# Coordination Sequence:
#
# PCOD9480916 Si02
#       7
#    16  16   8  16   8  16  16
#     4  11  22  40  64  92 125 171 213 261 313 374
#     4   9  20  40  65  95 127 165 209 259 324 385
#     4  12  24  44  61  85 127 171 216 257 307 376
#     4  12  23  39  60  89 125 162 213 256 316 383
#     4  12  26  44  64  89 128 172 226 258 311 380
#     4  10  22  41  64  96 129 160 208 262 320 387
#     4  12  23  37  60  91 125 160 202 265 326 376
#
# _framework density 21.719263000000002
#
# number of rings (size 3 to 8) (size 9 to 14) (size 15 to 20)
#    0.000    1.000    3.333    3.500    2.333    2.667 
#    0.000    4.583    0.000    1.000    0.000    0.000 
#    0.000    0.000    0.000    0.000    0.000    0.000 
#
# Total GULP energy -268709.826309 kJ/mol
# GULP energy per Si atom -5598.121381 kJ/mol
# Density = 2.166983 g / cm^3
# Si number density = 21.719263 Si / 1000 Ang^3
#
#
#
# Elastic Constant Matrix: (Units=GPa)
#
#
# Indices 1 2 3 4 5 6 
#
# 1 104.4501 1.7388 -2.1600 0.0000 0.0000 0.0000
# 2 1.7388 84.3125 2.8316 0.0000 0.0000 0.0000
# 3 -2.1600 2.8316 47.7147 0.0000 0.0000 0.0000
# 4 0.0000 0.0000 0.0000 61.6476 0.0000 0.0000
# 5 0.0000 0.0000 0.0000 0.0000 30.5030 0.0000
# 6 0.0000 0.0000 0.0000 0.0000 0.0000 21.2540
#
#
#
# Elastic Compliance Matrix: (Units=1/GPa)
#
#
# Indices 1 2 3 4 5 6 
#
# 1 0.009587 -0.000213 0.000447 0.000000 0.000000 0.000000
# 2 -0.000213 0.011889 -0.000715 0.000000 0.000000 0.000000
# 3 0.000447 -0.000715 0.021021 0.000000 0.000000 0.000000
# 4 0.000000 0.000000 0.000000 0.016221 0.000000 0.000000
# 5 0.000000 0.000000 0.000000 0.000000 0.032784 0.000000
# 6 0.000000 0.000000 0.000000 0.000000 0.000000 0.047050
#
#
# Mechanical properties :
#
#
# Convention : Reuss Voigt Hill
#
# Bulk Modulus (GPa) = 24.07679 26.81090 25.44385
# Shear Modulus (GPa) = 32.60336 38.28538 35.44437
#
# Velocity S-wave (km/s) = 3.87864 4.20305 4.04410
# Velocity P-wave (km/s) = 5.58283 5.99377 5.79195
#
# Compressibility (1/GPa) = 0.04153378
#
# Stress axis : x y z
#
# Youngs Moduli (GPa) = 104.31089 84.11111 47.57248
#
# Poissons Ratio (x) = 0.01789 -0.02125
# Poissons Ratio (y) = 0.02219 0.03402
# Poissons Ratio (z) = -0.04659 0.06015
#
# Static dielectric constant tensor:
#      x y z
#    x 1.745840 0.000000 0.000000 
#    y 0.000000 1.785070 0.000000 
#    z 0.000000 0.000000 1.894890 
# 
# From -- ./inp_files/9535.got.cif
#   From: 2010.05.17/outbox.cif.g08.bks.cpg/sg64_5_cif.got.tgz:9535.got - 2010.06.03 16:29:19.
