data_PCOD9480437
_publ_section_title
;
Structure prediction by ZEFSAII (Michael W. Deem and Ramdas Pophale) SiO2 
 PCOD9480437
Probable space group: C M C A
;
_chemical_formula_sum "Si O2"
_cell_formula_units_Z 104
_cell_length_a 25.485092
_cell_length_b 9.125356
_cell_length_c 21.479347
_cell_angle_alpha 90.000000
_cell_angle_beta 90.000000
_cell_angle_gamma 90.000000
_cell_volume 4995.248477
_symmetry_space_group_name_H-M "C M C A"
_symmetry_group_IT_number 64
_symmetry_cell_setting 'orthorhombic'
loop_
_space_group_symop_operation_xyz
x,y,z
-x,1/2-y,1/2+z
x,-y,-z
-x,1/2+y,1/2-z
-x,-y,-z
x,1/2+y,1/2-z
-x,y,z
x,1/2-y,1/2+z
1/2+x,1/2+y,z
1/2-x,-y,1/2+z
1/2+x,1/2-y,-z
1/2-x,y,1/2-z
1/2-x,1/2-y,-z
1/2+x,y,1/2-z
1/2-x,1/2+y,z
1/2+x,-y,1/2+z
loop_
_atom_site_type_symbol
_atom_site_label
_atom_site_fract_x
_atom_site_fract_y
_atom_site_fract_z
Si Si1 0.885930 0.444997 0.365107
Si Si2 0.000000 0.095161 0.815006
Si Si3 0.000000 0.873783 0.331627
Si Si4 0.888930 0.259599 0.123456
Si Si5 0.695947 0.766432 0.306224
Si Si6 0.705432 0.077294 0.826621
Si Si7 0.000000 0.160468 0.406538
Si Si8 0.580931 0.158477 0.513421
O O1 0.864149 0.606335 0.351800
O O2 0.861873 0.313004 0.326860
O O3 0.876889 0.398661 0.436488
O O4 0.947325 0.462840 0.347920
O O5 0.000000 0.263016 0.838541
O O6 0.000000 0.076137 0.740891
O O7 0.055983 0.793668 0.342259
O O8 0.000000 0.992607 0.387850
O O9 0.845203 0.383666 0.132309
O O10 0.901873 0.227764 0.051276
O O11 0.698137 0.830433 0.236845
O O12 0.706813 0.594947 0.312216
O O13 0.738064 0.859316 0.347267
O O14 0.047952 0.223106 0.447300
O O15 0.553849 0.000000 0.500000
#
# Coordination Sequence:
#
# PCOD9480437 Si02
#       8
#    16   8   8  16  16  16   8  16
#     4  10  21  41  65  88 123 168 211 262 308 381
#     4  10  23  37  60  85 131 167 209 246 322 372
#     4  12  26  35  58  94 134 168 203 262 319 372
#     4  11  23  39  61  91 125 163 215 256 320 369
#     4  11  22  41  65  93 126 162 212 257 332 373
#     4  11  23  39  65  93 123 165 204 269 314 387
#     4  10  22  38  59  89 127 168 218 260 312 378
#     4   9  20  40  63  85 118 171 218 262 310 371
#
# _framework density 20.819785
#
# number of rings (size 3 to 8) (size 9 to 14) (size 15 to 20)
#    0.000    1.538    0.000    5.769    6.462    3.692 
#    0.000    0.769    0.000    0.000    0.000    0.000 
#    0.000    0.000    0.000    0.000    0.000    0.000 
#
# Total GULP energy -289643.036261 kJ/mol
# GULP energy per Si atom -5570.058390 kJ/mol
# Density = 2.077240 g / cm^3
# Si number density = 20.819785 Si / 1000 Ang^3
#
#
#
# Elastic Constant Matrix: (Units=GPa)
#
#
# Indices 1 2 3 4 5 6 
#
# 1 68.1946 28.9527 16.6380 0.0000 0.0000 0.0000
# 2 28.9527 140.8845 21.1536 0.0000 0.0000 0.0000
# 3 16.6380 21.1536 93.9829 0.0000 0.0000 0.0000
# 4 0.0000 0.0000 0.0000 26.9267 0.0000 0.0000
# 5 0.0000 0.0000 0.0000 0.0000 41.4764 0.0000
# 6 0.0000 0.0000 0.0000 0.0000 0.0000 19.0164
#
#
#
# Elastic Compliance Matrix: (Units=1/GPa)
#
#
# Indices 1 2 3 4 5 6 
#
# 1 0.016507 -0.003057 -0.002234 0.000000 0.000000 0.000000
# 2 -0.003057 0.007912 -0.001240 0.000000 0.000000 0.000000
# 3 -0.002234 -0.001240 0.011315 0.000000 0.000000 0.000000
# 4 0.000000 0.000000 0.000000 0.037138 0.000000 0.000000
# 5 0.000000 0.000000 0.000000 0.000000 0.024110 0.000000
# 6 0.000000 0.000000 0.000000 0.000000 0.000000 0.052586
#
#
# Mechanical properties :
#
#
# Convention : Reuss Voigt Hill
#
# Bulk Modulus (GPa) = 44.10642 48.50563 46.30603
# Shear Modulus (GPa) = 29.37944 33.23842 31.30893
#
# Velocity S-wave (km/s) = 3.76058 3.99994 3.88210
# Velocity P-wave (km/s) = 6.33141 6.68439 6.51029
#
# Compressibility (1/GPa) = 0.02267243
#
# Stress axis : x y z
#
# Youngs Moduli (GPa) = 60.58103 126.38467 88.37975
#
# Poissons Ratio (x) = 0.38633 0.19746
# Poissons Ratio (y) = 0.18518 0.10957
# Poissons Ratio (z) = 0.13535 0.15669
#
# Static dielectric constant tensor:
#      x y z
#    x 1.900970 0.000000 0.000000 
#    y 0.000000 1.787640 0.000000 
#    z 0.000000 0.000000 1.762780 
# 
# From -- ./inp_files/41902.got.cif
#   From: 2010.05.17/outbox.cif.g08.bks.cpg/sg64_21_cif.got.tgz:41902.got - 2010.06.03 16:29:19.
