data_PCOD9480118
_publ_section_title
;
Structure prediction by ZEFSAII (Michael W. Deem and Ramdas Pophale) SiO2 
 PCOD9480118
Probable space group: C M C A
;
_chemical_formula_sum "Si O2"
_cell_formula_units_Z 112
_cell_length_a 14.249388
_cell_length_b 13.637969
_cell_length_c 26.985314
_cell_angle_alpha 90.000000
_cell_angle_beta 90.000000
_cell_angle_gamma 90.000000
_cell_volume 5244.129249
_symmetry_space_group_name_H-M "C M C A"
_symmetry_group_IT_number 64
_symmetry_cell_setting 'orthorhombic'
loop_
_space_group_symop_operation_xyz
x,y,z
-x,1/2-y,1/2+z
x,-y,-z
-x,1/2+y,1/2-z
-x,-y,-z
x,1/2+y,1/2-z
-x,y,z
x,1/2-y,1/2+z
1/2+x,1/2+y,z
1/2-x,-y,1/2+z
1/2+x,1/2-y,-z
1/2-x,y,1/2-z
1/2-x,1/2-y,-z
1/2+x,y,1/2-z
1/2-x,1/2+y,z
1/2+x,-y,1/2+z
loop_
_atom_site_type_symbol
_atom_site_label
_atom_site_fract_x
_atom_site_fract_y
_atom_site_fract_z
Si Si1 0.717276 0.224028 0.805204
Si Si2 0.290731 0.503817 0.695659
Si Si3 0.286041 0.165608 0.963896
Si Si4 0.106125 0.921701 0.554473
Si Si5 0.791596 0.990902 0.094075
Si Si6 0.388736 0.689875 0.108762
Si Si7 0.893663 0.187165 0.347419
O O1 0.750000 0.250557 0.750000
O O2 0.671400 0.115884 0.803584
O O3 0.649772 0.297297 0.835075
O O4 0.816013 0.232819 0.834418
O O5 0.250000 0.484379 0.750000
O O6 0.210617 0.514765 0.653320
O O7 0.358353 0.414889 0.678658
O O8 0.198609 0.103541 0.940795
O O9 0.343150 0.218863 0.920299
O O10 0.250000 0.250000 0.000000
O O11 0.355557 0.107012 0.000884
O O12 0.107414 0.831581 0.593587
O O13 0.000000 0.958468 0.554035
O O14 0.182361 0.990935 0.580017
O O15 0.849924 0.089260 0.084125
O O16 0.500000 0.691753 0.107112
O O17 0.000000 0.209529 0.332071
#
# Coordination Sequence:
#
# PCOD9480118 Si02
#       7
#    16  16  16  16  16  16  16
#     4  11  22  42  67  95 132 170 219 276 334 398
#     4  10  21  40  66  91 130 170 207 268 339 392
#     4  12  23  42  68  92 135 179 220 267 336 390
#     4  10  21  38  64  94 125 164 218 273 323 382
#     4  11  23  42  65  95 133 169 217 279 329 388
#     4  12  26  44  67 101 135 176 225 276 338 410
#     4  10  21  40  66  95 126 166 220 271 326 391
#
# _framework density 21.357216000000001
#
# number of rings (size 3 to 8) (size 9 to 14) (size 15 to 20)
#    0.000    1.143    5.714    1.286    0.000    2.857 
#    0.000    5.000    0.000    0.000    0.000    0.000 
#    0.000    0.000    0.000    0.000    0.000    0.000 
#
# Total GULP energy -312167.432783 kJ/mol
# GULP energy per Si atom -5574.418443 kJ/mol
# Density = 2.130861 g / cm^3
# Si number density = 21.357216 Si / 1000 Ang^3
#
#
#
# Elastic Constant Matrix: (Units=GPa)
#
#
# Indices 1 2 3 4 5 6 
#
# 1 86.3139 32.2297 19.9939 0.0000 0.0000 0.0000
# 2 32.2297 111.6158 26.6641 0.0000 0.0000 0.0000
# 3 19.9939 26.6641 126.9071 0.0000 0.0000 0.0000
# 4 0.0000 0.0000 0.0000 26.3643 0.0000 0.0000
# 5 0.0000 0.0000 0.0000 0.0000 18.4797 0.0000
# 6 0.0000 0.0000 0.0000 0.0000 0.0000 12.3284
#
#
#
# Elastic Compliance Matrix: (Units=1/GPa)
#
#
# Indices 1 2 3 4 5 6 
#
# 1 0.013201 -0.003490 -0.001346 0.000000 0.000000 0.000000
# 2 -0.003490 0.010356 -0.001626 0.000000 0.000000 0.000000
# 3 -0.001346 -0.001626 0.008434 0.000000 0.000000 0.000000
# 4 0.000000 0.000000 0.000000 0.037930 0.000000 0.000000
# 5 0.000000 0.000000 0.000000 0.000000 0.054113 0.000000
# 6 0.000000 0.000000 0.000000 0.000000 0.000000 0.081113
#
#
# Mechanical properties :
#
#
# Convention : Reuss Voigt Hill
#
# Bulk Modulus (GPa) = 52.45266 53.62358 53.03812
# Shear Modulus (GPa) = 22.27902 27.83111 25.05506
#
# Velocity S-wave (km/s) = 3.23330 3.61380 3.42883
# Velocity P-wave (km/s) = 6.20903 6.52496 6.36896
#
# Compressibility (1/GPa) = 0.01906481
#
# Stress axis : x y z
#
# Youngs Moduli (GPa) = 75.75344 96.56696 118.57444
#
# Poissons Ratio (x) = 0.33703 0.15965
# Poissons Ratio (y) = 0.26439 0.19279
# Poissons Ratio (z) = 0.10200 0.15701
#
# Static dielectric constant tensor:
#      x y z
#    x 1.741500 0.000000 0.000000 
#    y 0.000000 1.979110 0.000000 
#    z 0.000000 0.000000 1.844010 
# 
# From -- ./inp_files/50044.got.cif
#   From: 2010.05.17/outbox.cif.g08.bks.cpg/sg64_26_cif.got.tgz:50044.got - 2010.06.03 16:29:19.
