data_PCOD9480735
_publ_section_title
;
Structure prediction by ZEFSAII (Michael W. Deem and Ramdas Pophale) SiO2 
 PCOD9480735
Probable space group: C M C A
;
_chemical_formula_sum "Si O2"
_cell_formula_units_Z 80
_cell_length_a 14.006828
_cell_length_b 11.601627
_cell_length_c 23.161197
_cell_angle_alpha 90.000000
_cell_angle_beta 90.000000
_cell_angle_gamma 90.000000
_cell_volume 3763.740694
_symmetry_space_group_name_H-M "C M C A"
_symmetry_group_IT_number 64
_symmetry_cell_setting 'orthorhombic'
loop_
_space_group_symop_operation_xyz
x,y,z
-x,1/2-y,1/2+z
x,-y,-z
-x,1/2+y,1/2-z
-x,-y,-z
x,1/2+y,1/2-z
-x,y,z
x,1/2-y,1/2+z
1/2+x,1/2+y,z
1/2-x,-y,1/2+z
1/2+x,1/2-y,-z
1/2-x,y,1/2-z
1/2-x,1/2-y,-z
1/2+x,y,1/2-z
1/2-x,1/2+y,z
1/2+x,-y,1/2+z
loop_
_atom_site_type_symbol
_atom_site_label
_atom_site_fract_x
_atom_site_fract_y
_atom_site_fract_z
Si Si1 0.785811 0.243235 0.064915
Si Si2 0.192498 0.934319 0.351526
Si Si3 0.393208 0.557109 0.133155
Si Si4 0.648048 0.270641 0.766203
Si Si5 0.396913 0.180739 0.141650
O O1 0.828256 0.361697 0.090194
O O2 0.857350 0.138403 0.080122
O O3 0.692011 0.223177 0.104430
O O4 0.750000 0.250000 0.000000
O O5 0.168973 0.848537 0.298979
O O6 0.303881 0.972805 0.354429
O O7 0.126934 0.046443 0.347624
O O8 0.500000 0.508783 0.123803
O O9 0.397710 0.643568 0.187893
O O10 0.750000 0.325076 0.750000
O O11 0.600744 0.259359 0.704258
O O12 0.500000 0.194798 0.113285
#
# Coordination Sequence:
#
# PCOD9480735 Si02
#       5
#    16  16  16  16  16
#     4  10  23  43  64  85 122 165 205 256 310 358
#     4  10  22  40  64  85 125 163 198 245 312 356
#     4  10  22  39  62  92 122 158 207 252 300 368
#     4  11  20  39  61  87 126 161 191 240 304 367
#     4  11  24  39  61  93 122 155 206 251 300 369
#
# _framework density 21.255448999999999
#
# number of rings (size 3 to 8) (size 9 to 14) (size 15 to 20)
#    0.000    1.600    6.000    0.600    2.800    8.800 
#    0.000    2.000    0.000    0.000    0.000    0.000 
#    0.000    0.000    0.000    0.000    0.000    0.000 
#
# Total GULP energy -223319.515486 kJ/mol
# GULP energy per Si atom -5582.987887 kJ/mol
# Density = 2.120707 g / cm^3
# Si number density = 21.255449 Si / 1000 Ang^3
#
#
#
# Elastic Constant Matrix: (Units=GPa)
#
#
# Indices 1 2 3 4 5 6 
#
# 1 94.3652 1.4119 -11.2464 0.0000 0.0000 0.0000
# 2 1.4119 91.8756 29.3764 0.0000 0.0000 0.0000
# 3 -11.2464 29.3764 127.8023 0.0000 0.0000 0.0000
# 4 0.0000 0.0000 0.0000 9.4541 0.0000 0.0000
# 5 0.0000 0.0000 0.0000 0.0000 1.7840 0.0000
# 6 0.0000 0.0000 0.0000 0.0000 0.0000 -0.4679
#
#
#
# Elastic Compliance Matrix: (Units=1/GPa)
#
#
# Indices 1 2 3 4 5 6 
#
# 1 0.010731 -0.000504 0.001060 0.000000 0.000000 0.000000
# 2 -0.000504 0.011771 -0.002750 0.000000 0.000000 0.000000
# 3 0.001060 -0.002750 0.008550 0.000000 0.000000 0.000000
# 4 0.000000 0.000000 0.000000 0.105774 0.000000 0.000000
# 5 0.000000 0.000000 0.000000 0.000000 0.560551 0.000000
# 6 0.000000 0.000000 0.000000 0.000000 0.000000 -2.137352
#
#
# Mechanical properties :
#
#
# Convention : Reuss Voigt Hill
#
# Bulk Modulus (GPa) = 37.50274 39.23630 38.36952
# Shear Modulus (GPa) = -3.50459 21.78745 9.14143
#
# Velocity S-wave (km/s) = -1.28545 3.20508 2.07607
# Velocity P-wave (km/s) = 3.93433 5.67417 4.88237
#
# Compressibility (1/GPa) = 0.02666472
#
# Stress axis : x y z
#
# Youngs Moduli (GPa) = 93.18783 84.95208 116.95904
#
# Poissons Ratio (x) = 0.04281 -0.12399
# Poissons Ratio (y) = 0.04696 0.32165
# Poissons Ratio (z) = -0.09879 0.23362
#
# Static dielectric constant tensor:
#      x y z
#    x 1.793580 0.000000 0.000000 
#    y 0.000000 1.813120 0.000000 
#    z 0.000000 0.000000 1.749380 
# 
# From -- ./inp_files/44921.got.cif
#   From: 2010.05.17/outbox.cif.g08.bks.cpg/sg64_23_cif.got.tgz:44921.got - 2010.06.03 16:29:19.
