data_PCOD9480065
_publ_section_title
;
Structure prediction by ZEFSAII (Michael W. Deem and Ramdas Pophale) SiO2 
 PCOD9480065
Probable space group: C M C A
;
_chemical_formula_sum "Si O2"
_cell_formula_units_Z 64
_cell_length_a 10.331700
_cell_length_b 22.632666
_cell_length_c 12.719929
_cell_angle_alpha 90.000000
_cell_angle_beta 90.000000
_cell_angle_gamma 90.000000
_cell_volume 2974.350801
_symmetry_space_group_name_H-M "C M C A"
_symmetry_group_IT_number 64
_symmetry_cell_setting 'orthorhombic'
loop_
_space_group_symop_operation_xyz
x,y,z
-x,1/2-y,1/2+z
x,-y,-z
-x,1/2+y,1/2-z
-x,-y,-z
x,1/2+y,1/2-z
-x,y,z
x,1/2-y,1/2+z
1/2+x,1/2+y,z
1/2-x,-y,1/2+z
1/2+x,1/2-y,-z
1/2-x,y,1/2-z
1/2-x,1/2-y,-z
1/2+x,y,1/2-z
1/2-x,1/2+y,z
1/2+x,-y,1/2+z
loop_
_atom_site_type_symbol
_atom_site_label
_atom_site_fract_x
_atom_site_fract_y
_atom_site_fract_z
Si Si1 0.646673 0.734074 0.345854
Si Si2 0.634673 0.416377 0.828427
Si Si3 0.220687 0.343704 0.491824
Si Si4 0.155539 0.449900 0.351078
O O1 0.500000 0.732206 0.305155
O O2 0.750000 0.729878 0.250000
O O3 0.665308 0.685539 0.438945
O O4 0.671664 0.795173 0.409282
O O5 0.500000 0.418989 0.767535
O O6 0.750000 0.406226 0.750000
O O7 0.651246 0.480780 0.881052
O O8 0.630393 0.365004 0.913177
O O9 0.227883 0.404420 0.427687
O O10 0.250000 0.448644 0.250000
O O11 0.000000 0.433238 0.338363
#
# Coordination Sequence:
#
# PCOD9480065 Si02
#       4
#    16  16  16  16
#     4  11  26  44  63  89 121 160 206 257 308 358
#     4  10  21  38  61  90 124 159 198 245 299 359
#     4  11  23  39  64  90 119 158 204 247 299 362
#     4  10  21  38  62  92 124 160 200 247 302 360
#
# _framework density 21.517299000000001
#
# number of rings (size 3 to 8) (size 9 to 14) (size 15 to 20)
#    0.000    1.500    0.000    4.500    0.000   12.000 
#    0.000    0.000    0.000    7.500    0.000    0.000 
#    0.000    0.000    0.000    0.000    0.000    0.000 
#
# Total GULP energy -178152.980523 kJ/mol
# GULP energy per Si atom -5567.280641 kJ/mol
# Density = 2.146832 g / cm^3
# Si number density = 21.517299 Si / 1000 Ang^3
#
#
#
# Elastic Constant Matrix: (Units=GPa)
#
#
# Indices 1 2 3 4 5 6 
#
# 1 137.3030 41.2317 67.6256 0.0000 0.0000 0.0000
# 2 41.2317 105.1692 53.6225 0.0000 0.0000 0.0000
# 3 67.6256 53.6225 98.9202 0.0000 0.0000 0.0000
# 4 0.0000 0.0000 0.0000 54.4036 0.0000 0.0000
# 5 0.0000 0.0000 0.0000 0.0000 16.8953 0.0000
# 6 0.0000 0.0000 0.0000 0.0000 0.0000 12.7661
#
#
#
# Elastic Compliance Matrix: (Units=1/GPa)
#
#
# Indices 1 2 3 4 5 6 
#
# 1 0.011014 -0.000662 -0.007171 0.000000 0.000000 0.000000
# 2 -0.000662 0.013180 -0.006692 0.000000 0.000000 0.000000
# 3 -0.007171 -0.006692 0.018639 0.000000 0.000000 0.000000
# 4 0.000000 0.000000 0.000000 0.018381 0.000000 0.000000
# 5 0.000000 0.000000 0.000000 0.000000 0.059188 0.000000
# 6 0.000000 0.000000 0.000000 0.000000 0.000000 0.078333
#
#
# Mechanical properties :
#
#
# Convention : Reuss Voigt Hill
#
# Bulk Modulus (GPa) = 72.55074 74.03909 73.29491
# Shear Modulus (GPa) = 21.51665 28.74050 25.12858
#
# Velocity S-wave (km/s) = 3.16566 3.65868 3.42106
# Velocity P-wave (km/s) = 6.86677 7.23407 7.05281
#
# Compressibility (1/GPa) = 0.01378346
#
# Stress axis : x y z
#
# Youngs Moduli (GPa) = 90.79676 75.87199 53.65132
#
# Poissons Ratio (x) = 0.05022 0.38471
# Poissons Ratio (y) = 0.06010 0.35904
# Poissons Ratio (z) = 0.65106 0.50775
#
# Static dielectric constant tensor:
#      x y z
#    x 1.787690 0.000000 0.000000 
#    y 0.000000 1.823810 0.000000 
#    z 0.000000 0.000000 1.799520 
# 
# From -- ./inp_files/12820.got.cif
#   From: 2010.05.17/outbox.cif.g08.bks.cpg/sg64_7_cif.got.tgz:12820.got - 2010.06.03 16:29:19.
