data_PCOD9480058
_publ_section_title
;
Structure prediction by ZEFSAII (Michael W. Deem and Ramdas Pophale) SiO2 
 PCOD9480058
Probable space group: C M C A
;
_chemical_formula_sum "Si O2"
_cell_formula_units_Z 96
_cell_length_a 9.074068
_cell_length_b 24.203393
_cell_length_c 22.121282
_cell_angle_alpha 90.000000
_cell_angle_beta 90.000000
_cell_angle_gamma 90.000000
_cell_volume 4858.347491
_symmetry_space_group_name_H-M "C M C A"
_symmetry_group_IT_number 64
_symmetry_cell_setting 'orthorhombic'
loop_
_space_group_symop_operation_xyz
x,y,z
-x,1/2-y,1/2+z
x,-y,-z
-x,1/2+y,1/2-z
-x,-y,-z
x,1/2+y,1/2-z
-x,y,z
x,1/2-y,1/2+z
1/2+x,1/2+y,z
1/2-x,-y,1/2+z
1/2+x,1/2-y,-z
1/2-x,y,1/2-z
1/2-x,1/2-y,-z
1/2+x,y,1/2-z
1/2-x,1/2+y,z
1/2+x,-y,1/2+z
loop_
_atom_site_type_symbol
_atom_site_label
_atom_site_fract_x
_atom_site_fract_y
_atom_site_fract_z
Si Si1 0.325708 0.938937 0.188021
Si Si2 0.171313 0.370022 0.920891
Si Si3 0.330505 0.316486 0.353918
Si Si4 0.826002 0.806526 0.022044
Si Si5 0.672710 0.501078 0.431244
Si Si6 0.172721 0.192900 0.188420
O O1 0.500000 0.952028 0.191369
O O2 0.250000 0.958268 0.250000
O O3 0.310376 0.872664 0.182848
O O4 0.267417 0.964591 0.124504
O O5 0.178456 0.435371 0.910551
O O6 0.248152 0.335768 0.867908
O O7 0.000000 0.353898 0.925992
O O8 0.254832 0.354835 0.982308
O O9 0.500000 0.317336 0.377920
O O10 0.217340 0.315204 0.408878
O O11 0.314188 0.259248 0.318334
O O12 0.000000 0.803423 0.012747
O O13 0.750000 0.750000 0.000000
O O14 0.735100 0.500000 0.500000
O O15 0.500000 0.483730 0.437782
O O16 0.250000 0.175094 0.250000
O O17 0.000000 0.179203 0.188378
#
# Coordination Sequence:
#
# PCOD9480058 Si02
#       6
#    16  16  16  16  16  16
#     4  10  21  39  63  91 122 161 209 259 312 372
#     4  11  22  38  61  88 119 156 197 244 298 358
#     4  10  21  38  61  87 119 159 201 248 300 360
#     4  12  23  36  58  88 122 157 195 242 300 364
#     4   9  19  38  64  90 118 157 207 257 308 365
#     4  11  23  38  57  83 118 157 199 244 295 358
#
# _framework density 19.759805
#
# number of rings (size 3 to 8) (size 9 to 14) (size 15 to 20)
#    0.000    1.500    1.667    4.000    0.000    4.667 
#    0.000    3.333    0.000    3.500    0.000    0.000 
#    0.000    0.000    0.000    0.000    0.000    0.000 
#
# Total GULP energy -268083.373164 kJ/mol
# GULP energy per Si atom -5585.070274 kJ/mol
# Density = 1.971483 g / cm^3
# Si number density = 19.759805 Si / 1000 Ang^3
#
#
#
# Elastic Constant Matrix: (Units=GPa)
#
#
# Indices 1 2 3 4 5 6 
#
# 1 110.4119 24.5995 48.5123 0.0000 0.0000 0.0000
# 2 24.5995 45.7284 13.0560 0.0000 0.0000 0.0000
# 3 48.5123 13.0560 107.6837 0.0000 0.0000 0.0000
# 4 0.0000 0.0000 0.0000 10.1647 0.0000 0.0000
# 5 0.0000 0.0000 0.0000 0.0000 36.5560 0.0000
# 6 0.0000 0.0000 0.0000 0.0000 0.0000 16.0165
#
#
#
# Elastic Compliance Matrix: (Units=1/GPa)
#
#
# Indices 1 2 3 4 5 6 
#
# 1 0.012404 -0.005259 -0.004950 0.000000 0.000000 0.000000
# 2 -0.005259 0.024882 -0.000648 0.000000 0.000000 0.000000
# 3 -0.004950 -0.000648 0.011595 0.000000 0.000000 0.000000
# 4 0.000000 0.000000 0.000000 0.098380 0.000000 0.000000
# 5 0.000000 0.000000 0.000000 0.000000 0.027355 0.000000
# 6 0.000000 0.000000 0.000000 0.000000 0.000000 0.062436
#
#
# Mechanical properties :
#
#
# Convention : Reuss Voigt Hill
#
# Bulk Modulus (GPa) = 36.80925 48.46216 42.63571
# Shear Modulus (GPa) = 18.66911 24.39117 21.53014
#
# Velocity S-wave (km/s) = 3.07710 3.51719 3.30448
# Velocity P-wave (km/s) = 5.59406 6.40883 6.01525
#
# Compressibility (1/GPa) = 0.02716708
#
# Stress axis : x y z
#
# Youngs Moduli (GPa) = 80.62046 40.18921 86.24307
#
# Poissons Ratio (x) = 0.21136 0.42693
# Poissons Ratio (y) = 0.42400 0.05584
# Poissons Ratio (z) = 0.39910 0.02602
#
# Static dielectric constant tensor:
#      x y z
#    x 1.676240 0.000000 0.000000 
#    y 0.000000 1.698880 0.000000 
#    z 0.000000 0.000000 1.732640 
# 
# From -- ./inp_files/37086.got.cif
#   From: 2010.05.17/outbox.cif.g08.bks.cpg/sg64_19_cif.got.tgz:37086.got - 2010.06.03 16:29:19.
