data_PCOD9480062
_publ_section_title
;
Structure prediction by ZEFSAII (Michael W. Deem and Ramdas Pophale) SiO2 
 PCOD9480062
Probable space group: C M C A
;
_chemical_formula_sum "Si O2"
_cell_formula_units_Z 96
_cell_length_a 24.873740
_cell_length_b 14.891096
_cell_length_c 14.520730
_cell_angle_alpha 90.000000
_cell_angle_beta 90.000000
_cell_angle_gamma 90.000000
_cell_volume 5378.438463
_symmetry_space_group_name_H-M "C M C A"
_symmetry_group_IT_number 64
_symmetry_cell_setting 'orthorhombic'
loop_
_space_group_symop_operation_xyz
x,y,z
-x,1/2-y,1/2+z
x,-y,-z
-x,1/2+y,1/2-z
-x,-y,-z
x,1/2+y,1/2-z
-x,y,z
x,1/2-y,1/2+z
1/2+x,1/2+y,z
1/2-x,-y,1/2+z
1/2+x,1/2-y,-z
1/2-x,y,1/2-z
1/2-x,1/2-y,-z
1/2+x,y,1/2-z
1/2-x,1/2+y,z
1/2+x,-y,1/2+z
loop_
_atom_site_type_symbol
_atom_site_label
_atom_site_fract_x
_atom_site_fract_y
_atom_site_fract_z
Si Si1 0.561644 0.270794 0.823071
Si Si2 0.883093 0.454355 0.722968
Si Si3 0.063050 0.636223 0.651365
Si Si4 0.793721 0.918452 0.928437
Si Si5 0.866154 0.735265 0.499438
Si Si6 0.167199 0.573298 0.080311
O O1 0.500000 0.266505 0.854847
O O2 0.577057 0.370813 0.791659
O O3 0.567737 0.206041 0.735712
O O4 0.601615 0.245730 0.905454
O O5 0.911483 0.543677 0.686485
O O6 0.831222 0.435498 0.659407
O O7 0.863786 0.457298 0.828171
O O8 0.095967 0.675402 0.565354
O O9 0.000000 0.625364 0.628654
O O10 0.814437 0.825817 0.974354
O O11 0.731164 0.918280 0.902969
O O12 0.802396 0.000000 0.000000
O O13 0.852255 0.828655 0.548011
O O14 0.159156 0.500000 0.000000
#
# Coordination Sequence:
#
# PCOD9480062 Si02
#       6
#    16  16  16  16  16  16
#     4  10  22  38  59  87 119 155 196 243 294 353
#     4  11  21  39  61  87 120 157 199 244 296 351
#     4  11  22  38  62  90 121 157 200 247 298 354
#     4  10  21  38  61  88 121 156 201 247 290 349
#     4  11  21  40  61  87 120 159 201 246 298 352
#     4  11  23  39  61  88 122 160 196 245 300 358
#
# _framework density 17.849046000000001
#
# number of rings (size 3 to 8) (size 9 to 14) (size 15 to 20)
#    0.000    1.333    3.333    3.000    0.000    0.000 
#    0.000    2.500    0.000    4.000    0.000    0.000 
#    0.000    0.000    0.000    0.000    0.000    0.000 
#
# Total GULP energy -268163.913769 kJ/mol
# GULP energy per Si atom -5586.748204 kJ/mol
# Density = 1.780842 g / cm^3
# Si number density = 17.849046 Si / 1000 Ang^3
#
#
#
# Elastic Constant Matrix: (Units=GPa)
#
#
# Indices 1 2 3 4 5 6 
#
# 1 33.4901 10.3852 -11.6496 0.0000 0.0000 0.0000
# 2 10.3852 80.9982 -2.0240 0.0000 0.0000 0.0000
# 3 -11.6496 -2.0240 25.1710 0.0000 0.0000 0.0000
# 4 0.0000 0.0000 0.0000 28.4577 0.0000 0.0000
# 5 0.0000 0.0000 0.0000 0.0000 19.3641 0.0000
# 6 0.0000 0.0000 0.0000 0.0000 0.0000 23.7663
#
#
#
# Elastic Compliance Matrix: (Units=1/GPa)
#
#
# Indices 1 2 3 4 5 6 
#
# 1 0.037045 -0.004330 0.016797 0.000000 0.000000 0.000000
# 2 -0.004330 0.012877 -0.000969 0.000000 0.000000 0.000000
# 3 0.016797 -0.000969 0.047424 0.000000 0.000000 0.000000
# 4 0.000000 0.000000 0.000000 0.035140 0.000000 0.000000
# 5 0.000000 0.000000 0.000000 0.000000 0.051642 0.000000
# 6 0.000000 0.000000 0.000000 0.000000 0.000000 0.042076
#
#
# Mechanical properties :
#
#
# Convention : Reuss Voigt Hill
#
# Bulk Modulus (GPa) = 8.30956 14.78693 11.54825
# Shear Modulus (GPa) = 20.54889 23.84747 22.19818
#
# Velocity S-wave (km/s) = 3.39670 3.65919 3.53038
# Velocity P-wave (km/s) = 4.47761 5.11422 4.80647
#
# Compressibility (1/GPa) = 0.12034325
#
# Stress axis : x y z
#
# Youngs Moduli (GPa) = 26.99407 77.65829 21.08625
#
# Poissons Ratio (x) = 0.33626 -0.35419
# Poissons Ratio (y) = 0.11688 0.02042
# Poissons Ratio (z) = -0.45342 0.07522
#
# Static dielectric constant tensor:
#      x y z
#    x 1.586450 0.000000 0.000000 
#    y 0.000000 1.583560 0.000000 
#    z 0.000000 0.000000 1.584370 
# 
# From -- ./inp_files/26296.got.cif
#   From: 2010.05.17/outbox.cif.g08.bks.cpg/sg64_14_cif.got.tgz:26296.got - 2010.06.03 16:29:19.
