data_PCOD9480264
_publ_section_title
;
Structure prediction by ZEFSAII (Michael W. Deem and Ramdas Pophale) SiO2 
 PCOD9480264
Probable space group: C M C A
;
_chemical_formula_sum "Si O2"
_cell_formula_units_Z 88
_cell_length_a 11.017369
_cell_length_b 27.042886
_cell_length_c 14.295378
_cell_angle_alpha 90.000000
_cell_angle_beta 90.000000
_cell_angle_gamma 90.000000
_cell_volume 4259.185705
_symmetry_space_group_name_H-M "C M C A"
_symmetry_group_IT_number 64
_symmetry_cell_setting 'orthorhombic'
loop_
_space_group_symop_operation_xyz
x,y,z
-x,1/2-y,1/2+z
x,-y,-z
-x,1/2+y,1/2-z
-x,-y,-z
x,1/2+y,1/2-z
-x,y,z
x,1/2-y,1/2+z
1/2+x,1/2+y,z
1/2-x,-y,1/2+z
1/2+x,1/2-y,-z
1/2-x,y,1/2-z
1/2-x,1/2-y,-z
1/2+x,y,1/2-z
1/2-x,1/2+y,z
1/2+x,-y,1/2+z
loop_
_atom_site_type_symbol
_atom_site_label
_atom_site_fract_x
_atom_site_fract_y
_atom_site_fract_z
Si Si1 0.135308 0.693366 0.962551
Si Si2 0.500000 0.473651 0.400922
Si Si3 0.500000 0.951460 0.433517
Si Si4 0.000000 0.526017 0.288496
Si Si5 0.288957 0.711106 0.141763
Si Si6 0.729360 0.908824 0.048086
Si Si7 0.303082 0.897118 0.648471
O O1 0.141949 0.741244 0.896996
O O2 0.216626 0.648512 0.924584
O O3 0.000000 0.673411 0.966436
O O4 0.177423 0.707135 0.067704
O O5 0.500000 0.500000 0.500000
O O6 0.500000 0.515840 0.321118
O O7 0.374030 0.441329 0.400804
O O8 0.629287 0.924730 0.445823
O O9 0.500000 0.000000 0.500000
O O10 0.500000 0.971324 0.328801
O O11 0.889602 0.556849 0.332134
O O12 0.250000 0.717304 0.250000
O O13 0.354998 0.657855 0.127050
O O14 0.710915 0.909888 0.934936
O O15 0.250000 0.888543 0.750000
#
# Coordination Sequence:
#
# PCOD9480264 Si02
#       7
#    16   8   8   8  16  16  16
#     4  10  21  42  68  96 134 172 219 278 336 405
#     4  12  26  42  67  95 136 172 219 280 342 381
#     4  12  24  44  70  89 131 177 234 274 323 399
#     4  12  26  40  67  96 129 177 227 274 330 404
#     4   9  21  41  65  97 131 169 219 268 339 404
#     4  11  23  45  66  95 133 178 220 280 335 395
#     4  10  21  39  65  97 128 168 224 274 333 398
#
# _framework density 20.661227
#
# number of rings (size 3 to 8) (size 9 to 14) (size 15 to 20)
#    0.000    1.455    2.727    1.636    3.818    0.727 
#   21.273    0.000    0.000    0.000    0.000    0.000 
#    0.000    0.000    0.000    0.000    0.000    0.000 
#
# Total GULP energy -245019.835698 kJ/mol
# GULP energy per Si atom -5568.632629 kJ/mol
# Density = 2.061420 g / cm^3
# Si number density = 20.661227 Si / 1000 Ang^3
#
#
#
# Elastic Constant Matrix: (Units=GPa)
#
#
# Indices 1 2 3 4 5 6 
#
# 1 107.8805 52.2702 10.4165 0.0000 0.0000 0.0000
# 2 52.2702 111.2296 30.8592 0.0000 0.0000 0.0000
# 3 10.4165 30.8592 85.7670 0.0000 0.0000 0.0000
# 4 0.0000 0.0000 0.0000 31.0222 0.0000 0.0000
# 5 0.0000 0.0000 0.0000 0.0000 19.2518 0.0000
# 6 0.0000 0.0000 0.0000 0.0000 0.0000 49.6239
#
#
#
# Elastic Compliance Matrix: (Units=1/GPa)
#
#
# Indices 1 2 3 4 5 6 
#
# 1 0.012034 -0.005832 0.000637 0.000000 0.000000 0.000000
# 2 -0.005832 0.012813 -0.003902 0.000000 0.000000 0.000000
# 3 0.000637 -0.003902 0.012986 0.000000 0.000000 0.000000
# 4 0.000000 0.000000 0.000000 0.032235 0.000000 0.000000
# 5 0.000000 0.000000 0.000000 0.000000 0.051943 0.000000
# 6 0.000000 0.000000 0.000000 0.000000 0.000000 0.020152
#
#
# Mechanical properties :
#
#
# Convention : Reuss Voigt Hill
#
# Bulk Modulus (GPa) = 50.91832 54.66322 52.79077
# Shear Modulus (GPa) = 29.95748 34.06832 32.01290
#
# Velocity S-wave (km/s) = 3.81194 4.06507 3.94054
# Velocity P-wave (km/s) = 6.63870 6.96760 6.80514
#
# Compressibility (1/GPa) = 0.01963930
#
# Stress axis : x y z
#
# Youngs Moduli (GPa) = 83.10093 78.04310 77.00521
#
# Poissons Ratio (x) = 0.45512 -0.04903
# Poissons Ratio (y) = 0.48461 0.30048
# Poissons Ratio (z) = -0.05291 0.30453
#
# Static dielectric constant tensor:
#      x y z
#    x 1.010060 0.000000 0.000000 
#    y 0.000000 1.787780 0.000000 
#    z 0.000000 0.000000 1.774870 
# 
# From -- ./inp_files/22474.got.cif
#   From: 2010.05.17/outbox.cif.g08.bks.cpg/sg64_12_cif.got.tgz:22474.got - 2010.06.03 16:29:19.
