data_PCOD9480064
_publ_section_title
;
Structure prediction by ZEFSAII (Michael W. Deem and Ramdas Pophale) SiO2 
 PCOD9480064
Probable space group: C M C A
;
_chemical_formula_sum "Si O2"
_cell_formula_units_Z 80
_cell_length_a 8.596985
_cell_length_b 29.725849
_cell_length_c 15.916803
_cell_angle_alpha 90.000000
_cell_angle_beta 90.000000
_cell_angle_gamma 90.000000
_cell_volume 4067.581631
_symmetry_space_group_name_H-M "C M C A"
_symmetry_group_IT_number 64
_symmetry_cell_setting 'orthorhombic'
loop_
_space_group_symop_operation_xyz
x,y,z
-x,1/2-y,1/2+z
x,-y,-z
-x,1/2+y,1/2-z
-x,-y,-z
x,1/2+y,1/2-z
-x,y,z
x,1/2-y,1/2+z
1/2+x,1/2+y,z
1/2-x,-y,1/2+z
1/2+x,1/2-y,-z
1/2-x,y,1/2-z
1/2-x,1/2-y,-z
1/2+x,y,1/2-z
1/2-x,1/2+y,z
1/2+x,-y,1/2+z
loop_
_atom_site_type_symbol
_atom_site_label
_atom_site_fract_x
_atom_site_fract_y
_atom_site_fract_z
Si Si1 0.186722 0.800379 0.002474
Si Si2 0.312300 0.448907 0.100613
Si Si3 0.812195 0.856487 0.838350
Si Si4 0.184371 0.855475 0.339577
Si Si5 0.811919 0.951744 0.901179
O O1 0.235964 0.827027 0.918352
O O2 0.000000 0.799969 0.004327
O O3 0.250000 0.750000 0.000000
O O4 0.246392 0.826863 0.083865
O O5 0.500000 0.445466 0.110232
O O6 0.233792 0.407328 0.146178
O O7 0.258987 0.498865 0.127726
O O8 0.278579 0.446091 0.000522
O O9 0.750000 0.839136 0.750000
O O10 0.755051 0.907784 0.853021
O O11 0.000000 0.857069 0.836557
O O12 0.250000 0.840160 0.250000
O O13 0.000000 0.851686 0.339968
O O14 0.000000 0.952514 0.895310
#
# Coordination Sequence:
#
# PCOD9480064 Si02
#       5
#    16  16  16  16  16
#     4  11  24  45  69  91 121 157 201 254 314 373
#     4   9  16  33  60  87 121 163 205 247 299 361
#     4  10  21  38  61  90 123 160 199 243 295 360
#     4  12  25  41  63  92 125 162 207 256 309 368
#     4   8  15  31  58  87 120 164 203 241 299 359
#
# _framework density 19.667707
#
# number of rings (size 3 to 8) (size 9 to 14) (size 15 to 20)
#    0.000    2.000    2.000    3.600    0.000    3.200 
#    0.000    7.000    0.000    0.000    0.000    0.000 
#    0.000    0.000    0.000    0.000    0.000    0.000 
#
# Total GULP energy -223435.637716 kJ/mol
# GULP energy per Si atom -5585.890943 kJ/mol
# Density = 1.962294 g / cm^3
# Si number density = 19.667707 Si / 1000 Ang^3
#
#
#
# Elastic Constant Matrix: (Units=GPa)
#
#
# Indices 1 2 3 4 5 6 
#
# 1 54.3983 38.6324 41.9956 0.0000 0.0000 0.0000
# 2 38.6324 141.4420 85.6511 0.0000 0.0000 0.0000
# 3 41.9956 85.6511 157.5053 0.0000 0.0000 0.0000
# 4 0.0000 0.0000 0.0000 -4.8354 0.0000 0.0000
# 5 0.0000 0.0000 0.0000 0.0000 26.6864 0.0000
# 6 0.0000 0.0000 0.0000 0.0000 0.0000 6.7314
#
#
#
# Elastic Compliance Matrix: (Units=1/GPa)
#
#
# Indices 1 2 3 4 5 6 
#
# 1 0.024648 -0.004104 -0.004340 0.000000 0.000000 0.000000
# 2 -0.004104 0.011225 -0.005010 0.000000 0.000000 0.000000
# 3 -0.004340 -0.005010 0.010230 0.000000 0.000000 0.000000
# 4 0.000000 0.000000 0.000000 -0.206808 0.000000 0.000000
# 5 0.000000 0.000000 0.000000 0.000000 0.037472 0.000000
# 6 0.000000 0.000000 0.000000 0.000000 0.000000 0.148558
#
#
# Mechanical properties :
#
#
# Convention : Reuss Voigt Hill
#
# Bulk Modulus (GPa) = 52.09555 76.21153 64.15354
# Shear Modulus (GPa) = 85.27877 18.18759 51.73318
#
# Velocity S-wave (km/s) = 6.59196 3.04426 5.13427
# Velocity P-wave (km/s) = 9.19151 7.15475 8.23633
#
# Compressibility (1/GPa) = 0.01919550
#
# Stress axis : x y z
#
# Youngs Moduli (GPa) = 40.57114 89.08999 97.74720
#
# Poissons Ratio (x) = 0.36562 0.42424
# Poissons Ratio (y) = 0.16650 0.48968
# Poissons Ratio (z) = 0.17609 0.44631
#
# Static dielectric constant tensor:
#      x y z
#    x 1.662070 0.000000 0.000000 
#    y 0.000000 1.692650 0.000000 
#    z 0.000000 0.000000 1.685090 
# 
# From -- ./inp_files/29966.got.cif
#   From: 2010.05.17/outbox.cif.g08.bks.cpg/sg64_15_cif.got.tgz:29966.got - 2010.06.03 16:29:19.
