data_PCOD9480138
_publ_section_title
;
Structure prediction by ZEFSAII (Michael W. Deem and Ramdas Pophale) SiO2 
 PCOD9480138
Probable space group: C M C A
;
_chemical_formula_sum "Si O2"
_cell_formula_units_Z 88
_cell_length_a 10.710716
_cell_length_b 14.731928
_cell_length_c 23.631194
_cell_angle_alpha 90.000000
_cell_angle_beta 90.000000
_cell_angle_gamma 90.000000
_cell_volume 3728.754213
_symmetry_space_group_name_H-M "C M C A"
_symmetry_group_IT_number 64
_symmetry_cell_setting 'orthorhombic'
loop_
_space_group_symop_operation_xyz
x,y,z
-x,1/2-y,1/2+z
x,-y,-z
-x,1/2+y,1/2-z
-x,-y,-z
x,1/2+y,1/2-z
-x,y,z
x,1/2-y,1/2+z
1/2+x,1/2+y,z
1/2-x,-y,1/2+z
1/2+x,1/2-y,-z
1/2-x,y,1/2-z
1/2-x,1/2-y,-z
1/2+x,y,1/2-z
1/2-x,1/2+y,z
1/2+x,-y,1/2+z
loop_
_atom_site_type_symbol
_atom_site_label
_atom_site_fract_x
_atom_site_fract_y
_atom_site_fract_z
Si Si1 0.500000 0.617514 0.711692
Si Si2 0.500000 0.950415 0.334714
Si Si3 0.862582 0.206439 0.210785
Si Si4 0.500000 0.879442 0.992913
Si Si5 0.000000 0.181802 0.926079
Si Si6 0.782650 0.918729 0.880327
Si Si7 0.500000 0.969440 0.877916
Si Si8 0.764245 0.357562 0.492366
O O1 0.500000 0.556176 0.767192
O O2 0.617386 0.685995 0.713622
O O3 0.500000 0.564106 0.653793
O O4 0.500000 0.846804 0.360243
O O5 0.622947 0.004836 0.356512
O O6 0.750000 0.175779 0.250000
O O7 0.000000 0.169206 0.227376
O O8 0.832866 0.173722 0.147822
O O9 0.500000 0.044516 0.054880
O O10 0.373266 0.883120 0.027708
O O11 0.500000 0.785060 0.952281
O O12 0.879144 0.132346 0.951340
O O13 0.637352 0.928880 0.862684
O O14 0.787791 0.907293 0.948016
O O15 0.750000 0.250000 0.500000
#
# Coordination Sequence:
#
# PCOD9480138 Si02
#       8
#     8   8  16   8   8  16   8  16
#     4  10  27  45  66  96 139 176 218 290 335 402
#     4  12  26  41  66  96 144 171 237 278 355 393
#     4  10  25  44  67  96 128 172 230 270 336 402
#     4   8  18  41  64 102 125 179 223 269 336 414
#     4  10  21  38  68  98 131 179 219 297 316 406
#     4  11  24  43  69 101 129 182 223 279 334 425
#     4  10  24  41  70  94 143 170 224 273 354 388
#     4   9  19  39  66  94 130 168 226 273 336 390
#
# _framework density 23.600376000000001
#
# number of rings (size 3 to 8) (size 9 to 14) (size 15 to 20)
#    0.545    1.455    0.909    0.545    6.364    5.818 
#    0.000    0.909    0.000    3.273    0.000    0.000 
#    0.000    0.000    0.000    0.000    0.000    0.000 
#
# Total GULP energy -245583.402312 kJ/mol
# GULP energy per Si atom -5581.440962 kJ/mol
# Density = 2.354666 g / cm^3
# Si number density = 23.600376 Si / 1000 Ang^3
#
#
#
# Elastic Constant Matrix: (Units=GPa)
#
#
# Indices 1 2 3 4 5 6 
#
# 1 197.4389 32.6101 33.6083 0.0000 0.0000 0.0000
# 2 32.6101 83.7638 20.4932 0.0000 0.0000 0.0000
# 3 33.6083 20.4932 69.0497 0.0000 0.0000 0.0000
# 4 0.0000 0.0000 0.0000 42.4616 0.0000 0.0000
# 5 0.0000 0.0000 0.0000 0.0000 17.7575 0.0000
# 6 0.0000 0.0000 0.0000 0.0000 0.0000 18.5428
#
#
#
# Elastic Compliance Matrix: (Units=1/GPa)
#
#
# Indices 1 2 3 4 5 6 
#
# 1 0.005731 -0.001670 -0.002294 0.000000 0.000000 0.000000
# 2 -0.001670 0.013360 -0.003152 0.000000 0.000000 0.000000
# 3 -0.002294 -0.003152 0.016534 0.000000 0.000000 0.000000
# 4 0.000000 0.000000 0.000000 0.023551 0.000000 0.000000
# 5 0.000000 0.000000 0.000000 0.000000 0.056314 0.000000
# 6 0.000000 0.000000 0.000000 0.000000 0.000000 0.053929
#
#
# Mechanical properties :
#
#
# Convention : Reuss Voigt Hill
#
# Bulk Modulus (GPa) = 46.74406 58.18617 52.46512
# Shear Modulus (GPa) = 26.20786 33.32177 29.76481
#
# Velocity S-wave (km/s) = 3.33601 3.76162 3.55519
# Velocity P-wave (km/s) = 5.88966 6.60111 6.25551
#
# Compressibility (1/GPa) = 0.02139309
#
# Stress axis : x y z
#
# Youngs Moduli (GPa) = 174.48514 74.85219 60.48021
#
# Poissons Ratio (x) = 0.12500 0.13873
# Poissons Ratio (y) = 0.29139 0.19064
# Poissons Ratio (z) = 0.40024 0.23595
#
# Static dielectric constant tensor:
#      x y z
#    x 1.931840 0.000000 0.000000 
#    y 0.000000 2.175680 0.000000 
#    z 0.000000 0.000000 1.862940 
# 
# From -- ./inp_files/44124.got.cif
#   From: 2010.05.17/outbox.cif.g08.bks.cpg/sg64_23_cif.got.tgz:44124.got - 2010.06.03 16:29:19.
