data_PCOD9480626
_publ_section_title
;
Structure prediction by ZEFSAII (Michael W. Deem and Ramdas Pophale) SiO2 
 PCOD9480626
Probable space group: C M C A
;
_chemical_formula_sum "Si O2"
_cell_formula_units_Z 72
_cell_length_a 22.821704
_cell_length_b 14.512449
_cell_length_c 8.670965
_cell_angle_alpha 90.000000
_cell_angle_beta 90.000000
_cell_angle_gamma 90.000000
_cell_volume 2871.813336
_symmetry_space_group_name_H-M "C M C A"
_symmetry_group_IT_number 64
_symmetry_cell_setting 'orthorhombic'
loop_
_space_group_symop_operation_xyz
x,y,z
-x,1/2-y,1/2+z
x,-y,-z
-x,1/2+y,1/2-z
-x,-y,-z
x,1/2+y,1/2-z
-x,y,z
x,1/2-y,1/2+z
1/2+x,1/2+y,z
1/2-x,-y,1/2+z
1/2+x,1/2-y,-z
1/2-x,y,1/2-z
1/2-x,1/2-y,-z
1/2+x,y,1/2-z
1/2-x,1/2+y,z
1/2+x,-y,1/2+z
loop_
_atom_site_type_symbol
_atom_site_label
_atom_site_fract_x
_atom_site_fract_y
_atom_site_fract_z
Si Si1 0.617352 0.653213 0.702965
Si Si2 0.750000 0.140140 0.250000
Si Si3 0.161529 0.312647 0.514092
Si Si4 0.000000 0.411150 0.722121
Si Si5 0.125726 0.061455 0.274247
Si Si6 0.500000 0.129488 0.627110
O O1 0.626830 0.721301 0.562649
O O2 0.621035 0.544678 0.678821
O O3 0.556804 0.670852 0.791734
O O4 0.665280 0.676822 0.833520
O O5 0.721700 0.189832 0.394209
O O6 0.807962 0.089492 0.319643
O O7 0.130258 0.403232 0.593151
O O8 0.938831 0.397460 0.813428
O O9 0.000000 0.519970 0.670859
O O10 0.000000 0.359441 0.557238
#
# Coordination Sequence:
#
# PCOD9480626 Si02
#       6
#    16   8  16   8  16   8
#     4  11  21  37  61  88 126 155 199 251 298 348
#     4   8  20  38  56  88 114 150 210 236 306 348
#     4  10  22  38  57  91 118 156 201 244 295 365
#     4   9  14  29  61  86 114 148 210 241 286 346
#     4   9  19  38  59  88 117 158 202 252 286 361
#     4   9  16  29  57  92 114 155 197 242 294 346
#
# _framework density 25.071266999999999
#
# number of rings (size 3 to 8) (size 9 to 14) (size 15 to 20)
#    1.333    1.111    2.222    0.667    0.000    3.556 
#    0.000    3.333    0.000    0.000    0.000    6.222 
#    0.000    0.000    0.000    0.000    0.000    0.000 
#
# Total GULP energy -200685.147961 kJ/mol
# GULP energy per Si atom -5574.587443 kJ/mol
# Density = 2.501420 g / cm^3
# Si number density = 25.071267 Si / 1000 Ang^3
#
#
#
# Elastic Constant Matrix: (Units=GPa)
#
#
# Indices 1 2 3 4 5 6 
#
# 1 207.7882 39.6484 27.2481 0.0000 0.0000 0.0000
# 2 39.6484 116.0739 25.1743 0.0000 0.0000 0.0000
# 3 27.2481 25.1743 34.4010 0.0000 0.0000 0.0000
# 4 0.0000 0.0000 0.0000 25.5234 0.0000 0.0000
# 5 0.0000 0.0000 0.0000 0.0000 5.2140 0.0000
# 6 0.0000 0.0000 0.0000 0.0000 0.0000 27.6313
#
#
#
# Elastic Compliance Matrix: (Units=1/GPa)
#
#
# Indices 1 2 3 4 5 6 
#
# 1 0.005488 -0.001108 -0.003536 0.000000 0.000000 0.000000
# 2 -0.001108 0.010464 -0.006780 0.000000 0.000000 0.000000
# 3 -0.003536 -0.006780 0.036831 0.000000 0.000000 0.000000
# 4 0.000000 0.000000 0.000000 0.039180 0.000000 0.000000
# 5 0.000000 0.000000 0.000000 0.000000 0.191790 0.000000
# 6 0.000000 0.000000 0.000000 0.000000 0.000000 0.036191
#
#
# Mechanical properties :
#
#
# Convention : Reuss Voigt Hill
#
# Bulk Modulus (GPa) = 33.40528 60.26718 46.83623
# Shear Modulus (GPa) = 14.17354 29.41992 21.79673
#
# Velocity S-wave (km/s) = 2.38025 3.42928 2.95174
# Velocity P-wave (km/s) = 4.57243 6.30639 5.50807
#
# Compressibility (1/GPa) = 0.02993538
#
# Stress axis : x y z
#
# Youngs Moduli (GPa) = 182.22806 95.56562 27.15071
#
# Poissons Ratio (x) = 0.10584 0.09601
# Poissons Ratio (y) = 0.20183 0.18409
# Poissons Ratio (z) = 0.64438 0.64795
#
# Static dielectric constant tensor:
#      x y z
#    x 2.052590 0.000000 0.000000 
#    y 0.000000 2.018410 0.000000 
#    z 0.000000 0.000000 2.013850 
# 
# From -- ./inp_files/9185.got.cif
#   From: 2010.05.17/outbox.cif.g08.bks.cpg/sg64_5_cif.got.tgz:9185.got - 2010.06.03 16:29:19.
