data_PCOD9480036
_publ_section_title
;
Structure prediction by ZEFSAII (Michael W. Deem and Ramdas Pophale) SiO2 
 PCOD9480036
Probable space group: C M C A
;
_chemical_formula_sum "Si O2"
_cell_formula_units_Z 72
_cell_length_a 15.057534
_cell_length_b 18.405468
_cell_length_c 13.633840
_cell_angle_alpha 90.000000
_cell_angle_beta 90.000000
_cell_angle_gamma 90.000000
_cell_volume 3778.495509
_symmetry_space_group_name_H-M "C M C A"
_symmetry_group_IT_number 64
_symmetry_cell_setting 'orthorhombic'
loop_
_space_group_symop_operation_xyz
x,y,z
-x,1/2-y,1/2+z
x,-y,-z
-x,1/2+y,1/2-z
-x,-y,-z
x,1/2+y,1/2-z
-x,y,z
x,1/2-y,1/2+z
1/2+x,1/2+y,z
1/2-x,-y,1/2+z
1/2+x,1/2-y,-z
1/2-x,y,1/2-z
1/2-x,1/2-y,-z
1/2+x,y,1/2-z
1/2-x,1/2+y,z
1/2+x,-y,1/2+z
loop_
_atom_site_type_symbol
_atom_site_label
_atom_site_fract_x
_atom_site_fract_y
_atom_site_fract_z
Si Si1 0.255738 0.072667 0.051722
Si Si2 0.342134 0.706910 0.515255
Si Si3 0.250000 0.001050 0.750000
Si Si4 0.605197 0.876673 0.210333
Si Si5 0.403329 0.649719 0.935375
O O1 0.224494 0.049411 0.158801
O O2 0.330360 0.134947 0.050415
O O3 0.173768 0.103165 0.986968
O O4 0.289918 0.000000 0.000000
O O5 0.250000 0.750000 0.500000
O O6 0.361223 0.676616 0.624045
O O7 0.406854 0.770146 0.481607
O O8 0.331163 0.052842 0.784081
O O9 0.500000 0.892184 0.194589
O O10 0.614833 0.843288 0.319332
O O11 0.500000 0.613986 0.946733
#
# Coordination Sequence:
#
# PCOD9480036 Si02
#       5
#    16  16   8  16  16
#     4  11  21  37  62  88 118 159 207 251 304 379
#     4  10  21  38  60  87 121 161 203 256 313 374
#     4  12  22  40  60  92 128 162 210 258 318 376
#     4  11  22  38  63  90 125 168 209 258 325 388
#     4  10  22  39  63  91 121 157 204 264 316 372
#
# _framework density 19.055202999999999
#
# number of rings (size 3 to 8) (size 9 to 14) (size 15 to 20)
#    0.000    1.333    4.444    2.000    0.000    4.889 
#    0.000    3.333    0.000    0.000    0.000    0.000 
#    0.000    0.000    0.000    0.000    0.000    0.000 
#
# Total GULP energy -200626.456685 kJ/mol
# GULP energy per Si atom -5572.957130 kJ/mol
# Density = 1.901183 g / cm^3
# Si number density = 19.055203 Si / 1000 Ang^3
#
#
#
# Elastic Constant Matrix: (Units=GPa)
#
#
# Indices 1 2 3 4 5 6 
#
# 1 93.2732 16.6172 37.3254 0.0000 0.0000 0.0000
# 2 16.6172 99.4189 43.3455 0.0000 0.0000 0.0000
# 3 37.3254 43.3455 139.2342 0.0000 0.0000 0.0000
# 4 0.0000 0.0000 0.0000 44.9492 0.0000 0.0000
# 5 0.0000 0.0000 0.0000 0.0000 26.5169 0.0000
# 6 0.0000 0.0000 0.0000 0.0000 0.0000 13.6719
#
#
#
# Elastic Compliance Matrix: (Units=1/GPa)
#
#
# Indices 1 2 3 4 5 6 
#
# 1 0.012052 -0.000701 -0.003013 0.000000 0.000000 0.000000
# 2 -0.000701 0.011679 -0.003448 0.000000 0.000000 0.000000
# 3 -0.003013 -0.003448 0.009063 0.000000 0.000000 0.000000
# 4 0.000000 0.000000 0.000000 0.022247 0.000000 0.000000
# 5 0.000000 0.000000 0.000000 0.000000 0.037712 0.000000
# 6 0.000000 0.000000 0.000000 0.000000 0.000000 0.073143
#
#
# Mechanical properties :
#
#
# Convention : Reuss Voigt Hill
#
# Bulk Modulus (GPa) = 54.13930 58.50028 56.31979
# Shear Modulus (GPa) = 26.82761 32.67013 29.74887
#
# Velocity S-wave (km/s) = 3.75625 4.14514 3.95548
# Velocity P-wave (km/s) = 6.87649 7.32644 7.10503
#
# Compressibility (1/GPa) = 0.01847087
#
# Stress axis : x y z
#
# Youngs Moduli (GPa) = 82.97646 85.62490 110.33735
#
# Poissons Ratio (x) = 0.06002 0.33240
# Poissons Ratio (y) = 0.05816 0.38043
# Poissons Ratio (z) = 0.24997 0.29523
#
# Static dielectric constant tensor:
#      x y z
#    x 1.844380 0.000000 0.000000 
#    y 0.000000 1.666120 0.000000 
#    z 0.000000 0.000000 1.673640 
# 
# From -- ./inp_files/15739.got.cif
#   From: 2010.05.17/outbox.cif.g08.bks.cpg/sg64_8_cif.got.tgz:15739.got - 2010.06.03 16:29:19.
