data_PCOD9480135
_publ_section_title
;
Structure prediction by ZEFSAII (Michael W. Deem and Ramdas Pophale) SiO2 
 PCOD9480135
Probable space group: C M C A
;
_chemical_formula_sum "Si O2"
_cell_formula_units_Z 88
_cell_length_a 21.403200
_cell_length_b 14.337771
_cell_length_c 13.573216
_cell_angle_alpha 90.000000
_cell_angle_beta 90.000000
_cell_angle_gamma 90.000000
_cell_volume 4165.269534
_symmetry_space_group_name_H-M "C M C A"
_symmetry_group_IT_number 64
_symmetry_cell_setting 'orthorhombic'
loop_
_space_group_symop_operation_xyz
x,y,z
-x,1/2-y,1/2+z
x,-y,-z
-x,1/2+y,1/2-z
-x,-y,-z
x,1/2+y,1/2-z
-x,y,z
x,1/2-y,1/2+z
1/2+x,1/2+y,z
1/2-x,-y,1/2+z
1/2+x,1/2-y,-z
1/2-x,y,1/2-z
1/2-x,1/2-y,-z
1/2+x,y,1/2-z
1/2-x,1/2+y,z
1/2+x,-y,1/2+z
loop_
_atom_site_type_symbol
_atom_site_label
_atom_site_fract_x
_atom_site_fract_y
_atom_site_fract_z
Si Si1 0.693233 0.000000 0.000000
Si Si2 0.879053 0.390117 0.530762
Si Si3 0.569155 0.888584 0.728393
Si Si4 0.638519 0.721708 0.827135
Si Si5 0.745835 0.820658 0.589656
Si Si6 0.176340 0.962928 0.285602
O O1 0.664453 0.045670 0.903071
O O2 0.731760 0.919545 0.949138
O O3 0.867784 0.500000 0.500000
O O4 0.934001 0.386156 0.609345
O O5 0.880613 0.326374 0.432240
O O6 0.826469 0.341052 0.601334
O O7 0.500000 0.917992 0.764458
O O8 0.587527 0.790938 0.781110
O O9 0.625252 0.961138 0.752194
O O10 0.702466 0.782267 0.836905
O O11 0.657708 0.634857 0.760999
O O12 0.750000 0.750000 0.500000
O O13 0.250000 0.981576 0.250000
#
# Coordination Sequence:
#
# PCOD9480135 Si02
#       6
#     8  16  16  16  16  16
#     4  12  22  42  69 108 141 186 234 296 368 426
#     4  11  22  45  72 103 140 190 245 305 365 432
#     4  12  29  47  68 103 149 197 242 293 362 439
#     4  11  26  43  71 109 147 188 238 308 370 434
#     4  10  21  38  68 106 143 173 233 301 367 427
#     4  12  26  45  77 108 143 186 243 307 361 424
#
# _framework density 21.127084
#
# number of rings (size 3 to 8) (size 9 to 14) (size 15 to 20)
#    0.000    0.727    4.545    3.273    7.636    1.818 
#    0.000    0.455    0.000    0.000    0.000    0.000 
#    0.000    0.000    0.000    0.000    0.000    0.000 
#
# Total GULP energy -245019.931088 kJ/mol
# GULP energy per Si atom -5568.634797 kJ/mol
# Density = 2.107900 g / cm^3
# Si number density = 21.127084 Si / 1000 Ang^3
#
#
#
# Elastic Constant Matrix: (Units=GPa)
#
#
# Indices 1 2 3 4 5 6 
#
# 1 117.3112 37.6643 25.8681 0.0000 0.0000 0.0000
# 2 37.6643 121.5826 20.1745 0.0000 0.0000 0.0000
# 3 25.8681 20.1745 115.3541 0.0000 0.0000 0.0000
# 4 0.0000 0.0000 0.0000 40.4596 0.0000 0.0000
# 5 0.0000 0.0000 0.0000 0.0000 17.2738 0.0000
# 6 0.0000 0.0000 0.0000 0.0000 0.0000 9.9373
#
#
#
# Elastic Compliance Matrix: (Units=1/GPa)
#
#
# Indices 1 2 3 4 5 6 
#
# 1 0.009784 -0.002747 -0.001714 0.000000 0.000000 0.000000
# 2 -0.002747 0.009242 -0.001000 0.000000 0.000000 0.000000
# 3 -0.001714 -0.001000 0.009228 0.000000 0.000000 0.000000
# 4 0.000000 0.000000 0.000000 0.024716 0.000000 0.000000
# 5 0.000000 0.000000 0.000000 0.000000 0.057891 0.000000
# 6 0.000000 0.000000 0.000000 0.000000 0.000000 0.100631
#
#
# Mechanical properties :
#
#
# Convention : Reuss Voigt Hill
#
# Bulk Modulus (GPa) = 57.69466 57.96240 57.82853
# Shear Modulus (GPa) = 21.91145 31.57020 26.74082
#
# Velocity S-wave (km/s) = 3.22394 3.86981 3.56155
# Velocity P-wave (km/s) = 6.42075 6.88926 6.65913
#
# Compressibility (1/GPa) = 0.01733263
#
# Stress axis : x y z
#
# Youngs Moduli (GPa) = 102.20718 108.20516 108.36331
#
# Poissons Ratio (x) = 0.29719 0.18570
# Poissons Ratio (y) = 0.28072 0.10841
# Poissons Ratio (z) = 0.17515 0.10825
#
# Static dielectric constant tensor:
#      x y z
#    x 1.830880 0.000000 0.000000 
#    y 0.000000 1.381780 0.000000 
#    z 0.000000 0.000000 1.804320 
# 
# From -- ./inp_files/26203.got.cif
#   From: 2010.05.17/outbox.cif.g08.bks.cpg/sg64_14_cif.got.tgz:26203.got - 2010.06.03 16:29:19.
