data_PCOD9480351
_publ_section_title
;
Structure prediction by ZEFSAII (Michael W. Deem and Ramdas Pophale) SiO2 
 PCOD9480351
Probable space group: C M C A
;
_chemical_formula_sum "Si O2"
_cell_formula_units_Z 116
_cell_length_a 22.019184
_cell_length_b 8.755813
_cell_length_c 27.776898
_cell_angle_alpha 90.000000
_cell_angle_beta 90.000000
_cell_angle_gamma 90.000000
_cell_volume 5355.270869
_symmetry_space_group_name_H-M "C M C A"
_symmetry_group_IT_number 64
_symmetry_cell_setting 'orthorhombic'
loop_
_space_group_symop_operation_xyz
x,y,z
-x,1/2-y,1/2+z
x,-y,-z
-x,1/2+y,1/2-z
-x,-y,-z
x,1/2+y,1/2-z
-x,y,z
x,1/2-y,1/2+z
1/2+x,1/2+y,z
1/2-x,-y,1/2+z
1/2+x,1/2-y,-z
1/2-x,y,1/2-z
1/2-x,1/2-y,-z
1/2+x,y,1/2-z
1/2-x,1/2+y,z
1/2+x,-y,1/2+z
loop_
_atom_site_type_symbol
_atom_site_label
_atom_site_fract_x
_atom_site_fract_y
_atom_site_fract_z
Si Si1 0.368760 0.196636 0.239507
Si Si2 0.567846 0.978684 0.305823
Si Si3 0.717013 0.546054 0.596691
Si Si4 0.429543 0.485872 0.083775
Si Si5 0.793116 0.076889 0.704653
Si Si6 0.613843 0.297980 0.460131
Si Si7 0.000000 0.500000 0.000000
Si Si8 0.323073 0.729037 0.942213
O O1 0.387297 0.342558 0.208499
O O2 0.324960 0.263948 0.281105
O O3 0.422459 0.115135 0.268450
O O4 0.339161 0.065720 0.207006
O O5 0.500000 0.916586 0.302067
O O6 0.576475 0.031834 0.360336
O O7 0.734817 0.580022 0.651856
O O8 0.654796 0.633757 0.582843
O O9 0.702628 0.369245 0.588398
O O10 0.772044 0.599131 0.562534
O O11 0.500000 0.449150 0.073644
O O12 0.407674 0.626908 0.051768
O O13 0.386412 0.341325 0.076037
O O14 0.750000 0.048445 0.750000
O O15 0.554701 0.397881 0.473229
O O16 0.660140 0.289676 0.505087
#
# Coordination Sequence:
#
# PCOD9480351 Si02
#       8
#    16  16  16  16  16  16   4  16
#     4  10  22  40  64  93 135 169 230 277 343 410
#     4  10  21  40  64  97 132 179 224 285 343 416
#     4  12  27  45  71 101 143 181 235 291 354 424
#     4  11  25  42  71 102 140 182 239 284 354 423
#     4  11  25  40  68  97 133 180 223 285 345 418
#     4  12  25  49  73 105 141 189 230 295 357 425
#     4  12  24  48  78 104 148 184 240 292 360 436
#     4  12  27  44  71 103 142 185 237 293 354 423
#
# _framework density 21.660903000000001
#
# number of rings (size 3 to 8) (size 9 to 14) (size 15 to 20)
#    0.000    0.828    2.069    4.138    8.690    1.655 
#    0.000    0.000    1.517    0.000    0.000    0.000 
#    0.000    0.000    0.000    0.000    0.000    0.000 
#
# Total GULP energy -323846.999761 kJ/mol
# GULP energy per Si atom -5583.568961 kJ/mol
# Density = 2.161160 g / cm^3
# Si number density = 21.660903 Si / 1000 Ang^3
#
#
#
# Elastic Constant Matrix: (Units=GPa)
#
#
# Indices 1 2 3 4 5 6 
#
# 1 89.9870 25.4497 31.0467 0.0000 0.0000 0.0000
# 2 25.4497 69.1849 5.0182 0.0000 0.0000 0.0000
# 3 31.0467 5.0182 87.8328 0.0000 0.0000 0.0000
# 4 0.0000 0.0000 0.0000 23.0614 0.0000 0.0000
# 5 0.0000 0.0000 0.0000 0.0000 26.0444 0.0000
# 6 0.0000 0.0000 0.0000 0.0000 0.0000 29.9594
#
#
#
# Elastic Compliance Matrix: (Units=1/GPa)
#
#
# Indices 1 2 3 4 5 6 
#
# 1 0.014109 -0.004848 -0.004710 0.000000 0.000000 0.000000
# 2 -0.004848 0.016180 0.000789 0.000000 0.000000 0.000000
# 3 -0.004710 0.000789 0.013005 0.000000 0.000000 0.000000
# 4 0.000000 0.000000 0.000000 0.043362 0.000000 0.000000
# 5 0.000000 0.000000 0.000000 0.000000 0.038396 0.000000
# 6 0.000000 0.000000 0.000000 0.000000 0.000000 0.033378
#
#
# Mechanical properties :
#
#
# Convention : Reuss Voigt Hill
#
# Bulk Modulus (GPa) = 38.82600 41.11488 39.97044
# Shear Modulus (GPa) = 27.09222 28.17907 27.63564
#
# Velocity S-wave (km/s) = 3.54042 3.61074 3.57575
# Velocity P-wave (km/s) = 5.88865 6.03370 5.96162
#
# Compressibility (1/GPa) = 0.02575594
#
# Stress axis : x y z
#
# Youngs Moduli (GPa) = 70.87689 61.80379 76.89297
#
# Poissons Ratio (x) = 0.29965 0.36218
# Poissons Ratio (y) = 0.34364 -0.06069
# Poissons Ratio (z) = 0.33384 -0.04878
#
# Static dielectric constant tensor:
#      x y z
#    x 1.797930 0.000000 0.000000 
#    y 0.000000 1.782580 0.000000 
#    z 0.000000 0.000000 1.813210 
# 
# From -- ./inp_files/51092.got.cif
#   From: 2010.05.17/outbox.cif.g08.bks.cpg/sg64_26_cif.got.tgz:51092.got - 2010.06.03 16:29:19.
