data_PCOD9480397
_publ_section_title
;
Structure prediction by ZEFSAII (Michael W. Deem and Ramdas Pophale) SiO2 
 PCOD9480397
Probable space group: C M C A
;
_chemical_formula_sum "Si O2"
_cell_formula_units_Z 104
_cell_length_a 21.437296
_cell_length_b 9.358650
_cell_length_c 26.817862
_cell_angle_alpha 90.000000
_cell_angle_beta 90.000000
_cell_angle_gamma 90.000000
_cell_volume 5380.310774
_symmetry_space_group_name_H-M "C M C A"
_symmetry_group_IT_number 64
_symmetry_cell_setting 'orthorhombic'
loop_
_space_group_symop_operation_xyz
x,y,z
-x,1/2-y,1/2+z
x,-y,-z
-x,1/2+y,1/2-z
-x,-y,-z
x,1/2+y,1/2-z
-x,y,z
x,1/2-y,1/2+z
1/2+x,1/2+y,z
1/2-x,-y,1/2+z
1/2+x,1/2-y,-z
1/2-x,y,1/2-z
1/2-x,1/2-y,-z
1/2+x,y,1/2-z
1/2-x,1/2+y,z
1/2+x,-y,1/2+z
loop_
_atom_site_type_symbol
_atom_site_label
_atom_site_fract_x
_atom_site_fract_y
_atom_site_fract_z
Si Si1 0.102972 0.511923 0.853097
Si Si2 0.735298 0.548841 0.611891
Si Si3 0.378296 0.766324 0.771793
Si Si4 0.294952 0.783654 0.953874
Si Si5 0.569437 0.875600 0.958712
Si Si6 0.803277 0.483402 0.710270
Si Si7 0.500000 0.817357 0.211408
O O1 0.167730 0.591004 0.866351
O O2 0.119620 0.378146 0.817380
O O3 0.075949 0.448289 0.904395
O O4 0.054651 0.610536 0.824168
O O5 0.719944 0.440831 0.566999
O O6 0.776079 0.676341 0.590178
O O7 0.772820 0.472737 0.656194
O O8 0.352640 0.612759 0.788424
O O9 0.445776 0.748820 0.748046
O O10 0.334038 0.839318 0.730584
O O11 0.368847 0.778676 0.965495
O O12 0.250000 0.750000 0.000000
O O13 0.500000 0.808772 0.962590
O O14 0.573079 0.000000 0.000000
O O15 0.750000 0.522423 0.750000
#
# Coordination Sequence:
#
# PCOD9480397 Si02
#       7
#    16  16  16  16  16  16   8
#     4  11  22  43  64  92 129 168 221 275 318 400
#     4  11  24  40  69  95 127 170 214 273 338 379
#     4  12  25  40  63  89 131 179 213 271 330 393
#     4  11  23  43  69  99 131 165 218 277 334 397
#     4  10  21  40  69  99 129 170 220 266 327 394
#     4  12  24  39  62  93 130 164 219 267 324 395
#     4  12  24  40  61  88 129 177 220 270 325 390
#
# _framework density 19.329737999999999
#
# number of rings (size 3 to 8) (size 9 to 14) (size 15 to 20)
#    0.000    0.769    3.846    5.077    4.308    0.000 
#    0.000    0.000    1.692    1.846    0.000    0.000 
#    0.000    0.000    0.000    0.000    0.000    0.000 
#
# Total GULP energy -289568.257525 kJ/mol
# GULP energy per Si atom -5568.620337 kJ/mol
# Density = 1.928574 g / cm^3
# Si number density = 19.329738 Si / 1000 Ang^3
#
#
#
# Elastic Constant Matrix: (Units=GPa)
#
#
# Indices 1 2 3 4 5 6 
#
# 1 168.3755 31.0159 32.3382 0.0000 0.0000 0.0000
# 2 31.0159 34.2211 7.6581 0.0000 0.0000 0.0000
# 3 32.3382 7.6581 81.0887 0.0000 0.0000 0.0000
# 4 0.0000 0.0000 0.0000 27.1720 0.0000 0.0000
# 5 0.0000 0.0000 0.0000 0.0000 6.0529 0.0000
# 6 0.0000 0.0000 0.0000 0.0000 0.0000 17.8690
#
#
#
# Elastic Compliance Matrix: (Units=1/GPa)
#
#
# Indices 1 2 3 4 5 6 
#
# 1 0.007568 -0.006317 -0.002421 0.000000 0.000000 0.000000
# 2 -0.006317 0.035126 -0.000798 0.000000 0.000000 0.000000
# 3 -0.002421 -0.000798 0.013373 0.000000 0.000000 0.000000
# 4 0.000000 0.000000 0.000000 0.036803 0.000000 0.000000
# 5 0.000000 0.000000 0.000000 0.000000 0.165210 0.000000
# 6 0.000000 0.000000 0.000000 0.000000 0.000000 0.055963
#
#
# Mechanical properties :
#
#
# Convention : Reuss Voigt Hill
#
# Bulk Modulus (GPa) = 27.03169 47.30107 37.16638
# Shear Modulus (GPa) = 14.47402 24.39700 19.43551
#
# Velocity S-wave (km/s) = 2.73938 3.55653 3.17436
# Velocity P-wave (km/s) = 4.90107 6.43342 5.71880
#
# Compressibility (1/GPa) = 0.03699362
#
# Stress axis : x y z
#
# Youngs Moduli (GPa) = 132.13824 28.46908 74.77633
#
# Poissons Ratio (x) = 0.17984 0.18107
# Poissons Ratio (y) = 0.83474 0.05967
# Poissons Ratio (z) = 0.31997 0.02272
#
# Static dielectric constant tensor:
#      x y z
#    x 1.688850 0.000000 0.000000 
#    y 0.000000 1.676360 0.000000 
#    z 0.000000 0.000000 1.672020 
# 
# From -- ./inp_files/50751.got.cif
#   From: 2010.05.17/outbox.cif.g08.bks.cpg/sg64_26_cif.got.tgz:50751.got - 2010.06.03 16:29:19.
