data_PCOD9480583
_publ_section_title
;
Structure prediction by ZEFSAII (Michael W. Deem and Ramdas Pophale) SiO2 
 PCOD9480583
Probable space group: C M C A
;
_chemical_formula_sum "Si O2"
_cell_formula_units_Z 88
_cell_length_a 16.320788
_cell_length_b 9.011551
_cell_length_c 30.481595
_cell_angle_alpha 90.000000
_cell_angle_beta 90.000000
_cell_angle_gamma 90.000000
_cell_volume 4483.099283
_symmetry_space_group_name_H-M "C M C A"
_symmetry_group_IT_number 64
_symmetry_cell_setting 'orthorhombic'
loop_
_space_group_symop_operation_xyz
x,y,z
-x,1/2-y,1/2+z
x,-y,-z
-x,1/2+y,1/2-z
-x,-y,-z
x,1/2+y,1/2-z
-x,y,z
x,1/2-y,1/2+z
1/2+x,1/2+y,z
1/2-x,-y,1/2+z
1/2+x,1/2-y,-z
1/2-x,y,1/2-z
1/2-x,1/2-y,-z
1/2+x,y,1/2-z
1/2-x,1/2+y,z
1/2+x,-y,1/2+z
loop_
_atom_site_type_symbol
_atom_site_label
_atom_site_fract_x
_atom_site_fract_y
_atom_site_fract_z
Si Si1 0.088231 0.957246 0.116273
Si Si2 0.184319 0.562223 0.791016
Si Si3 0.680608 0.271999 0.057259
Si Si4 0.767455 0.329769 0.646718
Si Si5 0.789023 0.000000 0.500000
Si Si6 0.500000 0.831968 0.311693
Si Si7 0.000000 0.023489 0.264470
O O1 0.160475 0.066233 0.128103
O O2 0.000000 0.034984 0.114203
O O3 0.102568 0.865153 0.072377
O O4 0.077202 0.838869 0.155972
O O5 0.250000 0.561332 0.750000
O O6 0.197317 0.708993 0.819755
O O7 0.207996 0.429594 0.823754
O O8 0.088257 0.545042 0.778630
O O9 0.726442 0.238008 0.103209
O O10 0.665624 0.117536 0.031862
O O11 0.734497 0.387689 0.029139
O O12 0.500000 0.693426 0.279820
O O13 0.500000 0.988478 0.286826
#
# Coordination Sequence:
#
# PCOD9480583 Si02
#       7
#    16  16  16  16   8   8   8
#     4  10  23  42  68  90 132 176 216 267 330 397
#     4  12  28  42  66  98 137 177 237 280 328 383
#     4  11  20  42  68  99 128 171 214 272 334 417
#     4  12  23  45  67  98 130 185 224 269 333 407
#     4  10  22  36  72 102 130 156 218 274 344 402
#     4  10  26  42  64  90 134 174 225 270 338 378
#     4  12  28  42  66  96 134 180 224 299 325 378
#
# _framework density 19.629276999999998
#
# number of rings (size 3 to 8) (size 9 to 14) (size 15 to 20)
#    0.545    0.364    3.636    2.727    8.909    0.000 
#    0.000    0.909    0.000    0.000    0.000    0.000 
#    0.000    0.000    0.000    0.000    0.000    0.000 
#
# Total GULP energy -245231.685339 kJ/mol
# GULP energy per Si atom -5573.447394 kJ/mol
# Density = 1.958460 g / cm^3
# Si number density = 19.629277 Si / 1000 Ang^3
#
#
#
# Elastic Constant Matrix: (Units=GPa)
#
#
# Indices 1 2 3 4 5 6 
#
# 1 111.9361 22.8452 33.9046 0.0000 0.0000 0.0000
# 2 22.8452 90.6560 33.6525 0.0000 0.0000 0.0000
# 3 33.9046 33.6525 98.0263 0.0000 0.0000 0.0000
# 4 0.0000 0.0000 0.0000 50.4256 0.0000 0.0000
# 5 0.0000 0.0000 0.0000 0.0000 23.1728 0.0000
# 6 0.0000 0.0000 0.0000 0.0000 0.0000 -11.0228
#
#
#
# Elastic Compliance Matrix: (Units=1/GPa)
#
#
# Indices 1 2 3 4 5 6 
#
# 1 0.010140 -0.001436 -0.003014 0.000000 0.000000 0.000000
# 2 -0.001436 0.012845 -0.003913 0.000000 0.000000 0.000000
# 3 -0.003014 -0.003913 0.012587 0.000000 0.000000 0.000000
# 4 0.000000 0.000000 0.000000 0.019831 0.000000 0.000000
# 5 0.000000 0.000000 0.000000 0.000000 0.043154 0.000000
# 6 0.000000 0.000000 0.000000 0.000000 0.000000 -0.090721
#
#
# Mechanical properties :
#
#
# Convention : Reuss Voigt Hill
#
# Bulk Modulus (GPa) = 53.06316 53.49143 53.27730
# Shear Modulus (GPa) = 162.10112 26.52952 94.31532
#
# Velocity S-wave (km/s) = 9.09728 3.68030 6.93921
# Velocity P-wave (km/s) = 11.72343 6.73569 9.56055
#
# Compressibility (1/GPa) = 0.01884547
#
# Stress axis : x y z
#
# Youngs Moduli (GPa) = 98.62199 77.85001 79.44637
#
# Poissons Ratio (x) = 0.11182 0.23945
# Poissons Ratio (y) = 0.14166 0.31087
# Poissons Ratio (z) = 0.29724 0.30462
#
# Static dielectric constant tensor:
#      x y z
#    x 1.730420 0.000000 0.000000 
#    y 0.000000 1.705750 0.000000 
#    z 0.000000 0.000000 1.704420 
# 
# From -- ./inp_files/53596.got.cif
#   From: 2010.05.17/outbox.cif.g08.bks.cpg/sg64_27_cif.got.tgz:53596.got - 2010.06.03 16:29:19.
