data_PCOD9480081
_publ_section_title
;
Structure prediction by ZEFSAII (Michael W. Deem and Ramdas Pophale) SiO2 
 PCOD9480081
Probable space group: C M C A
;
_chemical_formula_sum "Si O2"
_cell_formula_units_Z 96
_cell_length_a 15.836522
_cell_length_b 14.212836
_cell_length_c 19.770612
_cell_angle_alpha 90.000000
_cell_angle_beta 90.000000
_cell_angle_gamma 90.000000
_cell_volume 4450.006715
_symmetry_space_group_name_H-M "C M C A"
_symmetry_group_IT_number 64
_symmetry_cell_setting 'orthorhombic'
loop_
_space_group_symop_operation_xyz
x,y,z
-x,1/2-y,1/2+z
x,-y,-z
-x,1/2+y,1/2-z
-x,-y,-z
x,1/2+y,1/2-z
-x,y,z
x,1/2-y,1/2+z
1/2+x,1/2+y,z
1/2-x,-y,1/2+z
1/2+x,1/2-y,-z
1/2-x,y,1/2-z
1/2-x,1/2-y,-z
1/2+x,y,1/2-z
1/2-x,1/2+y,z
1/2+x,-y,1/2+z
loop_
_atom_site_type_symbol
_atom_site_label
_atom_site_fract_x
_atom_site_fract_y
_atom_site_fract_z
Si Si1 0.096095 0.151934 0.009685
Si Si2 0.597277 0.784167 0.893180
Si Si3 0.904529 0.273097 0.136505
Si Si4 0.267813 0.437135 0.559214
Si Si5 0.689532 0.045807 0.810377
Si Si6 0.351432 0.354950 0.745911
O O1 0.103278 0.243300 0.058603
O O2 0.175739 0.092201 0.033088
O O3 0.000000 0.114979 0.019965
O O4 0.105073 0.185784 0.932485
O O5 0.500000 0.816279 0.904960
O O6 0.669631 0.851276 0.923937
O O7 0.614119 0.786794 0.813065
O O8 0.850242 0.361318 0.158708
O O9 0.884564 0.181764 0.182595
O O10 0.000000 0.300271 0.149692
O O11 0.307475 0.500000 0.500000
O O12 0.261715 0.494738 0.628578
O O13 0.750000 0.074851 0.750000
O O14 0.630546 0.962107 0.778833
O O15 0.250000 0.349436 0.750000
#
# Coordination Sequence:
#
# PCOD9480081 Si02
#       6
#    16  16  16  16  16  16
#     4  10  22  40  61  88 122 163 211 258 310 369
#     4  10  21  38  62  90 120 156 200 253 311 369
#     4  11  22  37  60  87 118 159 203 252 307 365
#     4  11  23  38  60  87 119 162 205 253 311 367
#     4  10  22  38  57  85 117 154 200 250 306 368
#     4  10  21  39  61  86 121 160 202 253 306 365
#
# _framework density 21.573001000000001
#
# number of rings (size 3 to 8) (size 9 to 14) (size 15 to 20)
#    0.000    1.667    0.000    5.500    0.000    6.667 
#    0.000    0.833    0.000    0.000    0.000    0.000 
#    0.000    0.000    0.000    0.000    0.000    0.000 
#
# Total GULP energy -268055.910672 kJ/mol
# GULP energy per Si atom -5584.498139 kJ/mol
# Density = 2.152390 g / cm^3
# Si number density = 21.573001 Si / 1000 Ang^3
#
#
#
# Elastic Constant Matrix: (Units=GPa)
#
#
# Indices 1 2 3 4 5 6 
#
# 1 83.4440 20.2437 -1.0824 0.0000 0.0000 0.0000
# 2 20.2437 57.5764 3.0999 0.0000 0.0000 0.0000
# 3 -1.0824 3.0999 57.6738 0.0000 0.0000 0.0000
# 4 0.0000 0.0000 0.0000 38.0307 0.0000 0.0000
# 5 0.0000 0.0000 0.0000 0.0000 -12.6945 0.0000
# 6 0.0000 0.0000 0.0000 0.0000 0.0000 19.0308
#
#
#
# Elastic Compliance Matrix: (Units=1/GPa)
#
#
# Indices 1 2 3 4 5 6 
#
# 1 0.013116 -0.004638 0.000495 0.000000 0.000000 0.000000
# 2 -0.004638 0.019059 -0.001111 0.000000 0.000000 0.000000
# 3 0.000495 -0.001111 0.017408 0.000000 0.000000 0.000000
# 4 0.000000 0.000000 0.000000 0.026295 0.000000 0.000000
# 5 0.000000 0.000000 0.000000 0.000000 -0.078774 0.000000
# 6 0.000000 0.000000 0.000000 0.000000 0.000000 0.052546
#
#
# Mechanical properties :
#
#
# Convention : Reuss Voigt Hill
#
# Bulk Modulus (GPa) = 25.59229 27.02405 26.30817
# Shear Modulus (GPa) = 68.32250 20.63559 44.47905
#
# Velocity S-wave (km/s) = 5.63375 3.09616 4.54562
# Velocity P-wave (km/s) = 7.36259 5.03345 6.30648
#
# Compressibility (1/GPa) = 0.03907427
#
# Stress axis : x y z
#
# Youngs Moduli (GPa) = 76.24428 52.46915 57.44511
#
# Poissons Ratio (x) = 0.24336 -0.02846
# Poissons Ratio (y) = 0.35363 0.06385
# Poissons Ratio (z) = -0.03778 0.05832
#
# Static dielectric constant tensor:
#      x y z
#    x 1.775390 0.000000 0.000000 
#    y 0.000000 1.808680 0.000000 
#    z 0.000000 0.000000 1.773750 
# 
# From -- ./inp_files/39221.got.cif
#   From: 2010.05.17/outbox.cif.g08.bks.cpg/sg64_20_cif.got.tgz:39221.got - 2010.06.03 16:29:19.
