data_PCOD9480905
_publ_section_title
;
Structure prediction by ZEFSAII (Michael W. Deem and Ramdas Pophale) SiO2 
 PCOD9480905
Probable space group: C M C A
;
_chemical_formula_sum "Si O2"
_cell_formula_units_Z 88
_cell_length_a 14.651575
_cell_length_b 10.600828
_cell_length_c 27.685938
_cell_angle_alpha 90.000000
_cell_angle_beta 90.000000
_cell_angle_gamma 90.000000
_cell_volume 4300.147401
_symmetry_space_group_name_H-M "C M C A"
_symmetry_group_IT_number 64
_symmetry_cell_setting 'orthorhombic'
loop_
_space_group_symop_operation_xyz
x,y,z
-x,1/2-y,1/2+z
x,-y,-z
-x,1/2+y,1/2-z
-x,-y,-z
x,1/2+y,1/2-z
-x,y,z
x,1/2-y,1/2+z
1/2+x,1/2+y,z
1/2-x,-y,1/2+z
1/2+x,1/2-y,-z
1/2-x,y,1/2-z
1/2-x,1/2-y,-z
1/2+x,y,1/2-z
1/2-x,1/2+y,z
1/2+x,-y,1/2+z
loop_
_atom_site_type_symbol
_atom_site_label
_atom_site_fract_x
_atom_site_fract_y
_atom_site_fract_z
Si Si1 0.160960 0.707838 0.842394
Si Si2 0.750000 0.088226 0.750000
Si Si3 0.395818 0.517051 0.179645
Si Si4 0.000000 0.183013 0.434375
Si Si5 0.349655 0.500000 0.000000
Si Si6 0.500000 0.693697 0.035503
Si Si7 0.677415 0.653723 0.907894
Si Si8 0.500000 0.087461 0.887618
O O1 0.211893 0.672166 0.793377
O O2 0.108550 0.836692 0.833445
O O3 0.234031 0.720452 0.885665
O O4 0.091015 0.596932 0.855910
O O5 0.668837 0.008771 0.725489
O O6 0.500000 0.476914 0.188354
O O7 0.355580 0.442938 0.133514
O O8 0.091743 0.253389 0.416088
O O9 0.000000 0.208977 0.491169
O O10 0.000000 0.038419 0.418977
O O11 0.414428 0.400393 0.971540
O O12 0.300736 0.580281 0.958004
O O13 0.500000 0.782932 0.081471
#
# Coordination Sequence:
#
# PCOD9480905 Si02
#       8
#    16   8  16   8   8   8  16   8
#     4  11  25  43  65  94 128 160 216 267 328 376
#     4  10  26  44  62  98 124 162 206 276 326 392
#     4  11  22  43  70  90 126 166 216 260 322 388
#     4  10  22  41  63  93 133 173 210 257 318 373
#     4   9  18  38  70  95 128 172 226 251 308 385
#     4   9  19  38  64  94 131 171 220 258 305 380
#     4  10  22  41  65  97 126 174 213 260 305 383
#     4  12  24  41  61  97 131 169 204 272 331 363
#
# _framework density 20.464414999999999
#
# number of rings (size 3 to 8) (size 9 to 14) (size 15 to 20)
#    0.000    1.636    1.818    2.455    6.364    0.000 
#    3.273    2.727    0.000    0.000    0.000    0.000 
#    0.000    0.000    0.000    0.000    0.000    0.000 
#
# Total GULP energy -245809.044582 kJ/mol
# GULP energy per Si atom -5586.569195 kJ/mol
# Density = 2.041784 g / cm^3
# Si number density = 20.464415 Si / 1000 Ang^3
#
#
#
# Elastic Constant Matrix: (Units=GPa)
#
#
# Indices 1 2 3 4 5 6 
#
# 1 77.2870 -7.2849 25.7696 0.0000 0.0000 0.0000
# 2 -7.2849 68.2031 14.6130 0.0000 0.0000 0.0000
# 3 25.7696 14.6130 100.7736 0.0000 0.0000 0.0000
# 4 0.0000 0.0000 0.0000 19.2876 0.0000 0.0000
# 5 0.0000 0.0000 0.0000 0.0000 19.9366 0.0000
# 6 0.0000 0.0000 0.0000 0.0000 0.0000 20.7947
#
#
#
# Elastic Compliance Matrix: (Units=1/GPa)
#
#
# Indices 1 2 3 4 5 6 
#
# 1 0.014522 0.002422 -0.004065 0.000000 0.000000 0.000000
# 2 0.002422 0.015536 -0.002872 0.000000 0.000000 0.000000
# 3 -0.004065 -0.002872 0.011379 0.000000 0.000000 0.000000
# 4 0.000000 0.000000 0.000000 0.051847 0.000000 0.000000
# 5 0.000000 0.000000 0.000000 0.000000 0.050159 0.000000
# 6 0.000000 0.000000 0.000000 0.000000 0.000000 0.048089
#
#
# Mechanical properties :
#
#
# Convention : Reuss Voigt Hill
#
# Bulk Modulus (GPa) = 30.85678 34.71766 32.78722
# Shear Modulus (GPa) = 23.65573 26.21486 24.93530
#
# Velocity S-wave (km/s) = 3.40361 3.58299 3.49445
# Velocity P-wave (km/s) = 5.52784 5.84113 5.68664
#
# Compressibility (1/GPa) = 0.03240779
#
# Stress axis : x y z
#
# Youngs Moduli (GPa) = 68.85903 64.36583 87.87971
#
# Poissons Ratio (x) = -0.15590 0.35722
# Poissons Ratio (y) = -0.16678 0.25241
# Poissons Ratio (z) = 0.27990 0.18487
#
# Static dielectric constant tensor:
#      x y z
#    x 1.737380 0.000000 0.000000 
#    y 0.000000 1.696230 0.000000 
#    z 0.000000 0.000000 1.712710 
# 
# From -- ./inp_files/49986.got.cif
#   From: 2010.05.17/outbox.cif.g08.bks.cpg/sg64_25_cif.got.tgz:49986.got - 2010.06.03 16:29:19.
