data_PCOD9480861
_publ_section_title
;
Structure prediction by ZEFSAII (Michael W. Deem and Ramdas Pophale) SiO2 
 PCOD9480861
Probable space group: C M C A
;
_chemical_formula_sum "Si O2"
_cell_formula_units_Z 72
_cell_length_a 22.442281
_cell_length_b 8.960624
_cell_length_c 14.983095
_cell_angle_alpha 90.000000
_cell_angle_beta 90.000000
_cell_angle_gamma 90.000000
_cell_volume 3013.053084
_symmetry_space_group_name_H-M "C M C A"
_symmetry_group_IT_number 64
_symmetry_cell_setting 'orthorhombic'
loop_
_space_group_symop_operation_xyz
x,y,z
-x,1/2-y,1/2+z
x,-y,-z
-x,1/2+y,1/2-z
-x,-y,-z
x,1/2+y,1/2-z
-x,y,z
x,1/2-y,1/2+z
1/2+x,1/2+y,z
1/2-x,-y,1/2+z
1/2+x,1/2-y,-z
1/2-x,y,1/2-z
1/2-x,1/2-y,-z
1/2+x,y,1/2-z
1/2-x,1/2+y,z
1/2+x,-y,1/2+z
loop_
_atom_site_type_symbol
_atom_site_label
_atom_site_fract_x
_atom_site_fract_y
_atom_site_fract_z
Si Si1 0.692328 0.238957 0.305660
Si Si2 0.599362 0.500000 0.000000
Si Si3 0.372671 0.233901 0.129990
Si Si4 0.764763 0.009464 0.401584
Si Si5 0.500000 0.569911 0.134311
Si Si6 0.000000 0.285575 0.826741
O O1 0.750000 0.288255 0.250000
O O2 0.638419 0.259332 0.237152
O O3 0.711195 0.074183 0.339100
O O4 0.698856 0.357149 0.383939
O O5 0.628109 0.375041 0.064029
O O6 0.557128 0.589427 0.070360
O O7 0.316845 0.131762 0.105895
O O8 0.438595 0.163902 0.126817
O O9 0.740271 0.000000 0.500000
O O10 0.500000 0.664911 0.223856
O O11 0.500000 0.394869 0.163307
#
# Coordination Sequence:
#
# PCOD9480861 Si02
#       6
#    16   8  16  16   8   8
#     4  10  22  45  69  92 135 179 227 285 353 422
#     4   9  20  42  64 100 136 182 226 285 330 418
#     4  10  23  42  70  99 141 183 235 280 355 415
#     4  11  24  45  67 103 132 177 235 296 356 417
#     4   9  20  40  66  95 138 180 232 271 346 397
#     4  10  22  40  67 101 136 188 224 284 342 430
#
# _framework density 23.896027
#
# number of rings (size 3 to 8) (size 9 to 14) (size 15 to 20)
#    0.000    2.000    0.000    3.333    6.222    1.778 
#   20.000    0.556    2.444    0.000    0.000    0.000 
#    0.000    0.000    0.000    0.000    0.000    0.000 
#
# Total GULP energy -200841.692230 kJ/mol
# GULP energy per Si atom -5578.935895 kJ/mol
# Density = 2.384164 g / cm^3
# Si number density = 23.896027 Si / 1000 Ang^3
#
#
#
# Elastic Constant Matrix: (Units=GPa)
#
#
# Indices 1 2 3 4 5 6 
#
# 1 100.2112 10.3973 6.9673 0.0000 0.0000 0.0000
# 2 10.3973 59.4197 27.6342 0.0000 0.0000 0.0000
# 3 6.9673 27.6342 99.1721 0.0000 0.0000 0.0000
# 4 0.0000 0.0000 0.0000 55.4840 0.0000 0.0000
# 5 0.0000 0.0000 0.0000 0.0000 32.7663 0.0000
# 6 0.0000 0.0000 0.0000 0.0000 0.0000 578.5190
#
#
#
# Elastic Compliance Matrix: (Units=1/GPa)
#
#
# Indices 1 2 3 4 5 6 
#
# 1 0.010169 -0.001663 -0.000251 0.000000 0.000000 0.000000
# 2 -0.001663 0.019607 -0.005347 0.000000 0.000000 0.000000
# 3 -0.000251 -0.005347 0.011591 0.000000 0.000000 0.000000
# 4 0.000000 0.000000 0.000000 0.018023 0.000000 0.000000
# 5 0.000000 0.000000 0.000000 0.000000 0.030519 0.000000
# 6 0.000000 0.000000 0.000000 0.000000 0.000000 0.001729
#
#
# Mechanical properties :
#
#
# Convention : Reuss Voigt Hill
#
# Bulk Modulus (GPa) = 37.24938 38.75560 38.00249
# Shear Modulus (GPa) = 43.43784 147.60749 95.52266
#
# Velocity S-wave (km/s) = 4.26817 7.86796 6.32938
# Velocity P-wave (km/s) = 6.31757 9.93949 8.32782
#
# Compressibility (1/GPa) = 0.02684608
#
# Stress axis : x y z
#
# Youngs Moduli (GPa) = 98.33919 51.00242 86.27413
#
# Poissons Ratio (x) = 0.08479 0.02167
# Poissons Ratio (y) = 0.16349 0.46128
# Poissons Ratio (z) = 0.02470 0.27269
#
# Static dielectric constant tensor:
#      x y z
#    x 1.957770 0.000000 0.000000 
#    y 0.000000 1.930780 0.000000 
#    z 0.000000 0.000000 2.013980 
# 
# From -- ./inp_files/27835.got.cif
#   From: 2010.05.17/outbox.cif.g08.bks.cpg/sg64_14_cif.got.tgz:27835.got - 2010.06.03 16:29:19.
