data_PCOD9480694
_publ_section_title
;
Structure prediction by ZEFSAII (Michael W. Deem and Ramdas Pophale) SiO2 
 PCOD9480694
Probable space group: C M C A
;
_chemical_formula_sum "Si O2"
_cell_formula_units_Z 80
_cell_length_a 15.214191
_cell_length_b 10.182355
_cell_length_c 22.993566
_cell_angle_alpha 90.000000
_cell_angle_beta 90.000000
_cell_angle_gamma 90.000000
_cell_volume 3562.078026
_symmetry_space_group_name_H-M "C M C A"
_symmetry_group_IT_number 64
_symmetry_cell_setting 'orthorhombic'
loop_
_space_group_symop_operation_xyz
x,y,z
-x,1/2-y,1/2+z
x,-y,-z
-x,1/2+y,1/2-z
-x,-y,-z
x,1/2+y,1/2-z
-x,y,z
x,1/2-y,1/2+z
1/2+x,1/2+y,z
1/2-x,-y,1/2+z
1/2+x,1/2-y,-z
1/2-x,y,1/2-z
1/2-x,1/2-y,-z
1/2+x,y,1/2-z
1/2-x,1/2+y,z
1/2+x,-y,1/2+z
loop_
_atom_site_type_symbol
_atom_site_label
_atom_site_fract_x
_atom_site_fract_y
_atom_site_fract_z
Si Si1 0.595625 0.581210 0.910182
Si Si2 0.743478 0.272054 0.381144
Si Si3 0.597456 0.332330 0.286253
Si Si4 0.167496 0.384449 0.792944
Si Si5 0.402769 0.709029 0.035236
O O1 0.500000 0.603137 0.881523
O O2 0.684846 0.613079 0.877703
O O3 0.596394 0.432667 0.932955
O O4 0.600796 0.676078 0.966883
O O5 0.669317 0.289680 0.332851
O O6 0.798554 0.144859 0.358524
O O7 0.686044 0.273429 0.440069
O O8 0.500000 0.296719 0.305337
O O9 0.620541 0.248228 0.229326
O O10 0.607515 0.488932 0.283257
O O11 0.250000 0.406559 0.750000
O O12 0.500000 0.770991 0.046477
#
# Coordination Sequence:
#
# PCOD9480694 Si02
#       5
#    16  16  16  16  16
#     4   9  19  34  53  78 110 146 184 222 265 320
#     4  11  20  34  57  83 110 141 183 231 278 323
#     4  11  23  39  58  82 112 147 185 230 281 335
#     4  10  22  39  57  80 111 147 186 229 278 334
#     4   9  18  34  54  79 110 145 183 222 265 322
#
# _framework density 22.4588
#
# number of rings (size 3 to 8) (size 9 to 14) (size 15 to 20)
#    0.000    2.000    0.000    6.000    0.000    3.200 
#    0.000    4.000    0.000    0.000    0.000   12.600 
#    0.000    0.000    0.000    0.000    0.000    0.000 
#
# Total GULP energy -223124.259336 kJ/mol
# GULP energy per Si atom -5578.106483 kJ/mol
# Density = 2.240768 g / cm^3
# Si number density = 22.458800 Si / 1000 Ang^3
#
#
#
# Elastic Constant Matrix: (Units=GPa)
#
#
# Indices 1 2 3 4 5 6 
#
# 1 150.0314 14.4051 5.9384 0.0000 0.0000 0.0000
# 2 14.4051 52.4171 -3.0409 0.0000 0.0000 0.0000
# 3 5.9384 -3.0409 15.4222 0.0000 0.0000 0.0000
# 4 0.0000 0.0000 0.0000 17.8097 0.0000 0.0000
# 5 0.0000 0.0000 0.0000 0.0000 22.7077 0.0000
# 6 0.0000 0.0000 0.0000 0.0000 0.0000 -109.2274
#
#
#
# Elastic Compliance Matrix: (Units=1/GPa)
#
#
# Indices 1 2 3 4 5 6 
#
# 1 0.006990 -0.002101 -0.003106 0.000000 0.000000 0.000000
# 2 -0.002101 0.019930 0.004739 0.000000 0.000000 0.000000
# 3 -0.003106 0.004739 0.066972 0.000000 0.000000 0.000000
# 4 0.000000 0.000000 0.000000 0.056149 0.000000 0.000000
# 5 0.000000 0.000000 0.000000 0.000000 0.044038 0.000000
# 6 0.000000 0.000000 0.000000 0.000000 0.000000 -0.009155
#
#
# Mechanical properties :
#
#
# Convention : Reuss Voigt Hill
#
# Bulk Modulus (GPa) = 10.75779 28.05287 19.40533
# Shear Modulus (GPa) = 23.05788 -0.37081 11.34353
#
# Velocity S-wave (km/s) = 3.20765 -0.40678 2.24984
# Velocity P-wave (km/s) = 4.30338 3.50675 3.92533
#
# Compressibility (1/GPa) = 0.09295588
#
# Stress axis : x y z
#
# Youngs Moduli (GPa) = 143.06266 50.17534 14.93160
#
# Poissons Ratio (x) = 0.10543 0.04638
# Poissons Ratio (y) = 0.30059 -0.07076
# Poissons Ratio (z) = 0.44433 -0.23777
#
# Static dielectric constant tensor:
#      x y z
#    x 2.008580 0.000000 0.000000 
#    y 0.000000 1.832670 0.000000 
#    z 0.000000 0.000000 1.881380 
# 
# From -- ./inp_files/44936.got.cif
#   From: 2010.05.17/outbox.cif.g08.bks.cpg/sg64_23_cif.got.tgz:44936.got - 2010.06.03 16:29:19.
