data_PCOD9480904
_publ_section_title
;
Structure prediction by ZEFSAII (Michael W. Deem and Ramdas Pophale) SiO2 
 PCOD9480904
Probable space group: C M C A
;
_chemical_formula_sum "Si O2"
_cell_formula_units_Z 64
_cell_length_a 13.197068
_cell_length_b 23.972067
_cell_length_c 7.357492
_cell_angle_alpha 90.000000
_cell_angle_beta 90.000000
_cell_angle_gamma 90.000000
_cell_volume 2327.623514
_symmetry_space_group_name_H-M "C M C A"
_symmetry_group_IT_number 64
_symmetry_cell_setting 'orthorhombic'
loop_
_space_group_symop_operation_xyz
x,y,z
-x,1/2-y,1/2+z
x,-y,-z
-x,1/2+y,1/2-z
-x,-y,-z
x,1/2+y,1/2-z
-x,y,z
x,1/2-y,1/2+z
1/2+x,1/2+y,z
1/2-x,-y,1/2+z
1/2+x,1/2-y,-z
1/2-x,y,1/2-z
1/2-x,1/2-y,-z
1/2+x,y,1/2-z
1/2-x,1/2+y,z
1/2+x,-y,1/2+z
loop_
_atom_site_type_symbol
_atom_site_label
_atom_site_fract_x
_atom_site_fract_y
_atom_site_fract_z
Si Si1 0.889532 0.200978 0.773104
Si Si2 0.159713 0.822244 0.609040
Si Si3 0.886403 0.410781 0.439529
Si Si4 0.841350 0.436648 0.017040
O O1 0.890887 0.264358 0.834790
O O2 0.814756 0.190068 0.603981
O O3 0.885458 0.156724 0.937385
O O4 0.000000 0.189199 0.685957
O O5 0.250000 0.825628 0.750000
O O6 0.115944 0.885293 0.601846
O O7 0.869622 0.422933 0.225018
O O8 0.781347 0.434194 0.520225
O O9 0.000000 0.429651 0.495362
O O10 0.875217 0.500000 0.000000
#
# Coordination Sequence:
#
# PCOD9480904 Si02
#       4
#    16  16  16  16
#     4  10  22  41  63  93 132 167 212 268 333 399
#     4  11  24  38  65  96 129 172 214 267 331 393
#     4   9  21  41  64  90 126 171 215 275 338 390
#     4  10  23  41  66  93 130 174 225 274 327 396
#
# _framework density 27.495854999999999
#
# number of rings (size 3 to 8) (size 9 to 14) (size 15 to 20)
#    0.000    2.000    0.000    1.500   14.000    2.000 
#    0.000    1.250    0.000    0.000    0.000    0.000 
#    0.000    0.000    0.000    0.000    0.000    0.000 
#
# Total GULP energy -178797.166054 kJ/mol
# GULP energy per Si atom -5587.411439 kJ/mol
# Density = 2.743327 g / cm^3
# Si number density = 27.495855 Si / 1000 Ang^3
#
#
#
# Elastic Constant Matrix: (Units=GPa)
#
#
# Indices 1 2 3 4 5 6 
#
# 1 132.7243 22.0240 16.4654 0.0000 0.0000 0.0000
# 2 22.0240 254.7607 16.6310 0.0000 0.0000 0.0000
# 3 16.4654 16.6310 68.8252 0.0000 0.0000 0.0000
# 4 0.0000 0.0000 0.0000 22.2220 0.0000 0.0000
# 5 0.0000 0.0000 0.0000 0.0000 12.5814 0.0000
# 6 0.0000 0.0000 0.0000 0.0000 0.0000 -15.4956
#
#
#
# Elastic Compliance Matrix: (Units=1/GPa)
#
#
# Indices 1 2 3 4 5 6 
#
# 1 0.007844 -0.000565 -0.001740 0.000000 0.000000 0.000000
# 2 -0.000565 0.004029 -0.000838 0.000000 0.000000 0.000000
# 3 -0.001740 -0.000838 0.015148 0.000000 0.000000 0.000000
# 4 0.000000 0.000000 0.000000 0.045000 0.000000 0.000000
# 5 0.000000 0.000000 0.000000 0.000000 0.079482 0.000000
# 6 0.000000 0.000000 0.000000 0.000000 0.000000 -0.064535
#
#
# Mechanical properties :
#
#
# Convention : Reuss Voigt Hill
#
# Bulk Modulus (GPa) = 48.22770 62.95013 55.58891
# Shear Modulus (GPa) = 49.91650 30.60756 40.26203
#
# Velocity S-wave (km/s) = 4.26540 3.34004 3.83076
# Velocity P-wave (km/s) = 6.46809 6.14968 6.31090
#
# Compressibility (1/GPa) = 0.02073497
#
# Stress axis : x y z
#
# Youngs Moduli (GPa) = 127.48656 248.21346 66.01324
#
# Poissons Ratio (x) = 0.14012 0.11487
# Poissons Ratio (y) = 0.07197 0.05535
# Poissons Ratio (z) = 0.22185 0.20812
#
# Static dielectric constant tensor:
#      x y z
#    x 2.286670 0.000000 0.000000 
#    y 0.000000 2.136440 0.000000 
#    z 0.000000 0.000000 2.098830 
# 
# From -- ./inp_files/5598.got.cif
#   From: 2010.05.17/outbox.cif.g08.bks.cpg/sg64_3_cif.got.tgz:5598.got - 2010.06.03 16:29:19.
