data_PCOD9480761
_publ_section_title
;
Structure prediction by ZEFSAII (Michael W. Deem and Ramdas Pophale) SiO2 
 PCOD9480761
Probable space group: C M C A
;
_chemical_formula_sum "Si O2"
_cell_formula_units_Z 64
_cell_length_a 10.157995
_cell_length_b 21.184984
_cell_length_c 15.735105
_cell_angle_alpha 90.000000
_cell_angle_beta 90.000000
_cell_angle_gamma 90.000000
_cell_volume 3386.146786
_symmetry_space_group_name_H-M "C M C A"
_symmetry_group_IT_number 64
_symmetry_cell_setting 'orthorhombic'
loop_
_space_group_symop_operation_xyz
x,y,z
-x,1/2-y,1/2+z
x,-y,-z
-x,1/2+y,1/2-z
-x,-y,-z
x,1/2+y,1/2-z
-x,y,z
x,1/2-y,1/2+z
1/2+x,1/2+y,z
1/2-x,-y,1/2+z
1/2+x,1/2-y,-z
1/2-x,y,1/2-z
1/2-x,1/2-y,-z
1/2+x,y,1/2-z
1/2-x,1/2+y,z
1/2+x,-y,1/2+z
loop_
_atom_site_type_symbol
_atom_site_label
_atom_site_fract_x
_atom_site_fract_y
_atom_site_fract_z
Si Si1 0.729716 0.665324 0.579483
Si Si2 0.653039 0.201764 0.109725
Si Si3 0.500000 0.895858 0.383212
Si Si4 0.000000 0.894698 0.310750
Si Si5 0.250000 0.895971 0.750000
Si Si6 0.500000 0.518717 0.214054
O O1 0.670949 0.676627 0.486251
O O2 0.762202 0.734420 0.617081
O O3 0.628040 0.628454 0.639130
O O4 0.867607 0.628253 0.573406
O O5 0.500000 0.216865 0.123784
O O6 0.699603 0.148967 0.174930
O O7 0.500000 0.868988 0.285965
O O8 0.500000 0.970947 0.365998
O O9 0.000000 0.969924 0.294100
O O10 0.370234 0.939218 0.718573
#
# Coordination Sequence:
#
# PCOD9480761 Si02
#       6
#    16  16   8   8   8   8
#     4  11  22  42  67 100 125 167 214 267 328 364
#     4  11  25  42  64  96 139 161 208 269 323 401
#     4  10  22  39  69  91 129 163 221 270 299 376
#     4  10  22  39  71  91 131 165 211 276 309 366
#     4  12  24  44  66  90 134 180 202 256 340 376
#     4  10  24  42  64  96 130 168 222 266 296 386
#
# _framework density 18.900538000000001
#
# number of rings (size 3 to 8) (size 9 to 14) (size 15 to 20)
#    0.750    0.500    3.750    2.250    3.500    2.000 
#    0.000    7.500    0.000    0.000    0.000    0.000 
#    0.000    0.000    0.000    0.000    0.000    0.000 
#
# Total GULP energy -178721.329333 kJ/mol
# GULP energy per Si atom -5585.041542 kJ/mol
# Density = 1.885752 g / cm^3
# Si number density = 18.900538 Si / 1000 Ang^3
#
#
#
# Elastic Constant Matrix: (Units=GPa)
#
#
# Indices 1 2 3 4 5 6 
#
# 1 98.9877 18.6959 1.8432 0.0000 0.0000 0.0000
# 2 18.6959 87.4962 18.7514 0.0000 0.0000 0.0000
# 3 1.8432 18.7514 25.0594 0.0000 0.0000 0.0000
# 4 0.0000 0.0000 0.0000 603.7801 0.0000 0.0000
# 5 0.0000 0.0000 0.0000 0.0000 33.1215 0.0000
# 6 0.0000 0.0000 0.0000 0.0000 0.0000 -2.6379
#
#
#
# Elastic Compliance Matrix: (Units=1/GPa)
#
#
# Indices 1 2 3 4 5 6 
#
# 1 0.010552 -0.002487 0.001085 0.000000 0.000000 0.000000
# 2 -0.002487 0.014198 -0.010441 0.000000 0.000000 0.000000
# 3 0.001085 -0.010441 0.047638 0.000000 0.000000 0.000000
# 4 0.000000 0.000000 0.000000 0.001656 0.000000 0.000000
# 5 0.000000 0.000000 0.000000 0.000000 0.030192 0.000000
# 6 0.000000 0.000000 0.000000 0.000000 0.000000 -0.379095
#
#
# Mechanical properties :
#
#
# Convention : Reuss Voigt Hill
#
# Bulk Modulus (GPa) = 20.53326 32.23602 26.38464
# Shear Modulus (GPa) = -21.28221 138.33625 58.52702
#
# Velocity S-wave (km/s) = -3.35925 8.56450 5.57073
# Velocity P-wave (km/s) = 2.03927 10.71884 7.44093
#
# Compressibility (1/GPa) = 0.04870148
#
# Stress axis : x y z
#
# Youngs Moduli (GPa) = 94.77033 70.43141 20.99149
#
# Poissons Ratio (x) = 0.17518 -0.02278
# Poissons Ratio (y) = 0.23571 0.21918
# Poissons Ratio (z) = -0.10283 0.73539
#
# Static dielectric constant tensor:
#      x y z
#    x 1.628410 0.000000 0.000000 
#    y 0.000000 1.642050 0.000000 
#    z 0.000000 0.000000 1.633790 
# 
# From -- ./inp_files/29314.got.cif
#   From: 2010.05.17/outbox.cif.g08.bks.cpg/sg64_15_cif.got.tgz:29314.got - 2010.06.03 16:29:19.
