data_PCOD9480134
_publ_section_title
;
Structure prediction by ZEFSAII (Michael W. Deem and Ramdas Pophale) SiO2 
 PCOD9480134
Probable space group: C M C A
;
_chemical_formula_sum "Si O2"
_cell_formula_units_Z 56
_cell_length_a 17.431185
_cell_length_b 16.345611
_cell_length_c 8.695983
_cell_angle_alpha 90.000000
_cell_angle_beta 90.000000
_cell_angle_gamma 90.000000
_cell_volume 2477.688776
_symmetry_space_group_name_H-M "C M C A"
_symmetry_group_IT_number 64
_symmetry_cell_setting 'orthorhombic'
loop_
_space_group_symop_operation_xyz
x,y,z
-x,1/2-y,1/2+z
x,-y,-z
-x,1/2+y,1/2-z
-x,-y,-z
x,1/2+y,1/2-z
-x,y,z
x,1/2-y,1/2+z
1/2+x,1/2+y,z
1/2-x,-y,1/2+z
1/2+x,1/2-y,-z
1/2-x,y,1/2-z
1/2-x,1/2-y,-z
1/2+x,y,1/2-z
1/2-x,1/2+y,z
1/2+x,-y,1/2+z
loop_
_atom_site_type_symbol
_atom_site_label
_atom_site_fract_x
_atom_site_fract_y
_atom_site_fract_z
Si Si1 0.250000 0.517739 0.750000
Si Si2 0.750000 0.787122 0.750000
Si Si3 0.000000 0.865331 0.451768
Si Si4 0.129656 0.000000 0.500000
Si Si5 0.167316 0.152212 0.955116
Si Si6 0.000000 0.694521 0.605240
O O1 0.184344 0.478695 0.856305
O O2 0.202575 0.574840 0.631318
O O3 0.806540 0.728854 0.651476
O O4 0.703344 0.836505 0.622648
O O5 0.000000 0.791254 0.571811
O O6 0.074641 0.923084 0.465715
O O7 0.000000 0.823313 0.285894
O O8 0.076292 0.154286 0.963245
#
# Coordination Sequence:
#
# PCOD9480134 Si02
#       6
#     8   8   8   8  16   8
#     4  11  24  47  72  98 147 201 252 298 377 455
#     4   9  20  35  60 104 143 183 240 304 363 415
#     4  11  26  48  78 109 158 193 248 314 385 447
#     4  11  26  52  72 107 154 208 242 313 382 462
#     4  10  21  38  68 104 143 188 245 306 363 444
#     4  12  22  44  74 116 146 193 243 319 370 454
#
# _framework density 22.601707999999999
#
# number of rings (size 3 to 8) (size 9 to 14) (size 15 to 20)
#    0.000    1.429    2.857    1.714    8.000    1.143 
#    5.143    0.000    0.000    4.286    0.000    0.000 
#    0.000    0.000    0.000    0.000    0.000    0.000 
#
# Total GULP energy -156847.123030 kJ/mol
# GULP energy per Si atom -5601.682965 kJ/mol
# Density = 2.255027 g / cm^3
# Si number density = 22.601708 Si / 1000 Ang^3
#
#
#
# Elastic Constant Matrix: (Units=GPa)
#
#
# Indices 1 2 3 4 5 6 
#
# 1 201.9585 46.0478 78.2407 0.0000 0.0000 0.0000
# 2 46.0478 70.2749 52.1779 0.0000 0.0000 0.0000
# 3 78.2407 52.1779 183.6331 0.0000 0.0000 0.0000
# 4 0.0000 0.0000 0.0000 37.7314 0.0000 0.0000
# 5 0.0000 0.0000 0.0000 0.0000 34.1688 0.0000
# 6 0.0000 0.0000 0.0000 0.0000 0.0000 -312.5286
#
#
#
# Elastic Compliance Matrix: (Units=1/GPa)
#
#
# Indices 1 2 3 4 5 6 
#
# 1 0.006313 -0.002712 -0.001919 0.000000 0.000000 0.000000
# 2 -0.002712 0.019199 -0.004300 0.000000 0.000000 0.000000
# 3 -0.001919 -0.004300 0.007485 0.000000 0.000000 0.000000
# 4 0.000000 0.000000 0.000000 0.026503 0.000000 0.000000
# 5 0.000000 0.000000 0.000000 0.000000 0.029266 0.000000
# 6 0.000000 0.000000 0.000000 0.000000 0.000000 -0.003200
#
#
# Mechanical properties :
#
#
# Convention : Reuss Voigt Hill
#
# Bulk Modulus (GPa) = 66.06866 89.86658 77.96762
# Shear Modulus (GPa) = 46.09337 -29.49902 8.29718
#
# Velocity S-wave (km/s) = 4.52084 -3.61663 1.91807
# Velocity P-wave (km/s) = 7.51970 4.73363 6.28304
#
# Compressibility (1/GPa) = 0.01513577
#
# Stress axis : x y z
#
# Youngs Moduli (GPa) = 158.39286 52.08510 133.59590
#
# Poissons Ratio (x) = 0.14124 0.25643
# Poissons Ratio (y) = 0.42952 0.57446
# Poissons Ratio (z) = 0.30403 0.22396
#
# Static dielectric constant tensor:
#      x y z
#    x 1.796450 0.000000 0.000000 
#    y 0.000000 1.870700 0.000000 
#    z 0.000000 0.000000 1.803390 
# 
# From -- ./inp_files/5430.got.cif
#   From: 2010.05.17/outbox.cif.g08.bks.cpg/sg64_3_cif.got.tgz:5430.got - 2010.06.03 16:29:19.
