data_PCOD9480732
_publ_section_title
;
Structure prediction by ZEFSAII (Michael W. Deem and Ramdas Pophale) SiO2 
 PCOD9480732
Probable space group: C M C A
;
_chemical_formula_sum "Si O2"
_cell_formula_units_Z 112
_cell_length_a 26.688021
_cell_length_b 34.453687
_cell_length_c 5.347762
_cell_angle_alpha 90.000000
_cell_angle_beta 90.000000
_cell_angle_gamma 90.000000
_cell_volume 4917.271021
_symmetry_space_group_name_H-M "C M C A"
_symmetry_group_IT_number 64
_symmetry_cell_setting 'orthorhombic'
loop_
_space_group_symop_operation_xyz
x,y,z
-x,1/2-y,1/2+z
x,-y,-z
-x,1/2+y,1/2-z
-x,-y,-z
x,1/2+y,1/2-z
-x,y,z
x,1/2-y,1/2+z
1/2+x,1/2+y,z
1/2-x,-y,1/2+z
1/2+x,1/2-y,-z
1/2-x,y,1/2-z
1/2-x,1/2-y,-z
1/2+x,y,1/2-z
1/2-x,1/2+y,z
1/2+x,-y,1/2+z
loop_
_atom_site_type_symbol
_atom_site_label
_atom_site_fract_x
_atom_site_fract_y
_atom_site_fract_z
Si Si1 0.191139 0.019823 0.755426
Si Si2 0.882697 0.834341 0.536755
Si Si3 0.445845 0.546053 0.503580
Si Si4 0.139953 0.904820 0.245497
Si Si5 0.944175 0.386585 0.628887
Si Si6 0.441913 0.274723 0.230732
Si Si7 0.307689 0.275347 0.773947
O O1 0.250000 0.010814 0.750000
O O2 0.185242 0.065998 0.794711
O O3 0.171445 0.000000 0.500000
O O4 0.167499 0.000000 0.000000
O O5 0.849904 0.870199 0.435780
O O6 0.931460 0.854441 0.661144
O O7 0.904092 0.808273 0.310906
O O8 0.848616 0.807984 0.714372
O O9 0.442824 0.500000 0.500000
O O10 0.500000 0.555779 0.621482
O O11 0.400479 0.564745 0.647529
O O12 0.445562 0.569952 0.244725
O O13 0.106833 0.885861 0.028876
O O14 0.000000 0.378452 0.524684
O O15 0.500000 0.287396 0.246864
O O16 0.435044 0.257005 0.954407
O O17 0.313409 0.244048 0.546927
O O18 0.250000 0.289617 0.750000
#
# Coordination Sequence:
#
# PCOD9480732 Si02
#       7
#    16  16  16  16  16  16  16
#     4  10  24  47  72  97 129 173 224 282 334 389
#     4  11  24  40  61  93 130 175 211 271 332 400
#     4   9  19  36  57  84 122 166 222 272 319 381
#     4  11  24  37  62  94 128 175 214 274 328 402
#     4  10  23  39  57  90 132 176 219 270 333 393
#     4  10  22  39  62  90 120 165 219 265 310 376
#     4  10  23  45  72 100 130 170 220 277 335 401
#
# _framework density 22.776862000000001
#
# number of rings (size 3 to 8) (size 9 to 14) (size 15 to 20)
#    0.000    1.857    0.000    2.143   10.000    1.714 
#    2.571    2.143    0.000    0.000    0.000    0.000 
#    0.000    0.000    0.000    0.000    0.000    0.000 
#
# Total GULP energy -312575.710774 kJ/mol
# GULP energy per Si atom -5581.709121 kJ/mol
# Density = 2.272502 g / cm^3
# Si number density = 22.776862 Si / 1000 Ang^3
#
#
#
# Elastic Constant Matrix: (Units=GPa)
#
#
# Indices 1 2 3 4 5 6 
#
# 1 54.8054 25.5931 13.4041 0.0000 0.0000 0.0000
# 2 25.5931 119.9668 33.2517 0.0000 0.0000 0.0000
# 3 13.4041 33.2517 90.1197 0.0000 0.0000 0.0000
# 4 0.0000 0.0000 0.0000 20.2045 0.0000 0.0000
# 5 0.0000 0.0000 0.0000 0.0000 17.8267 0.0000
# 6 0.0000 0.0000 0.0000 0.0000 0.0000 -19.2715
#
#
#
# Elastic Compliance Matrix: (Units=1/GPa)
#
#
# Indices 1 2 3 4 5 6 
#
# 1 0.020469 -0.003924 -0.001597 0.000000 0.000000 0.000000
# 2 -0.003924 0.010038 -0.003120 0.000000 0.000000 0.000000
# 3 -0.001597 -0.003120 0.012485 0.000000 0.000000 0.000000
# 4 0.000000 0.000000 0.000000 0.049494 0.000000 0.000000
# 5 0.000000 0.000000 0.000000 0.000000 0.056096 0.000000
# 6 0.000000 0.000000 0.000000 0.000000 0.000000 -0.051890
#
#
# Mechanical properties :
#
#
# Convention : Reuss Voigt Hill
#
# Bulk Modulus (GPa) = 38.89475 45.48774 42.19125
# Shear Modulus (GPa) = 40.80197 16.59482 28.69839
#
# Velocity S-wave (km/s) = 4.23706 2.70215 3.55347
# Velocity P-wave (km/s) = 6.40706 5.45435 5.94980
#
# Compressibility (1/GPa) = 0.02571041
#
# Stress axis : x y z
#
# Youngs Moduli (GPa) = 48.85326 99.62546 80.09626
#
# Poissons Ratio (x) = 0.39096 0.12788
# Poissons Ratio (y) = 0.19172 0.24989
# Poissons Ratio (z) = 0.07800 0.31082
#
# Static dielectric constant tensor:
#      x y z
#    x 1.907760 0.000000 0.000000 
#    y 0.000000 1.839830 0.000000 
#    z 0.000000 0.000000 1.953600 
# 
# From -- ./inp_files/3499.got.cif
#   From: 2010.05.17/outbox.cif.g08.bks.cpg/sg64_2_cif.got.tgz:3499.got - 2010.06.03 16:29:19.
