data_PCOD9480748
_publ_section_title
;
Structure prediction by ZEFSAII (Michael W. Deem and Ramdas Pophale) SiO2 
 PCOD9480748
Probable space group: C M C A
;
_chemical_formula_sum "Si O2"
_cell_formula_units_Z 116
_cell_length_a 8.075986
_cell_length_b 23.273163
_cell_length_c 29.008139
_cell_angle_alpha 90.000000
_cell_angle_beta 90.000000
_cell_angle_gamma 90.000000
_cell_volume 5452.188174
_symmetry_space_group_name_H-M "C M C A"
_symmetry_group_IT_number 64
_symmetry_cell_setting 'orthorhombic'
loop_
_space_group_symop_operation_xyz
x,y,z
-x,1/2-y,1/2+z
x,-y,-z
-x,1/2+y,1/2-z
-x,-y,-z
x,1/2+y,1/2-z
-x,y,z
x,1/2-y,1/2+z
1/2+x,1/2+y,z
1/2-x,-y,1/2+z
1/2+x,1/2-y,-z
1/2-x,y,1/2-z
1/2-x,1/2-y,-z
1/2+x,y,1/2-z
1/2-x,1/2+y,z
1/2+x,-y,1/2+z
loop_
_atom_site_type_symbol
_atom_site_label
_atom_site_fract_x
_atom_site_fract_y
_atom_site_fract_z
Si Si1 0.806121 0.147974 0.611504
Si Si2 0.299880 0.042329 0.152410
Si Si3 0.500000 0.500000 0.500000
Si Si4 0.810404 0.115111 0.066444
Si Si5 0.301371 0.342084 0.699455
Si Si6 0.693206 0.773712 0.888488
Si Si7 0.812510 0.562843 0.535578
Si Si8 0.198753 0.422557 0.196765
O O1 0.782054 0.214665 0.600398
O O2 0.707352 0.108793 0.575880
O O3 0.000000 0.133701 0.606900
O O4 0.753797 0.130477 0.663530
O O5 0.500000 0.040870 0.150841
O O6 0.241407 0.066067 0.102945
O O7 0.246563 0.093053 0.187474
O O8 0.240662 0.980890 0.171009
O O9 0.649612 0.523071 0.534847
O O10 0.709646 0.173204 0.076241
O O11 0.000000 0.129608 0.075938
O O12 0.797339 0.094252 0.014130
O O13 0.500000 0.342270 0.696269
O O14 0.250000 0.324651 0.750000
O O15 0.240084 0.300063 0.659451
O O16 0.500000 0.759869 0.883369
O O17 0.000000 0.537447 0.539184
O O18 0.250000 0.419027 0.250000
O O19 0.000000 0.425649 0.197278
#
# Coordination Sequence:
#
# PCOD9480748 Si02
#       8
#    16  16   4  16  16  16  16  16
#     4  11  24  43  64  91 127 171 217 266 326 383
#     4   9  19  35  58  86 123 163 204 253 316 385
#     4  12  26  44  72  98 144 176 210 272 310 386
#     4  10  22  39  63  97 127 160 211 263 318 381
#     4   9  18  32  53  83 114 152 202 260 322 381
#     4  10  22  40  62  86 120 164 212 267 323 385
#     4  11  26  44  68 103 135 175 219 259 322 384
#     4  10  23  40  61  88 122 166 213 259 320 388
#
# _framework density 21.275862
#
# number of rings (size 3 to 8) (size 9 to 14) (size 15 to 20)
#    0.000    1.931    0.690    2.690    3.862    5.517 
#    0.000    2.759    0.000    0.000    0.000    0.000 
#    0.000    0.000    0.000    0.000    0.000    0.000 
#
# Total GULP energy -323382.050800 kJ/mol
# GULP energy per Si atom -5575.552600 kJ/mol
# Density = 2.122744 g / cm^3
# Si number density = 21.275862 Si / 1000 Ang^3
#
#
#
# Elastic Constant Matrix: (Units=GPa)
#
#
# Indices 1 2 3 4 5 6 
#
# 1 77.3652 27.6687 25.2664 0.0000 0.0000 0.0000
# 2 27.6687 61.1883 22.5880 0.0000 0.0000 0.0000
# 3 25.2664 22.5880 97.1590 0.0000 0.0000 0.0000
# 4 0.0000 0.0000 0.0000 13.7614 0.0000 0.0000
# 5 0.0000 0.0000 0.0000 0.0000 25.7644 0.0000
# 6 0.0000 0.0000 0.0000 0.0000 0.0000 16.2809
#
#
#
# Elastic Compliance Matrix: (Units=1/GPa)
#
#
# Indices 1 2 3 4 5 6 
#
# 1 0.016051 -0.006254 -0.002720 0.000000 0.000000 0.000000
# 2 -0.006254 0.020314 -0.003096 0.000000 0.000000 0.000000
# 3 -0.002720 -0.003096 0.011720 0.000000 0.000000 0.000000
# 4 0.000000 0.000000 0.000000 0.072667 0.000000 0.000000
# 5 0.000000 0.000000 0.000000 0.000000 0.038813 0.000000
# 6 0.000000 0.000000 0.000000 0.000000 0.000000 0.061422
#
#
# Mechanical properties :
#
#
# Convention : Reuss Voigt Hill
#
# Bulk Modulus (GPa) = 41.76464 42.97319 42.36892
# Shear Modulus (GPa) = 19.75440 21.84063 20.79752
#
# Velocity S-wave (km/s) = 3.05042 3.20745 3.12992
# Velocity P-wave (km/s) = 5.66387 5.82743 5.74623
#
# Compressibility (1/GPa) = 0.02394370
#
# Stress axis : x y z
#
# Youngs Moduli (GPa) = 62.30280 49.22725 85.32689
#
# Poissons Ratio (x) = 0.30786 0.23210
# Poissons Ratio (y) = 0.38963 0.26420
# Poissons Ratio (z) = 0.16947 0.15243
#
# Static dielectric constant tensor:
#      x y z
#    x 1.764060 0.000000 0.000000 
#    y 0.000000 1.775750 0.000000 
#    z 0.000000 0.000000 1.768180 
# 
# From -- ./inp_files/48538.got.cif
#   From: 2010.05.17/outbox.cif.g08.bks.cpg/sg64_25_cif.got.tgz:48538.got - 2010.06.03 16:29:19.
