data_PCOD9480901
_publ_section_title
;
Structure prediction by ZEFSAII (Michael W. Deem and Ramdas Pophale) SiO2 
 PCOD9480901
Probable space group: C M C A
;
_chemical_formula_sum "Si O2"
_cell_formula_units_Z 96
_cell_length_a 15.511593
_cell_length_b 13.932582
_cell_length_c 20.879233
_cell_angle_alpha 90.000000
_cell_angle_beta 90.000000
_cell_angle_gamma 90.000000
_cell_volume 4512.347624
_symmetry_space_group_name_H-M "C M C A"
_symmetry_group_IT_number 64
_symmetry_cell_setting 'orthorhombic'
loop_
_space_group_symop_operation_xyz
x,y,z
-x,1/2-y,1/2+z
x,-y,-z
-x,1/2+y,1/2-z
-x,-y,-z
x,1/2+y,1/2-z
-x,y,z
x,1/2-y,1/2+z
1/2+x,1/2+y,z
1/2-x,-y,1/2+z
1/2+x,1/2-y,-z
1/2-x,y,1/2-z
1/2-x,1/2-y,-z
1/2+x,y,1/2-z
1/2-x,1/2+y,z
1/2+x,-y,1/2+z
loop_
_atom_site_type_symbol
_atom_site_label
_atom_site_fract_x
_atom_site_fract_y
_atom_site_fract_z
Si Si1 0.337072 0.482377 0.284912
Si Si2 0.861090 0.416912 0.548894
Si Si3 0.818951 0.871843 0.603889
Si Si4 0.097465 0.199220 0.521025
Si Si5 0.909022 0.047595 0.848956
Si Si6 0.760574 0.330663 0.127806
O O1 0.250000 0.518915 0.250000
O O2 0.354567 0.555511 0.342823
O O3 0.401701 0.468091 0.226808
O O4 0.313790 0.378691 0.314718
O O5 0.885595 0.500000 0.500000
O O6 0.759249 0.418827 0.563647
O O7 0.889739 0.314042 0.523723
O O8 0.903441 0.445200 0.616199
O O9 0.886507 0.837800 0.550693
O O10 0.772755 0.777990 0.634479
O O11 0.175249 0.163138 0.567028
O O12 0.000000 0.174722 0.542264
O O13 0.826771 0.106563 0.874260
O O14 0.000000 0.095013 0.865159
#
# Coordination Sequence:
#
# PCOD9480901 Si02
#       6
#    16  16  16  16  16  16
#     4  10  22  41  63  91 129 175 222 265 325 393
#     4  11  21  40  69  95 128 169 218 282 332 391
#     4  11  22  39  69  94 132 177 220 263 335 400
#     4  11  25  40  62 103 137 171 222 274 336 402
#     4  11  23  42  67  97 129 171 228 281 331 390
#     4  10  22  43  65  94 134 177 218 266 328 398
#
# _framework density 21.274957000000001
#
# number of rings (size 3 to 8) (size 9 to 14) (size 15 to 20)
#    0.000    1.333    3.333    4.500    0.000    6.667 
#    0.000    0.833    0.000    0.000    0.000    0.000 
#    0.000    0.000    0.000    0.000    0.000    0.000 
#
# Total GULP energy -268004.717808 kJ/mol
# GULP energy per Si atom -5583.431621 kJ/mol
# Density = 2.122653 g / cm^3
# Si number density = 21.274957 Si / 1000 Ang^3
#
#
#
# Elastic Constant Matrix: (Units=GPa)
#
#
# Indices 1 2 3 4 5 6 
#
# 1 124.2033 32.0754 39.1361 0.0000 0.0000 0.0000
# 2 32.0754 64.2590 43.2702 0.0000 0.0000 0.0000
# 3 39.1361 43.2702 110.1281 0.0000 0.0000 0.0000
# 4 0.0000 0.0000 0.0000 35.4309 0.0000 0.0000
# 5 0.0000 0.0000 0.0000 0.0000 10.5056 0.0000
# 6 0.0000 0.0000 0.0000 0.0000 0.0000 8.3878
#
#
#
# Elastic Compliance Matrix: (Units=1/GPa)
#
#
# Indices 1 2 3 4 5 6 
#
# 1 0.009579 -0.003385 -0.002074 0.000000 0.000000 0.000000
# 2 -0.003385 0.022357 -0.007581 0.000000 0.000000 0.000000
# 3 -0.002074 -0.007581 0.012796 0.000000 0.000000 0.000000
# 4 0.000000 0.000000 0.000000 0.028224 0.000000 0.000000
# 5 0.000000 0.000000 0.000000 0.000000 0.095187 0.000000
# 6 0.000000 0.000000 0.000000 0.000000 0.000000 0.119221
#
#
# Mechanical properties :
#
#
# Convention : Reuss Voigt Hill
#
# Bulk Modulus (GPa) = 53.61531 58.61708 56.11619
# Shear Modulus (GPa) = 15.64156 23.13878 19.39017
#
# Velocity S-wave (km/s) = 2.71442 3.30147 3.02223
# Velocity P-wave (km/s) = 5.92283 6.49191 6.21389
#
# Compressibility (1/GPa) = 0.01865139
#
# Stress axis : x y z
#
# Youngs Moduli (GPa) = 104.39520 44.72963 78.14835
#
# Poissons Ratio (x) = 0.15140 0.16209
# Poissons Ratio (y) = 0.35335 0.59246
# Poissons Ratio (z) = 0.21654 0.33911
#
# Static dielectric constant tensor:
#      x y z
#    x 1.770110 0.000000 0.000000 
#    y 0.000000 1.781460 0.000000 
#    z 0.000000 0.000000 1.787090 
# 
# From -- ./inp_files/39228.got.cif
#   From: 2010.05.17/outbox.cif.g08.bks.cpg/sg64_20_cif.got.tgz:39228.got - 2010.06.03 16:29:19.
