data_PCOD9480025
_publ_section_title
;
Structure prediction by ZEFSAII (Michael W. Deem and Ramdas Pophale) SiO2 
 PCOD9480025
Probable space group: C M C A
;
_chemical_formula_sum "Si O2"
_cell_formula_units_Z 112
_cell_length_a 14.003330
_cell_length_b 19.680863
_cell_length_c 20.754089
_cell_angle_alpha 90.000000
_cell_angle_beta 90.000000
_cell_angle_gamma 90.000000
_cell_volume 5719.777519
_symmetry_space_group_name_H-M "C M C A"
_symmetry_group_IT_number 64
_symmetry_cell_setting 'orthorhombic'
loop_
_space_group_symop_operation_xyz
x,y,z
-x,1/2-y,1/2+z
x,-y,-z
-x,1/2+y,1/2-z
-x,-y,-z
x,1/2+y,1/2-z
-x,y,z
x,1/2-y,1/2+z
1/2+x,1/2+y,z
1/2-x,-y,1/2+z
1/2+x,1/2-y,-z
1/2-x,y,1/2-z
1/2-x,1/2-y,-z
1/2+x,y,1/2-z
1/2-x,1/2+y,z
1/2+x,-y,1/2+z
loop_
_atom_site_type_symbol
_atom_site_label
_atom_site_fract_x
_atom_site_fract_y
_atom_site_fract_z
Si Si1 0.386055 0.146941 0.121963
Si Si2 0.116019 0.923935 0.191008
Si Si3 0.385795 0.065553 0.543922
Si Si4 0.383919 0.228358 0.716307
Si Si5 0.384687 0.557358 0.259176
Si Si6 0.226759 0.821787 0.968011
Si Si7 0.115400 0.180508 0.165730
O O1 0.500000 0.145341 0.111555
O O2 0.362197 0.217013 0.160395
O O3 0.358147 0.087168 0.171491
O O4 0.325179 0.145535 0.057533
O O5 0.139800 0.946231 0.118373
O O6 0.150864 0.847616 0.203785
O O7 0.000000 0.921287 0.193951
O O8 0.145821 0.981994 0.240855
O O9 0.500000 0.078855 0.540664
O O10 0.328956 0.129445 0.516543
O O11 0.366348 0.000000 0.500000
O O12 0.500000 0.226565 0.717666
O O13 0.355064 0.259614 0.785105
O O14 0.500000 0.558554 0.258870
O O15 0.357299 0.611389 0.203756
O O16 0.162653 0.814583 0.903626
O O17 0.250000 0.750000 0.000000
O O18 0.000000 0.180994 0.159496
#
# Coordination Sequence:
#
# PCOD9480025 Si02
#       7
#    16  16  16  16  16  16  16
#     4   9  19  36  54  76 110 149 187 227 275 334
#     4   9  15  27  52  83 108 133 172 224 283 337
#     4  10  21  38  60  85 116 149 183 234 290 338
#     4   8  15  29  51  77 105 136 174 229 288 332
#     4   8  15  30  55  82 104 134 179 230 287 341
#     4  12  24  35  54  82 113 153 195 229 270 337
#     4   9  18  34  53  75 105 138 177 227 281 335
#
# _framework density 19.581181999999998
#
# number of rings (size 3 to 8) (size 9 to 14) (size 15 to 20)
#    0.000    2.714    0.000    3.857    0.000    6.857 
#    0.000    1.429    0.000    3.857    0.000    0.000 
#    0.000    2.286    0.000    0.000    0.000    0.000 
#
# Total GULP energy -312734.488575 kJ/mol
# GULP energy per Si atom -5584.544439 kJ/mol
# Density = 1.953661 g / cm^3
# Si number density = 19.581182 Si / 1000 Ang^3
#
#
#
# Elastic Constant Matrix: (Units=GPa)
#
#
# Indices 1 2 3 4 5 6 
#
# 1 66.9584 0.2069 4.9887 0.0000 0.0000 0.0000
# 2 0.2069 109.6788 4.1685 0.0000 0.0000 0.0000
# 3 4.9887 4.1685 14.7588 0.0000 0.0000 0.0000
# 4 0.0000 0.0000 0.0000 23.6330 0.0000 0.0000
# 5 0.0000 0.0000 0.0000 0.0000 26.8811 0.0000
# 6 0.0000 0.0000 0.0000 0.0000 0.0000 14.2361
#
#
#
# Elastic Compliance Matrix: (Units=1/GPa)
#
#
# Indices 1 2 3 4 5 6 
#
# 1 0.015324 0.000170 -0.005228 0.000000 0.000000 0.000000
# 2 0.000170 0.009218 -0.002661 0.000000 0.000000 0.000000
# 3 -0.005228 -0.002661 0.070275 0.000000 0.000000 0.000000
# 4 0.000000 0.000000 0.000000 0.042314 0.000000 0.000000
# 5 0.000000 0.000000 0.000000 0.000000 0.037201 0.000000
# 6 0.000000 0.000000 0.000000 0.000000 0.000000 0.070244
#
#
# Mechanical properties :
#
#
# Convention : Reuss Voigt Hill
#
# Bulk Modulus (GPa) = 12.59781 23.34714 17.97247
# Shear Modulus (GPa) = 17.45368 25.08550 21.26959
#
# Velocity S-wave (km/s) = 2.98879 3.58313 3.29937
# Velocity P-wave (km/s) = 4.28463 5.39144 4.86958
#
# Compressibility (1/GPa) = 0.07937889
#
# Stress axis : x y z
#
# Youngs Moduli (GPa) = 65.25880 108.47934 14.22989
#
# Poissons Ratio (x) = -0.01842 0.07439
# Poissons Ratio (y) = -0.01108 0.03787
# Poissons Ratio (z) = 0.34115 0.28866
#
# Static dielectric constant tensor:
#      x y z
#    x 1.727560 0.000000 0.000000 
#    y 0.000000 1.677360 0.000000 
#    z 0.000000 0.000000 1.644680 
# 
# From -- ./inp_files/40403.got.cif
#   From: 2010.05.17/outbox.cif.g08.bks.cpg/sg64_21_cif.got.tgz:40403.got - 2010.06.03 16:29:19.
