data_PCOD9480932
_publ_section_title
;
Structure prediction by ZEFSAII (Michael W. Deem and Ramdas Pophale) SiO2 
 PCOD9480932
Probable space group: C M C A
;
_chemical_formula_sum "Si O2"
_cell_formula_units_Z 96
_cell_length_a 22.768774
_cell_length_b 21.098231
_cell_length_c 8.979699
_cell_angle_alpha 90.000000
_cell_angle_beta 90.000000
_cell_angle_gamma 90.000000
_cell_volume 4313.675469
_symmetry_space_group_name_H-M "C M C A"
_symmetry_group_IT_number 64
_symmetry_cell_setting 'orthorhombic'
loop_
_space_group_symop_operation_xyz
x,y,z
-x,1/2-y,1/2+z
x,-y,-z
-x,1/2+y,1/2-z
-x,-y,-z
x,1/2+y,1/2-z
-x,y,z
x,1/2-y,1/2+z
1/2+x,1/2+y,z
1/2-x,-y,1/2+z
1/2+x,1/2-y,-z
1/2-x,y,1/2-z
1/2-x,1/2-y,-z
1/2+x,y,1/2-z
1/2-x,1/2+y,z
1/2+x,-y,1/2+z
loop_
_atom_site_type_symbol
_atom_site_label
_atom_site_fract_x
_atom_site_fract_y
_atom_site_fract_z
Si Si1 0.934795 0.554176 0.399603
Si Si2 0.275242 0.434337 0.083411
Si Si3 0.345346 0.753231 0.718456
Si Si4 0.429435 0.928805 0.934629
Si Si5 0.178808 0.343258 0.987771
Si Si6 0.615180 0.838444 0.444652
O O1 0.907315 0.500000 0.500000
O O2 0.908746 0.568506 0.238562
O O3 0.935774 0.615427 0.503229
O O4 0.000000 0.531149 0.361015
O O5 0.250000 0.444292 0.250000
O O6 0.286356 0.500000 0.000000
O O7 0.225503 0.398673 0.987950
O O8 0.330525 0.386270 0.087383
O O9 0.307009 0.702065 0.628344
O O10 0.318023 0.799073 0.842270
O O11 0.370988 0.796229 0.588701
O O12 0.391550 0.709880 0.809387
O O13 0.500000 0.913506 0.945017
O O14 0.385788 0.876075 0.003586
O O15 0.421739 0.000000 0.000000
#
# Coordination Sequence:
#
# PCOD9480932 Si02
#       6
#    16  16  16  16  16  16
#     4  10  22  41  66  94 126 166 210 264 320 370
#     4  12  28  43  67  96 128 165 206 264 321 366
#     4  10  24  41  67  92 124 172 211 255 306 374
#     4  10  22  41  66  94 126 166 210 264 320 370
#     4  11  23  44  64  94 129 162 215 256 312 375
#     4  11  23  44  64  94 129 162 215 256 312 375
#
# _framework density 22.254804
#
# number of rings (size 3 to 8) (size 9 to 14) (size 15 to 20)
#    0.000    1.333    3.333    1.000    4.667    6.667 
#    0.000    5.000    0.000    0.000    0.000    0.000 
#    0.000    0.000    0.000    0.000    0.000    0.000 
#
# Total GULP energy -267910.949868 kJ/mol
# GULP energy per Si atom -5581.478122 kJ/mol
# Density = 2.220415 g / cm^3
# Si number density = 22.254804 Si / 1000 Ang^3
#
#
#
# Elastic Constant Matrix: (Units=GPa)
#
#
# Indices 1 2 3 4 5 6 
#
# 1 91.6128 43.0735 19.8694 0.0000 0.0000 0.0000
# 2 43.0735 137.3385 51.1578 0.0000 0.0000 0.0000
# 3 19.8694 51.1578 113.8983 0.0000 0.0000 0.0000
# 4 0.0000 0.0000 0.0000 48.2126 0.0000 0.0000
# 5 0.0000 0.0000 0.0000 0.0000 3.9223 0.0000
# 6 0.0000 0.0000 0.0000 0.0000 0.0000 205.0946
#
#
#
# Elastic Compliance Matrix: (Units=1/GPa)
#
#
# Indices 1 2 3 4 5 6 
#
# 1 0.012829 -0.003831 -0.000517 0.000000 0.000000 0.000000
# 2 -0.003831 0.009888 -0.003773 0.000000 0.000000 0.000000
# 3 -0.000517 -0.003773 0.010565 0.000000 0.000000 0.000000
# 4 0.000000 0.000000 0.000000 0.020741 0.000000 0.000000
# 5 0.000000 0.000000 0.000000 0.000000 0.254951 0.000000
# 6 0.000000 0.000000 0.000000 0.000000 0.000000 0.004876
#
#
# Mechanical properties :
#
#
# Convention : Reuss Voigt Hill
#
# Bulk Modulus (GPa) = 58.68778 63.45011 61.06894
# Shear Modulus (GPa) = 14.89104 66.69582 40.79343
#
# Velocity S-wave (km/s) = 2.58953 5.48035 4.28602
# Velocity P-wave (km/s) = 5.94718 8.28362 7.21066
#
# Compressibility (1/GPa) = 0.01703932
#
# Stress axis : x y z
#
# Youngs Moduli (GPa) = 77.94940 101.13097 94.65499
#
# Poissons Ratio (x) = 0.38741 0.04897
# Poissons Ratio (y) = 0.29861 0.35714
# Poissons Ratio (z) = 0.04033 0.38157
#
# Static dielectric constant tensor:
#      x y z
#    x 1.835530 0.000000 0.000000 
#    y 0.000000 1.881990 0.000000 
#    z 0.000000 0.000000 2.062810 
# 
# From -- ./inp_files/10336.got.cif
#   From: 2010.05.17/outbox.cif.g08.bks.cpg/sg64_6_cif.got.tgz:10336.got - 2010.06.03 16:29:19.
