data_PCOD9480381
_publ_section_title
;
Structure prediction by ZEFSAII (Michael W. Deem and Ramdas Pophale) SiO2 
 PCOD9480381
Probable space group: C M C A
;
_chemical_formula_sum "Si O2"
_cell_formula_units_Z 112
_cell_length_a 15.009198
_cell_length_b 24.344446
_cell_length_c 13.610190
_cell_angle_alpha 90.000000
_cell_angle_beta 90.000000
_cell_angle_gamma 90.000000
_cell_volume 4973.035629
_symmetry_space_group_name_H-M "C M C A"
_symmetry_group_IT_number 64
_symmetry_cell_setting 'orthorhombic'
loop_
_space_group_symop_operation_xyz
x,y,z
-x,1/2-y,1/2+z
x,-y,-z
-x,1/2+y,1/2-z
-x,-y,-z
x,1/2+y,1/2-z
-x,y,z
x,1/2-y,1/2+z
1/2+x,1/2+y,z
1/2-x,-y,1/2+z
1/2+x,1/2-y,-z
1/2-x,y,1/2-z
1/2-x,1/2-y,-z
1/2+x,y,1/2-z
1/2-x,1/2+y,z
1/2+x,-y,1/2+z
loop_
_atom_site_type_symbol
_atom_site_label
_atom_site_fract_x
_atom_site_fract_y
_atom_site_fract_z
Si Si1 0.394708 0.928708 0.173838
Si Si2 0.902752 0.358581 0.724707
Si Si3 0.897138 0.681142 0.955918
Si Si4 0.233387 0.635151 0.453191
Si Si5 0.817641 0.954848 0.659000
Si Si6 0.896966 0.133377 0.863152
Si Si7 0.856650 0.259204 0.240772
O O1 0.500000 0.936299 0.184612
O O2 0.383757 0.876698 0.102540
O O3 0.362565 0.910524 0.282368
O O4 0.356189 0.985816 0.138079
O O5 0.824271 0.355403 0.644702
O O6 0.885604 0.408426 0.799540
O O7 0.897391 0.298613 0.771844
O O8 0.000000 0.366298 0.678535
O O9 0.883266 0.727293 0.872322
O O10 0.000000 0.683450 0.991454
O O11 0.813944 0.678134 0.030063
O O12 0.272587 0.574582 0.433241
O O13 0.167719 0.635997 0.544933
O O14 0.750000 0.961707 0.750000
O O15 0.893300 0.191368 0.806698
O O16 0.000000 0.121589 0.889279
O O17 0.750000 0.259265 0.250000
#
# Coordination Sequence:
#
# PCOD9480381 Si02
#       7
#    16  16  16  16  16  16  16
#     4   9  20  39  64  90 125 170 215 264 320 386
#     4  11  24  44  64  89 132 177 216 259 323 395
#     4  10  22  39  62  97 130 164 215 271 323 375
#     4  11  23  41  62  98 126 166 210 272 324 377
#     4  10  23  40  60  87 127 174 215 254 322 391
#     4  10  21  40  68 100 128 166 220 271 323 374
#     4  11  20  40  67  93 129 169 215 265 319 388
#
# _framework density 22.521455
#
# number of rings (size 3 to 8) (size 9 to 14) (size 15 to 20)
#    0.000    1.714    1.429    4.286    2.000    2.286 
#    5.143    1.429    0.000    4.286    0.000    0.000 
#    0.000    0.000    0.000    0.000    0.000    0.000 
#
# Total GULP energy -313193.857551 kJ/mol
# GULP energy per Si atom -5592.747456 kJ/mol
# Density = 2.247020 g / cm^3
# Si number density = 22.521455 Si / 1000 Ang^3
#
#
#
# Elastic Constant Matrix: (Units=GPa)
#
#
# Indices 1 2 3 4 5 6 
#
# 1 125.5167 14.3235 35.2838 0.0000 0.0000 0.0000
# 2 14.3235 112.4248 7.1797 0.0000 0.0000 0.0000
# 3 35.2838 7.1797 62.4541 0.0000 0.0000 0.0000
# 4 0.0000 0.0000 0.0000 12.5830 0.0000 0.0000
# 5 0.0000 0.0000 0.0000 0.0000 24.0822 0.0000
# 6 0.0000 0.0000 0.0000 0.0000 0.0000 28.6931
#
#
#
# Elastic Compliance Matrix: (Units=1/GPa)
#
#
# Indices 1 2 3 4 5 6 
#
# 1 0.009557 -0.000879 -0.005298 0.000000 0.000000 0.000000
# 2 -0.000879 0.009042 -0.000543 0.000000 0.000000 0.000000
# 3 -0.005298 -0.000543 0.019067 0.000000 0.000000 0.000000
# 4 0.000000 0.000000 0.000000 0.079473 0.000000 0.000000
# 5 0.000000 0.000000 0.000000 0.000000 0.041524 0.000000
# 6 0.000000 0.000000 0.000000 0.000000 0.000000 0.034852
#
#
# Mechanical properties :
#
#
# Convention : Reuss Voigt Hill
#
# Bulk Modulus (GPa) = 41.27862 45.99663 43.63762
# Shear Modulus (GPa) = 23.25265 29.31223 26.28244
#
# Velocity S-wave (km/s) = 3.21669 3.61158 3.41984
# Velocity P-wave (km/s) = 5.67137 6.15298 5.91708
#
# Compressibility (1/GPa) = 0.02422562
#
# Stress axis : x y z
#
# Youngs Moduli (GPa) = 104.63826 110.60101 52.44573
#
# Poissons Ratio (x) = 0.09724 0.27786
# Poissons Ratio (y) = 0.09200 0.02846
# Poissons Ratio (z) = 0.55438 0.06002
#
# Static dielectric constant tensor:
#      x y z
#    x 1.851650 0.000000 0.000000 
#    y 0.000000 1.822310 0.000000 
#    z 0.000000 0.000000 1.868390 
# 
# From -- ./inp_files/24198.got.cif
#   From: 2010.05.17/outbox.cif.g08.bks.cpg/sg64_13_cif.got.tgz:24198.got - 2010.06.03 16:29:19.
