data_PCOD9480407
_publ_section_title
;
Structure prediction by ZEFSAII (Michael W. Deem and Ramdas Pophale) SiO2 
 PCOD9480407
Probable space group: C M C A
;
_chemical_formula_sum "Si O2"
_cell_formula_units_Z 64
_cell_length_a 18.549584
_cell_length_b 19.699686
_cell_length_c 8.727606
_cell_angle_alpha 90.000000
_cell_angle_beta 90.000000
_cell_angle_gamma 90.000000
_cell_volume 3189.250340
_symmetry_space_group_name_H-M "C M C A"
_symmetry_group_IT_number 64
_symmetry_cell_setting 'orthorhombic'
loop_
_space_group_symop_operation_xyz
x,y,z
-x,1/2-y,1/2+z
x,-y,-z
-x,1/2+y,1/2-z
-x,-y,-z
x,1/2+y,1/2-z
-x,y,z
x,1/2-y,1/2+z
1/2+x,1/2+y,z
1/2-x,-y,1/2+z
1/2+x,1/2-y,-z
1/2-x,y,1/2-z
1/2-x,1/2-y,-z
1/2+x,y,1/2-z
1/2-x,1/2+y,z
1/2+x,-y,1/2+z
loop_
_atom_site_type_symbol
_atom_site_label
_atom_site_fract_x
_atom_site_fract_y
_atom_site_fract_z
Si Si1 0.315750 0.041539 0.142598
Si Si2 0.660321 0.682464 0.891282
Si Si3 0.674563 0.174097 0.975398
Si Si4 0.419761 0.548255 0.854545
O O1 0.250000 0.062584 0.250000
O O2 0.367392 0.989398 0.233464
O O3 0.351773 0.107902 0.067039
O O4 0.283582 0.000000 0.000000
O O5 0.661737 0.679347 0.706180
O O6 0.737737 0.670205 0.973221
O O7 0.608821 0.619431 0.922050
O O8 0.643737 0.758527 0.945185
O O9 0.500000 0.557263 0.788108
O O10 0.423287 0.500000 0.000000
#
# Coordination Sequence:
#
# PCOD9480407 Si02
#       4
#    16  16  16  16
#     4  12  23  39  65  97 123 165 211 264 316 378
#     4  10  21  41  58  94 126 164 204 261 316 370
#     4  10  22  36  65  93 127 157 209 263 313 371
#     4  11  25  44  64  89 129 170 212 263 320 383
#
# _framework density 20.067411
#
# number of rings (size 3 to 8) (size 9 to 14) (size 15 to 20)
#    0.000    1.250    2.500    3.750   10.500    0.500 
#    0.000    2.500    0.000    0.000    0.000    0.000 
#    0.000    0.000    0.000    0.000    0.000    0.000 
#
# Total GULP energy -178442.067964 kJ/mol
# GULP energy per Si atom -5576.314624 kJ/mol
# Density = 2.002174 g / cm^3
# Si number density = 20.067411 Si / 1000 Ang^3
#
#
#
# Elastic Constant Matrix: (Units=GPa)
#
#
# Indices 1 2 3 4 5 6 
#
# 1 48.2086 30.2570 19.5276 0.0000 0.0000 0.0000
# 2 30.2570 166.4459 43.6778 0.0000 0.0000 0.0000
# 3 19.5276 43.6778 79.8792 0.0000 0.0000 0.0000
# 4 0.0000 0.0000 0.0000 47.1525 0.0000 0.0000
# 5 0.0000 0.0000 0.0000 0.0000 8.3218 0.0000
# 6 0.0000 0.0000 0.0000 0.0000 0.0000 -17.1665
#
#
#
# Elastic Compliance Matrix: (Units=1/GPa)
#
#
# Indices 1 2 3 4 5 6 
#
# 1 0.024542 -0.003371 -0.004157 0.000000 0.000000 0.000000
# 2 -0.003371 0.007477 -0.003265 0.000000 0.000000 0.000000
# 3 -0.004157 -0.003265 0.015320 0.000000 0.000000 0.000000
# 4 0.000000 0.000000 0.000000 0.021208 0.000000 0.000000
# 5 0.000000 0.000000 0.000000 0.000000 0.120166 0.000000
# 6 0.000000 0.000000 0.000000 0.000000 0.000000 -0.058253
#
#
# Mechanical properties :
#
#
# Convention : Reuss Voigt Hill
#
# Bulk Modulus (GPa) = 38.82580 53.49540 46.16060
# Shear Modulus (GPa) = 31.12752 21.06633 26.09693
#
# Velocity S-wave (km/s) = 3.94273 3.24354 3.61011
# Velocity P-wave (km/s) = 6.33376 6.38304 6.35845
#
# Compressibility (1/GPa) = 0.02575607
#
# Stress axis : x y z
#
# Youngs Moduli (GPa) = 40.74583 133.73712 65.27357
#
# Poissons Ratio (x) = 0.45078 0.27132
# Poissons Ratio (y) = 0.13734 0.21309
# Poissons Ratio (z) = 0.16937 0.43660
#
# Static dielectric constant tensor:
#      x y z
#    x 1.726080 0.000000 0.000000 
#    y 0.000000 1.740520 0.000000 
#    z 0.000000 0.000000 1.724700 
# 
# From -- ./inp_files/6579.got.cif
#   From: 2010.05.17/outbox.cif.g08.bks.cpg/sg64_4_cif.got.tgz:6579.got - 2010.06.03 16:29:19.
