data_PCOD9480689
_publ_section_title
;
Structure prediction by ZEFSAII (Michael W. Deem and Ramdas Pophale) SiO2 
 PCOD9480689
Probable space group: C M C A
;
_chemical_formula_sum "Si O2"
_cell_formula_units_Z 72
_cell_length_a 24.596940
_cell_length_b 15.397822
_cell_length_c 8.818410
_cell_angle_alpha 90.000000
_cell_angle_beta 90.000000
_cell_angle_gamma 90.000000
_cell_volume 3339.878465
_symmetry_space_group_name_H-M "C M C A"
_symmetry_group_IT_number 64
_symmetry_cell_setting 'orthorhombic'
loop_
_space_group_symop_operation_xyz
x,y,z
-x,1/2-y,1/2+z
x,-y,-z
-x,1/2+y,1/2-z
-x,-y,-z
x,1/2+y,1/2-z
-x,y,z
x,1/2-y,1/2+z
1/2+x,1/2+y,z
1/2-x,-y,1/2+z
1/2+x,1/2-y,-z
1/2-x,y,1/2-z
1/2-x,1/2-y,-z
1/2+x,y,1/2-z
1/2-x,1/2+y,z
1/2+x,-y,1/2+z
loop_
_atom_site_type_symbol
_atom_site_label
_atom_site_fract_x
_atom_site_fract_y
_atom_site_fract_z
Si Si1 0.830652 0.000000 0.500000
Si Si2 0.590420 0.000000 0.500000
Si Si3 0.882267 0.319507 0.927572
Si Si4 0.250000 0.058410 0.250000
Si Si5 0.341132 0.839977 0.590311
Si Si6 0.500000 0.492069 0.254314
Si Si7 0.000000 0.149231 0.495613
O O1 0.867376 0.085819 0.493570
O O2 0.792451 0.004289 0.350933
O O3 0.627347 0.085059 0.499131
O O4 0.552299 0.000784 0.647136
O O5 0.872796 0.323616 0.748260
O O6 0.944358 0.298594 0.971399
O O7 0.842302 0.248083 0.996874
O O8 0.283405 0.120181 0.363385
O O9 0.500000 0.572424 0.370075
O O10 0.500000 0.401955 0.345707
#
# Coordination Sequence:
#
# PCOD9480689 Si02
#       7
#     8   8  16   8  16   8   8
#     4  10  23  45  69  98 127 177 223 284 344 410
#     4  11  23  44  65 102 137 178 227 281 344 406
#     4  11  26  42  68  99 138 176 229 273 343 405
#     4  10  24  44  70  98 132 180 230 284 352 400
#     4  11  26  44  67 100 137 178 229 285 337 407
#     4  10  22  38  72  95 135 181 227 276 341 411
#     4  11  22  42  66 102 135 187 223 274 334 420
#
# _framework density 21.557672
#
# number of rings (size 3 to 8) (size 9 to 14) (size 15 to 20)
#    0.000    1.333    2.222    2.000    6.222    8.889 
#    0.000    0.000    0.000    0.000    0.000    0.000 
#    0.000    0.000    0.000    0.000    0.000    0.000 
#
# Total GULP energy -201529.896395 kJ/mol
# GULP energy per Si atom -5598.052678 kJ/mol
# Density = 2.150861 g / cm^3
# Si number density = 21.557672 Si / 1000 Ang^3
#
#
#
# Elastic Constant Matrix: (Units=GPa)
#
#
# Indices 1 2 3 4 5 6 
#
# 1 79.0250 1.1444 7.1976 0.0000 0.0000 0.0000
# 2 1.1444 86.8304 22.1339 0.0000 0.0000 0.0000
# 3 7.1976 22.1339 53.6891 0.0000 0.0000 0.0000
# 4 0.0000 0.0000 0.0000 19.6427 0.0000 0.0000
# 5 0.0000 0.0000 0.0000 0.0000 8.2083 0.0000
# 6 0.0000 0.0000 0.0000 0.0000 0.0000 4.4150
#
#
#
# Elastic Compliance Matrix: (Units=1/GPa)
#
#
# Indices 1 2 3 4 5 6 
#
# 1 0.012818 0.000301 -0.001842 0.000000 0.000000 0.000000
# 2 0.000301 0.012876 -0.005349 0.000000 0.000000 0.000000
# 3 -0.001842 -0.005349 0.021078 0.000000 0.000000 0.000000
# 4 0.000000 0.000000 0.000000 0.050909 0.000000 0.000000
# 5 0.000000 0.000000 0.000000 0.000000 0.121828 0.000000
# 6 0.000000 0.000000 0.000000 0.000000 0.000000 0.226500
#
#
# Mechanical properties :
#
#
# Convention : Reuss Voigt Hill
#
# Bulk Modulus (GPa) = 30.31123 31.16626 30.73875
# Shear Modulus (GPa) = 10.62052 19.05777 14.83915
#
# Velocity S-wave (km/s) = 2.22199 2.97650 2.62648
# Velocity P-wave (km/s) = 4.54687 5.12848 4.84641
#
# Compressibility (1/GPa) = 0.03299107
#
# Stress axis : x y z
#
# Youngs Moduli (GPa) = 78.01729 77.66289 47.44333
#
# Poissons Ratio (x) = -0.02335 0.08741
# Poissons Ratio (y) = -0.02346 0.25376
# Poissons Ratio (z) = 0.14373 0.41539
#
# Static dielectric constant tensor:
#      x y z
#    x 1.786040 0.000000 0.000000 
#    y 0.000000 1.727980 0.000000 
#    z 0.000000 0.000000 1.761930 
# 
# From -- ./inp_files/10077.got.cif
#   From: 2010.05.17/outbox.cif.g08.bks.cpg/sg64_6_cif.got.tgz:10077.got - 2010.06.03 16:29:19.
