data_PCOD9480307
_publ_section_title
;
Structure prediction by ZEFSAII (Michael W. Deem and Ramdas Pophale) SiO2 
 PCOD9480307
Probable space group: C M C A
;
_chemical_formula_sum "Si O2"
_cell_formula_units_Z 116
_cell_length_a 8.604807
_cell_length_b 23.839814
_cell_length_c 28.697148
_cell_angle_alpha 90.000000
_cell_angle_beta 90.000000
_cell_angle_gamma 90.000000
_cell_volume 5886.846803
_symmetry_space_group_name_H-M "C M C A"
_symmetry_group_IT_number 64
_symmetry_cell_setting 'orthorhombic'
loop_
_space_group_symop_operation_xyz
x,y,z
-x,1/2-y,1/2+z
x,-y,-z
-x,1/2+y,1/2-z
-x,-y,-z
x,1/2+y,1/2-z
-x,y,z
x,1/2-y,1/2+z
1/2+x,1/2+y,z
1/2-x,-y,1/2+z
1/2+x,1/2-y,-z
1/2-x,y,1/2-z
1/2-x,1/2-y,-z
1/2+x,y,1/2-z
1/2-x,1/2+y,z
1/2+x,-y,1/2+z
loop_
_atom_site_type_symbol
_atom_site_label
_atom_site_fract_x
_atom_site_fract_y
_atom_site_fract_z
Si Si1 0.500000 0.500000 0.500000
Si Si2 0.316753 0.042856 0.134181
Si Si3 0.316519 0.139167 0.301203
Si Si4 0.829485 0.605786 0.966770
Si Si5 0.186282 0.352059 0.372841
Si Si6 0.817568 0.127137 0.062633
Si Si7 0.685900 0.056459 0.697649
Si Si8 0.185815 0.221454 0.371072
O O1 0.632345 0.458962 0.476468
O O2 0.500000 0.035096 0.126825
O O3 0.278588 0.092132 0.170856
O O4 0.246712 0.070033 0.087001
O O5 0.246146 0.988466 0.159376
O O6 0.500000 0.126585 0.302372
O O7 0.250000 0.140886 0.250000
O O8 0.278862 0.196691 0.327405
O O9 0.763466 0.616618 0.916138
O O10 0.000000 0.634200 0.971763
O O11 0.719635 0.626463 0.008158
O O12 0.229042 0.383089 0.324574
O O13 0.225536 0.286528 0.376697
O O14 0.000000 0.356841 0.376993
O O15 0.733592 0.180247 0.086711
O O16 0.000000 0.130756 0.072260
O O17 0.500000 0.051485 0.700233
O O18 0.750000 0.047672 0.750000
O O19 0.000000 0.216541 0.363798
#
# Coordination Sequence:
#
# PCOD9480307 Si02
#       8
#     4  16  16  16  16  16  16  16
#     4   8  24  40  62  96 128 152 210 244 286 368
#     4  11  22  37  60  88 122 158 198 250 305 360
#     4  11  21  36  58  86 118 154 200 250 308 361
#     4  10  22  40  63  91 123 159 199 241 293 351
#     4  10  24  43  63  88 122 159 203 249 301 356
#     4  11  22  38  62  93 125 159 202 247 302 357
#     4  11  24  42  61  88 120 159 203 249 302 363
#     4  10  21  40  61  87 119 157 202 253 301 357
#
# _framework density 19.704946
#
# number of rings (size 3 to 8) (size 9 to 14) (size 15 to 20)
#    0.414    1.103    0.000    7.034    1.931    3.310 
#    0.000    2.069    0.000    0.000    0.000    0.000 
#    0.000    0.000    0.000    0.000    0.000    0.000 
#
# Total GULP energy -323253.973244 kJ/mol
# GULP energy per Si atom -5573.344366 kJ/mol
# Density = 1.966010 g / cm^3
# Si number density = 19.704946 Si / 1000 Ang^3
#
#
#
# Elastic Constant Matrix: (Units=GPa)
#
#
# Indices 1 2 3 4 5 6 
#
# 1 57.2379 15.1496 6.5798 0.0000 0.0000 0.0000
# 2 15.1496 84.8386 6.8127 0.0000 0.0000 0.0000
# 3 6.5798 6.8127 70.6563 0.0000 0.0000 0.0000
# 4 0.0000 0.0000 0.0000 14.2802 0.0000 0.0000
# 5 0.0000 0.0000 0.0000 0.0000 27.4230 0.0000
# 6 0.0000 0.0000 0.0000 0.0000 0.0000 -6.1802
#
#
#
# Elastic Compliance Matrix: (Units=1/GPa)
#
#
# Indices 1 2 3 4 5 6 
#
# 1 0.018477 -0.003186 -0.001413 0.000000 0.000000 0.000000
# 2 -0.003186 0.012428 -0.000902 0.000000 0.000000 0.000000
# 3 -0.001413 -0.000902 0.014372 0.000000 0.000000 0.000000
# 4 0.000000 0.000000 0.000000 0.070027 0.000000 0.000000
# 5 0.000000 0.000000 0.000000 0.000000 0.036466 0.000000
# 6 0.000000 0.000000 0.000000 0.000000 0.000000 -0.161806
#
#
# Mechanical properties :
#
#
# Convention : Reuss Voigt Hill
#
# Bulk Modulus (GPa) = 29.17603 29.97964 29.57784
# Shear Modulus (GPa) = 403.53958 19.38397 211.46177
#
# Velocity S-wave (km/s) = 14.32605 3.13982 10.37049
# Velocity P-wave (km/s) = 16.98488 5.32841 12.58725
#
# Compressibility (1/GPa) = 0.03427471
#
# Stress axis : x y z
#
# Youngs Moduli (GPa) = 54.12238 80.46089 69.58174
#
# Poissons Ratio (x) = 0.25634 0.09835
# Poissons Ratio (y) = 0.17243 0.06274
# Poissons Ratio (z) = 0.07650 0.07255
#
# Static dielectric constant tensor:
#      x y z
#    x 1.670470 0.000000 0.000000 
#    y 0.000000 1.711950 0.000000 
#    z 0.000000 0.000000 1.730950 
# 
# From -- ./inp_files/48572.got.cif
#   From: 2010.05.17/outbox.cif.g08.bks.cpg/sg64_25_cif.got.tgz:48572.got - 2010.06.03 16:29:19.
