data_PCOD9480822
_publ_section_title
;
Structure prediction by ZEFSAII (Michael W. Deem and Ramdas Pophale) SiO2 
 PCOD9480822
Probable space group: C M C A
;
_chemical_formula_sum "Si O2"
_cell_formula_units_Z 96
_cell_length_a 23.840779
_cell_length_b 21.810933
_cell_length_c 8.814670
_cell_angle_alpha 90.000000
_cell_angle_beta 90.000000
_cell_angle_gamma 90.000000
_cell_volume 4583.537022
_symmetry_space_group_name_H-M "C M C A"
_symmetry_group_IT_number 64
_symmetry_cell_setting 'orthorhombic'
loop_
_space_group_symop_operation_xyz
x,y,z
-x,1/2-y,1/2+z
x,-y,-z
-x,1/2+y,1/2-z
-x,-y,-z
x,1/2+y,1/2-z
-x,y,z
x,1/2-y,1/2+z
1/2+x,1/2+y,z
1/2-x,-y,1/2+z
1/2+x,1/2-y,-z
1/2-x,y,1/2-z
1/2-x,1/2-y,-z
1/2+x,y,1/2-z
1/2-x,1/2+y,z
1/2+x,-y,1/2+z
loop_
_atom_site_type_symbol
_atom_site_label
_atom_site_fract_x
_atom_site_fract_y
_atom_site_fract_z
Si Si1 0.620950 0.310832 0.893102
Si Si2 0.693759 0.863045 0.834634
Si Si3 0.117948 0.388459 0.322886
Si Si4 0.500000 0.259058 0.980169
Si Si5 0.000000 0.842880 0.268647
Si Si6 0.696269 0.699541 0.642670
Si Si7 0.690005 0.004031 0.816890
O O1 0.639067 0.327048 0.722256
O O2 0.558534 0.285148 0.912949
O O3 0.668678 0.259954 0.932199
O O4 0.624591 0.370769 0.000476
O O5 0.750000 0.842431 0.750000
O O6 0.683814 0.932364 0.781686
O O7 0.706231 0.849803 0.009512
O O8 0.054123 0.382632 0.270478
O O9 0.148519 0.331138 0.243738
O O10 0.145651 0.450553 0.260839
O O11 0.500000 0.187386 0.935364
O O12 0.500000 0.284507 0.152212
O O13 0.750000 0.708578 0.750000
O O14 0.750000 0.024449 0.750000
O O15 0.688824 0.000000 0.000000
#
# Coordination Sequence:
#
# PCOD9480822 Si02
#       7
#    16  16  16   8   8  16  16
#     4  11  24  40  63  97 131 173 217 267 333 392
#     4  11  25  41  64  94 128 171 220 263 324 402
#     4  11  23  41  66  92 132 171 217 276 324 387
#     4  10  22  40  63  93 131 173 218 256 325 401
#     4  10  22  42  66  95 128 176 214 265 333 389
#     4  12  23  39  64  97 137 172 210 271 334 395
#     4  11  25  44  68  94 127 175 225 269 332 396
#
# _framework density 20.944523
#
# number of rings (size 3 to 8) (size 9 to 14) (size 15 to 20)
#    0.000    1.000    3.333    3.000    7.000    2.000 
#    0.000    2.083    0.000    3.000    0.000    0.000 
#    0.000    0.000    0.000    0.000    0.000    0.000 
#
# Total GULP energy -267948.733942 kJ/mol
# GULP energy per Si atom -5582.265290 kJ/mol
# Density = 2.089685 g / cm^3
# Si number density = 20.944523 Si / 1000 Ang^3
#
#
#
# Elastic Constant Matrix: (Units=GPa)
#
#
# Indices 1 2 3 4 5 6 
#
# 1 149.8491 56.6592 49.4169 0.0000 0.0000 0.0000
# 2 56.6592 103.2872 28.3197 0.0000 0.0000 0.0000
# 3 49.4169 28.3197 85.1141 0.0000 0.0000 0.0000
# 4 0.0000 0.0000 0.0000 7.2217 0.0000 0.0000
# 5 0.0000 0.0000 0.0000 0.0000 24.9266 0.0000
# 6 0.0000 0.0000 0.0000 0.0000 0.0000 -21.7053
#
#
#
# Elastic Compliance Matrix: (Units=1/GPa)
#
#
# Indices 1 2 3 4 5 6 
#
# 1 0.009622 -0.004123 -0.004215 0.000000 0.000000 0.000000
# 2 -0.004123 0.012420 -0.001739 0.000000 0.000000 0.000000
# 3 -0.004215 -0.001739 0.014775 0.000000 0.000000 0.000000
# 4 0.000000 0.000000 0.000000 0.138471 0.000000 0.000000
# 5 0.000000 0.000000 0.000000 0.000000 0.040118 0.000000
# 6 0.000000 0.000000 0.000000 0.000000 0.000000 -0.046072
#
#
# Mechanical properties :
#
#
# Convention : Reuss Voigt Hill
#
# Bulk Modulus (GPa) = 60.00949 67.44909 63.72929
# Shear Modulus (GPa) = 25.63558 15.67893 20.65726
#
# Velocity S-wave (km/s) = 3.50233 2.73901 3.14392
# Velocity P-wave (km/s) = 6.71334 6.50204 6.60853
#
# Compressibility (1/GPa) = 0.01666403
#
# Stress axis : x y z
#
# Youngs Moduli (GPa) = 103.92670 80.51501 67.68361
#
# Poissons Ratio (x) = 0.33194 0.28528
# Poissons Ratio (y) = 0.42846 0.11769
# Poissons Ratio (z) = 0.43804 0.14000
#
# Static dielectric constant tensor:
#      x y z
#    x 1.764610 0.000000 0.000000 
#    y 0.000000 1.778870 0.000000 
#    z 0.000000 0.000000 1.791380 
# 
# From -- ./inp_files/9566.got.cif
#   From: 2010.05.17/outbox.cif.g08.bks.cpg/sg64_5_cif.got.tgz:9566.got - 2010.06.03 16:29:19.
