data_PCOD9480261
_publ_section_title
;
Structure prediction by ZEFSAII (Michael W. Deem and Ramdas Pophale) SiO2 
 PCOD9480261
Probable space group: C M C A
;
_chemical_formula_sum "Si O2"
_cell_formula_units_Z 80
_cell_length_a 23.264302
_cell_length_b 9.406999
_cell_length_c 17.968856
_cell_angle_alpha 90.000000
_cell_angle_beta 90.000000
_cell_angle_gamma 90.000000
_cell_volume 3932.435002
_symmetry_space_group_name_H-M "C M C A"
_symmetry_group_IT_number 64
_symmetry_cell_setting 'orthorhombic'
loop_
_space_group_symop_operation_xyz
x,y,z
-x,1/2-y,1/2+z
x,-y,-z
-x,1/2+y,1/2-z
-x,-y,-z
x,1/2+y,1/2-z
-x,y,z
x,1/2-y,1/2+z
1/2+x,1/2+y,z
1/2-x,-y,1/2+z
1/2+x,1/2-y,-z
1/2-x,y,1/2-z
1/2-x,1/2-y,-z
1/2+x,y,1/2-z
1/2-x,1/2+y,z
1/2+x,-y,1/2+z
loop_
_atom_site_type_symbol
_atom_site_label
_atom_site_fract_x
_atom_site_fract_y
_atom_site_fract_z
Si Si1 0.934768 0.373271 0.784417
Si Si2 0.777149 0.982284 0.914095
Si Si3 0.139294 0.899562 0.206991
Si Si4 0.935928 0.412632 0.075812
Si Si5 0.680409 0.179166 0.868832
O O1 0.894271 0.455009 0.726118
O O2 0.907173 0.223471 0.805367
O O3 0.935650 0.475454 0.856127
O O4 0.000000 0.354914 0.757255
O O5 0.784258 0.820273 0.887806
O O6 0.818411 0.074321 0.860930
O O7 0.713410 0.043762 0.902647
O O8 0.793066 0.000000 0.000000
O O9 0.173445 0.851379 0.281211
O O10 0.882759 0.310882 0.094268
O O11 0.000000 0.346921 0.073146
O O12 0.927230 0.500000 0.000000
#
# Coordination Sequence:
#
# PCOD9480261 Si02
#       5
#    16  16  16  16  16
#     4  10  21  39  65  95 128 175 224 271 326 391
#     4  12  27  43  66 100 136 176 216 276 336 389
#     4  11  23  42  66  94 131 170 224 276 323 397
#     4   9  20  39  66  95 129 171 217 269 330 394
#     4  11  25  43  66  96 129 176 221 270 325 400
#
# _framework density 20.343629
#
# number of rings (size 3 to 8) (size 9 to 14) (size 15 to 20)
#    0.000    1.400    2.000    2.400    8.400    2.400 
#    0.000    0.000    0.000    3.000    0.000    0.000 
#    0.000    0.000    0.000    0.000    0.000    0.000 
#
# Total GULP energy -223630.355332 kJ/mol
# GULP energy per Si atom -5590.758883 kJ/mol
# Density = 2.029733 g / cm^3
# Si number density = 20.343629 Si / 1000 Ang^3
#
#
#
# Elastic Constant Matrix: (Units=GPa)
#
#
# Indices 1 2 3 4 5 6 
#
# 1 101.2959 37.1927 37.8865 0.0000 0.0000 0.0000
# 2 37.1927 81.3861 -0.1186 0.0000 0.0000 0.0000
# 3 37.8865 -0.1186 103.2129 0.0000 0.0000 0.0000
# 4 0.0000 0.0000 0.0000 13.3650 0.0000 0.0000
# 5 0.0000 0.0000 0.0000 0.0000 25.7394 0.0000
# 6 0.0000 0.0000 0.0000 0.0000 0.0000 30.3706
#
#
#
# Elastic Compliance Matrix: (Units=1/GPa)
#
#
# Indices 1 2 3 4 5 6 
#
# 1 0.014214 -0.006503 -0.005225 0.000000 0.000000 0.000000
# 2 -0.006503 0.015263 0.002405 0.000000 0.000000 0.000000
# 3 -0.005225 0.002405 0.011609 0.000000 0.000000 0.000000
# 4 0.000000 0.000000 0.000000 0.074822 0.000000 0.000000
# 5 0.000000 0.000000 0.000000 0.000000 0.038851 0.000000
# 6 0.000000 0.000000 0.000000 0.000000 0.000000 0.032927
#
#
# Mechanical properties :
#
#
# Convention : Reuss Voigt Hill
#
# Bulk Modulus (GPa) = 44.56568 48.42400 46.49484
# Shear Modulus (GPa) = 23.38492 27.95730 25.67111
#
# Velocity S-wave (km/s) = 3.39410 3.71111 3.55614
# Velocity P-wave (km/s) = 6.10851 6.49753 6.30602
#
# Compressibility (1/GPa) = 0.02243879
#
# Stress axis : x y z
#
# Youngs Moduli (GPa) = 70.35231 65.51969 86.13672
#
# Poissons Ratio (x) = 0.42610 0.45007
# Poissons Ratio (y) = 0.45753 -0.20714
# Poissons Ratio (z) = 0.36760 -0.15756
#
# Static dielectric constant tensor:
#      x y z
#    x 1.761590 0.000000 0.000000 
#    y 0.000000 1.706990 0.000000 
#    z 0.000000 0.000000 1.697190 
# 
# From -- ./inp_files/35341.got.cif
#   From: 2010.05.17/outbox.cif.g08.bks.cpg/sg64_18_cif.got.tgz:35341.got - 2010.06.03 16:29:19.
