data_PCOD9480202
_publ_section_title
;
Structure prediction by ZEFSAII (Michael W. Deem and Ramdas Pophale) SiO2 
 PCOD9480202
Probable space group: C M C A
;
_chemical_formula_sum "Si O2"
_cell_formula_units_Z 88
_cell_length_a 31.209882
_cell_length_b 10.653073
_cell_length_c 12.273916
_cell_angle_alpha 90.000000
_cell_angle_beta 90.000000
_cell_angle_gamma 90.000000
_cell_volume 4080.845722
_symmetry_space_group_name_H-M "C M C A"
_symmetry_group_IT_number 64
_symmetry_cell_setting 'orthorhombic'
loop_
_space_group_symop_operation_xyz
x,y,z
-x,1/2-y,1/2+z
x,-y,-z
-x,1/2+y,1/2-z
-x,-y,-z
x,1/2+y,1/2-z
-x,y,z
x,1/2-y,1/2+z
1/2+x,1/2+y,z
1/2-x,-y,1/2+z
1/2+x,1/2-y,-z
1/2-x,y,1/2-z
1/2-x,1/2-y,-z
1/2+x,y,1/2-z
1/2-x,1/2+y,z
1/2+x,-y,1/2+z
loop_
_atom_site_type_symbol
_atom_site_label
_atom_site_fract_x
_atom_site_fract_y
_atom_site_fract_z
Si Si1 0.277086 0.314132 0.347819
Si Si2 0.639890 0.679039 0.775613
Si Si3 0.093819 0.435585 0.767915
Si Si4 0.000000 0.828502 0.739914
Si Si5 0.424657 0.500000 0.500000
Si Si6 0.000000 0.697658 0.982222
Si Si7 0.803196 0.371170 0.464596
O O1 0.250000 0.252288 0.250000
O O2 0.321221 0.367389 0.301639
O O3 0.241034 0.403239 0.400242
O O4 0.289931 0.211457 0.434567
O O5 0.617926 0.807081 0.735119
O O6 0.607681 0.563316 0.790802
O O7 0.664522 0.703815 0.888110
O O8 0.102347 0.464096 0.895073
O O9 0.043277 0.409587 0.761678
O O10 0.000000 0.768053 0.863178
O O11 0.000000 0.760651 0.615377
O O12 0.456947 0.385388 0.475287
O O13 0.824289 0.500000 0.500000
#
# Coordination Sequence:
#
# PCOD9480202 Si02
#       7
#    16  16  16   8   8   8  16
#     4   9  21  39  62  88 127 172 217 262 336 411
#     4  11  24  40  64 101 131 173 219 292 332 405
#     4  11  24  41  68  97 134 178 230 283 348 408
#     4  10  22  44  71 102 135 192 234 292 350 428
#     4   9  20  38  66  92 126 182 224 274 340 430
#     4   9  18  40  71  95 129 171 242 284 344 418
#     4  10  21  39  62  93 130 171 215 275 336 406
#
# _framework density 21.564157999999999
#
# number of rings (size 3 to 8) (size 9 to 14) (size 15 to 20)
#    0.000    2.000    0.000    2.727    2.545    7.273 
#    6.545    0.000    0.000   20.727    0.000    0.000 
#    0.000    0.000    0.000    0.000    0.000    0.000 
#
# Total GULP energy -244995.752024 kJ/mol
# GULP energy per Si atom -5568.085273 kJ/mol
# Density = 2.151508 g / cm^3
# Si number density = 21.564158 Si / 1000 Ang^3
#
#
#
# Elastic Constant Matrix: (Units=GPa)
#
#
# Indices 1 2 3 4 5 6 
#
# 1 87.7864 23.5482 28.7217 0.0000 0.0000 0.0000
# 2 23.5482 53.7275 19.2640 0.0000 0.0000 0.0000
# 3 28.7217 19.2640 112.1565 0.0000 0.0000 0.0000
# 4 0.0000 0.0000 0.0000 30.7395 0.0000 0.0000
# 5 0.0000 0.0000 0.0000 0.0000 10.3224 0.0000
# 6 0.0000 0.0000 0.0000 0.0000 0.0000 3.6678
#
#
#
# Elastic Compliance Matrix: (Units=1/GPa)
#
#
# Indices 1 2 3 4 5 6 
#
# 1 0.013595 -0.005019 -0.002619 0.000000 0.000000 0.000000
# 2 -0.005019 0.021687 -0.002440 0.000000 0.000000 0.000000
# 3 -0.002619 -0.002440 0.010006 0.000000 0.000000 0.000000
# 4 0.000000 0.000000 0.000000 0.032531 0.000000 0.000000
# 5 0.000000 0.000000 0.000000 0.000000 0.096877 0.000000
# 6 0.000000 0.000000 0.000000 0.000000 0.000000 0.272642
#
#
# Mechanical properties :
#
#
# Convention : Reuss Voigt Hill
#
# Bulk Modulus (GPa) = 39.79099 44.08202 41.93650
# Shear Modulus (GPa) = 10.50704 21.08838 15.79771
#
# Velocity S-wave (km/s) = 2.20976 3.13059 2.70958
# Velocity P-wave (km/s) = 5.00031 5.79259 5.41097
#
# Compressibility (1/GPa) = 0.02513132
#
# Stress axis : x y z
#
# Youngs Moduli (GPa) = 73.55843 46.11046 99.94107
#
# Poissons Ratio (x) = 0.23144 0.26177
# Poissons Ratio (y) = 0.36921 0.24382
# Poissons Ratio (z) = 0.19267 0.11249
#
# Static dielectric constant tensor:
#      x y z
#    x 1.779070 0.000000 0.000000 
#    y 0.000000 1.781190 0.000000 
#    z 0.000000 0.000000 1.956400 
# 
# From -- ./inp_files/19716.got.cif
#   From: 2010.05.17/outbox.cif.g08.bks.cpg/sg64_10_cif.got.tgz:19716.got - 2010.06.03 16:29:19.
