data_PCOD9480661
_publ_section_title
;
Structure prediction by ZEFSAII (Michael W. Deem and Ramdas Pophale) SiO2 
 PCOD9480661
Probable space group: C M C A
;
_chemical_formula_sum "Si O2"
_cell_formula_units_Z 116
_cell_length_a 25.406491
_cell_length_b 18.334363
_cell_length_c 13.196969
_cell_angle_alpha 90.000000
_cell_angle_beta 90.000000
_cell_angle_gamma 90.000000
_cell_volume 6147.304261
_symmetry_space_group_name_H-M "C M C A"
_symmetry_group_IT_number 64
_symmetry_cell_setting 'orthorhombic'
loop_
_space_group_symop_operation_xyz
x,y,z
-x,1/2-y,1/2+z
x,-y,-z
-x,1/2+y,1/2-z
-x,-y,-z
x,1/2+y,1/2-z
-x,y,z
x,1/2-y,1/2+z
1/2+x,1/2+y,z
1/2-x,-y,1/2+z
1/2+x,1/2-y,-z
1/2-x,y,1/2-z
1/2-x,1/2-y,-z
1/2+x,y,1/2-z
1/2-x,1/2+y,z
1/2+x,-y,1/2+z
loop_
_atom_site_type_symbol
_atom_site_label
_atom_site_fract_x
_atom_site_fract_y
_atom_site_fract_z
Si Si1 0.000000 0.500000 0.500000
Si Si2 0.288181 0.423046 0.443689
Si Si3 0.560013 0.664494 0.651017
Si Si4 0.559976 0.193894 0.219014
Si Si5 0.830180 0.863430 0.051632
Si Si6 0.596486 0.427288 0.873973
Si Si7 0.137852 0.559067 0.754131
Si Si8 0.364461 0.300971 0.530142
O O1 0.046814 0.467588 0.575414
O O2 0.288744 0.500000 0.500000
O O3 0.229531 0.391255 0.444726
O O4 0.313437 0.435106 0.332030
O O5 0.324412 0.365313 0.503221
O O6 0.500000 0.653013 0.620246
O O7 0.560878 0.722810 0.742124
O O8 0.587652 0.589916 0.685021
O O9 0.593754 0.699520 0.561265
O O10 0.500000 0.177488 0.186007
O O11 0.575346 0.142098 0.312211
O O12 0.602313 0.184442 0.131018
O O13 0.853866 0.887426 0.159218
O O14 0.835661 0.776760 0.037817
O O15 0.863318 0.902112 0.962099
O O16 0.626017 0.480995 0.795298
#
# Coordination Sequence:
#
# PCOD9480661 Si02
#       8
#     4  16  16  16  16  16  16  16
#     4  12  24  40  64 100 138 172 214 274 326 382
#     4  11  25  45  65  90 128 174 219 272 330 389
#     4  10  22  38  62  92 130 170 209 261 324 391
#     4  11  22  39  64  93 131 171 211 259 324 392
#     4  12  23  42  67  94 129 166 220 277 326 391
#     4  12  24  41  67 100 135 171 219 273 330 390
#     4  11  23  41  64  94 129 168 216 267 327 389
#     4  11  23  43  64  96 128 171 218 271 323 396
#
# _framework density 18.870059999999999
#
# number of rings (size 3 to 8) (size 9 to 14) (size 15 to 20)
#    0.000    0.828    4.828    2.897    0.966    0.000 
#    1.241    2.069    0.000    4.552    0.000    0.000 
#    0.000    0.000    0.000    0.000    0.000    0.000 
#
# Total GULP energy -323538.579908 kJ/mol
# GULP energy per Si atom -5578.251378 kJ/mol
# Density = 1.882711 g / cm^3
# Si number density = 18.870060 Si / 1000 Ang^3
#
#
#
# Elastic Constant Matrix: (Units=GPa)
#
#
# Indices 1 2 3 4 5 6 
#
# 1 139.2428 60.8603 34.8304 0.0000 0.0000 0.0000
# 2 60.8603 94.3730 46.3095 0.0000 0.0000 0.0000
# 3 34.8304 46.3095 71.9779 0.0000 0.0000 0.0000
# 4 0.0000 0.0000 0.0000 29.7182 0.0000 0.0000
# 5 0.0000 0.0000 0.0000 0.0000 6.8502 0.0000
# 6 0.0000 0.0000 0.0000 0.0000 0.0000 6.5025
#
#
#
# Elastic Compliance Matrix: (Units=1/GPa)
#
#
# Indices 1 2 3 4 5 6 
#
# 1 0.010051 -0.005984 -0.001013 0.000000 0.000000 0.000000
# 2 -0.005984 0.019048 -0.009360 0.000000 0.000000 0.000000
# 3 -0.001013 -0.009360 0.020405 0.000000 0.000000 0.000000
# 4 0.000000 0.000000 0.000000 0.033649 0.000000 0.000000
# 5 0.000000 0.000000 0.000000 0.000000 0.145981 0.000000
# 6 0.000000 0.000000 0.000000 0.000000 0.000000 0.153788
#
#
# Mechanical properties :
#
#
# Convention : Reuss Voigt Hill
#
# Bulk Modulus (GPa) = 59.55976 65.51047 62.53512
# Shear Modulus (GPa) = 11.86987 19.52041 15.69514
#
# Velocity S-wave (km/s) = 2.51077 3.21980 2.88713
# Velocity P-wave (km/s) = 6.32747 6.97243 6.65777
#
# Compressibility (1/GPa) = 0.01678986
#
# Stress axis : x y z
#
# Youngs Moduli (GPa) = 99.49396 52.49797 49.00685
#
# Poissons Ratio (x) = 0.31417 0.04966
# Poissons Ratio (y) = 0.59542 0.45868
# Poissons Ratio (z) = 0.10082 0.49136
#
# Static dielectric constant tensor:
#      x y z
#    x 1.632370 0.000000 0.000000 
#    y 0.000000 1.642250 0.000000 
#    z 0.000000 0.000000 1.636890 
# 
# From -- ./inp_files/19264.got.cif
#   From: 2010.05.17/outbox.cif.g08.bks.cpg/sg64_10_cif.got.tgz:19264.got - 2010.06.03 16:29:19.
