data_PCOD9480146
_publ_section_title
;
Structure prediction by ZEFSAII (Michael W. Deem and Ramdas Pophale) SiO2 
 PCOD9480146
Probable space group: C M C A
;
_chemical_formula_sum "Si O2"
_cell_formula_units_Z 88
_cell_length_a 25.025073
_cell_length_b 13.175345
_cell_length_c 12.046341
_cell_angle_alpha 90.000000
_cell_angle_beta 90.000000
_cell_angle_gamma 90.000000
_cell_volume 3971.846920
_symmetry_space_group_name_H-M "C M C A"
_symmetry_group_IT_number 64
_symmetry_cell_setting 'orthorhombic'
loop_
_space_group_symop_operation_xyz
x,y,z
-x,1/2-y,1/2+z
x,-y,-z
-x,1/2+y,1/2-z
-x,-y,-z
x,1/2+y,1/2-z
-x,y,z
x,1/2-y,1/2+z
1/2+x,1/2+y,z
1/2-x,-y,1/2+z
1/2+x,1/2-y,-z
1/2-x,y,1/2-z
1/2-x,1/2-y,-z
1/2+x,y,1/2-z
1/2-x,1/2+y,z
1/2+x,-y,1/2+z
loop_
_atom_site_type_symbol
_atom_site_label
_atom_site_fract_x
_atom_site_fract_y
_atom_site_fract_z
Si Si1 0.500000 0.605152 0.912870
Si Si2 0.290011 0.293698 0.149564
Si Si3 0.500000 0.170015 0.331919
Si Si4 0.000000 0.652746 0.091027
Si Si5 0.116027 0.409756 0.418282
Si Si6 0.409845 0.289847 0.436847
Si Si7 0.195693 0.380367 0.009333
O O1 0.500000 0.393269 0.949507
O O2 0.500000 0.725350 0.888165
O O3 0.442849 0.564892 0.871659
O O4 0.250000 0.278758 0.250000
O O5 0.338892 0.371555 0.165160
O O6 0.252794 0.346936 0.056986
O O7 0.309823 0.184749 0.104258
O O8 0.500000 0.110790 0.215630
O O9 0.448006 0.243486 0.341993
O O10 0.947649 0.639297 0.014641
O O11 0.133248 0.500000 0.500000
O O12 0.106200 0.310914 0.494495
O O13 0.354029 0.343662 0.415307
O O14 0.193599 0.500000 0.000000
#
# Coordination Sequence:
#
# PCOD9480146 Si02
#       7
#     8  16   8   8  16  16  16
#     4   8  17  28  48  84 107 140 193 230 276 338
#     4  10  22  38  58  84 114 149 193 240 288 346
#     4   8  14  29  51  71 106 147 180 232 289 334
#     4   8  14  29  49  71 106 143 180 232 284 330
#     4   9  16  32  55  79 113 149 183 234 286 334
#     4   8  18  31  49  78 103 142 192 231 280 342
#     4  10  21  39  58  79 113 154 192 237 292 349
#
# _framework density 22.155939
#
# number of rings (size 3 to 8) (size 9 to 14) (size 15 to 20)
#    0.000    3.636    0.000    0.818    0.000    5.091 
#    0.000    5.455    0.000    8.727    0.000    0.000 
#    0.000    0.000    0.000    0.000    0.000    0.000 
#
# Total GULP energy -245097.024811 kJ/mol
# GULP energy per Si atom -5570.386928 kJ/mol
# Density = 2.210551 g / cm^3
# Si number density = 22.155939 Si / 1000 Ang^3
#
#
#
# Elastic Constant Matrix: (Units=GPa)
#
#
# Indices 1 2 3 4 5 6 
#
# 1 135.6779 49.1671 29.2183 0.0000 0.0000 0.0000
# 2 49.1671 90.5271 7.9426 0.0000 0.0000 0.0000
# 3 29.2183 7.9426 61.5019 0.0000 0.0000 0.0000
# 4 0.0000 0.0000 0.0000 11.1221 0.0000 0.0000
# 5 0.0000 0.0000 0.0000 0.0000 -5.3031 0.0000
# 6 0.0000 0.0000 0.0000 0.0000 0.0000 18.7505
#
#
#
# Elastic Compliance Matrix: (Units=1/GPa)
#
#
# Indices 1 2 3 4 5 6 
#
# 1 0.010124 -0.005135 -0.004147 0.000000 0.000000 0.000000
# 2 -0.005135 0.013777 0.000660 0.000000 0.000000 0.000000
# 3 -0.004147 0.000660 0.018144 0.000000 0.000000 0.000000
# 4 0.000000 0.000000 0.000000 0.089911 0.000000 0.000000
# 5 0.000000 0.000000 0.000000 0.000000 -0.188569 0.000000
# 6 0.000000 0.000000 0.000000 0.000000 0.000000 0.053332
#
#
# Mechanical properties :
#
#
# Convention : Reuss Voigt Hill
#
# Bulk Modulus (GPa) = 40.31717 51.15141 45.73429
# Shear Modulus (GPa) = 224.92110 18.33917 121.63014
#
# Velocity S-wave (km/s) = 10.08651 2.88015 7.41731
# Velocity P-wave (km/s) = 12.40511 5.84786 9.69753
#
# Compressibility (1/GPa) = 0.02480333
#
# Stress axis : x y z
#
# Youngs Moduli (GPa) = 98.77384 72.58308 55.11344
#
# Poissons Ratio (x) = 0.37270 0.22854
# Poissons Ratio (y) = 0.50719 -0.03639
# Poissons Ratio (z) = 0.40958 -0.04792
#
# Static dielectric constant tensor:
#      x y z
#    x 1.872000 0.000000 0.000000 
#    y 0.000000 1.844190 0.000000 
#    z 0.000000 0.000000 1.908930 
# 
# From -- ./inp_files/27312.got.cif
#   From: 2010.05.17/outbox.cif.g08.bks.cpg/sg64_14_cif.got.tgz:27312.got - 2010.06.03 16:29:19.
