data_PCOD9480210
_publ_section_title
;
Structure prediction by ZEFSAII (Michael W. Deem and Ramdas Pophale) SiO2 
 PCOD9480210
Probable space group: C M C A
;
_chemical_formula_sum "Si O2"
_cell_formula_units_Z 72
_cell_length_a 7.833191
_cell_length_b 18.636616
_cell_length_c 27.553844
_cell_angle_alpha 90.000000
_cell_angle_beta 90.000000
_cell_angle_gamma 90.000000
_cell_volume 4022.425122
_symmetry_space_group_name_H-M "C M C A"
_symmetry_group_IT_number 64
_symmetry_cell_setting 'orthorhombic'
loop_
_space_group_symop_operation_xyz
x,y,z
-x,1/2-y,1/2+z
x,-y,-z
-x,1/2+y,1/2-z
-x,-y,-z
x,1/2+y,1/2-z
-x,y,z
x,1/2-y,1/2+z
1/2+x,1/2+y,z
1/2-x,-y,1/2+z
1/2+x,1/2-y,-z
1/2-x,y,1/2-z
1/2-x,1/2-y,-z
1/2+x,y,1/2-z
1/2-x,1/2+y,z
1/2+x,-y,1/2+z
loop_
_atom_site_type_symbol
_atom_site_label
_atom_site_fract_x
_atom_site_fract_y
_atom_site_fract_z
Si Si1 0.311639 0.259216 0.094025
Si Si2 0.796424 0.299646 0.196780
Si Si3 0.500000 0.495721 0.376350
Si Si4 0.500000 0.630989 0.445696
Si Si5 0.803223 0.466159 0.304856
Si Si6 0.000000 0.353995 0.058369
O O1 0.500000 0.294289 0.089176
O O2 0.269018 0.254724 0.151083
O O3 0.340283 0.181587 0.070030
O O4 0.165488 0.305437 0.069154
O O5 0.750000 0.270787 0.250000
O O6 0.716488 0.379335 0.192707
O O7 0.000000 0.307472 0.193540
O O8 0.500000 0.559222 0.414989
O O9 0.667475 0.497745 0.342456
O O10 0.500000 0.420317 0.404795
O O11 0.500000 0.620413 0.503026
O O12 0.750000 0.486138 0.250000
O O13 0.000000 0.485134 0.314019
#
# Coordination Sequence:
#
# PCOD9480210 Si02
#       6
#    16  16   8   8  16   8
#     4  10  21  39  63  90 119 158 201 255 299 368
#     4  11  18  32  59  95 124 152 203 259 295 354
#     4  12  23  42  59  96 125 161 199 255 304 364
#     4  10  27  42  60  87 134 153 201 265 312 354
#     4  11  19  34  61  91 123 160 202 247 292 362
#     4  12  21  44  69  87 111 170 215 252 302 357
#
# _framework density 17.899649
#
# number of rings (size 3 to 8) (size 9 to 14) (size 15 to 20)
#    0.667    0.444    5.556    4.333    0.000    0.000 
#    2.000    1.111    0.000    2.667    0.000    0.000 
#    0.000    0.000    0.000    0.000    0.000    0.000 
#
# Total GULP energy -200872.740250 kJ/mol
# GULP energy per Si atom -5579.798340 kJ/mol
# Density = 1.785891 g / cm^3
# Si number density = 17.899649 Si / 1000 Ang^3
#
#
#
# Elastic Constant Matrix: (Units=GPa)
#
#
# Indices 1 2 3 4 5 6 
#
# 1 155.1616 23.1944 36.2261 0.0000 0.0000 0.0000
# 2 23.1944 39.2775 11.8138 0.0000 0.0000 0.0000
# 3 36.2261 11.8138 114.0732 0.0000 0.0000 0.0000
# 4 0.0000 0.0000 0.0000 14.6389 0.0000 0.0000
# 5 0.0000 0.0000 0.0000 0.0000 17.2198 0.0000
# 6 0.0000 0.0000 0.0000 0.0000 0.0000 7.5305
#
#
#
# Elastic Compliance Matrix: (Units=1/GPa)
#
#
# Indices 1 2 3 4 5 6 
#
# 1 0.007478 -0.003821 -0.001979 0.000000 0.000000 0.000000
# 2 -0.003821 0.028231 -0.001710 0.000000 0.000000 0.000000
# 3 -0.001979 -0.001710 0.009572 0.000000 0.000000 0.000000
# 4 0.000000 0.000000 0.000000 0.068311 0.000000 0.000000
# 5 0.000000 0.000000 0.000000 0.000000 0.058073 0.000000
# 6 0.000000 0.000000 0.000000 0.000000 0.000000 0.132794
#
#
# Mechanical properties :
#
#
# Convention : Reuss Voigt Hill
#
# Bulk Modulus (GPa) = 33.04667 50.10899 41.57783
# Shear Modulus (GPa) = 15.17149 23.69637 19.43393
#
# Velocity S-wave (km/s) = 2.91449 3.64242 3.29859
# Velocity P-wave (km/s) = 5.46150 6.76349 6.14706
#
# Compressibility (1/GPa) = 0.03026023
#
# Stress axis : x y z
#
# Youngs Moduli (GPa) = 133.72359 35.42264 104.47210
#
# Poissons Ratio (x) = 0.13534 0.20676
# Poissons Ratio (y) = 0.51092 0.17868
# Poissons Ratio (z) = 0.26466 0.06058
#
# Static dielectric constant tensor:
#      x y z
#    x 1.614080 0.000000 0.000000 
#    y 0.000000 1.581360 0.000000 
#    z 0.000000 0.000000 1.620670 
# 
# From -- ./inp_files/47761.got.cif
#   From: 2010.05.17/outbox.cif.g08.bks.cpg/sg64_24_cif.got.tgz:47761.got - 2010.06.03 16:29:19.
