data_PCOD9480665
_publ_section_title
;
Structure prediction by ZEFSAII (Michael W. Deem and Ramdas Pophale) SiO2 
 PCOD9480665
Probable space group: C M C A
;
_chemical_formula_sum "Si O2"
_cell_formula_units_Z 88
_cell_length_a 7.892412
_cell_length_b 24.616481
_cell_length_c 19.513456
_cell_angle_alpha 90.000000
_cell_angle_beta 90.000000
_cell_angle_gamma 90.000000
_cell_volume 3791.140773
_symmetry_space_group_name_H-M "C M C A"
_symmetry_group_IT_number 64
_symmetry_cell_setting 'orthorhombic'
loop_
_space_group_symop_operation_xyz
x,y,z
-x,1/2-y,1/2+z
x,-y,-z
-x,1/2+y,1/2-z
-x,-y,-z
x,1/2+y,1/2-z
-x,y,z
x,1/2-y,1/2+z
1/2+x,1/2+y,z
1/2-x,-y,1/2+z
1/2+x,1/2-y,-z
1/2-x,y,1/2-z
1/2-x,1/2-y,-z
1/2+x,y,1/2-z
1/2-x,1/2+y,z
1/2+x,-y,1/2+z
loop_
_atom_site_type_symbol
_atom_site_label
_atom_site_fract_x
_atom_site_fract_y
_atom_site_fract_z
Si Si1 0.801311 0.819236 0.373132
Si Si2 0.799237 0.406404 0.482693
Si Si3 0.797867 0.792120 0.672703
Si Si4 0.696675 0.971410 0.350966
Si Si5 0.805311 0.410642 0.863738
Si Si6 0.750000 0.387039 0.250000
O O1 0.750815 0.852394 0.440535
O O2 0.770875 0.755130 0.376083
O O3 0.695231 0.844433 0.309236
O O4 0.000000 0.828412 0.357141
O O5 0.765909 0.455510 0.429536
O O6 0.704220 0.410824 0.553887
O O7 0.000000 0.406215 0.497240
O O8 0.750000 0.777004 0.750000
O O9 0.731208 0.852890 0.659382
O O10 0.000000 0.793643 0.664813
O O11 0.500000 0.954985 0.338255
O O12 0.812997 0.933165 0.304140
O O13 0.716047 0.034812 0.338594
O O14 0.000000 0.413765 0.841011
#
# Coordination Sequence:
#
# PCOD9480665 Si02
#       6
#    16  16  16  16  16   8
#     4  11  22  39  67  95 124 161 206 259 311 365
#     4  10  22  41  65  93 125 164 208 256 310 367
#     4  11  25  43  63  90 125 164 206 255 308 367
#     4  10  22  39  62  91 126 164 205 254 308 366
#     4  11  25  42  61  90 126 165 209 255 307 371
#     4  10  22  38  62  96 124 158 208 256 306 374
#
# _framework density 23.212009999999999
#
# number of rings (size 3 to 8) (size 9 to 14) (size 15 to 20)
#    0.000    1.455    0.909    3.273    1.273   11.636 
#    0.000    0.000    0.000    0.000    0.000    0.000 
#    0.000    0.000    0.000    0.000    0.000    0.000 
#
# Total GULP energy -245530.479378 kJ/mol
# GULP energy per Si atom -5580.238168 kJ/mol
# Density = 2.315918 g / cm^3
# Si number density = 23.212010 Si / 1000 Ang^3
#
#
#
# Elastic Constant Matrix: (Units=GPa)
#
#
# Indices 1 2 3 4 5 6 
#
# 1 74.7938 18.3866 -6.3282 0.0000 0.0000 0.0000
# 2 18.3866 172.2437 -8.6005 0.0000 0.0000 0.0000
# 3 -6.3282 -8.6005 37.7733 0.0000 0.0000 0.0000
# 4 0.0000 0.0000 0.0000 108.5032 0.0000 0.0000
# 5 0.0000 0.0000 0.0000 0.0000 6.4333 0.0000
# 6 0.0000 0.0000 0.0000 0.0000 0.0000 -10.8109
#
#
#
# Elastic Compliance Matrix: (Units=1/GPa)
#
#
# Indices 1 2 3 4 5 6 
#
# 1 0.013880 -0.001381 0.002011 0.000000 0.000000 0.000000
# 2 -0.001381 0.006010 0.001137 0.000000 0.000000 0.000000
# 3 0.002011 0.001137 0.027069 0.000000 0.000000 0.000000
# 4 0.000000 0.000000 0.000000 0.009216 0.000000 0.000000
# 5 0.000000 0.000000 0.000000 0.000000 0.155441 0.000000
# 6 0.000000 0.000000 0.000000 0.000000 0.000000 -0.092499
#
#
# Mechanical properties :
#
#
# Convention : Reuss Voigt Hill
#
# Bulk Modulus (GPa) = 19.80500 32.41408 26.10954
# Shear Modulus (GPa) = 37.76014 39.58198 38.67106
#
# Velocity S-wave (km/s) = 4.03767 4.13393 4.08609
# Velocity P-wave (km/s) = 5.50344 6.06470 5.79087
#
# Compressibility (1/GPa) = 0.05049230
#
# Stress axis : x y z
#
# Youngs Moduli (GPa) = 72.04727 166.39094 36.94202
#
# Poissons Ratio (x) = 0.22982 -0.07428
# Poissons Ratio (y) = 0.09951 -0.04200
# Poissons Ratio (z) = -0.14487 -0.18918
#
# Static dielectric constant tensor:
#      x y z
#    x 1.947260 0.000000 0.000000 
#    y 0.000000 1.869370 0.000000 
#    z 0.000000 0.000000 1.877690 
# 
# From -- ./inp_files/36754.got.cif
#   From: 2010.05.17/outbox.cif.g08.bks.cpg/sg64_19_cif.got.tgz:36754.got - 2010.06.03 16:29:19.
