data_PCOD9480830
_publ_section_title
;
Structure prediction by ZEFSAII (Michael W. Deem and Ramdas Pophale) SiO2 
 PCOD9480830
Probable space group: C M C A
;
_chemical_formula_sum "Si O2"
_cell_formula_units_Z 88
_cell_length_a 24.773859
_cell_length_b 8.552965
_cell_length_c 21.149590
_cell_angle_alpha 90.000000
_cell_angle_beta 90.000000
_cell_angle_gamma 90.000000
_cell_volume 4481.385545
_symmetry_space_group_name_H-M "C M C A"
_symmetry_group_IT_number 64
_symmetry_cell_setting 'orthorhombic'
loop_
_space_group_symop_operation_xyz
x,y,z
-x,1/2-y,1/2+z
x,-y,-z
-x,1/2+y,1/2-z
-x,-y,-z
x,1/2+y,1/2-z
-x,y,z
x,1/2-y,1/2+z
1/2+x,1/2+y,z
1/2-x,-y,1/2+z
1/2+x,1/2-y,-z
1/2-x,y,1/2-z
1/2-x,1/2-y,-z
1/2+x,y,1/2-z
1/2-x,1/2+y,z
1/2+x,-y,1/2+z
loop_
_atom_site_type_symbol
_atom_site_label
_atom_site_fract_x
_atom_site_fract_y
_atom_site_fract_z
Si Si1 0.224746 0.140995 0.686258
Si Si2 0.380581 0.457030 0.243058
Si Si3 0.622729 0.500000 0.000000
Si Si4 0.680256 0.430962 0.870222
Si Si5 0.564456 0.830013 0.972840
Si Si6 0.938315 0.178717 0.323180
O O1 0.250000 0.220589 0.750000
O O2 0.172646 0.051499 0.713431
O O3 0.204276 0.258535 0.633118
O O4 0.271977 0.038648 0.656803
O O5 0.366823 0.564152 0.182593
O O6 0.428677 0.517593 0.286588
O O7 0.396839 0.294870 0.210785
O O8 0.658387 0.512623 0.063195
O O9 0.589869 0.334608 0.003093
O O10 0.500000 0.822073 0.984936
O O11 0.573354 0.834113 0.897313
O O12 0.583345 0.000000 0.000000
O O13 0.000000 0.232766 0.316348
#
# Coordination Sequence:
#
# PCOD9480830 Si02
#       6
#    16  16   8  16  16  16
#     4  10  22  40  64  90 123 168 215 270 331 400
#     4  11  21  40  65  94 130 165 210 274 336 391
#     4  12  25  44  66 100 136 176 227 284 334 388
#     4  11  24  40  63  93 124 168 223 269 332 394
#     4  10  24  45  68  96 136 186 229 269 333 410
#     4  11  23  40  65 101 132 166 220 276 334 402
#
# _framework density 19.636785
#
# number of rings (size 3 to 8) (size 9 to 14) (size 15 to 20)
#    0.000    1.273    3.636    2.455    5.091    0.727 
#    0.000    0.000    0.000    0.000    0.000    0.000 
#    0.000    0.000    0.000    0.000    0.000    0.000 
#
# Total GULP energy -245402.711913 kJ/mol
# GULP energy per Si atom -5577.334362 kJ/mol
# Density = 1.959209 g / cm^3
# Si number density = 19.636785 Si / 1000 Ang^3
#
#
#
# Elastic Constant Matrix: (Units=GPa)
#
#
# Indices 1 2 3 4 5 6 
#
# 1 63.4200 23.3852 55.8582 0.0000 0.0000 0.0000
# 2 23.3852 81.1579 44.9204 0.0000 0.0000 0.0000
# 3 55.8582 44.9204 108.2283 0.0000 0.0000 0.0000
# 4 0.0000 0.0000 0.0000 24.5525 0.0000 0.0000
# 5 0.0000 0.0000 0.0000 0.0000 28.8907 0.0000
# 6 0.0000 0.0000 0.0000 0.0000 0.0000 35.2894
#
#
#
# Elastic Compliance Matrix: (Units=1/GPa)
#
#
# Indices 1 2 3 4 5 6 
#
# 1 0.028910 -0.000093 -0.014882 0.000000 0.000000 0.000000
# 2 -0.000093 0.015997 -0.006592 0.000000 0.000000 0.000000
# 3 -0.014882 -0.006592 0.019657 0.000000 0.000000 0.000000
# 4 0.000000 0.000000 0.000000 0.040729 0.000000 0.000000
# 5 0.000000 0.000000 0.000000 0.000000 0.034613 0.000000
# 6 0.000000 0.000000 0.000000 0.000000 0.000000 0.028337
#
#
# Mechanical properties :
#
#
# Convention : Reuss Voigt Hill
#
# Bulk Modulus (GPa) = 46.66408 55.68154 51.17281
# Shear Modulus (GPa) = 22.88123 26.32267 24.60195
#
# Velocity S-wave (km/s) = 3.41724 3.66523 3.54340
# Velocity P-wave (km/s) = 6.27577 6.80655 6.54654
#
# Compressibility (1/GPa) = 0.02142976
#
# Stress axis : x y z
#
# Youngs Moduli (GPa) = 34.59006 62.51240 50.87367
#
# Poissons Ratio (x) = 0.00581 0.75712
# Poissons Ratio (y) = 0.00322 0.33534
# Poissons Ratio (z) = 0.51478 0.41205
#
# Static dielectric constant tensor:
#      x y z
#    x 1.686530 0.000000 0.000000 
#    y 0.000000 1.830320 0.000000 
#    z 0.000000 0.000000 1.673400 
# 
# From -- ./inp_files/41366.got.cif
#   From: 2010.05.17/outbox.cif.g08.bks.cpg/sg64_21_cif.got.tgz:41366.got - 2010.06.03 16:29:19.
