data_PCOD9480826
_publ_section_title
;
Structure prediction by ZEFSAII (Michael W. Deem and Ramdas Pophale) SiO2 
 PCOD9480826
Probable space group: C M C A
;
_chemical_formula_sum "Si O2"
_cell_formula_units_Z 88
_cell_length_a 24.451047
_cell_length_b 16.249950
_cell_length_c 10.213184
_cell_angle_alpha 90.000000
_cell_angle_beta 90.000000
_cell_angle_gamma 90.000000
_cell_volume 4057.986946
_symmetry_space_group_name_H-M "C M C A"
_symmetry_group_IT_number 64
_symmetry_cell_setting 'orthorhombic'
loop_
_space_group_symop_operation_xyz
x,y,z
-x,1/2-y,1/2+z
x,-y,-z
-x,1/2+y,1/2-z
-x,-y,-z
x,1/2+y,1/2-z
-x,y,z
x,1/2-y,1/2+z
1/2+x,1/2+y,z
1/2-x,-y,1/2+z
1/2+x,1/2-y,-z
1/2-x,y,1/2-z
1/2-x,1/2-y,-z
1/2+x,y,1/2-z
1/2-x,1/2+y,z
1/2+x,-y,1/2+z
loop_
_atom_site_type_symbol
_atom_site_label
_atom_site_fract_x
_atom_site_fract_y
_atom_site_fract_z
Si Si1 0.500000 0.715743 0.320092
Si Si2 0.807252 0.776048 0.061160
Si Si3 0.111559 0.629459 0.093209
Si Si4 0.000000 0.850182 0.963855
Si Si5 0.864275 0.451030 0.183262
Si Si6 0.385202 0.089411 0.526527
Si Si7 0.750000 0.402292 0.250000
O O1 0.445673 0.669871 0.369810
O O2 0.500000 0.710746 0.161871
O O3 0.500000 0.801289 0.398558
O O4 0.840900 0.697515 0.110609
O O5 0.849352 0.832876 0.978606
O O6 0.786950 0.841185 0.166705
O O7 0.750000 0.750000 0.000000
O O8 0.118659 0.545953 0.174716
O O9 0.115287 0.599725 0.942191
O O10 0.944673 0.902961 0.963130
O O11 0.888292 0.410666 0.315154
O O12 0.797539 0.452318 0.177938
O O13 0.359091 0.000000 0.500000
#
# Coordination Sequence:
#
# PCOD9480826 Si02
#       7
#     8  16  16   8  16  16   8
#     4  12  28  45  76 110 142 189 248 300 369 428
#     4  11  23  40  68  97 136 185 233 296 356 433
#     4  11  24  45  70 103 144 186 248 293 375 432
#     4  12  27  46  76 107 148 189 242 304 359 441
#     4  10  24  43  69 102 143 190 237 304 357 437
#     4  11  25  44  69 103 142 184 241 291 363 428
#     4  10  22  40  64 102 140 180 244 290 358 430
#
# _framework density 21.685628999999999
#
# number of rings (size 3 to 8) (size 9 to 14) (size 15 to 20)
#    0.000    1.091    3.636    1.364    2.545    8.727 
#    0.000    0.000    0.000    0.000    0.000    0.000 
#    0.000    0.000    0.000    0.000    0.000    0.000 
#
# Total GULP energy -245607.781332 kJ/mol
# GULP energy per Si atom -5581.995030 kJ/mol
# Density = 2.163627 g / cm^3
# Si number density = 21.685629 Si / 1000 Ang^3
#
#
#
# Elastic Constant Matrix: (Units=GPa)
#
#
# Indices 1 2 3 4 5 6 
#
# 1 135.9128 23.8383 11.6886 0.0000 0.0000 0.0000
# 2 23.8383 68.3187 -8.0189 0.0000 0.0000 0.0000
# 3 11.6886 -8.0189 60.6353 0.0000 0.0000 0.0000
# 4 0.0000 0.0000 0.0000 -61.3335 0.0000 0.0000
# 5 0.0000 0.0000 0.0000 0.0000 0.7031 0.0000
# 6 0.0000 0.0000 0.0000 0.0000 0.0000 30.4406
#
#
#
# Elastic Compliance Matrix: (Units=1/GPa)
#
#
# Indices 1 2 3 4 5 6 
#
# 1 0.008059 -0.003042 -0.001956 0.000000 0.000000 0.000000
# 2 -0.003042 0.016016 0.002704 0.000000 0.000000 0.000000
# 3 -0.001956 0.002704 0.017227 0.000000 0.000000 0.000000
# 4 0.000000 0.000000 0.000000 -0.016304 0.000000 0.000000
# 5 0.000000 0.000000 0.000000 0.000000 1.422336 0.000000
# 6 0.000000 0.000000 0.000000 0.000000 0.000000 0.032851
#
#
# Mechanical properties :
#
#
# Convention : Reuss Voigt Hill
#
# Bulk Modulus (GPa) = 27.23614 35.54253 31.38933
# Shear Modulus (GPa) = 3.33999 9.78593 6.56296
#
# Velocity S-wave (km/s) = 1.24239 2.12660 1.74155
# Velocity P-wave (km/s) = 3.82686 4.73871 4.30698
#
# Compressibility (1/GPa) = 0.03671592
#
# Stress axis : x y z
#
# Youngs Moduli (GPa) = 124.07929 62.43734 58.04929
#
# Poissons Ratio (x) = 0.18992 0.11354
# Poissons Ratio (y) = 0.37741 -0.15699
# Poissons Ratio (z) = 0.24268 -0.16886
#
# Static dielectric constant tensor:
#      x y z
#    x 1.939720 0.000000 0.000000 
#    y 0.000000 2.228900 0.000000 
#    z 0.000000 0.000000 1.806860 
# 
# From -- ./inp_files/18257.got.cif
#   From: 2010.05.17/outbox.cif.g08.bks.cpg/sg64_10_cif.got.tgz:18257.got - 2010.06.03 16:29:19.
