data_PCOD9480770
_publ_section_title
;
Structure prediction by ZEFSAII (Michael W. Deem and Ramdas Pophale) SiO2 
 PCOD9480770
Probable space group: C M C A
;
_chemical_formula_sum "Si O2"
_cell_formula_units_Z 88
_cell_length_a 15.420320
_cell_length_b 24.815802
_cell_length_c 10.954751
_cell_angle_alpha 90.000000
_cell_angle_beta 90.000000
_cell_angle_gamma 90.000000
_cell_volume 4192.028360
_symmetry_space_group_name_H-M "C M C A"
_symmetry_group_IT_number 64
_symmetry_cell_setting 'orthorhombic'
loop_
_space_group_symop_operation_xyz
x,y,z
-x,1/2-y,1/2+z
x,-y,-z
-x,1/2+y,1/2-z
-x,-y,-z
x,1/2+y,1/2-z
-x,y,z
x,1/2-y,1/2+z
1/2+x,1/2+y,z
1/2-x,-y,1/2+z
1/2+x,1/2-y,-z
1/2-x,y,1/2-z
1/2-x,1/2-y,-z
1/2+x,y,1/2-z
1/2-x,1/2+y,z
1/2+x,-y,1/2+z
loop_
_atom_site_type_symbol
_atom_site_label
_atom_site_fract_x
_atom_site_fract_y
_atom_site_fract_z
Si Si1 0.750000 0.648335 0.250000
Si Si2 0.895808 0.079312 0.394031
Si Si3 0.898192 0.545209 0.829637
Si Si4 0.666320 0.363563 0.184050
Si Si5 0.000000 0.200039 0.718629
Si Si6 0.000000 0.759204 0.542500
Si Si7 0.821358 0.294822 0.532209
O O1 0.821561 0.615186 0.170489
O O2 0.808213 0.687665 0.331144
O O3 0.881083 0.074325 0.540133
O O4 0.000000 0.093667 0.375059
O O5 0.883751 0.018261 0.344871
O O6 0.846625 0.574904 0.723013
O O7 0.000000 0.551958 0.804563
O O8 0.750000 0.340464 0.250000
O O9 0.583952 0.331964 0.235790
O O10 0.682678 0.350102 0.044508
O O11 0.000000 0.197208 0.569791
O O12 0.000000 0.254869 0.807055
O O13 0.913326 0.728900 0.502908
O O14 0.750000 0.250000 0.500000
#
# Coordination Sequence:
#
# PCOD9480770 Si02
#       7
#     8  16  16  16   8   8  16
#     4  12  26  44  66  94 130 168 220 264 332 402
#     4   9  21  41  65  98 131 171 212 267 325 388
#     4   9  18  40  68  96 132 165 217 267 319 393
#     4  11  21  37  65  93 121 164 212 265 318 387
#     4  10  22  40  58  92 123 162 226 252 333 382
#     4  10  24  42  66  87 127 173 207 284 324 388
#     4  11  27  45  63  94 130 167 218 274 331 395
#
# _framework density 20.992224
#
# number of rings (size 3 to 8) (size 9 to 14) (size 15 to 20)
#    0.000    1.818    0.909    3.273    8.909    0.000 
#    1.636    0.000    0.000    2.182    0.000    0.000 
#    0.000    0.000    0.000    0.000    0.000    0.000 
#
# Total GULP energy -245166.846382 kJ/mol
# GULP energy per Si atom -5571.973781 kJ/mol
# Density = 2.094444 g / cm^3
# Si number density = 20.992224 Si / 1000 Ang^3
#
#
#
# Elastic Constant Matrix: (Units=GPa)
#
#
# Indices 1 2 3 4 5 6 
#
# 1 123.3478 23.1508 -6.5898 0.0000 0.0000 0.0000
# 2 23.1508 60.0961 22.8082 0.0000 0.0000 0.0000
# 3 -6.5898 22.8082 26.6120 0.0000 0.0000 0.0000
# 4 0.0000 0.0000 0.0000 22.8029 0.0000 0.0000
# 5 0.0000 0.0000 0.0000 0.0000 28.3975 0.0000
# 6 0.0000 0.0000 0.0000 0.0000 0.0000 136.3708
#
#
#
# Elastic Compliance Matrix: (Units=1/GPa)
#
#
# Indices 1 2 3 4 5 6 
#
# 1 0.009875 -0.007014 0.008457 0.000000 0.000000 0.000000
# 2 -0.007014 0.029644 -0.027143 0.000000 0.000000 0.000000
# 3 0.008457 -0.027143 0.062935 0.000000 0.000000 0.000000
# 4 0.000000 0.000000 0.000000 0.043854 0.000000 0.000000
# 5 0.000000 0.000000 0.000000 0.000000 0.035214 0.000000
# 6 0.000000 0.000000 0.000000 0.000000 0.000000 0.007333
#
#
# Mechanical properties :
#
#
# Convention : Reuss Voigt Hill
#
# Bulk Modulus (GPa) = 19.58757 32.08826 25.83792
# Shear Modulus (GPa) = 19.43457 48.89336 34.16396
#
# Velocity S-wave (km/s) = 3.04599 4.83133 4.03855
# Velocity P-wave (km/s) = 4.66068 6.81478 5.83794
#
# Compressibility (1/GPa) = 0.05105277
#
# Stress axis : x y z
#
# Youngs Moduli (GPa) = 101.26223 33.73411 15.88949
#
# Poissons Ratio (x) = 0.23661 -0.13437
# Poissons Ratio (y) = 0.71024 0.43129
# Poissons Ratio (z) = -0.85634 0.91565
#
# Static dielectric constant tensor:
#      x y z
#    x 1.736610 0.000000 0.000000 
#    y 0.000000 1.823470 0.000000 
#    z 0.000000 0.000000 1.671250 
# 
# From -- ./inp_files/14794.got.cif
#   From: 2010.05.17/outbox.cif.g08.bks.cpg/sg64_8_cif.got.tgz:14794.got - 2010.06.03 16:29:19.
