data_PCOD9480871
_publ_section_title
;
Structure prediction by ZEFSAII (Michael W. Deem and Ramdas Pophale) SiO2 
 PCOD9480871
Probable space group: C M C A
;
_chemical_formula_sum "Si O2"
_cell_formula_units_Z 56
_cell_length_a 27.866611
_cell_length_b 17.423031
_cell_length_c 5.417356
_cell_angle_alpha 90.000000
_cell_angle_beta 90.000000
_cell_angle_gamma 90.000000
_cell_volume 2630.239167
_symmetry_space_group_name_H-M "C M C A"
_symmetry_group_IT_number 64
_symmetry_cell_setting 'orthorhombic'
loop_
_space_group_symop_operation_xyz
x,y,z
-x,1/2-y,1/2+z
x,-y,-z
-x,1/2+y,1/2-z
-x,-y,-z
x,1/2+y,1/2-z
-x,y,z
x,1/2-y,1/2+z
1/2+x,1/2+y,z
1/2-x,-y,1/2+z
1/2+x,1/2-y,-z
1/2-x,y,1/2-z
1/2-x,1/2-y,-z
1/2+x,y,1/2-z
1/2-x,1/2+y,z
1/2+x,-y,1/2+z
loop_
_atom_site_type_symbol
_atom_site_label
_atom_site_fract_x
_atom_site_fract_y
_atom_site_fract_z
Si Si1 0.500000 0.051698 0.249059
Si Si2 0.750000 0.402349 0.250000
Si Si3 0.604026 0.918406 0.856311
Si Si4 0.679063 0.299074 0.489920
Si Si5 0.329332 0.500000 0.000000
O O1 0.549817 0.097978 0.229697
O O2 0.500000 0.000000 0.500000
O O3 0.500000 0.000000 0.000000
O O4 0.727705 0.349414 0.464133
O O5 0.706048 0.456584 0.182479
O O6 0.637305 0.936582 0.622850
O O7 0.631996 0.853561 0.005891
O O8 0.603313 0.000000 0.000000
O O9 0.678405 0.251540 0.742231
#
# Coordination Sequence:
#
# PCOD9480871 Si02
#       5
#     8   8  16  16   8
#     4  10  22  40  74 104 130 166 225 292 351 408
#     4  12  24  42  66 100 138 196 238 294 346 424
#     4  11  23  45  70 101 132 177 231 293 349 418
#     4  12  27  45  66  98 143 187 229 284 349 421
#     4  12  22  41  70 100 140 171 246 296 350 400
#
# _framework density 21.290841
#
# number of rings (size 3 to 8) (size 9 to 14) (size 15 to 20)
#    0.000    0.571    4.286    4.286    0.000    2.286 
#    0.000    1.429    0.000    0.000    0.000    0.000 
#    0.000    0.000    0.000    0.000    0.000    0.000 
#
# Total GULP energy -156564.525436 kJ/mol
# GULP energy per Si atom -5591.590194 kJ/mol
# Density = 2.124238 g / cm^3
# Si number density = 21.290841 Si / 1000 Ang^3
#
#
#
# Elastic Constant Matrix: (Units=GPa)
#
#
# Indices 1 2 3 4 5 6 
#
# 1 191.3746 38.0556 36.8910 0.0000 0.0000 0.0000
# 2 38.0556 68.7792 35.3144 0.0000 0.0000 0.0000
# 3 36.8910 35.3144 111.6182 0.0000 0.0000 0.0000
# 4 0.0000 0.0000 0.0000 44.7975 0.0000 0.0000
# 5 0.0000 0.0000 0.0000 0.0000 27.9557 0.0000
# 6 0.0000 0.0000 0.0000 0.0000 0.0000 13.8670
#
#
#
# Elastic Compliance Matrix: (Units=1/GPa)
#
#
# Indices 1 2 3 4 5 6 
#
# 1 0.005985 -0.002741 -0.001111 0.000000 0.000000 0.000000
# 2 -0.002741 0.018615 -0.004983 0.000000 0.000000 0.000000
# 3 -0.001111 -0.004983 0.010903 0.000000 0.000000 0.000000
# 4 0.000000 0.000000 0.000000 0.022323 0.000000 0.000000
# 5 0.000000 0.000000 0.000000 0.000000 0.035771 0.000000
# 6 0.000000 0.000000 0.000000 0.000000 0.000000 0.072114
#
#
# Mechanical properties :
#
#
# Convention : Reuss Voigt Hill
#
# Bulk Modulus (GPa) = 56.07989 65.81045 60.94517
# Shear Modulus (GPa) = 26.40980 34.75810 30.58395
#
# Velocity S-wave (km/s) = 3.52580 4.04485 3.79421
# Velocity P-wave (km/s) = 6.55531 7.26579 6.91968
#
# Compressibility (1/GPa) = 0.01783170
#
# Stress axis : x y z
#
# Youngs Moduli (GPa) = 167.09791 53.72135 91.71848
#
# Poissons Ratio (x) = 0.14725 0.10188
# Poissons Ratio (y) = 0.45800 0.45708
# Poissons Ratio (z) = 0.18561 0.26772
#
# Static dielectric constant tensor:
#      x y z
#    x 1.768230 0.000000 0.000000 
#    y 0.000000 1.828460 0.000000 
#    z 0.000000 0.000000 1.735440 
# 
# From -- ./inp_files/2657.got.cif
#   From: 2010.05.17/outbox.cif.g08.bks.cpg/sg64_2_cif.got.tgz:2657.got - 2010.06.03 16:29:19.
