data_PCOD9480823
_publ_section_title
;
Structure prediction by ZEFSAII (Michael W. Deem and Ramdas Pophale) SiO2 
 PCOD9480823
Probable space group: C M C A
;
_chemical_formula_sum "Si O2"
_cell_formula_units_Z 64
_cell_length_a 14.001877
_cell_length_b 19.354330
_cell_length_c 11.254205
_cell_angle_alpha 90.000000
_cell_angle_beta 90.000000
_cell_angle_gamma 90.000000
_cell_volume 3049.855208
_symmetry_space_group_name_H-M "C M C A"
_symmetry_group_IT_number 64
_symmetry_cell_setting 'orthorhombic'
loop_
_space_group_symop_operation_xyz
x,y,z
-x,1/2-y,1/2+z
x,-y,-z
-x,1/2+y,1/2-z
-x,-y,-z
x,1/2+y,1/2-z
-x,y,z
x,1/2-y,1/2+z
1/2+x,1/2+y,z
1/2-x,-y,1/2+z
1/2+x,1/2-y,-z
1/2-x,y,1/2-z
1/2-x,1/2-y,-z
1/2+x,y,1/2-z
1/2-x,1/2+y,z
1/2+x,-y,1/2+z
loop_
_atom_site_type_symbol
_atom_site_label
_atom_site_fract_x
_atom_site_fract_y
_atom_site_fract_z
Si Si1 0.891219 0.683046 0.465129
Si Si2 0.704627 0.685116 0.628628
Si Si3 0.387877 0.533164 0.125166
Si Si4 0.114960 0.465666 0.127015
O O1 0.799096 0.676943 0.548681
O O2 0.872959 0.758291 0.410155
O O3 0.881663 0.616121 0.380897
O O4 0.000000 0.679204 0.515550
O O5 0.750000 0.710741 0.750000
O O6 0.656751 0.610763 0.636754
O O7 0.500000 0.514639 0.124079
O O8 0.353906 0.505647 0.252875
O O9 0.350634 0.500000 0.000000
O O10 0.000000 0.462561 0.127302
O O11 0.141132 0.500000 0.000000
#
# Coordination Sequence:
#
# PCOD9480823 Si02
#       4
#    16  16  16  16
#     4  10  23  42  62  89 126 166 210 262 319 381
#     4  11  24  40  63  93 123 164 215 264 319 381
#     4   9  18  36  63  90 118 160 209 255 311 375
#     4  10  22  40  63  94 130 165 206 262 322 378
#
# _framework density 20.984604000000001
#
# number of rings (size 3 to 8) (size 9 to 14) (size 15 to 20)
#    0.000    2.000    0.000    2.250    0.000   11.000 
#    0.000    2.500    0.000    0.000    0.000    1.750 
#    0.000    0.000    0.000    0.000    0.000    0.000 
#
# Total GULP energy -178408.452916 kJ/mol
# GULP energy per Si atom -5575.264154 kJ/mol
# Density = 2.093684 g / cm^3
# Si number density = 20.984604 Si / 1000 Ang^3
#
#
#
# Elastic Constant Matrix: (Units=GPa)
#
#
# Indices 1 2 3 4 5 6 
#
# 1 132.2689 38.0328 26.3300 0.0000 0.0000 0.0000
# 2 38.0328 104.3148 44.1206 0.0000 0.0000 0.0000
# 3 26.3300 44.1206 120.2947 0.0000 0.0000 0.0000
# 4 0.0000 0.0000 0.0000 17.5013 0.0000 0.0000
# 5 0.0000 0.0000 0.0000 0.0000 1.8134 0.0000
# 6 0.0000 0.0000 0.0000 0.0000 0.0000-2045.6183
#
#
#
# Elastic Compliance Matrix: (Units=1/GPa)
#
#
# Indices 1 2 3 4 5 6 
#
# 1 0.008520 -0.002743 -0.000859 0.000000 0.000000 0.000000
# 2 -0.002743 0.012230 -0.003885 0.000000 0.000000 0.000000
# 3 -0.000859 -0.003885 0.009926 0.000000 0.000000 0.000000
# 4 0.000000 0.000000 0.000000 0.057139 0.000000 0.000000
# 5 0.000000 0.000000 0.000000 0.000000 0.551442 0.000000
# 6 0.000000 0.000000 0.000000 0.000000 0.000000 -0.000489
#
#
# Mechanical properties :
#
#
# Convention : Reuss Voigt Hill
#
# Bulk Modulus (GPa) = 63.68774 63.76057 63.72416
# Shear Modulus (GPa) = 7.58754 -388.70105 -190.55675
#
# Velocity S-wave (km/s) = 1.90358 -13.62474 -9.53966
# Velocity P-wave (km/s) = 5.93693 14.73299 9.53452
#
# Compressibility (1/GPa) = 0.01570161
#
# Stress axis : x y z
#
# Youngs Moduli (GPa) = 117.36980 81.76782 100.74733
#
# Poissons Ratio (x) = 0.22430 0.08652
# Poissons Ratio (y) = 0.32197 0.39141
# Poissons Ratio (z) = 0.10079 0.31768
#
# Static dielectric constant tensor:
#      x y z
#    x 1.794870 0.000000 0.000000 
#    y 0.000000 1.710960 0.000000 
#    z 0.000000 0.000000 1.503060 
# 
# From -- ./inp_files/14013.got.cif
#   From: 2010.05.17/outbox.cif.g08.bks.cpg/sg64_8_cif.got.tgz:14013.got - 2010.06.03 16:29:19.
