data_PCOD9480431
_publ_section_title
;
Structure prediction by ZEFSAII (Michael W. Deem and Ramdas Pophale) SiO2 
 PCOD9480431
Probable space group: C M C A
;
_chemical_formula_sum "Si O2"
_cell_formula_units_Z 96
_cell_length_a 14.469699
_cell_length_b 21.145354
_cell_length_c 15.249164
_cell_angle_alpha 90.000000
_cell_angle_beta 90.000000
_cell_angle_gamma 90.000000
_cell_volume 4665.739553
_symmetry_space_group_name_H-M "C M C A"
_symmetry_group_IT_number 64
_symmetry_cell_setting 'orthorhombic'
loop_
_space_group_symop_operation_xyz
x,y,z
-x,1/2-y,1/2+z
x,-y,-z
-x,1/2+y,1/2-z
-x,-y,-z
x,1/2+y,1/2-z
-x,y,z
x,1/2-y,1/2+z
1/2+x,1/2+y,z
1/2-x,-y,1/2+z
1/2+x,1/2-y,-z
1/2-x,y,1/2-z
1/2-x,1/2-y,-z
1/2+x,y,1/2-z
1/2-x,1/2+y,z
1/2+x,-y,1/2+z
loop_
_atom_site_type_symbol
_atom_site_label
_atom_site_fract_x
_atom_site_fract_y
_atom_site_fract_z
Si Si1 0.891226 0.595223 0.475814
Si Si2 0.393826 0.906095 0.328059
Si Si3 0.100785 0.658398 0.163328
Si Si4 0.893772 0.284390 0.222776
Si Si5 0.282929 0.790601 0.580840
Si Si6 0.149370 0.956532 0.789875
O O1 0.852024 0.587090 0.574090
O O2 0.869013 0.666617 0.448405
O O3 0.851569 0.556379 0.393928
O O4 0.000000 0.580428 0.475882
O O5 0.500000 0.887569 0.345369
O O6 0.359702 0.848711 0.268436
O O7 0.392793 0.973662 0.280470
O O8 0.099019 0.727291 0.207847
O O9 0.197794 0.663690 0.110908
O O10 0.106355 0.603189 0.237372
O O11 0.000000 0.650010 0.117691
O O12 0.820996 0.257014 0.153784
O O13 0.000000 0.294030 0.188527
O O14 0.250000 0.750000 0.500000
O O15 0.250000 0.961035 0.750000
#
# Coordination Sequence:
#
# PCOD9480431 Si02
#       6
#    16  16  16  16  16  16
#     4  11  22  41  64  95 131 166 212 270 327 381
#     4  10  23  40  65  99 131 166 211 268 330 388
#     4  11  22  40  64  88 125 169 215 262 318 385
#     4  10  21  41  64  90 128 169 209 263 325 384
#     4  12  24  38  64  95 130 169 220 266 319 382
#     4  12  22  39  65  94 130 172 213 261 325 385
#
# _framework density 20.575516
#
# number of rings (size 3 to 8) (size 9 to 14) (size 15 to 20)
#    0.000    1.000    3.333    4.000    0.000    6.667 
#    0.000    0.000    0.000    0.000    0.000    4.667 
#    0.000    0.000    0.000    0.000    0.000    0.000 
#
# Total GULP energy -267660.039030 kJ/mol
# GULP energy per Si atom -5576.250813 kJ/mol
# Density = 2.052869 g / cm^3
# Si number density = 20.575516 Si / 1000 Ang^3
#
#
#
# Elastic Constant Matrix: (Units=GPa)
#
#
# Indices 1 2 3 4 5 6 
#
# 1 92.5362 3.9326 31.6787 0.0000 0.0000 0.0000
# 2 3.9326 144.7752 30.1234 0.0000 0.0000 0.0000
# 3 31.6787 30.1234 37.1720 0.0000 0.0000 0.0000
# 4 0.0000 0.0000 0.0000 21.7484 0.0000 0.0000
# 5 0.0000 0.0000 0.0000 0.0000 21.7454 0.0000
# 6 0.0000 0.0000 0.0000 0.0000 0.0000 28.2615
#
#
#
# Elastic Compliance Matrix: (Units=1/GPa)
#
#
# Indices 1 2 3 4 5 6 
#
# 1 0.016230 0.002931 -0.016207 0.000000 0.000000 0.000000
# 2 0.002931 0.008838 -0.009660 0.000000 0.000000 0.000000
# 3 -0.016207 -0.009660 0.048542 0.000000 0.000000 0.000000
# 4 0.000000 0.000000 0.000000 0.045980 0.000000 0.000000
# 5 0.000000 0.000000 0.000000 0.000000 0.045987 0.000000
# 6 0.000000 0.000000 0.000000 0.000000 0.000000 0.035384
#
#
# Mechanical properties :
#
#
# Convention : Reuss Voigt Hill
#
# Bulk Modulus (GPa) = 36.05101 45.10586 40.57844
# Shear Modulus (GPa) = 19.52519 28.26765 23.89642
#
# Velocity S-wave (km/s) = 3.08385 3.71057 3.41163
# Velocity P-wave (km/s) = 5.49905 6.35039 5.93999
#
# Compressibility (1/GPa) = 0.02773847
#
# Stress axis : x y z
#
# Youngs Moduli (GPa) = 61.61269 113.15299 20.60053
#
# Poissons Ratio (x) = -0.33170 0.33388
# Poissons Ratio (y) = -0.18061 0.19900
# Poissons Ratio (z) = 0.99858 1.09306
#
# Static dielectric constant tensor:
#      x y z
#    x 1.809100 0.000000 0.000000 
#    y 0.000000 1.734220 0.000000 
#    z 0.000000 0.000000 1.778950 
# 
# From -- ./inp_files/23926.got.cif
#   From: 2010.05.17/outbox.cif.g08.bks.cpg/sg64_12_cif.got.tgz:23926.got - 2010.06.03 16:29:19.
