data_PCOD9480012
_publ_section_title
;
Structure prediction by ZEFSAII (Michael W. Deem and Ramdas Pophale) SiO2 
 PCOD9480012
Probable space group: C M C A
;
_chemical_formula_sum "Si O2"
_cell_formula_units_Z 64
_cell_length_a 13.612013
_cell_length_b 9.328176
_cell_length_c 21.912709
_cell_angle_alpha 90.000000
_cell_angle_beta 90.000000
_cell_angle_gamma 90.000000
_cell_volume 2782.371769
_symmetry_space_group_name_H-M "C M C A"
_symmetry_group_IT_number 64
_symmetry_cell_setting 'orthorhombic'
loop_
_space_group_symop_operation_xyz
x,y,z
-x,1/2-y,1/2+z
x,-y,-z
-x,1/2+y,1/2-z
-x,-y,-z
x,1/2+y,1/2-z
-x,y,z
x,1/2-y,1/2+z
1/2+x,1/2+y,z
1/2-x,-y,1/2+z
1/2+x,1/2-y,-z
1/2-x,y,1/2-z
1/2-x,1/2-y,-z
1/2+x,y,1/2-z
1/2-x,1/2+y,z
1/2+x,-y,1/2+z
loop_
_atom_site_type_symbol
_atom_site_label
_atom_site_fract_x
_atom_site_fract_y
_atom_site_fract_z
Si Si1 0.614120 0.079173 0.442110
Si Si2 0.889363 0.673706 0.244191
Si Si3 0.610945 0.352952 0.369441
Si Si4 0.189115 0.569920 0.671857
O O1 0.500000 0.105511 0.456625
O O2 0.620538 0.973402 0.384361
O O3 0.661264 0.000000 0.500000
O O4 0.648388 0.235085 0.418701
O O5 0.898564 0.768301 0.305599
O O6 0.827848 0.768754 0.196323
O O7 0.844111 0.529375 0.271843
O O8 0.000000 0.647289 0.220721
O O9 0.500000 0.404103 0.385104
O O10 0.701803 0.456720 0.355220
#
# Coordination Sequence:
#
# PCOD9480012 Si02
#       4
#    16  16  16  16
#     4   9  19  38  62  88 120 159 204 255 314 375
#     4  10  21  38  59  87 121 155 199 251 308 370
#     4   9  20  36  56  84 119 159 201 247 298 363
#     4  11  21  36  61  90 123 163 202 248 307 368
#
# _framework density 23.001957999999998
#
# number of rings (size 3 to 8) (size 9 to 14) (size 15 to 20)
#    0.000    2.250    0.000    4.500    0.000    9.000 
#    0.000    6.250    0.000   12.750    0.000    0.000 
#    0.000   24.000    0.000    0.000    0.000    0.000 
#
# Total GULP energy -178503.996791 kJ/mol
# GULP energy per Si atom -5578.249900 kJ/mol
# Density = 2.294960 g / cm^3
# Si number density = 23.001958 Si / 1000 Ang^3
#
#
#
# Elastic Constant Matrix: (Units=GPa)
#
#
# Indices 1 2 3 4 5 6 
#
# 1 124.4116 15.2690 -26.2161 0.0000 0.0000 0.0000
# 2 15.2690 88.8344 5.1287 0.0000 0.0000 0.0000
# 3 -26.2161 5.1287 48.2602 0.0000 0.0000 0.0000
# 4 0.0000 0.0000 0.0000 17.6874 0.0000 0.0000
# 5 0.0000 0.0000 0.0000 0.0000 18.3198 0.0000
# 6 0.0000 0.0000 0.0000 0.0000 0.0000 24.4373
#
#
#
# Elastic Compliance Matrix: (Units=1/GPa)
#
#
# Indices 1 2 3 4 5 6 
#
# 1 0.009392 -0.001921 0.005306 0.000000 0.000000 0.000000
# 2 -0.001921 0.011719 -0.002289 0.000000 0.000000 0.000000
# 3 0.005306 -0.002289 0.023846 0.000000 0.000000 0.000000
# 4 0.000000 0.000000 0.000000 0.056537 0.000000 0.000000
# 5 0.000000 0.000000 0.000000 0.000000 0.054586 0.000000
# 6 0.000000 0.000000 0.000000 0.000000 0.000000 0.040921
#
#
# Mechanical properties :
#
#
# Convention : Reuss Voigt Hill
#
# Bulk Modulus (GPa) = 21.20876 27.76327 24.48601
# Shear Modulus (GPa) = 23.75013 29.91054 26.83033
#
# Velocity S-wave (km/s) = 3.21678 3.60994 3.41902
# Velocity P-wave (km/s) = 4.79972 5.42879 5.12392
#
# Compressibility (1/GPa) = 0.04715033
#
# Stress axis : x y z
#
# Youngs Moduli (GPa) = 106.47813 85.33043 41.93492
#
# Poissons Ratio (x) = 0.16388 -0.22250
# Poissons Ratio (y) = 0.20450 0.09598
# Poissons Ratio (z) = -0.56496 0.19530
#
# Static dielectric constant tensor:
#      x y z
#    x 1.985010 0.000000 0.000000 
#    y 0.000000 1.917540 0.000000 
#    z 0.000000 0.000000 1.869790 
# 
# From -- ./inp_files/44786.got.cif
#   From: 2010.05.17/outbox.cif.g08.bks.cpg/sg64_23_cif.got.tgz:44786.got - 2010.06.03 16:29:19.
