data_PCOD9480677
_publ_section_title
;
Structure prediction by ZEFSAII (Michael W. Deem and Ramdas Pophale) SiO2 
 PCOD9480677
Probable space group: C M C A
;
_chemical_formula_sum "Si O2"
_cell_formula_units_Z 52
_cell_length_a 14.872598
_cell_length_b 8.192846
_cell_length_c 19.712378
_cell_angle_alpha 90.000000
_cell_angle_beta 90.000000
_cell_angle_gamma 90.000000
_cell_volume 2401.931675
_symmetry_space_group_name_H-M "C M C A"
_symmetry_group_IT_number 64
_symmetry_cell_setting 'orthorhombic'
loop_
_space_group_symop_operation_xyz
x,y,z
-x,1/2-y,1/2+z
x,-y,-z
-x,1/2+y,1/2-z
-x,-y,-z
x,1/2+y,1/2-z
-x,y,z
x,1/2-y,1/2+z
1/2+x,1/2+y,z
1/2-x,-y,1/2+z
1/2+x,1/2-y,-z
1/2-x,y,1/2-z
1/2-x,1/2-y,-z
1/2+x,y,1/2-z
1/2-x,1/2+y,z
1/2+x,-y,1/2+z
loop_
_atom_site_type_symbol
_atom_site_label
_atom_site_fract_x
_atom_site_fract_y
_atom_site_fract_z
Si Si1 0.000000 0.501571 0.716259
Si Si2 0.137184 0.365525 0.615902
Si Si3 0.000000 0.000000 0.000000
Si Si4 0.830781 0.007595 0.419325
Si Si5 0.500000 0.148941 0.145517
O O1 0.912947 0.412249 0.685175
O O2 0.000000 0.682285 0.685697
O O3 0.000000 0.489226 0.796730
O O4 0.078023 0.441505 0.555050
O O5 0.142526 0.171948 0.605481
O O6 0.237663 0.435244 0.612921
O O7 0.819770 0.000000 0.500000
O O8 0.911924 0.129433 0.400439
#
# Coordination Sequence:
#
# PCOD9480677 Si02
#       5
#     8  16   4  16   8
#     4  11  26  47  69  98 133 183 226 280 335 398
#     4  11  24  42  68  98 140 172 228 273 336 393
#     4  10  22  38  64  92 138 168 212 270 326 390
#     4  12  25  42  68 104 137 179 223 278 337 402
#     4  12  26  45  70  97 137 178 228 275 338 401
#
# _framework density 21.649241
#
# number of rings (size 3 to 8) (size 9 to 14) (size 15 to 20)
#    0.000    0.615    1.538    6.923    8.615    1.231 
#    0.000    6.154    0.000    0.000    0.000    0.000 
#    0.000    0.000    0.000    0.000    0.000    0.000 
#
# Total GULP energy -145165.039684 kJ/mol
# GULP energy per Si atom -5583.270757 kJ/mol
# Density = 2.159997 g / cm^3
# Si number density = 21.649241 Si / 1000 Ang^3
#
#
#
# Elastic Constant Matrix: (Units=GPa)
#
#
# Indices 1 2 3 4 5 6 
#
# 1 175.2188 9.9448 21.1191 0.0000 0.0000 0.0000
# 2 9.9448 71.7625 -5.9886 0.0000 0.0000 0.0000
# 3 21.1191 -5.9886 52.8034 0.0000 0.0000 0.0000
# 4 0.0000 0.0000 0.0000 30.3520 0.0000 0.0000
# 5 0.0000 0.0000 0.0000 0.0000 -0.8558 0.0000
# 6 0.0000 0.0000 0.0000 0.0000 0.0000 10.1130
#
#
#
# Elastic Compliance Matrix: (Units=1/GPa)
#
#
# Indices 1 2 3 4 5 6 
#
# 1 0.006074 -0.001054 -0.002549 0.000000 0.000000 0.000000
# 2 -0.001054 0.014251 0.002038 0.000000 0.000000 0.000000
# 3 -0.002549 0.002038 0.020189 0.000000 0.000000 0.000000
# 4 0.000000 0.000000 0.000000 0.032947 0.000000 0.000000
# 5 0.000000 0.000000 0.000000 0.000000 -1.168507 0.000000
# 6 0.000000 0.000000 0.000000 0.000000 0.000000 0.098883
#
#
# Mechanical properties :
#
#
# Convention : Reuss Voigt Hill
#
# Bulk Modulus (GPa) = 26.75007 38.88171 32.81589
# Shear Modulus (GPa) = -5.09907 26.23579 10.56836
#
# Velocity S-wave (km/s) = -1.53637 3.48495 2.21184
# Velocity P-wave (km/s) = 3.03903 5.84739 4.65981
#
# Compressibility (1/GPa) = 0.03738308
#
# Stress axis : x y z
#
# Youngs Moduli (GPa) = 164.62988 70.17023 49.53238
#
# Poissons Ratio (x) = 0.07399 0.12626
# Poissons Ratio (y) = 0.17360 -0.10095
# Poissons Ratio (z) = 0.41965 -0.14301
#
# Static dielectric constant tensor:
#      x y z
#    x 1.744990 0.000000 0.000000 
#    y 0.000000 1.824030 0.000000 
#    z 0.000000 0.000000 1.747520 
# 
# From -- ./inp_files/38735.got.cif
#   From: 2010.05.17/outbox.cif.g08.bks.cpg/sg64_20_cif.got.tgz:38735.got - 2010.06.03 16:29:19.
