data_PCOD9480942
_publ_section_title
;
Structure prediction by ZEFSAII (Michael W. Deem and Ramdas Pophale) SiO2 
 PCOD9480942
Probable space group: C M C A
;
_chemical_formula_sum "Si O2"
_cell_formula_units_Z 88
_cell_length_a 15.312561
_cell_length_b 28.503121
_cell_length_c 9.208936
_cell_angle_alpha 90.000000
_cell_angle_beta 90.000000
_cell_angle_gamma 90.000000
_cell_volume 4019.293336
_symmetry_space_group_name_H-M "C M C A"
_symmetry_group_IT_number 64
_symmetry_cell_setting 'orthorhombic'
loop_
_space_group_symop_operation_xyz
x,y,z
-x,1/2-y,1/2+z
x,-y,-z
-x,1/2+y,1/2-z
-x,-y,-z
x,1/2+y,1/2-z
-x,y,z
x,1/2-y,1/2+z
1/2+x,1/2+y,z
1/2-x,-y,1/2+z
1/2+x,1/2-y,-z
1/2-x,y,1/2-z
1/2-x,1/2-y,-z
1/2+x,y,1/2-z
1/2-x,1/2+y,z
1/2+x,-y,1/2+z
loop_
_atom_site_type_symbol
_atom_site_label
_atom_site_fract_x
_atom_site_fract_y
_atom_site_fract_z
Si Si1 0.395799 0.432490 0.356869
Si Si2 0.106260 0.894267 0.676388
Si Si3 0.820160 0.214926 0.935821
Si Si4 0.393802 0.019076 0.344864
Si Si5 0.250000 0.134754 0.750000
Si Si6 0.898856 0.292518 0.739430
O O1 0.500000 0.425254 0.335882
O O2 0.376707 0.421047 0.525085
O O3 0.374891 0.483128 0.287146
O O4 0.335374 0.396224 0.272721
O O5 0.137603 0.929000 0.803635
O O6 0.138845 0.840828 0.691500
O O7 0.000000 0.891515 0.687202
O O8 0.772436 0.168590 0.882964
O O9 0.859951 0.244424 0.802456
O O10 0.750000 0.250000 0.000000
O O11 0.886251 0.204848 0.066667
O O12 0.500000 0.021049 0.354161
O O13 0.361542 0.000000 0.500000
O O14 0.000000 0.291180 0.777571
#
# Coordination Sequence:
#
# PCOD9480942 Si02
#       6
#    16  16  16  16   8  16
#     4  10  22  41  67  93 130 176 217 267 326 394
#     4   9  19  37  64  97 128 169 217 264 326 396
#     4  12  24  45  63  90 133 176 213 279 342 386
#     4   9  18  35  62  96 133 170 213 269 329 386
#     4  12  26  42  68  96 134 166 230 270 328 402
#     4  11  24  41  68  99 128 171 228 274 334 407
#
# _framework density 21.894396
#
# number of rings (size 3 to 8) (size 9 to 14) (size 15 to 20)
#    0.000    1.636    1.818    2.182    2.545    3.636 
#    0.000    1.818    4.000    0.000    0.000    0.000 
#    0.000    0.000    0.000    0.000    0.000    0.000 
#
# Total GULP energy -245743.907755 kJ/mol
# GULP energy per Si atom -5585.088813 kJ/mol
# Density = 2.184456 g / cm^3
# Si number density = 21.894396 Si / 1000 Ang^3
#
#
#
# Elastic Constant Matrix: (Units=GPa)
#
#
# Indices 1 2 3 4 5 6 
#
# 1 26.9146 15.7652 0.8531 0.0000 0.0000 0.0000
# 2 15.7652 97.5648 11.7628 0.0000 0.0000 0.0000
# 3 0.8531 11.7628 61.2884 0.0000 0.0000 0.0000
# 4 0.0000 0.0000 0.0000 37.9998 0.0000 0.0000
# 5 0.0000 0.0000 0.0000 0.0000 28.2134 0.0000
# 6 0.0000 0.0000 0.0000 0.0000 0.0000 19.8879
#
#
#
# Elastic Compliance Matrix: (Units=1/GPa)
#
#
# Indices 1 2 3 4 5 6 
#
# 1 0.041070 -0.006723 0.000719 0.000000 0.000000 0.000000
# 2 -0.006723 0.011593 -0.002131 0.000000 0.000000 0.000000
# 3 0.000719 -0.002131 0.016715 0.000000 0.000000 0.000000
# 4 0.000000 0.000000 0.000000 0.026316 0.000000 0.000000
# 5 0.000000 0.000000 0.000000 0.000000 0.035444 0.000000
# 6 0.000000 0.000000 0.000000 0.000000 0.000000 0.050282
#
#
# Mechanical properties :
#
#
# Convention : Reuss Voigt Hill
#
# Bulk Modulus (GPa) = 18.83005 26.94776 22.88890
# Shear Modulus (GPa) = 23.21333 27.71269 25.46301
#
# Velocity S-wave (km/s) = 3.25967 3.56159 3.41397
# Velocity P-wave (km/s) = 4.77350 5.40814 5.10070
#
# Compressibility (1/GPa) = 0.05310662
#
# Stress axis : x y z
#
# Youngs Moduli (GPa) = 24.34879 86.25959 59.82523
#
# Poissons Ratio (x) = 0.57992 -0.04299
# Poissons Ratio (y) = 0.16370 0.12751
# Poissons Ratio (z) = -0.01750 0.18385
#
# Static dielectric constant tensor:
#      x y z
#    x 1.920070 0.000000 0.000000 
#    y 0.000000 2.091410 0.000000 
#    z 0.000000 0.000000 1.826520 
# 
# From -- ./inp_files/7323.got.cif
#   From: 2010.05.17/outbox.cif.g08.bks.cpg/sg64_4_cif.got.tgz:7323.got - 2010.06.03 16:29:19.
