data_PCOD9480213
_publ_section_title
;
Structure prediction by ZEFSAII (Michael W. Deem and Ramdas Pophale) SiO2 
 PCOD9480213
Probable space group: C M C A
;
_chemical_formula_sum "Si O2"
_cell_formula_units_Z 48
_cell_length_a 14.175333
_cell_length_b 28.274155
_cell_length_c 5.218733
_cell_angle_alpha 90.000000
_cell_angle_beta 90.000000
_cell_angle_gamma 90.000000
_cell_volume 2091.645028
_symmetry_space_group_name_H-M "C M C A"
_symmetry_group_IT_number 64
_symmetry_cell_setting 'orthorhombic'
loop_
_space_group_symop_operation_xyz
x,y,z
-x,1/2-y,1/2+z
x,-y,-z
-x,1/2+y,1/2-z
-x,-y,-z
x,1/2+y,1/2-z
-x,y,z
x,1/2-y,1/2+z
1/2+x,1/2+y,z
1/2-x,-y,1/2+z
1/2+x,1/2-y,-z
1/2-x,y,1/2-z
1/2-x,1/2-y,-z
1/2+x,y,1/2-z
1/2-x,1/2+y,z
1/2+x,-y,1/2+z
loop_
_atom_site_type_symbol
_atom_site_label
_atom_site_fract_x
_atom_site_fract_y
_atom_site_fract_z
Si Si1 0.000000 0.385145 0.310178
Si Si2 0.293667 0.197444 0.008424
Si Si3 0.500000 0.822905 0.824508
Si Si4 0.362024 0.530420 0.754337
O O1 0.910561 0.419525 0.307542
O O2 0.000000 0.344618 0.534576
O O3 0.000000 0.365254 0.024262
O O4 0.250000 0.175458 0.750000
O O5 0.250000 0.170402 0.250000
O O6 0.250000 0.250000 0.000000
O O7 0.403753 0.203184 0.084373
O O8 0.388452 0.500000 0.500000
O O9 0.250000 0.536626 0.750000
O O10 0.388051 0.500000 0.000000
#
# Coordination Sequence:
#
# PCOD9480213 Si02
#       4
#     8  16   8  16
#     4  12  24  39  63  94 136 168 206 276 334 381
#     4  10  23  43  68  92 123 168 218 272 326 401
#     4  12  26  41  63 100 132 168 216 274 342 389
#     4  10  21  39  63  90 124 174 225 261 309 388
#
# _framework density 22.948446000000001
#
# number of rings (size 3 to 8) (size 9 to 14) (size 15 to 20)
#    0.000    1.333    0.000    5.000    0.000    9.333 
#    0.000    0.000    0.000    0.000    0.000    0.000 
#    0.000    0.000    0.000    0.000    0.000    0.000 
#
# Total GULP energy -133751.276957 kJ/mol
# GULP energy per Si atom -5572.969873 kJ/mol
# Density = 2.289621 g / cm^3
# Si number density = 22.948446 Si / 1000 Ang^3
#
#
#
# Elastic Constant Matrix: (Units=GPa)
#
#
# Indices 1 2 3 4 5 6 
#
# 1 184.4701 16.1185 22.3414 0.0000 0.0000 0.0000
# 2 16.1185 40.8634 -9.6838 0.0000 0.0000 0.0000
# 3 22.3414 -9.6838 180.3345 0.0000 0.0000 0.0000
# 4 0.0000 0.0000 0.0000 24.3938 0.0000 0.0000
# 5 0.0000 0.0000 0.0000 0.0000 -22.2783 0.0000
# 6 0.0000 0.0000 0.0000 0.0000 0.0000 7.2916
#
#
#
# Elastic Compliance Matrix: (Units=1/GPa)
#
#
# Indices 1 2 3 4 5 6 
#
# 1 0.005738 -0.002463 -0.000843 0.000000 0.000000 0.000000
# 2 -0.002463 0.025845 0.001693 0.000000 0.000000 0.000000
# 3 -0.000843 0.001693 0.005741 0.000000 0.000000 0.000000
# 4 0.000000 0.000000 0.000000 0.040994 0.000000 0.000000
# 5 0.000000 0.000000 0.000000 0.000000 -0.044887 0.000000
# 6 0.000000 0.000000 0.000000 0.000000 0.000000 0.137144
#
#
# Mechanical properties :
#
#
# Convention : Reuss Voigt Hill
#
# Bulk Modulus (GPa) = 29.32839 51.46889 40.39864
# Shear Modulus (GPa) = 27.00262 27.00754 27.00508
#
# Velocity S-wave (km/s) = 3.43398 3.43429 3.43413
# Velocity P-wave (km/s) = 5.34142 6.18082 5.77639
#
# Compressibility (1/GPa) = 0.03409666
#
# Stress axis : x y z
#
# Youngs Moduli (GPa) = 174.26808 38.69274 174.19701
#
# Poissons Ratio (x) = 0.09531 0.14688
# Poissons Ratio (y) = 0.42927 -0.29492
# Poissons Ratio (z) = 0.14694 -0.06551
#
# Static dielectric constant tensor:
#      x y z
#    x 1.843430 0.000000 0.000000 
#    y 0.000000 2.030130 0.000000 
#    z 0.000000 0.000000 2.040440 
# 
# From -- ./inp_files/769.got.cif
#   From: 2010.05.17/outbox.cif.g08.bks.cpg/sg64_1_cif.got.tgz:769.got - 2010.06.03 16:29:19.
