data_PCOD9480086
_publ_section_title
;
Structure prediction by ZEFSAII (Michael W. Deem and Ramdas Pophale) SiO2 
 PCOD9480086
Probable space group: C M C A
;
_chemical_formula_sum "Si O2"
_cell_formula_units_Z 64
_cell_length_a 25.672236
_cell_length_b 5.282981
_cell_length_c 23.722868
_cell_angle_alpha 90.000000
_cell_angle_beta 90.000000
_cell_angle_gamma 90.000000
_cell_volume 3217.436154
_symmetry_space_group_name_H-M "C M C A"
_symmetry_group_IT_number 64
_symmetry_cell_setting 'orthorhombic'
loop_
_space_group_symop_operation_xyz
x,y,z
-x,1/2-y,1/2+z
x,-y,-z
-x,1/2+y,1/2-z
-x,-y,-z
x,1/2+y,1/2-z
-x,y,z
x,1/2-y,1/2+z
1/2+x,1/2+y,z
1/2-x,-y,1/2+z
1/2+x,1/2-y,-z
1/2-x,y,1/2-z
1/2-x,1/2-y,-z
1/2+x,y,1/2-z
1/2-x,1/2+y,z
1/2+x,-y,1/2+z
loop_
_atom_site_type_symbol
_atom_site_label
_atom_site_fract_x
_atom_site_fract_y
_atom_site_fract_z
Si Si1 0.059090 0.895259 0.063346
Si Si2 0.387002 0.895416 0.099709
Si Si3 0.560015 0.487477 0.712681
Si Si4 0.270877 0.283532 0.435307
O O1 0.083440 0.617123 0.065754
O O2 0.000000 0.882574 0.084078
O O3 0.089387 0.113618 0.096488
O O4 0.059307 0.000000 0.000000
O O5 0.397409 0.983185 0.163686
O O6 0.329458 0.875250 0.073695
O O7 0.565170 0.219805 0.743928
O O8 0.500000 0.504054 0.689895
O O9 0.250000 0.250000 0.500000
O O10 0.235600 0.505355 0.409742
#
# Coordination Sequence:
#
# PCOD9480086 Si02
#       4
#    16  16  16  16
#     4  11  24  37  56  91 130 165 202 242 306 399
#     4  12  23  39  66  86 126 171 205 257 322 370
#     4  10  21  38  62  92 123 158 207 257 307 379
#     4  10  23  39  60  88 117 158 215 263 305 363
#
# _framework density 19.891614000000001
#
# number of rings (size 3 to 8) (size 9 to 14) (size 15 to 20)
#    0.000    1.250    0.000    6.000   10.500    4.000 
#    0.000    0.000    0.000    4.500    0.000    0.000 
#    0.000    0.000    0.000    0.000    0.000    0.000 
#
# Total GULP energy -178574.830266 kJ/mol
# GULP energy per Si atom -5580.463446 kJ/mol
# Density = 1.984634 g / cm^3
# Si number density = 19.891614 Si / 1000 Ang^3
#
#
#
# Elastic Constant Matrix: (Units=GPa)
#
#
# Indices 1 2 3 4 5 6 
#
# 1 121.0211 23.1460 26.2483 0.0000 0.0000 0.0000
# 2 23.1460 114.0756 2.8731 0.0000 0.0000 0.0000
# 3 26.2483 2.8731 62.4266 0.0000 0.0000 0.0000
# 4 0.0000 0.0000 0.0000 33.3487 0.0000 0.0000
# 5 0.0000 0.0000 0.0000 0.0000 -70.9053 0.0000
# 6 0.0000 0.0000 0.0000 0.0000 0.0000 -125.7082
#
#
#
# Elastic Compliance Matrix: (Units=1/GPa)
#
#
# Indices 1 2 3 4 5 6 
#
# 1 0.009455 -0.001820 -0.003892 0.000000 0.000000 0.000000
# 2 -0.001820 0.009127 0.000345 0.000000 0.000000 0.000000
# 3 -0.003892 0.000345 0.017639 0.000000 0.000000 0.000000
# 4 0.000000 0.000000 0.000000 0.029986 0.000000 0.000000
# 5 0.000000 0.000000 0.000000 0.000000 -0.014103 0.000000
# 6 0.000000 0.000000 0.000000 0.000000 0.000000 -0.007955
#
#
# Mechanical properties :
#
#
# Convention : Reuss Voigt Hill
#
# Bulk Modulus (GPa) = 39.23484 44.67313 41.95398
# Shear Modulus (GPa) = 78.89040 -16.30258 31.29391
#
# Velocity S-wave (km/s) = 6.30446 -2.86592 3.97069
# Velocity P-wave (km/s) = 8.53007 3.39937 6.49299
#
# Compressibility (1/GPa) = 0.02548755
#
# Stress axis : x y z
#
# Youngs Moduli (GPa) = 105.76077 109.56749 56.69152
#
# Poissons Ratio (x) = 0.19946 0.22064
# Poissons Ratio (y) = 0.19253 -0.01958
# Poissons Ratio (z) = 0.41161 -0.03784
#
# Static dielectric constant tensor:
#      x y z
#    x 1.722860 0.000000 0.000000 
#    y 0.000000 1.677460 0.000000 
#    z 0.000000 0.000000 1.696050 
# 
# From -- ./inp_files/41241.got.cif
#   From: 2010.05.17/outbox.cif.g08.bks.cpg/sg64_21_cif.got.tgz:41241.got - 2010.06.03 16:29:19.
