data_PCOD9480551
_publ_section_title
;
Structure prediction by ZEFSAII (Michael W. Deem and Ramdas Pophale) SiO2 
 PCOD9480551
Probable space group: C M C A
;
_chemical_formula_sum "Si O2"
_cell_formula_units_Z 56
_cell_length_a 17.742011
_cell_length_b 5.123922
_cell_length_c 26.437440
_cell_angle_alpha 90.000000
_cell_angle_beta 90.000000
_cell_angle_gamma 90.000000
_cell_volume 2403.392786
_symmetry_space_group_name_H-M "C M C A"
_symmetry_group_IT_number 64
_symmetry_cell_setting 'orthorhombic'
loop_
_space_group_symop_operation_xyz
x,y,z
-x,1/2-y,1/2+z
x,-y,-z
-x,1/2+y,1/2-z
-x,-y,-z
x,1/2+y,1/2-z
-x,y,z
x,1/2-y,1/2+z
1/2+x,1/2+y,z
1/2-x,-y,1/2+z
1/2+x,1/2-y,-z
1/2-x,y,1/2-z
1/2-x,1/2-y,-z
1/2+x,y,1/2-z
1/2-x,1/2+y,z
1/2+x,-y,1/2+z
loop_
_atom_site_type_symbol
_atom_site_label
_atom_site_fract_x
_atom_site_fract_y
_atom_site_fract_z
Si Si1 0.914556 0.873182 0.125494
Si Si2 0.301148 0.410877 0.945780
Si Si3 0.500000 0.757799 0.965525
Si Si4 0.408502 0.955637 0.777804
O O1 0.888331 0.685181 0.169953
O O2 0.000000 0.980337 0.138600
O O3 0.931472 0.718654 0.073885
O O4 0.854270 0.071762 0.103589
O O5 0.234585 0.625235 0.944416
O O6 0.337653 0.500000 0.000000
O O7 0.500000 0.500000 0.000000
O O8 0.500000 0.000000 0.000000
O O9 0.383716 0.749118 0.734385
O O10 0.500000 0.964333 0.777553
#
# Coordination Sequence:
#
# PCOD9480551 Si02
#       4
#    16  16   8  16
#     4   9  21  39  60  90 112 157 192 245 291 338
#     4  10  22  39  58  82 117 157 192 230 287 353
#     4  10  22  34  52  84 116 140 182 236 278 324
#     4   9  18  33  54  82 113 143 187 239 289 342
#
# _framework density 23.300395000000002
#
# number of rings (size 3 to 8) (size 9 to 14) (size 15 to 20)
#    0.857    1.714    0.000    0.857    0.000   10.286 
#    0.000    0.000    0.000    5.143    0.000    0.000 
#    0.000    0.000    0.000    0.000    0.000    0.000 
#
# Total GULP energy -156016.319257 kJ/mol
# GULP energy per Si atom -5572.011402 kJ/mol
# Density = 2.324736 g / cm^3
# Si number density = 23.300395 Si / 1000 Ang^3
#
#
#
# Elastic Constant Matrix: (Units=GPa)
#
#
# Indices 1 2 3 4 5 6 
#
# 1 33.3824 2.2312 -1.7261 0.0000 0.0000 0.0000
# 2 2.2312 96.3175 8.3214 0.0000 0.0000 0.0000
# 3 -1.7261 8.3214 77.6454 0.0000 0.0000 0.0000
# 4 0.0000 0.0000 0.0000 31.8285 0.0000 0.0000
# 5 0.0000 0.0000 0.0000 0.0000 22.3569 0.0000
# 6 0.0000 0.0000 0.0000 0.0000 0.0000 10.1689
#
#
#
# Elastic Compliance Matrix: (Units=1/GPa)
#
#
# Indices 1 2 3 4 5 6 
#
# 1 0.030046 -0.000761 0.000749 0.000000 0.000000 0.000000
# 2 -0.000761 0.010499 -0.001142 0.000000 0.000000 0.000000
# 3 0.000749 -0.001142 0.013018 0.000000 0.000000 0.000000
# 4 0.000000 0.000000 0.000000 0.031418 0.000000 0.000000
# 5 0.000000 0.000000 0.000000 0.000000 0.044729 0.000000
# 6 0.000000 0.000000 0.000000 0.000000 0.000000 0.098339
#
#
# Mechanical properties :
#
#
# Convention : Reuss Voigt Hill
#
# Bulk Modulus (GPa) = 19.51008 24.99979 22.25493
# Shear Modulus (GPa) = 20.20686 26.10544 23.15615
#
# Velocity S-wave (km/s) = 2.94808 3.35085 3.15589
# Velocity P-wave (km/s) = 4.46986 5.07184 4.78034
#
# Compressibility (1/GPa) = 0.05125557
#
# Stress axis : x y z
#
# Youngs Moduli (GPa) = 33.28283 95.25056 76.81601
#
# Poissons Ratio (x) = 0.07246 -0.05757
# Poissons Ratio (y) = 0.02532 0.08773
# Poissons Ratio (z) = -0.02494 0.10878
#
# Static dielectric constant tensor:
#      x y z
#    x 2.051680 0.000000 0.000000 
#    y 0.000000 1.867080 0.000000 
#    z 0.000000 0.000000 1.941370 
# 
# From -- ./inp_files/46082.got.cif
#   From: 2010.05.17/outbox.cif.g08.bks.cpg/sg64_24_cif.got.tgz:46082.got - 2010.06.03 16:29:19.
