data_PCOD9480447
_publ_section_title
;
Structure prediction by ZEFSAII (Michael W. Deem and Ramdas Pophale) SiO2 
 PCOD9480447
Probable space group: C M C A
;
_chemical_formula_sum "Si O2"
_cell_formula_units_Z 112
_cell_length_a 15.120643
_cell_length_b 23.281680
_cell_length_c 15.861461
_cell_angle_alpha 90.000000
_cell_angle_beta 90.000000
_cell_angle_gamma 90.000000
_cell_volume 5583.773113
_symmetry_space_group_name_H-M "C M C A"
_symmetry_group_IT_number 64
_symmetry_cell_setting 'orthorhombic'
loop_
_space_group_symop_operation_xyz
x,y,z
-x,1/2-y,1/2+z
x,-y,-z
-x,1/2+y,1/2-z
-x,-y,-z
x,1/2+y,1/2-z
-x,y,z
x,1/2-y,1/2+z
1/2+x,1/2+y,z
1/2-x,-y,1/2+z
1/2+x,1/2-y,-z
1/2-x,y,1/2-z
1/2-x,1/2-y,-z
1/2+x,y,1/2-z
1/2-x,1/2+y,z
1/2+x,-y,1/2+z
loop_
_atom_site_type_symbol
_atom_site_label
_atom_site_fract_x
_atom_site_fract_y
_atom_site_fract_z
Si Si1 0.100951 0.927758 0.729629
Si Si2 0.599562 0.319368 0.605141
Si Si3 0.105952 0.240480 0.746990
Si Si4 0.607195 0.848031 0.627925
Si Si5 0.241091 0.318445 0.489210
Si Si6 0.892961 0.481402 0.094509
Si Si7 0.695623 0.127435 0.826171
O O1 0.094641 0.870805 0.672107
O O2 0.139165 0.902968 0.816982
O O3 0.140452 0.975414 0.668092
O O4 0.000000 0.946424 0.749352
O O5 0.500000 0.308969 0.572162
O O6 0.630622 0.264658 0.660510
O O7 0.668133 0.337610 0.534878
O O8 0.131147 0.290407 0.680520
O O9 0.143645 0.180222 0.717135
O O10 0.000000 0.237901 0.747369
O O11 0.500000 0.850068 0.621075
O O12 0.657542 0.841859 0.540589
O O13 0.250000 0.250000 0.500000
O O14 0.242555 0.342920 0.395873
O O15 0.863166 0.418760 0.124647
O O16 0.000000 0.484869 0.093202
O O17 0.863451 0.500000 0.000000
O O18 0.750000 0.099120 0.750000
#
# Coordination Sequence:
#
# PCOD9480447 Si02
#       7
#    16  16  16  16  16  16  16
#     4   8  16  35  62  88 114 148 194 248 306 359
#     4   9  19  35  59  92 121 151 194 242 300 365
#     4   9  18  35  59  86 122 163 194 237 303 365
#     4   9  19  37  60  89 121 156 206 256 298 357
#     4  12  23  36  57  89 121 163 206 248 302 358
#     4  10  21  41  66  89 116 156 208 261 311 368
#     4  12  25  40  55  83 129 162 197 250 311 379
#
# _framework density 20.058121
#
# number of rings (size 3 to 8) (size 9 to 14) (size 15 to 20)
#    0.000    2.143    1.429    3.857    0.000    4.571 
#    5.143    1.429    0.000    0.000    0.000    3.000 
#    0.000    0.000    0.000    0.000    0.000    0.000 
#
# Total GULP energy -312331.165993 kJ/mol
# GULP energy per Si atom -5577.342250 kJ/mol
# Density = 2.001247 g / cm^3
# Si number density = 20.058121 Si / 1000 Ang^3
#
#
#
# Elastic Constant Matrix: (Units=GPa)
#
#
# Indices 1 2 3 4 5 6 
#
# 1 41.5798 10.3932 32.8805 0.0000 0.0000 0.0000
# 2 10.3932 94.8535 35.0545 0.0000 0.0000 0.0000
# 3 32.8805 35.0545 104.1374 0.0000 0.0000 0.0000
# 4 0.0000 0.0000 0.0000 31.7083 0.0000 0.0000
# 5 0.0000 0.0000 0.0000 0.0000 130.8588 0.0000
# 6 0.0000 0.0000 0.0000 0.0000 0.0000 18.8682
#
#
#
# Elastic Compliance Matrix: (Units=1/GPa)
#
#
# Indices 1 2 3 4 5 6 
#
# 1 0.032059 0.000261 -0.010210 0.000000 0.000000 0.000000
# 2 0.000261 0.012043 -0.004136 0.000000 0.000000 0.000000
# 3 -0.010210 -0.004136 0.014219 0.000000 0.000000 0.000000
# 4 0.000000 0.000000 0.000000 0.031537 0.000000 0.000000
# 5 0.000000 0.000000 0.000000 0.000000 0.007642 0.000000
# 6 0.000000 0.000000 0.000000 0.000000 0.000000 0.052999
#
#
# Mechanical properties :
#
#
# Convention : Reuss Voigt Hill
#
# Bulk Modulus (GPa) = 33.16844 44.13633 38.65239
# Shear Modulus (GPa) = 26.49438 47.10324 36.79881
#
# Velocity S-wave (km/s) = 3.63833 4.85122 4.28788
# Velocity P-wave (km/s) = 5.84996 7.30966 6.62016
#
# Compressibility (1/GPa) = 0.03014914
#
# Stress axis : x y z
#
# Youngs Moduli (GPa) = 31.19258 83.03891 70.33005
#
# Poissons Ratio (x) = -0.02163 0.71807
# Poissons Ratio (y) = -0.00813 0.29088
# Poissons Ratio (z) = 0.31848 0.34345
#
# Static dielectric constant tensor:
#      x y z
#    x 1.736260 0.000000 0.000000 
#    y 0.000000 1.728750 0.000000 
#    z 0.000000 0.000000 1.781750 
# 
# From -- ./inp_files/24216.got.cif
#   From: 2010.05.17/outbox.cif.g08.bks.cpg/sg64_13_cif.got.tgz:24216.got - 2010.06.03 16:29:19.
