data_PCOD9480832
_publ_section_title
;
Structure prediction by ZEFSAII (Michael W. Deem and Ramdas Pophale) SiO2 
 PCOD9480832
Probable space group: C M C A
;
_chemical_formula_sum "Si O2"
_cell_formula_units_Z 64
_cell_length_a 22.207623
_cell_length_b 14.151809
_cell_length_c 8.422351
_cell_angle_alpha 90.000000
_cell_angle_beta 90.000000
_cell_angle_gamma 90.000000
_cell_volume 2646.959956
_symmetry_space_group_name_H-M "C M C A"
_symmetry_group_IT_number 64
_symmetry_cell_setting 'orthorhombic'
loop_
_space_group_symop_operation_xyz
x,y,z
-x,1/2-y,1/2+z
x,-y,-z
-x,1/2+y,1/2-z
-x,-y,-z
x,1/2+y,1/2-z
-x,y,z
x,1/2-y,1/2+z
1/2+x,1/2+y,z
1/2-x,-y,1/2+z
1/2+x,1/2-y,-z
1/2-x,y,1/2-z
1/2-x,1/2-y,-z
1/2+x,y,1/2-z
1/2-x,1/2+y,z
1/2+x,-y,1/2+z
loop_
_atom_site_type_symbol
_atom_site_label
_atom_site_fract_x
_atom_site_fract_y
_atom_site_fract_z
Si Si1 0.133094 0.544208 0.840014
Si Si2 0.500000 0.497729 0.247203
Si Si3 0.127010 0.231020 0.492292
Si Si4 0.500000 0.167047 0.482433
Si Si5 0.318021 0.624240 0.194032
O O1 0.062418 0.519782 0.834956
O O2 0.138285 0.655059 0.866387
O O3 0.162363 0.485380 0.697660
O O4 0.161237 0.500000 0.000000
O O5 0.500000 0.603995 0.177458
O O6 0.500000 0.415777 0.113402
O O7 0.059105 0.269378 0.499950
O O8 0.168777 0.320605 0.532096
O O9 0.141557 0.176105 0.330141
O O10 0.250000 0.633175 0.250000
#
# Coordination Sequence:
#
# PCOD9480832 Si02
#       5
#    16   8  16   8  16
#     4  10  22  40  64  91 129 172 215 267 337 401
#     4  11  20  39  61  97 129 168 211 271 328 391
#     4  11  23  43  66  98 134 174 217 275 338 396
#     4  11  23  37  66  99 131 167 212 271 340 396
#     4  11  24  43  65  93 129 175 228 274 325 395
#
# _framework density 24.178681999999998
#
# number of rings (size 3 to 8) (size 9 to 14) (size 15 to 20)
#    0.000    1.250    2.500    3.375    0.000    5.000 
#    0.000   10.000    0.000    0.000    0.000    0.000 
#    0.000    0.000    0.000    0.000    0.000    0.000 
#
# Total GULP energy -179017.894379 kJ/mol
# GULP energy per Si atom -5594.309199 kJ/mol
# Density = 2.412365 g / cm^3
# Si number density = 24.178682 Si / 1000 Ang^3
#
#
#
# Elastic Constant Matrix: (Units=GPa)
#
#
# Indices 1 2 3 4 5 6 
#
# 1 75.8241 25.7652 -22.4002 0.0000 0.0000 0.0000
# 2 25.7652 155.1698 30.9028 0.0000 0.0000 0.0000
# 3 -22.4002 30.9028 48.5138 0.0000 0.0000 0.0000
# 4 0.0000 0.0000 0.0000 27.1612 0.0000 0.0000
# 5 0.0000 0.0000 0.0000 0.0000 22.5724 0.0000
# 6 0.0000 0.0000 0.0000 0.0000 0.0000 46.1166
#
#
#
# Elastic Compliance Matrix: (Units=1/GPa)
#
#
# Indices 1 2 3 4 5 6 
#
# 1 0.018639 -0.005507 0.012114 0.000000 0.000000 0.000000
# 2 -0.005507 0.009008 -0.008281 0.000000 0.000000 0.000000
# 3 0.012114 -0.008281 0.031481 0.000000 0.000000 0.000000
# 4 0.000000 0.000000 0.000000 0.036817 0.000000 0.000000
# 5 0.000000 0.000000 0.000000 0.000000 0.044302 0.000000
# 6 0.000000 0.000000 0.000000 0.000000 0.000000 0.021684
#
#
# Mechanical properties :
#
#
# Convention : Reuss Voigt Hill
#
# Bulk Modulus (GPa) = 17.92777 38.67147 28.29962
# Shear Modulus (GPa) = 27.19265 35.51938 31.35601
#
# Velocity S-wave (km/s) = 3.35722 3.83696 3.60508
# Velocity P-wave (km/s) = 4.73907 5.97147 5.39060
#
# Compressibility (1/GPa) = 0.05577937
#
# Stress axis : x y z
#
# Youngs Moduli (GPa) = 53.65187 111.00912 31.76500
#
# Poissons Ratio (x) = 0.61138 -0.38481
# Poissons Ratio (y) = 0.29549 0.26305
# Poissons Ratio (z) = -0.64995 0.91928
#
# Static dielectric constant tensor:
#      x y z
#    x 1.849500 0.000000 0.000000 
#    y 0.000000 1.926750 0.000000 
#    z 0.000000 0.000000 1.985190 
# 
# From -- ./inp_files/8996.got.cif
#   From: 2010.05.17/outbox.cif.g08.bks.cpg/sg64_5_cif.got.tgz:8996.got - 2010.06.03 16:29:19.
