data_PCOD9480185
_publ_section_title
;
Structure prediction by ZEFSAII (Michael W. Deem and Ramdas Pophale) SiO2 
 PCOD9480185
Probable space group: C M C A
;
_chemical_formula_sum "Si O2"
_cell_formula_units_Z 96
_cell_length_a 8.842462
_cell_length_b 29.462688
_cell_length_c 20.792707
_cell_angle_alpha 90.000000
_cell_angle_beta 90.000000
_cell_angle_gamma 90.000000
_cell_volume 5416.972148
_symmetry_space_group_name_H-M "C M C A"
_symmetry_group_IT_number 64
_symmetry_cell_setting 'orthorhombic'
loop_
_space_group_symop_operation_xyz
x,y,z
-x,1/2-y,1/2+z
x,-y,-z
-x,1/2+y,1/2-z
-x,-y,-z
x,1/2+y,1/2-z
-x,y,z
x,1/2-y,1/2+z
1/2+x,1/2+y,z
1/2-x,-y,1/2+z
1/2+x,1/2-y,-z
1/2-x,y,1/2-z
1/2-x,1/2-y,-z
1/2+x,y,1/2-z
1/2-x,1/2+y,z
1/2+x,-y,1/2+z
loop_
_atom_site_type_symbol
_atom_site_label
_atom_site_fract_x
_atom_site_fract_y
_atom_site_fract_z
Si Si1 0.181563 0.972349 0.435815
Si Si2 0.319031 0.721191 0.941271
Si Si3 0.318684 0.128170 0.981473
Si Si4 0.319292 0.217649 0.182382
Si Si5 0.818366 0.626796 0.375325
Si Si6 0.680673 0.527973 0.180392
O O1 0.216715 0.919585 0.447487
O O2 0.000000 0.977068 0.429423
O O3 0.227261 0.000000 0.500000
O O4 0.258864 0.993925 0.373858
O O5 0.500000 0.718851 0.948936
O O6 0.248717 0.671257 0.944701
O O7 0.285185 0.747420 0.875193
O O8 0.250000 0.750000 0.000000
O O9 0.500000 0.132431 0.986762
O O10 0.249047 0.127626 0.052944
O O11 0.500000 0.213212 0.187471
O O12 0.250000 0.232563 0.250000
O O13 0.248942 0.169193 0.163157
O O14 0.777890 0.579095 0.342016
O O15 0.000000 0.630449 0.378239
O O16 0.500000 0.525393 0.183700
O O17 0.750000 0.518608 0.250000
#
# Coordination Sequence:
#
# PCOD9480185 Si02
#       6
#    16  16  16  16  16  16
#     4  10  21  39  62  87 119 158 198 245 297 353
#     4  11  23  39  61  88 120 158 200 245 294 351
#     4  11  22  37  61  91 120 155 198 246 297 350
#     4  11  24  40  60  87 120 158 198 243 297 355
#     4  11  22  36  59  90 123 158 194 243 299 355
#     4  11  24  39  59  88 122 160 200 245 299 358
#
# _framework density 17.722076999999999
#
# number of rings (size 3 to 8) (size 9 to 14) (size 15 to 20)
#    0.000    1.167    3.333    3.000    0.000    7.000 
#    0.000    0.833    0.000    2.000    0.000    0.000 
#    0.000    0.000    0.000    0.000    0.000    0.000 
#
# Total GULP energy -268398.414143 kJ/mol
# GULP energy per Si atom -5591.633628 kJ/mol
# Density = 1.768174 g / cm^3
# Si number density = 17.722077 Si / 1000 Ang^3
#
#
#
# Elastic Constant Matrix: (Units=GPa)
#
#
# Indices 1 2 3 4 5 6 
#
# 1 61.4387 62.8003 68.3013 0.0000 0.0000 0.0000
# 2 62.8003 143.5219 83.1476 0.0000 0.0000 0.0000
# 3 68.3013 83.1476 164.1847 0.0000 0.0000 0.0000
# 4 0.0000 0.0000 0.0000 15.0844 0.0000 0.0000
# 5 0.0000 0.0000 0.0000 0.0000 33.9782 0.0000
# 6 0.0000 0.0000 0.0000 0.0000 0.0000 31.1910
#
#
#
# Elastic Compliance Matrix: (Units=1/GPa)
#
#
# Indices 1 2 3 4 5 6 
#
# 1 0.039718 -0.011048 -0.010927 0.000000 0.000000 0.000000
# 2 -0.011048 0.012934 -0.001954 0.000000 0.000000 0.000000
# 3 -0.010927 -0.001954 0.011626 0.000000 0.000000 0.000000
# 4 0.000000 0.000000 0.000000 0.066294 0.000000 0.000000
# 5 0.000000 0.000000 0.000000 0.000000 0.029431 0.000000
# 6 0.000000 0.000000 0.000000 0.000000 0.000000 0.032061
#
#
# Mechanical properties :
#
#
# Convention : Reuss Voigt Hill
#
# Bulk Modulus (GPa) = 60.90832 88.62709 74.76770
# Shear Modulus (GPa) = 20.37530 26.37712 23.37621
#
# Velocity S-wave (km/s) = 3.39442 3.86213 3.63581
# Velocity P-wave (km/s) = 7.05734 8.36696 7.73990
#
# Compressibility (1/GPa) = 0.01641812
#
# Stress axis : x y z
#
# Youngs Moduli (GPa) = 25.17766 77.31566 86.01349
#
# Poissons Ratio (x) = 0.85422 0.93991
# Poissons Ratio (y) = 0.27817 0.16806
# Poissons Ratio (z) = 0.27513 0.15107
#
# Static dielectric constant tensor:
#      x y z
#    x 1.592720 0.000000 0.000000 
#    y 0.000000 1.588530 0.000000 
#    z 0.000000 0.000000 1.591080 
# 
# From -- ./inp_files/36999.got.cif
#   From: 2010.05.17/outbox.cif.g08.bks.cpg/sg64_19_cif.got.tgz:36999.got - 2010.06.03 16:29:19.
