data_PCOD9480526
_publ_section_title
;
Structure prediction by ZEFSAII (Michael W. Deem and Ramdas Pophale) SiO2 
 PCOD9480526
Probable space group: C M C A
;
_chemical_formula_sum "Si O2"
_cell_formula_units_Z 96
_cell_length_a 14.446103
_cell_length_b 19.858284
_cell_length_c 15.364137
_cell_angle_alpha 90.000000
_cell_angle_beta 90.000000
_cell_angle_gamma 90.000000
_cell_volume 4407.583976
_symmetry_space_group_name_H-M "C M C A"
_symmetry_group_IT_number 64
_symmetry_cell_setting 'orthorhombic'
loop_
_space_group_symop_operation_xyz
x,y,z
-x,1/2-y,1/2+z
x,-y,-z
-x,1/2+y,1/2-z
-x,-y,-z
x,1/2+y,1/2-z
-x,y,z
x,1/2-y,1/2+z
1/2+x,1/2+y,z
1/2-x,-y,1/2+z
1/2+x,1/2-y,-z
1/2-x,y,1/2-z
1/2-x,1/2-y,-z
1/2+x,y,1/2-z
1/2-x,1/2+y,z
1/2+x,-y,1/2+z
loop_
_atom_site_type_symbol
_atom_site_label
_atom_site_fract_x
_atom_site_fract_y
_atom_site_fract_z
Si Si1 0.893869 0.130681 0.614659
Si Si2 0.895290 0.422100 0.472735
Si Si3 0.722015 0.859792 0.939393
Si Si4 0.314095 0.236773 0.325985
Si Si5 0.389078 0.396746 0.731250
Si Si6 0.112258 0.453460 0.280908
O O1 0.837994 0.129740 0.525380
O O2 0.886786 0.207561 0.647069
O O3 0.856613 0.083541 0.692871
O O4 0.000000 0.111205 0.598543
O O5 0.900423 0.500000 0.500000
O O6 0.822052 0.388452 0.535551
O O7 0.861495 0.420061 0.372551
O O8 0.000000 0.394082 0.479663
O O9 0.745941 0.785126 0.904200
O O10 0.666743 0.893266 0.859343
O O11 0.250000 0.266099 0.250000
O O12 0.358256 0.168490 0.286512
O O13 0.500000 0.394866 0.717530
O O14 0.364933 0.467462 0.776879
O O15 0.000000 0.449583 0.281054
#
# Coordination Sequence:
#
# PCOD9480526 Si02
#       6
#    16  16  16  16  16  16
#     4  11  24  42  64  95 133 170 214 269 331 388
#     4  10  22  40  62  93 129 168 219 268 314 378
#     4  11  24  39  63  99 128 165 218 264 326 383
#     4  10  23  42  63  91 126 174 223 261 312 389
#     4  10  21  43  69  93 131 171 212 263 321 391
#     4   9  21  40  64  94 125 169 217 257 318 388
#
# _framework density 21.780639999999998
#
# number of rings (size 3 to 8) (size 9 to 14) (size 15 to 20)
#    0.000    1.833    0.000    2.500    4.667    2.667 
#    0.000    2.500    0.000    0.000    0.000    0.000 
#    0.000    0.000    0.000    0.000    0.000    0.000 
#
# Total GULP energy -268252.470859 kJ/mol
# GULP energy per Si atom -5588.593143 kJ/mol
# Density = 2.173107 g / cm^3
# Si number density = 21.780640 Si / 1000 Ang^3
#
#
#
# Elastic Constant Matrix: (Units=GPa)
#
#
# Indices 1 2 3 4 5 6 
#
# 1 105.2373 -1.9699 43.2275 0.0000 0.0000 0.0000
# 2 -1.9699 40.2925 22.0745 0.0000 0.0000 0.0000
# 3 43.2275 22.0745 143.0835 0.0000 0.0000 0.0000
# 4 0.0000 0.0000 0.0000 23.9083 0.0000 0.0000
# 5 0.0000 0.0000 0.0000 0.0000 33.5625 0.0000
# 6 0.0000 0.0000 0.0000 0.0000 0.0000 -3.2841
#
#
#
# Elastic Compliance Matrix: (Units=1/GPa)
#
#
# Indices 1 2 3 4 5 6 
#
# 1 0.011092 0.002598 -0.003752 0.000000 0.000000 0.000000
# 2 0.002598 0.027718 -0.005061 0.000000 0.000000 0.000000
# 3 -0.003752 -0.005061 0.008903 0.000000 0.000000 0.000000
# 4 0.000000 0.000000 0.000000 0.041826 0.000000 0.000000
# 5 0.000000 0.000000 0.000000 0.000000 0.029795 0.000000
# 6 0.000000 0.000000 0.000000 0.000000 0.000000 -0.304498
#
#
# Mechanical properties :
#
#
# Convention : Reuss Voigt Hill
#
# Bulk Modulus (GPa) = 28.34209 46.14194 37.24202
# Shear Modulus (GPa) = -31.06139 25.85611 -2.60264
#
# Velocity S-wave (km/s) = -3.78047 3.44919 -1.09432
# Velocity P-wave (km/s) = 2.45259 6.09043 3.94197
#
# Compressibility (1/GPa) = 0.03528321
#
# Stress axis : x y z
#
# Youngs Moduli (GPa) = 90.15444 36.07727 112.31892
#
# Poissons Ratio (x) = -0.09372 0.42140
# Poissons Ratio (y) = -0.23420 0.56846
# Poissons Ratio (z) = 0.33825 0.18259
#
# Static dielectric constant tensor:
#      x y z
#    x 1.796870 0.000000 0.000000 
#    y 0.000000 1.773610 0.000000 
#    z 0.000000 0.000000 1.811590 
# 
# From -- ./inp_files/23864.got.cif
#   From: 2010.05.17/outbox.cif.g08.bks.cpg/sg64_12_cif.got.tgz:23864.got - 2010.06.03 16:29:19.
