data_PCOD9480154
_publ_section_title
;
Structure prediction by ZEFSAII (Michael W. Deem and Ramdas Pophale) SiO2 
 PCOD9480154
Probable space group: C M C A
;
_chemical_formula_sum "Si O2"
_cell_formula_units_Z 116
_cell_length_a 9.156730
_cell_length_b 23.944228
_cell_length_c 28.165683
_cell_angle_alpha 90.000000
_cell_angle_beta 90.000000
_cell_angle_gamma 90.000000
_cell_volume 6175.349399
_symmetry_space_group_name_H-M "C M C A"
_symmetry_group_IT_number 64
_symmetry_cell_setting 'orthorhombic'
loop_
_space_group_symop_operation_xyz
x,y,z
-x,1/2-y,1/2+z
x,-y,-z
-x,1/2+y,1/2-z
-x,-y,-z
x,1/2+y,1/2-z
-x,y,z
x,1/2-y,1/2+z
1/2+x,1/2+y,z
1/2-x,-y,1/2+z
1/2+x,1/2-y,-z
1/2-x,y,1/2-z
1/2-x,1/2-y,-z
1/2+x,y,1/2-z
1/2-x,1/2+y,z
1/2+x,-y,1/2+z
loop_
_atom_site_type_symbol
_atom_site_label
_atom_site_fract_x
_atom_site_fract_y
_atom_site_fract_z
Si Si1 0.331554 0.408786 0.416456
Si Si2 0.824684 0.218603 0.300825
Si Si3 0.832204 0.975044 0.621859
Si Si4 0.167265 0.789560 0.963502
Si Si5 0.500000 0.500000 0.000000
Si Si6 0.822658 0.601963 0.302066
Si Si7 0.329006 0.208868 0.874515
Si Si8 0.238271 0.415707 0.973809
O O1 0.500000 0.409684 0.402397
O O2 0.267773 0.463875 0.391663
O O3 0.275997 0.349041 0.398365
O O4 0.329308 0.413735 0.473365
O O5 0.750000 0.227747 0.250000
O O6 0.747433 0.161214 0.318186
O O7 0.776330 0.269769 0.333550
O O8 0.000000 0.211990 0.298035
O O9 0.731636 0.943379 0.659773
O O10 0.839270 0.942504 0.571654
O O11 0.000000 0.978538 0.639959
O O12 0.172550 0.757155 0.913997
O O13 0.229262 0.851599 0.961176
O O14 0.000000 0.794283 0.979150
O O15 0.250000 0.750000 0.000000
O O16 0.375537 0.455508 0.982162
O O17 0.750000 0.591250 0.250000
O O18 0.000000 0.604982 0.299033
O O19 0.500000 0.203359 0.859102
#
# Coordination Sequence:
#
# PCOD9480154 Si02
#       8
#    16  16  16  16   4  16  16  16
#     4  10  21  39  60  84 119 165 208 253 304 357
#     4  11  22  40  65  93 121 154 198 248 305 369
#     4  11  23  38  62  91 120 158 209 255 305 369
#     4  11  23  36  56  82 117 158 204 250 304 357
#     4  12  24  36  54  88 132 164 218 262 308 376
#     4  11  23  41  67  93 123 154 193 249 311 369
#     4  10  21  39  59  86 121 162 205 255 307 365
#     4  12  22  37  58  86 124 169 212 258 306 365
#
# _framework density 18.784361000000001
#
# number of rings (size 3 to 8) (size 9 to 14) (size 15 to 20)
#    0.000    1.103    3.448    4.552    0.966    3.310 
#    1.241    0.690    0.000    0.000    0.000    0.000 
#    0.000    0.000    0.000    0.000    0.000    0.000 
#
# Total GULP energy -322989.209607 kJ/mol
# GULP energy per Si atom -5568.779476 kJ/mol
# Density = 1.874161 g / cm^3
# Si number density = 18.784361 Si / 1000 Ang^3
#
#
#
# Elastic Constant Matrix: (Units=GPa)
#
#
# Indices 1 2 3 4 5 6 
#
# 1 112.9483 38.4001 36.3482 0.0000 0.0000 0.0000
# 2 38.4001 133.8958 54.2742 0.0000 0.0000 0.0000
# 3 36.3482 54.2742 77.0320 0.0000 0.0000 0.0000
# 4 0.0000 0.0000 0.0000 27.7253 0.0000 0.0000
# 5 0.0000 0.0000 0.0000 0.0000 86.5928 0.0000
# 6 0.0000 0.0000 0.0000 0.0000 0.0000 32.4283
#
#
#
# Elastic Compliance Matrix: (Units=1/GPa)
#
#
# Indices 1 2 3 4 5 6 
#
# 1 0.010628 -0.001421 -0.004014 0.000000 0.000000 0.000000
# 2 -0.001421 0.010644 -0.006829 0.000000 0.000000 0.000000
# 3 -0.004014 -0.006829 0.019687 0.000000 0.000000 0.000000
# 4 0.000000 0.000000 0.000000 0.036068 0.000000 0.000000
# 5 0.000000 0.000000 0.000000 0.000000 0.011548 0.000000
# 6 0.000000 0.000000 0.000000 0.000000 0.000000 0.030837
#
#
# Mechanical properties :
#
#
# Convention : Reuss Voigt Hill
#
# Bulk Modulus (GPa) = 60.85760 64.65788 62.75774
# Shear Modulus (GPa) = 33.46308 42.33954 37.90131
#
# Velocity S-wave (km/s) = 4.22528 4.75276 4.49676
# Velocity P-wave (km/s) = 7.50149 8.03829 7.77453
#
# Compressibility (1/GPa) = 0.01643180
#
# Stress axis : x y z
#
# Youngs Moduli (GPa) = 94.08689 93.94839 50.79493
#
# Poissons Ratio (x) = 0.13352 0.20388
# Poissons Ratio (y) = 0.13371 0.34687
# Poissons Ratio (z) = 0.37765 0.64157
#
# Static dielectric constant tensor:
#      x y z
#    x 1.663190 0.000000 0.000000 
#    y 0.000000 1.674840 0.000000 
#    z 0.000000 0.000000 1.658780 
# 
# From -- ./inp_files/48543.got.cif
#   From: 2010.05.17/outbox.cif.g08.bks.cpg/sg64_25_cif.got.tgz:48543.got - 2010.06.03 16:29:19.
