data_PCOD9480457
_publ_section_title
;
Structure prediction by ZEFSAII (Michael W. Deem and Ramdas Pophale) SiO2 
 PCOD9480457
Probable space group: C M C A
;
_chemical_formula_sum "Si O2"
_cell_formula_units_Z 96
_cell_length_a 14.531067
_cell_length_b 18.417296
_cell_length_c 14.303330
_cell_angle_alpha 90.000000
_cell_angle_beta 90.000000
_cell_angle_gamma 90.000000
_cell_volume 3827.899543
_symmetry_space_group_name_H-M "C M C A"
_symmetry_group_IT_number 64
_symmetry_cell_setting 'orthorhombic'
loop_
_space_group_symop_operation_xyz
x,y,z
-x,1/2-y,1/2+z
x,-y,-z
-x,1/2+y,1/2-z
-x,-y,-z
x,1/2+y,1/2-z
-x,y,z
x,1/2-y,1/2+z
1/2+x,1/2+y,z
1/2-x,-y,1/2+z
1/2+x,1/2-y,-z
1/2-x,y,1/2-z
1/2-x,1/2-y,-z
1/2+x,y,1/2-z
1/2-x,1/2+y,z
1/2+x,-y,1/2+z
loop_
_atom_site_type_symbol
_atom_site_label
_atom_site_fract_x
_atom_site_fract_y
_atom_site_fract_z
Si Si1 0.695456 0.919179 0.534971
Si Si2 0.343373 0.573504 0.695517
Si Si3 0.719572 0.777576 0.104025
Si Si4 0.601026 0.665354 0.864210
Si Si5 0.852507 0.351708 0.711182
Si Si6 0.599553 0.578085 0.393950
O O1 0.641911 0.873302 0.456416
O O2 0.639259 0.912435 0.630892
O O3 0.803347 0.900745 0.557146
O O4 0.697698 0.000000 0.500000
O O5 0.250000 0.550030 0.750000
O O6 0.318352 0.641748 0.627973
O O7 0.401268 0.608805 0.779203
O O8 0.384527 0.505069 0.641368
O O9 0.818222 0.777359 0.157855
O O10 0.647379 0.721601 0.149346
O O11 0.750000 0.750000 0.000000
O O12 0.500000 0.695865 0.880535
O O13 0.750000 0.358289 0.750000
O O14 0.908248 0.371939 0.802001
O O15 0.500000 0.583223 0.444561
#
# Coordination Sequence:
#
# PCOD9480457 Si02
#       6
#    16  16  16  16  16  16
#     4  11  22  39  66  98 145 197 243 310 378 437
#     4  10  21  42  71  99 141 195 241 309 388 450
#     4  11  22  44  74 101 141 195 241 305 384 452
#     4  11  23  41  69 106 143 186 246 303 369 452
#     4  10  21  41  67  95 135 186 244 307 369 443
#     4  11  24  42  67 103 147 197 256 311 373 449
#
# _framework density 25.079028000000001
#
# number of rings (size 3 to 8) (size 9 to 14) (size 15 to 20)
#    0.000    1.333    1.667    6.500    0.000    1.333 
#    0.000   10.000    0.000    2.000    0.000    0.000 
#    0.000    0.000    0.000    0.000    0.000    0.000 
#
# Total GULP energy -268029.594331 kJ/mol
# GULP energy per Si atom -5583.949882 kJ/mol
# Density = 2.502195 g / cm^3
# Si number density = 25.079028 Si / 1000 Ang^3
#
#
#
# Elastic Constant Matrix: (Units=GPa)
#
#
# Indices 1 2 3 4 5 6 
#
# 1 120.6860 25.8778 1.0299 0.0000 0.0000 0.0000
# 2 25.8778 113.7282 40.6334 0.0000 0.0000 0.0000
# 3 1.0299 40.6334 124.2394 0.0000 0.0000 0.0000
# 4 0.0000 0.0000 0.0000 46.8475 0.0000 0.0000
# 5 0.0000 0.0000 0.0000 0.0000 9.5032 0.0000
# 6 0.0000 0.0000 0.0000 0.0000 0.0000 -24.9274
#
#
#
# Elastic Compliance Matrix: (Units=1/GPa)
#
#
# Indices 1 2 3 4 5 6 
#
# 1 0.008758 -0.002227 0.000656 0.000000 0.000000 0.000000
# 2 -0.002227 0.010523 -0.003423 0.000000 0.000000 0.000000
# 3 0.000656 -0.003423 0.009163 0.000000 0.000000 0.000000
# 4 0.000000 0.000000 0.000000 0.021346 0.000000 0.000000
# 5 0.000000 0.000000 0.000000 0.000000 0.105227 0.000000
# 6 0.000000 0.000000 0.000000 0.000000 0.000000 -0.040116
#
#
# Mechanical properties :
#
#
# Convention : Reuss Voigt Hill
#
# Bulk Modulus (GPa) = 54.18605 54.85953 54.52279
# Shear Modulus (GPa) = 38.15611 25.69217 31.92414
#
# Velocity S-wave (km/s) = 3.90479 3.20417 3.57170
# Velocity P-wave (km/s) = 6.47942 5.96751 6.22872
#
# Compressibility (1/GPa) = 0.01845493
#
# Stress axis : x y z
#
# Youngs Moduli (GPa) = 114.18251 95.03308 109.13372
#
# Poissons Ratio (x) = 0.21165 -0.07157
# Poissons Ratio (y) = 0.25429 0.37357
# Poissons Ratio (z) = -0.07488 0.32530
#
# Static dielectric constant tensor:
#      x y z
#    x 1.965250 0.000000 0.000000 
#    y 0.000000 2.080170 0.000000 
#    z 0.000000 0.000000 2.062640 
# 
# From -- ./inp_files/23893.got.cif
#   From: 2010.05.17/outbox.cif.g08.bks.cpg/sg64_12_cif.got.tgz:23893.got - 2010.06.03 16:29:19.
