data_PCOD9480197
_publ_section_title
;
Structure prediction by ZEFSAII (Michael W. Deem and Ramdas Pophale) SiO2 
 PCOD9480197
Probable space group: C M C A
;
_chemical_formula_sum "Si O2"
_cell_formula_units_Z 96
_cell_length_a 9.021717
_cell_length_b 30.874285
_cell_length_c 16.636598
_cell_angle_alpha 90.000000
_cell_angle_beta 90.000000
_cell_angle_gamma 90.000000
_cell_volume 4633.942399
_symmetry_space_group_name_H-M "C M C A"
_symmetry_group_IT_number 64
_symmetry_cell_setting 'orthorhombic'
loop_
_space_group_symop_operation_xyz
x,y,z
-x,1/2-y,1/2+z
x,-y,-z
-x,1/2+y,1/2-z
-x,-y,-z
x,1/2+y,1/2-z
-x,y,z
x,1/2-y,1/2+z
1/2+x,1/2+y,z
1/2-x,-y,1/2+z
1/2+x,1/2-y,-z
1/2-x,y,1/2-z
1/2-x,1/2-y,-z
1/2+x,y,1/2-z
1/2-x,1/2+y,z
1/2+x,-y,1/2+z
loop_
_atom_site_type_symbol
_atom_site_label
_atom_site_fract_x
_atom_site_fract_y
_atom_site_fract_z
Si Si1 0.171231 0.046082 0.335388
Si Si2 0.670586 0.796095 0.102029
Si Si3 0.823769 0.615949 0.663495
Si Si4 0.668570 0.791111 0.907984
Si Si5 0.825039 0.127881 0.162285
Si Si6 0.165319 0.974838 0.084971
O O1 0.250000 0.044085 0.250000
O O2 0.255069 0.085421 0.379737
O O3 0.000000 0.056386 0.329225
O O4 0.202079 0.999860 0.372652
O O5 0.500000 0.793238 0.130969
O O6 0.745062 0.840592 0.131101
O O7 0.768958 0.754369 0.124555
O O8 0.665551 0.792838 0.004890
O O9 0.750000 0.604407 0.750000
O O10 0.809760 0.576207 0.599526
O O11 0.000000 0.623460 0.674467
O O12 0.500000 0.798661 0.879259
O O13 0.778038 0.828952 0.882114
O O14 0.750000 0.130873 0.250000
O O15 0.000000 0.123052 0.168482
O O16 0.000000 0.983217 0.121669
O O17 0.159811 0.000000 0.000000
#
# Coordination Sequence:
#
# PCOD9480197 Si02
#       6
#    16  16  16  16  16  16
#     4  11  22  38  60  87 120 160 202 248 304 362
#     4  10  22  40  63  91 123 161 205 252 306 367
#     4  11  24  42  65  92 126 167 212 261 315 374
#     4  10  21  39  62  91 126 161 203 253 307 368
#     4  11  22  37  59  87 121 159 201 248 302 360
#     4  10  23  42  63  92 124 161 205 255 312 371
#
# _framework density 20.716702000000002
#
# number of rings (size 3 to 8) (size 9 to 14) (size 15 to 20)
#    0.000    1.500    0.000    6.000    2.333    5.667 
#    0.000    3.333    0.000    0.000    0.000    0.000 
#    0.000    0.000    0.000    0.000    0.000    0.000 
#
# Total GULP energy -267834.421631 kJ/mol
# GULP energy per Si atom -5579.883784 kJ/mol
# Density = 2.066955 g / cm^3
# Si number density = 20.716702 Si / 1000 Ang^3
#
#
#
# Elastic Constant Matrix: (Units=GPa)
#
#
# Indices 1 2 3 4 5 6 
#
# 1 180.0167 55.5356 18.3005 0.0000 0.0000 0.0000
# 2 55.5356 121.2915 13.1419 0.0000 0.0000 0.0000
# 3 18.3005 13.1419 24.1564 0.0000 0.0000 0.0000
# 4 0.0000 0.0000 0.0000 3.4067 0.0000 0.0000
# 5 0.0000 0.0000 0.0000 0.0000 21.4371 0.0000
# 6 0.0000 0.0000 0.0000 0.0000 0.0000 38.2886
#
#
#
# Elastic Compliance Matrix: (Units=1/GPa)
#
#
# Indices 1 2 3 4 5 6 
#
# 1 0.006759 -0.002699 -0.003652 0.000000 0.000000 0.000000
# 2 -0.002699 0.009839 -0.003308 0.000000 0.000000 0.000000
# 3 -0.003652 -0.003308 0.045963 0.000000 0.000000 0.000000
# 4 0.000000 0.000000 0.000000 0.293539 0.000000 0.000000
# 5 0.000000 0.000000 0.000000 0.000000 0.046648 0.000000
# 6 0.000000 0.000000 0.000000 0.000000 0.000000 0.026117
#
#
# Mechanical properties :
#
#
# Convention : Reuss Voigt Hill
#
# Bulk Modulus (GPa) = 23.12516 55.49120 39.30818
# Shear Modulus (GPa) = 10.80851 28.52559 19.66705
#
# Velocity S-wave (km/s) = 2.28662 3.71474 3.08447
# Velocity P-wave (km/s) = 4.26125 6.72628 5.63033
#
# Compressibility (1/GPa) = 0.04324295
#
# Stress axis : x y z
#
# Youngs Moduli (GPa) = 147.95159 101.63827 21.75648
#
# Poissons Ratio (x) = 0.27432 0.07946
# Poissons Ratio (y) = 0.39932 0.07197
# Poissons Ratio (z) = 0.54034 0.33621
#
# Static dielectric constant tensor:
#      x y z
#    x 1.744990 0.000000 0.000000 
#    y 0.000000 1.799880 0.000000 
#    z 0.000000 0.000000 1.772010 
# 
# From -- ./inp_files/36969.got.cif
#   From: 2010.05.17/outbox.cif.g08.bks.cpg/sg64_19_cif.got.tgz:36969.got - 2010.06.03 16:29:19.
