data_PCOD9480237
_publ_section_title
;
Structure prediction by ZEFSAII (Michael W. Deem and Ramdas Pophale) SiO2 
 PCOD9480237
Probable space group: C M C A
;
_chemical_formula_sum "Si O2"
_cell_formula_units_Z 112
_cell_length_a 15.287464
_cell_length_b 14.512530
_cell_length_c 25.388519
_cell_angle_alpha 90.000000
_cell_angle_beta 90.000000
_cell_angle_gamma 90.000000
_cell_volume 5632.691238
_symmetry_space_group_name_H-M "C M C A"
_symmetry_group_IT_number 64
_symmetry_cell_setting 'orthorhombic'
loop_
_space_group_symop_operation_xyz
x,y,z
-x,1/2-y,1/2+z
x,-y,-z
-x,1/2+y,1/2-z
-x,-y,-z
x,1/2+y,1/2-z
-x,y,z
x,1/2-y,1/2+z
1/2+x,1/2+y,z
1/2-x,-y,1/2+z
1/2+x,1/2-y,-z
1/2-x,y,1/2-z
1/2-x,1/2-y,-z
1/2+x,y,1/2-z
1/2-x,1/2+y,z
1/2+x,-y,1/2+z
loop_
_atom_site_type_symbol
_atom_site_label
_atom_site_fract_x
_atom_site_fract_y
_atom_site_fract_z
Si Si1 0.197651 0.133760 0.695791
Si Si2 0.102319 0.568886 0.411635
Si Si3 0.101263 0.669601 0.091929
Si Si4 0.894624 0.561568 0.197061
Si Si5 0.244730 0.608117 0.010757
Si Si6 0.174429 0.364719 0.403086
Si Si7 0.604888 0.669648 0.198268
O O1 0.250000 0.135051 0.750000
O O2 0.264317 0.126262 0.647416
O O3 0.145915 0.229732 0.692214
O O4 0.138068 0.042818 0.696196
O O5 0.167863 0.614119 0.453592
O O6 0.122818 0.459882 0.411836
O O7 0.122321 0.609343 0.353822
O O8 0.000000 0.584893 0.423553
O O9 0.132532 0.613572 0.143541
O O10 0.162974 0.645424 0.043094
O O11 0.111914 0.777603 0.103646
O O12 0.000000 0.646977 0.081877
O O13 0.863939 0.616681 0.249075
O O14 0.000000 0.562210 0.198292
O O15 0.229223 0.500000 0.000000
O O16 0.265052 0.652089 0.954385
O O17 0.500000 0.679414 0.202531
#
# Coordination Sequence:
#
# PCOD9480237 Si02
#       7
#    16  16  16  16  16  16  16
#     4  12  24  38  62  88 116 157 197 241 300 362
#     4  10  21  39  64  90 120 158 197 244 301 356
#     4  11  23  40  62  87 121 163 202 244 298 356
#     4  10  22  40  60  85 118 154 197 250 300 352
#     4  10  22  40  60  86 122 157 200 253 296 347
#     4  11  23  38  59  90 124 154 195 248 296 351
#     4  10  22  40  61  87 119 154 198 249 297 353
#
# _framework density 19.883922999999999
#
# number of rings (size 3 to 8) (size 9 to 14) (size 15 to 20)
#    0.000    1.429    0.000    5.571    0.000    6.286 
#    0.000    8.571    0.000    0.000    0.000    0.000 
#    0.000    0.000    0.000    0.000    0.000    0.000 
#
# Total GULP energy -313230.057535 kJ/mol
# GULP energy per Si atom -5593.393885 kJ/mol
# Density = 1.983867 g / cm^3
# Si number density = 19.883923 Si / 1000 Ang^3
#
#
#
# Elastic Constant Matrix: (Units=GPa)
#
#
# Indices 1 2 3 4 5 6 
#
# 1 62.6861 16.4164 42.6054 0.0000 0.0000 0.0000
# 2 16.4164 79.8616 8.5967 0.0000 0.0000 0.0000
# 3 42.6054 8.5967 117.4327 0.0000 0.0000 0.0000
# 4 0.0000 0.0000 0.0000 43.5298 0.0000 0.0000
# 5 0.0000 0.0000 0.0000 0.0000 24.4441 0.0000
# 6 0.0000 0.0000 0.0000 0.0000 0.0000 -4.5270
#
#
#
# Elastic Compliance Matrix: (Units=1/GPa)
#
#
# Indices 1 2 3 4 5 6 
#
# 1 0.022224 -0.003730 -0.007790 0.000000 0.000000 0.000000
# 2 -0.003730 0.013247 0.000383 0.000000 0.000000 0.000000
# 3 -0.007790 0.000383 0.011314 0.000000 0.000000 0.000000
# 4 0.000000 0.000000 0.000000 0.022973 0.000000 0.000000
# 5 0.000000 0.000000 0.000000 0.000000 0.040910 0.000000
# 6 0.000000 0.000000 0.000000 0.000000 0.000000 -0.220898
#
#
# Mechanical properties :
#
#
# Convention : Reuss Voigt Hill
#
# Bulk Modulus (GPa) = 40.79628 43.91303 42.35465
# Shear Modulus (GPa) = -62.66625 25.51349 -18.57638
#
# Velocity S-wave (km/s) = -5.62001 3.58595 -3.05985
# Velocity P-wave (km/s) = 4.64229 6.26722 2.97718
#
# Compressibility (1/GPa) = 0.02451204
#
# Stress axis : x y z
#
# Youngs Moduli (GPa) = 44.99683 75.48828 88.38858
#
# Poissons Ratio (x) = 0.28156 0.68854
# Poissons Ratio (y) = 0.16783 -0.03389
# Poissons Ratio (z) = 0.35052 -0.02895
#
# Static dielectric constant tensor:
#      x y z
#    x 1.677250 0.000000 0.000000 
#    y 0.000000 1.690190 0.000000 
#    z 0.000000 0.000000 1.686540 
# 
# From -- ./inp_files/45217.got.cif
#   From: 2010.05.17/outbox.cif.g08.bks.cpg/sg64_23_cif.got.tgz:45217.got - 2010.06.03 16:29:19.
