data_PCOD9480045
_publ_section_title
;
Structure prediction by ZEFSAII (Michael W. Deem and Ramdas Pophale) SiO2 
 PCOD9480045
Probable space group: C M C A
;
_chemical_formula_sum "Si O2"
_cell_formula_units_Z 80
_cell_length_a 28.220037
_cell_length_b 21.247003
_cell_length_c 5.737334
_cell_angle_alpha 90.000000
_cell_angle_beta 90.000000
_cell_angle_gamma 90.000000
_cell_volume 3440.055040
_symmetry_space_group_name_H-M "C M C A"
_symmetry_group_IT_number 64
_symmetry_cell_setting 'orthorhombic'
loop_
_space_group_symop_operation_xyz
x,y,z
-x,1/2-y,1/2+z
x,-y,-z
-x,1/2+y,1/2-z
-x,-y,-z
x,1/2+y,1/2-z
-x,y,z
x,1/2-y,1/2+z
1/2+x,1/2+y,z
1/2-x,-y,1/2+z
1/2+x,1/2-y,-z
1/2-x,y,1/2-z
1/2-x,1/2-y,-z
1/2+x,y,1/2-z
1/2-x,1/2+y,z
1/2+x,-y,1/2+z
loop_
_atom_site_type_symbol
_atom_site_label
_atom_site_fract_x
_atom_site_fract_y
_atom_site_fract_z
Si Si1 0.625197 0.098989 0.459840
Si Si2 0.554830 0.831979 0.182047
Si Si3 0.767143 0.073256 0.995626
Si Si4 0.950866 0.943288 0.678153
Si Si5 0.138592 0.266425 0.681102
O O1 0.587169 0.126201 0.644025
O O2 0.676263 0.076063 0.531708
O O3 0.596749 0.048072 0.316725
O O4 0.634480 0.159294 0.295434
O O5 0.500000 0.818379 0.255844
O O6 0.587640 0.769878 0.152396
O O7 0.550699 0.876742 0.956729
O O8 0.750000 0.102534 0.750000
O O9 0.750000 0.099286 0.250000
O O10 0.750918 0.000000 0.000000
O O11 0.000000 0.943005 0.820369
O O12 0.953371 0.000000 0.500000
O O13 0.161176 0.257411 0.422959
#
# Coordination Sequence:
#
# PCOD9480045 Si02
#       5
#    16  16  16  16  16
#     4  11  23  39  67  92 131 174 228 273 350 394
#     4  10  22  38  60  94 136 178 226 269 317 396
#     4  10  25  45  70 100 130 168 225 291 350 415
#     4  10  22  37  57  94 137 178 224 270 330 404
#     4  10  21  38  60  92 127 170 220 266 312 382
#
# _framework density 23.255438999999999
#
# number of rings (size 3 to 8) (size 9 to 14) (size 15 to 20)
#    0.000    1.800    2.000    0.600    5.600    4.800 
#    0.000    3.000    0.000   14.400    0.000    0.000 
#    0.000    0.000    0.000    0.000    0.000    0.000 
#
# Total GULP energy -222904.759161 kJ/mol
# GULP energy per Si atom -5572.618979 kJ/mol
# Density = 2.320251 g / cm^3
# Si number density = 23.255439 Si / 1000 Ang^3
#
#
#
# Elastic Constant Matrix: (Units=GPa)
#
#
# Indices 1 2 3 4 5 6 
#
# 1 112.7277 -16.3621 44.0253 0.0000 0.0000 0.0000
# 2 -16.3621 42.3466 3.4488 0.0000 0.0000 0.0000
# 3 44.0253 3.4488 121.1637 0.0000 0.0000 0.0000
# 4 0.0000 0.0000 0.0000 35.4644 0.0000 0.0000
# 5 0.0000 0.0000 0.0000 0.0000 1.8325 0.0000
# 6 0.0000 0.0000 0.0000 0.0000 0.0000 9.6917
#
#
#
# Elastic Compliance Matrix: (Units=1/GPa)
#
#
# Indices 1 2 3 4 5 6 
#
# 1 0.011187 0.004665 -0.004198 0.000000 0.000000 0.000000
# 2 0.004665 0.025614 -0.002424 0.000000 0.000000 0.000000
# 3 -0.004198 -0.002424 0.009848 0.000000 0.000000 0.000000
# 4 0.000000 0.000000 0.000000 0.028197 0.000000 0.000000
# 5 0.000000 0.000000 0.000000 0.000000 0.545711 0.000000
# 6 0.000000 0.000000 0.000000 0.000000 0.000000 0.103181
#
#
# Mechanical properties :
#
#
# Convention : Reuss Voigt Hill
#
# Bulk Modulus (GPa) = 23.40005 37.60688 30.50346
# Shear Modulus (GPa) = 6.73947 25.73944 16.23946
#
# Velocity S-wave (km/s) = 1.70420 3.33049 2.64542
# Velocity P-wave (km/s) = 3.73583 5.56739 4.74090
#
# Compressibility (1/GPa) = 0.04273496
#
# Stress axis : x y z
#
# Youngs Moduli (GPa) = 89.38637 39.04057 101.54805
#
# Poissons Ratio (x) = -0.18211 0.42627
# Poissons Ratio (y) = -0.41694 0.24615
# Poissons Ratio (z) = 0.37522 0.09463
#
# Static dielectric constant tensor:
#      x y z
#    x 1.873830 0.000000 0.000000 
#    y 0.000000 1.883870 0.000000 
#    z 0.000000 0.000000 2.010290 
# 
# From -- ./inp_files/2894.got.cif
#   From: 2010.05.17/outbox.cif.g08.bks.cpg/sg64_2_cif.got.tgz:2894.got - 2010.06.03 16:29:19.
