data_PCOD9480063
_publ_section_title
;
Structure prediction by ZEFSAII (Michael W. Deem and Ramdas Pophale) SiO2 
 PCOD9480063
Probable space group: C M C A
;
_chemical_formula_sum "Si O2"
_cell_formula_units_Z 56
_cell_length_a 22.371699
_cell_length_b 24.198154
_cell_length_c 5.029570
_cell_angle_alpha 90.000000
_cell_angle_beta 90.000000
_cell_angle_gamma 90.000000
_cell_volume 2722.776921
_symmetry_space_group_name_H-M "C M C A"
_symmetry_group_IT_number 64
_symmetry_cell_setting 'orthorhombic'
loop_
_space_group_symop_operation_xyz
x,y,z
-x,1/2-y,1/2+z
x,-y,-z
-x,1/2+y,1/2-z
-x,-y,-z
x,1/2+y,1/2-z
-x,y,z
x,1/2-y,1/2+z
1/2+x,1/2+y,z
1/2-x,-y,1/2+z
1/2+x,1/2-y,-z
1/2-x,y,1/2-z
1/2-x,1/2-y,-z
1/2+x,y,1/2-z
1/2-x,1/2+y,z
1/2+x,-y,1/2+z
loop_
_atom_site_type_symbol
_atom_site_label
_atom_site_fract_x
_atom_site_fract_y
_atom_site_fract_z
Si Si1 0.429017 0.942887 0.859634
Si Si2 0.250000 0.540873 0.750000
Si Si3 0.871911 0.394984 0.349180
Si Si4 0.431570 0.712057 0.038235
O O1 0.500000 0.941651 0.838393
O O2 0.401846 0.934350 0.570854
O O3 0.406141 0.897548 0.068299
O O4 0.410781 0.000000 0.000000
O O5 0.259887 0.500000 0.500000
O O6 0.193730 0.580812 0.697275
O O7 0.883232 0.334414 0.469042
O O8 0.500000 0.689125 0.011093
O O9 0.426041 0.761861 0.828457
#
# Coordination Sequence:
#
# PCOD9480063 Si02
#       4
#    16   8  16  16
#     4  11  22  36  59  91 123 155 198 256 317 376
#     4  12  26  44  64  88 124 170 214 252 296 364
#     4  12  23  40  62  88 123 167 207 250 306 364
#     4  10  21  38  61  90 122 156 200 255 312 367
#
# _framework density 20.567239000000001
#
# number of rings (size 3 to 8) (size 9 to 14) (size 15 to 20)
#    0.000    0.857    0.000    9.429    0.000    4.571 
#    0.000    1.429    0.000    0.000    0.000    0.000 
#    0.000    0.000    0.000    0.000    0.000    0.000 
#
# Total GULP energy -156666.707831 kJ/mol
# GULP energy per Si atom -5595.239565 kJ/mol
# Density = 2.052043 g / cm^3
# Si number density = 20.567239 Si / 1000 Ang^3
#
#
#
# Elastic Constant Matrix: (Units=GPa)
#
#
# Indices 1 2 3 4 5 6 
#
# 1 117.3006 42.3216 27.8323 0.0000 0.0000 0.0000
# 2 42.3216 87.9895 1.4521 0.0000 0.0000 0.0000
# 3 27.8323 1.4521 95.3342 0.0000 0.0000 0.0000
# 4 0.0000 0.0000 0.0000 31.8526 0.0000 0.0000
# 5 0.0000 0.0000 0.0000 0.0000 -5.2654 0.0000
# 6 0.0000 0.0000 0.0000 0.0000 0.0000 29.3550
#
#
#
# Elastic Compliance Matrix: (Units=1/GPa)
#
#
# Indices 1 2 3 4 5 6 
#
# 1 0.011208 -0.005338 -0.003191 0.000000 0.000000 0.000000
# 2 -0.005338 0.013910 0.001347 0.000000 0.000000 0.000000
# 3 -0.003191 0.001347 0.011400 0.000000 0.000000 0.000000
# 4 0.000000 0.000000 0.000000 0.031395 0.000000 0.000000
# 5 0.000000 0.000000 0.000000 0.000000 -0.189919 0.000000
# 6 0.000000 0.000000 0.000000 0.000000 0.000000 0.034066
#
#
# Mechanical properties :
#
#
# Convention : Reuss Voigt Hill
#
# Bulk Modulus (GPa) = 45.13868 49.31516 47.22692
# Shear Modulus (GPa) = -75.54054 26.45631 -24.54211
#
# Velocity S-wave (km/s) = -6.06699 3.59044 -3.45811
# Velocity P-wave (km/s) = 5.20415 6.42012 2.65845
#
# Compressibility (1/GPa) = 0.02215395
#
# Stress axis : x y z
#
# Youngs Moduli (GPa) = 89.21976 71.88851 87.71573
#
# Poissons Ratio (x) = 0.38377 0.27989
# Poissons Ratio (y) = 0.47629 -0.11812
# Poissons Ratio (z) = 0.28469 -0.09681
#
# Static dielectric constant tensor:
#      x y z
#    x 1.709470 0.000000 0.000000 
#    y 0.000000 1.797860 0.000000 
#    z 0.000000 0.000000 1.670560 
# 
# From -- ./inp_files/1646.got.cif
#   From: 2010.05.17/outbox.cif.g08.bks.cpg/sg64_1_cif.got.tgz:1646.got - 2010.06.03 16:29:19.
