data_PCOD9480917
_publ_section_title
;
Structure prediction by ZEFSAII (Michael W. Deem and Ramdas Pophale) SiO2 
 PCOD9480917
Probable space group: C M C A
;
_chemical_formula_sum "Si O2"
_cell_formula_units_Z 88
_cell_length_a 17.245121
_cell_length_b 18.239212
_cell_length_c 12.822795
_cell_angle_alpha 90.000000
_cell_angle_beta 90.000000
_cell_angle_gamma 90.000000
_cell_volume 4033.248829
_symmetry_space_group_name_H-M "C M C A"
_symmetry_group_IT_number 64
_symmetry_cell_setting 'orthorhombic'
loop_
_space_group_symop_operation_xyz
x,y,z
-x,1/2-y,1/2+z
x,-y,-z
-x,1/2+y,1/2-z
-x,-y,-z
x,1/2+y,1/2-z
-x,y,z
x,1/2-y,1/2+z
1/2+x,1/2+y,z
1/2-x,-y,1/2+z
1/2+x,1/2-y,-z
1/2-x,y,1/2-z
1/2-x,1/2-y,-z
1/2+x,y,1/2-z
1/2-x,1/2+y,z
1/2+x,-y,1/2+z
loop_
_atom_site_type_symbol
_atom_site_label
_atom_site_fract_x
_atom_site_fract_y
_atom_site_fract_z
Si Si1 0.500000 0.753860 0.151046
Si Si2 0.666041 0.454065 0.901362
Si Si3 0.500000 0.138361 0.675796
Si Si4 0.253393 0.695976 0.373133
Si Si5 0.663425 0.073889 0.767764
Si Si6 0.500000 0.101071 0.436399
Si Si7 0.349823 0.672839 0.551364
O O1 0.500000 0.783020 0.268648
O O2 0.500000 0.667560 0.144148
O O3 0.573945 0.786597 0.091332
O O4 0.700400 0.372773 0.906694
O O5 0.673970 0.496032 0.791154
O O6 0.575284 0.446005 0.918864
O O7 0.698111 0.500000 0.000000
O O8 0.583035 0.104011 0.715048
O O9 0.500000 0.135062 0.551997
O O10 0.250000 0.695954 0.250000
O O11 0.335326 0.677090 0.427905
O O12 0.219818 0.774417 0.408285
O O13 0.750000 0.107911 0.750000
O O14 0.651636 0.094256 0.890059
#
# Coordination Sequence:
#
# PCOD9480917 Si02
#       7
#     8  16   8  16  16   8  16
#     4  10  22  41  64  98 136 181 234 277 368 414
#     4  12  23  39  64 101 134 179 228 292 349 418
#     4  10  23  40  68 102 134 185 237 290 348 433
#     4  11  24  41  65  97 136 176 233 285 344 421
#     4  11  22  40  67  98 137 185 228 287 360 417
#     4  12  22  42  67 101 140 177 236 313 342 416
#     4  10  23  43  65  96 136 182 227 289 349 425
#
# _framework density 21.818639999999998
#
# number of rings (size 3 to 8) (size 9 to 14) (size 15 to 20)
#    0.000    1.091    3.636    3.000    0.000    4.364 
#    0.000    0.000    0.000    1.091    0.000   17.818 
#    0.000    0.000    0.000    0.000    0.000    0.000 
#
# Total GULP energy -245189.783707 kJ/mol
# GULP energy per Si atom -5572.495084 kJ/mol
# Density = 2.176898 g / cm^3
# Si number density = 21.818640 Si / 1000 Ang^3
#
#
#
# Elastic Constant Matrix: (Units=GPa)
#
#
# Indices 1 2 3 4 5 6 
#
# 1 76.1020 9.8057 7.9404 0.0000 0.0000 0.0000
# 2 9.8057 88.1992 34.1406 0.0000 0.0000 0.0000
# 3 7.9404 34.1406 108.8706 0.0000 0.0000 0.0000
# 4 0.0000 0.0000 0.0000 35.1156 0.0000 0.0000
# 5 0.0000 0.0000 0.0000 0.0000 31.0366 0.0000
# 6 0.0000 0.0000 0.0000 0.0000 0.0000 356.8983
#
#
#
# Elastic Compliance Matrix: (Units=1/GPa)
#
#
# Indices 1 2 3 4 5 6 
#
# 1 0.013363 -0.001262 -0.000579 0.000000 0.000000 0.000000
# 2 -0.001262 0.013023 -0.003992 0.000000 0.000000 0.000000
# 3 -0.000579 -0.003992 0.010479 0.000000 0.000000 0.000000
# 4 0.000000 0.000000 0.000000 0.028477 0.000000 0.000000
# 5 0.000000 0.000000 0.000000 0.000000 0.032220 0.000000
# 6 0.000000 0.000000 0.000000 0.000000 0.000000 0.002802
#
#
# Mechanical properties :
#
#
# Convention : Reuss Voigt Hill
#
# Bulk Modulus (GPa) = 39.68124 41.88281 40.78202
# Shear Modulus (GPa) = 41.51765 99.36244 70.44004
#
# Velocity S-wave (km/s) = 4.36690 6.75567 5.68810
# Velocity P-wave (km/s) = 6.60702 8.94928 7.86582
#
# Compressibility (1/GPa) = 0.02520083
#
# Stress axis : x y z
#
# Youngs Moduli (GPa) = 74.83220 76.78448 95.42631
#
# Poissons Ratio (x) = 0.09687 0.05525
# Poissons Ratio (y) = 0.09440 0.38094
# Poissons Ratio (z) = 0.04333 0.30652
#
# Static dielectric constant tensor:
#      x y z
#    x 1.804040 0.000000 0.000000 
#    y 0.000000 1.801810 0.000000 
#    z 0.000000 0.000000 1.862500 
# 
# From -- ./inp_files/16080.got.cif
#   From: 2010.05.17/outbox.cif.g08.bks.cpg/sg64_9_cif.got.tgz:16080.got - 2010.06.03 16:29:19.
