data_PCOD9480973
_publ_section_title
;
Structure prediction by ZEFSAII (Michael W. Deem and Ramdas Pophale) SiO2 
 PCOD9480973
Probable space group: C M C A
;
_chemical_formula_sum "Si O2"
_cell_formula_units_Z 80
_cell_length_a 8.809960
_cell_length_b 16.087146
_cell_length_c 29.213163
_cell_angle_alpha 90.000000
_cell_angle_beta 90.000000
_cell_angle_gamma 90.000000
_cell_volume 4140.297247
_symmetry_space_group_name_H-M "C M C A"
_symmetry_group_IT_number 64
_symmetry_cell_setting 'orthorhombic'
loop_
_space_group_symop_operation_xyz
x,y,z
-x,1/2-y,1/2+z
x,-y,-z
-x,1/2+y,1/2-z
-x,-y,-z
x,1/2+y,1/2-z
-x,y,z
x,1/2-y,1/2+z
1/2+x,1/2+y,z
1/2-x,-y,1/2+z
1/2+x,1/2-y,-z
1/2-x,y,1/2-z
1/2-x,1/2-y,-z
1/2+x,y,1/2-z
1/2-x,1/2+y,z
1/2+x,-y,1/2+z
loop_
_atom_site_type_symbol
_atom_site_label
_atom_site_fract_x
_atom_site_fract_y
_atom_site_fract_z
Si Si1 0.682658 0.710275 0.855710
Si Si2 0.681904 0.716107 0.452930
Si Si3 0.681670 0.966213 0.550542
Si Si4 0.816871 0.876059 0.699437
Si Si5 0.681779 0.537426 0.640443
O O1 0.500000 0.702006 0.852692
O O2 0.721736 0.728449 0.908798
O O3 0.728447 0.791597 0.826877
O O4 0.759985 0.625055 0.840430
O O5 0.500000 0.713700 0.456213
O O6 0.750000 0.750000 0.500000
O O7 0.744688 0.624146 0.444178
O O8 0.500000 0.960952 0.554566
O O9 0.717943 0.000000 0.500000
O O10 0.746691 0.023997 0.590387
O O11 0.750000 0.877832 0.750000
O O12 0.000000 0.876256 0.701575
O O13 0.771219 0.958129 0.671034
O O14 0.500000 0.537537 0.637100
#
# Coordination Sequence:
#
# PCOD9480973 Si02
#       5
#    16  16  16  16  16
#     4  10  22  42  63  88 127 165 202 256 312 366
#     4  11  22  38  59  87 126 166 208 258 309 369
#     4  11  23  38  58  88 125 166 210 256 311 370
#     4  10  23  44  66  91 125 163 207 260 317 370
#     4  11  23  41  64  93 126 163 209 259 311 374
#
# _framework density 19.322282999999999
#
# number of rings (size 3 to 8) (size 9 to 14) (size 15 to 20)
#    0.000    1.400    2.000    3.000    0.000   11.200 
#    0.000    4.000    0.000    0.000    0.000    0.000 
#    0.000    0.000    0.000    0.000    0.000    0.000 
#
# Total GULP energy -223646.603513 kJ/mol
# GULP energy per Si atom -5591.165088 kJ/mol
# Density = 1.927830 g / cm^3
# Si number density = 19.322283 Si / 1000 Ang^3
#
#
#
# Elastic Constant Matrix: (Units=GPa)
#
#
# Indices 1 2 3 4 5 6 
#
# 1 31.6231 40.7227 39.1034 0.0000 0.0000 0.0000
# 2 40.7227 169.1551 64.9588 0.0000 0.0000 0.0000
# 3 39.1034 64.9588 130.2046 0.0000 0.0000 0.0000
# 4 0.0000 0.0000 0.0000 23.4879 0.0000 0.0000
# 5 0.0000 0.0000 0.0000 0.0000 34.3785 0.0000
# 6 0.0000 0.0000 0.0000 0.0000 0.0000 37.3347
#
#
#
# Elastic Compliance Matrix: (Units=1/GPa)
#
#
# Indices 1 2 3 4 5 6 
#
# 1 0.060283 -0.009352 -0.013439 0.000000 0.000000 0.000000
# 2 -0.009352 0.008764 -0.001564 0.000000 0.000000 0.000000
# 3 -0.013439 -0.001564 0.012496 0.000000 0.000000 0.000000
# 4 0.000000 0.000000 0.000000 0.042575 0.000000 0.000000
# 5 0.000000 0.000000 0.000000 0.000000 0.029088 0.000000
# 6 0.000000 0.000000 0.000000 0.000000 0.000000 0.026785
#
#
# Mechanical properties :
#
#
# Convention : Reuss Voigt Hill
#
# Bulk Modulus (GPa) = 30.45575 68.95030 49.70303
# Shear Modulus (GPa) = 20.86429 31.45342 26.15886
#
# Velocity S-wave (km/s) = 3.28960 4.03902 3.68342
# Velocity P-wave (km/s) = 5.49771 7.58376 6.62338
#
# Compressibility (1/GPa) = 0.03283452
#
# Stress axis : x y z
#
# Youngs Moduli (GPa) = 16.58838 114.10894 80.02422
#
# Poissons Ratio (x) = 1.06714 1.07543
# Poissons Ratio (y) = 0.15513 0.12512
# Poissons Ratio (z) = 0.22293 0.17841
#
# Static dielectric constant tensor:
#      x y z
#    x 1.645240 0.000000 0.000000 
#    y 0.000000 1.692730 0.000000 
#    z 0.000000 0.000000 1.663730 
# 
# From -- ./inp_files/47896.got.cif
#   From: 2010.05.17/outbox.cif.g08.bks.cpg/sg64_24_cif.got.tgz:47896.got - 2010.06.03 16:29:19.
