data_PCOD9480545
_publ_section_title
;
Structure prediction by ZEFSAII (Michael W. Deem and Ramdas Pophale) SiO2 
 PCOD9480545
Probable space group: C M C A
;
_chemical_formula_sum "Si O2"
_cell_formula_units_Z 72
_cell_length_a 23.244646
_cell_length_b 17.670783
_cell_length_c 9.170334
_cell_angle_alpha 90.000000
_cell_angle_beta 90.000000
_cell_angle_gamma 90.000000
_cell_volume 3766.724735
_symmetry_space_group_name_H-M "C M C A"
_symmetry_group_IT_number 64
_symmetry_cell_setting 'orthorhombic'
loop_
_space_group_symop_operation_xyz
x,y,z
-x,1/2-y,1/2+z
x,-y,-z
-x,1/2+y,1/2-z
-x,-y,-z
x,1/2+y,1/2-z
-x,y,z
x,1/2-y,1/2+z
1/2+x,1/2+y,z
1/2-x,-y,1/2+z
1/2+x,1/2-y,-z
1/2-x,y,1/2-z
1/2-x,1/2-y,-z
1/2+x,y,1/2-z
1/2-x,1/2+y,z
1/2+x,-y,1/2+z
loop_
_atom_site_type_symbol
_atom_site_label
_atom_site_fract_x
_atom_site_fract_y
_atom_site_fract_z
Si Si1 0.066814 0.472893 0.735512
Si Si2 0.066501 0.125879 0.956094
Si Si3 0.709523 0.343843 0.455088
Si Si4 0.348925 0.500000 0.500000
Si Si5 0.172713 0.283594 0.351981
O O1 0.072192 0.553131 0.650754
O O2 0.078318 0.407316 0.617149
O O3 0.110128 0.473313 0.868838
O O4 0.000000 0.465982 0.781920
O O5 0.111084 0.189124 0.906952
O O6 0.000000 0.150825 0.950572
O O7 0.689861 0.429719 0.451679
O O8 0.777556 0.333343 0.431705
O O9 0.688294 0.301159 0.599895
O O10 0.680691 0.299721 0.318667
#
# Coordination Sequence:
#
# PCOD9480545 Si02
#       5
#    16  16  16   8  16
#     4   9  19  34  57  87 123 156 189 247 302 343
#     4   9  18  37  61  83 115 160 199 237 295 356
#     4  10  24  39  64  84 125 154 198 239 312 333
#     4  12  21  38  58  98 111 156 204 248 280 366
#     4  10  21  45  57  87 119 160 191 252 290 361
#
# _framework density 19.114750999999998
#
# number of rings (size 3 to 8) (size 9 to 14) (size 15 to 20)
#    0.000    2.222    2.222    1.667    3.111    1.778 
#    0.000    3.333    0.000    0.000    0.000    0.000 
#    0.000    0.000    0.000    0.000    0.000    0.000 
#
# Total GULP energy -201004.203890 kJ/mol
# GULP energy per Si atom -5583.450108 kJ/mol
# Density = 1.907124 g / cm^3
# Si number density = 19.114751 Si / 1000 Ang^3
#
#
#
# Elastic Constant Matrix: (Units=GPa)
#
#
# Indices 1 2 3 4 5 6 
#
# 1 74.8877 4.7477 22.4878 0.0000 0.0000 0.0000
# 2 4.7477 33.6362 15.3982 0.0000 0.0000 0.0000
# 3 22.4878 15.3982 61.1120 0.0000 0.0000 0.0000
# 4 0.0000 0.0000 0.0000 15.6283 0.0000 0.0000
# 5 0.0000 0.0000 0.0000 0.0000 15.2104 0.0000
# 6 0.0000 0.0000 0.0000 0.0000 0.0000 25.0002
#
#
#
# Elastic Compliance Matrix: (Units=1/GPa)
#
#
# Indices 1 2 3 4 5 6 
#
# 1 0.015019 0.000464 -0.005643 0.000000 0.000000 0.000000
# 2 0.000464 0.033621 -0.008642 0.000000 0.000000 0.000000
# 3 -0.005643 -0.008642 0.020617 0.000000 0.000000 0.000000
# 4 0.000000 0.000000 0.000000 0.063986 0.000000 0.000000
# 5 0.000000 0.000000 0.000000 0.000000 0.065744 0.000000
# 6 0.000000 0.000000 0.000000 0.000000 0.000000 0.040000
#
#
# Mechanical properties :
#
#
# Convention : Reuss Voigt Hill
#
# Bulk Modulus (GPa) = 24.03072 28.32260 26.17666
# Shear Modulus (GPa) = 17.82523 19.63459 18.72991
#
# Velocity S-wave (km/s) = 3.05706 3.20847 3.13368
# Velocity P-wave (km/s) = 5.00599 5.34556 5.17856
#
# Compressibility (1/GPa) = 0.04161341
#
# Stress axis : x y z
#
# Youngs Moduli (GPa) = 66.58436 29.74372 48.50264
#
# Poissons Ratio (x) = -0.01379 0.27371
# Poissons Ratio (y) = -0.03087 0.41915
# Poissons Ratio (z) = 0.37575 0.25704
#
# Static dielectric constant tensor:
#      x y z
#    x 1.641270 0.000000 0.000000 
#    y 0.000000 1.631770 0.000000 
#    z 0.000000 0.000000 1.679470 
# 
# From -- ./inp_files/9148.got.cif
#   From: 2010.05.17/outbox.cif.g08.bks.cpg/sg64_5_cif.got.tgz:9148.got - 2010.06.03 16:29:19.
