data_PCOD9480989
_publ_section_title
;
Structure prediction by ZEFSAII (Michael W. Deem and Ramdas Pophale) SiO2 
 PCOD9480989
Probable space group: C M C A
;
_chemical_formula_sum "Si O2"
_cell_formula_units_Z 88
_cell_length_a 10.669804
_cell_length_b 25.503859
_cell_length_c 15.449443
_cell_angle_alpha 90.000000
_cell_angle_beta 90.000000
_cell_angle_gamma 90.000000
_cell_volume 4204.120610
_symmetry_space_group_name_H-M "C M C A"
_symmetry_group_IT_number 64
_symmetry_cell_setting 'orthorhombic'
loop_
_space_group_symop_operation_xyz
x,y,z
-x,1/2-y,1/2+z
x,-y,-z
-x,1/2+y,1/2-z
-x,-y,-z
x,1/2+y,1/2-z
-x,y,z
x,1/2-y,1/2+z
1/2+x,1/2+y,z
1/2-x,-y,1/2+z
1/2+x,1/2-y,-z
1/2-x,y,1/2-z
1/2-x,1/2-y,-z
1/2+x,y,1/2-z
1/2-x,1/2+y,z
1/2+x,-y,1/2+z
loop_
_atom_site_type_symbol
_atom_site_label
_atom_site_fract_x
_atom_site_fract_y
_atom_site_fract_z
Si Si1 0.140471 0.715386 0.958414
Si Si2 0.500000 0.473494 0.405106
Si Si3 0.500000 0.945713 0.443393
Si Si4 0.000000 0.512792 0.290405
Si Si5 0.368382 0.704950 0.190361
Si Si6 0.719585 0.904576 0.027916
Si Si7 0.295279 0.905047 0.652881
O O1 0.127757 0.743041 0.866016
O O2 0.183482 0.655476 0.956031
O O3 0.000000 0.718378 0.999254
O O4 0.250000 0.750000 0.000000
O O5 0.500000 0.500000 0.500000
O O6 0.500000 0.504918 0.313347
O O7 0.371744 0.439121 0.412067
O O8 0.632040 0.917056 0.462193
O O9 0.500000 0.000000 0.500000
O O10 0.500000 0.958557 0.341427
O O11 0.115011 0.546023 0.329921
O O12 0.500000 0.698566 0.239464
O O13 0.250000 0.709572 0.250000
O O14 0.355782 0.651973 0.132362
O O15 0.699758 0.916177 0.924752
O O16 0.250000 0.895735 0.750000
#
# Coordination Sequence:
#
# PCOD9480989 Si02
#       7
#    16   8   8   8  16  16  16
#     4  11  24  44  72 102 142 188 234 294 370 451
#     4  12  28  48  72 104 146 192 243 308 367 431
#     4  12  26  44  75  98 141 195 248 296 358 436
#     4  12  26  46  71 100 139 199 245 294 374 433
#     4  10  22  42  66 101 140 177 231 300 366 434
#     4  12  25  48  69 106 147 188 246 302 370 449
#     4  11  22  39  71 102 138 180 235 303 367 431
#
# _framework density 20.931844999999999
#
# number of rings (size 3 to 8) (size 9 to 14) (size 15 to 20)
#    0.000    0.727    5.455    1.636    3.818    0.727 
#    4.909    0.000    0.000    0.000    0.000    0.000 
#    0.000    0.000    0.000    0.000    0.000    0.000 
#
# Total GULP energy -245166.410635 kJ/mol
# GULP energy per Si atom -5571.963878 kJ/mol
# Density = 2.088420 g / cm^3
# Si number density = 20.931845 Si / 1000 Ang^3
#
#
#
# Elastic Constant Matrix: (Units=GPa)
#
#
# Indices 1 2 3 4 5 6 
#
# 1 154.0469 50.2370 25.9297 0.0000 0.0000 0.0000
# 2 50.2370 103.6523 36.8615 0.0000 0.0000 0.0000
# 3 25.9297 36.8615 99.0324 0.0000 0.0000 0.0000
# 4 0.0000 0.0000 0.0000 33.3099 0.0000 0.0000
# 5 0.0000 0.0000 0.0000 0.0000 33.7331 0.0000
# 6 0.0000 0.0000 0.0000 0.0000 0.0000 51.0137
#
#
#
# Elastic Compliance Matrix: (Units=1/GPa)
#
#
# Indices 1 2 3 4 5 6 
#
# 1 0.007755 -0.003500 -0.000728 0.000000 0.000000 0.000000
# 2 -0.003500 0.012699 -0.003810 0.000000 0.000000 0.000000
# 3 -0.000728 -0.003810 0.011707 0.000000 0.000000 0.000000
# 4 0.000000 0.000000 0.000000 0.030021 0.000000 0.000000
# 5 0.000000 0.000000 0.000000 0.000000 0.029645 0.000000
# 6 0.000000 0.000000 0.000000 0.000000 0.000000 0.019603
#
#
# Mechanical properties :
#
#
# Convention : Reuss Voigt Hill
#
# Bulk Modulus (GPa) = 62.17129 64.75424 63.46276
# Shear Modulus (GPa) = 37.63153 39.85821 38.74487
#
# Velocity S-wave (km/s) = 4.24466 4.36844 4.30699
# Velocity P-wave (km/s) = 7.33411 7.51314 7.42416
#
# Compressibility (1/GPa) = 0.01608460
#
# Stress axis : x y z
#
# Youngs Moduli (GPa) = 128.94179 78.74607 85.42201
#
# Poissons Ratio (x) = 0.27561 0.06218
# Poissons Ratio (y) = 0.45129 0.32549
# Poissons Ratio (z) = 0.09385 0.30005
#
# Static dielectric constant tensor:
#      x y z
#    x 1.821070 0.000000 0.000000 
#    y 0.000000 1.818040 0.000000 
#    z 0.000000 0.000000 1.940520 
# 
# From -- ./inp_files/22473.got.cif
#   From: 2010.05.17/outbox.cif.g08.bks.cpg/sg64_12_cif.got.tgz:22473.got - 2010.06.03 16:29:19.
