data_PCOD9480476
_publ_section_title
;
Structure prediction by ZEFSAII (Michael W. Deem and Ramdas Pophale) SiO2 
 PCOD9480476
Probable space group: C M C A
;
_chemical_formula_sum "Si O2"
_cell_formula_units_Z 128
_cell_length_a 22.966676
_cell_length_b 10.873523
_cell_length_c 26.316975
_cell_angle_alpha 90.000000
_cell_angle_beta 90.000000
_cell_angle_gamma 90.000000
_cell_volume 6572.103421
_symmetry_space_group_name_H-M "C M C A"
_symmetry_group_IT_number 64
_symmetry_cell_setting 'orthorhombic'
loop_
_space_group_symop_operation_xyz
x,y,z
-x,1/2-y,1/2+z
x,-y,-z
-x,1/2+y,1/2-z
-x,-y,-z
x,1/2+y,1/2-z
-x,y,z
x,1/2-y,1/2+z
1/2+x,1/2+y,z
1/2-x,-y,1/2+z
1/2+x,1/2-y,-z
1/2-x,y,1/2-z
1/2-x,1/2-y,-z
1/2+x,y,1/2-z
1/2-x,1/2+y,z
1/2+x,-y,1/2+z
loop_
_atom_site_type_symbol
_atom_site_label
_atom_site_fract_x
_atom_site_fract_y
_atom_site_fract_z
Si Si1 0.150981 0.173175 0.834368
Si Si2 0.851119 0.520541 0.874911
Si Si3 0.316764 0.630467 0.027432
Si Si4 0.645685 0.692423 0.130504
Si Si5 0.762295 0.968875 0.807439
Si Si6 0.814099 0.308653 0.938121
Si Si7 0.069138 0.891932 0.699549
Si Si8 0.066987 0.539129 0.313854
O O1 0.203862 0.100371 0.807490
O O2 0.174257 0.229103 0.887149
O O3 0.113803 0.276701 0.804714
O O4 0.104455 0.064554 0.841333
O O5 0.846039 0.665211 0.881189
O O6 0.797084 0.482476 0.838588
O O7 0.842906 0.440036 0.925671
O O8 0.909647 0.479862 0.845927
O O9 0.357443 0.625091 0.076373
O O10 0.253966 0.669064 0.050530
O O11 0.310874 0.500000 0.000000
O O12 0.335878 0.731813 0.986370
O O13 0.697261 0.630128 0.163615
O O14 0.588347 0.667928 0.163420
O O15 0.750000 0.930799 0.750000
O O16 0.078808 0.957939 0.753573
O O17 0.000000 0.859578 0.696315
O O18 0.000000 0.517390 0.321910
#
# Coordination Sequence:
#
# PCOD9480476 Si02
#       8
#    16  16  16  16  16  16  16  16
#     4  10  21  42  59  89 124 162 205 260 308 371
#     4  11  23  38  58  89 127 165 203 258 314 373
#     4  11  22  38  63  89 124 164 203 254 309 381
#     4  11  24  38  58  90 127 158 203 255 311 371
#     4  11  23  36  56  86 128 167 200 241 314 386
#     4  10  23  37  61  87 120 160 205 246 313 375
#     4  10  23  41  63  90 120 169 220 255 300 363
#     4  10  22  39  63  88 117 162 212 257 302 359
#
# _framework density 19.476261000000001
#
# number of rings (size 3 to 8) (size 9 to 14) (size 15 to 20)
#    0.000    1.500    1.250    4.125    8.750    1.000 
#    0.000    0.000    0.000    6.375    0.000    4.375 
#    0.000    0.000    0.000    0.000    0.000    0.000 
#
# Total GULP energy -357347.409736 kJ/mol
# GULP energy per Si atom -5583.553277 kJ/mol
# Density = 1.943193 g / cm^3
# Si number density = 19.476261 Si / 1000 Ang^3
#
#
#
# Elastic Constant Matrix: (Units=GPa)
#
#
# Indices 1 2 3 4 5 6 
#
# 1 59.5523 28.3231 27.0559 0.0000 0.0000 0.0000
# 2 28.3231 111.5009 43.6628 0.0000 0.0000 0.0000
# 3 27.0559 43.6628 92.1227 0.0000 0.0000 0.0000
# 4 0.0000 0.0000 0.0000 18.5189 0.0000 0.0000
# 5 0.0000 0.0000 0.0000 0.0000 17.0523 0.0000
# 6 0.0000 0.0000 0.0000 0.0000 0.0000 22.2575
#
#
#
# Elastic Compliance Matrix: (Units=1/GPa)
#
#
# Indices 1 2 3 4 5 6 
#
# 1 0.020425 -0.003486 -0.004346 0.000000 0.000000 0.000000
# 2 -0.003486 0.011608 -0.004478 0.000000 0.000000 0.000000
# 3 -0.004346 -0.004478 0.014254 0.000000 0.000000 0.000000
# 4 0.000000 0.000000 0.000000 0.053999 0.000000 0.000000
# 5 0.000000 0.000000 0.000000 0.000000 0.058643 0.000000
# 6 0.000000 0.000000 0.000000 0.000000 0.000000 0.044929
#
#
# Mechanical properties :
#
#
# Convention : Reuss Voigt Hill
#
# Bulk Modulus (GPa) = 46.15598 51.25104 48.70351
# Shear Modulus (GPa) = 21.21351 22.50801 21.86076
#
# Velocity S-wave (km/s) = 3.30388 3.40319 3.35390
# Velocity P-wave (km/s) = 6.18904 6.46638 6.32923
#
# Compressibility (1/GPa) = 0.02166567
#
# Stress axis : x y z
#
# Youngs Moduli (GPa) = 48.96054 86.15107 70.15670
#
# Poissons Ratio (x) = 0.30034 0.30492
# Poissons Ratio (y) = 0.17069 0.31414
# Poissons Ratio (z) = 0.21279 0.38576
#
# Static dielectric constant tensor:
#      x y z
#    x 1.684730 0.000000 0.000000 
#    y 0.000000 1.736900 0.000000 
#    z 0.000000 0.000000 1.676300 
# 
# From -- ./inp_files/46749.got.cif
#   From: 2010.05.17/outbox.cif.g08.bks.cpg/sg64_24_cif.got.tgz:46749.got - 2010.06.03 16:29:19.
