data_PCOD9480336
_publ_section_title
;
Structure prediction by ZEFSAII (Michael W. Deem and Ramdas Pophale) SiO2 
 PCOD9480336
Probable space group: C M C A
;
_chemical_formula_sum "Si O2"
_cell_formula_units_Z 116
_cell_length_a 15.723815
_cell_length_b 22.489702
_cell_length_c 18.295124
_cell_angle_alpha 90.000000
_cell_angle_beta 90.000000
_cell_angle_gamma 90.000000
_cell_volume 6469.593350
_symmetry_space_group_name_H-M "C M C A"
_symmetry_group_IT_number 64
_symmetry_cell_setting 'orthorhombic'
loop_
_space_group_symop_operation_xyz
x,y,z
-x,1/2-y,1/2+z
x,-y,-z
-x,1/2+y,1/2-z
-x,-y,-z
x,1/2+y,1/2-z
-x,y,z
x,1/2-y,1/2+z
1/2+x,1/2+y,z
1/2-x,-y,1/2+z
1/2+x,1/2-y,-z
1/2-x,y,1/2-z
1/2-x,1/2-y,-z
1/2+x,y,1/2-z
1/2-x,1/2+y,z
1/2+x,-y,1/2+z
loop_
_atom_site_type_symbol
_atom_site_label
_atom_site_fract_x
_atom_site_fract_y
_atom_site_fract_z
Si Si1 0.216429 0.839316 0.672599
Si Si2 0.099278 0.329511 0.132138
Si Si3 0.403689 0.861475 0.422546
Si Si4 0.334321 0.553334 0.422096
Si Si5 0.903686 0.269999 0.288234
Si Si6 0.733429 0.571212 0.582713
Si Si7 0.173339 0.720581 0.452928
Si Si8 0.000000 0.000000 0.500000
O O1 0.250000 0.862721 0.750000
O O2 0.166082 0.890935 0.631028
O O3 0.159195 0.782953 0.693591
O O4 0.287641 0.814607 0.616327
O O5 0.116168 0.303821 0.212927
O O6 0.165719 0.381845 0.115181
O O7 0.117075 0.275260 0.076657
O O8 0.000000 0.348868 0.126564
O O9 0.500000 0.884643 0.429590
O O10 0.401362 0.815997 0.354793
O O11 0.330058 0.908981 0.406745
O O12 0.377249 0.823780 0.494148
O O13 0.288283 0.494839 0.390060
O O14 0.283606 0.571221 0.495611
O O15 0.425449 0.532234 0.450620
O O16 0.000000 0.246885 0.280895
O O17 0.250000 0.750000 0.500000
#
# Coordination Sequence:
#
# PCOD9480336 Si02
#       8
#    16  16  16  16  16  16  16   4
#     4  12  22  39  64  84 128 169 201 252 325 382
#     4  11  22  37  60  90 126 160 200 249 314 374
#     4  11  22  39  61  87 119 161 208 259 303 366
#     4  10  23  41  62  95 121 158 211 259 316 371
#     4  10  23  38  57  92 125 161 203 252 313 382
#     4  10  21  40  64  85 121 154 211 258 301 370
#     4  12  20  36  59  91 122 160 203 253 309 371
#     4   8  20  40  68  88 118 152 208 262 312 368
#
# _framework density 17.930029999999999
#
# number of rings (size 3 to 8) (size 9 to 14) (size 15 to 20)
#    0.000    1.379    5.517    0.414    4.828    0.000 
#    2.483    1.379    0.000    0.000    0.000    0.000 
#    0.000    0.000    0.000    0.000    0.000    0.000 
#
# Total GULP energy -323271.099130 kJ/mol
# GULP energy per Si atom -5573.639640 kJ/mol
# Density = 1.788922 g / cm^3
# Si number density = 17.930030 Si / 1000 Ang^3
#
#
#
# Elastic Constant Matrix: (Units=GPa)
#
#
# Indices 1 2 3 4 5 6 
#
# 1 133.5363 59.7977 28.7231 0.0000 0.0000 0.0000
# 2 59.7977 63.0125 18.2734 0.0000 0.0000 0.0000
# 3 28.7231 18.2734 73.0028 0.0000 0.0000 0.0000
# 4 0.0000 0.0000 0.0000 20.0751 0.0000 0.0000
# 5 0.0000 0.0000 0.0000 0.0000 19.8462 0.0000
# 6 0.0000 0.0000 0.0000 0.0000 0.0000 -4.0935
#
#
#
# Elastic Compliance Matrix: (Units=1/GPa)
#
#
# Indices 1 2 3 4 5 6 
#
# 1 0.013355 -0.012023 -0.002245 0.000000 0.000000 0.000000
# 2 -0.012023 0.027935 -0.002262 0.000000 0.000000 0.000000
# 3 -0.002245 -0.002262 0.015148 0.000000 0.000000 0.000000
# 4 0.000000 0.000000 0.000000 0.049813 0.000000 0.000000
# 5 0.000000 0.000000 0.000000 0.000000 0.050388 0.000000
# 6 0.000000 0.000000 0.000000 0.000000 0.000000 -0.244288
#
#
# Mechanical properties :
#
#
# Convention : Reuss Voigt Hill
#
# Bulk Modulus (GPa) = 42.77524 53.68223 48.22873
# Shear Modulus (GPa) = -106.84761 18.01604 -44.41579
#
# Velocity S-wave (km/s) = -7.72792 3.17329 -4.98252
# Velocity P-wave (km/s) = 7.46453 6.59024 2.47871
#
# Compressibility (1/GPa) = 0.02337801
#
# Stress axis : x y z
#
# Youngs Moduli (GPa) = 74.87587 35.79683 66.01653
#
# Poissons Ratio (x) = 0.43038 0.14822
# Poissons Ratio (y) = 0.90023 0.14934
# Poissons Ratio (z) = 0.16811 0.08098
#
# Static dielectric constant tensor:
#      x y z
#    x 1.622860 0.000000 0.000000 
#    y 0.000000 1.606810 0.000000 
#    z 0.000000 0.000000 1.638930 
# 
# From -- ./inp_files/32502.got.cif
#   From: 2010.05.17/outbox.cif.g08.bks.cpg/sg64_17_cif.got.tgz:32502.got - 2010.06.03 16:29:19.
