data_PCOD9480128
_publ_section_title
;
Structure prediction by ZEFSAII (Michael W. Deem and Ramdas Pophale) SiO2 
 PCOD9480128
Probable space group: C M C A
;
_chemical_formula_sum "Si O2"
_cell_formula_units_Z 80
_cell_length_a 14.691997
_cell_length_b 17.552101
_cell_length_c 14.158141
_cell_angle_alpha 90.000000
_cell_angle_beta 90.000000
_cell_angle_gamma 90.000000
_cell_volume 3651.036489
_symmetry_space_group_name_H-M "C M C A"
_symmetry_group_IT_number 64
_symmetry_cell_setting 'orthorhombic'
loop_
_space_group_symop_operation_xyz
x,y,z
-x,1/2-y,1/2+z
x,-y,-z
-x,1/2+y,1/2-z
-x,-y,-z
x,1/2+y,1/2-z
-x,y,z
x,1/2-y,1/2+z
1/2+x,1/2+y,z
1/2-x,-y,1/2+z
1/2+x,1/2-y,-z
1/2-x,y,1/2-z
1/2-x,1/2-y,-z
1/2+x,y,1/2-z
1/2-x,1/2+y,z
1/2+x,-y,1/2+z
loop_
_atom_site_type_symbol
_atom_site_label
_atom_site_fract_x
_atom_site_fract_y
_atom_site_fract_z
Si Si1 0.221064 0.905873 0.560840
Si Si2 0.892034 0.804137 0.262418
Si Si3 0.395370 0.342145 0.873212
Si Si4 0.198997 0.449389 0.150467
Si Si5 0.605757 0.251890 0.567562
O O1 0.317656 0.904469 0.615042
O O2 0.241428 0.926067 0.451472
O O3 0.171112 0.824587 0.563482
O O4 0.160209 0.968735 0.615932
O O5 0.863777 0.720893 0.298200
O O6 0.859443 0.875240 0.322638
O O7 0.865675 0.804119 0.152794
O O8 0.000000 0.804729 0.270173
O O9 0.500000 0.366971 0.855614
O O10 0.393907 0.294670 0.970945
O O11 0.250000 0.462028 0.250000
O O12 0.500000 0.275680 0.584455
#
# Coordination Sequence:
#
# PCOD9480128 Si02
#       5
#    16  16  16  16  16
#     4  11  24  41  63  93 127 173 213 260 322 383
#     4  10  22  39  63  92 123 161 206 261 320 377
#     4  10  21  39  63  92 123 161 213 262 314 377
#     4  11  25  41  59  92 129 166 214 256 325 387
#     4  10  21  38  66 100 125 162 214 267 323 381
#
# _framework density 21.911587000000001
#
# number of rings (size 3 to 8) (size 9 to 14) (size 15 to 20)
#    0.000    1.600    2.000    1.800    5.600    0.800 
#    0.000    5.000    0.000    0.000    0.000    0.000 
#    0.000    0.000    0.000    0.000    0.000    0.000 
#
# Total GULP energy -223008.022389 kJ/mol
# GULP energy per Si atom -5575.200560 kJ/mol
# Density = 2.186172 g / cm^3
# Si number density = 21.911587 Si / 1000 Ang^3
#
#
#
# Elastic Constant Matrix: (Units=GPa)
#
#
# Indices 1 2 3 4 5 6 
#
# 1 54.2647 18.1821 10.9222 0.0000 0.0000 0.0000
# 2 18.1821 56.8340 10.9855 0.0000 0.0000 0.0000
# 3 10.9222 10.9855 96.5469 0.0000 0.0000 0.0000
# 4 0.0000 0.0000 0.0000 39.4743 0.0000 0.0000
# 5 0.0000 0.0000 0.0000 0.0000 25.4049 0.0000
# 6 0.0000 0.0000 0.0000 0.0000 0.0000 7.9677
#
#
#
# Elastic Compliance Matrix: (Units=1/GPa)
#
#
# Indices 1 2 3 4 5 6 
#
# 1 0.020891 -0.006367 -0.001639 0.000000 0.000000 0.000000
# 2 -0.006367 0.019931 -0.001548 0.000000 0.000000 0.000000
# 3 -0.001639 -0.001548 0.010719 0.000000 0.000000 0.000000
# 4 0.000000 0.000000 0.000000 0.025333 0.000000 0.000000
# 5 0.000000 0.000000 0.000000 0.000000 0.039363 0.000000
# 6 0.000000 0.000000 0.000000 0.000000 0.000000 0.125506
#
#
# Mechanical properties :
#
#
# Convention : Reuss Voigt Hill
#
# Bulk Modulus (GPa) = 30.83084 31.98058 31.40571
# Shear Modulus (GPa) = 18.40526 25.73976 22.07251
#
# Velocity S-wave (km/s) = 2.90138 3.43112 3.17731
# Velocity P-wave (km/s) = 5.03241 5.50670 5.27489
#
# Compressibility (1/GPa) = 0.03243506
#
# Stress axis : x y z
#
# Youngs Moduli (GPa) = 47.86675 50.17301 93.29083
#
# Poissons Ratio (x) = 0.31944 0.15290
# Poissons Ratio (y) = 0.30475 0.14438
# Poissons Ratio (z) = 0.07845 0.07765
#
# Static dielectric constant tensor:
#      x y z
#    x 1.846010 0.000000 0.000000 
#    y 0.000000 1.869480 0.000000 
#    z 0.000000 0.000000 1.845200 
# 
# From -- ./inp_files/25279.got.cif
#   From: 2010.05.17/outbox.cif.g08.bks.cpg/sg64_13_cif.got.tgz:25279.got - 2010.06.03 16:29:19.
