data_PCOD9480630
_publ_section_title
;
Structure prediction by ZEFSAII (Michael W. Deem and Ramdas Pophale) SiO2 
 PCOD9480630
Probable space group: C M C A
;
_chemical_formula_sum "Si O2"
_cell_formula_units_Z 96
_cell_length_a 8.510280
_cell_length_b 30.673995
_cell_length_c 19.160345
_cell_angle_alpha 90.000000
_cell_angle_beta 90.000000
_cell_angle_gamma 90.000000
_cell_volume 5001.698583
_symmetry_space_group_name_H-M "C M C A"
_symmetry_group_IT_number 64
_symmetry_cell_setting 'orthorhombic'
loop_
_space_group_symop_operation_xyz
x,y,z
-x,1/2-y,1/2+z
x,-y,-z
-x,1/2+y,1/2-z
-x,-y,-z
x,1/2+y,1/2-z
-x,y,z
x,1/2-y,1/2+z
1/2+x,1/2+y,z
1/2-x,-y,1/2+z
1/2+x,1/2-y,-z
1/2-x,y,1/2-z
1/2-x,1/2-y,-z
1/2+x,y,1/2-z
1/2-x,1/2+y,z
1/2+x,-y,1/2+z
loop_
_atom_site_type_symbol
_atom_site_label
_atom_site_fract_x
_atom_site_fract_y
_atom_site_fract_z
Si Si1 0.311218 0.613368 0.174674
Si Si2 0.689420 0.658887 0.578438
Si Si3 0.689664 0.437301 0.056585
Si Si4 0.309373 0.029965 0.401844
Si Si5 0.312085 0.763928 0.172556
Si Si6 0.188123 0.687573 0.074276
O O1 0.500000 0.616033 0.172555
O O2 0.250000 0.627014 0.250000
O O3 0.260144 0.563867 0.157166
O O4 0.241580 0.644761 0.116087
O O5 0.500000 0.658385 0.577613
O O6 0.746537 0.609256 0.579325
O O7 0.741046 0.689099 0.642708
O O8 0.741563 0.681613 0.505734
O O9 0.500000 0.435334 0.058380
O O10 0.743075 0.479800 0.100422
O O11 0.735175 0.449085 0.976709
O O12 0.500000 0.028768 0.401668
O O13 0.500000 0.763120 0.175129
O O14 0.250000 0.754993 0.250000
O O15 0.257813 0.728121 0.116455
O O16 0.000000 0.690980 0.074892
#
# Coordination Sequence:
#
# PCOD9480630 Si02
#       6
#    16  16  16  16  16  16
#     4  11  21  35  54  80 115 153 189 231 282 336
#     4  10  22  38  58  87 117 143 182 235 283 331
#     4   9  16  32  58  83 107 142 186 228 272 325
#     4   8  16  31  53  80 109 143 185 227 269 324
#     4  11  24  42  60  81 112 149 187 230 280 336
#     4  11  22  38  59  85 113 144 185 232 283 338
#
# _framework density 19.193480000000001
#
# number of rings (size 3 to 8) (size 9 to 14) (size 15 to 20)
#    0.000    2.000    1.667    3.500    0.000    2.000 
#    0.000    4.167    0.000    4.000    0.000    0.000 
#    0.000    0.000    0.000    0.000    0.000    0.000 
#
# Total GULP energy -267910.738684 kJ/mol
# GULP energy per Si atom -5581.473723 kJ/mol
# Density = 1.914979 g / cm^3
# Si number density = 19.193480 Si / 1000 Ang^3
#
#
#
# Elastic Constant Matrix: (Units=GPa)
#
#
# Indices 1 2 3 4 5 6 
#
# 1 27.3458 14.2539 8.7239 0.0000 0.0000 0.0000
# 2 14.2539 124.9955 13.2406 0.0000 0.0000 0.0000
# 3 8.7239 13.2406 33.4301 0.0000 0.0000 0.0000
# 4 0.0000 0.0000 0.0000 14.2657 0.0000 0.0000
# 5 0.0000 0.0000 0.0000 0.0000 9.2547 0.0000
# 6 0.0000 0.0000 0.0000 0.0000 0.0000 31.3901
#
#
#
# Elastic Compliance Matrix: (Units=1/GPa)
#
#
# Indices 1 2 3 4 5 6 
#
# 1 0.041502 -0.003742 -0.009348 0.000000 0.000000 0.000000
# 2 -0.003742 0.008688 -0.002464 0.000000 0.000000 0.000000
# 3 -0.009348 -0.002464 0.033329 0.000000 0.000000 0.000000
# 4 0.000000 0.000000 0.000000 0.070098 0.000000 0.000000
# 5 0.000000 0.000000 0.000000 0.000000 0.108054 0.000000
# 6 0.000000 0.000000 0.000000 0.000000 0.000000 0.031857
#
#
# Mechanical properties :
#
#
# Convention : Reuss Voigt Hill
#
# Bulk Modulus (GPa) = 19.08080 28.68978 23.88529
# Shear Modulus (GPa) = 14.61532 20.95229 17.78381
#
# Velocity S-wave (km/s) = 2.76247 3.30758 3.04724
# Velocity P-wave (km/s) = 4.48753 5.43754 4.98522
#
# Compressibility (1/GPa) = 0.05240869
#
# Stress axis : x y z
#
# Youngs Moduli (GPa) = 24.09550 115.09977 30.00420
#
# Poissons Ratio (x) = 0.43075 0.28048
# Poissons Ratio (y) = 0.09018 0.07394
# Poissons Ratio (z) = 0.22524 0.28366
#
# Static dielectric constant tensor:
#      x y z
#    x 1.653690 0.000000 0.000000 
#    y 0.000000 1.687990 0.000000 
#    z 0.000000 0.000000 1.636460 
# 
# From -- ./inp_files/37091.got.cif
#   From: 2010.05.17/outbox.cif.g08.bks.cpg/sg64_19_cif.got.tgz:37091.got - 2010.06.03 16:29:19.
