data_PCOD9480765
_publ_section_title
;
Structure prediction by ZEFSAII (Michael W. Deem and Ramdas Pophale) SiO2 
 PCOD9480765
Probable space group: C M C A
;
_chemical_formula_sum "Si O2"
_cell_formula_units_Z 68
_cell_length_a 15.112353
_cell_length_b 19.125224
_cell_length_c 10.059716
_cell_angle_alpha 90.000000
_cell_angle_beta 90.000000
_cell_angle_gamma 90.000000
_cell_volume 2907.530907
_symmetry_space_group_name_H-M "C M C A"
_symmetry_group_IT_number 64
_symmetry_cell_setting 'orthorhombic'
loop_
_space_group_symop_operation_xyz
x,y,z
-x,1/2-y,1/2+z
x,-y,-z
-x,1/2+y,1/2-z
-x,-y,-z
x,1/2+y,1/2-z
-x,y,z
x,1/2-y,1/2+z
1/2+x,1/2+y,z
1/2-x,-y,1/2+z
1/2+x,1/2-y,-z
1/2-x,y,1/2-z
1/2-x,1/2-y,-z
1/2+x,y,1/2-z
1/2-x,1/2+y,z
1/2+x,-y,1/2+z
loop_
_atom_site_type_symbol
_atom_site_label
_atom_site_fract_x
_atom_site_fract_y
_atom_site_fract_z
Si Si1 0.154743 0.400907 0.461412
Si Si2 0.184326 0.246539 0.875442
Si Si3 0.648105 0.395634 0.561418
Si Si4 0.900121 0.963760 0.291319
Si Si5 0.500000 0.000000 0.500000
O O1 0.130570 0.323671 0.407124
O O2 0.245786 0.400694 0.541950
O O3 0.166187 0.443339 0.324140
O O4 0.077807 0.441103 0.534743
O O5 0.250000 0.239350 0.750000
O O6 0.131342 0.319389 0.876896
O O7 0.250000 0.250000 0.000000
O O8 0.615148 0.460189 0.648351
O O9 0.607978 0.409787 0.414483
O O10 0.000000 0.960463 0.228570
#
# Coordination Sequence:
#
# PCOD9480765 Si02
#       5
#    16  16  16  16   4
#     4  11  23  42  64  94 133 177 227 283 347 411
#     4  10  22  42  68 100 131 173 235 287 344 414
#     4  10  22  39  71  95 129 179 235 280 340 419
#     4  11  22  42  62  99 138 177 226 287 356 419
#     4  12  24  40  60  98 130 170 224 278 336 416
#
# _framework density 23.387540999999999
#
# number of rings (size 3 to 8) (size 9 to 14) (size 15 to 20)
#    0.000    1.412    1.176    6.353    0.000    7.529 
#    4.235    0.000    0.000    0.000    0.000    0.000 
#    0.000    0.000    0.000    0.000    0.000    0.000 
#
# Total GULP energy -189691.944835 kJ/mol
# GULP energy per Si atom -5579.174848 kJ/mol
# Density = 2.333431 g / cm^3
# Si number density = 23.387541 Si / 1000 Ang^3
#
#
#
# Elastic Constant Matrix: (Units=GPa)
#
#
# Indices 1 2 3 4 5 6 
#
# 1 94.6016 25.6294 -6.4594 0.0000 0.0000 0.0000
# 2 25.6294 166.6203 3.6313 0.0000 0.0000 0.0000
# 3 -6.4594 3.6313 65.5736 0.0000 0.0000 0.0000
# 4 0.0000 0.0000 0.0000 25.4542 0.0000 0.0000
# 5 0.0000 0.0000 0.0000 0.0000 41.8554 0.0000
# 6 0.0000 0.0000 0.0000 0.0000 0.0000 -10.8563
#
#
#
# Elastic Compliance Matrix: (Units=1/GPa)
#
#
# Indices 1 2 3 4 5 6 
#
# 1 0.011123 -0.001737 0.001192 0.000000 0.000000 0.000000
# 2 -0.001737 0.006280 -0.000519 0.000000 0.000000 0.000000
# 3 0.001192 -0.000519 0.015396 0.000000 0.000000 0.000000
# 4 0.000000 0.000000 0.000000 0.039286 0.000000 0.000000
# 5 0.000000 0.000000 0.000000 0.000000 0.023892 0.000000
# 6 0.000000 0.000000 0.000000 0.000000 0.000000 -0.092112
#
#
# Mechanical properties :
#
#
# Convention : Reuss Voigt Hill
#
# Bulk Modulus (GPa) = 32.60396 41.37756 36.99076
# Shear Modulus (GPa) = 308.33901 31.55694 169.94797
#
# Velocity S-wave (km/s) = 11.49457 3.67727 8.53368
# Velocity P-wave (km/s) = 13.78905 5.98000 10.62775
#
# Compressibility (1/GPa) = 0.03067112
#
# Stress axis : x y z
#
# Youngs Moduli (GPa) = 89.90732 159.23219 64.95116
#
# Poissons Ratio (x) = 0.27656 -0.07741
# Poissons Ratio (y) = 0.15615 0.03370
# Poissons Ratio (z) = -0.10715 0.08262
#
# Static dielectric constant tensor:
#      x y z
#    x 1.841210 0.000000 0.000000 
#    y 0.000000 1.891900 0.000000 
#    z 0.000000 0.000000 1.652530 
# 
# From -- ./inp_files/14224.got.cif
#   From: 2010.05.17/outbox.cif.g08.bks.cpg/sg64_8_cif.got.tgz:14224.got - 2010.06.03 16:29:19.
