data_PCOD9480018
_publ_section_title
;
Structure prediction by ZEFSAII (Michael W. Deem and Ramdas Pophale) SiO2 
 PCOD9480018
Probable space group: C M C A
;
_chemical_formula_sum "Si O2"
_cell_formula_units_Z 96
_cell_length_a 15.938336
_cell_length_b 15.075687
_cell_length_c 21.380679
_cell_angle_alpha 90.000000
_cell_angle_beta 90.000000
_cell_angle_gamma 90.000000
_cell_volume 5137.378731
_symmetry_space_group_name_H-M "C M C A"
_symmetry_group_IT_number 64
_symmetry_cell_setting 'orthorhombic'
loop_
_space_group_symop_operation_xyz
x,y,z
-x,1/2-y,1/2+z
x,-y,-z
-x,1/2+y,1/2-z
-x,-y,-z
x,1/2+y,1/2-z
-x,y,z
x,1/2-y,1/2+z
1/2+x,1/2+y,z
1/2-x,-y,1/2+z
1/2+x,1/2-y,-z
1/2-x,y,1/2-z
1/2-x,1/2-y,-z
1/2+x,y,1/2-z
1/2-x,1/2+y,z
1/2+x,-y,1/2+z
loop_
_atom_site_type_symbol
_atom_site_label
_atom_site_fract_x
_atom_site_fract_y
_atom_site_fract_z
Si Si1 0.100643 0.435988 0.812723
Si Si2 0.097967 0.447894 0.065445
Si Si3 0.746961 0.308933 0.438702
Si Si4 0.691376 0.749254 0.809664
Si Si5 0.905017 0.938186 0.060645
Si Si6 0.598937 0.559189 0.800689
O O1 0.121131 0.487828 0.876805
O O2 0.134328 0.336425 0.812803
O O3 0.131737 0.494624 0.753699
O O4 0.000000 0.431845 0.808583
O O5 0.163150 0.367628 0.063942
O O6 0.000000 0.420898 0.073411
O O7 0.104323 0.500000 0.000000
O O8 0.750000 0.250000 0.500000
O O9 0.756578 0.256348 0.373960
O O10 0.829893 0.369473 0.443397
O O11 0.750000 0.757879 0.750000
O O12 0.642392 0.655499 0.802446
O O13 0.893642 0.981901 0.129415
O O14 0.000000 0.899091 0.061684
O O15 0.900500 0.000000 0.000000
O O16 0.500000 0.573203 0.788733
#
# Coordination Sequence:
#
# PCOD9480018 Si02
#       6
#    16  16  16  16  16  16
#     4  10  21  38  60  83 111 150 193 239 291 345
#     4  10  21  38  60  84 112 151 197 243 291 342
#     4  11  23  37  56  84 116 151 189 235 287 339
#     4  11  23  36  55  84 115 148 190 236 290 350
#     4   9  19  36  58  82 109 144 184 228 282 339
#     4   9  19  37  58  80 110 148 189 235 286 342
#
# _framework density 18.686572999999999
#
# number of rings (size 3 to 8) (size 9 to 14) (size 15 to 20)
#    0.000    2.000    0.000    3.000    0.000    6.000 
#    0.000    0.833    0.000    0.000    0.000    0.000 
#    0.000    0.000    0.000    0.000    0.000    0.000 
#
# Total GULP energy -267826.302318 kJ/mol
# GULP energy per Si atom -5579.714632 kJ/mol
# Density = 1.864404 g / cm^3
# Si number density = 18.686573 Si / 1000 Ang^3
#
#
#
# Elastic Constant Matrix: (Units=GPa)
#
#
# Indices 1 2 3 4 5 6 
#
# 1 63.3710 42.9243 55.0252 0.0000 0.0000 0.0000
# 2 42.9243 104.1379 73.3596 0.0000 0.0000 0.0000
# 3 55.0252 73.3596 177.2929 0.0000 0.0000 0.0000
# 4 0.0000 0.0000 0.0000 35.0720 0.0000 0.0000
# 5 0.0000 0.0000 0.0000 0.0000 258.4352 0.0000
# 6 0.0000 0.0000 0.0000 0.0000 0.0000-3215.8989
#
#
#
# Elastic Compliance Matrix: (Units=1/GPa)
#
#
# Indices 1 2 3 4 5 6 
#
# 1 0.024518 -0.006698 -0.004838 0.000000 0.000000 0.000000
# 2 -0.006698 0.015383 -0.004286 0.000000 0.000000 0.000000
# 3 -0.004838 -0.004286 0.008916 0.000000 0.000000 0.000000
# 4 0.000000 0.000000 0.000000 0.028513 0.000000 0.000000
# 5 0.000000 0.000000 0.000000 0.000000 0.003869 0.000000
# 6 0.000000 0.000000 0.000000 0.000000 0.000000 -0.000311
#
#
# Mechanical properties :
#
#
# Convention : Reuss Voigt Hill
#
# Bulk Modulus (GPa) = 58.23483 76.38000 67.30742
# Shear Modulus (GPa) = 42.28134 -572.91219 -265.31542
#
# Velocity S-wave (km/s) = 4.76190 -17.52872 -11.92854
# Velocity P-wave (km/s) = 7.84002 19.20186 12.39447
#
# Compressibility (1/GPa) = 0.01717185
#
# Stress axis : x y z
#
# Youngs Moduli (GPa) = 40.78691 65.00741 112.16410
#
# Poissons Ratio (x) = 0.43540 0.54265
# Poissons Ratio (y) = 0.27318 0.48077
# Poissons Ratio (z) = 0.19733 0.27864
#
# Static dielectric constant tensor:
#      x y z
#    x 1.641530 0.000000 0.000000 
#    y 0.000000 1.619090 0.000000 
#    z 0.000000 0.000000 1.662280 
# 
# From -- ./inp_files/39154.got.cif
#   From: 2010.05.17/outbox.cif.g08.bks.cpg/sg64_20_cif.got.tgz:39154.got - 2010.06.03 16:29:19.
