data_PCOD9480141
_publ_section_title
;
Structure prediction by ZEFSAII (Michael W. Deem and Ramdas Pophale) SiO2 
 PCOD9480141
Probable space group: C M C A
;
_chemical_formula_sum "Si O2"
_cell_formula_units_Z 96
_cell_length_a 21.824191
_cell_length_b 14.078881
_cell_length_c 14.689213
_cell_angle_alpha 90.000000
_cell_angle_beta 90.000000
_cell_angle_gamma 90.000000
_cell_volume 4513.410348
_symmetry_space_group_name_H-M "C M C A"
_symmetry_group_IT_number 64
_symmetry_cell_setting 'orthorhombic'
loop_
_space_group_symop_operation_xyz
x,y,z
-x,1/2-y,1/2+z
x,-y,-z
-x,1/2+y,1/2-z
-x,-y,-z
x,1/2+y,1/2-z
-x,y,z
x,1/2-y,1/2+z
1/2+x,1/2+y,z
1/2-x,-y,1/2+z
1/2+x,1/2-y,-z
1/2-x,y,1/2-z
1/2-x,1/2-y,-z
1/2+x,y,1/2-z
1/2-x,1/2+y,z
1/2+x,-y,1/2+z
loop_
_atom_site_type_symbol
_atom_site_label
_atom_site_fract_x
_atom_site_fract_y
_atom_site_fract_z
Si Si1 0.171017 0.108364 0.993641
Si Si2 0.569275 0.267740 0.520064
Si Si3 0.931040 0.613838 0.208415
Si Si4 0.691879 0.324449 0.810960
Si Si5 0.275273 0.107938 0.844049
Si Si6 0.401837 0.054665 0.908294
O O1 0.116882 0.182942 0.981576
O O2 0.219495 0.120263 0.912947
O O3 0.202062 0.133392 0.089367
O O4 0.149513 0.000000 0.000000
O O5 0.500000 0.232951 0.517411
O O6 0.577309 0.326682 0.614240
O O7 0.579713 0.338324 0.434153
O O8 0.873497 0.640290 0.271869
O O9 0.928654 0.503326 0.176600
O O10 0.000000 0.634044 0.243983
O O11 0.750000 0.350890 0.750000
O O12 0.695062 0.209968 0.818609
O O13 0.250000 0.066318 0.750000
O O14 0.329058 0.050264 0.892318
O O15 0.420301 0.000000 0.000000
#
# Coordination Sequence:
#
# PCOD9480141 Si02
#       6
#    16  16  16  16  16  16
#     4  12  27  42  66  98 135 180 226 283 343 401
#     4  10  21  43  68  93 131 177 229 279 340 406
#     4  10  23  43  69 104 137 173 225 286 338 402
#     4  11  25  43  67  96 135 176 223 274 338 403
#     4  11  24  42  66  96 131 168 221 279 339 404
#     4  10  21  38  70 100 129 173 220 282 339 399
#
# _framework density 21.269946999999998
#
# number of rings (size 3 to 8) (size 9 to 14) (size 15 to 20)
#    0.000    1.333    1.667    3.500    9.333    3.000 
#    0.000    0.000    0.000    0.000    0.000    0.000 
#    0.000    0.000    0.000    0.000    0.000    0.000 
#
# Total GULP energy -268302.112666 kJ/mol
# GULP energy per Si atom -5589.627347 kJ/mol
# Density = 2.122154 g / cm^3
# Si number density = 21.269947 Si / 1000 Ang^3
#
#
#
# Elastic Constant Matrix: (Units=GPa)
#
#
# Indices 1 2 3 4 5 6 
#
# 1 152.3719 32.3210 54.8186 0.0000 0.0000 0.0000
# 2 32.3210 43.7202 -7.0269 0.0000 0.0000 0.0000
# 3 54.8186 -7.0269 98.5134 0.0000 0.0000 0.0000
# 4 0.0000 0.0000 0.0000 17.1875 0.0000 0.0000
# 5 0.0000 0.0000 0.0000 0.0000 25.4527 0.0000
# 6 0.0000 0.0000 0.0000 0.0000 0.0000 18.9393
#
#
#
# Elastic Compliance Matrix: (Units=1/GPa)
#
#
# Indices 1 2 3 4 5 6 
#
# 1 0.010930 -0.009162 -0.006735 0.000000 0.000000 0.000000
# 2 -0.009162 0.030819 0.007297 0.000000 0.000000 0.000000
# 3 -0.006735 0.007297 0.014419 0.000000 0.000000 0.000000
# 4 0.000000 0.000000 0.000000 0.058182 0.000000 0.000000
# 5 0.000000 0.000000 0.000000 0.000000 0.039288 0.000000
# 6 0.000000 0.000000 0.000000 0.000000 0.000000 0.052800
#
#
# Mechanical properties :
#
#
# Convention : Reuss Voigt Hill
#
# Bulk Modulus (GPa) = 25.66345 50.53675 38.10010
# Shear Modulus (GPa) = 21.13009 26.61544 23.87277
#
# Velocity S-wave (km/s) = 3.15528 3.54123 3.35381
# Velocity P-wave (km/s) = 5.03649 6.36645 5.74012
#
# Compressibility (1/GPa) = 0.03896592
#
# Stress axis : x y z
#
# Youngs Moduli (GPa) = 91.49441 32.44745 69.35113
#
# Poissons Ratio (x) = 0.29730 0.46711
# Poissons Ratio (y) = 0.83832 -0.50605
# Poissons Ratio (z) = 0.61626 -0.23676
#
# Static dielectric constant tensor:
#      x y z
#    x 1.741000 0.000000 0.000000 
#    y 0.000000 1.398200 0.000000 
#    z 0.000000 0.000000 1.761700 
# 
# From -- ./inp_files/26298.got.cif
#   From: 2010.05.17/outbox.cif.g08.bks.cpg/sg64_14_cif.got.tgz:26298.got - 2010.06.03 16:29:19.
