data_PCOD9480137
_publ_section_title
;
Structure prediction by ZEFSAII (Michael W. Deem and Ramdas Pophale) SiO2 
 PCOD9480137
Probable space group: C M C A
;
_chemical_formula_sum "Si O2"
_cell_formula_units_Z 116
_cell_length_a 26.561822
_cell_length_b 8.820852
_cell_length_c 23.587478
_cell_angle_alpha 90.000000
_cell_angle_beta 90.000000
_cell_angle_gamma 90.000000
_cell_volume 5526.496578
_symmetry_space_group_name_H-M "C M C A"
_symmetry_group_IT_number 64
_symmetry_cell_setting 'orthorhombic'
loop_
_space_group_symop_operation_xyz
x,y,z
-x,1/2-y,1/2+z
x,-y,-z
-x,1/2+y,1/2-z
-x,-y,-z
x,1/2+y,1/2-z
-x,y,z
x,1/2-y,1/2+z
1/2+x,1/2+y,z
1/2-x,-y,1/2+z
1/2+x,1/2-y,-z
1/2-x,y,1/2-z
1/2-x,1/2-y,-z
1/2+x,y,1/2-z
1/2-x,1/2+y,z
1/2+x,-y,1/2+z
loop_
_atom_site_type_symbol
_atom_site_label
_atom_site_fract_x
_atom_site_fract_y
_atom_site_fract_z
Si Si1 0.745907 0.963785 0.140358
Si Si2 0.371136 0.161265 0.027048
Si Si3 0.084673 0.839007 0.927388
Si Si4 0.733076 0.710891 0.436838
Si Si5 0.000000 0.500000 0.500000
Si Si6 0.142824 0.444940 0.201177
Si Si7 0.942381 0.000252 0.389803
Si Si8 0.351572 0.914235 0.681102
O O1 0.745624 0.038973 0.078034
O O2 0.797216 0.010708 0.170133
O O3 0.743945 0.791610 0.118683
O O4 0.696883 0.003064 0.177407
O O5 0.327198 0.224111 0.066216
O O6 0.421368 0.112568 0.061015
O O7 0.378677 0.281397 0.977368
O O8 0.353881 0.000000 0.000000
O O9 0.043714 0.946692 0.954683
O O10 0.060401 0.675920 0.909696
O O11 0.114507 0.914715 0.875589
O O12 0.750000 0.750000 0.500000
O O13 0.098832 0.503477 0.159776
O O14 0.148626 0.263452 0.197555
O O15 0.129204 0.496656 0.264028
O O16 0.000000 0.037107 0.375481
#
# Coordination Sequence:
#
# PCOD9480137 Si02
#       8
#    16  16  16  16   4  16  16  16
#     4  12  24  42  66 100 138 182 228 282 344 413
#     4  10  21  38  68  97 138 173 225 271 337 416
#     4  10  24  42  66  99 134 179 216 283 345 418
#     4  12  24  38  64 100 143 184 217 276 338 421
#     4  12  24  44  66  96 148 172 208 278 354 422
#     4  11  25  46  68  96 133 179 237 292 338 406
#     4  10  21  43  70  99 130 176 227 278 343 407
#     4  11  26  46  68  96 135 181 235 287 348 405
#
# _framework density 20.989788999999998
#
# number of rings (size 3 to 8) (size 9 to 14) (size 15 to 20)
#    0.000    1.103    3.448    2.483    6.759    1.931 
#    1.241    0.000    0.000    0.000    0.000    0.000 
#    0.000    0.000    0.000    0.000    0.000    0.000 
#
# Total GULP energy -323193.183574 kJ/mol
# GULP energy per Si atom -5572.296269 kJ/mol
# Density = 2.094202 g / cm^3
# Si number density = 20.989789 Si / 1000 Ang^3
#
#
#
# Elastic Constant Matrix: (Units=GPa)
#
#
# Indices 1 2 3 4 5 6 
#
# 1 101.8872 13.8343 60.8265 0.0000 0.0000 0.0000
# 2 13.8343 26.6005 34.7713 0.0000 0.0000 0.0000
# 3 60.8265 34.7713 123.3916 0.0000 0.0000 0.0000
# 4 0.0000 0.0000 0.0000 43.0401 0.0000 0.0000
# 5 0.0000 0.0000 0.0000 0.0000 2.2342 0.0000
# 6 0.0000 0.0000 0.0000 0.0000 0.0000 10.6949
#
#
#
# Elastic Compliance Matrix: (Units=1/GPa)
#
#
# Indices 1 2 3 4 5 6 
#
# 1 0.014035 0.002762 -0.007697 0.000000 0.000000 0.000000
# 2 0.002762 0.060060 -0.018286 0.000000 0.000000 0.000000
# 3 -0.007697 -0.018286 0.017051 0.000000 0.000000 0.000000
# 4 0.000000 0.000000 0.000000 0.023234 0.000000 0.000000
# 5 0.000000 0.000000 0.000000 0.000000 0.447588 0.000000
# 6 0.000000 0.000000 0.000000 0.000000 0.000000 0.093503
#
#
# Mechanical properties :
#
#
# Convention : Reuss Voigt Hill
#
# Bulk Modulus (GPa) = 22.36941 52.30483 37.33712
# Shear Modulus (GPa) = 6.97531 20.69032 13.83282
#
# Velocity S-wave (km/s) = 1.82494 3.14304 2.56994
# Velocity P-wave (km/s) = 3.88857 6.17616 5.16071
#
# Compressibility (1/GPa) = 0.04470390
#
# Stress axis : x y z
#
# Youngs Moduli (GPa) = 71.25177 16.65006 58.64619
#
# Poissons Ratio (x) = -0.04598 0.45139
# Poissons Ratio (y) = -0.19679 1.07241
# Poissons Ratio (z) = 0.54841 0.30446
#
# Static dielectric constant tensor:
#      x y z
#    x 1.744330 0.000000 0.000000 
#    y 0.000000 1.781530 0.000000 
#    z 0.000000 0.000000 1.726040 
# 
# From -- ./inp_files/46935.got.cif
#   From: 2010.05.17/outbox.cif.g08.bks.cpg/sg64_24_cif.got.tgz:46935.got - 2010.06.03 16:29:19.
