data_PCOD9480088
_publ_section_title
;
Structure prediction by ZEFSAII (Michael W. Deem and Ramdas Pophale) SiO2 
 PCOD9480088
Probable space group: C M C A
;
_chemical_formula_sum "Si O2"
_cell_formula_units_Z 104
_cell_length_a 24.178556
_cell_length_b 26.656387
_cell_length_c 8.413756
_cell_angle_alpha 90.000000
_cell_angle_beta 90.000000
_cell_angle_gamma 90.000000
_cell_volume 5422.774665
_symmetry_space_group_name_H-M "C M C A"
_symmetry_group_IT_number 64
_symmetry_cell_setting 'orthorhombic'
loop_
_space_group_symop_operation_xyz
x,y,z
-x,1/2-y,1/2+z
x,-y,-z
-x,1/2+y,1/2-z
-x,-y,-z
x,1/2+y,1/2-z
-x,y,z
x,1/2-y,1/2+z
1/2+x,1/2+y,z
1/2-x,-y,1/2+z
1/2+x,1/2-y,-z
1/2-x,y,1/2-z
1/2-x,1/2-y,-z
1/2+x,y,1/2-z
1/2-x,1/2+y,z
1/2+x,-y,1/2+z
loop_
_atom_site_type_symbol
_atom_site_label
_atom_site_fract_x
_atom_site_fract_y
_atom_site_fract_z
Si Si1 0.250000 0.914204 0.250000
Si Si2 0.436230 0.792376 0.332237
Si Si3 0.563982 0.989227 0.312611
Si Si4 0.436710 0.812672 0.705164
Si Si5 0.615101 0.589898 0.338136
Si Si6 0.223446 0.545160 0.085973
Si Si7 0.623023 0.610178 0.700006
O O1 0.258855 0.937681 0.432256
O O2 0.310154 0.889498 0.217166
O O3 0.500000 0.794562 0.272297
O O4 0.437313 0.800010 0.520090
O O5 0.414610 0.736812 0.292949
O O6 0.401749 0.837758 0.259963
O O7 0.500000 0.981972 0.261388
O O8 0.589728 0.037680 0.224142
O O9 0.563945 0.000000 0.500000
O O10 0.599271 0.938884 0.288000
O O11 0.500000 0.821031 0.759909
O O12 0.404297 0.863620 0.734498
O O13 0.681379 0.585461 0.345794
O O14 0.601802 0.601634 0.520598
O O15 0.250000 0.525566 0.250000
O O16 0.189695 0.500000 0.000000
#
# Coordination Sequence:
#
# PCOD9480088 Si02
#       7
#     8  16  16  16  16  16  16
#     4  10  24  40  56  92 120 158 214 256 304 370
#     4  10  21  38  64  92 118 161 206 250 312 368
#     4  11  24  38  56  88 125 162 200 248 314 378
#     4  10  21  38  62  92 124 158 204 254 305 376
#     4  11  23  38  57  89 122 157 203 250 306 374
#     4  11  23  38  62  86 119 166 210 256 308 364
#     4  11  23  40  61  85 124 160 203 260 307 366
#
# _framework density 19.178373000000001
#
# number of rings (size 3 to 8) (size 9 to 14) (size 15 to 20)
#    0.000    1.385    0.769    5.077    4.308    6.769 
#    0.000    0.000    1.692    2.769    0.000    0.000 
#    0.000    0.000    0.000    0.000    0.000    0.000 
#
# Total GULP energy -289703.939596 kJ/mol
# GULP energy per Si atom -5571.229608 kJ/mol
# Density = 1.913472 g / cm^3
# Si number density = 19.178373 Si / 1000 Ang^3
#
#
#
# Elastic Constant Matrix: (Units=GPa)
#
#
# Indices 1 2 3 4 5 6 
#
# 1 62.4550 32.4468 19.2825 0.0000 0.0000 0.0000
# 2 32.4468 81.8070 -4.3564 0.0000 0.0000 0.0000
# 3 19.2825 -4.3564 53.0087 0.0000 0.0000 0.0000
# 4 0.0000 0.0000 0.0000 40.6774 0.0000 0.0000
# 5 0.0000 0.0000 0.0000 0.0000 47.8922 0.0000
# 6 0.0000 0.0000 0.0000 0.0000 0.0000 11.3707
#
#
#
# Elastic Compliance Matrix: (Units=1/GPa)
#
#
# Indices 1 2 3 4 5 6 
#
# 1 0.024259 -0.010136 -0.009658 0.000000 0.000000 0.000000
# 2 -0.010136 0.016513 0.005044 0.000000 0.000000 0.000000
# 3 -0.009658 0.005044 0.022792 0.000000 0.000000 0.000000
# 4 0.000000 0.000000 0.000000 0.024584 0.000000 0.000000
# 5 0.000000 0.000000 0.000000 0.000000 0.020880 0.000000
# 6 0.000000 0.000000 0.000000 0.000000 0.000000 0.087945
#
#
# Mechanical properties :
#
#
# Convention : Reuss Voigt Hill
#
# Bulk Modulus (GPa) = 29.35534 32.44629 30.90081
# Shear Modulus (GPa) = 21.02365 29.98124 25.50244
#
# Velocity S-wave (km/s) = 3.31451 3.95813 3.65053
# Velocity P-wave (km/s) = 5.47610 6.15174 5.82373
#
# Compressibility (1/GPa) = 0.03406536
#
# Stress axis : x y z
#
# Youngs Moduli (GPa) = 41.22152 60.55924 43.87427
#
# Poissons Ratio (x) = 0.61383 0.42372
# Poissons Ratio (y) = 0.41783 -0.22131
# Poissons Ratio (z) = 0.39810 -0.30547
#
# Static dielectric constant tensor:
#      x y z
#    x 1.694230 0.000000 0.000000 
#    y 0.000000 1.687420 0.000000 
#    z 0.000000 0.000000 1.717130 
# 
# From -- ./inp_files/8525.got.cif
#   From: 2010.05.17/outbox.cif.g08.bks.cpg/sg64_5_cif.got.tgz:8525.got - 2010.06.03 16:29:19.
