data_PCOD9480003
_publ_section_title
;
Structure prediction by ZEFSAII (Michael W. Deem and Ramdas Pophale) SiO2 
 PCOD9480003
Probable space group: C M C A
;
_chemical_formula_sum "Si O2"
_cell_formula_units_Z 96
_cell_length_a 8.519012
_cell_length_b 20.446880
_cell_length_c 29.556830
_cell_angle_alpha 90.000000
_cell_angle_beta 90.000000
_cell_angle_gamma 90.000000
_cell_volume 5148.421934
_symmetry_space_group_name_H-M "C M C A"
_symmetry_group_IT_number 64
_symmetry_cell_setting 'orthorhombic'
loop_
_space_group_symop_operation_xyz
x,y,z
-x,1/2-y,1/2+z
x,-y,-z
-x,1/2+y,1/2-z
-x,-y,-z
x,1/2+y,1/2-z
-x,y,z
x,1/2-y,1/2+z
1/2+x,1/2+y,z
1/2-x,-y,1/2+z
1/2+x,1/2-y,-z
1/2-x,y,1/2-z
1/2-x,1/2-y,-z
1/2+x,y,1/2-z
1/2-x,1/2+y,z
1/2+x,-y,1/2+z
loop_
_atom_site_type_symbol
_atom_site_label
_atom_site_fract_x
_atom_site_fract_y
_atom_site_fract_z
Si Si1 0.187477 0.994575 0.872233
Si Si2 0.188750 0.683885 0.977644
Si Si3 0.309745 0.855809 0.379117
Si Si4 0.188570 0.745113 0.699099
Si Si5 0.185066 0.559078 0.035232
Si Si6 0.689006 0.388196 0.800636
O O1 0.226648 0.960049 0.919424
O O2 0.245648 0.946892 0.832630
O O3 0.000000 0.998858 0.867185
O O4 0.247030 0.069317 0.872626
O O5 0.250335 0.671658 0.926992
O O6 0.000000 0.683888 0.976272
O O7 0.250000 0.750000 0.000000
O O8 0.240395 0.624094 0.009898
O O9 0.500000 0.856240 0.380500
O O10 0.262279 0.809468 0.337309
O O11 0.250000 0.732299 0.750000
O O12 0.249780 0.816758 0.684732
O O13 0.000000 0.746943 0.700775
O O14 0.000000 0.566308 0.045858
O O15 0.201573 0.500000 0.000000
O O16 0.500000 0.386418 0.800666
O O17 0.750000 0.398475 0.750000
#
# Coordination Sequence:
#
# PCOD9480003 Si02
#       6
#    16  16  16  16  16  16
#     4  10  22  38  59  86 115 150 191 234 281 338
#     4  11  24  40  59  85 117 152 192 238 284 339
#     4  10  22  40  59  84 117 152 191 235 285 339
#     4  10  21  38  60  84 113 149 188 234 285 339
#     4  10  21  39  59  83 115 150 190 233 280 334
#     4  10  21  38  59  86 115 147 189 234 283 341
#
# _framework density 18.646488999999999
#
# number of rings (size 3 to 8) (size 9 to 14) (size 15 to 20)
#    0.000    1.833    1.667    2.500    2.333    5.000 
#    0.000    0.000    0.000    0.000    0.000    0.000 
#    0.000    0.000    0.000    0.000    0.000    0.000 
#
# Total GULP energy -268045.459936 kJ/mol
# GULP energy per Si atom -5584.280415 kJ/mol
# Density = 1.860405 g / cm^3
# Si number density = 18.646489 Si / 1000 Ang^3
#
#
#
# Elastic Constant Matrix: (Units=GPa)
#
#
# Indices 1 2 3 4 5 6 
#
# 1 25.9065 31.0643 23.6124 0.0000 0.0000 0.0000
# 2 31.0643 179.3132 104.1349 0.0000 0.0000 0.0000
# 3 23.6124 104.1349 118.6370 0.0000 0.0000 0.0000
# 4 0.0000 0.0000 0.0000 34.6054 0.0000 0.0000
# 5 0.0000 0.0000 0.0000 0.0000 29.4923 0.0000
# 6 0.0000 0.0000 0.0000 0.0000 0.0000 23.7072
#
#
#
# Elastic Compliance Matrix: (Units=1/GPa)
#
#
# Indices 1 2 3 4 5 6 
#
# 1 0.050022 -0.005883 -0.004792 0.000000 0.000000 0.000000
# 2 -0.005883 0.012067 -0.009421 0.000000 0.000000 0.000000
# 3 -0.004792 -0.009421 0.017653 0.000000 0.000000 0.000000
# 4 0.000000 0.000000 0.000000 0.028897 0.000000 0.000000
# 5 0.000000 0.000000 0.000000 0.000000 0.033907 0.000000
# 6 0.000000 0.000000 0.000000 0.000000 0.000000 0.042181
#
#
# Mechanical properties :
#
#
# Convention : Reuss Voigt Hill
#
# Bulk Modulus (GPa) = 25.28486 71.27554 48.28020
# Shear Modulus (GPa) = 20.99921 28.56400 24.78160
#
# Velocity S-wave (km/s) = 3.35949 3.91816 3.64953
# Velocity P-wave (km/s) = 5.35143 7.66661 6.61115
#
# Compressibility (1/GPa) = 0.03954936
#
# Stress axis : x y z
#
# Youngs Moduli (GPa) = 19.99107 82.86783 56.64868
#
# Poissons Ratio (x) = 0.48749 0.27148
# Poissons Ratio (y) = 0.11760 0.53371
# Poissons Ratio (z) = 0.09580 0.78073
#
# Static dielectric constant tensor:
#      x y z
#    x 1.645360 0.000000 0.000000 
#    y 0.000000 1.751900 0.000000 
#    z 0.000000 0.000000 1.603200 
# 
# From -- ./inp_files/48052.got.cif
#   From: 2010.05.17/outbox.cif.g08.bks.cpg/sg64_25_cif.got.tgz:48052.got - 2010.06.03 16:29:19.
