data_PCOD9480242
_publ_section_title
;
Structure prediction by ZEFSAII (Michael W. Deem and Ramdas Pophale) SiO2 
 PCOD9480242
Probable space group: C M C A
;
_chemical_formula_sum "Si O2"
_cell_formula_units_Z 64
_cell_length_a 14.753507
_cell_length_b 20.765088
_cell_length_c 9.928185
_cell_angle_alpha 90.000000
_cell_angle_beta 90.000000
_cell_angle_gamma 90.000000
_cell_volume 3041.577621
_symmetry_space_group_name_H-M "C M C A"
_symmetry_group_IT_number 64
_symmetry_cell_setting 'orthorhombic'
loop_
_space_group_symop_operation_xyz
x,y,z
-x,1/2-y,1/2+z
x,-y,-z
-x,1/2+y,1/2-z
-x,-y,-z
x,1/2+y,1/2-z
-x,y,z
x,1/2-y,1/2+z
1/2+x,1/2+y,z
1/2-x,-y,1/2+z
1/2+x,1/2-y,-z
1/2-x,y,1/2-z
1/2-x,1/2-y,-z
1/2+x,y,1/2-z
1/2-x,1/2+y,z
1/2+x,-y,1/2+z
loop_
_atom_site_type_symbol
_atom_site_label
_atom_site_fract_x
_atom_site_fract_y
_atom_site_fract_z
Si Si1 0.500000 0.893636 0.487994
Si Si2 0.000000 0.989546 0.772763
Si Si3 0.135194 0.210990 0.890462
Si Si4 0.850007 0.682984 0.906983
Si Si5 0.823793 0.964725 0.368945
O O1 0.500000 0.948940 0.373953
O O2 0.414569 0.847648 0.463820
O O3 0.500000 0.927593 0.631805
O O4 0.090397 0.995194 0.684509
O O5 0.110310 0.209344 0.733396
O O6 0.242316 0.197451 0.900467
O O7 0.114019 0.277370 0.966182
O O8 0.858938 0.606323 0.907862
O O9 0.750000 0.958444 0.250000
O O10 0.783839 0.000000 0.500000
#
# Coordination Sequence:
#
# PCOD9480242 Si02
#       5
#     8   8  16  16  16
#     4  11  22  39  71  99 131 175 228 270 342 395
#     4  11  25  43  67 101 142 175 228 283 334 408
#     4  10  21  39  64  92 131 173 216 279 320 406
#     4  10  21  42  62  93 132 170 221 269 341 387
#     4  12  26  45  71 100 139 182 226 281 346 409
#
# _framework density 21.041710999999999
#
# number of rings (size 3 to 8) (size 9 to 14) (size 15 to 20)
#    0.000    1.250    5.000    0.375    7.000    4.000 
#    4.500    0.000    0.000    0.000    0.000    0.000 
#    0.000    0.000    0.000    0.000    0.000    0.000 
#
# Total GULP energy -178956.806405 kJ/mol
# GULP energy per Si atom -5592.400200 kJ/mol
# Density = 2.099382 g / cm^3
# Si number density = 21.041711 Si / 1000 Ang^3
#
#
#
# Elastic Constant Matrix: (Units=GPa)
#
#
# Indices 1 2 3 4 5 6 
#
# 1 69.2562 23.7753 12.0681 0.0000 0.0000 0.0000
# 2 23.7753 114.4070 102.2177 0.0000 0.0000 0.0000
# 3 12.0681 102.2177 123.5718 0.0000 0.0000 0.0000
# 4 0.0000 0.0000 0.0000 44.4975 0.0000 0.0000
# 5 0.0000 0.0000 0.0000 0.0000 22.7982 0.0000
# 6 0.0000 0.0000 0.0000 0.0000 0.0000 26.7506
#
#
#
# Elastic Compliance Matrix: (Units=1/GPa)
#
#
# Indices 1 2 3 4 5 6 
#
# 1 0.016206 -0.007487 0.004611 0.000000 0.000000 0.000000
# 2 -0.007487 0.036956 -0.029839 0.000000 0.000000 0.000000
# 3 0.004611 -0.029839 0.032325 0.000000 0.000000 0.000000
# 4 0.000000 0.000000 0.000000 0.022473 0.000000 0.000000
# 5 0.000000 0.000000 0.000000 0.000000 0.043863 0.000000
# 6 0.000000 0.000000 0.000000 0.000000 0.000000 0.037382
#
#
# Mechanical properties :
#
#
# Convention : Reuss Voigt Hill
#
# Bulk Modulus (GPa) = 49.85969 64.81745 57.33857
# Shear Modulus (GPa) = 19.13348 30.08752 24.61050
#
# Velocity S-wave (km/s) = 3.01875 3.78550 3.42366
# Velocity P-wave (km/s) = 5.99146 7.06950 6.55269
#
# Compressibility (1/GPa) = 0.02005628
#
# Stress axis : x y z
#
# Youngs Moduli (GPa) = 61.70525 27.05892 30.93617
#
# Poissons Ratio (x) = 0.20260 -0.14264
# Poissons Ratio (y) = 0.46201 0.92310
# Poissons Ratio (z) = -0.28451 0.80741
#
# Static dielectric constant tensor:
#      x y z
#    x 1.761350 0.000000 0.000000 
#    y 0.000000 1.714300 0.000000 
#    z 0.000000 0.000000 1.761900 
# 
# From -- ./inp_files/5619.got.cif
#   From: 2010.05.17/outbox.cif.g08.bks.cpg/sg64_3_cif.got.tgz:5619.got - 2010.06.03 16:29:19.
