data_PCOD9480685
_publ_section_title
;
Structure prediction by ZEFSAII (Michael W. Deem and Ramdas Pophale) SiO2 
 PCOD9480685
Probable space group: C M C A
;
_chemical_formula_sum "Si O2"
_cell_formula_units_Z 96
_cell_length_a 17.499853
_cell_length_b 20.358321
_cell_length_c 14.381396
_cell_angle_alpha 90.000000
_cell_angle_beta 90.000000
_cell_angle_gamma 90.000000
_cell_volume 5123.625795
_symmetry_space_group_name_H-M "C M C A"
_symmetry_group_IT_number 64
_symmetry_cell_setting 'orthorhombic'
loop_
_space_group_symop_operation_xyz
x,y,z
-x,1/2-y,1/2+z
x,-y,-z
-x,1/2+y,1/2-z
-x,-y,-z
x,1/2+y,1/2-z
-x,y,z
x,1/2-y,1/2+z
1/2+x,1/2+y,z
1/2-x,-y,1/2+z
1/2+x,1/2-y,-z
1/2-x,y,1/2-z
1/2-x,1/2-y,-z
1/2+x,y,1/2-z
1/2-x,1/2+y,z
1/2+x,-y,1/2+z
loop_
_atom_site_type_symbol
_atom_site_label
_atom_site_fract_x
_atom_site_fract_y
_atom_site_fract_z
Si Si1 0.590872 0.414590 0.166949
Si Si2 0.662503 0.447525 0.779454
Si Si3 0.090749 0.330210 0.833945
Si Si4 0.839818 0.709477 0.774129
Si Si5 0.309143 0.924043 0.511438
Si Si6 0.809439 0.309384 0.015528
O O1 0.500000 0.409804 0.169012
O O2 0.618736 0.483697 0.210065
O O3 0.628878 0.354676 0.222057
O O4 0.622779 0.412930 0.061650
O O5 0.750000 0.459788 0.750000
O O6 0.623852 0.398047 0.707240
O O7 0.665362 0.414982 0.882154
O O8 0.115742 0.272557 0.763717
O O9 0.000000 0.333374 0.842676
O O10 0.130834 0.313493 0.931717
O O11 0.750000 0.717677 0.750000
O O12 0.846987 0.700683 0.884316
O O13 0.240891 0.875488 0.486063
O O14 0.284942 0.000000 0.500000
O O15 0.750000 0.250000 0.000000
#
# Coordination Sequence:
#
# PCOD9480685 Si02
#       6
#    16  16  16  16  16  16
#     4  11  24  41  63  99 133 162 210 270 320 365
#     4  11  22  41  68  92 127 174 216 251 311 384
#     4  12  26  42  63  96 130 161 207 269 320 367
#     4  12  23  41  70  90 123 169 215 254 310 383
#     4  10  22  38  66  95 122 167 214 261 304 372
#     4  12  23  41  66  93 122 166 214 256 309 381
#
# _framework density 18.736730999999999
#
# number of rings (size 3 to 8) (size 9 to 14) (size 15 to 20)
#    0.000    0.667    5.000    3.000    2.333    5.000 
#    0.000    0.000    0.000    2.500    0.000    0.000 
#    0.000    0.000    0.000    0.000    0.000    0.000 
#
# Total GULP energy -268524.598965 kJ/mol
# GULP energy per Si atom -5594.262478 kJ/mol
# Density = 1.869409 g / cm^3
# Si number density = 18.736731 Si / 1000 Ang^3
#
#
#
# Elastic Constant Matrix: (Units=GPa)
#
#
# Indices 1 2 3 4 5 6 
#
# 1 131.8259 21.9593 26.7611 0.0000 0.0000 0.0000
# 2 21.9593 34.8251 3.2699 0.0000 0.0000 0.0000
# 3 26.7611 3.2699 86.4495 0.0000 0.0000 0.0000
# 4 0.0000 0.0000 0.0000 29.2264 0.0000 0.0000
# 5 0.0000 0.0000 0.0000 0.0000 25.8200 0.0000
# 6 0.0000 0.0000 0.0000 0.0000 0.0000 20.0999
#
#
#
# Elastic Compliance Matrix: (Units=1/GPa)
#
#
# Indices 1 2 3 4 5 6 
#
# 1 0.009017 -0.005443 -0.002586 0.000000 0.000000 0.000000
# 2 -0.005443 0.032103 0.000471 0.000000 0.000000 0.000000
# 3 -0.002586 0.000471 0.012350 0.000000 0.000000 0.000000
# 4 0.000000 0.000000 0.000000 0.034216 0.000000 0.000000
# 5 0.000000 0.000000 0.000000 0.000000 0.038730 0.000000
# 6 0.000000 0.000000 0.000000 0.000000 0.000000 0.049752
#
#
# Mechanical properties :
#
#
# Convention : Reuss Voigt Hill
#
# Bulk Modulus (GPa) = 26.07271 39.67569 32.87420
# Shear Modulus (GPa) = 24.50164 28.43660 26.46912
#
# Velocity S-wave (km/s) = 3.62011 3.89998 3.76265
# Velocity P-wave (km/s) = 5.60527 6.44214 6.03822
#
# Compressibility (1/GPa) = 0.03835429
#
# Stress axis : x y z
#
# Youngs Moduli (GPa) = 110.89736 31.14979 80.97164
#
# Poissons Ratio (x) = 0.16955 0.20935
# Poissons Ratio (y) = 0.60364 -0.03811
# Poissons Ratio (z) = 0.28673 -0.01466
#
# Static dielectric constant tensor:
#      x y z
#    x 1.603180 0.000000 0.000000 
#    y 0.000000 1.624450 0.000000 
#    z 0.000000 0.000000 1.648630 
# 
# From -- ./inp_files/23872.got.cif
#   From: 2010.05.17/outbox.cif.g08.bks.cpg/sg64_12_cif.got.tgz:23872.got - 2010.06.03 16:29:19.
