data_PCOD9480631
_publ_section_title
;
Structure prediction by ZEFSAII (Michael W. Deem and Ramdas Pophale) SiO2 
 PCOD9480631
Probable space group: C M C A
;
_chemical_formula_sum "Si O2"
_cell_formula_units_Z 80
_cell_length_a 14.435491
_cell_length_b 13.155096
_cell_length_c 20.665627
_cell_angle_alpha 90.000000
_cell_angle_beta 90.000000
_cell_angle_gamma 90.000000
_cell_volume 3924.408145
_symmetry_space_group_name_H-M "C M C A"
_symmetry_group_IT_number 64
_symmetry_cell_setting 'orthorhombic'
loop_
_space_group_symop_operation_xyz
x,y,z
-x,1/2-y,1/2+z
x,-y,-z
-x,1/2+y,1/2-z
-x,-y,-z
x,1/2+y,1/2-z
-x,y,z
x,1/2-y,1/2+z
1/2+x,1/2+y,z
1/2-x,-y,1/2+z
1/2+x,1/2-y,-z
1/2-x,y,1/2-z
1/2-x,1/2-y,-z
1/2+x,y,1/2-z
1/2-x,1/2+y,z
1/2+x,-y,1/2+z
loop_
_atom_site_type_symbol
_atom_site_label
_atom_site_fract_x
_atom_site_fract_y
_atom_site_fract_z
Si Si1 0.250000 0.253449 0.750000
Si Si2 0.605075 0.392986 0.247261
Si Si3 0.895030 0.843555 0.542521
Si Si4 0.391029 0.888799 0.407920
Si Si5 0.396922 0.392377 0.686625
Si Si6 0.745856 0.500000 0.000000
O O1 0.323635 0.179650 0.783491
O O2 0.312311 0.320918 0.704109
O O3 0.500000 0.362838 0.259963
O O4 0.621839 0.387202 0.169934
O O5 0.615934 0.506069 0.272998
O O6 0.877459 0.725091 0.561973
O O7 0.897587 0.905262 0.610179
O O8 0.000000 0.849121 0.514157
O O9 0.813366 0.901723 0.505780
O O10 0.500000 0.914075 0.418748
O O11 0.323120 0.970289 0.441061
O O12 0.500000 0.350037 0.702588
#
# Coordination Sequence:
#
# PCOD9480631 Si02
#       6
#     8  16  16  16  16   8
#     4  12  20  32  64  86 116 146 196 222 290 348
#     4  10  22  38  58  87 121 153 186 231 290 350
#     4  10  22  42  61  83 120 156 189 240 299 342
#     4  10  22  42  61  83 120 156 189 240 299 342
#     4  10  22  38  58  87 121 153 186 231 290 350
#     4  12  24  36  66  88 108 148 216 246 272 340
#
# _framework density 20.385238999999999
#
# number of rings (size 3 to 8) (size 9 to 14) (size 15 to 20)
#    0.000    1.600    2.000    2.400    5.600    0.000 
#    0.000    0.000    0.000    0.000    0.000    0.000 
#    0.000    0.000    0.000    0.000    0.000    0.000 
#
# Total GULP energy -223070.086934 kJ/mol
# GULP energy per Si atom -5576.752173 kJ/mol
# Density = 2.033884 g / cm^3
# Si number density = 20.385239 Si / 1000 Ang^3
#
#
#
# Elastic Constant Matrix: (Units=GPa)
#
#
# Indices 1 2 3 4 5 6 
#
# 1 143.1748 37.8524 27.1291 0.0000 0.0000 0.0000
# 2 37.8524 54.4969 3.6290 0.0000 0.0000 0.0000
# 3 27.1291 3.6290 12.3799 0.0000 0.0000 0.0000
# 4 0.0000 0.0000 0.0000 9.6068 0.0000 0.0000
# 5 0.0000 0.0000 0.0000 0.0000 21.9284 0.0000
# 6 0.0000 0.0000 0.0000 0.0000 0.0000 44.7873
#
#
#
# Elastic Compliance Matrix: (Units=1/GPa)
#
#
# Indices 1 2 3 4 5 6 
#
# 1 0.014927 -0.008353 -0.030262 0.000000 0.000000 0.000000
# 2 -0.008353 0.023389 0.011448 0.000000 0.000000 0.000000
# 3 -0.030262 0.011448 0.143736 0.000000 0.000000 0.000000
# 4 0.000000 0.000000 0.000000 0.104093 0.000000 0.000000
# 5 0.000000 0.000000 0.000000 0.000000 0.045603 0.000000
# 6 0.000000 0.000000 0.000000 0.000000 0.000000 0.022328
#
#
# Mechanical properties :
#
#
# Convention : Reuss Voigt Hill
#
# Bulk Modulus (GPa) = 7.82977 38.58586 23.20781
# Shear Modulus (GPa) = 11.08693 24.69391 17.89042
#
# Velocity S-wave (km/s) = 2.33463 3.48424 2.96567
# Velocity P-wave (km/s) = 3.33416 5.92925 4.81002
#
# Compressibility (1/GPa) = 0.12771761
#
# Stress axis : x y z
#
# Youngs Moduli (GPa) = 66.99336 42.75528 6.95721
#
# Poissons Ratio (x) = 0.35712 0.21054
# Poissons Ratio (y) = 0.55957 -0.07964
# Poissons Ratio (z) = 2.02735 -0.48945
#
# Static dielectric constant tensor:
#      x y z
#    x 1.748680 0.000000 0.000000 
#    y 0.000000 1.774960 0.000000 
#    z 0.000000 0.000000 1.712050 
# 
# From -- ./inp_files/44982.got.cif
#   From: 2010.05.17/outbox.cif.g08.bks.cpg/sg64_23_cif.got.tgz:44982.got - 2010.06.03 16:29:19.
