data_PCOD9480612
_publ_section_title
;
Structure prediction by ZEFSAII (Michael W. Deem and Ramdas Pophale) SiO2 
 PCOD9480612
Probable space group: C M C A
;
_chemical_formula_sum "Si O2"
_cell_formula_units_Z 64
_cell_length_a 16.323792
_cell_length_b 5.280139
_cell_length_c 28.657248
_cell_angle_alpha 90.000000
_cell_angle_beta 90.000000
_cell_angle_gamma 90.000000
_cell_volume 2470.022389
_symmetry_space_group_name_H-M "C M C A"
_symmetry_group_IT_number 64
_symmetry_cell_setting 'orthorhombic'
loop_
_space_group_symop_operation_xyz
x,y,z
-x,1/2-y,1/2+z
x,-y,-z
-x,1/2+y,1/2-z
-x,-y,-z
x,1/2+y,1/2-z
-x,y,z
x,1/2-y,1/2+z
1/2+x,1/2+y,z
1/2-x,-y,1/2+z
1/2+x,1/2-y,-z
1/2-x,y,1/2-z
1/2-x,1/2-y,-z
1/2+x,y,1/2-z
1/2-x,1/2+y,z
1/2+x,-y,1/2+z
loop_
_atom_site_type_symbol
_atom_site_label
_atom_site_fract_x
_atom_site_fract_y
_atom_site_fract_z
Si Si1 0.093663 0.677694 0.857096
Si Si2 0.594197 0.701471 0.536072
Si Si3 0.304525 0.524409 0.906648
Si Si4 0.343305 0.918576 0.769448
O O1 0.092101 0.583191 0.911050
O O2 0.135041 0.954343 0.863912
O O3 0.148500 0.515599 0.822081
O O4 0.000000 0.686644 0.841065
O O5 0.631054 0.500000 0.500000
O O6 0.500000 0.745774 0.522834
O O7 0.640778 0.962350 0.547892
O O8 0.258722 0.787116 0.906218
O O9 0.382269 0.647873 0.759844
O O10 0.250000 0.890455 0.750000
#
# Coordination Sequence:
#
# PCOD9480612 Si02
#       4
#    16  16  16  16
#     4   9  21  41  63  93 127 165 208 256 310 374
#     4   8  17  38  64  92 129 168 206 253 311 372
#     4  10  22  37  64  90 126 161 207 254 306 364
#     4  10  23  38  63  89 121 160 205 256 310 365
#
# _framework density 25.910695
#
# number of rings (size 3 to 8) (size 9 to 14) (size 15 to 20)
#    1.500    1.250    0.000    0.000    7.000    2.000 
#    0.000    7.500    0.000    3.000    0.000    0.000 
#    0.000    0.000    0.000    0.000    0.000    0.000 
#
# Total GULP energy -178617.769278 kJ/mol
# GULP energy per Si atom -5581.805290 kJ/mol
# Density = 2.585172 g / cm^3
# Si number density = 25.910695 Si / 1000 Ang^3
#
#
#
# Elastic Constant Matrix: (Units=GPa)
#
#
# Indices 1 2 3 4 5 6 
#
# 1 115.0616 21.0966 -0.0517 0.0000 0.0000 0.0000
# 2 21.0966 101.1507 13.5593 0.0000 0.0000 0.0000
# 3 -0.0517 13.5593 125.5055 0.0000 0.0000 0.0000
# 4 0.0000 0.0000 0.0000 42.5219 0.0000 0.0000
# 5 0.0000 0.0000 0.0000 0.0000 27.9936 0.0000
# 6 0.0000 0.0000 0.0000 0.0000 0.0000 -14.0751
#
#
#
# Elastic Compliance Matrix: (Units=1/GPa)
#
#
# Indices 1 2 3 4 5 6 
#
# 1 0.009042 -0.001914 0.000211 0.000000 0.000000 0.000000
# 2 -0.001914 0.010437 -0.001128 0.000000 0.000000 0.000000
# 3 0.000211 -0.001128 0.008090 0.000000 0.000000 0.000000
# 4 0.000000 0.000000 0.000000 0.023517 0.000000 0.000000
# 5 0.000000 0.000000 0.000000 0.000000 0.035722 0.000000
# 6 0.000000 0.000000 0.000000 0.000000 0.000000 -0.071048
#
#
# Mechanical properties :
#
#
# Convention : Reuss Voigt Hill
#
# Bulk Modulus (GPa) = 45.65230 45.65846 45.65538
# Shear Modulus (GPa) = 174.05845 31.76234 102.91039
#
# Velocity S-wave (km/s) = 8.20501 3.50500 6.30901
# Velocity P-wave (km/s) = 10.36437 5.83436 8.41011
#
# Compressibility (1/GPa) = 0.02190470
#
# Stress axis : x y z
#
# Youngs Moduli (GPa) = 110.59452 95.81562 123.61297
#
# Poissons Ratio (x) = 0.18340 -0.02602
# Poissons Ratio (y) = 0.21169 0.13948
# Poissons Ratio (z) = -0.02328 0.10811
#
# Static dielectric constant tensor:
#      x y z
#    x 2.324110 0.000000 0.000000 
#    y 0.000000 2.100130 0.000000 
#    z 0.000000 0.000000 2.188730 
# 
# From -- ./inp_files/53494.got.cif
#   From: 2010.05.17/outbox.cif.g08.bks.cpg/sg64_27_cif.got.tgz:53494.got - 2010.06.03 16:29:19.
