data_PCOD9480538
_publ_section_title
;
Structure prediction by ZEFSAII (Michael W. Deem and Ramdas Pophale) SiO2 
 PCOD9480538
Probable space group: C M C A
;
_chemical_formula_sum "Si O2"
_cell_formula_units_Z 84
_cell_length_a 22.428099
_cell_length_b 15.562534
_cell_length_c 11.567044
_cell_angle_alpha 90.000000
_cell_angle_beta 90.000000
_cell_angle_gamma 90.000000
_cell_volume 4037.338520
_symmetry_space_group_name_H-M "C M C A"
_symmetry_group_IT_number 64
_symmetry_cell_setting 'orthorhombic'
loop_
_space_group_symop_operation_xyz
x,y,z
-x,1/2-y,1/2+z
x,-y,-z
-x,1/2+y,1/2-z
-x,-y,-z
x,1/2+y,1/2-z
-x,y,z
x,1/2-y,1/2+z
1/2+x,1/2+y,z
1/2-x,-y,1/2+z
1/2+x,1/2-y,-z
1/2-x,y,1/2-z
1/2-x,1/2-y,-z
1/2+x,y,1/2-z
1/2-x,1/2+y,z
1/2+x,-y,1/2+z
loop_
_atom_site_type_symbol
_atom_site_label
_atom_site_fract_x
_atom_site_fract_y
_atom_site_fract_z
Si Si1 0.402017 0.437353 0.343928
Si Si2 0.430764 0.697923 0.856325
Si Si3 0.371707 0.623087 0.292150
Si Si4 0.704006 0.365208 0.476890
Si Si5 0.670325 0.667797 0.041673
Si Si6 0.500000 0.500000 0.500000
O O1 0.418356 0.367698 0.248471
O O2 0.407732 0.534217 0.297526
O O3 0.335607 0.422000 0.391461
O O4 0.447769 0.434829 0.450022
O O5 0.500000 0.695478 0.888161
O O6 0.412039 0.793217 0.815236
O O7 0.387820 0.671369 0.961679
O O8 0.322601 0.624133 0.394257
O O9 0.342634 0.630045 0.166672
O O10 0.691340 0.266520 0.441395
O O11 0.774507 0.379195 0.479031
#
# Coordination Sequence:
#
# PCOD9480538 Si02
#       6
#    16  16  16  16  16   4
#     4  12  24  44  69 102 136 179 232 288 341 413
#     4  11  26  44  67 101 142 181 229 288 351 414
#     4  11  23  43  70 102 130 182 228 283 347 420
#     4  10  21  44  69  99 134 177 230 286 338 407
#     4  10  23  43  69  98 139 181 225 280 353 407
#     4  12  24  44  72  98 136 178 240 294 334 420
#
# _framework density 20.805786000000001
#
# number of rings (size 3 to 8) (size 9 to 14) (size 15 to 20)
#    0.000    1.143    4.762    0.571    1.333    2.286 
#   10.286    0.952    0.000    0.000    0.000    0.000 
#    0.000    0.000    0.000    0.000    0.000    0.000 
#
# Total GULP energy -234338.857897 kJ/mol
# GULP energy per Si atom -5579.496617 kJ/mol
# Density = 2.075843 g / cm^3
# Si number density = 20.805786 Si / 1000 Ang^3
#
#
#
# Elastic Constant Matrix: (Units=GPa)
#
#
# Indices 1 2 3 4 5 6 
#
# 1 144.8453 25.7134 20.9654 0.0000 0.0000 0.0000
# 2 25.7134 107.8166 19.4532 0.0000 0.0000 0.0000
# 3 20.9654 19.4532 45.8618 0.0000 0.0000 0.0000
# 4 0.0000 0.0000 0.0000 32.6097 0.0000 0.0000
# 5 0.0000 0.0000 0.0000 0.0000 5.5796 0.0000
# 6 0.0000 0.0000 0.0000 0.0000 0.0000 13.1965
#
#
#
# Elastic Compliance Matrix: (Units=1/GPa)
#
#
# Indices 1 2 3 4 5 6 
#
# 1 0.007552 -0.001276 -0.002911 0.000000 0.000000 0.000000
# 2 -0.001276 0.010259 -0.003768 0.000000 0.000000 0.000000
# 3 -0.002911 -0.003768 0.024734 0.000000 0.000000 0.000000
# 4 0.000000 0.000000 0.000000 0.030666 0.000000 0.000000
# 5 0.000000 0.000000 0.000000 0.000000 0.179226 0.000000
# 6 0.000000 0.000000 0.000000 0.000000 0.000000 0.075778
#
#
# Mechanical properties :
#
#
# Convention : Reuss Voigt Hill
#
# Bulk Modulus (GPa) = 37.54568 47.86533 42.70551
# Shear Modulus (GPa) = 14.16419 25.76992 19.96706
#
# Velocity S-wave (km/s) = 2.61201 3.52318 3.10124
# Velocity P-wave (km/s) = 5.21361 6.29334 5.77875
#
# Compressibility (1/GPa) = 0.02663422
#
# Stress axis : x y z
#
# Youngs Moduli (GPa) = 132.41944 97.47345 40.43039
#
# Poissons Ratio (x) = 0.12436 0.11770
# Poissons Ratio (y) = 0.16894 0.15236
# Poissons Ratio (z) = 0.38548 0.36732
#
# Static dielectric constant tensor:
#      x y z
#    x 1.187540 0.000000 0.000000 
#    y 0.000000 1.767700 0.000000 
#    z 0.000000 0.000000 1.732020 
# 
# From -- ./inp_files/17088.got.cif
#   From: 2010.05.17/outbox.cif.g08.bks.cpg/sg64_9_cif.got.tgz:17088.got - 2010.06.03 16:29:19.
