data_PCOD9480257
_publ_section_title
;
Structure prediction by ZEFSAII (Michael W. Deem and Ramdas Pophale) SiO2 
 PCOD9480257
Probable space group: C M C A
;
_chemical_formula_sum "Si O2"
_cell_formula_units_Z 112
_cell_length_a 10.724335
_cell_length_b 14.339694
_cell_length_c 33.311019
_cell_angle_alpha 90.000000
_cell_angle_beta 90.000000
_cell_angle_gamma 90.000000
_cell_volume 5122.691161
_symmetry_space_group_name_H-M "C M C A"
_symmetry_group_IT_number 64
_symmetry_cell_setting 'orthorhombic'
loop_
_space_group_symop_operation_xyz
x,y,z
-x,1/2-y,1/2+z
x,-y,-z
-x,1/2+y,1/2-z
-x,-y,-z
x,1/2+y,1/2-z
-x,y,z
x,1/2-y,1/2+z
1/2+x,1/2+y,z
1/2-x,-y,1/2+z
1/2+x,1/2-y,-z
1/2-x,y,1/2-z
1/2-x,1/2-y,-z
1/2+x,y,1/2-z
1/2-x,1/2+y,z
1/2+x,-y,1/2+z
loop_
_atom_site_type_symbol
_atom_site_label
_atom_site_fract_x
_atom_site_fract_y
_atom_site_fract_z
Si Si1 0.783445 0.601359 0.010319
Si Si2 0.633107 0.715778 0.948687
Si Si3 0.856597 0.226640 0.280924
Si Si4 0.137301 0.497127 0.777481
Si Si5 0.263275 0.753344 0.631544
Si Si6 0.361637 0.446410 0.370066
Si Si7 0.643046 0.938992 0.589830
O O1 0.863788 0.682142 0.030937
O O2 0.674195 0.584605 0.043394
O O3 0.837763 0.500000 0.000000
O O4 0.733397 0.650811 0.970269
O O5 0.500000 0.670874 0.955065
O O6 0.661105 0.732801 0.902483
O O7 0.750000 0.260807 0.250000
O O8 0.864605 0.114987 0.274709
O O9 0.802568 0.240812 0.325530
O O10 0.000000 0.261677 0.276503
O O11 0.250000 0.530745 0.750000
O O12 0.155456 0.522119 0.823995
O O13 0.000000 0.531602 0.765040
O O14 0.353676 0.664877 0.629999
O O15 0.332259 0.847065 0.617123
O O16 0.500000 0.477911 0.383594
O O17 0.248833 0.489231 0.395503
O O18 0.500000 0.969100 0.594584
#
# Coordination Sequence:
#
# PCOD9480257 Si02
#       7
#    16  16  16  16  16  16  16
#     4  10  22  40  61  91 126 165 213 263 319 379
#     4  10  22  40  63  91 128 168 211 266 319 374
#     4  10  21  39  65  94 127 169 214 260 316 381
#     4   9  19  38  61  88 121 160 205 257 312 372
#     4  11  23  41  65  95 129 167 213 263 320 381
#     4  11  24  42  64  92 127 167 211 262 319 380
#     4  11  24  41  64  94 128 168 214 263 319 381
#
# _framework density 21.863507999999999
#
# number of rings (size 3 to 8) (size 9 to 14) (size 15 to 20)
#    0.000    1.714    1.429    2.143    0.000    8.286 
#    0.000    6.429    0.000    0.000    0.000    0.000 
#    0.000    0.000    0.000    0.000    0.000    0.000 
#
# Total GULP energy -312862.472723 kJ/mol
# GULP energy per Si atom -5586.829870 kJ/mol
# Density = 2.181375 g / cm^3
# Si number density = 21.863508 Si / 1000 Ang^3
#
#
#
# Elastic Constant Matrix: (Units=GPa)
#
#
# Indices 1 2 3 4 5 6 
#
# 1 140.5088 26.7485 65.2594 0.0000 0.0000 0.0000
# 2 26.7485 109.0937 21.9938 0.0000 0.0000 0.0000
# 3 65.2594 21.9938 133.4511 0.0000 0.0000 0.0000
# 4 0.0000 0.0000 0.0000 21.6095 0.0000 0.0000
# 5 0.0000 0.0000 0.0000 0.0000 -15.5679 0.0000
# 6 0.0000 0.0000 0.0000 0.0000 0.0000 18.7132
#
#
#
# Elastic Compliance Matrix: (Units=1/GPa)
#
#
# Indices 1 2 3 4 5 6 
#
# 1 0.009419 -0.001428 -0.004371 0.000000 0.000000 0.000000
# 2 -0.001428 0.009698 -0.000900 0.000000 0.000000 0.000000
# 3 -0.004371 -0.000900 0.009779 0.000000 0.000000 0.000000
# 4 0.000000 0.000000 0.000000 0.046276 0.000000 0.000000
# 5 0.000000 0.000000 0.000000 0.000000 -0.064235 0.000000
# 6 0.000000 0.000000 0.000000 0.000000 0.000000 0.053438
#
#
# Mechanical properties :
#
#
# Convention : Reuss Voigt Hill
#
# Bulk Modulus (GPa) = 64.52261 67.89522 66.20891
# Shear Modulus (GPa) = 60.28555 22.88775 41.58665
#
# Velocity S-wave (km/s) = 5.25675 3.23901 4.36604
# Velocity P-wave (km/s) = 8.14986 6.71638 7.46760
#
# Compressibility (1/GPa) = 0.01549844
#
# Stress axis : x y z
#
# Youngs Moduli (GPa) = 106.17086 103.11358 102.26058
#
# Poissons Ratio (x) = 0.14727 0.44693
# Poissons Ratio (y) = 0.15164 0.09202
# Poissons Ratio (z) = 0.46402 0.09279
#
# Static dielectric constant tensor:
#      x y z
#    x 1.804320 0.000000 0.000000 
#    y 0.000000 1.813810 0.000000 
#    z 0.000000 0.000000 1.767400 
# 
# From -- ./inp_files/52843.got.cif
#   From: 2010.05.17/outbox.cif.g08.bks.cpg/sg64_27_cif.got.tgz:52843.got - 2010.06.03 16:29:19.
