data_PCOD9480564
_publ_section_title
;
Structure prediction by ZEFSAII (Michael W. Deem and Ramdas Pophale) SiO2 
 PCOD9480564
Probable space group: C M C A
;
_chemical_formula_sum "Si O2"
_cell_formula_units_Z 64
_cell_length_a 30.412043
_cell_length_b 5.151727
_cell_length_c 19.330561
_cell_angle_alpha 90.000000
_cell_angle_beta 90.000000
_cell_angle_gamma 90.000000
_cell_volume 3028.606812
_symmetry_space_group_name_H-M "C M C A"
_symmetry_group_IT_number 64
_symmetry_cell_setting 'orthorhombic'
loop_
_space_group_symop_operation_xyz
x,y,z
-x,1/2-y,1/2+z
x,-y,-z
-x,1/2+y,1/2-z
-x,-y,-z
x,1/2+y,1/2-z
-x,y,z
x,1/2-y,1/2+z
1/2+x,1/2+y,z
1/2-x,-y,1/2+z
1/2+x,1/2-y,-z
1/2-x,y,1/2-z
1/2-x,1/2-y,-z
1/2+x,y,1/2-z
1/2-x,1/2+y,z
1/2+x,-y,1/2+z
loop_
_atom_site_type_symbol
_atom_site_label
_atom_site_fract_x
_atom_site_fract_y
_atom_site_fract_z
Si Si1 0.895997 0.640287 0.708087
Si Si2 0.071955 0.500000 0.000000
Si Si3 0.853137 0.810114 0.066384
Si Si4 0.781700 0.000000 0.500000
Si Si5 0.000000 0.897871 0.173252
Si Si6 0.500000 0.883502 0.093824
O O1 0.885337 0.429120 0.766533
O O2 0.866097 0.572102 0.640586
O O3 0.949692 0.640500 0.700095
O O4 0.101945 0.333469 0.951321
O O5 0.041869 0.677560 0.952255
O O6 0.815331 0.588006 0.061501
O O7 0.844515 0.000000 0.000000
O O8 0.750000 0.750000 0.500000
O O9 0.000000 0.687511 0.110907
O O10 0.000000 0.205495 0.159642
#
# Coordination Sequence:
#
# PCOD9480564 Si02
#       6
#    16   8  16   8   8   8
#     4  12  27  43  64  97 142 190 236 283 338 396
#     4  10  22  35  60 100 126 178 224 297 336 396
#     4  11  24  43  75 101 138 174 232 283 350 416
#     4  11  24  45  76 113 134 163 212 281 352 431
#     4  12  22  42  58  85 136 194 239 281 327 392
#     4  11  22  35  60  87 135 171 239 289 340 377
#
# _framework density 21.131827999999999
#
# number of rings (size 3 to 8) (size 9 to 14) (size 15 to 20)
#    0.000    0.750    3.750    3.750    7.000    1.000 
#    0.000    0.000    0.000    4.500    0.000    0.000 
#    0.000    0.000    0.000    0.000    0.000    0.000 
#
# Total GULP energy -178144.463823 kJ/mol
# GULP energy per Si atom -5567.014494 kJ/mol
# Density = 2.108373 g / cm^3
# Si number density = 21.131828 Si / 1000 Ang^3
#
#
#
# Elastic Constant Matrix: (Units=GPa)
#
#
# Indices 1 2 3 4 5 6 
#
# 1 114.8273 33.0625 31.8629 0.0000 0.0000 0.0000
# 2 33.0625 73.1112 14.9609 0.0000 0.0000 0.0000
# 3 31.8629 14.9609 73.0809 0.0000 0.0000 0.0000
# 4 0.0000 0.0000 0.0000 35.5942 0.0000 0.0000
# 5 0.0000 0.0000 0.0000 0.0000 -6.5671 0.0000
# 6 0.0000 0.0000 0.0000 0.0000 0.0000 -340.1784
#
#
#
# Elastic Compliance Matrix: (Units=1/GPa)
#
#
# Indices 1 2 3 4 5 6 
#
# 1 0.011004 -0.004169 -0.003944 0.000000 0.000000 0.000000
# 2 -0.004169 0.015855 -0.001428 0.000000 0.000000 0.000000
# 3 -0.003944 -0.001428 0.015695 0.000000 0.000000 0.000000
# 4 0.000000 0.000000 0.000000 0.028094 0.000000 0.000000
# 5 0.000000 0.000000 0.000000 0.000000 -0.152274 0.000000
# 6 0.000000 0.000000 0.000000 0.000000 0.000000 -0.002940
#
#
# Mechanical properties :
#
#
# Convention : Reuss Voigt Hill
#
# Bulk Modulus (GPa) = 42.60415 46.75467 44.67941
# Shear Modulus (GPa) = -86.71715 -50.15472 -68.43593
#
# Velocity S-wave (km/s) = -6.41291 -4.87706 -5.69698
# Velocity P-wave (km/s) = 5.88463 3.08886 4.69947
#
# Compressibility (1/GPa) = 0.02347189
#
# Stress axis : x y z
#
# Youngs Moduli (GPa) = 90.87997 63.07020 63.71284
#
# Poissons Ratio (x) = 0.26294 0.25129
# Poissons Ratio (y) = 0.37888 0.09100
# Poissons Ratio (z) = 0.35843 0.09008
#
# Static dielectric constant tensor:
#      x y z
#    x 1.773560 0.000000 0.000000 
#    y 0.000000 1.776740 0.000000 
#    z 0.000000 0.000000 1.914170 
# 
# From -- ./inp_files/35649.got.cif
#   From: 2010.05.17/outbox.cif.g08.bks.cpg/sg64_18_cif.got.tgz:35649.got - 2010.06.03 16:29:19.
