data_PCOD9480251
_publ_section_title
;
Structure prediction by ZEFSAII (Michael W. Deem and Ramdas Pophale) SiO2 
 PCOD9480251
Probable space group: C M C A
;
_chemical_formula_sum "Si O2"
_cell_formula_units_Z 120
_cell_length_a 14.745997
_cell_length_b 19.489210
_cell_length_c 19.520134
_cell_angle_alpha 90.000000
_cell_angle_beta 90.000000
_cell_angle_gamma 90.000000
_cell_volume 5609.848994
_symmetry_space_group_name_H-M "C M C A"
_symmetry_group_IT_number 64
_symmetry_cell_setting 'orthorhombic'
loop_
_space_group_symop_operation_xyz
x,y,z
-x,1/2-y,1/2+z
x,-y,-z
-x,1/2+y,1/2-z
-x,-y,-z
x,1/2+y,1/2-z
-x,y,z
x,1/2-y,1/2+z
1/2+x,1/2+y,z
1/2-x,-y,1/2+z
1/2+x,1/2-y,-z
1/2-x,y,1/2-z
1/2-x,1/2-y,-z
1/2+x,y,1/2-z
1/2-x,1/2+y,z
1/2+x,-y,1/2+z
loop_
_atom_site_type_symbol
_atom_site_label
_atom_site_fract_x
_atom_site_fract_y
_atom_site_fract_z
Si Si1 0.780670 0.419445 0.498200
Si Si2 0.605939 0.853029 0.376906
Si Si3 0.105499 0.591985 0.772089
Si Si4 0.250000 0.512596 0.250000
Si Si5 0.784551 0.371162 0.653541
Si Si6 0.397271 0.301815 0.637935
Si Si7 0.392412 0.234680 0.846573
Si Si8 0.601805 0.844912 0.019931
O O1 0.799622 0.500000 0.500000
O O2 0.838807 0.381635 0.440316
O O3 0.797865 0.387574 0.573282
O O4 0.675982 0.404217 0.479386
O O5 0.500000 0.847151 0.396076
O O6 0.612622 0.900056 0.309950
O O7 0.633917 0.776586 0.353843
O O8 0.178587 0.534745 0.790838
O O9 0.129766 0.665684 0.804558
O O10 0.000000 0.577326 0.789641
O O11 0.196555 0.561772 0.302177
O O12 0.678606 0.352692 0.665486
O O13 0.840357 0.303385 0.672529
O O14 0.500000 0.310149 0.664885
O O15 0.399802 0.314550 0.556209
O O16 0.500000 0.246106 0.838752
O O17 0.373126 0.213605 0.925328
O O18 0.500000 0.868553 0.037731
#
# Coordination Sequence:
#
# PCOD9480251 Si02
#       8
#    16  16  16   8  16  16  16  16
#     4  11  23  38  60  91 133 169 208 262 326 393
#     4  10  21  39  65  90 118 162 214 266 320 378
#     4  10  25  45  65  92 125 173 222 260 316 389
#     4  12  28  42  64  90 132 178 204 262 328 398
#     4  11  25  40  61 100 127 169 216 267 328 378
#     4   9  19  37  62  91 123 159 206 263 319 370
#     4  10  22  41  68  94 123 164 216 271 316 372
#     4   9  19  37  60  90 125 162 206 257 311 371
#
# _framework density 21.39095
#
# number of rings (size 3 to 8) (size 9 to 14) (size 15 to 20)
#    0.000    1.867    0.000    2.400    7.467    5.333 
#    0.000    0.000    0.000    0.000    0.000    0.000 
#    0.000    0.000    0.000    0.000    0.000    0.000 
#
# Total GULP energy -335503.405764 kJ/mol
# GULP energy per Si atom -5591.723429 kJ/mol
# Density = 2.134226 g / cm^3
# Si number density = 21.390950 Si / 1000 Ang^3
#
#
#
# Elastic Constant Matrix: (Units=GPa)
#
#
# Indices 1 2 3 4 5 6 
#
# 1 52.3740 47.6735 13.7832 0.0000 0.0000 0.0000
# 2 47.6735 112.1090 13.9005 0.0000 0.0000 0.0000
# 3 13.7832 13.9005 52.5886 0.0000 0.0000 0.0000
# 4 0.0000 0.0000 0.0000 19.9159 0.0000 0.0000
# 5 0.0000 0.0000 0.0000 0.0000 19.1734 0.0000
# 6 0.0000 0.0000 0.0000 0.0000 0.0000 12.6668
#
#
#
# Elastic Compliance Matrix: (Units=1/GPa)
#
#
# Indices 1 2 3 4 5 6 
#
# 1 0.032380 -0.013148 -0.005011 0.000000 0.000000 0.000000
# 2 -0.013148 0.014561 -0.000403 0.000000 0.000000 0.000000
# 3 -0.005011 -0.000403 0.020435 0.000000 0.000000 0.000000
# 4 0.000000 0.000000 0.000000 0.050211 0.000000 0.000000
# 5 0.000000 0.000000 0.000000 0.000000 0.052156 0.000000
# 6 0.000000 0.000000 0.000000 0.000000 0.000000 0.078946
#
#
# Mechanical properties :
#
#
# Convention : Reuss Voigt Hill
#
# Bulk Modulus (GPa) = 33.05535 40.86511 36.96023
# Shear Modulus (GPa) = 16.89769 19.79886 18.34828
#
# Velocity S-wave (km/s) = 2.81365 3.04562 2.93193
# Velocity P-wave (km/s) = 5.10314 5.61366 5.36447
#
# Compressibility (1/GPa) = 0.03025229
#
# Stress axis : x y z
#
# Youngs Moduli (GPa) = 30.88292 68.67672 48.93463
#
# Poissons Ratio (x) = 0.90297 0.24523
# Poissons Ratio (y) = 0.40605 0.01971
# Poissons Ratio (z) = 0.15476 0.02766
#
# Static dielectric constant tensor:
#      x y z
#    x 1.788630 0.000000 0.000000 
#    y 0.000000 1.749020 0.000000 
#    z 0.000000 0.000000 1.788900 
# 
# From -- ./inp_files/39643.got.cif
#   From: 2010.05.17/outbox.cif.g08.bks.cpg/sg64_20_cif.got.tgz:39643.got - 2010.06.03 16:29:19.
