data_PCOD9480116
_publ_section_title
;
Structure prediction by ZEFSAII (Michael W. Deem and Ramdas Pophale) SiO2 
 PCOD9480116
Probable space group: C M C A
;
_chemical_formula_sum "Si O2"
_cell_formula_units_Z 52
_cell_length_a 13.156416
_cell_length_b 18.733576
_cell_length_c 7.809377
_cell_angle_alpha 90.000000
_cell_angle_beta 90.000000
_cell_angle_gamma 90.000000
_cell_volume 1924.751527
_symmetry_space_group_name_H-M "C M C A"
_symmetry_group_IT_number 64
_symmetry_cell_setting 'orthorhombic'
loop_
_space_group_symop_operation_xyz
x,y,z
-x,1/2-y,1/2+z
x,-y,-z
-x,1/2+y,1/2-z
-x,-y,-z
x,1/2+y,1/2-z
-x,y,z
x,1/2-y,1/2+z
1/2+x,1/2+y,z
1/2-x,-y,1/2+z
1/2+x,1/2-y,-z
1/2-x,y,1/2-z
1/2-x,1/2-y,-z
1/2+x,y,1/2-z
1/2-x,1/2+y,z
1/2+x,-y,1/2+z
loop_
_atom_site_type_symbol
_atom_site_label
_atom_site_fract_x
_atom_site_fract_y
_atom_site_fract_z
Si Si1 0.386410 0.364975 0.895935
Si Si2 0.000000 0.000000 0.500000
Si Si3 0.701606 0.092488 0.927019
Si Si4 0.113527 0.221372 0.746831
O O1 0.500000 0.397652 0.867366
O O2 0.290654 0.415000 0.932752
O O3 0.391091 0.319429 0.072925
O O4 0.364429 0.305478 0.753004
O O5 0.092549 0.941152 0.465964
O O6 0.750000 0.063323 0.750000
O O7 0.681656 0.175797 0.881459
O O8 0.000000 0.218665 0.674986
#
# Coordination Sequence:
#
# PCOD9480116 Si02
#       4
#    16   4  16  16
#     4   9  18  32  60  94 128 162 201 257 331 396
#     4  12  24  44  66  86 120 172 240 264 308 394
#     4  10  21  38  64  87 119 169 219 265 320 381
#     4   9  16  32  56  93 126 159 200 254 324 396
#
# _framework density 27.016476000000001
#
# number of rings (size 3 to 8) (size 9 to 14) (size 15 to 20)
#    0.000    2.462    1.538    0.923    2.154    0.000 
#    0.000    3.846    6.769    0.000    0.000    0.000 
#    0.000    0.000    0.000    0.000    0.000    0.000 
#
# Total GULP energy -144851.179879 kJ/mol
# GULP energy per Si atom -5571.199226 kJ/mol
# Density = 2.695499 g / cm^3
# Si number density = 27.016476 Si / 1000 Ang^3
#
#
#
# Elastic Constant Matrix: (Units=GPa)
#
#
# Indices 1 2 3 4 5 6 
#
# 1 313.0124 45.8062 42.7437 0.0000 0.0000 0.0000
# 2 45.8062 68.1073 20.5437 0.0000 0.0000 0.0000
# 3 42.7437 20.5437 101.3566 0.0000 0.0000 0.0000
# 4 0.0000 0.0000 0.0000 -5.5063 0.0000 0.0000
# 5 0.0000 0.0000 0.0000 0.0000 27.6776 0.0000
# 6 0.0000 0.0000 0.0000 0.0000 0.0000 -10.2138
#
#
#
# Elastic Compliance Matrix: (Units=1/GPa)
#
#
# Indices 1 2 3 4 5 6 
#
# 1 0.003657 -0.002125 -0.001112 0.000000 0.000000 0.000000
# 2 -0.002125 0.016873 -0.002524 0.000000 0.000000 0.000000
# 3 -0.001112 -0.002524 0.010847 0.000000 0.000000 0.000000
# 4 0.000000 0.000000 0.000000 -0.181611 0.000000 0.000000
# 5 0.000000 0.000000 0.000000 0.000000 0.036130 0.000000
# 6 0.000000 0.000000 0.000000 0.000000 0.000000 -0.097906
#
#
# Mechanical properties :
#
#
# Convention : Reuss Voigt Hill
#
# Bulk Modulus (GPa) = 50.36167 77.85151 64.10659
# Shear Modulus (GPa) = -25.79034 27.28367 0.74667
#
# Velocity S-wave (km/s) = -3.09304 3.18132 0.52628
# Velocity P-wave (km/s) = 2.43428 6.50948 4.91422
#
# Compressibility (1/GPa) = 0.01985637
#
# Stress axis : x y z
#
# Youngs Moduli (GPa) = 273.41175 59.26665 92.19474
#
# Poissons Ratio (x) = 0.12591 0.10250
# Poissons Ratio (y) = 0.58087 0.23270
# Poissons Ratio (z) = 0.30398 0.14959
#
# Static dielectric constant tensor:
#      x y z
#    x 2.108700 0.000000 0.000000 
#    y 0.000000 2.091930 0.000000 
#    z 0.000000 0.000000 2.213610 
# 
# From -- ./inp_files/5255.got.cif
#   From: 2010.05.17/outbox.cif.g08.bks.cpg/sg64_3_cif.got.tgz:5255.got - 2010.06.03 16:29:19.
