data_PCOD9480775
_publ_section_title
;
Structure prediction by ZEFSAII (Michael W. Deem and Ramdas Pophale) SiO2 
 PCOD9480775
Probable space group: C M C A
;
_chemical_formula_sum "Si O2"
_cell_formula_units_Z 48
_cell_length_a 13.823212
_cell_length_b 7.861838
_cell_length_c 17.896301
_cell_angle_alpha 90.000000
_cell_angle_beta 90.000000
_cell_angle_gamma 90.000000
_cell_volume 1944.895784
_symmetry_space_group_name_H-M "C M C A"
_symmetry_group_IT_number 64
_symmetry_cell_setting 'orthorhombic'
loop_
_space_group_symop_operation_xyz
x,y,z
-x,1/2-y,1/2+z
x,-y,-z
-x,1/2+y,1/2-z
-x,-y,-z
x,1/2+y,1/2-z
-x,y,z
x,1/2-y,1/2+z
1/2+x,1/2+y,z
1/2-x,-y,1/2+z
1/2+x,1/2-y,-z
1/2-x,y,1/2-z
1/2-x,1/2-y,-z
1/2+x,y,1/2-z
1/2-x,1/2+y,z
1/2+x,-y,1/2+z
loop_
_atom_site_type_symbol
_atom_site_label
_atom_site_fract_x
_atom_site_fract_y
_atom_site_fract_z
Si Si1 0.725646 0.045031 0.663521
Si Si2 0.615639 0.360246 0.596148
Si Si3 0.389448 0.672388 0.051502
O O1 0.750000 0.026663 0.750000
O O2 0.829813 0.029245 0.622692
O O3 0.669009 0.889049 0.623824
O O4 0.658543 0.207817 0.647354
O O5 0.500000 0.368621 0.601296
O O6 0.642427 0.307657 0.511625
O O7 0.500000 0.711581 0.071885
O O8 0.390436 0.500000 0.000000
#
# Coordination Sequence:
#
# PCOD9480775 Si02
#       3
#    16  16  16
#     4  11  21  36  59  87 117 149 187 236 289 335
#     4  10  22  40  60  83 114 153 193 232 279 338
#     4   8  16  34  59  82 109 150 192 229 276 335
#
# _framework density 24.679986
#
# number of rings (size 3 to 8) (size 9 to 14) (size 15 to 20)
#    0.000    2.333    0.000    5.000    0.000    2.667 
#    0.000    3.333    0.000   13.000    0.000    0.000 
#    0.000    0.000    0.000    0.000    0.000    0.000 
#
# Total GULP energy -134249.296161 kJ/mol
# GULP energy per Si atom -5593.720673 kJ/mol
# Density = 2.462381 g / cm^3
# Si number density = 24.679986 Si / 1000 Ang^3
#
#
#
# Elastic Constant Matrix: (Units=GPa)
#
#
# Indices 1 2 3 4 5 6 
#
# 1 160.5997 20.7095 73.1523 0.0000 0.0000 0.0000
# 2 20.7095 114.4870 26.5846 0.0000 0.0000 0.0000
# 3 73.1523 26.5846 225.8187 0.0000 0.0000 0.0000
# 4 0.0000 0.0000 0.0000 26.4131 0.0000 0.0000
# 5 0.0000 0.0000 0.0000 0.0000 -2.2857 0.0000
# 6 0.0000 0.0000 0.0000 0.0000 0.0000 0.5833
#
#
#
# Elastic Compliance Matrix: (Units=1/GPa)
#
#
# Indices 1 2 3 4 5 6 
#
# 1 0.007375 -0.000801 -0.002295 0.000000 0.000000 0.000000
# 2 -0.000801 0.009067 -0.000808 0.000000 0.000000 0.000000
# 3 -0.002295 -0.000808 0.005267 0.000000 0.000000 0.000000
# 4 0.000000 0.000000 0.000000 0.037860 0.000000 0.000000
# 5 0.000000 0.000000 0.000000 0.000000 -0.437496 0.000000
# 6 0.000000 0.000000 0.000000 0.000000 0.000000 1.714378
#
#
# Mechanical properties :
#
#
# Convention : Reuss Voigt Hill
#
# Bulk Modulus (GPa) = 71.93547 82.42202 77.17875
# Shear Modulus (GPa) = 3.70674 30.30608 17.00641
#
# Velocity S-wave (km/s) = 1.22686 3.50803 2.62788
# Velocity P-wave (km/s) = 5.58726 7.06238 6.36768
#
# Compressibility (1/GPa) = 0.01390135
#
# Stress axis : x y z
#
# Youngs Moduli (GPa) = 135.58832 110.28832 189.86734
#
# Poissons Ratio (x) = 0.08837 0.43572
# Poissons Ratio (y) = 0.10864 0.15339
# Poissons Ratio (z) = 0.31115 0.08910
#
# Static dielectric constant tensor:
#      x y z
#    x 1.964230 0.000000 0.000000 
#    y 0.000000 2.141380 0.000000 
#    z 0.000000 0.000000 1.911160 
# 
# From -- ./inp_files/30239.got.cif
#   From: 2010.05.17/outbox.cif.g08.bks.cpg/sg64_16_cif.got.tgz:30239.got - 2010.06.03 16:29:19.
