data_PCOD9480049
_publ_section_title
;
Structure prediction by ZEFSAII (Michael W. Deem and Ramdas Pophale) SiO2 
 PCOD9480049
Probable space group: C M C A
;
_chemical_formula_sum "Si O2"
_cell_formula_units_Z 64
_cell_length_a 22.594917
_cell_length_b 14.291370
_cell_length_c 8.171474
_cell_angle_alpha 90.000000
_cell_angle_beta 90.000000
_cell_angle_gamma 90.000000
_cell_volume 2638.669619
_symmetry_space_group_name_H-M "C M C A"
_symmetry_group_IT_number 64
_symmetry_cell_setting 'orthorhombic'
loop_
_space_group_symop_operation_xyz
x,y,z
-x,1/2-y,1/2+z
x,-y,-z
-x,1/2+y,1/2-z
-x,-y,-z
x,1/2+y,1/2-z
-x,y,z
x,1/2-y,1/2+z
1/2+x,1/2+y,z
1/2-x,-y,1/2+z
1/2+x,1/2-y,-z
1/2-x,y,1/2-z
1/2-x,1/2-y,-z
1/2+x,y,1/2-z
1/2-x,1/2+y,z
1/2+x,-y,1/2+z
loop_
_atom_site_type_symbol
_atom_site_label
_atom_site_fract_x
_atom_site_fract_y
_atom_site_fract_z
Si Si1 0.500000 0.860041 0.484850
Si Si2 0.369092 0.897500 0.361374
Si Si3 0.183258 0.106644 0.188497
Si Si4 0.373615 0.893787 0.001889
Si Si5 0.000000 0.643540 0.120491
O O1 0.438182 0.899679 0.414178
O O2 0.500000 0.868019 0.682644
O O3 0.500000 0.752648 0.427049
O O4 0.330526 0.853443 0.508552
O O5 0.363481 0.853071 0.181145
O O6 0.345708 0.003353 0.333352
O O7 0.250000 0.098511 0.250000
O O8 0.151258 0.155582 0.340841
O O9 0.442625 0.898791 0.963648
O O10 0.348459 0.000000 0.000000
#
# Coordination Sequence:
#
# PCOD9480049 Si02
#       5
#     8  16  16  16   8
#     4  12  24  42  62  94 128 171 214 262 319 386
#     4  10  22  37  62  92 127 162 206 259 316 371
#     4  10  22  37  61  93 126 163 209 257 312 375
#     4  10  21  38  60  95 126 163 204 263 323 368
#     4  12  23  41  64  90 131 167 214 260 320 386
#
# _framework density 24.254648
#
# number of rings (size 3 to 8) (size 9 to 14) (size 15 to 20)
#    0.000    1.500    2.500    2.625   10.500    5.000 
#    0.000    0.000    0.000    3.000    0.000    0.000 
#    0.000    0.000    0.000    0.000    0.000    0.000 
#
# Total GULP energy -178766.092968 kJ/mol
# GULP energy per Si atom -5586.440405 kJ/mol
# Density = 2.419944 g / cm^3
# Si number density = 24.254648 Si / 1000 Ang^3
#
#
#
# Elastic Constant Matrix: (Units=GPa)
#
#
# Indices 1 2 3 4 5 6 
#
# 1 134.2642 18.4436 66.7921 0.0000 0.0000 0.0000
# 2 18.4436 74.9741 36.8143 0.0000 0.0000 0.0000
# 3 66.7921 36.8143 317.1417 0.0000 0.0000 0.0000
# 4 0.0000 0.0000 0.0000 27.8256 0.0000 0.0000
# 5 0.0000 0.0000 0.0000 0.0000 162.6550 0.0000
# 6 0.0000 0.0000 0.0000 0.0000 0.0000 -103.6943
#
#
#
# Elastic Compliance Matrix: (Units=1/GPa)
#
#
# Indices 1 2 3 4 5 6 
#
# 1 0.008433 -0.001275 -0.001628 0.000000 0.000000 0.000000
# 2 -0.001275 0.014337 -0.001396 0.000000 0.000000 0.000000
# 3 -0.001628 -0.001396 0.003658 0.000000 0.000000 0.000000
# 4 0.000000 0.000000 0.000000 0.035938 0.000000 0.000000
# 5 0.000000 0.000000 0.000000 0.000000 0.006148 0.000000
# 6 0.000000 0.000000 0.000000 0.000000 0.000000 -0.009644
#
#
# Mechanical properties :
#
#
# Convention : Reuss Voigt Hill
#
# Bulk Modulus (GPa) = 56.08422 85.60890 70.84656
# Shear Modulus (GPa) = 68.10915 44.31261 56.21088
#
# Velocity S-wave (km/s) = 5.30489 4.27895 4.81930
# Velocity P-wave (km/s) = 7.79075 7.73208 7.76147
#
# Compressibility (1/GPa) = 0.01783033
#
# Stress axis : x y z
#
# Youngs Moduli (GPa) = 118.58091 69.74986 273.36925
#
# Poissons Ratio (x) = 0.08894 0.44506
# Poissons Ratio (y) = 0.15121 0.38154
# Poissons Ratio (z) = 0.19305 0.09735
#
# Static dielectric constant tensor:
#      x y z
#    x 2.172270 0.000000 0.000000 
#    y 0.000000 1.984130 0.000000 
#    z 0.000000 0.000000 2.022240 
# 
# From -- ./inp_files/7801.got.cif
#   From: 2010.05.17/outbox.cif.g08.bks.cpg/sg64_4_cif.got.tgz:7801.got - 2010.06.03 16:29:19.
