data_PCOD9480392
_publ_section_title
;
Structure prediction by ZEFSAII (Michael W. Deem and Ramdas Pophale) SiO2 
 PCOD9480392
Probable space group: C M C A
;
_chemical_formula_sum "Si O2"
_cell_formula_units_Z 80
_cell_length_a 17.027041
_cell_length_b 27.083985
_cell_length_c 8.781710
_cell_angle_alpha 90.000000
_cell_angle_beta 90.000000
_cell_angle_gamma 90.000000
_cell_volume 4049.774464
_symmetry_space_group_name_H-M "C M C A"
_symmetry_group_IT_number 64
_symmetry_cell_setting 'orthorhombic'
loop_
_space_group_symop_operation_xyz
x,y,z
-x,1/2-y,1/2+z
x,-y,-z
-x,1/2+y,1/2-z
-x,-y,-z
x,1/2+y,1/2-z
-x,y,z
x,1/2-y,1/2+z
1/2+x,1/2+y,z
1/2-x,-y,1/2+z
1/2+x,1/2-y,-z
1/2-x,y,1/2-z
1/2-x,1/2-y,-z
1/2+x,y,1/2-z
1/2-x,1/2+y,z
1/2+x,-y,1/2+z
loop_
_atom_site_type_symbol
_atom_site_label
_atom_site_fract_x
_atom_site_fract_y
_atom_site_fract_z
Si Si1 0.763442 0.609497 0.916384
Si Si2 0.408066 0.604605 0.376058
Si Si3 0.908566 0.711388 0.279127
Si Si4 0.684322 0.284504 0.073200
Si Si5 0.678713 0.036879 0.359681
O O1 0.750000 0.587337 0.750000
O O2 0.728242 0.664157 0.903507
O O3 0.852602 0.604581 0.975255
O O4 0.714972 0.582586 0.047695
O O5 0.500000 0.600893 0.411799
O O6 0.393006 0.658502 0.300282
O O7 0.384115 0.560982 0.257227
O O8 0.885791 0.706731 0.454435
O O9 0.854079 0.754533 0.211321
O O10 0.000000 0.723242 0.258176
O O11 0.750000 0.250000 0.000000
O O12 0.750000 0.018399 0.250000
O O13 0.655441 0.000000 0.500000
#
# Coordination Sequence:
#
# PCOD9480392 Si02
#       5
#    16  16  16  16  16
#     4  11  22  39  61  93 125 167 217 261 310 381
#     4  10  22  41  63  90 131 169 205 265 327 371
#     4  11  23  39  56  85 127 167 210 260 317 371
#     4  12  22  36  59  86 121 168 213 260 306 374
#     4  10  21  40  69  95 126 162 214 266 322 383
#
# _framework density 19.754186000000001
#
# number of rings (size 3 to 8) (size 9 to 14) (size 15 to 20)
#    0.000    1.200    4.000    3.000    0.000    0.400 
#    0.000    2.000    0.000   20.400    0.000    0.000 
#    0.000    0.000    0.000    0.000    0.000    0.000 
#
# Total GULP energy -223112.730269 kJ/mol
# GULP energy per Si atom -5577.818257 kJ/mol
# Density = 1.970922 g / cm^3
# Si number density = 19.754186 Si / 1000 Ang^3
#
#
#
# Elastic Constant Matrix: (Units=GPa)
#
#
# Indices 1 2 3 4 5 6 
#
# 1 106.0568 46.4631 53.6319 0.0000 0.0000 0.0000
# 2 46.4631 114.3141 35.6202 0.0000 0.0000 0.0000
# 3 53.6319 35.6202 125.7358 0.0000 0.0000 0.0000
# 4 0.0000 0.0000 0.0000 29.9925 0.0000 0.0000
# 5 0.0000 0.0000 0.0000 0.0000 24.6377 0.0000
# 6 0.0000 0.0000 0.0000 0.0000 0.0000 2.4737
#
#
#
# Elastic Compliance Matrix: (Units=1/GPa)
#
#
# Indices 1 2 3 4 5 6 
#
# 1 0.013550 -0.004065 -0.004628 0.000000 0.000000 0.000000
# 2 -0.004065 0.010815 -0.001330 0.000000 0.000000 0.000000
# 3 -0.004628 -0.001330 0.010304 0.000000 0.000000 0.000000
# 4 0.000000 0.000000 0.000000 0.033342 0.000000 0.000000
# 5 0.000000 0.000000 0.000000 0.000000 0.040588 0.000000
# 6 0.000000 0.000000 0.000000 0.000000 0.000000 0.404247
#
#
# Mechanical properties :
#
#
# Convention : Reuss Voigt Hill
#
# Bulk Modulus (GPa) = 68.38765 68.61525 68.50145
# Shear Modulus (GPa) = 9.29771 25.44686 17.37229
#
# Velocity S-wave (km/s) = 2.17185 3.59301 2.96872
# Velocity P-wave (km/s) = 6.40185 7.21269 6.81933
#
# Compressibility (1/GPa) = 0.01462252
#
# Stress axis : x y z
#
# Youngs Moduli (GPa) = 73.79870 92.46807 97.05010
#
# Poissons Ratio (x) = 0.37592 0.44916
# Poissons Ratio (y) = 0.30003 0.12904
# Poissons Ratio (z) = 0.34155 0.12295
#
# Static dielectric constant tensor:
#      x y z
#    x 1.671670 0.000000 0.000000 
#    y 0.000000 1.872160 0.000000 
#    z 0.000000 0.000000 1.716700 
# 
# From -- ./inp_files/7100.got.cif
#   From: 2010.05.17/outbox.cif.g08.bks.cpg/sg64_4_cif.got.tgz:7100.got - 2010.06.03 16:29:19.
