data_PCOD9480319
_publ_section_title
;
Structure prediction by ZEFSAII (Michael W. Deem and Ramdas Pophale) SiO2 
 PCOD9480319
Probable space group: C M C A
;
_chemical_formula_sum "Si O2"
_cell_formula_units_Z 88
_cell_length_a 23.900819
_cell_length_b 15.973759
_cell_length_c 11.095764
_cell_angle_alpha 90.000000
_cell_angle_beta 90.000000
_cell_angle_gamma 90.000000
_cell_volume 4236.206496
_symmetry_space_group_name_H-M "C M C A"
_symmetry_group_IT_number 64
_symmetry_cell_setting 'orthorhombic'
loop_
_space_group_symop_operation_xyz
x,y,z
-x,1/2-y,1/2+z
x,-y,-z
-x,1/2+y,1/2-z
-x,-y,-z
x,1/2+y,1/2-z
-x,y,z
x,1/2-y,1/2+z
1/2+x,1/2+y,z
1/2-x,-y,1/2+z
1/2+x,1/2-y,-z
1/2-x,y,1/2-z
1/2-x,1/2-y,-z
1/2+x,y,1/2-z
1/2-x,1/2+y,z
1/2+x,-y,1/2+z
loop_
_atom_site_type_symbol
_atom_site_label
_atom_site_fract_x
_atom_site_fract_y
_atom_site_fract_z
Si Si1 0.936067 0.208504 0.796431
Si Si2 0.124624 0.750754 0.458940
Si Si3 0.750000 0.484621 0.250000
Si Si4 0.935062 0.018913 0.735600
Si Si5 0.336970 0.075824 0.921957
Si Si6 0.346379 0.432353 0.895551
O O1 0.903965 0.232596 0.672656
O O2 0.934380 0.107041 0.808155
O O3 0.000000 0.234079 0.778781
O O4 0.913907 0.244784 0.922302
O O5 0.161258 0.833699 0.479955
O O6 0.153923 0.661323 0.445160
O O7 0.703934 0.424379 0.308965
O O8 0.711598 0.543896 0.168007
O O9 0.898747 0.045407 0.619155
O O10 0.000000 0.996328 0.714460
O O11 0.898494 0.948848 0.803929
O O12 0.313896 0.000000 0.000000
O O13 0.354550 0.500000 0.000000
#
# Coordination Sequence:
#
# PCOD9480319 Si02
#       6
#    16  16   8  16  16  16
#     4  10  21  40  62  97 138 177 220 265 321 394
#     4  11  24  40  67  96 134 175 219 274 333 393
#     4  10  24  44  68  90 126 172 222 286 336 392
#     4   9  20  38  63  93 134 173 212 269 327 389
#     4  10  23  44  64  93 131 170 224 272 334 397
#     4  11  22  42  65  96 130 170 226 274 331 397
#
# _framework density 20.773304
#
# number of rings (size 3 to 8) (size 9 to 14) (size 15 to 20)
#    0.000    1.818    1.818    1.091    5.091    3.636 
#    0.000    3.636    0.000    0.000    0.000    0.000 
#    0.000    0.000    0.000    0.000    0.000    0.000 
#
# Total GULP energy -245345.413559 kJ/mol
# GULP energy per Si atom -5576.032126 kJ/mol
# Density = 2.072602 g / cm^3
# Si number density = 20.773304 Si / 1000 Ang^3
#
#
#
# Elastic Constant Matrix: (Units=GPa)
#
#
# Indices 1 2 3 4 5 6 
#
# 1 93.0237 8.8160 11.2159 0.0000 0.0000 0.0000
# 2 8.8160 109.3721 18.7285 0.0000 0.0000 0.0000
# 3 11.2159 18.7285 53.9464 0.0000 0.0000 0.0000
# 4 0.0000 0.0000 0.0000 29.6248 0.0000 0.0000
# 5 0.0000 0.0000 0.0000 0.0000 11.2897 0.0000
# 6 0.0000 0.0000 0.0000 0.0000 0.0000 5.3711
#
#
#
# Elastic Compliance Matrix: (Units=1/GPa)
#
#
# Indices 1 2 3 4 5 6 
#
# 1 0.011055 -0.000529 -0.002115 0.000000 0.000000 0.000000
# 2 -0.000529 0.009746 -0.003274 0.000000 0.000000 0.000000
# 3 -0.002115 -0.003274 0.020113 0.000000 0.000000 0.000000
# 4 0.000000 0.000000 0.000000 0.033755 0.000000 0.000000
# 5 0.000000 0.000000 0.000000 0.000000 0.088576 0.000000
# 6 0.000000 0.000000 0.000000 0.000000 0.000000 0.186181
#
#
# Mechanical properties :
#
#
# Convention : Reuss Voigt Hill
#
# Bulk Modulus (GPa) = 34.38829 37.09590 35.74209
# Shear Modulus (GPa) = 13.47872 23.76259 18.62065
#
# Velocity S-wave (km/s) = 2.55001 3.38583 2.99720
# Velocity P-wave (km/s) = 5.02594 5.76033 5.40562
#
# Compressibility (1/GPa) = 0.02907967
#
# Stress axis : x y z
#
# Youngs Moduli (GPa) = 90.45628 102.60301 49.71877
#
# Poissons Ratio (x) = 0.05427 0.10515
# Poissons Ratio (y) = 0.04785 0.16276
# Poissons Ratio (z) = 0.19130 0.33589
#
# Static dielectric constant tensor:
#      x y z
#    x 1.723940 0.000000 0.000000 
#    y 0.000000 1.762950 0.000000 
#    z 0.000000 0.000000 1.824230 
# 
# From -- ./inp_files/18190.got.cif
#   From: 2010.05.17/outbox.cif.g08.bks.cpg/sg64_10_cif.got.tgz:18190.got - 2010.06.03 16:29:19.
