data_PCOD9480195
_publ_section_title
;
Structure prediction by ZEFSAII (Michael W. Deem and Ramdas Pophale) SiO2 
 PCOD9480195
Probable space group: C M C A
;
_chemical_formula_sum "Si O2"
_cell_formula_units_Z 96
_cell_length_a 8.894148
_cell_length_b 19.860574
_cell_length_c 28.350830
_cell_angle_alpha 90.000000
_cell_angle_beta 90.000000
_cell_angle_gamma 90.000000
_cell_volume 5007.972390
_symmetry_space_group_name_H-M "C M C A"
_symmetry_group_IT_number 64
_symmetry_cell_setting 'orthorhombic'
loop_
_space_group_symop_operation_xyz
x,y,z
-x,1/2-y,1/2+z
x,-y,-z
-x,1/2+y,1/2-z
-x,-y,-z
x,1/2+y,1/2-z
-x,y,z
x,1/2-y,1/2+z
1/2+x,1/2+y,z
1/2-x,-y,1/2+z
1/2+x,1/2-y,-z
1/2-x,y,1/2-z
1/2-x,1/2-y,-z
1/2+x,y,1/2-z
1/2-x,1/2+y,z
1/2+x,-y,1/2+z
loop_
_atom_site_type_symbol
_atom_site_label
_atom_site_fract_x
_atom_site_fract_y
_atom_site_fract_z
Si Si1 0.176858 0.105585 0.799141
Si Si2 0.675366 0.778152 0.146150
Si Si3 0.177474 0.636933 0.301811
Si Si4 0.678759 0.702054 0.538867
Si Si5 0.816849 0.546070 0.955914
Si Si6 0.680474 0.985177 0.854590
O O1 0.250000 0.126951 0.750000
O O2 0.216339 0.163561 0.836112
O O3 0.000000 0.095313 0.794326
O O4 0.257527 0.038376 0.816869
O O5 0.500000 0.800792 0.150762
O O6 0.695335 0.711874 0.177383
O O7 0.702931 0.767269 0.090878
O O8 0.250000 0.631001 0.250000
O O9 0.253257 0.585935 0.338649
O O10 0.000000 0.622229 0.298316
O O11 0.500000 0.699565 0.530573
O O12 0.750000 0.750000 0.500000
O O13 0.732807 0.623977 0.539369
O O14 0.771763 0.512022 0.906308
O O15 0.000000 0.547386 0.955577
O O16 0.769263 0.500000 0.000000
O O17 0.500000 0.983227 0.853427
#
# Coordination Sequence:
#
# PCOD9480195 Si02
#       6
#    16  16  16  16  16  16
#     4  12  24  39  63  91 121 156 203 252 306 368
#     4  10  22  42  63  87 125 165 203 254 308 361
#     4  11  24  41  61  88 123 160 205 252 304 361
#     4  10  21  39  62  90 125 159 199 249 305 363
#     4   9  19  37  62  90 120 157 200 248 300 360
#     4  11  22  40  64  88 123 162 203 249 304 362
#
# _framework density 19.169435
#
# number of rings (size 3 to 8) (size 9 to 14) (size 15 to 20)
#    0.000    1.500    1.667    3.500    2.333    3.333 
#    0.000    0.000    0.000    2.500    0.000    0.000 
#    0.000    0.000    0.000    0.000    0.000    0.000 
#
# Total GULP energy -268196.414350 kJ/mol
# GULP energy per Si atom -5587.425299 kJ/mol
# Density = 1.912580 g / cm^3
# Si number density = 19.169435 Si / 1000 Ang^3
#
#
#
# Elastic Constant Matrix: (Units=GPa)
#
#
# Indices 1 2 3 4 5 6 
#
# 1 57.6889 26.2821 21.1495 0.0000 0.0000 0.0000
# 2 26.2821 60.6671 14.1486 0.0000 0.0000 0.0000
# 3 21.1495 14.1486 86.4128 0.0000 0.0000 0.0000
# 4 0.0000 0.0000 0.0000 43.6061 0.0000 0.0000
# 5 0.0000 0.0000 0.0000 0.0000 25.9482 0.0000
# 6 0.0000 0.0000 0.0000 0.0000 0.0000 24.0922
#
#
#
# Elastic Compliance Matrix: (Units=1/GPa)
#
#
# Indices 1 2 3 4 5 6 
#
# 1 0.022942 -0.008972 -0.004146 0.000000 0.000000 0.000000
# 2 -0.008972 0.020646 -0.001185 0.000000 0.000000 0.000000
# 3 -0.004146 -0.001185 0.012781 0.000000 0.000000 0.000000
# 4 0.000000 0.000000 0.000000 0.022933 0.000000 0.000000
# 5 0.000000 0.000000 0.000000 0.000000 0.038538 0.000000
# 6 0.000000 0.000000 0.000000 0.000000 0.000000 0.041507
#
#
# Mechanical properties :
#
#
# Convention : Reuss Voigt Hill
#
# Bulk Modulus (GPa) = 36.01754 36.43659 36.22706
# Shear Modulus (GPa) = 25.35406 28.27521 26.81463
#
# Velocity S-wave (km/s) = 3.64074 3.84476 3.74414
# Velocity P-wave (km/s) = 6.04179 6.22563 6.13440
#
# Compressibility (1/GPa) = 0.02776425
#
# Stress axis : x y z
#
# Youngs Moduli (GPa) = 43.58864 48.43446 78.24083
#
# Poissons Ratio (x) = 0.43455 0.32439
# Poissons Ratio (y) = 0.39107 0.09269
# Poissons Ratio (z) = 0.18072 0.05738
#
# Static dielectric constant tensor:
#      x y z
#    x 1.648400 0.000000 0.000000 
#    y 0.000000 1.661870 0.000000 
#    z 0.000000 0.000000 1.656450 
# 
# From -- ./inp_files/48152.got.cif
#   From: 2010.05.17/outbox.cif.g08.bks.cpg/sg64_25_cif.got.tgz:48152.got - 2010.06.03 16:29:19.
