data_PCOD9480750
_publ_section_title
;
Structure prediction by ZEFSAII (Michael W. Deem and Ramdas Pophale) SiO2 
 PCOD9480750
Probable space group: C M C A
;
_chemical_formula_sum "Si O2"
_cell_formula_units_Z 88
_cell_length_a 22.868847
_cell_length_b 5.878496
_cell_length_c 24.596966
_cell_angle_alpha 90.000000
_cell_angle_beta 90.000000
_cell_angle_gamma 90.000000
_cell_volume 3306.678996
_symmetry_space_group_name_H-M "C M C A"
_symmetry_group_IT_number 64
_symmetry_cell_setting 'orthorhombic'
loop_
_space_group_symop_operation_xyz
x,y,z
-x,1/2-y,1/2+z
x,-y,-z
-x,1/2+y,1/2-z
-x,-y,-z
x,1/2+y,1/2-z
-x,y,z
x,1/2-y,1/2+z
1/2+x,1/2+y,z
1/2-x,-y,1/2+z
1/2+x,1/2-y,-z
1/2-x,y,1/2-z
1/2-x,1/2-y,-z
1/2+x,y,1/2-z
1/2-x,1/2+y,z
1/2+x,-y,1/2+z
loop_
_atom_site_type_symbol
_atom_site_label
_atom_site_fract_x
_atom_site_fract_y
_atom_site_fract_z
Si Si1 0.738701 0.043506 0.838836
Si Si2 0.438033 0.342022 0.552829
Si Si3 0.500000 0.343896 0.724819
Si Si4 0.114605 0.649561 0.868233
Si Si5 0.674742 0.476617 0.060444
Si Si6 0.125294 0.841690 0.754937
O O1 0.740022 0.301689 0.814349
O O2 0.670592 0.000640 0.850796
O O3 0.776021 0.073365 0.894533
O O4 0.437262 0.500000 0.500000
O O5 0.500000 0.210413 0.553586
O O6 0.436123 0.507539 0.604665
O O7 0.378941 0.198906 0.555151
O O8 0.500000 0.583758 0.756022
O O9 0.570766 0.353236 0.712528
O O10 0.100561 0.807883 0.816660
O O11 0.142421 0.800910 0.916520
O O12 0.700524 0.500000 0.000000
O O13 0.153953 0.593297 0.743258
#
# Coordination Sequence:
#
# PCOD9480750 Si02
#       6
#    16  16   8  16  16  16
#     4  10  22  39  65  96 131 168 225 288 327 393
#     4  11  24  42  63  98 145 182 223 274 341 427
#     4   8  16  36  58  86 118 156 214 276 324 380
#     4  11  24  41  67  96 134 180 229 282 351 405
#     4  11  23  41  65  98 136 182 230 284 338 404
#     4  10  23  41  64  93 131 172 226 286 340 406
#
# _framework density 26.612803
#
# number of rings (size 3 to 8) (size 9 to 14) (size 15 to 20)
#    0.000    1.636    3.636    0.000    3.818    4.727 
#    0.000    0.000    0.000   13.091    0.000    0.000 
#    0.000    0.000    0.000    0.000    0.000    0.000 
#
# Total GULP energy -245315.963551 kJ/mol
# GULP energy per Si atom -5575.362808 kJ/mol
# Density = 2.655223 g / cm^3
# Si number density = 26.612803 Si / 1000 Ang^3
#
#
#
# Elastic Constant Matrix: (Units=GPa)
#
#
# Indices 1 2 3 4 5 6 
#
# 1 166.6440 43.5259 18.0233 0.0000 0.0000 0.0000
# 2 43.5259 186.8188 25.8105 0.0000 0.0000 0.0000
# 3 18.0233 25.8105 143.4237 0.0000 0.0000 0.0000
# 4 0.0000 0.0000 0.0000 32.2241 0.0000 0.0000
# 5 0.0000 0.0000 0.0000 0.0000 -73.8279 0.0000
# 6 0.0000 0.0000 0.0000 0.0000 0.0000 32.2889
#
#
#
# Elastic Compliance Matrix: (Units=1/GPa)
#
#
# Indices 1 2 3 4 5 6 
#
# 1 0.006432 -0.001422 -0.000552 0.000000 0.000000 0.000000
# 2 -0.001422 0.005804 -0.000866 0.000000 0.000000 0.000000
# 3 -0.000552 -0.000866 0.007198 0.000000 0.000000 0.000000
# 4 0.000000 0.000000 0.000000 0.031033 0.000000 0.000000
# 5 0.000000 0.000000 0.000000 0.000000 -0.013545 0.000000
# 6 0.000000 0.000000 0.000000 0.000000 0.000000 0.030970
#
#
# Mechanical properties :
#
#
# Convention : Reuss Voigt Hill
#
# Bulk Modulus (GPa) = 72.71282 74.62287 73.66784
# Shear Modulus (GPa) = 63.97439 25.43879 44.70659
#
# Velocity S-wave (km/s) = 4.90827 3.09509 4.10309
# Velocity P-wave (km/s) = 7.71384 6.39327 7.08439
#
# Compressibility (1/GPa) = 0.01375273
#
# Stress axis : x y z
#
# Youngs Moduli (GPa) = 155.47182 172.30245 138.93616
#
# Poissons Ratio (x) = 0.24506 0.07674
# Poissons Ratio (y) = 0.22112 0.12028
# Poissons Ratio (z) = 0.08587 0.14916
#
# Static dielectric constant tensor:
#      x y z
#    x 2.121990 0.000000 0.000000 
#    y 0.000000 2.102180 0.000000 
#    z 0.000000 0.000000 2.244740 
# 
# From -- ./inp_files/53880.got.cif
#   From: 2010.05.17/outbox.cif.g08.bks.cpg/sg64_27_cif.got.tgz:53880.got - 2010.06.03 16:29:19.
