data_PCOD9480301
_publ_section_title
;
Structure prediction by ZEFSAII (Michael W. Deem and Ramdas Pophale) SiO2 
 PCOD9480301
Probable space group: C M C A
;
_chemical_formula_sum "Si O2"
_cell_formula_units_Z 104
_cell_length_a 9.629310
_cell_length_b 26.938654
_cell_length_c 20.444918
_cell_angle_alpha 90.000000
_cell_angle_beta 90.000000
_cell_angle_gamma 90.000000
_cell_volume 5303.425026
_symmetry_space_group_name_H-M "C M C A"
_symmetry_group_IT_number 64
_symmetry_cell_setting 'orthorhombic'
loop_
_space_group_symop_operation_xyz
x,y,z
-x,1/2-y,1/2+z
x,-y,-z
-x,1/2+y,1/2-z
-x,-y,-z
x,1/2+y,1/2-z
-x,y,z
x,1/2-y,1/2+z
1/2+x,1/2+y,z
1/2-x,-y,1/2+z
1/2+x,1/2-y,-z
1/2-x,y,1/2-z
1/2-x,1/2-y,-z
1/2+x,y,1/2-z
1/2-x,1/2+y,z
1/2+x,-y,1/2+z
loop_
_atom_site_type_symbol
_atom_site_label
_atom_site_fract_x
_atom_site_fract_y
_atom_site_fract_z
Si Si1 0.336153 0.642157 0.427502
Si Si2 0.341122 0.016976 0.688280
Si Si3 0.839885 0.319796 0.073720
Si Si4 0.837193 0.024649 0.429229
Si Si5 0.225934 0.727139 0.348445
Si Si6 0.500000 0.257199 0.732147
Si Si7 0.158451 0.863306 0.188430
O O1 0.500000 0.648406 0.411144
O O2 0.314045 0.665964 0.498975
O O3 0.310231 0.583481 0.431542
O O4 0.244938 0.671186 0.374568
O O5 0.500000 0.999184 0.691604
O O6 0.250000 0.999922 0.750000
O O7 0.345396 0.076966 0.690082
O O8 0.263198 0.999954 0.623338
O O9 0.820748 0.262339 0.091706
O O10 0.734842 0.347588 0.122480
O O11 0.000000 0.334399 0.089129
O O12 0.000000 0.016968 0.411199
O O13 0.816984 0.000000 0.500000
O O14 0.376222 0.744179 0.323340
O O15 0.118737 0.734472 0.290050
O O16 0.250000 0.845936 0.250000
O O17 0.000000 0.844580 0.196711
#
# Coordination Sequence:
#
# PCOD9480301 Si02
#       7
#    16  16  16  16  16   8  16
#     4  10  22  42  62  92 122 163 205 249 302 365
#     4  10  21  40  60  89 122 158 204 260 313 370
#     4  11  23  38  63  90 124 161 205 249 304 363
#     4  10  21  40  67  91 123 162 207 251 311 374
#     4  11  22  43  61  91 122 165 202 256 295 364
#     4  10  24  40  66  86 122 160 212 248 308 348
#     4  10  22  36  58  88 123 160 204 254 311 367
#
# _framework density 19.609967999999999
#
# number of rings (size 3 to 8) (size 9 to 14) (size 15 to 20)
#    0.000    1.692    1.538    2.308    3.231    3.385 
#    5.538    0.000    0.000    0.000    0.000    0.000 
#    0.000    0.000    0.000    0.000    0.000    0.000 
#
# Total GULP energy -289544.314437 kJ/mol
# GULP energy per Si atom -5568.159893 kJ/mol
# Density = 1.956534 g / cm^3
# Si number density = 19.609968 Si / 1000 Ang^3
#
#
#
# Elastic Constant Matrix: (Units=GPa)
#
#
# Indices 1 2 3 4 5 6 
#
# 1 158.8207 22.1550 49.8508 0.0000 0.0000 0.0000
# 2 22.1550 48.7569 8.4509 0.0000 0.0000 0.0000
# 3 49.8508 8.4509 47.1455 0.0000 0.0000 0.0000
# 4 0.0000 0.0000 0.0000 4.9806 0.0000 0.0000
# 5 0.0000 0.0000 0.0000 0.0000 47.9820 0.0000
# 6 0.0000 0.0000 0.0000 0.0000 0.0000 27.6500
#
#
#
# Elastic Compliance Matrix: (Units=1/GPa)
#
#
# Indices 1 2 3 4 5 6 
#
# 1 0.009765 -0.002732 -0.009835 0.000000 0.000000 0.000000
# 2 -0.002732 0.021932 -0.001042 0.000000 0.000000 0.000000
# 3 -0.009835 -0.001042 0.031797 0.000000 0.000000 0.000000
# 4 0.000000 0.000000 0.000000 0.200780 0.000000 0.000000
# 5 0.000000 0.000000 0.000000 0.000000 0.020841 0.000000
# 6 0.000000 0.000000 0.000000 0.000000 0.000000 0.036166
#
#
# Mechanical properties :
#
#
# Convention : Reuss Voigt Hill
#
# Bulk Modulus (GPa) = 27.56752 46.18182 36.87467
# Shear Modulus (GPa) = 13.86606 27.74027 20.80316
#
# Velocity S-wave (km/s) = 2.66201 3.76520 3.26060
# Velocity P-wave (km/s) = 4.85147 6.51948 5.74632
#
# Compressibility (1/GPa) = 0.03627458
#
# Stress axis : x y z
#
# Youngs Moduli (GPa) = 102.41034 45.59525 31.44919
#
# Poissons Ratio (x) = 0.12458 0.30931
# Poissons Ratio (y) = 0.27982 0.03278
# Poissons Ratio (z) = 1.00722 0.04752
#
# Static dielectric constant tensor:
#      x y z
#    x 1.676600 0.000000 0.000000 
#    y 0.000000 1.757590 0.000000 
#    z 0.000000 0.000000 1.645240 
# 
# From -- ./inp_files/37196.got.cif
#   From: 2010.05.17/outbox.cif.g08.bks.cpg/sg64_19_cif.got.tgz:37196.got - 2010.06.03 16:29:19.
