data_PCOD9480567
_publ_section_title
;
Structure prediction by ZEFSAII (Michael W. Deem and Ramdas Pophale) SiO2 
 PCOD9480567
Probable space group: C M C A
;
_chemical_formula_sum "Si O2"
_cell_formula_units_Z 64
_cell_length_a 20.198102
_cell_length_b 18.925221
_cell_length_c 8.556819
_cell_angle_alpha 90.000000
_cell_angle_beta 90.000000
_cell_angle_gamma 90.000000
_cell_volume 3270.874389
_symmetry_space_group_name_H-M "C M C A"
_symmetry_group_IT_number 64
_symmetry_cell_setting 'orthorhombic'
loop_
_space_group_symop_operation_xyz
x,y,z
-x,1/2-y,1/2+z
x,-y,-z
-x,1/2+y,1/2-z
-x,-y,-z
x,1/2+y,1/2-z
-x,y,z
x,1/2-y,1/2+z
1/2+x,1/2+y,z
1/2-x,-y,1/2+z
1/2+x,1/2-y,-z
1/2-x,y,1/2-z
1/2-x,1/2-y,-z
1/2+x,y,1/2-z
1/2-x,1/2+y,z
1/2+x,-y,1/2+z
loop_
_atom_site_type_symbol
_atom_site_label
_atom_site_fract_x
_atom_site_fract_y
_atom_site_fract_z
Si Si1 0.072156 0.354874 0.857357
Si Si2 0.796006 0.190820 0.884822
Si Si3 0.785800 0.424532 0.917235
Si Si4 0.616372 0.770323 0.133595
O O1 0.138541 0.400762 0.883127
O O2 0.087679 0.298387 0.719941
O O3 0.000000 0.388926 0.829358
O O4 0.068862 0.310523 0.017352
O O5 0.750000 0.225257 0.750000
O O6 0.858113 0.176073 0.768968
O O7 0.756170 0.128520 0.969533
O O8 0.826653 0.242492 0.013087
O O9 0.750000 0.426090 0.750000
O O10 0.785512 0.500000 0.000000
#
# Coordination Sequence:
#
# PCOD9480567 Si02
#       4
#    16  16  16  16
#     4  11  23  40  63  93 128 166 199 248 313 380
#     4  11  20  35  62  94 124 154 200 259 312 358
#     4  12  26  42  64  88 120 164 218 264 302 356
#     4  10  22  35  62  97 130 155 195 253 315 378
#
# _framework density 19.566632999999999
#
# number of rings (size 3 to 8) (size 9 to 14) (size 15 to 20)
#    0.000    1.000    5.000    2.250    3.500    0.500 
#    0.000    0.000    0.000    0.750    0.000    0.000 
#    0.000    0.000    0.000    0.000    0.000    0.000 
#
# Total GULP energy -178143.067156 kJ/mol
# GULP energy per Si atom -5566.970849 kJ/mol
# Density = 1.952210 g / cm^3
# Si number density = 19.566633 Si / 1000 Ang^3
#
#
#
# Elastic Constant Matrix: (Units=GPa)
#
#
# Indices 1 2 3 4 5 6 
#
# 1 161.6279 63.9049 64.8315 0.0000 0.0000 0.0000
# 2 63.9049 79.2131 37.8308 0.0000 0.0000 0.0000
# 3 64.8315 37.8308 149.2557 0.0000 0.0000 0.0000
# 4 0.0000 0.0000 0.0000 30.2146 0.0000 0.0000
# 5 0.0000 0.0000 0.0000 0.0000 -2.5596 0.0000
# 6 0.0000 0.0000 0.0000 0.0000 0.0000 7.5514
#
#
#
# Elastic Compliance Matrix: (Units=1/GPa)
#
#
# Indices 1 2 3 4 5 6 
#
# 1 0.009891 -0.006744 -0.002587 0.000000 0.000000 0.000000
# 2 -0.006744 0.018961 -0.001876 0.000000 0.000000 0.000000
# 3 -0.002587 -0.001876 0.008299 0.000000 0.000000 0.000000
# 4 0.000000 0.000000 0.000000 0.033097 0.000000 0.000000
# 5 0.000000 0.000000 0.000000 0.000000 -0.390679 0.000000
# 6 0.000000 0.000000 0.000000 0.000000 0.000000 0.132426
#
#
# Mechanical properties :
#
#
# Convention : Reuss Voigt Hill
#
# Bulk Modulus (GPa) = 67.85987 80.35900 74.10944
# Shear Modulus (GPa) = -31.11836 21.94324 -4.58756
#
# Velocity S-wave (km/s) = -3.99228 3.35246 -1.53286
# Velocity P-wave (km/s) = 3.67500 7.49292 5.90125
#
# Compressibility (1/GPa) = 0.01473625
#
# Stress axis : x y z
#
# Youngs Moduli (GPa) = 101.09876 52.73908 120.49282
#
# Poissons Ratio (x) = 0.35569 0.31172
# Poissons Ratio (y) = 0.68184 0.22610
# Poissons Ratio (z) = 0.26154 0.09896
#
# Static dielectric constant tensor:
#      x y z
#    x 1.902770 0.000000 0.000000 
#    y 0.000000 1.699560 0.000000 
#    z 0.000000 0.000000 1.702890 
# 
# From -- ./inp_files/7968.got.cif
#   From: 2010.05.17/outbox.cif.g08.bks.cpg/sg64_4_cif.got.tgz:7968.got - 2010.06.03 16:29:19.
