data_PCOD9480126
_publ_section_title
;
Structure prediction by ZEFSAII (Michael W. Deem and Ramdas Pophale) SiO2 
 PCOD9480126
Probable space group: C M C A
;
_chemical_formula_sum "Si O2"
_cell_formula_units_Z 96
_cell_length_a 23.688946
_cell_length_b 11.596817
_cell_length_c 17.843938
_cell_angle_alpha 90.000000
_cell_angle_beta 90.000000
_cell_angle_gamma 90.000000
_cell_volume 4902.021904
_symmetry_space_group_name_H-M "C M C A"
_symmetry_group_IT_number 64
_symmetry_cell_setting 'orthorhombic'
loop_
_space_group_symop_operation_xyz
x,y,z
-x,1/2-y,1/2+z
x,-y,-z
-x,1/2+y,1/2-z
-x,-y,-z
x,1/2+y,1/2-z
-x,y,z
x,1/2-y,1/2+z
1/2+x,1/2+y,z
1/2-x,-y,1/2+z
1/2+x,1/2-y,-z
1/2-x,y,1/2-z
1/2-x,1/2-y,-z
1/2+x,y,1/2-z
1/2-x,1/2+y,z
1/2+x,-y,1/2+z
loop_
_atom_site_type_symbol
_atom_site_label
_atom_site_fract_x
_atom_site_fract_y
_atom_site_fract_z
Si Si1 0.767979 0.727398 0.586404
Si Si2 0.151150 0.492546 0.416499
Si Si3 0.061609 0.359961 0.335432
Si Si4 0.864300 0.142258 0.332851
Si Si5 0.659960 0.276607 0.838744
Si Si6 0.065613 0.403157 0.158958
O O1 0.750000 0.750000 0.500000
O O2 0.804347 0.610228 0.587403
O O3 0.808622 0.829775 0.618047
O O4 0.716740 0.705272 0.645005
O O5 0.129187 0.500000 0.500000
O O6 0.100296 0.462516 0.362402
O O7 0.173372 0.614468 0.390709
O O8 0.090486 0.239804 0.355611
O O9 0.059001 0.372736 0.246450
O O10 0.000000 0.366960 0.368585
O O11 0.848874 0.175901 0.245984
O O12 0.895945 0.019778 0.344051
O O13 0.605755 0.203162 0.867078
O O14 0.000000 0.413310 0.129787
#
# Coordination Sequence:
#
# PCOD9480126 Si02
#       6
#    16  16  16  16  16  16
#     4  11  24  41  63  90 127 170 210 261 319 380
#     4  11  22  39  62  89 124 164 211 256 320 381
#     4   9  19  36  60  89 121 159 205 258 316 375
#     4  10  21  40  63  94 125 163 211 262 315 380
#     4  11  23  40  62  96 124 163 215 262 315 379
#     4  10  21  38  65  94 125 162 206 265 319 372
#
# _framework density 19.583755
#
# number of rings (size 3 to 8) (size 9 to 14) (size 15 to 20)
#    0.000    1.667    3.333    1.000    2.333    1.667 
#    0.000    0.000    0.000    1.000    0.000    0.000 
#    0.000    0.000    0.000    0.000    0.000    0.000 
#
# Total GULP energy -267302.755256 kJ/mol
# GULP energy per Si atom -5568.807401 kJ/mol
# Density = 1.953918 g / cm^3
# Si number density = 19.583755 Si / 1000 Ang^3
#
#
#
# Elastic Constant Matrix: (Units=GPa)
#
#
# Indices 1 2 3 4 5 6 
#
# 1 131.3780 34.8380 22.3303 0.0000 0.0000 0.0000
# 2 34.8380 73.1675 12.5527 0.0000 0.0000 0.0000
# 3 22.3303 12.5527 32.4461 0.0000 0.0000 0.0000
# 4 0.0000 0.0000 0.0000 15.6530 0.0000 0.0000
# 5 0.0000 0.0000 0.0000 0.0000 -0.8904 0.0000
# 6 0.0000 0.0000 0.0000 0.0000 0.0000 74.1270
#
#
#
# Elastic Compliance Matrix: (Units=1/GPa)
#
#
# Indices 1 2 3 4 5 6 
#
# 1 0.009437 -0.003619 -0.005095 0.000000 0.000000 0.000000
# 2 -0.003619 0.016027 -0.003709 0.000000 0.000000 0.000000
# 3 -0.005095 -0.003709 0.035762 0.000000 0.000000 0.000000
# 4 0.000000 0.000000 0.000000 0.063885 0.000000 0.000000
# 5 0.000000 0.000000 0.000000 0.000000 -1.123066 0.000000
# 6 0.000000 0.000000 0.000000 0.000000 0.000000 0.013490
#
#
# Mechanical properties :
#
#
# Convention : Reuss Voigt Hill
#
# Bulk Modulus (GPa) = 27.48851 41.82594 34.65723
# Shear Modulus (GPa) = -5.27710 28.92929 11.82609
#
# Velocity S-wave (km/s) = -1.64331 3.84762 2.46005
# Velocity P-wave (km/s) = 3.23515 6.41426 5.07981
#
# Compressibility (1/GPa) = 0.03637883
#
# Stress axis : x y z
#
# Youngs Moduli (GPa) = 105.96176 62.39450 27.96275
#
# Poissons Ratio (x) = 0.22583 0.14246
# Poissons Ratio (y) = 0.38352 0.10373
# Poissons Ratio (z) = 0.53985 0.23145
#
# Static dielectric constant tensor:
#      x y z
#    x 1.801790 0.000000 0.000000 
#    y 0.000000 1.707790 0.000000 
#    z 0.000000 0.000000 1.684310 
# 
# From -- ./inp_files/34945.got.cif
#   From: 2010.05.17/outbox.cif.g08.bks.cpg/sg64_18_cif.got.tgz:34945.got - 2010.06.03 16:29:19.
