data_PCOD9480157
_publ_section_title
;
Structure prediction by ZEFSAII (Michael W. Deem and Ramdas Pophale) SiO2 
 PCOD9480157
Probable space group: C M C A
;
_chemical_formula_sum "Si O2"
_cell_formula_units_Z 116
_cell_length_a 22.682832
_cell_length_b 26.853891
_cell_length_c 8.507479
_cell_angle_alpha 90.000000
_cell_angle_beta 90.000000
_cell_angle_gamma 90.000000
_cell_volume 5182.095160
_symmetry_space_group_name_H-M "C M C A"
_symmetry_group_IT_number 64
_symmetry_cell_setting 'orthorhombic'
loop_
_space_group_symop_operation_xyz
x,y,z
-x,1/2-y,1/2+z
x,-y,-z
-x,1/2+y,1/2-z
-x,-y,-z
x,1/2+y,1/2-z
-x,y,z
x,1/2-y,1/2+z
1/2+x,1/2+y,z
1/2-x,-y,1/2+z
1/2+x,1/2-y,-z
1/2-x,y,1/2-z
1/2-x,1/2-y,-z
1/2+x,y,1/2-z
1/2-x,1/2+y,z
1/2+x,-y,1/2+z
loop_
_atom_site_type_symbol
_atom_site_label
_atom_site_fract_x
_atom_site_fract_y
_atom_site_fract_z
Si Si1 0.242311 0.193417 0.562320
Si Si2 0.929675 0.048996 0.606287
Si Si3 0.000000 0.000000 0.000000
Si Si4 0.893081 0.565539 0.554491
Si Si5 0.428337 0.679389 0.912155
Si Si6 0.568666 0.270650 0.407595
Si Si7 0.378399 0.354175 0.568886
Si Si8 0.693803 0.110982 0.358420
O O1 0.250000 0.192588 0.750000
O O2 0.250000 0.250000 0.500000
O O3 0.179178 0.170079 0.513682
O O4 0.286501 0.155929 0.472446
O O5 0.895338 0.043625 0.770046
O O6 0.905798 0.098068 0.519442
O O7 0.000000 0.054512 0.646559
O O8 0.923835 0.000000 0.500000
O O9 0.052333 0.959059 0.965151
O O10 0.907037 0.623727 0.575540
O O11 0.832303 0.565690 0.460285
O O12 0.500000 0.678288 0.913268
O O13 0.407637 0.703212 0.747801
O O14 0.406358 0.717608 0.044137
O O15 0.500000 0.263287 0.378257
O O16 0.575891 0.308926 0.552510
O O17 0.357183 0.371353 0.739047
O O18 0.750000 0.098025 0.250000
#
# Coordination Sequence:
#
# PCOD9480157 Si02
#       8
#    16  16   4  16  16  16  16  16
#     4  11  24  44  71 102 138 191 257 316 381 459
#     4  11  24  44  73 110 152 199 253 309 387 459
#     4  12  28  44  78 120 136 200 266 318 414 444
#     4  12  24  46  73 105 155 194 250 329 384 462
#     4  10  21  39  59  95 145 190 235 298 371 462
#     4  10  22  37  60  97 143 190 237 281 370 461
#     4  11  23  41  68  99 140 194 244 307 368 457
#     4  10  26  47  70 104 148 194 255 312 379 458
#
# _framework density 22.384767
#
# number of rings (size 3 to 8) (size 9 to 14) (size 15 to 20)
#    0.000    1.241    2.759    2.483    5.793    0.000 
#    1.241    0.000    6.069    0.000    0.000    0.000 
#    0.000    0.000    0.000    0.000    0.000    0.000 
#
# Total GULP energy -323787.527405 kJ/mol
# GULP energy per Si atom -5582.543576 kJ/mol
# Density = 2.233382 g / cm^3
# Si number density = 22.384767 Si / 1000 Ang^3
#
#
#
# Elastic Constant Matrix: (Units=GPa)
#
#
# Indices 1 2 3 4 5 6 
#
# 1 83.2164 37.4181 41.9854 0.0000 0.0000 0.0000
# 2 37.4181 118.6326 35.6164 0.0000 0.0000 0.0000
# 3 41.9854 35.6164 125.4477 0.0000 0.0000 0.0000
# 4 0.0000 0.0000 0.0000 35.8714 0.0000 0.0000
# 5 0.0000 0.0000 0.0000 0.0000 25.1641 0.0000
# 6 0.0000 0.0000 0.0000 0.0000 0.0000 11.2153
#
#
#
# Elastic Compliance Matrix: (Units=1/GPa)
#
#
# Indices 1 2 3 4 5 6 
#
# 1 0.015829 -0.003719 -0.004242 0.000000 0.000000 0.000000
# 2 -0.003719 0.010089 -0.001620 0.000000 0.000000 0.000000
# 3 -0.004242 -0.001620 0.009851 0.000000 0.000000 0.000000
# 4 0.000000 0.000000 0.000000 0.027877 0.000000 0.000000
# 5 0.000000 0.000000 0.000000 0.000000 0.039739 0.000000
# 6 0.000000 0.000000 0.000000 0.000000 0.000000 0.089164
#
#
# Mechanical properties :
#
#
# Convention : Reuss Voigt Hill
#
# Bulk Modulus (GPa) = 60.21318 61.92625 61.06971
# Shear Modulus (GPa) = 23.01527 28.60195 25.80861
#
# Velocity S-wave (km/s) = 3.20998 3.57843 3.39920
# Velocity P-wave (km/s) = 6.37936 6.69313 6.53813
#
# Compressibility (1/GPa) = 0.01660766
#
# Stress axis : x y z
#
# Youngs Moduli (GPa) = 63.17362 99.12072 101.51290
#
# Poissons Ratio (x) = 0.36865 0.43061
# Poissons Ratio (y) = 0.23496 0.16441
# Poissons Ratio (z) = 0.26798 0.16053
#
# Static dielectric constant tensor:
#      x y z
#    x 1.866100 0.000000 0.000000 
#    y 0.000000 1.812130 0.000000 
#    z 0.000000 0.000000 1.898310 
# 
# From -- ./inp_files/9726.got.cif
#   From: 2010.05.17/outbox.cif.g08.bks.cpg/sg64_5_cif.got.tgz:9726.got - 2010.06.03 16:29:19.
