data_PCOD9480469
_publ_section_title
;
Structure prediction by ZEFSAII (Michael W. Deem and Ramdas Pophale) SiO2 
 PCOD9480469
Probable space group: C M C A
;
_chemical_formula_sum "Si O2"
_cell_formula_units_Z 64
_cell_length_a 21.587085
_cell_length_b 12.126793
_cell_length_c 11.528429
_cell_angle_alpha 90.000000
_cell_angle_beta 90.000000
_cell_angle_gamma 90.000000
_cell_volume 3017.936483
_symmetry_space_group_name_H-M "C M C A"
_symmetry_group_IT_number 64
_symmetry_cell_setting 'orthorhombic'
loop_
_space_group_symop_operation_xyz
x,y,z
-x,1/2-y,1/2+z
x,-y,-z
-x,1/2+y,1/2-z
-x,-y,-z
x,1/2+y,1/2-z
-x,y,z
x,1/2-y,1/2+z
1/2+x,1/2+y,z
1/2-x,-y,1/2+z
1/2+x,1/2-y,-z
1/2-x,y,1/2-z
1/2-x,1/2-y,-z
1/2+x,y,1/2-z
1/2-x,1/2+y,z
1/2+x,-y,1/2+z
loop_
_atom_site_type_symbol
_atom_site_label
_atom_site_fract_x
_atom_site_fract_y
_atom_site_fract_z
Si Si1 0.619586 0.905413 0.411981
Si Si2 0.616486 0.548269 0.654407
Si Si3 0.254173 0.173769 0.883107
Si Si4 0.569782 0.664173 0.439552
O O1 0.595935 0.926361 0.283354
O O2 0.693938 0.902578 0.396949
O O3 0.597316 0.785361 0.450091
O O4 0.600784 0.000000 0.500000
O O5 0.683073 0.601871 0.622901
O O6 0.570791 0.606411 0.564470
O O7 0.613173 0.417045 0.635421
O O8 0.250000 0.225230 0.750000
O O9 0.250000 0.250000 0.000000
O O10 0.500000 0.667228 0.393040
#
# Coordination Sequence:
#
# PCOD9480469 Si02
#       4
#    16  16  16  16
#     4  11  26  42  69 105 135 177 227 285 347 406
#     4  10  23  45  68  99 135 180 226 279 343 408
#     4  10  21  41  70 103 142 178 220 284 347 412
#     4  11  25  45  70  96 135 185 231 279 338 405
#
# _framework density 21.206541999999999
#
# number of rings (size 3 to 8) (size 9 to 14) (size 15 to 20)
#    0.000    1.500    2.500    1.500    7.000    2.500 
#    0.000    3.750    0.000    0.000    0.000    0.000 
#    0.000    0.000    0.000    0.000    0.000    0.000 
#
# Total GULP energy -178548.460869 kJ/mol
# GULP energy per Si atom -5579.639402 kJ/mol
# Density = 2.115827 g / cm^3
# Si number density = 21.206542 Si / 1000 Ang^3
#
#
#
# Elastic Constant Matrix: (Units=GPa)
#
#
# Indices 1 2 3 4 5 6 
#
# 1 88.2781 29.4014 3.4514 0.0000 0.0000 0.0000
# 2 29.4014 156.6256 57.1487 0.0000 0.0000 0.0000
# 3 3.4514 57.1487 122.4979 0.0000 0.0000 0.0000
# 4 0.0000 0.0000 0.0000 25.3576 0.0000 0.0000
# 5 0.0000 0.0000 0.0000 0.0000 10.6759 0.0000
# 6 0.0000 0.0000 0.0000 0.0000 0.0000 -28.9433
#
#
#
# Elastic Compliance Matrix: (Units=1/GPa)
#
#
# Indices 1 2 3 4 5 6 
#
# 1 0.012160 -0.002600 0.000870 0.000000 0.000000 0.000000
# 2 -0.002600 0.008250 -0.003776 0.000000 0.000000 0.000000
# 3 0.000870 -0.003776 0.009900 0.000000 0.000000 0.000000
# 4 0.000000 0.000000 0.000000 0.039436 0.000000 0.000000
# 5 0.000000 0.000000 0.000000 0.000000 0.093669 0.000000
# 6 0.000000 0.000000 0.000000 0.000000 0.000000 -0.034550
#
#
# Mechanical properties :
#
#
# Convention : Reuss Voigt Hill
#
# Bulk Modulus (GPa) = 51.81466 60.82274 56.31870
# Shear Modulus (GPa) = 34.17412 19.91136 27.04274
#
# Velocity S-wave (km/s) = 4.01869 3.06751 3.57488
# Velocity P-wave (km/s) = 6.78377 6.42570 6.60716
#
# Compressibility (1/GPa) = 0.01929956
#
# Stress axis : x y z
#
# Youngs Moduli (GPa) = 82.23802 121.20530 101.00596
#
# Poissons Ratio (x) = 0.31516 -0.08792
# Poissons Ratio (y) = 0.21384 0.38138
# Poissons Ratio (z) = -0.07159 0.45765
#
# Static dielectric constant tensor:
#      x y z
#    x 1.794430 0.000000 0.000000 
#    y 0.000000 1.786640 0.000000 
#    z 0.000000 0.000000 1.818090 
# 
# From -- ./inp_files/16767.got.cif
#   From: 2010.05.17/outbox.cif.g08.bks.cpg/sg64_9_cif.got.tgz:16767.got - 2010.06.03 16:29:19.
