data_PCOD9480978
_publ_section_title
;
Structure prediction by ZEFSAII (Michael W. Deem and Ramdas Pophale) SiO2 
 PCOD9480978
Probable space group: C M C A
;
_chemical_formula_sum "Si O2"
_cell_formula_units_Z 88
_cell_length_a 13.720382
_cell_length_b 12.083361
_cell_length_c 24.018928
_cell_angle_alpha 90.000000
_cell_angle_beta 90.000000
_cell_angle_gamma 90.000000
_cell_volume 3982.057932
_symmetry_space_group_name_H-M "C M C A"
_symmetry_group_IT_number 64
_symmetry_cell_setting 'orthorhombic'
loop_
_space_group_symop_operation_xyz
x,y,z
-x,1/2-y,1/2+z
x,-y,-z
-x,1/2+y,1/2-z
-x,-y,-z
x,1/2+y,1/2-z
-x,y,z
x,1/2-y,1/2+z
1/2+x,1/2+y,z
1/2-x,-y,1/2+z
1/2+x,1/2-y,-z
1/2-x,y,1/2-z
1/2-x,1/2-y,-z
1/2+x,y,1/2-z
1/2-x,1/2+y,z
1/2+x,-y,1/2+z
loop_
_atom_site_type_symbol
_atom_site_label
_atom_site_fract_x
_atom_site_fract_y
_atom_site_fract_z
Si Si1 0.694953 0.168081 0.078815
Si Si2 0.883333 0.532108 0.292643
Si Si3 0.615992 0.994227 0.167153
Si Si4 0.748058 0.000000 0.500000
Si Si5 0.385921 0.594179 0.902827
Si Si6 0.386718 0.759862 0.632378
O O1 0.629958 0.275871 0.087958
O O2 0.806711 0.206793 0.087151
O O3 0.666451 0.079182 0.125606
O O4 0.688342 0.103610 0.020612
O O5 0.848433 0.512764 0.230128
O O6 0.853103 0.446804 0.341392
O O7 0.868285 0.655829 0.316232
O O8 0.000000 0.516604 0.288873
O O9 0.500000 0.016793 0.164903
O O10 0.628390 0.866838 0.149547
O O11 0.679662 0.034692 0.551106
O O12 0.500000 0.565443 0.909120
O O13 0.500000 0.775037 0.615406
#
# Coordination Sequence:
#
# PCOD9480978 Si02
#       6
#    16  16  16   8  16  16
#     4  12  25  44  67 100 132 172 222 281 329 397
#     4   9  20  41  67  98 132 170 215 262 323 401
#     4  10  23  43  68  98 137 173 208 266 337 401
#     4  12  25  46  63  92 134 174 231 280 329 388
#     4  11  24  44  70  98 130 173 224 278 335 391
#     4  10  22  42  64  94 134 177 214 260 324 395
#
# _framework density 22.099125999999998
#
# number of rings (size 3 to 8) (size 9 to 14) (size 15 to 20)
#    0.000    1.455    1.818    2.455    2.545    1.455 
#    0.000    3.636    0.000    0.000    0.000    0.000 
#    0.000    0.000    0.000    0.000    0.000    0.000 
#
# Total GULP energy -246172.996687 kJ/mol
# GULP energy per Si atom -5594.840834 kJ/mol
# Density = 2.204883 g / cm^3
# Si number density = 22.099126 Si / 1000 Ang^3
#
#
#
# Elastic Constant Matrix: (Units=GPa)
#
#
# Indices 1 2 3 4 5 6 
#
# 1 72.8864 26.8699 10.4118 0.0000 0.0000 0.0000
# 2 26.8699 117.7391 35.1380 0.0000 0.0000 0.0000
# 3 10.4118 35.1380 96.6393 0.0000 0.0000 0.0000
# 4 0.0000 0.0000 0.0000 21.6609 0.0000 0.0000
# 5 0.0000 0.0000 0.0000 0.0000 25.0948 0.0000
# 6 0.0000 0.0000 0.0000 0.0000 0.0000 38.7957
#
#
#
# Elastic Compliance Matrix: (Units=1/GPa)
#
#
# Indices 1 2 3 4 5 6 
#
# 1 0.014995 -0.003298 -0.000416 0.000000 0.000000 0.000000
# 2 -0.003298 0.010252 -0.003372 0.000000 0.000000 0.000000
# 3 -0.000416 -0.003372 0.011619 0.000000 0.000000 0.000000
# 4 0.000000 0.000000 0.000000 0.046166 0.000000 0.000000
# 5 0.000000 0.000000 0.000000 0.000000 0.039849 0.000000
# 6 0.000000 0.000000 0.000000 0.000000 0.000000 0.025776
#
#
# Mechanical properties :
#
#
# Convention : Reuss Voigt Hill
#
# Bulk Modulus (GPa) = 44.06656 48.01157 46.03906
# Shear Modulus (GPa) = 29.34351 31.43331 30.38841
#
# Velocity S-wave (km/s) = 3.64787 3.77553 3.71225
# Velocity P-wave (km/s) = 6.14217 6.38584 6.26519
#
# Compressibility (1/GPa) = 0.02269295
#
# Stress axis : x y z
#
# Youngs Moduli (GPa) = 66.68786 97.53761 86.06700
#
# Poissons Ratio (x) = 0.32167 0.03584
# Poissons Ratio (y) = 0.21993 0.29026
# Poissons Ratio (z) = 0.02777 0.32894
#
# Static dielectric constant tensor:
#      x y z
#    x 1.846070 0.000000 0.000000 
#    y 0.000000 1.789340 0.000000 
#    z 0.000000 0.000000 1.791150 
# 
# From -- ./inp_files/45077.got.cif
#   From: 2010.05.17/outbox.cif.g08.bks.cpg/sg64_23_cif.got.tgz:45077.got - 2010.06.03 16:29:19.
