data_PCOD9480125
_publ_section_title
;
Structure prediction by ZEFSAII (Michael W. Deem and Ramdas Pophale) SiO2 
 PCOD9480125
Probable space group: C M C A
;
_chemical_formula_sum "Si O2"
_cell_formula_units_Z 116
_cell_length_a 18.178069
_cell_length_b 11.937548
_cell_length_c 28.230261
_cell_angle_alpha 90.000000
_cell_angle_beta 90.000000
_cell_angle_gamma 90.000000
_cell_volume 6126.010993
_symmetry_space_group_name_H-M "C M C A"
_symmetry_group_IT_number 64
_symmetry_cell_setting 'orthorhombic'
loop_
_space_group_symop_operation_xyz
x,y,z
-x,1/2-y,1/2+z
x,-y,-z
-x,1/2+y,1/2-z
-x,-y,-z
x,1/2+y,1/2-z
-x,y,z
x,1/2-y,1/2+z
1/2+x,1/2+y,z
1/2-x,-y,1/2+z
1/2+x,1/2-y,-z
1/2-x,y,1/2-z
1/2-x,1/2-y,-z
1/2+x,y,1/2-z
1/2-x,1/2+y,z
1/2+x,-y,1/2+z
loop_
_atom_site_type_symbol
_atom_site_label
_atom_site_fract_x
_atom_site_fract_y
_atom_site_fract_z
Si Si1 0.669784 0.513310 0.350965
Si Si2 0.838205 0.269563 0.104487
Si Si3 0.914836 0.139378 0.274348
Si Si4 0.325725 0.284873 0.578099
Si Si5 0.085963 0.651656 0.657072
Si Si6 0.667462 0.576166 0.181140
Si Si7 0.079059 0.733966 0.489855
Si Si8 0.000000 0.500000 0.500000
O O1 0.664187 0.386323 0.367614
O O2 0.606008 0.549289 0.314698
O O3 0.666941 0.594318 0.396768
O O4 0.747134 0.541267 0.324704
O O5 0.758982 0.250144 0.080205
O O6 0.848403 0.169516 0.141715
O O7 0.898166 0.263135 0.063355
O O8 0.906099 0.259104 0.300280
O O9 0.858463 0.124288 0.231409
O O10 0.000000 0.127104 0.259147
O O11 0.370792 0.201037 0.612348
O O12 0.360468 0.275716 0.526633
O O13 0.119644 0.533940 0.671478
O O14 0.000000 0.641540 0.645291
O O15 0.000000 0.787517 0.502112
O O16 0.063082 0.600551 0.494684
#
# Coordination Sequence:
#
# PCOD9480125 Si02
#       8
#    16  16  16  16  16  16  16   4
#     4  10  23  43  62  93 129 168 218 270 321 394
#     4  11  24  40  63  97 131 167 218 269 325 381
#     4  10  23  42  62  92 125 169 216 264 330 391
#     4  10  21  41  64  89 129 174 212 259 324 391
#     4  10  21  38  65  93 124 167 219 263 323 390
#     4  11  23  40  64  91 129 170 216 270 327 387
#     4  10  23  40  64  97 127 169 211 265 323 376
#     4   8  24  40  64  98 132 156 222 260 318 380
#
# _framework density 18.935649000000002
#
# number of rings (size 3 to 8) (size 9 to 14) (size 15 to 20)
#    0.414    1.379    1.379    1.655    3.862    2.759 
#    0.000    0.690    0.000    0.000    0.000    0.000 
#    0.000    0.000    0.000    0.000    0.000    0.000 
#
# Total GULP energy -323295.885970 kJ/mol
# GULP energy per Si atom -5574.066999 kJ/mol
# Density = 1.889255 g / cm^3
# Si number density = 18.935649 Si / 1000 Ang^3
#
#
#
# Elastic Constant Matrix: (Units=GPa)
#
#
# Indices 1 2 3 4 5 6 
#
# 1 47.3793 36.0612 26.2329 0.0000 0.0000 0.0000
# 2 36.0612 78.2521 37.3883 0.0000 0.0000 0.0000
# 3 26.2329 37.3883 77.3742 0.0000 0.0000 0.0000
# 4 0.0000 0.0000 0.0000 4.2731 0.0000 0.0000
# 5 0.0000 0.0000 0.0000 0.0000 15.8230 0.0000
# 6 0.0000 0.0000 0.0000 0.0000 0.0000 23.2921
#
#
#
# Elastic Compliance Matrix: (Units=1/GPa)
#
#
# Indices 1 2 3 4 5 6 
#
# 1 0.034015 -0.013216 -0.005146 0.000000 0.000000 0.000000
# 2 -0.013216 0.021751 -0.006029 0.000000 0.000000 0.000000
# 3 -0.005146 -0.006029 0.017582 0.000000 0.000000 0.000000
# 4 0.000000 0.000000 0.000000 0.234021 0.000000 0.000000
# 5 0.000000 0.000000 0.000000 0.000000 0.063199 0.000000
# 6 0.000000 0.000000 0.000000 0.000000 0.000000 0.042933
#
#
# Mechanical properties :
#
#
# Convention : Reuss Voigt Hill
#
# Bulk Modulus (GPa) = 40.70960 44.70784 42.70872
# Shear Modulus (GPa) = 10.62761 15.56585 13.09673
#
# Velocity S-wave (km/s) = 2.37164 2.87023 2.63277
# Velocity P-wave (km/s) = 5.38936 5.88608 5.64319
#
# Compressibility (1/GPa) = 0.02456423
#
# Stress axis : x y z
#
# Youngs Moduli (GPa) = 29.39899 45.97579 56.87522
#
# Poissons Ratio (x) = 0.60764 0.29268
# Poissons Ratio (y) = 0.38855 0.34292
# Poissons Ratio (z) = 0.15129 0.27720
#
# Static dielectric constant tensor:
#      x y z
#    x 1.653960 0.000000 0.000000 
#    y 0.000000 1.627400 0.000000 
#    z 0.000000 0.000000 1.656350 
# 
# From -- ./inp_files/50496.got.cif
#   From: 2010.05.17/outbox.cif.g08.bks.cpg/sg64_26_cif.got.tgz:50496.got - 2010.06.03 16:29:19.
