data_PCOD9480478
_publ_section_title
;
Structure prediction by ZEFSAII (Michael W. Deem and Ramdas Pophale) SiO2 
 PCOD9480478
Probable space group: C M C A
;
_chemical_formula_sum "Si O2"
_cell_formula_units_Z 80
_cell_length_a 16.263303
_cell_length_b 21.507162
_cell_length_c 11.877327
_cell_angle_alpha 90.000000
_cell_angle_beta 90.000000
_cell_angle_gamma 90.000000
_cell_volume 4154.421653
_symmetry_space_group_name_H-M "C M C A"
_symmetry_group_IT_number 64
_symmetry_cell_setting 'orthorhombic'
loop_
_space_group_symop_operation_xyz
x,y,z
-x,1/2-y,1/2+z
x,-y,-z
-x,1/2+y,1/2-z
-x,-y,-z
x,1/2+y,1/2-z
-x,y,z
x,1/2-y,1/2+z
1/2+x,1/2+y,z
1/2-x,-y,1/2+z
1/2+x,1/2-y,-z
1/2-x,y,1/2-z
1/2-x,1/2-y,-z
1/2+x,y,1/2-z
1/2-x,1/2+y,z
1/2+x,-y,1/2+z
loop_
_atom_site_type_symbol
_atom_site_label
_atom_site_fract_x
_atom_site_fract_y
_atom_site_fract_z
Si Si1 0.000000 0.364584 0.218847
Si Si2 0.000000 0.853872 0.539246
Si Si3 0.324891 0.635200 0.669261
Si Si4 0.250000 0.372056 0.750000
Si Si5 0.827749 0.270942 0.581319
Si Si6 0.500000 0.781203 0.442357
Si Si7 0.337495 0.068776 0.048756
O O1 0.910053 0.396693 0.210869
O O2 0.000000 0.325815 0.333865
O O3 0.000000 0.334434 0.092871
O O4 0.076255 0.897018 0.560091
O O5 0.000000 0.789559 0.604089
O O6 0.250000 0.625193 0.750000
O O7 0.341959 0.708766 0.655841
O O8 0.296227 0.609046 0.549730
O O9 0.198465 0.325952 0.666951
O O10 0.296129 0.418636 0.666518
O O11 0.750000 0.250000 0.500000
O O12 0.912643 0.286449 0.512082
O O13 0.343517 0.000000 0.000000
#
# Coordination Sequence:
#
# PCOD9480478 Si02
#       7
#     8   8  16   8  16   8  16
#     4  10  22  35  57  92 126 165 203 254 322 389
#     4  10  21  42  61  91 121 166 220 259 321 380
#     4  11  21  39  64  90 124 171 206 263 324 377
#     4  12  26  40  64  96 134 170 210 268 330 382
#     4  12  22  39  59  96 135 162 206 263 332 393
#     4  12  22  35  62  97 132 161 207 259 335 397
#     4  11  25  43  64  91 124 172 227 262 307 379
#
# _framework density 19.256591
#
# number of rings (size 3 to 8) (size 9 to 14) (size 15 to 20)
#    0.000    0.800    7.000    1.500    4.200    0.800 
#    0.000    0.000    0.000    0.000    0.000    4.900 
#    0.000    0.000    0.000    0.000    0.000    0.000 
#
# Total GULP energy -222698.718069 kJ/mol
# GULP energy per Si atom -5567.467952 kJ/mol
# Density = 1.921276 g / cm^3
# Si number density = 19.256591 Si / 1000 Ang^3
#
#
#
# Elastic Constant Matrix: (Units=GPa)
#
#
# Indices 1 2 3 4 5 6 
#
# 1 128.5752 -2.8784 73.2065 0.0000 0.0000 0.0000
# 2 -2.8784 52.8080 21.6182 0.0000 0.0000 0.0000
# 3 73.2065 21.6182 123.9318 0.0000 0.0000 0.0000
# 4 0.0000 0.0000 0.0000 16.4877 0.0000 0.0000
# 5 0.0000 0.0000 0.0000 0.0000 27.8573 0.0000
# 6 0.0000 0.0000 0.0000 0.0000 0.0000 -1.7147
#
#
#
# Elastic Compliance Matrix: (Units=1/GPa)
#
#
# Indices 1 2 3 4 5 6 
#
# 1 0.012447 0.003972 -0.008045 0.000000 0.000000 0.000000
# 2 0.003972 0.021660 -0.006125 0.000000 0.000000 0.000000
# 3 -0.008045 -0.006125 0.013890 0.000000 0.000000 0.000000
# 4 0.000000 0.000000 0.000000 0.060651 0.000000 0.000000
# 5 0.000000 0.000000 0.000000 0.000000 0.035897 0.000000
# 6 0.000000 0.000000 0.000000 0.000000 0.000000 -0.583204
#
#
# Mechanical properties :
#
#
# Convention : Reuss Voigt Hill
#
# Bulk Modulus (GPa) = 36.23023 54.35640 45.29331
# Shear Modulus (GPa) = -12.22309 22.75065 5.26378
#
# Velocity S-wave (km/s) = -2.52215 3.44095 1.65512
# Velocity P-wave (km/s) = 3.22081 6.63894 5.21772
#
# Compressibility (1/GPa) = 0.02760126
#
# Stress axis : x y z
#
# Youngs Moduli (GPa) = 80.33870 46.16741 71.99542
#
# Poissons Ratio (x) = -0.18338 0.57924
# Poissons Ratio (y) = -0.31911 0.44095
# Poissons Ratio (z) = 0.64636 0.28276
#
# Static dielectric constant tensor:
#      x y z
#    x 1.786870 0.000000 0.000000 
#    y 0.000000 1.684600 0.000000 
#    z 0.000000 0.000000 1.741510 
# 
# From -- ./inp_files/15995.got.cif
#   From: 2010.05.17/outbox.cif.g08.bks.cpg/sg64_8_cif.got.tgz:15995.got - 2010.06.03 16:29:19.
