data_PCOD9480212
_publ_section_title
;
Structure prediction by ZEFSAII (Michael W. Deem and Ramdas Pophale) SiO2 
 PCOD9480212
Probable space group: C M C A
;
_chemical_formula_sum "Si O2"
_cell_formula_units_Z 64
_cell_length_a 11.854748
_cell_length_b 13.546224
_cell_length_c 18.158991
_cell_angle_alpha 90.000000
_cell_angle_beta 90.000000
_cell_angle_gamma 90.000000
_cell_volume 2916.099193
_symmetry_space_group_name_H-M "C M C A"
_symmetry_group_IT_number 64
_symmetry_cell_setting 'orthorhombic'
loop_
_space_group_symop_operation_xyz
x,y,z
-x,1/2-y,1/2+z
x,-y,-z
-x,1/2+y,1/2-z
-x,-y,-z
x,1/2+y,1/2-z
-x,y,z
x,1/2-y,1/2+z
1/2+x,1/2+y,z
1/2-x,-y,1/2+z
1/2+x,1/2-y,-z
1/2-x,y,1/2-z
1/2-x,1/2-y,-z
1/2+x,y,1/2-z
1/2-x,1/2+y,z
1/2+x,-y,1/2+z
loop_
_atom_site_type_symbol
_atom_site_label
_atom_site_fract_x
_atom_site_fract_y
_atom_site_fract_z
Si Si1 0.721958 0.267139 0.413677
Si Si2 0.870386 0.863447 0.203313
Si Si3 0.307719 0.416331 0.826247
Si Si4 0.382081 0.977660 0.085627
O O1 0.750000 0.250000 0.500000
O O2 0.835810 0.297781 0.368252
O O3 0.655177 0.179231 0.372021
O O4 0.646551 0.364074 0.406888
O O5 0.750000 0.854863 0.250000
O O6 0.000000 0.835867 0.227721
O O7 0.875604 0.982233 0.187889
O O8 0.250000 0.384183 0.750000
O O9 0.210032 0.455624 0.878651
O O10 0.500000 0.000538 0.122624
O O11 0.385833 0.000000 0.000000
#
# Coordination Sequence:
#
# PCOD9480212 Si02
#       4
#    16  16  16  16
#     4  11  22  39  65  96 135 173 225 276 342 408
#     4  10  24  45  68  97 138 182 232 289 350 416
#     4  10  22  40  63  94 132 171 217 282 343 404
#     4  10  21  39  63  90 123 171 221 266 320 397
#
# _framework density 21.947126999999998
#
# number of rings (size 3 to 8) (size 9 to 14) (size 15 to 20)
#    0.000    1.750    2.500    0.750    0.000   13.000 
#    0.000    6.250    0.000    0.000    0.000    0.000 
#    0.000    0.000    0.000    0.000    0.000    0.000 
#
# Total GULP energy -178168.368930 kJ/mol
# GULP energy per Si atom -5567.761529 kJ/mol
# Density = 2.189717 g / cm^3
# Si number density = 21.947127 Si / 1000 Ang^3
#
#
#
# Elastic Constant Matrix: (Units=GPa)
#
#
# Indices 1 2 3 4 5 6 
#
# 1 131.0743 5.5800 23.3925 0.0000 0.0000 0.0000
# 2 5.5800 100.7337 24.4871 0.0000 0.0000 0.0000
# 3 23.3925 24.4871 121.4805 0.0000 0.0000 0.0000
# 4 0.0000 0.0000 0.0000 47.6211 0.0000 0.0000
# 5 0.0000 0.0000 0.0000 0.0000 -15.2827 0.0000
# 6 0.0000 0.0000 0.0000 0.0000 0.0000 48.7366
#
#
#
# Elastic Compliance Matrix: (Units=1/GPa)
#
#
# Indices 1 2 3 4 5 6 
#
# 1 0.007901 -0.000071 -0.001507 0.000000 0.000000 0.000000
# 2 -0.000071 0.010439 -0.002091 0.000000 0.000000 0.000000
# 3 -0.001507 -0.002091 0.008943 0.000000 0.000000 0.000000
# 4 0.000000 0.000000 0.000000 0.020999 0.000000 0.000000
# 5 0.000000 0.000000 0.000000 0.000000 -0.065433 0.000000
# 6 0.000000 0.000000 0.000000 0.000000 0.000000 0.020518
#
#
# Mechanical properties :
#
#
# Convention : Reuss Voigt Hill
#
# Bulk Modulus (GPa) = 50.13532 51.13418 50.63475
# Shear Modulus (GPa) = 288.10570 36.20360 162.15465
#
# Velocity S-wave (km/s) = 11.46986 4.06591 8.60492
# Velocity P-wave (km/s) = 14.08202 6.73733 11.03846
#
# Compressibility (1/GPa) = 0.01994602
#
# Stress axis : x y z
#
# Youngs Moduli (GPa) = 126.56198 95.79192 111.81460
#
# Poissons Ratio (x) = 0.00683 0.16852
# Poissons Ratio (y) = 0.00903 0.23375
# Poissons Ratio (z) = 0.19074 0.20026
#
# Static dielectric constant tensor:
#      x y z
#    x 2.024780 0.000000 0.000000 
#    y 0.000000 1.825830 0.000000 
#    z 0.000000 0.000000 2.045220 
# 
# From -- ./inp_files/30457.got.cif
#   From: 2010.05.17/outbox.cif.g08.bks.cpg/sg64_16_cif.got.tgz:30457.got - 2010.06.03 16:29:19.
