data_PCOD9480331
_publ_section_title
;
Structure prediction by ZEFSAII (Michael W. Deem and Ramdas Pophale) SiO2 
 PCOD9480331
Probable space group: C M C A
;
_chemical_formula_sum "Si O2"
_cell_formula_units_Z 112
_cell_length_a 30.289123
_cell_length_b 11.894555
_cell_length_c 12.572621
_cell_angle_alpha 90.000000
_cell_angle_beta 90.000000
_cell_angle_gamma 90.000000
_cell_volume 4529.609070
_symmetry_space_group_name_H-M "C M C A"
_symmetry_group_IT_number 64
_symmetry_cell_setting 'orthorhombic'
loop_
_space_group_symop_operation_xyz
x,y,z
-x,1/2-y,1/2+z
x,-y,-z
-x,1/2+y,1/2-z
-x,-y,-z
x,1/2+y,1/2-z
-x,y,z
x,1/2-y,1/2+z
1/2+x,1/2+y,z
1/2-x,-y,1/2+z
1/2+x,1/2-y,-z
1/2-x,y,1/2-z
1/2-x,1/2-y,-z
1/2+x,y,1/2-z
1/2-x,1/2+y,z
1/2+x,-y,1/2+z
loop_
_atom_site_type_symbol
_atom_site_label
_atom_site_fract_x
_atom_site_fract_y
_atom_site_fract_z
Si Si1 0.686825 0.835478 0.980712
Si Si2 0.797243 0.074177 0.256523
Si Si3 0.606096 0.384888 0.803431
Si Si4 0.551203 0.910686 0.367136
Si Si5 0.953044 0.182471 0.636683
Si Si6 0.224880 0.100304 0.914426
Si Si7 0.412085 0.667584 0.437155
O O1 0.694739 0.920928 0.882069
O O2 0.695712 0.709217 0.938466
O O3 0.634962 0.844768 0.996387
O O4 0.724591 0.857907 0.067691
O O5 0.750000 0.137615 0.250000
O O6 0.840827 0.121218 0.200083
O O7 0.788770 0.956788 0.196269
O O8 0.584669 0.484566 0.872949
O O9 0.585098 0.272203 0.846876
O O10 0.592137 0.389402 0.678264
O O11 0.500000 0.924330 0.404050
O O12 0.547846 0.893603 0.239951
O O13 0.572864 0.796691 0.413028
O O14 0.946701 0.125139 0.523610
O O15 0.000000 0.244864 0.638233
O O16 0.217694 0.000000 0.000000
#
# Coordination Sequence:
#
# PCOD9480331 Si02
#       7
#    16  16  16  16  16  16  16
#     4  10  24  44  64  92 129 174 218 275 339 395
#     4  11  23  42  64  94 130 174 226 271 338 398
#     4  10  23  40  63  91 128 171 216 269 335 402
#     4  10  21  40  63  92 126 167 216 269 333 402
#     4  10  22  39  62  92 125 164 212 271 335 402
#     4  11  23  42  65  95 128 170 224 276 333 398
#     4  10  22  41  63  90 126 167 213 268 331 401
#
# _framework density 24.726196999999999
#
# number of rings (size 3 to 8) (size 9 to 14) (size 15 to 20)
#    0.000    1.714    1.429    1.714    2.000    4.571 
#    0.000    2.857    0.000    0.000    0.000    0.000 
#    0.000    0.000    0.000    0.000    0.000    0.000 
#
# Total GULP energy -312813.694636 kJ/mol
# GULP energy per Si atom -5585.958833 kJ/mol
# Density = 2.466992 g / cm^3
# Si number density = 24.726197 Si / 1000 Ang^3
#
#
#
# Elastic Constant Matrix: (Units=GPa)
#
#
# Indices 1 2 3 4 5 6 
#
# 1 168.1215 25.7621 13.3837 0.0000 0.0000 0.0000
# 2 25.7621 92.9997 12.2665 0.0000 0.0000 0.0000
# 3 13.3837 12.2665 96.3666 0.0000 0.0000 0.0000
# 4 0.0000 0.0000 0.0000 23.1162 0.0000 0.0000
# 5 0.0000 0.0000 0.0000 0.0000 15.2972 0.0000
# 6 0.0000 0.0000 0.0000 0.0000 0.0000 12.9647
#
#
#
# Elastic Compliance Matrix: (Units=1/GPa)
#
#
# Indices 1 2 3 4 5 6 
#
# 1 0.006253 -0.001645 -0.000659 0.000000 0.000000 0.000000
# 2 -0.001645 0.011369 -0.001219 0.000000 0.000000 0.000000
# 3 -0.000659 -0.001219 0.010624 0.000000 0.000000 0.000000
# 4 0.000000 0.000000 0.000000 0.043260 0.000000 0.000000
# 5 0.000000 0.000000 0.000000 0.000000 0.065371 0.000000
# 6 0.000000 0.000000 0.000000 0.000000 0.000000 0.077133
#
#
# Mechanical properties :
#
#
# Convention : Reuss Voigt Hill
#
# Bulk Modulus (GPa) = 47.17008 51.14581 49.15795
# Shear Modulus (GPa) = 21.91815 30.68066 26.29940
#
# Velocity S-wave (km/s) = 2.98053 3.52634 3.26486
# Velocity P-wave (km/s) = 5.56446 6.10818 5.84265
#
# Compressibility (1/GPa) = 0.02119988
#
# Stress axis : x y z
#
# Youngs Moduli (GPa) = 159.93267 87.95704 94.12926
#
# Poissons Ratio (x) = 0.14470 0.06203
# Poissons Ratio (y) = 0.26311 0.11472
# Poissons Ratio (z) = 0.10539 0.10719
#
# Static dielectric constant tensor:
#      x y z
#    x 1.955180 0.000000 0.000000 
#    y 0.000000 1.950520 0.000000 
#    z 0.000000 0.000000 1.999770 
# 
# From -- ./inp_files/28388.got.cif
#   From: 2010.05.17/outbox.cif.g08.bks.cpg/sg64_15_cif.got.tgz:28388.got - 2010.06.03 16:29:19.
