data_PCOD9480136
_publ_section_title
;
Structure prediction by ZEFSAII (Michael W. Deem and Ramdas Pophale) SiO2 
 PCOD9480136
Probable space group: C M C A
;
_chemical_formula_sum "Si O2"
_cell_formula_units_Z 40
_cell_length_a 9.912615
_cell_length_b 16.509217
_cell_length_c 10.622613
_cell_angle_alpha 90.000000
_cell_angle_beta 90.000000
_cell_angle_gamma 90.000000
_cell_volume 1738.385434
_symmetry_space_group_name_H-M "C M C A"
_symmetry_group_IT_number 64
_symmetry_cell_setting 'orthorhombic'
loop_
_space_group_symop_operation_xyz
x,y,z
-x,1/2-y,1/2+z
x,-y,-z
-x,1/2+y,1/2-z
-x,-y,-z
x,1/2+y,1/2-z
-x,y,z
x,1/2-y,1/2+z
1/2+x,1/2+y,z
1/2-x,-y,1/2+z
1/2+x,1/2-y,-z
1/2-x,y,1/2-z
1/2-x,1/2-y,-z
1/2+x,y,1/2-z
1/2-x,1/2+y,z
1/2+x,-y,1/2+z
loop_
_atom_site_type_symbol
_atom_site_label
_atom_site_fract_x
_atom_site_fract_y
_atom_site_fract_z
Si Si1 0.000000 0.834147 0.171805
Si Si2 0.000000 0.681701 0.327177
Si Si3 0.290775 0.095186 0.479242
Si Si4 0.500000 0.150441 0.956177
O O1 0.868012 0.861699 0.095894
O O2 0.000000 0.738297 0.205318
O O3 0.000000 0.877368 0.308722
O O4 0.129434 0.627250 0.356894
O O5 0.000000 0.752908 0.433828
O O6 0.135582 0.119391 0.480644
O O7 0.307279 0.000000 0.500000
#
# Coordination Sequence:
#
# PCOD9480136 Si02
#       4
#     8   8  16   8
#     4   9  21  37  67  88 129 169 212 250 319 382
#     4   9  21  37  67  89 128 174 203 261 313 387
#     4  11  21  41  69  95 128 167 214 269 319 369
#     4  10  21  38  68  93 131 166 211 261 321 387
#
# _framework density 23.009858000000001
#
# number of rings (size 3 to 8) (size 9 to 14) (size 15 to 20)
#    1.200    0.800    0.000    5.400    0.000    0.000 
#    0.000    0.000   88.000    0.000    0.000    0.000 
#    0.000    0.000    0.000    0.000    0.000    0.000 
#
# Total GULP energy -111805.508593 kJ/mol
# GULP energy per Si atom -5590.275430 kJ/mol
# Density = 2.295749 g / cm^3
# Si number density = 23.009858 Si / 1000 Ang^3
#
#
#
# Elastic Constant Matrix: (Units=GPa)
#
#
# Indices 1 2 3 4 5 6 
#
# 1 224.6090 74.0629 56.3395 0.0000 0.0000 0.0000
# 2 74.0629 188.9464 41.3726 0.0000 0.0000 0.0000
# 3 56.3395 41.3726 69.8938 0.0000 0.0000 0.0000
# 4 0.0000 0.0000 0.0000 35.4255 0.0000 0.0000
# 5 0.0000 0.0000 0.0000 0.0000 18.1705 0.0000
# 6 0.0000 0.0000 0.0000 0.0000 0.0000 15.8974
#
#
#
# Elastic Compliance Matrix: (Units=1/GPa)
#
#
# Indices 1 2 3 4 5 6 
#
# 1 0.005913 -0.001464 -0.003900 0.000000 0.000000 0.000000
# 2 -0.001464 0.006443 -0.002634 0.000000 0.000000 0.000000
# 3 -0.003900 -0.002634 0.019010 0.000000 0.000000 0.000000
# 4 0.000000 0.000000 0.000000 0.028228 0.000000 0.000000
# 5 0.000000 0.000000 0.000000 0.000000 0.055034 0.000000
# 6 0.000000 0.000000 0.000000 0.000000 0.000000 0.062903
#
#
# Mechanical properties :
#
#
# Convention : Reuss Voigt Hill
#
# Bulk Modulus (GPa) = 65.05761 91.88880 78.47320
# Shear Modulus (GPa) = 25.16976 34.67696 29.92336
#
# Velocity S-wave (km/s) = 3.31096 3.88628 3.61010
# Velocity P-wave (km/s) = 6.55376 7.75621 7.18020
#
# Compressibility (1/GPa) = 0.01537099
#
# Stress axis : x y z
#
# Youngs Moduli (GPa) = 169.11609 155.20622 52.60362
#
# Poissons Ratio (x) = 0.22720 0.20515
# Poissons Ratio (y) = 0.24756 0.13855
# Poissons Ratio (z) = 0.65953 0.40879
#
# Static dielectric constant tensor:
#      x y z
#    x 1.795290 0.000000 0.000000 
#    y 0.000000 1.824240 0.000000 
#    z 0.000000 0.000000 2.003700 
# 
# From -- ./inp_files/20352.got.cif
#   From: 2010.05.17/outbox.cif.g08.bks.cpg/sg64_11_cif.got.tgz:20352.got - 2010.06.03 16:29:19.
