data_PCOD9480711
_publ_section_title
;
Structure prediction by ZEFSAII (Michael W. Deem and Ramdas Pophale) SiO2 
 PCOD9480711
Probable space group: C M C A
;
_chemical_formula_sum "Si O2"
_cell_formula_units_Z 112
_cell_length_a 14.378470
_cell_length_b 12.559244
_cell_length_c 28.260055
_cell_angle_alpha 90.000000
_cell_angle_beta 90.000000
_cell_angle_gamma 90.000000
_cell_volume 5103.277404
_symmetry_space_group_name_H-M "C M C A"
_symmetry_group_IT_number 64
_symmetry_cell_setting 'orthorhombic'
loop_
_space_group_symop_operation_xyz
x,y,z
-x,1/2-y,1/2+z
x,-y,-z
-x,1/2+y,1/2-z
-x,-y,-z
x,1/2+y,1/2-z
-x,y,z
x,1/2-y,1/2+z
1/2+x,1/2+y,z
1/2-x,-y,1/2+z
1/2+x,1/2-y,-z
1/2-x,y,1/2-z
1/2-x,1/2-y,-z
1/2+x,y,1/2-z
1/2-x,1/2+y,z
1/2+x,-y,1/2+z
loop_
_atom_site_type_symbol
_atom_site_label
_atom_site_fract_x
_atom_site_fract_y
_atom_site_fract_z
Si Si1 0.721937 0.447071 0.803154
Si Si2 0.665795 0.787586 0.465572
Si Si3 0.898713 0.855255 0.939688
Si Si4 0.891277 0.427052 0.380947
Si Si5 0.887990 0.741924 0.345934
Si Si6 0.892226 0.049445 0.454301
Si Si7 0.609756 0.512224 0.646853
O O1 0.750000 0.476463 0.750000
O O2 0.664436 0.535709 0.833802
O O3 0.663368 0.338850 0.810677
O O4 0.823537 0.433182 0.825961
O O5 0.750000 0.750000 0.500000
O O6 0.621890 0.864577 0.505148
O O7 0.662156 0.843956 0.414742
O O8 0.614088 0.675647 0.456705
O O9 0.849333 0.782309 0.899521
O O10 0.000000 0.803096 0.940729
O O11 0.897331 0.967346 0.913484
O O12 0.000000 0.395295 0.371490
O O13 0.877114 0.866660 0.336197
O O14 0.000000 0.718845 0.344318
O O15 0.000000 0.016414 0.454245
O O16 0.844210 0.000000 0.500000
O O17 0.854594 0.999412 0.406764
O O18 0.500000 0.486981 0.649406
#
# Coordination Sequence:
#
# PCOD9480711 Si02
#       7
#    16  16  16  16  16  16  16
#     4  11  25  42  71 103 132 168 228 301 365 420
#     4  12  25  33  59  98 141 186 229 278 338 413
#     4   9  18  36  61  88 124 173 225 273 326 402
#     4  10  23  43  66  95 138 185 235 292 355 428
#     4   9  20  42  69  94 127 178 227 274 336 414
#     4  10  22  39  59  87 130 180 226 272 328 401
#     4  10  23  42  66  96 138 181 224 278 349 424
#
# _framework density 21.946680000000001
#
# number of rings (size 3 to 8) (size 9 to 14) (size 15 to 20)
#    0.000    1.857    0.000    3.857    8.000    5.143 
#    0.000    0.000    0.000    2.571    0.000    0.000 
#    0.000    0.000    0.000    0.000    0.000    0.000 
#
# Total GULP energy -311873.513872 kJ/mol
# GULP energy per Si atom -5569.169891 kJ/mol
# Density = 2.189673 g / cm^3
# Si number density = 21.946680 Si / 1000 Ang^3
#
#
#
# Elastic Constant Matrix: (Units=GPa)
#
#
# Indices 1 2 3 4 5 6 
#
# 1 97.8505 20.2123 48.8752 0.0000 0.0000 0.0000
# 2 20.2123 47.0971 26.2921 0.0000 0.0000 0.0000
# 3 48.8752 26.2921 138.4833 0.0000 0.0000 0.0000
# 4 0.0000 0.0000 0.0000 17.0021 0.0000 0.0000
# 5 0.0000 0.0000 0.0000 0.0000 27.2119 0.0000
# 6 0.0000 0.0000 0.0000 0.0000 0.0000 51.2179
#
#
#
# Elastic Compliance Matrix: (Units=1/GPa)
#
#
# Indices 1 2 3 4 5 6 
#
# 1 0.012860 -0.003339 -0.003905 0.000000 0.000000 0.000000
# 2 -0.003339 0.024617 -0.003495 0.000000 0.000000 0.000000
# 3 -0.003905 -0.003495 0.009263 0.000000 0.000000 0.000000
# 4 0.000000 0.000000 0.000000 0.058816 0.000000 0.000000
# 5 0.000000 0.000000 0.000000 0.000000 0.036749 0.000000
# 6 0.000000 0.000000 0.000000 0.000000 0.000000 0.019524
#
#
# Mechanical properties :
#
#
# Convention : Reuss Voigt Hill
#
# Bulk Modulus (GPa) = 39.58599 52.68778 46.13689
# Shear Modulus (GPa) = 26.07871 31.62313 28.85092
#
# Velocity S-wave (km/s) = 3.45088 3.80005 3.62966
# Velocity P-wave (km/s) = 5.82706 6.58127 6.21561
#
# Compressibility (1/GPa) = 0.02526146
#
# Stress axis : x y z
#
# Youngs Moduli (GPa) = 77.76203 40.62232 107.95921
#
# Poissons Ratio (x) = 0.13564 0.42154
# Poissons Ratio (y) = 0.25966 0.37734
# Poissons Ratio (z) = 0.30363 0.14198
#
# Static dielectric constant tensor:
#      x y z
#    x 1.955710 0.000000 0.000000 
#    y 0.000000 2.053690 0.000000 
#    z 0.000000 0.000000 2.188960 
# 
# From -- ./inp_files/53290.got.cif
#   From: 2010.05.17/outbox.cif.g08.bks.cpg/sg64_27_cif.got.tgz:53290.got - 2010.06.03 16:29:19.
