data_PCOD9480512
_publ_section_title
;
Structure prediction by ZEFSAII (Michael W. Deem and Ramdas Pophale) SiO2 
 PCOD9480512
Probable space group: C M C A
;
_chemical_formula_sum "Si O2"
_cell_formula_units_Z 64
_cell_length_a 13.911837
_cell_length_b 12.594077
_cell_length_c 15.021545
_cell_angle_alpha 90.000000
_cell_angle_beta 90.000000
_cell_angle_gamma 90.000000
_cell_volume 2631.876025
_symmetry_space_group_name_H-M "C M C A"
_symmetry_group_IT_number 64
_symmetry_cell_setting 'orthorhombic'
loop_
_space_group_symop_operation_xyz
x,y,z
-x,1/2-y,1/2+z
x,-y,-z
-x,1/2+y,1/2-z
-x,-y,-z
x,1/2+y,1/2-z
-x,y,z
x,1/2-y,1/2+z
1/2+x,1/2+y,z
1/2-x,-y,1/2+z
1/2+x,1/2-y,-z
1/2-x,y,1/2-z
1/2-x,1/2-y,-z
1/2+x,y,1/2-z
1/2-x,1/2+y,z
1/2+x,-y,1/2+z
loop_
_atom_site_type_symbol
_atom_site_label
_atom_site_fract_x
_atom_site_fract_y
_atom_site_fract_z
Si Si1 0.614597 0.683141 0.212289
Si Si2 0.606738 0.468136 0.103611
Si Si3 0.115521 0.389831 0.903628
Si Si4 0.306395 0.129176 0.905798
O O1 0.500000 0.695648 0.216098
O O2 0.630728 0.573587 0.159015
O O3 0.647660 0.666216 0.313089
O O4 0.653856 0.782827 0.159453
O O5 0.500000 0.428989 0.129647
O O6 0.694260 0.388587 0.111919
O O7 0.603477 0.500000 0.000000
O O8 0.142032 0.514389 0.893038
O O9 0.000000 0.379815 0.915557
O O10 0.169196 0.346679 0.990971
#
# Coordination Sequence:
#
# PCOD9480512 Si02
#       4
#    16  16  16  16
#     4  10  23  44  72 106 148 194 241 299 374 450
#     4  10  22  45  71 103 149 191 241 307 372 431
#     4  10  21  42  71 111 149 187 243 306 372 438
#     4  11  21  45  76 105 142 197 250 303 362 444
#
# _framework density 24.317254999999999
#
# number of rings (size 3 to 8) (size 9 to 14) (size 15 to 20)
#    0.000    1.750    2.500    3.000    0.000    2.000 
#    4.500    2.500    0.000    7.500    0.000    0.000 
#    0.000    0.000    0.000    0.000    0.000    0.000 
#
# Total GULP energy -179590.046080 kJ/mol
# GULP energy per Si atom -5612.188940 kJ/mol
# Density = 2.426191 g / cm^3
# Si number density = 24.317255 Si / 1000 Ang^3
#
#
#
# Elastic Constant Matrix: (Units=GPa)
#
#
# Indices 1 2 3 4 5 6 
#
# 1 121.7301 70.0202 67.2670 0.0000 0.0000 0.0000
# 2 70.0202 120.3825 130.1883 0.0000 0.0000 0.0000
# 3 67.2670 130.1883 206.2391 0.0000 0.0000 0.0000
# 4 0.0000 0.0000 0.0000 40.5452 0.0000 0.0000
# 5 0.0000 0.0000 0.0000 0.0000 -137.1716 0.0000
# 6 0.0000 0.0000 0.0000 0.0000 0.0000 42.7177
#
#
#
# Elastic Compliance Matrix: (Units=1/GPa)
#
#
# Indices 1 2 3 4 5 6 
#
# 1 0.012514 -0.009028 0.001617 0.000000 0.000000 0.000000
# 2 -0.009028 0.032690 -0.017691 0.000000 0.000000 0.000000
# 3 0.001617 -0.017691 0.015489 0.000000 0.000000 0.000000
# 4 0.000000 0.000000 0.000000 0.024664 0.000000 0.000000
# 5 0.000000 0.000000 0.000000 0.000000 -0.007290 0.000000
# 6 0.000000 0.000000 0.000000 0.000000 0.000000 0.023409
#
#
# Mechanical properties :
#
#
# Convention : Reuss Voigt Hill
#
# Bulk Modulus (GPa) = 95.33249 109.25585 102.29417
# Shear Modulus (GPa) = 32.22178 1.27669 16.74924
#
# Velocity S-wave (km/s) = 3.64408 0.72537 2.62731
# Velocity P-wave (km/s) = 7.54947 6.76228 7.16669
#
# Compressibility (1/GPa) = 0.01048960
#
# Stress axis : x y z
#
# Youngs Moduli (GPa) = 79.91024 30.59084 64.56345
#
# Poissons Ratio (x) = 0.27616 -0.10440
# Poissons Ratio (y) = 0.72139 1.14218
# Poissons Ratio (z) = -0.12922 0.54118
#
# Static dielectric constant tensor:
#      x y z
#    x 1.950720 0.000000 0.000000 
#    y 0.000000 1.896270 0.000000 
#    z 0.000000 0.000000 1.903460 
# 
# From -- ./inp_files/23248.got.cif
#   From: 2010.05.17/outbox.cif.g08.bks.cpg/sg64_12_cif.got.tgz:23248.got - 2010.06.03 16:29:19.
