data_PCOD9480111
_publ_section_title
;
Structure prediction by ZEFSAII (Michael W. Deem and Ramdas Pophale) SiO2 
 PCOD9480111
Probable space group: C M C A
;
_chemical_formula_sum "Si O2"
_cell_formula_units_Z 88
_cell_length_a 14.181866
_cell_length_b 21.523295
_cell_length_c 14.176850
_cell_angle_alpha 90.000000
_cell_angle_beta 90.000000
_cell_angle_gamma 90.000000
_cell_volume 4327.348578
_symmetry_space_group_name_H-M "C M C A"
_symmetry_group_IT_number 64
_symmetry_cell_setting 'orthorhombic'
loop_
_space_group_symop_operation_xyz
x,y,z
-x,1/2-y,1/2+z
x,-y,-z
-x,1/2+y,1/2-z
-x,-y,-z
x,1/2+y,1/2-z
-x,y,z
x,1/2-y,1/2+z
1/2+x,1/2+y,z
1/2-x,-y,1/2+z
1/2+x,1/2-y,-z
1/2-x,y,1/2-z
1/2-x,1/2-y,-z
1/2+x,y,1/2-z
1/2-x,1/2+y,z
1/2+x,-y,1/2+z
loop_
_atom_site_type_symbol
_atom_site_label
_atom_site_fract_x
_atom_site_fract_y
_atom_site_fract_z
Si Si1 0.390686 0.705690 0.496078
Si Si2 0.670896 0.000000 0.000000
Si Si3 0.193169 0.447719 0.347442
Si Si4 0.312262 0.658827 0.965564
Si Si5 0.607757 0.898088 0.848209
Si Si6 0.389541 0.918640 0.640413
O O1 0.500000 0.695490 0.530058
O O2 0.370313 0.778085 0.481422
O O3 0.297870 0.678881 0.550099
O O4 0.382282 0.667899 0.398221
O O5 0.730768 0.041526 0.929359
O O6 0.625299 0.951233 0.926891
O O7 0.250000 0.448749 0.250000
O O8 0.151542 0.381407 0.376611
O O9 0.125000 0.506696 0.359910
O O10 0.330601 0.616973 0.059728
O O11 0.500000 0.908290 0.823510
O O12 0.649733 0.900919 0.743791
O O13 0.500000 0.904081 0.624898
#
# Coordination Sequence:
#
# PCOD9480111 Si02
#       6
#    16   8  16  16  16  16
#     4  10  22  42  65  91 126 169 220 264 315 378
#     4  12  19  38  63  88 124 172 204 262 314 374
#     4  12  23  39  63  95 128 166 209 260 321 381
#     4  11  23  42  64  94 127 176 209 266 327 377
#     4  10  21  38  63  96 124 164 218 267 313 378
#     4  11  23  39  66  98 130 170 215 260 320 392
#
# _framework density 20.335777
#
# number of rings (size 3 to 8) (size 9 to 14) (size 15 to 20)
#    0.000    1.091    5.455    0.818    0.000    2.182 
#    6.545    0.909    0.000    0.000    0.000    0.000 
#    0.000    0.000    0.000    0.000    0.000    0.000 
#
# Total GULP energy -244938.024041 kJ/mol
# GULP energy per Si atom -5566.773274 kJ/mol
# Density = 2.028949 g / cm^3
# Si number density = 20.335777 Si / 1000 Ang^3
#
#
#
# Elastic Constant Matrix: (Units=GPa)
#
#
# Indices 1 2 3 4 5 6 
#
# 1 102.4008 13.9184 20.1309 0.0000 0.0000 0.0000
# 2 13.9184 110.4587 47.7030 0.0000 0.0000 0.0000
# 3 20.1309 47.7030 98.4632 0.0000 0.0000 0.0000
# 4 0.0000 0.0000 0.0000 12.9962 0.0000 0.0000
# 5 0.0000 0.0000 0.0000 0.0000 19.0907 0.0000
# 6 0.0000 0.0000 0.0000 0.0000 0.0000 31.3142
#
#
#
# Elastic Compliance Matrix: (Units=1/GPa)
#
#
# Indices 1 2 3 4 5 6 
#
# 1 0.010195 -0.000486 -0.001849 0.000000 0.000000 0.000000
# 2 -0.000486 0.011472 -0.005458 0.000000 0.000000 0.000000
# 3 -0.001849 -0.005458 0.013179 0.000000 0.000000 0.000000
# 4 0.000000 0.000000 0.000000 0.076945 0.000000 0.000000
# 5 0.000000 0.000000 0.000000 0.000000 0.052382 0.000000
# 6 0.000000 0.000000 0.000000 0.000000 0.000000 0.031934
#
#
# Mechanical properties :
#
#
# Convention : Reuss Voigt Hill
#
# Bulk Modulus (GPa) = 51.92507 52.75858 52.34183
# Shear Modulus (GPa) = 22.92393 27.98493 25.45443
#
# Velocity S-wave (km/s) = 3.36113 3.71366 3.54178
# Velocity P-wave (km/s) = 6.37591 6.66247 6.52076
#
# Compressibility (1/GPa) = 0.01925852
#
# Stress axis : x y z
#
# Youngs Moduli (GPa) = 98.08637 87.17125 75.88111
#
# Poissons Ratio (x) = 0.04238 0.14029
# Poissons Ratio (y) = 0.04769 0.41418
# Poissons Ratio (z) = 0.18135 0.47581
#
# Static dielectric constant tensor:
#      x y z
#    x 1.789220 0.000000 0.000000 
#    y 0.000000 1.819000 0.000000 
#    z 0.000000 0.000000 1.731060 
# 
# From -- ./inp_files/23766.got.cif
#   From: 2010.05.17/outbox.cif.g08.bks.cpg/sg64_12_cif.got.tgz:23766.got - 2010.06.03 16:29:19.
