data_PCOD9480797
_publ_section_title
;
Structure prediction by ZEFSAII (Michael W. Deem and Ramdas Pophale) SiO2 
 PCOD9480797
Probable space group: C M C A
;
_chemical_formula_sum "Si O2"
_cell_formula_units_Z 80
_cell_length_a 17.605188
_cell_length_b 24.069615
_cell_length_c 8.143718
_cell_angle_alpha 90.000000
_cell_angle_beta 90.000000
_cell_angle_gamma 90.000000
_cell_volume 3450.901294
_symmetry_space_group_name_H-M "C M C A"
_symmetry_group_IT_number 64
_symmetry_cell_setting 'orthorhombic'
loop_
_space_group_symop_operation_xyz
x,y,z
-x,1/2-y,1/2+z
x,-y,-z
-x,1/2+y,1/2-z
-x,-y,-z
x,1/2+y,1/2-z
-x,y,z
x,1/2-y,1/2+z
1/2+x,1/2+y,z
1/2-x,-y,1/2+z
1/2+x,1/2-y,-z
1/2-x,y,1/2-z
1/2-x,1/2-y,-z
1/2+x,y,1/2-z
1/2-x,1/2+y,z
1/2+x,-y,1/2+z
loop_
_atom_site_type_symbol
_atom_site_label
_atom_site_fract_x
_atom_site_fract_y
_atom_site_fract_z
Si Si1 0.089422 0.028527 0.170087
Si Si2 0.163014 0.681487 0.691613
Si Si3 0.910922 0.768500 0.503401
Si Si4 0.328597 0.565159 0.679309
Si Si5 0.329581 0.870846 0.831265
O O1 0.129696 0.085894 0.211656
O O2 0.000000 0.037545 0.162434
O O3 0.110468 0.983163 0.308920
O O4 0.114793 0.000000 0.000000
O O5 0.250000 0.690847 0.750000
O O6 0.140721 0.714011 0.529178
O O7 0.150829 0.615853 0.698460
O O8 0.106117 0.707875 0.823845
O O9 0.879376 0.817271 0.622108
O O10 0.000000 0.758198 0.526156
O O11 0.250000 0.541027 0.750000
O O12 0.318180 0.594786 0.503150
O O13 0.250000 0.854632 0.750000
#
# Coordination Sequence:
#
# PCOD9480797 Si02
#       5
#    16  16  16  16  16
#     4  11  24  40  60  88 121 156 197 247 304 362
#     4  10  22  40  62  88 120 162 206 248 301 366
#     4  11  23  39  61  91 124 158 201 253 308 361
#     4  10  22  40  62  87 116 155 201 247 296 357
#     4  11  23  40  63  87 120 160 202 248 299 363
#
# _framework density 23.182348000000001
#
# number of rings (size 3 to 8) (size 9 to 14) (size 15 to 20)
#    0.000    1.400    0.000    4.800    0.000   10.400 
#    0.000    2.000    0.000    0.000    0.000    0.000 
#    0.000    0.000    0.000    0.000    0.000    0.000 
#
# Total GULP energy -223942.221580 kJ/mol
# GULP energy per Si atom -5598.555539 kJ/mol
# Density = 2.312958 g / cm^3
# Si number density = 23.182348 Si / 1000 Ang^3
#
#
#
# Elastic Constant Matrix: (Units=GPa)
#
#
# Indices 1 2 3 4 5 6 
#
# 1 84.6134 25.0098 4.9991 0.0000 0.0000 0.0000
# 2 25.0098 66.0126 8.3515 0.0000 0.0000 0.0000
# 3 4.9991 8.3515 69.1147 0.0000 0.0000 0.0000
# 4 0.0000 0.0000 0.0000 27.2002 0.0000 0.0000
# 5 0.0000 0.0000 0.0000 0.0000 30.9114 0.0000
# 6 0.0000 0.0000 0.0000 0.0000 0.0000 14.2848
#
#
#
# Elastic Compliance Matrix: (Units=1/GPa)
#
#
# Indices 1 2 3 4 5 6 
#
# 1 0.013318 -0.005000 -0.000359 0.000000 0.000000 0.000000
# 2 -0.005000 0.017261 -0.001724 0.000000 0.000000 0.000000
# 3 -0.000359 -0.001724 0.014703 0.000000 0.000000 0.000000
# 4 0.000000 0.000000 0.000000 0.036764 0.000000 0.000000
# 5 0.000000 0.000000 0.000000 0.000000 0.032351 0.000000
# 6 0.000000 0.000000 0.000000 0.000000 0.000000 0.070005
#
#
# Mechanical properties :
#
#
# Convention : Reuss Voigt Hill
#
# Bulk Modulus (GPa) = 32.13872 32.94018 32.53945
# Shear Modulus (GPa) = 23.93034 26.57127 25.25081
#
# Velocity S-wave (km/s) = 3.21637 3.38921 3.30392
# Velocity P-wave (km/s) = 5.26184 5.43651 5.34989
#
# Compressibility (1/GPa) = 0.03111511
#
# Stress axis : x y z
#
# Youngs Moduli (GPa) = 75.08854 57.93365 68.01329
#
# Poissons Ratio (x) = 0.28968 0.02442
# Poissons Ratio (y) = 0.37545 0.11726
# Poissons Ratio (z) = 0.02696 0.09988
#
# Static dielectric constant tensor:
#      x y z
#    x 1.803940 0.000000 0.000000 
#    y 0.000000 1.839580 0.000000 
#    z 0.000000 0.000000 1.985240 
# 
# From -- ./inp_files/7071.got.cif
#   From: 2010.05.17/outbox.cif.g08.bks.cpg/sg64_4_cif.got.tgz:7071.got - 2010.06.03 16:29:19.
