data_PCOD9480015
_publ_section_title
;
Structure prediction by ZEFSAII (Michael W. Deem and Ramdas Pophale) SiO2 
 PCOD9480015
Probable space group: C M C A
;
_chemical_formula_sum "Si O2"
_cell_formula_units_Z 88
_cell_length_a 20.602449
_cell_length_b 8.972749
_cell_length_c 24.021473
_cell_angle_alpha 90.000000
_cell_angle_beta 90.000000
_cell_angle_gamma 90.000000
_cell_volume 4440.624000
_symmetry_space_group_name_H-M "C M C A"
_symmetry_group_IT_number 64
_symmetry_cell_setting 'orthorhombic'
loop_
_space_group_symop_operation_xyz
x,y,z
-x,1/2-y,1/2+z
x,-y,-z
-x,1/2+y,1/2-z
-x,-y,-z
x,1/2+y,1/2-z
-x,y,z
x,1/2-y,1/2+z
1/2+x,1/2+y,z
1/2-x,-y,1/2+z
1/2+x,1/2-y,-z
1/2-x,y,1/2-z
1/2-x,1/2-y,-z
1/2+x,y,1/2-z
1/2-x,1/2+y,z
1/2+x,-y,1/2+z
loop_
_atom_site_type_symbol
_atom_site_label
_atom_site_fract_x
_atom_site_fract_y
_atom_site_fract_z
Si Si1 0.573689 0.626966 0.681881
Si Si2 0.777855 0.802399 0.560848
Si Si3 0.925060 0.240296 0.067703
Si Si4 0.124530 0.500000 0.000000
Si Si5 0.075835 0.963470 0.786840
Si Si6 0.163664 0.995383 0.895259
O O1 0.500000 0.572928 0.670778
O O2 0.601757 0.670734 0.622113
O O3 0.602319 0.516429 0.727180
O O4 0.571637 0.785744 0.712450
O O5 0.750000 0.750000 0.500000
O O6 0.828800 0.932711 0.547165
O O7 0.810949 0.656458 0.586644
O O8 0.723645 0.878769 0.599931
O O9 0.886732 0.086565 0.062827
O O10 0.000000 0.206264 0.078674
O O11 0.916544 0.358232 0.019117
O O12 0.123652 0.005828 0.837457
O O13 0.000000 0.017226 0.794257
#
# Coordination Sequence:
#
# PCOD9480015 Si02
#       6
#    16  16  16   8  16  16
#     4   8  16  32  55  83 118 152 183 222 289 363
#     4  12  22  39  61  82 108 160 208 246 286 349
#     4  10  21  38  59  90 125 154 189 249 304 356
#     4  12  23  38  62  84 117 158 208 240 304 352
#     4   9  18  35  62  91 117 150 188 238 299 359
#     4  11  21  38  63  86 114 151 209 244 291 352
#
# _framework density 19.817035000000001
#
# number of rings (size 3 to 8) (size 9 to 14) (size 15 to 20)
#    0.000    1.818    3.636    1.909    0.000    1.455 
#    0.000    6.364    0.000   22.909    0.000    0.000 
#    0.000    0.000    0.000    0.000    0.000    0.000 
#
# Total GULP energy -245018.416973 kJ/mol
# GULP energy per Si atom -5568.600386 kJ/mol
# Density = 1.977193 g / cm^3
# Si number density = 19.817035 Si / 1000 Ang^3
#
#
#
# Elastic Constant Matrix: (Units=GPa)
#
#
# Indices 1 2 3 4 5 6 
#
# 1 62.5804 42.9164 17.3449 0.0000 0.0000 0.0000
# 2 42.9164 62.3228 -4.1361 0.0000 0.0000 0.0000
# 3 17.3449 -4.1361 31.5243 0.0000 0.0000 0.0000
# 4 0.0000 0.0000 0.0000 39.1058 0.0000 0.0000
# 5 0.0000 0.0000 0.0000 0.0000 26.3534 0.0000
# 6 0.0000 0.0000 0.0000 0.0000 0.0000 22.6877
#
#
#
# Elastic Compliance Matrix: (Units=1/GPa)
#
#
# Indices 1 2 3 4 5 6 
#
# 1 0.050052 -0.036613 -0.032343 0.000000 0.000000 0.000000
# 2 -0.036613 0.042969 0.025782 0.000000 0.000000 0.000000
# 3 -0.032343 0.025782 0.052899 0.000000 0.000000 0.000000
# 4 0.000000 0.000000 0.000000 0.025572 0.000000 0.000000
# 5 0.000000 0.000000 0.000000 0.000000 0.037946 0.000000
# 6 0.000000 0.000000 0.000000 0.000000 0.000000 0.044077
#
#
# Mechanical properties :
#
#
# Convention : Reuss Voigt Hill
#
# Bulk Modulus (GPa) = 16.78596 29.85311 23.31953
# Shear Modulus (GPa) = 13.89974 24.31621 19.10797
#
# Velocity S-wave (km/s) = 2.65128 3.50671 3.10856
# Velocity P-wave (km/s) = 4.22625 5.61187 4.96761
#
# Compressibility (1/GPa) = 0.05957360
#
# Stress axis : x y z
#
# Youngs Moduli (GPa) = 19.97919 23.27269 18.90378
#
# Poissons Ratio (x) = 0.85208 0.61140
# Poissons Ratio (y) = 0.73150 -0.48739
# Poissons Ratio (z) = 0.64618 -0.60003
#
# Static dielectric constant tensor:
#      x y z
#    x 1.751270 0.000000 0.000000 
#    y 0.000000 1.691320 0.000000 
#    z 0.000000 0.000000 1.742660 
# 
# From -- ./inp_files/46215.got.cif
#   From: 2010.05.17/outbox.cif.g08.bks.cpg/sg64_24_cif.got.tgz:46215.got - 2010.06.03 16:29:19.
