data_PCOD9480391
_publ_section_title
;
Structure prediction by ZEFSAII (Michael W. Deem and Ramdas Pophale) SiO2 
 PCOD9480391
Probable space group: C M C A
;
_chemical_formula_sum "Si O2"
_cell_formula_units_Z 64
_cell_length_a 22.437567
_cell_length_b 12.177238
_cell_length_c 11.110764
_cell_angle_alpha 90.000000
_cell_angle_beta 90.000000
_cell_angle_gamma 90.000000
_cell_volume 3035.767310
_symmetry_space_group_name_H-M "C M C A"
_symmetry_group_IT_number 64
_symmetry_cell_setting 'orthorhombic'
loop_
_space_group_symop_operation_xyz
x,y,z
-x,1/2-y,1/2+z
x,-y,-z
-x,1/2+y,1/2-z
-x,-y,-z
x,1/2+y,1/2-z
-x,y,z
x,1/2-y,1/2+z
1/2+x,1/2+y,z
1/2-x,-y,1/2+z
1/2+x,1/2-y,-z
1/2-x,y,1/2-z
1/2-x,1/2-y,-z
1/2+x,y,1/2-z
1/2-x,1/2+y,z
1/2+x,-y,1/2+z
loop_
_atom_site_type_symbol
_atom_site_label
_atom_site_fract_x
_atom_site_fract_y
_atom_site_fract_z
Si Si1 0.432939 0.987488 0.677331
Si Si2 0.742355 0.167142 0.387594
Si Si3 0.119208 0.653645 0.508153
Si Si4 0.129455 0.904080 0.588035
O O1 0.500000 0.028053 0.699103
O O2 0.389671 0.086158 0.631940
O O3 0.433091 0.896030 0.572380
O O4 0.406160 0.926117 0.791372
O O5 0.750000 0.213729 0.250000
O O6 0.750000 0.250000 0.500000
O O7 0.677330 0.123926 0.425670
O O8 0.798985 0.086754 0.391879
O O9 0.118686 0.782393 0.535479
O O10 0.110553 0.000000 0.500000
#
# Coordination Sequence:
#
# PCOD9480391 Si02
#       4
#    16  16  16  16
#     4  11  25  45  71  97 137 192 236 287 357 427
#     4  10  21  40  69 103 142 183 226 291 361 428
#     4  10  23  45  69 100 138 183 237 287 360 425
#     4  11  26  41  69 107 136 178 234 299 359 425
#
# _framework density 21.081983000000001
#
# number of rings (size 3 to 8) (size 9 to 14) (size 15 to 20)
#    0.000    1.500    2.500    1.500    7.000    4.500 
#    0.000    1.250    0.000    0.000    0.000    0.000 
#    0.000    0.000    0.000    0.000    0.000    0.000 
#
# Total GULP energy -178170.655766 kJ/mol
# GULP energy per Si atom -5567.832993 kJ/mol
# Density = 2.103400 g / cm^3
# Si number density = 21.081983 Si / 1000 Ang^3
#
#
#
# Elastic Constant Matrix: (Units=GPa)
#
#
# Indices 1 2 3 4 5 6 
#
# 1 109.4840 30.0225 23.2303 0.0000 0.0000 0.0000
# 2 30.0225 137.8816 47.4413 0.0000 0.0000 0.0000
# 3 23.2303 47.4413 108.1493 0.0000 0.0000 0.0000
# 4 0.0000 0.0000 0.0000 33.0023 0.0000 0.0000
# 5 0.0000 0.0000 0.0000 0.0000 15.7146 0.0000
# 6 0.0000 0.0000 0.0000 0.0000 0.0000 10.7645
#
#
#
# Elastic Compliance Matrix: (Units=1/GPa)
#
#
# Indices 1 2 3 4 5 6 
#
# 1 0.009888 -0.001675 -0.001389 0.000000 0.000000 0.000000
# 2 -0.001675 0.008826 -0.003512 0.000000 0.000000 0.000000
# 3 -0.001389 -0.003512 0.011085 0.000000 0.000000 0.000000
# 4 0.000000 0.000000 0.000000 0.030301 0.000000 0.000000
# 5 0.000000 0.000000 0.000000 0.000000 0.063635 0.000000
# 6 0.000000 0.000000 0.000000 0.000000 0.000000 0.092898
#
#
# Mechanical properties :
#
#
# Convention : Reuss Voigt Hill
#
# Bulk Modulus (GPa) = 60.07064 61.87814 60.97439
# Shear Modulus (GPa) = 21.24649 28.88435 25.06542
#
# Velocity S-wave (km/s) = 3.17804 3.70550 3.45186
# Velocity P-wave (km/s) = 6.48246 6.90815 6.69868
#
# Compressibility (1/GPa) = 0.01664707
#
# Stress axis : x y z
#
# Youngs Moduli (GPa) = 101.13449 113.30683 90.20950
#
# Poissons Ratio (x) = 0.18979 0.12531
# Poissons Ratio (y) = 0.16940 0.31679
# Poissons Ratio (z) = 0.14049 0.39790
#
# Static dielectric constant tensor:
#      x y z
#    x 1.867700 0.000000 0.000000 
#    y 0.000000 1.738670 0.000000 
#    z 0.000000 0.000000 1.868930 
# 
# From -- ./inp_files/16776.got.cif
#   From: 2010.05.17/outbox.cif.g08.bks.cpg/sg64_9_cif.got.tgz:16776.got - 2010.06.03 16:29:19.
