data_PCOD9480614
_publ_section_title
;
Structure prediction by ZEFSAII (Michael W. Deem and Ramdas Pophale) SiO2 
 PCOD9480614
Probable space group: C M C A
;
_chemical_formula_sum "Si O2"
_cell_formula_units_Z 48
_cell_length_a 16.068735
_cell_length_b 14.099110
_cell_length_c 9.281437
_cell_angle_alpha 90.000000
_cell_angle_beta 90.000000
_cell_angle_gamma 90.000000
_cell_volume 2102.754682
_symmetry_space_group_name_H-M "C M C A"
_symmetry_group_IT_number 64
_symmetry_cell_setting 'orthorhombic'
loop_
_space_group_symop_operation_xyz
x,y,z
-x,1/2-y,1/2+z
x,-y,-z
-x,1/2+y,1/2-z
-x,-y,-z
x,1/2+y,1/2-z
-x,y,z
x,1/2-y,1/2+z
1/2+x,1/2+y,z
1/2-x,-y,1/2+z
1/2+x,1/2-y,-z
1/2-x,y,1/2-z
1/2-x,1/2-y,-z
1/2+x,y,1/2-z
1/2-x,1/2+y,z
1/2+x,-y,1/2+z
loop_
_atom_site_type_symbol
_atom_site_label
_atom_site_fract_x
_atom_site_fract_y
_atom_site_fract_z
Si Si1 0.171586 0.011442 0.168053
Si Si2 0.595165 0.089581 0.900877
Si Si3 0.000000 0.123926 0.149518
Si Si4 0.000000 0.734577 0.072558
O O1 0.250000 0.056986 0.250000
O O2 0.085582 0.069495 0.177127
O O3 0.152300 0.915521 0.260608
O O4 0.189316 0.000000 0.000000
O O5 0.500000 0.069610 0.855149
O O6 0.580455 0.181334 0.000928
O O7 0.619674 0.000000 0.000000
O O8 0.000000 0.213284 0.259348
O O9 0.000000 0.159866 0.985437
#
# Coordination Sequence:
#
# PCOD9480614 Si02
#       4
#    16  16   8   8
#     4  12  25  41  69  98 129 170 230 275 323 383
#     4   9  16  39  65  88 120 170 213 268 315 369
#     4  12  24  44  66  99 137 173 215 267 331 406
#     4  10  22  37  70  91 135 174 213 261 339 374
#
# _framework density 22.827200000000001
#
# number of rings (size 3 to 8) (size 9 to 14) (size 15 to 20)
#    1.000    0.333    5.000    1.500    4.667    0.000 
#    0.000    3.333    0.000    0.000    0.000    0.000 
#    0.000    0.000    0.000    0.000    0.000    0.000 
#
# Total GULP energy -133792.256343 kJ/mol
# GULP energy per Si atom -5574.677348 kJ/mol
# Density = 2.277524 g / cm^3
# Si number density = 22.827200 Si / 1000 Ang^3
#
#
#
# Elastic Constant Matrix: (Units=GPa)
#
#
# Indices 1 2 3 4 5 6 
#
# 1 150.4418 20.6749 43.0759 0.0000 0.0000 0.0000
# 2 20.6749 16.0629 7.1964 0.0000 0.0000 0.0000
# 3 43.0759 7.1964 155.1815 0.0000 0.0000 0.0000
# 4 0.0000 0.0000 0.0000 34.1487 0.0000 0.0000
# 5 0.0000 0.0000 0.0000 0.0000 23.0413 0.0000
# 6 0.0000 0.0000 0.0000 0.0000 0.0000 2.0208
#
#
#
# Elastic Compliance Matrix: (Units=1/GPa)
#
#
# Indices 1 2 3 4 5 6 
#
# 1 0.008598 -0.010210 -0.001913 0.000000 0.000000 0.000000
# 2 -0.010210 0.075699 -0.000676 0.000000 0.000000 0.000000
# 3 -0.001913 -0.000676 0.007007 0.000000 0.000000 0.000000
# 4 0.000000 0.000000 0.000000 0.029284 0.000000 0.000000
# 5 0.000000 0.000000 0.000000 0.000000 0.043400 0.000000
# 6 0.000000 0.000000 0.000000 0.000000 0.000000 0.494862
#
#
# Mechanical properties :
#
#
# Convention : Reuss Voigt Hill
#
# Bulk Modulus (GPa) = 15.21942 51.50895 33.36418
# Shear Modulus (GPa) = 7.07864 28.55809 17.81837
#
# Velocity S-wave (km/s) = 1.76287 3.54086 2.79691
# Velocity P-wave (km/s) = 3.29018 6.27142 5.00779
#
# Compressibility (1/GPa) = 0.06570552
#
# Stress axis : x y z
#
# Youngs Moduli (GPa) = 116.30654 13.21013 142.72436
#
# Poissons Ratio (x) = 0.13487 0.27306
# Poissons Ratio (y) = 1.18744 0.09655
# Poissons Ratio (z) = 0.22252 0.00894
#
# Static dielectric constant tensor:
#      x y z
#    x 1.842790 0.000000 0.000000 
#    y 0.000000 1.886590 0.000000 
#    z 0.000000 0.000000 1.906900 
# 
# From -- ./inp_files/6330.got.cif
#   From: 2010.05.17/outbox.cif.g08.bks.cpg/sg64_4_cif.got.tgz:6330.got - 2010.06.03 16:29:19.
