data_PCOD9480459
_publ_section_title
;
Structure prediction by ZEFSAII (Michael W. Deem and Ramdas Pophale) SiO2 
 PCOD9480459
Probable space group: C M C A
;
_chemical_formula_sum "Si O2"
_cell_formula_units_Z 112
_cell_length_a 20.699805
_cell_length_b 15.569850
_cell_length_c 15.133060
_cell_angle_alpha 90.000000
_cell_angle_beta 90.000000
_cell_angle_gamma 90.000000
_cell_volume 4877.277171
_symmetry_space_group_name_H-M "C M C A"
_symmetry_group_IT_number 64
_symmetry_cell_setting 'orthorhombic'
loop_
_space_group_symop_operation_xyz
x,y,z
-x,1/2-y,1/2+z
x,-y,-z
-x,1/2+y,1/2-z
-x,-y,-z
x,1/2+y,1/2-z
-x,y,z
x,1/2-y,1/2+z
1/2+x,1/2+y,z
1/2-x,-y,1/2+z
1/2+x,1/2-y,-z
1/2-x,y,1/2-z
1/2-x,1/2-y,-z
1/2+x,y,1/2-z
1/2-x,1/2+y,z
1/2+x,-y,1/2+z
loop_
_atom_site_type_symbol
_atom_site_label
_atom_site_fract_x
_atom_site_fract_y
_atom_site_fract_z
Si Si1 0.155566 0.300282 0.106790
Si Si2 0.290994 0.470946 0.338688
Si Si3 0.574970 0.975268 0.752361
Si Si4 0.429560 0.222184 0.257398
Si Si5 0.118161 0.758612 0.571255
Si Si6 0.252190 0.654514 0.357821
Si Si7 0.924525 0.426709 0.431247
O O1 0.200492 0.383635 0.107344
O O2 0.119111 0.289616 0.199814
O O3 0.196167 0.212545 0.102023
O O4 0.107346 0.300630 0.024085
O O5 0.250000 0.451384 0.250000
O O6 0.364680 0.500896 0.314762
O O7 0.255987 0.553785 0.380410
O O8 0.500000 0.979410 0.786433
O O9 0.586036 0.876845 0.720925
O O10 0.578452 0.035753 0.667128
O O11 0.500000 0.241972 0.293298
O O12 0.429900 0.225728 0.151911
O O13 0.183579 0.799557 0.608072
O O14 0.118546 0.656827 0.560291
O O15 0.250000 0.658806 0.250000
O O16 0.906132 0.500000 0.500000
O O17 0.000000 0.403603 0.449710
#
# Coordination Sequence:
#
# PCOD9480459 Si02
#       7
#    16  16  16  16  16  16  16
#     4  12  26  43  71 103 141 187 238 296 362 438
#     4  11  24  42  72  98 139 189 235 295 361 436
#     4  10  21  41  67  97 135 185 235 291 355 426
#     4  11  23  44  73 102 144 188 235 296 361 437
#     4  12  24  43  69 100 141 181 236 299 361 418
#     4  11  23  47  67  96 143 185 235 297 354 429
#     4  10  22  39  63  98 138 179 235 294 350 420
#
# _framework density 22.963633000000002
#
# number of rings (size 3 to 8) (size 9 to 14) (size 15 to 20)
#    0.000    1.000    2.857    3.857    2.000    4.571 
#    0.000    0.000    0.000    1.714    0.000    0.000 
#    0.000    0.000    0.000    0.000    0.000    0.000 
#
# Total GULP energy -313105.098884 kJ/mol
# GULP energy per Si atom -5591.162480 kJ/mol
# Density = 2.291137 g / cm^3
# Si number density = 22.963633 Si / 1000 Ang^3
#
#
#
# Elastic Constant Matrix: (Units=GPa)
#
#
# Indices 1 2 3 4 5 6 
#
# 1 53.5668 21.4533 16.2580 0.0000 0.0000 0.0000
# 2 21.4533 158.0237 41.6132 0.0000 0.0000 0.0000
# 3 16.2580 41.6132 64.4562 0.0000 0.0000 0.0000
# 4 0.0000 0.0000 0.0000 28.9318 0.0000 0.0000
# 5 0.0000 0.0000 0.0000 0.0000 21.4014 0.0000
# 6 0.0000 0.0000 0.0000 0.0000 0.0000 54.3446
#
#
#
# Elastic Compliance Matrix: (Units=1/GPa)
#
#
# Indices 1 2 3 4 5 6 
#
# 1 0.020597 -0.001721 -0.004084 0.000000 0.000000 0.000000
# 2 -0.001721 0.007768 -0.004581 0.000000 0.000000 0.000000
# 3 -0.004084 -0.004581 0.019502 0.000000 0.000000 0.000000
# 4 0.000000 0.000000 0.000000 0.034564 0.000000 0.000000
# 5 0.000000 0.000000 0.000000 0.000000 0.046726 0.000000
# 6 0.000000 0.000000 0.000000 0.000000 0.000000 0.018401
#
#
# Mechanical properties :
#
#
# Convention : Reuss Voigt Hill
#
# Bulk Modulus (GPa) = 36.90717 48.29953 42.60335
# Shear Modulus (GPa) = 28.19085 34.05038 31.12062
#
# Velocity S-wave (km/s) = 3.50756 3.85489 3.68532
# Velocity P-wave (km/s) = 5.70183 6.39470 6.05818
#
# Compressibility (1/GPa) = 0.02709500
#
# Stress axis : x y z
#
# Youngs Moduli (GPa) = 48.55063 128.73100 51.27620
#
# Poissons Ratio (x) = 0.22151 0.20943
# Poissons Ratio (y) = 0.08354 0.23490
# Poissons Ratio (z) = 0.19830 0.58973
#
# Static dielectric constant tensor:
#      x y z
#    x 1.884540 0.000000 0.000000 
#    y 0.000000 1.850240 0.000000 
#    z 0.000000 0.000000 1.865370 
# 
# From -- ./inp_files/27417.got.cif
#   From: 2010.05.17/outbox.cif.g08.bks.cpg/sg64_14_cif.got.tgz:27417.got - 2010.06.03 16:29:19.
