data_PCOD9480878
_publ_section_title
;
Structure prediction by ZEFSAII (Michael W. Deem and Ramdas Pophale) SiO2 
 PCOD9480878
Probable space group: C M C A
;
_chemical_formula_sum "Si O2"
_cell_formula_units_Z 96
_cell_length_a 15.240462
_cell_length_b 15.832128
_cell_length_c 20.854171
_cell_angle_alpha 90.000000
_cell_angle_beta 90.000000
_cell_angle_gamma 90.000000
_cell_volume 5031.880923
_symmetry_space_group_name_H-M "C M C A"
_symmetry_group_IT_number 64
_symmetry_cell_setting 'orthorhombic'
loop_
_space_group_symop_operation_xyz
x,y,z
-x,1/2-y,1/2+z
x,-y,-z
-x,1/2+y,1/2-z
-x,-y,-z
x,1/2+y,1/2-z
-x,y,z
x,1/2-y,1/2+z
1/2+x,1/2+y,z
1/2-x,-y,1/2+z
1/2+x,1/2-y,-z
1/2-x,y,1/2-z
1/2-x,1/2-y,-z
1/2+x,y,1/2-z
1/2-x,1/2+y,z
1/2+x,-y,1/2+z
loop_
_atom_site_type_symbol
_atom_site_label
_atom_site_fract_x
_atom_site_fract_y
_atom_site_fract_z
Si Si1 0.104538 0.862951 0.687363
Si Si2 0.849107 0.817712 0.230221
Si Si3 0.901155 0.951883 0.328154
Si Si4 0.399328 0.817727 0.958404
Si Si5 0.598809 0.372626 0.086514
Si Si6 0.713668 0.924256 0.047354
O O1 0.142097 0.783985 0.726794
O O2 0.127825 0.853450 0.611799
O O3 0.000000 0.850538 0.690770
O O4 0.124253 0.959515 0.706598
O O5 0.750000 0.837678 0.250000
O O6 0.902373 0.871338 0.281987
O O7 0.878329 0.850935 0.160487
O O8 0.834021 0.935821 0.385152
O O9 0.000000 0.965635 0.353822
O O10 0.500000 0.846712 0.972445
O O11 0.402476 0.717416 0.949298
O O12 0.330024 0.844163 0.012070
O O13 0.500000 0.409330 0.082500
O O14 0.682061 0.421247 0.058219
O O15 0.690537 0.000000 0.000000
#
# Coordination Sequence:
#
# PCOD9480878 Si02
#       6
#    16  16  16  16  16  16
#     4   9  19  36  58  87 119 157 195 238 304 365
#     4  11  21  39  62  87 115 157 204 249 301 359
#     4  11  22  37  61  91 126 159 197 255 308 356
#     4   9  18  35  60  86 118 156 192 237 298 361
#     4  10  22  41  61  80 116 166 203 242 299 360
#     4  12  22  35  59  94 123 153 200 251 295 360
#
# _framework density 19.078353
#
# number of rings (size 3 to 8) (size 9 to 14) (size 15 to 20)
#    0.000    1.667    3.333    3.500    0.000    1.667 
#    0.000    0.000    0.000    0.000    0.000    0.000 
#    0.000    0.000    0.000    0.000    0.000    0.000 
#
# Total GULP energy -267603.745034 kJ/mol
# GULP energy per Si atom -5575.078022 kJ/mol
# Density = 1.903493 g / cm^3
# Si number density = 19.078353 Si / 1000 Ang^3
#
#
#
# Elastic Constant Matrix: (Units=GPa)
#
#
# Indices 1 2 3 4 5 6 
#
# 1 97.2699 11.6687 24.0129 0.0000 0.0000 0.0000
# 2 11.6687 56.5431 34.6511 0.0000 0.0000 0.0000
# 3 24.0129 34.6511 62.2000 0.0000 0.0000 0.0000
# 4 0.0000 0.0000 0.0000 26.2326 0.0000 0.0000
# 5 0.0000 0.0000 0.0000 0.0000 20.6994 0.0000
# 6 0.0000 0.0000 0.0000 0.0000 0.0000 23.0367
#
#
#
# Elastic Compliance Matrix: (Units=1/GPa)
#
#
# Indices 1 2 3 4 5 6 
#
# 1 0.011374 0.000522 -0.004682 0.000000 0.000000 0.000000
# 2 0.000522 0.026877 -0.015175 0.000000 0.000000 0.000000
# 3 -0.004682 -0.015175 0.026338 0.000000 0.000000 0.000000
# 4 0.000000 0.000000 0.000000 0.038121 0.000000 0.000000
# 5 0.000000 0.000000 0.000000 0.000000 0.048311 0.000000
# 6 0.000000 0.000000 0.000000 0.000000 0.000000 0.043409
#
#
# Mechanical properties :
#
#
# Convention : Reuss Voigt Hill
#
# Bulk Modulus (GPa) = 38.57950 39.63095 39.10522
# Shear Modulus (GPa) = 20.68350 23.70575 22.19463
#
# Velocity S-wave (km/s) = 3.29619 3.52880 3.41448
# Velocity P-wave (km/s) = 5.89508 6.11728 6.00721
#
# Compressibility (1/GPa) = 0.02592050
#
# Stress axis : x y z
#
# Youngs Moduli (GPa) = 87.92112 37.20612 37.96763
#
# Poissons Ratio (x) = -0.01942 0.17775
# Poissons Ratio (y) = -0.04588 0.57614
# Poissons Ratio (z) = 0.41162 0.56459
#
# Static dielectric constant tensor:
#      x y z
#    x 1.686580 0.000000 0.000000 
#    y 0.000000 1.688190 0.000000 
#    z 0.000000 0.000000 1.646950 
# 
# From -- ./inp_files/39151.got.cif
#   From: 2010.05.17/outbox.cif.g08.bks.cpg/sg64_20_cif.got.tgz:39151.got - 2010.06.03 16:29:19.
