data_PCOD9480001
_publ_section_title
;
Structure prediction by ZEFSAII (Michael W. Deem and Ramdas Pophale) SiO2 
 PCOD9480001
Probable space group: C M C A
;
_chemical_formula_sum "Si O2"
_cell_formula_units_Z 112
_cell_length_a 20.226785
_cell_length_b 25.249745
_cell_length_c 10.938277
_cell_angle_alpha 90.000000
_cell_angle_beta 90.000000
_cell_angle_gamma 90.000000
_cell_volume 5586.409555
_symmetry_space_group_name_H-M "C M C A"
_symmetry_group_IT_number 64
_symmetry_cell_setting 'orthorhombic'
loop_
_space_group_symop_operation_xyz
x,y,z
-x,1/2-y,1/2+z
x,-y,-z
-x,1/2+y,1/2-z
-x,-y,-z
x,1/2+y,1/2-z
-x,y,z
x,1/2-y,1/2+z
1/2+x,1/2+y,z
1/2-x,-y,1/2+z
1/2+x,1/2-y,-z
1/2-x,y,1/2-z
1/2-x,1/2-y,-z
1/2+x,y,1/2-z
1/2-x,1/2+y,z
1/2+x,-y,1/2+z
loop_
_atom_site_type_symbol
_atom_site_label
_atom_site_fract_x
_atom_site_fract_y
_atom_site_fract_z
Si Si1 0.926522 0.346265 0.159514
Si Si2 0.174151 0.593796 0.231651
Si Si3 0.425733 0.551759 0.079759
Si Si4 0.305006 0.191307 0.403984
Si Si5 0.572591 0.164848 0.550055
Si Si6 0.781911 0.688385 0.877290
Si Si7 0.076566 0.562364 0.018631
O O1 0.921982 0.338563 0.304701
O O2 0.859873 0.320290 0.111136
O O3 0.000000 0.326611 0.121284
O O4 0.922612 0.406377 0.110207
O O5 0.250000 0.575948 0.250000
O O6 0.129237 0.558201 0.319337
O O7 0.177259 0.653552 0.289761
O O8 0.133519 0.587795 0.105151
O O9 0.500000 0.549419 0.132338
O O10 0.415920 0.500000 0.000000
O O11 0.421958 0.604856 0.998901
O O12 0.371306 0.197959 0.483617
O O13 0.255053 0.165499 0.503283
O O14 0.274559 0.247937 0.373611
O O15 0.500000 0.185259 0.517529
O O16 0.750000 0.667566 0.750000
O O17 0.000000 0.569086 0.065522
O O18 0.088251 0.500000 0.000000
#
# Coordination Sequence:
#
# PCOD9480001 Si02
#       7
#    16  16  16  16  16  16  16
#     4  10  21  38  59  85 117 152 197 247 298 354
#     4  11  22  38  58  86 124 153 195 253 300 351
#     4   9  19  34  58  84 109 148 193 234 289 353
#     4  10  22  38  61  88 119 158 202 244 300 368
#     4   9  18  35  57  85 117 147 188 248 298 346
#     4  11  21  38  63  88 119 161 202 243 304 374
#     4  10  23  42  64  88 120 167 211 249 304 374
#
# _framework density 20.048655
#
# number of rings (size 3 to 8) (size 9 to 14) (size 15 to 20)
#    0.000    2.000    1.429    1.714    2.000    2.857 
#    0.000    0.714    0.000    0.000    0.000    0.000 
#    0.000    0.000    0.000    0.000    0.000    0.000 
#
# Total GULP energy -312043.689311 kJ/mol
# GULP energy per Si atom -5572.208738 kJ/mol
# Density = 2.000302 g / cm^3
# Si number density = 20.048655 Si / 1000 Ang^3
#
#
#
# Elastic Constant Matrix: (Units=GPa)
#
#
# Indices 1 2 3 4 5 6 
#
# 1 118.0252 2.0160 21.7125 0.0000 0.0000 0.0000
# 2 2.0160 35.1527 10.4101 0.0000 0.0000 0.0000
# 3 21.7125 10.4101 45.9511 0.0000 0.0000 0.0000
# 4 0.0000 0.0000 0.0000 11.8203 0.0000 0.0000
# 5 0.0000 0.0000 0.0000 0.0000 34.0733 0.0000
# 6 0.0000 0.0000 0.0000 0.0000 0.0000 22.0309
#
#
#
# Elastic Compliance Matrix: (Units=1/GPa)
#
#
# Indices 1 2 3 4 5 6 
#
# 1 0.009302 0.000823 -0.004582 0.000000 0.000000 0.000000
# 2 0.000823 0.030566 -0.007314 0.000000 0.000000 0.000000
# 3 -0.004582 -0.007314 0.025584 0.000000 0.000000 0.000000
# 4 0.000000 0.000000 0.000000 0.084600 0.000000 0.000000
# 5 0.000000 0.000000 0.000000 0.000000 0.029349 0.000000
# 6 0.000000 0.000000 0.000000 0.000000 0.000000 0.045391
#
#
# Mechanical properties :
#
#
# Convention : Reuss Voigt Hill
#
# Bulk Modulus (GPa) = 23.09063 29.71182 26.40122
# Shear Modulus (GPa) = 19.12990 24.58425 21.85708
#
# Velocity S-wave (km/s) = 3.09232 3.50555 3.30540
# Velocity P-wave (km/s) = 4.92872 5.58903 5.26923
#
# Compressibility (1/GPa) = 0.04330761
#
# Stress axis : x y z
#
# Youngs Moduli (GPa) = 107.50872 32.71609 39.08686
#
# Poissons Ratio (x) = -0.02694 0.17908
# Poissons Ratio (y) = -0.08852 0.28587
# Poissons Ratio (z) = 0.49257 0.23928
#
# Static dielectric constant tensor:
#      x y z
#    x 1.742950 0.000000 0.000000 
#    y 0.000000 1.679100 0.000000 
#    z 0.000000 0.000000 1.750530 
# 
# From -- ./inp_files/17537.got.cif
#   From: 2010.05.17/outbox.cif.g08.bks.cpg/sg64_9_cif.got.tgz:17537.got - 2010.06.03 16:29:19.
