data_PCOD9480057
_publ_section_title
;
Structure prediction by ZEFSAII (Michael W. Deem and Ramdas Pophale) SiO2 
 PCOD9480057
Probable space group: C M C A
;
_chemical_formula_sum "Si O2"
_cell_formula_units_Z 96
_cell_length_a 8.743517
_cell_length_b 20.148823
_cell_length_c 29.818508
_cell_angle_alpha 90.000000
_cell_angle_beta 90.000000
_cell_angle_gamma 90.000000
_cell_volume 5253.173561
_symmetry_space_group_name_H-M "C M C A"
_symmetry_group_IT_number 64
_symmetry_cell_setting 'orthorhombic'
loop_
_space_group_symop_operation_xyz
x,y,z
-x,1/2-y,1/2+z
x,-y,-z
-x,1/2+y,1/2-z
-x,-y,-z
x,1/2+y,1/2-z
-x,y,z
x,1/2-y,1/2+z
1/2+x,1/2+y,z
1/2-x,-y,1/2+z
1/2+x,1/2-y,-z
1/2-x,y,1/2-z
1/2-x,1/2-y,-z
1/2+x,y,1/2-z
1/2-x,1/2+y,z
1/2+x,-y,1/2+z
loop_
_atom_site_type_symbol
_atom_site_label
_atom_site_fract_x
_atom_site_fract_y
_atom_site_fract_z
Si Si1 0.323058 0.562227 0.033599
Si Si2 0.816399 0.008880 0.374591
Si Si3 0.684445 0.257340 0.299266
Si Si4 0.186255 0.855156 0.378550
Si Si5 0.183377 0.316635 0.021031
Si Si6 0.816600 0.604224 0.299219
O O1 0.500000 0.579885 0.042491
O O2 0.242702 0.540439 0.079270
O O3 0.319451 0.500000 0.000000
O O4 0.239407 0.622450 0.009194
O O5 0.750724 0.052526 0.334327
O O6 0.000000 0.010218 0.373595
O O7 0.766456 0.931714 0.372428
O O8 0.500000 0.260759 0.296762
O O9 0.750000 0.272673 0.250000
O O10 0.737108 0.307758 0.337938
O O11 0.725052 0.180861 0.310611
O O12 0.234739 0.828911 0.427493
O O13 0.000000 0.854324 0.378416
O O14 0.000000 0.313812 0.020995
O O15 0.250000 0.250000 0.000000
O O16 0.750000 0.590958 0.250000
O O17 0.000000 0.599701 0.298514
#
# Coordination Sequence:
#
# PCOD9480057 Si02
#       6
#    16  16  16  16  16  16
#     4  11  23  40  61  86 120 159 202 249 297 352
#     4  11  22  38  61  88 119 156 199 243 298 362
#     4   9  19  38  60  83 112 150 190 235 290 348
#     4   9  20  38  59  83 117 155 191 237 296 352
#     4  11  23  40  61  88 121 159 200 246 299 357
#     4  10  21  38  61  87 118 153 195 245 298 357
#
# _framework density 18.274667000000001
#
# number of rings (size 3 to 8) (size 9 to 14) (size 15 to 20)
#    0.000    1.833    1.667    2.000    2.333    2.000 
#    0.000    5.000    0.000    0.000    0.000    0.000 
#    0.000    0.000    0.000    0.000    0.000    0.000 
#
# Total GULP energy -268109.714914 kJ/mol
# GULP energy per Si atom -5585.619061 kJ/mol
# Density = 1.823307 g / cm^3
# Si number density = 18.274667 Si / 1000 Ang^3
#
#
#
# Elastic Constant Matrix: (Units=GPa)
#
#
# Indices 1 2 3 4 5 6 
#
# 1 61.9298 50.6120 51.3771 0.0000 0.0000 0.0000
# 2 50.6120 160.6183 130.1213 0.0000 0.0000 0.0000
# 3 51.3771 130.1213 180.6419 0.0000 0.0000 0.0000
# 4 0.0000 0.0000 0.0000 41.0342 0.0000 0.0000
# 5 0.0000 0.0000 0.0000 0.0000 33.2161 0.0000
# 6 0.0000 0.0000 0.0000 0.0000 0.0000 24.2906
#
#
#
# Elastic Compliance Matrix: (Units=1/GPa)
#
#
# Indices 1 2 3 4 5 6 
#
# 1 0.022446 -0.004565 -0.003096 0.000000 0.000000 0.000000
# 2 -0.004565 0.015879 -0.010140 0.000000 0.000000 0.000000
# 3 -0.003096 -0.010140 0.013720 0.000000 0.000000 0.000000
# 4 0.000000 0.000000 0.000000 0.024370 0.000000 0.000000
# 5 0.000000 0.000000 0.000000 0.000000 0.030106 0.000000
# 6 0.000000 0.000000 0.000000 0.000000 0.000000 0.041168
#
#
# Mechanical properties :
#
#
# Convention : Reuss Voigt Hill
#
# Bulk Modulus (GPa) = 60.81062 96.37900 78.59481
# Shear Modulus (GPa) = 26.48710 31.11349 28.80030
#
# Velocity S-wave (km/s) = 3.81121 4.13067 3.97415
# Velocity P-wave (km/s) = 7.26053 8.69503 8.00996
#
# Compressibility (1/GPa) = 0.01644450
#
# Stress axis : x y z
#
# Youngs Moduli (GPa) = 44.55074 62.97729 72.88608
#
# Poissons Ratio (x) = 0.28750 0.22563
# Poissons Ratio (y) = 0.20338 0.73903
# Poissons Ratio (z) = 0.13791 0.63856
#
# Static dielectric constant tensor:
#      x y z
#    x 1.620030 0.000000 0.000000 
#    y 0.000000 1.671510 0.000000 
#    z 0.000000 0.000000 1.584490 
# 
# From -- ./inp_files/48129.got.cif
#   From: 2010.05.17/outbox.cif.g08.bks.cpg/sg64_25_cif.got.tgz:48129.got - 2010.06.03 16:29:19.
