data_PCOD9480636
_publ_section_title
;
Structure prediction by ZEFSAII (Michael W. Deem and Ramdas Pophale) SiO2 
 PCOD9480636
Probable space group: C M C A
;
_chemical_formula_sum "Si O2"
_cell_formula_units_Z 56
_cell_length_a 11.873784
_cell_length_b 8.776467
_cell_length_c 23.411852
_cell_angle_alpha 90.000000
_cell_angle_beta 90.000000
_cell_angle_gamma 90.000000
_cell_volume 2439.746134
_symmetry_space_group_name_H-M "C M C A"
_symmetry_group_IT_number 64
_symmetry_cell_setting 'orthorhombic'
loop_
_space_group_symop_operation_xyz
x,y,z
-x,1/2-y,1/2+z
x,-y,-z
-x,1/2+y,1/2-z
-x,-y,-z
x,1/2+y,1/2-z
-x,y,z
x,1/2-y,1/2+z
1/2+x,1/2+y,z
1/2-x,-y,1/2+z
1/2+x,1/2-y,-z
1/2-x,y,1/2-z
1/2-x,1/2-y,-z
1/2+x,y,1/2-z
1/2-x,1/2+y,z
1/2+x,-y,1/2+z
loop_
_atom_site_type_symbol
_atom_site_label
_atom_site_fract_x
_atom_site_fract_y
_atom_site_fract_z
Si Si1 0.633568 0.559557 0.937481
Si Si2 0.500000 0.387436 0.337427
Si Si3 0.500000 0.391130 0.748427
Si Si4 0.718609 0.771573 0.627764
Si Si5 0.250000 0.876592 0.750000
O O1 0.500000 0.575653 0.936556
O O2 0.670713 0.433250 0.891632
O O3 0.693122 0.712978 0.918004
O O4 0.666875 0.500000 0.000000
O O5 0.500000 0.271413 0.281406
O O6 0.500000 0.562259 0.318194
O O7 0.612488 0.342971 0.370302
O O8 0.627509 0.453643 0.761979
O O9 0.766880 0.781286 0.691930
#
# Coordination Sequence:
#
# PCOD9480636 Si02
#       5
#    16   8   8  16   8
#     4  11  25  46  71  97 134 183 232 286 340 398
#     4  10  22  40  62  92 136 174 218 274 337 398
#     4  10  22  38  58  92 133 178 219 262 333 416
#     4  11  23  45  68 100 138 173 226 286 335 418
#     4  10  24  40  66 100 136 178 220 274 352 412
#
# _framework density 22.953209000000001
#
# number of rings (size 3 to 8) (size 9 to 14) (size 15 to 20)
#    0.000    1.429    1.429    2.571    2.000   14.857 
#    2.571    0.714    0.000    0.000    0.000    0.000 
#    0.000    0.000    0.000    0.000    0.000    0.000 
#
# Total GULP energy -156144.055974 kJ/mol
# GULP energy per Si atom -5576.573428 kJ/mol
# Density = 2.290097 g / cm^3
# Si number density = 22.953209 Si / 1000 Ang^3
#
#
#
# Elastic Constant Matrix: (Units=GPa)
#
#
# Indices 1 2 3 4 5 6 
#
# 1 134.9683 35.0734 29.5286 0.0000 0.0000 0.0000
# 2 35.0734 -16.3526 -5.8503 0.0000 0.0000 0.0000
# 3 29.5286 -5.8503 84.8990 0.0000 0.0000 0.0000
# 4 0.0000 0.0000 0.0000 38.2280 0.0000 0.0000
# 5 0.0000 0.0000 0.0000 0.0000 36.0220 0.0000
# 6 0.0000 0.0000 0.0000 0.0000 0.0000 -5.8939
#
#
#
# Elastic Compliance Matrix: (Units=1/GPa)
#
#
# Indices 1 2 3 4 5 6 
#
# 1 0.004834 0.010705 -0.000944 0.000000 0.000000 0.000000
# 2 0.010705 -0.035973 -0.006202 0.000000 0.000000 0.000000
# 3 -0.000944 -0.006202 0.011679 0.000000 0.000000 0.000000
# 4 0.000000 0.000000 0.000000 0.026159 0.000000 0.000000
# 5 0.000000 0.000000 0.000000 0.000000 0.027761 0.000000
# 6 0.000000 0.000000 0.000000 0.000000 0.000000 -0.169667
#
#
# Mechanical properties :
#
#
# Convention : Reuss Voigt Hill
#
# Bulk Modulus (GPa) = -81.02958 35.66867 -22.68045
# Shear Modulus (GPa) = -34.14371 23.32209 -5.41081
#
# Velocity S-wave (km/s) = -3.86104 3.19104 -1.53702
# Velocity P-wave (km/s) = 7.43341 5.39912 3.61283
#
# Compressibility (1/GPa) = -0.01234117
#
# Stress axis : x y z
#
# Youngs Moduli (GPa) = 206.87989 -27.79863 85.62020
#
# Poissons Ratio (x) = 0.29758 0.08079
# Poissons Ratio (y) = -2.21465 0.53103
# Poissons Ratio (z) = 0.19520 -0.17241
#
# Static dielectric constant tensor:
#      x y z
#    x 1.897180 0.000000 0.000000 
#    y 0.000000 1.897920 0.000000 
#    z 0.000000 0.000000 1.867890 
# 
# From -- ./inp_files/48975.got.cif
#   From: 2010.05.17/outbox.cif.g08.bks.cpg/sg64_25_cif.got.tgz:48975.got - 2010.06.03 16:29:19.
