data_PCOD9480019
_publ_section_title
;
Structure prediction by ZEFSAII (Michael W. Deem and Ramdas Pophale) SiO2 
 PCOD9480019
Probable space group: C M C A
;
_chemical_formula_sum "Si O2"
_cell_formula_units_Z 120
_cell_length_a 20.628437
_cell_length_b 14.512899
_cell_length_c 19.138149
_cell_angle_alpha 90.000000
_cell_angle_beta 90.000000
_cell_angle_gamma 90.000000
_cell_volume 5729.548861
_symmetry_space_group_name_H-M "C M C A"
_symmetry_group_IT_number 64
_symmetry_cell_setting 'orthorhombic'
loop_
_space_group_symop_operation_xyz
x,y,z
-x,1/2-y,1/2+z
x,-y,-z
-x,1/2+y,1/2-z
-x,-y,-z
x,1/2+y,1/2-z
-x,y,z
x,1/2-y,1/2+z
1/2+x,1/2+y,z
1/2-x,-y,1/2+z
1/2+x,1/2-y,-z
1/2-x,y,1/2-z
1/2-x,1/2-y,-z
1/2+x,y,1/2-z
1/2-x,1/2+y,z
1/2+x,-y,1/2+z
loop_
_atom_site_type_symbol
_atom_site_label
_atom_site_fract_x
_atom_site_fract_y
_atom_site_fract_z
Si Si1 0.137892 0.707305 0.192935
Si Si2 0.859955 0.254063 0.643704
Si Si3 0.197052 0.533783 0.134720
Si Si4 0.072922 0.313740 0.947274
Si Si5 0.814867 0.813071 0.992628
Si Si6 0.573671 0.081020 0.915437
Si Si7 0.234240 0.500000 0.500000
Si Si8 0.734054 0.357190 0.170849
O O1 0.126878 0.715931 0.276325
O O2 0.189807 0.625909 0.178861
O O3 0.083520 0.677083 0.136285
O O4 0.166451 0.804456 0.164671
O O5 0.842463 0.331304 0.586205
O O6 0.915304 0.183585 0.617657
O O7 0.794021 0.193504 0.633892
O O8 0.128689 0.480374 0.122606
O O9 0.251523 0.464747 0.163746
O O10 0.221642 0.551196 0.056590
O O11 0.000000 0.280938 0.959514
O O12 0.127988 0.245156 0.973150
O O13 0.081099 0.400442 0.000731
O O14 0.804307 0.912238 0.029056
O O15 0.750000 0.750000 0.000000
O O16 0.500000 0.049067 0.902633
O O17 0.750000 0.333872 0.250000
#
# Coordination Sequence:
#
# PCOD9480019 Si02
#       8
#    16  16  16  16  16  16   8  16
#     4  11  21  35  55  84 117 149 191 244 301 359
#     4   9  19  35  56  79 110 150 190 240 293 349
#     4  11  21  33  53  83 114 147 188 240 295 350
#     4  10  21  38  60  83 113 156 199 245 301 364
#     4  11  21  39  61  86 119 156 201 247 296 358
#     4   9  19  37  57  77 109 154 198 239 294 359
#     4  12  22  32  56  86 114 152 194 240 292 346
#     4   9  19  34  51  75 109 145 181 225 283 347
#
# _framework density 20.944056
#
# number of rings (size 3 to 8) (size 9 to 14) (size 15 to 20)
#    0.000    1.867    0.000    6.400    0.000    3.733 
#    0.000    3.333    0.000    0.000    0.000    0.000 
#    0.000    0.000    0.000    0.000    0.000    0.000 
#
# Total GULP energy -334031.424493 kJ/mol
# GULP energy per Si atom -5567.190408 kJ/mol
# Density = 2.089639 g / cm^3
# Si number density = 20.944056 Si / 1000 Ang^3
#
#
#
# Elastic Constant Matrix: (Units=GPa)
#
#
# Indices 1 2 3 4 5 6 
#
# 1 85.9387 31.5446 26.0359 0.0000 0.0000 0.0000
# 2 31.5446 92.3758 18.9585 0.0000 0.0000 0.0000
# 3 26.0359 18.9585 116.1545 0.0000 0.0000 0.0000
# 4 0.0000 0.0000 0.0000 26.0481 0.0000 0.0000
# 5 0.0000 0.0000 0.0000 0.0000 23.4266 0.0000
# 6 0.0000 0.0000 0.0000 0.0000 0.0000 24.8205
#
#
#
# Elastic Compliance Matrix: (Units=1/GPa)
#
#
# Indices 1 2 3 4 5 6 
#
# 1 0.013936 -0.004260 -0.002428 0.000000 0.000000 0.000000
# 2 -0.004260 0.012503 -0.001086 0.000000 0.000000 0.000000
# 3 -0.002428 -0.001086 0.009331 0.000000 0.000000 0.000000
# 4 0.000000 0.000000 0.000000 0.038391 0.000000 0.000000
# 5 0.000000 0.000000 0.000000 0.000000 0.042686 0.000000
# 6 0.000000 0.000000 0.000000 0.000000 0.000000 0.040289
#
#
# Mechanical properties :
#
#
# Convention : Reuss Voigt Hill
#
# Bulk Modulus (GPa) = 49.45467 49.72745 49.59106
# Shear Modulus (GPa) = 27.86682 29.38771 28.62727
#
# Velocity S-wave (km/s) = 3.65161 3.74993 3.70110
# Velocity P-wave (km/s) = 6.43762 6.52256 6.48023
#
# Compressibility (1/GPa) = 0.02022054
#
# Stress axis : x y z
#
# Youngs Moduli (GPa) = 71.75816 79.98061 107.17268
#
# Poissons Ratio (x) = 0.34075 0.26025
# Poissons Ratio (y) = 0.30572 0.11636
# Poissons Ratio (z) = 0.17425 0.08684
#
# Static dielectric constant tensor:
#      x y z
#    x 1.796430 0.000000 0.000000 
#    y 0.000000 1.821760 0.000000 
#    z 0.000000 0.000000 1.973860 
# 
# From -- ./inp_files/41059.got.cif
#   From: 2010.05.17/outbox.cif.g08.bks.cpg/sg64_21_cif.got.tgz:41059.got - 2010.06.03 16:29:19.
