data_PCOD9480051
_publ_section_title
;
Structure prediction by ZEFSAII (Michael W. Deem and Ramdas Pophale) SiO2 
 PCOD9480051
Probable space group: C M C A
;
_chemical_formula_sum "Si O2"
_cell_formula_units_Z 64
_cell_length_a 15.216351
_cell_length_b 14.788043
_cell_length_c 14.750483
_cell_angle_alpha 90.000000
_cell_angle_beta 90.000000
_cell_angle_gamma 90.000000
_cell_volume 3319.154465
_symmetry_space_group_name_H-M "C M C A"
_symmetry_group_IT_number 64
_symmetry_cell_setting 'orthorhombic'
loop_
_space_group_symop_operation_xyz
x,y,z
-x,1/2-y,1/2+z
x,-y,-z
-x,1/2+y,1/2-z
-x,-y,-z
x,1/2+y,1/2-z
-x,y,z
x,1/2-y,1/2+z
1/2+x,1/2+y,z
1/2-x,-y,1/2+z
1/2+x,1/2-y,-z
1/2-x,y,1/2-z
1/2-x,1/2-y,-z
1/2+x,y,1/2-z
1/2-x,1/2+y,z
1/2+x,-y,1/2+z
loop_
_atom_site_type_symbol
_atom_site_label
_atom_site_fract_x
_atom_site_fract_y
_atom_site_fract_z
Si Si1 0.744860 0.605108 0.020623
Si Si2 0.602647 0.562403 0.343874
Si Si3 0.181041 0.363677 0.169271
Si Si4 0.101938 0.172227 0.159859
O O1 0.832737 0.605583 0.082047
O O2 0.665611 0.645375 0.078085
O O3 0.725074 0.500000 0.000000
O O4 0.766014 0.649984 0.924607
O O5 0.500000 0.575001 0.365964
O O6 0.625956 0.456075 0.339859
O O7 0.620485 0.608601 0.246686
O O8 0.250000 0.374947 0.250000
O O9 0.122335 0.275681 0.185709
O O10 0.000000 0.161691 0.135611
#
# Coordination Sequence:
#
# PCOD9480051 Si02
#       4
#    16  16  16  16
#     4  10  21  38  61  85 115 154 191 239 293 345
#     4  10  21  38  61  88 118 152 193 241 292 348
#     4  11  22  38  60  85 118 157 196 239 290 345
#     4  11  23  39  60  87 119 154 195 240 288 345
#
# _framework density 19.282019999999999
#
# number of rings (size 3 to 8) (size 9 to 14) (size 15 to 20)
#    0.000    1.500    0.000    6.750    0.000    6.000 
#    0.000    5.000    0.000    0.000    0.000    0.000 
#    0.000    0.000    0.000    0.000    0.000    0.000 
#
# Total GULP energy -178920.213690 kJ/mol
# GULP energy per Si atom -5591.256678 kJ/mol
# Density = 1.923813 g / cm^3
# Si number density = 19.282020 Si / 1000 Ang^3
#
#
#
# Elastic Constant Matrix: (Units=GPa)
#
#
# Indices 1 2 3 4 5 6 
#
# 1 102.1166 20.5094 68.6966 0.0000 0.0000 0.0000
# 2 20.5094 45.7401 22.4536 0.0000 0.0000 0.0000
# 3 68.6966 22.4536 111.8937 0.0000 0.0000 0.0000
# 4 0.0000 0.0000 0.0000 -14.2514 0.0000 0.0000
# 5 0.0000 0.0000 0.0000 0.0000 17.2207 0.0000
# 6 0.0000 0.0000 0.0000 0.0000 0.0000 22.0948
#
#
#
# Elastic Compliance Matrix: (Units=1/GPa)
#
#
# Indices 1 2 3 4 5 6 
#
# 1 0.016994 -0.002771 -0.009877 0.000000 0.000000 0.000000
# 2 -0.002771 0.024704 -0.003256 0.000000 0.000000 0.000000
# 3 -0.009877 -0.003256 0.015655 0.000000 0.000000 0.000000
# 4 0.000000 0.000000 0.000000 -0.070169 0.000000 0.000000
# 5 0.000000 0.000000 0.000000 0.000000 0.058070 0.000000
# 6 0.000000 0.000000 0.000000 0.000000 0.000000 0.045260
#
#
# Mechanical properties :
#
#
# Convention : Reuss Voigt Hill
#
# Bulk Modulus (GPa) = 39.14921 53.67443 46.41182
# Shear Modulus (GPa) = 38.21584 14.88555 26.55069
#
# Velocity S-wave (km/s) = 4.45673 2.78149 3.71478
# Velocity P-wave (km/s) = 6.84330 6.18163 6.52086
#
# Compressibility (1/GPa) = 0.02554330
#
# Stress axis : x y z
#
# Youngs Moduli (GPa) = 58.84418 40.48008 63.87929
#
# Poissons Ratio (x) = 0.11218 0.63096
# Poissons Ratio (y) = 0.16307 0.20798
# Poissons Ratio (z) = 0.58122 0.13180
#
# Static dielectric constant tensor:
#      x y z
#    x 1.637460 0.000000 0.000000 
#    y 0.000000 1.675200 0.000000 
#    z 0.000000 0.000000 1.655280 
# 
# From -- ./inp_files/14023.got.cif
#   From: 2010.05.17/outbox.cif.g08.bks.cpg/sg64_8_cif.got.tgz:14023.got - 2010.06.03 16:29:19.
