data_PCOD9480780
_publ_section_title
;
Structure prediction by ZEFSAII (Michael W. Deem and Ramdas Pophale) SiO2 
 PCOD9480780
Probable space group: C M C A
;
_chemical_formula_sum "Si O2"
_cell_formula_units_Z 88
_cell_length_a 17.864999
_cell_length_b 19.929114
_cell_length_c 12.924589
_cell_angle_alpha 90.000000
_cell_angle_beta 90.000000
_cell_angle_gamma 90.000000
_cell_volume 4601.587972
_symmetry_space_group_name_H-M "C M C A"
_symmetry_group_IT_number 64
_symmetry_cell_setting 'orthorhombic'
loop_
_space_group_symop_operation_xyz
x,y,z
-x,1/2-y,1/2+z
x,-y,-z
-x,1/2+y,1/2-z
-x,-y,-z
x,1/2+y,1/2-z
-x,y,z
x,1/2-y,1/2+z
1/2+x,1/2+y,z
1/2-x,-y,1/2+z
1/2+x,1/2-y,-z
1/2-x,y,1/2-z
1/2-x,1/2-y,-z
1/2+x,y,1/2-z
1/2-x,1/2+y,z
1/2+x,-y,1/2+z
loop_
_atom_site_type_symbol
_atom_site_label
_atom_site_fract_x
_atom_site_fract_y
_atom_site_fract_z
Si Si1 0.411878 0.098675 0.274449
Si Si2 0.326775 0.853563 0.315927
Si Si3 0.294216 0.612452 0.044348
Si Si4 0.809629 0.000000 0.500000
Si Si5 0.413327 0.548324 0.675641
Si Si6 0.811570 0.199710 0.341510
O O1 0.500000 0.111094 0.289099
O O2 0.364019 0.112812 0.378028
O O3 0.376693 0.147604 0.187568
O O4 0.402515 0.021747 0.237646
O O5 0.250000 0.857893 0.250000
O O6 0.318116 0.890090 0.425609
O O7 0.388808 0.890105 0.247365
O O8 0.340440 0.775472 0.341891
O O9 0.243649 0.547537 0.067421
O O10 0.237365 0.674748 0.061471
O O11 0.861327 0.956170 0.425121
O O12 0.500000 0.552939 0.646072
O O13 0.750000 0.195151 0.250000
#
# Coordination Sequence:
#
# PCOD9480780 Si02
#       6
#    16  16  16   8  16  16
#     4  10  22  40  60  87 123 162 200 245 307 370
#     4  11  22  38  61  91 122 158 205 257 306 364
#     4  11  21  36  65  92 121 158 208 256 308 366
#     4  12  21  38  67  92 122 164 214 258 311 370
#     4  11  24  40  60  89 126 161 203 258 312 368
#     4   9  20  38  62  87 121 162 202 246 304 369
#
# _framework density 19.123832
#
# number of rings (size 3 to 8) (size 9 to 14) (size 15 to 20)
#    0.000    1.455    3.636    1.909    0.000    1.455 
#    0.000    2.273    0.000    0.000    0.000    0.000 
#    0.000    0.000    0.000    0.000    0.000    0.000 
#
# Total GULP energy -245648.706223 kJ/mol
# GULP energy per Si atom -5582.925141 kJ/mol
# Density = 1.908031 g / cm^3
# Si number density = 19.123832 Si / 1000 Ang^3
#
#
#
# Elastic Constant Matrix: (Units=GPa)
#
#
# Indices 1 2 3 4 5 6 
#
# 1 110.2244 39.1781 26.8096 0.0000 0.0000 0.0000
# 2 39.1781 71.4001 -19.4716 0.0000 0.0000 0.0000
# 3 26.8096 -19.4716 54.6853 0.0000 0.0000 0.0000
# 4 0.0000 0.0000 0.0000 26.4010 0.0000 0.0000
# 5 0.0000 0.0000 0.0000 0.0000 23.7576 0.0000
# 6 0.0000 0.0000 0.0000 0.0000 0.0000 19.3648
#
#
#
# Elastic Compliance Matrix: (Units=1/GPa)
#
#
# Indices 1 2 3 4 5 6 
#
# 1 0.016596 -0.012543 -0.012603 0.000000 0.000000 0.000000
# 2 -0.012543 0.024992 0.015048 0.000000 0.000000 0.000000
# 3 -0.012603 0.015048 0.029823 0.000000 0.000000 0.000000
# 4 0.000000 0.000000 0.000000 0.037877 0.000000 0.000000
# 5 0.000000 0.000000 0.000000 0.000000 0.042092 0.000000
# 6 0.000000 0.000000 0.000000 0.000000 0.000000 0.051640
#
#
# Mechanical properties :
#
#
# Convention : Reuss Voigt Hill
#
# Bulk Modulus (GPa) = 19.52512 36.59355 28.05934
# Shear Modulus (GPa) = 20.80836 26.55757 23.68297
#
# Velocity S-wave (km/s) = 3.30219 3.73059 3.52291
# Velocity P-wave (km/s) = 4.97708 6.14272 5.59036
#
# Compressibility (1/GPa) = 0.05121606
#
# Stress axis : x y z
#
# Youngs Moduli (GPa) = 60.25515 40.01259 33.53109
#
# Poissons Ratio (x) = 0.50189 0.42258
# Poissons Ratio (y) = 0.75580 -0.50459
# Poissons Ratio (z) = 0.75937 -0.60212
#
# Static dielectric constant tensor:
#      x y z
#    x 1.636330 0.000000 0.000000 
#    y 0.000000 1.697390 0.000000 
#    z 0.000000 0.000000 1.653840 
# 
# From -- ./inp_files/25409.got.cif
#   From: 2010.05.17/outbox.cif.g08.bks.cpg/sg64_13_cif.got.tgz:25409.got - 2010.06.03 16:29:19.
