data_PCOD9480882
_publ_section_title
;
Structure prediction by ZEFSAII (Michael W. Deem and Ramdas Pophale) SiO2 
 PCOD9480882
Probable space group: C M C A
;
_chemical_formula_sum "Si O2"
_cell_formula_units_Z 104
_cell_length_a 22.906176
_cell_length_b 24.379038
_cell_length_c 9.355611
_cell_angle_alpha 90.000000
_cell_angle_beta 90.000000
_cell_angle_gamma 90.000000
_cell_volume 5224.458857
_symmetry_space_group_name_H-M "C M C A"
_symmetry_group_IT_number 64
_symmetry_cell_setting 'orthorhombic'
loop_
_space_group_symop_operation_xyz
x,y,z
-x,1/2-y,1/2+z
x,-y,-z
-x,1/2+y,1/2-z
-x,-y,-z
x,1/2+y,1/2-z
-x,y,z
x,1/2-y,1/2+z
1/2+x,1/2+y,z
1/2-x,-y,1/2+z
1/2+x,1/2-y,-z
1/2-x,y,1/2-z
1/2-x,1/2-y,-z
1/2+x,y,1/2-z
1/2-x,1/2+y,z
1/2+x,-y,1/2+z
loop_
_atom_site_type_symbol
_atom_site_label
_atom_site_fract_x
_atom_site_fract_y
_atom_site_fract_z
Si Si1 0.000000 0.636430 0.169167
Si Si2 0.110036 0.414882 0.324723
Si Si3 0.000000 0.741267 0.627481
Si Si4 0.809493 0.485241 0.665717
Si Si5 0.181413 0.693116 0.724745
Si Si6 0.391111 0.387364 0.852419
Si Si7 0.378666 0.234424 0.455669
Si Si8 0.500000 0.866811 0.172657
O O1 0.000000 0.701080 0.210419
O O2 0.942840 0.609229 0.237969
O O3 0.000000 0.638027 0.997790
O O4 0.139282 0.472696 0.291241
O O5 0.159343 0.368171 0.306920
O O6 0.089739 0.409565 0.490387
O O7 0.056841 0.399282 0.224295
O O8 0.057804 0.739286 0.529139
O O9 0.000000 0.690659 0.738578
O O10 0.798605 0.500000 0.500000
O O11 0.750000 0.493056 0.750000
O O12 0.835318 0.424348 0.684020
O O13 0.250000 0.694806 0.750000
O O14 0.141936 0.717148 0.853063
O O15 0.165865 0.729097 0.586676
O O16 0.376703 0.323249 0.871759
#
# Coordination Sequence:
#
# PCOD9480882 Si02
#       8
#     8  16   8  16  16  16  16   8
#     4  12  26  36  64  98 129 168 209 266 332 385
#     4  10  22  42  66  91 124 174 218 261 329 401
#     4  12  23  40  64  91 136 171 218 264 331 401
#     4  10  23  44  70  94 125 173 222 270 328 388
#     4  11  22  38  60  91 128 167 217 268 322 395
#     4  10  22  41  61  91 129 165 208 266 323 388
#     4  11  23  39  63  91 129 171 214 267 332 396
#     4  12  23  40  64  94 124 164 215 267 325 392
#
# _framework density 19.906369000000002
#
# number of rings (size 3 to 8) (size 9 to 14) (size 15 to 20)
#    0.000    1.231    3.077    3.692    2.154    2.462 
#    0.000    9.231    0.000    0.000    0.000    0.000 
#    0.000    0.000    0.000    0.000    0.000    0.000 
#
# Total GULP energy -290739.792635 kJ/mol
# GULP energy per Si atom -5591.149858 kJ/mol
# Density = 1.986106 g / cm^3
# Si number density = 19.906369 Si / 1000 Ang^3
#
#
#
# Elastic Constant Matrix: (Units=GPa)
#
#
# Indices 1 2 3 4 5 6 
#
# 1 127.8124 34.8630 66.8865 0.0000 0.0000 0.0000
# 2 34.8630 61.5898 18.1093 0.0000 0.0000 0.0000
# 3 66.8865 18.1093 103.0190 0.0000 0.0000 0.0000
# 4 0.0000 0.0000 0.0000 19.0731 0.0000 0.0000
# 5 0.0000 0.0000 0.0000 0.0000 32.4240 0.0000
# 6 0.0000 0.0000 0.0000 0.0000 0.0000 14.1280
#
#
#
# Elastic Compliance Matrix: (Units=1/GPa)
#
#
# Indices 1 2 3 4 5 6 
#
# 1 0.013290 -0.005257 -0.007704 0.000000 0.000000 0.000000
# 2 -0.005257 0.019201 0.000038 0.000000 0.000000 0.000000
# 3 -0.007704 0.000038 0.014702 0.000000 0.000000 0.000000
# 4 0.000000 0.000000 0.000000 0.052430 0.000000 0.000000
# 5 0.000000 0.000000 0.000000 0.000000 0.030841 0.000000
# 6 0.000000 0.000000 0.000000 0.000000 0.000000 0.070781
#
#
# Mechanical properties :
#
#
# Convention : Reuss Voigt Hill
#
# Bulk Modulus (GPa) = 46.84697 59.12656 52.98677
# Shear Modulus (GPa) = 21.34847 24.62920 22.98883
#
# Velocity S-wave (km/s) = 3.27837 3.52128 3.40199
# Velocity P-wave (km/s) = 6.15752 6.80436 6.48900
#
# Compressibility (1/GPa) = 0.02134610
#
# Stress axis : x y z
#
# Youngs Moduli (GPa) = 75.24505 52.08006 68.01577
#
# Poissons Ratio (x) = 0.27381 0.52403
# Poissons Ratio (y) = 0.39560 -0.00260
# Poissons Ratio (z) = 0.57972 -0.00199
#
# Static dielectric constant tensor:
#      x y z
#    x 1.679830 0.000000 0.000000 
#    y 0.000000 1.698500 0.000000 
#    z 0.000000 0.000000 1.716650 
# 
# From -- ./inp_files/8580.got.cif
#   From: 2010.05.17/outbox.cif.g08.bks.cpg/sg64_5_cif.got.tgz:8580.got - 2010.06.03 16:29:19.
