data_PCOD9480375
_publ_section_title
;
Structure prediction by ZEFSAII (Michael W. Deem and Ramdas Pophale) SiO2 
 PCOD9480375
Probable space group: C M C A
;
_chemical_formula_sum "Si O2"
_cell_formula_units_Z 64
_cell_length_a 16.142275
_cell_length_b 8.116309
_cell_length_c 19.260894
_cell_angle_alpha 90.000000
_cell_angle_beta 90.000000
_cell_angle_gamma 90.000000
_cell_volume 2523.479353
_symmetry_space_group_name_H-M "C M C A"
_symmetry_group_IT_number 64
_symmetry_cell_setting 'orthorhombic'
loop_
_space_group_symop_operation_xyz
x,y,z
-x,1/2-y,1/2+z
x,-y,-z
-x,1/2+y,1/2-z
-x,-y,-z
x,1/2+y,1/2-z
-x,y,z
x,1/2-y,1/2+z
1/2+x,1/2+y,z
1/2-x,-y,1/2+z
1/2+x,1/2-y,-z
1/2-x,y,1/2-z
1/2-x,1/2-y,-z
1/2+x,y,1/2-z
1/2-x,1/2+y,z
1/2+x,-y,1/2+z
loop_
_atom_site_type_symbol
_atom_site_label
_atom_site_fract_x
_atom_site_fract_y
_atom_site_fract_z
Si Si1 0.831305 0.565067 0.646795
Si Si2 0.094073 0.735031 0.267305
Si Si3 0.849168 0.746496 0.518187
Si Si4 0.362855 0.067059 0.888638
O O1 0.857865 0.712519 0.698188
O O2 0.859620 0.402585 0.687053
O O3 0.867126 0.593749 0.569036
O O4 0.733617 0.570211 0.633693
O O5 0.092133 0.895596 0.317391
O O6 0.000000 0.688603 0.252658
O O7 0.750000 0.750000 0.500000
O O8 0.886814 0.789387 0.443764
O O9 0.872001 0.900842 0.567644
#
# Coordination Sequence:
#
# PCOD9480375 Si02
#       4
#    16  16  16  16
#     4  11  22  40  64  90 125 171 217 264 316 378
#     4  12  26  42  61  96 137 173 213 265 322 383
#     4   9  19  38  66  97 124 157 212 272 318 371
#     4  10  21  40  67  95 123 163 215 265 316 380
#
# _framework density 25.361806999999999
#
# number of rings (size 3 to 8) (size 9 to 14) (size 15 to 20)
#    0.000    1.500    0.000    6.000    0.000    5.000 
#    0.000    7.500    0.000    0.000    0.000    0.000 
#    0.000    0.000    0.000    0.000    0.000    0.000 
#
# Total GULP energy -178995.174966 kJ/mol
# GULP energy per Si atom -5593.599218 kJ/mol
# Density = 2.530408 g / cm^3
# Si number density = 25.361807 Si / 1000 Ang^3
#
#
#
# Elastic Constant Matrix: (Units=GPa)
#
#
# Indices 1 2 3 4 5 6 
#
# 1 61.1669 16.9389 15.2437 0.0000 0.0000 0.0000
# 2 16.9389 103.2325 37.7790 0.0000 0.0000 0.0000
# 3 15.2437 37.7790 182.0257 0.0000 0.0000 0.0000
# 4 0.0000 0.0000 0.0000 69.4990 0.0000 0.0000
# 5 0.0000 0.0000 0.0000 0.0000 13.8528 0.0000
# 6 0.0000 0.0000 0.0000 0.0000 0.0000 20.4836
#
#
#
# Elastic Compliance Matrix: (Units=1/GPa)
#
#
# Indices 1 2 3 4 5 6 
#
# 1 0.017271 -0.002494 -0.000929 0.000000 0.000000 0.000000
# 2 -0.002494 0.010843 -0.002042 0.000000 0.000000 0.000000
# 3 -0.000929 -0.002042 0.005995 0.000000 0.000000 0.000000
# 4 0.000000 0.000000 0.000000 0.014389 0.000000 0.000000
# 5 0.000000 0.000000 0.000000 0.000000 0.072187 0.000000
# 6 0.000000 0.000000 0.000000 0.000000 0.000000 0.048820
#
#
# Mechanical properties :
#
#
# Convention : Reuss Voigt Hill
#
# Bulk Modulus (GPa) = 43.13953 54.03871 48.58912
# Shear Modulus (GPa) = 26.57304 39.19799 32.88551
#
# Velocity S-wave (km/s) = 3.24042 3.93562 3.60482
# Velocity P-wave (km/s) = 5.57198 6.48116 6.04369
#
# Compressibility (1/GPa) = 0.02318060
#
# Stress axis : x y z
#
# Youngs Moduli (GPa) = 57.90115 92.22325 166.79904
#
# Poissons Ratio (x) = 0.23001 0.15491
# Poissons Ratio (y) = 0.14441 0.34054
# Poissons Ratio (z) = 0.05377 0.18829
#
# Static dielectric constant tensor:
#      x y z
#    x 1.939910 0.000000 0.000000 
#    y 0.000000 1.840170 0.000000 
#    z 0.000000 0.000000 1.930660 
# 
# From -- ./inp_files/39787.got.cif
#   From: 2010.05.17/outbox.cif.g08.bks.cpg/sg64_20_cif.got.tgz:39787.got - 2010.06.03 16:29:19.
