data_PCOD9480298
_publ_section_title
;
Structure prediction by ZEFSAII (Michael W. Deem and Ramdas Pophale) SiO2 
 PCOD9480298
Probable space group: C M C A
;
_chemical_formula_sum "Si O2"
_cell_formula_units_Z 120
_cell_length_a 9.570294
_cell_length_b 25.406832
_cell_length_c 24.680316
_cell_angle_alpha 90.000000
_cell_angle_beta 90.000000
_cell_angle_gamma 90.000000
_cell_volume 6001.039859
_symmetry_space_group_name_H-M "C M C A"
_symmetry_group_IT_number 64
_symmetry_cell_setting 'orthorhombic'
loop_
_space_group_symop_operation_xyz
x,y,z
-x,1/2-y,1/2+z
x,-y,-z
-x,1/2+y,1/2-z
-x,-y,-z
x,1/2+y,1/2-z
-x,y,z
x,1/2-y,1/2+z
1/2+x,1/2+y,z
1/2-x,-y,1/2+z
1/2+x,1/2-y,-z
1/2-x,y,1/2-z
1/2-x,1/2-y,-z
1/2+x,y,1/2-z
1/2-x,1/2+y,z
1/2+x,-y,1/2+z
loop_
_atom_site_type_symbol
_atom_site_label
_atom_site_fract_x
_atom_site_fract_y
_atom_site_fract_z
Si Si1 0.341805 0.868788 0.096077
Si Si2 0.000000 0.717469 0.247663
Si Si3 0.169392 0.060145 0.498010
Si Si4 0.747870 0.198970 0.166480
Si Si5 0.337871 0.511771 0.197059
Si Si6 0.658568 0.751152 0.054229
Si Si7 0.667957 0.085313 0.122771
Si Si8 0.659805 0.384428 0.198602
O O1 0.500000 0.885062 0.113700
O O2 0.352622 0.812353 0.069087
O O3 0.238531 0.865134 0.145923
O O4 0.285415 0.908967 0.051195
O O5 0.879880 0.706989 0.294749
O O6 0.879298 0.723033 0.200195
O O7 0.203296 0.087803 0.441107
O O8 0.000000 0.059497 0.500499
O O9 0.218493 0.000000 0.500000
O O10 0.774885 0.223255 0.106878
O O11 0.711854 0.137480 0.155128
O O12 0.500000 0.529243 0.199326
O O13 0.250000 0.528239 0.250000
O O14 0.253898 0.536653 0.147381
O O15 0.338261 0.448326 0.195851
O O16 0.500000 0.730630 0.045482
O O17 0.750000 0.750000 0.000000
O O18 0.500000 0.077533 0.128070
O O19 0.500000 0.366954 0.203312
O O20 0.750000 0.367471 0.250000
#
# Coordination Sequence:
#
# PCOD9480298 Si02
#       8
#    16   8  16  16  16  16  16  16
#     4  10  21  40  64  89 119 155 200 250 300 357
#     4  10  24  42  66  86 130 166 212 272 334 400
#     4   9  18  34  58  89 121 157 199 248 301 361
#     4  11  23  43  62  94 126 171 213 269 334 392
#     4  10  22  35  55  82 120 159 201 246 300 360
#     4  11  25  44  67  95 127 166 214 263 319 383
#     4  11  22  35  60  90 120 161 211 255 312 375
#     4  10  21  40  59  87 119 157 198 245 297 360
#
# _framework density 19.996535000000002
#
# number of rings (size 3 to 8) (size 9 to 14) (size 15 to 20)
#    0.000    1.733    1.333    2.400    3.733    4.267 
#    2.400    0.667    0.000    2.400    0.000    0.000 
#    0.000    0.000    0.000    0.000    0.000    0.000 
#
# Total GULP energy -334013.653126 kJ/mol
# GULP energy per Si atom -5566.894219 kJ/mol
# Density = 1.995102 g / cm^3
# Si number density = 19.996535 Si / 1000 Ang^3
#
#
#
# Elastic Constant Matrix: (Units=GPa)
#
#
# Indices 1 2 3 4 5 6 
#
# 1 175.4582 14.1783 89.0921 0.0000 0.0000 0.0000
# 2 14.1783 20.5841 8.8810 0.0000 0.0000 0.0000
# 3 89.0921 8.8810 160.0773 0.0000 0.0000 0.0000
# 4 0.0000 0.0000 0.0000 3.1061 0.0000 0.0000
# 5 0.0000 0.0000 0.0000 0.0000 -10.6560 0.0000
# 6 0.0000 0.0000 0.0000 0.0000 0.0000 0.8482
#
#
#
# Elastic Compliance Matrix: (Units=1/GPa)
#
#
# Indices 1 2 3 4 5 6 
#
# 1 0.008222 -0.003779 -0.004366 0.000000 0.000000 0.000000
# 2 -0.003779 0.051510 -0.000754 0.000000 0.000000 0.000000
# 3 -0.004366 -0.000754 0.008719 0.000000 0.000000 0.000000
# 4 0.000000 0.000000 0.000000 0.321946 0.000000 0.000000
# 5 0.000000 0.000000 0.000000 0.000000 -0.093844 0.000000
# 6 0.000000 0.000000 0.000000 0.000000 0.000000 1.178976
#
#
# Mechanical properties :
#
#
# Convention : Reuss Voigt Hill
#
# Bulk Modulus (GPa) = 19.74301 64.49138 42.11719
# Shear Modulus (GPa) = 3.31079 14.92421 9.11750
#
# Velocity S-wave (km/s) = 1.28813 2.73489 2.13762
# Velocity P-wave (km/s) = 3.47951 6.50339 5.21542
#
# Compressibility (1/GPa) = 0.05065083
#
# Stress axis : x y z
#
# Youngs Moduli (GPa) = 121.62811 19.41372 114.69371
#
# Poissons Ratio (x) = 0.07337 0.50078
# Poissons Ratio (y) = 0.45967 0.08652
# Poissons Ratio (z) = 0.53105 0.01464
#
# Static dielectric constant tensor:
#      x y z
#    x 1.699120 0.000000 0.000000 
#    y 0.000000 1.734720 0.000000 
#    z 0.000000 0.000000 1.604410 
# 
# From -- ./inp_files/43351.got.cif
#   From: 2010.05.17/outbox.cif.g08.bks.cpg/sg64_22_cif.got.tgz:43351.got - 2010.06.03 16:29:19.
