data_PCOD9480584
_publ_section_title
;
Structure prediction by ZEFSAII (Michael W. Deem and Ramdas Pophale) SiO2 
 PCOD9480584
Probable space group: C M C A
;
_chemical_formula_sum "Si O2"
_cell_formula_units_Z 72
_cell_length_a 28.655207
_cell_length_b 8.744975
_cell_length_c 13.518895
_cell_angle_alpha 90.000000
_cell_angle_beta 90.000000
_cell_angle_gamma 90.000000
_cell_volume 3387.687310
_symmetry_space_group_name_H-M "C M C A"
_symmetry_group_IT_number 64
_symmetry_cell_setting 'orthorhombic'
loop_
_space_group_symop_operation_xyz
x,y,z
-x,1/2-y,1/2+z
x,-y,-z
-x,1/2+y,1/2-z
-x,-y,-z
x,1/2+y,1/2-z
-x,y,z
x,1/2-y,1/2+z
1/2+x,1/2+y,z
1/2-x,-y,1/2+z
1/2+x,1/2-y,-z
1/2-x,y,1/2-z
1/2-x,1/2-y,-z
1/2+x,y,1/2-z
1/2-x,1/2+y,z
1/2+x,-y,1/2+z
loop_
_atom_site_type_symbol
_atom_site_label
_atom_site_fract_x
_atom_site_fract_y
_atom_site_fract_z
Si Si1 0.812072 0.353269 0.839505
Si Si2 0.872556 0.339368 0.454254
Si Si3 0.403546 0.994312 0.740998
Si Si4 0.554093 0.768724 0.114672
Si Si5 0.250000 0.091714 0.750000
O O1 0.833749 0.291361 0.941264
O O2 0.855028 0.418349 0.775185
O O3 0.772195 0.481807 0.833536
O O4 0.789794 0.202675 0.790567
O O5 0.854902 0.500000 0.500000
O O6 0.892132 0.385771 0.346608
O O7 0.913908 0.276954 0.522200
O O8 0.436992 0.867461 0.693408
O O9 0.426845 0.079270 0.832965
O O10 0.500000 0.780712 0.089116
#
# Coordination Sequence:
#
# PCOD9480584 Si02
#       5
#    16  16  16  16   8
#     4  11  20  43  67 103 129 178 215 276 345 389
#     4  10  23  41  67  97 140 178 216 276 340 394
#     4  11  21  43  70  91 139 184 216 277 341 393
#     4  11  24  41  68 100 133 182 235 276 323 401
#     4  10  22  36  80 100 126 172 234 276 324 422
#
# _framework density 21.253437999999999
#
# number of rings (size 3 to 8) (size 9 to 14) (size 15 to 20)
#    0.000    1.333    4.444    0.667    0.000    5.778 
#    0.000    2.222    0.000    0.000    0.000    0.000 
#    0.000    0.000    0.000    0.000    0.000    0.000 
#
# Total GULP energy -201171.592928 kJ/mol
# GULP energy per Si atom -5588.099804 kJ/mol
# Density = 2.120506 g / cm^3
# Si number density = 21.253438 Si / 1000 Ang^3
#
#
#
# Elastic Constant Matrix: (Units=GPa)
#
#
# Indices 1 2 3 4 5 6 
#
# 1 123.6999 82.6700 47.5749 0.0000 0.0000 0.0000
# 2 82.6700 120.4475 49.2810 0.0000 0.0000 0.0000
# 3 47.5749 49.2810 71.5913 0.0000 0.0000 0.0000
# 4 0.0000 0.0000 0.0000 28.8699 0.0000 0.0000
# 5 0.0000 0.0000 0.0000 0.0000 26.9946 0.0000
# 6 0.0000 0.0000 0.0000 0.0000 0.0000 28.3012
#
#
#
# Elastic Compliance Matrix: (Units=1/GPa)
#
#
# Indices 1 2 3 4 5 6 
#
# 1 0.015802 -0.009117 -0.004225 0.000000 0.000000 0.000000
# 2 -0.009117 0.016818 -0.005518 0.000000 0.000000 0.000000
# 3 -0.004225 -0.005518 0.020574 0.000000 0.000000 0.000000
# 4 0.000000 0.000000 0.000000 0.034638 0.000000 0.000000
# 5 0.000000 0.000000 0.000000 0.000000 0.037044 0.000000
# 6 0.000000 0.000000 0.000000 0.000000 0.000000 0.035334
#
#
# Mechanical properties :
#
#
# Convention : Reuss Voigt Hill
#
# Bulk Modulus (GPa) = 64.62661 74.97674 69.80167
# Shear Modulus (GPa) = 24.61965 25.91400 25.26683
#
# Velocity S-wave (km/s) = 3.40720 3.49561 3.45169
# Velocity P-wave (km/s) = 6.77881 7.18655 6.98565
#
# Compressibility (1/GPa) = 0.01547350
#
# Stress axis : x y z
#
# Youngs Moduli (GPa) = 63.28220 59.46091 48.60421
#
# Poissons Ratio (x) = 0.54212 0.20536
# Poissons Ratio (y) = 0.57696 0.26820
# Poissons Ratio (z) = 0.26738 0.32811
#
# Static dielectric constant tensor:
#      x y z
#    x 1.757470 0.000000 0.000000 
#    y 0.000000 1.801340 0.000000 
#    z 0.000000 0.000000 1.756470 
# 
# From -- ./inp_files/28268.got.cif
#   From: 2010.05.17/outbox.cif.g08.bks.cpg/sg64_15_cif.got.tgz:28268.got - 2010.06.03 16:29:19.
