data_PCOD9480729
_publ_section_title
;
Structure prediction by ZEFSAII (Michael W. Deem and Ramdas Pophale) SiO2 
 PCOD9480729
Probable space group: C M C A
;
_chemical_formula_sum "Si O2"
_cell_formula_units_Z 96
_cell_length_a 14.983338
_cell_length_b 15.043530
_cell_length_c 21.397170
_cell_angle_alpha 90.000000
_cell_angle_beta 90.000000
_cell_angle_gamma 90.000000
_cell_volume 4822.971218
_symmetry_space_group_name_H-M "C M C A"
_symmetry_group_IT_number 64
_symmetry_cell_setting 'orthorhombic'
loop_
_space_group_symop_operation_xyz
x,y,z
-x,1/2-y,1/2+z
x,-y,-z
-x,1/2+y,1/2-z
-x,-y,-z
x,1/2+y,1/2-z
-x,y,z
x,1/2-y,1/2+z
1/2+x,1/2+y,z
1/2-x,-y,1/2+z
1/2+x,1/2-y,-z
1/2-x,y,1/2-z
1/2-x,1/2-y,-z
1/2+x,y,1/2-z
1/2-x,1/2+y,z
1/2+x,-y,1/2+z
loop_
_atom_site_type_symbol
_atom_site_label
_atom_site_fract_x
_atom_site_fract_y
_atom_site_fract_z
Si Si1 0.681936 0.255543 0.442527
Si Si2 0.102945 0.941321 0.441198
Si Si3 0.292911 0.709272 0.815519
Si Si4 0.237168 0.010340 0.667789
Si Si5 0.100853 0.366455 0.775414
Si Si6 0.400883 0.894091 0.630856
O O1 0.750000 0.250000 0.500000
O O2 0.618564 0.338630 0.455516
O O3 0.739167 0.269106 0.378609
O O4 0.620183 0.172448 0.425373
O O5 0.000000 0.960482 0.427988
O O6 0.131542 0.000000 0.500000
O O7 0.164370 0.960805 0.382553
O O8 0.250000 0.739590 0.750000
O O9 0.287709 0.601519 0.810303
O O10 0.378215 0.775221 0.813157
O O11 0.176098 0.942325 0.709984
O O12 0.316791 0.958183 0.634746
O O13 0.099992 0.349812 0.700413
O O14 0.000000 0.397733 0.791056
O O15 0.500000 0.933899 0.623986
#
# Coordination Sequence:
#
# PCOD9480729 Si02
#       6
#    16  16  16  16  16  16
#     4  11  22  39  64  90 126 170 212 264 332 383
#     4  10  22  39  61  92 127 166 219 273 323 390
#     4  11  21  39  65  91 127 172 218 266 322 392
#     4  11  22  39  64  95 132 169 220 271 336 383
#     4  11  22  39  64  97 132 171 218 272 325 386
#     4  11  22  39  64  91 128 169 213 261 324 396
#
# _framework density 19.904743
#
# number of rings (size 3 to 8) (size 9 to 14) (size 15 to 20)
#    0.000    1.167    3.333    3.500    0.000    0.667 
#    0.000    1.667    0.000   10.500    0.000    0.000 
#    0.000    0.000    0.000    0.000    0.000    0.000 
#
# Total GULP energy -267216.204322 kJ/mol
# GULP energy per Si atom -5567.004257 kJ/mol
# Density = 1.985944 g / cm^3
# Si number density = 19.904743 Si / 1000 Ang^3
#
#
#
# Elastic Constant Matrix: (Units=GPa)
#
#
# Indices 1 2 3 4 5 6 
#
# 1 88.0975 35.0749 8.5006 0.0000 0.0000 0.0000
# 2 35.0749 72.2893 12.3980 0.0000 0.0000 0.0000
# 3 8.5006 12.3980 58.8378 0.0000 0.0000 0.0000
# 4 0.0000 0.0000 0.0000 22.0501 0.0000 0.0000
# 5 0.0000 0.0000 0.0000 0.0000 25.0411 0.0000
# 6 0.0000 0.0000 0.0000 0.0000 0.0000 30.7184
#
#
#
# Elastic Compliance Matrix: (Units=1/GPa)
#
#
# Indices 1 2 3 4 5 6 
#
# 1 0.014090 -0.006731 -0.000617 0.000000 0.000000 0.000000
# 2 -0.006731 0.017567 -0.002729 0.000000 0.000000 0.000000
# 3 -0.000617 -0.002729 0.017660 0.000000 0.000000 0.000000
# 4 0.000000 0.000000 0.000000 0.045351 0.000000 0.000000
# 5 0.000000 0.000000 0.000000 0.000000 0.039934 0.000000
# 6 0.000000 0.000000 0.000000 0.000000 0.000000 0.032554
#
#
# Mechanical properties :
#
#
# Convention : Reuss Voigt Hill
#
# Bulk Modulus (GPa) = 34.29023 36.79684 35.54353
# Shear Modulus (GPa) = 25.37647 26.44534 25.91090
#
# Velocity S-wave (km/s) = 3.57444 3.64894 3.61188
# Velocity P-wave (km/s) = 5.85663 6.02326 5.94053
#
# Compressibility (1/GPa) = 0.02916283
#
# Stress axis : x y z
#
# Youngs Moduli (GPa) = 70.97016 56.92436 56.62463
#
# Poissons Ratio (x) = 0.38315 0.03496
# Poissons Ratio (y) = 0.47769 0.15454
# Poissons Ratio (z) = 0.04382 0.15536
#
# Static dielectric constant tensor:
#      x y z
#    x 1.717800 0.000000 0.000000 
#    y 0.000000 1.760310 0.000000 
#    z 0.000000 0.000000 1.798820 
# 
# From -- ./inp_files/39176.got.cif
#   From: 2010.05.17/outbox.cif.g08.bks.cpg/sg64_20_cif.got.tgz:39176.got - 2010.06.03 16:29:19.
