data_PCOD9480355
_publ_section_title
;
Structure prediction by ZEFSAII (Michael W. Deem and Ramdas Pophale) SiO2 
 PCOD9480355
Probable space group: C M C A
;
_chemical_formula_sum "Si O2"
_cell_formula_units_Z 88
_cell_length_a 16.484492
_cell_length_b 11.242069
_cell_length_c 22.644697
_cell_angle_alpha 90.000000
_cell_angle_beta 90.000000
_cell_angle_gamma 90.000000
_cell_volume 4196.510640
_symmetry_space_group_name_H-M "C M C A"
_symmetry_group_IT_number 64
_symmetry_cell_setting 'orthorhombic'
loop_
_space_group_symop_operation_xyz
x,y,z
-x,1/2-y,1/2+z
x,-y,-z
-x,1/2+y,1/2-z
-x,-y,-z
x,1/2+y,1/2-z
-x,y,z
x,1/2-y,1/2+z
1/2+x,1/2+y,z
1/2-x,-y,1/2+z
1/2+x,1/2-y,-z
1/2-x,y,1/2-z
1/2-x,1/2-y,-z
1/2+x,y,1/2-z
1/2-x,1/2+y,z
1/2+x,-y,1/2+z
loop_
_atom_site_type_symbol
_atom_site_label
_atom_site_fract_x
_atom_site_fract_y
_atom_site_fract_z
Si Si1 0.658869 0.428890 0.724340
Si Si2 0.352168 0.420189 0.584713
Si Si3 0.092179 0.318550 0.098549
Si Si4 0.841468 0.690337 0.776477
Si Si5 0.284884 0.000000 0.500000
Si Si6 0.090670 0.312300 0.475809
O O1 0.750000 0.433246 0.750000
O O2 0.664347 0.414300 0.654129
O O3 0.621848 0.559576 0.737083
O O4 0.619014 0.309966 0.750603
O O5 0.396930 0.546473 0.575469
O O6 0.271986 0.428662 0.544925
O O7 0.399742 0.304468 0.563880
O O8 0.153958 0.299293 0.152433
O O9 0.000000 0.305468 0.121080
O O10 0.102842 0.231668 0.043350
O O11 0.750000 0.687940 0.750000
O O12 0.341621 0.910112 0.463940
O O13 0.000000 0.360603 0.469505
#
# Coordination Sequence:
#
# PCOD9480355 Si02
#       6
#    16  16  16  16   8  16
#     4   9  20  35  59  88 121 158 205 272 320 375
#     4  11  22  39  66  97 124 167 226 269 321 393
#     4  10  21  40  65  91 126 169 213 267 334 396
#     4   9  19  36  58  87 118 160 214 263 319 381
#     4  12  25  36  63  98 134 164 220 278 327 394
#     4  11  24  42  61  93 136 174 209 268 343 401
#
# _framework density 20.969802999999999
#
# number of rings (size 3 to 8) (size 9 to 14) (size 15 to 20)
#    0.000    1.818    1.818    1.364    5.091    5.818 
#    0.000    4.545    0.000    0.000    0.000    0.000 
#    0.000    0.000    0.000    0.000    0.000    0.000 
#
# Total GULP energy -245563.715362 kJ/mol
# GULP energy per Si atom -5580.993531 kJ/mol
# Density = 2.092208 g / cm^3
# Si number density = 20.969803 Si / 1000 Ang^3
#
#
#
# Elastic Constant Matrix: (Units=GPa)
#
#
# Indices 1 2 3 4 5 6 
#
# 1 57.2635 -1.5237 8.5884 0.0000 0.0000 0.0000
# 2 -1.5237 102.6971 -0.5415 0.0000 0.0000 0.0000
# 3 8.5884 -0.5415 45.3618 0.0000 0.0000 0.0000
# 4 0.0000 0.0000 0.0000 99.8814 0.0000 0.0000
# 5 0.0000 0.0000 0.0000 0.0000 119.0819 0.0000
# 6 0.0000 0.0000 0.0000 0.0000 0.0000 23.8861
#
#
#
# Elastic Compliance Matrix: (Units=1/GPa)
#
#
# Indices 1 2 3 4 5 6 
#
# 1 0.017980 0.000249 -0.003401 0.000000 0.000000 0.000000
# 2 0.000249 0.009741 0.000069 0.000000 0.000000 0.000000
# 3 -0.003401 0.000069 0.022690 0.000000 0.000000 0.000000
# 4 0.000000 0.000000 0.000000 0.010012 0.000000 0.000000
# 5 0.000000 0.000000 0.000000 0.000000 0.008398 0.000000
# 6 0.000000 0.000000 0.000000 0.000000 0.000000 0.041865
#
#
# Mechanical properties :
#
#
# Convention : Reuss Voigt Hill
#
# Bulk Modulus (GPa) = 22.60159 24.26322 23.43241
# Shear Modulus (GPa) = 37.99378 61.82315 49.90846
#
# Velocity S-wave (km/s) = 4.26118 5.43562 4.88383
# Velocity P-wave (km/s) = 5.91707 7.14075 6.55752
#
# Compressibility (1/GPa) = 0.04424467
#
# Stress axis : x y z
#
# Youngs Moduli (GPa) = 55.61779 102.65434 44.07273
#
# Poissons Ratio (x) = -0.02554 0.14990
# Poissons Ratio (y) = -0.01384 -0.00305
# Poissons Ratio (z) = 0.18917 -0.00710
#
# Static dielectric constant tensor:
#      x y z
#    x 1.758000 0.000000 0.000000 
#    y 0.000000 1.797350 0.000000 
#    z 0.000000 0.000000 1.724860 
# 
# From -- ./inp_files/40028.got.cif
#   From: 2010.05.17/outbox.cif.g08.bks.cpg/sg64_21_cif.got.tgz:40028.got - 2010.06.03 16:29:19.
