data_PCOD9480702
_publ_section_title
;
Structure prediction by ZEFSAII (Michael W. Deem and Ramdas Pophale) SiO2 
 PCOD9480702
Probable space group: C M C A
;
_chemical_formula_sum "Si O2"
_cell_formula_units_Z 112
_cell_length_a 17.830389
_cell_length_b 29.973521
_cell_length_c 11.092157
_cell_angle_alpha 90.000000
_cell_angle_beta 90.000000
_cell_angle_gamma 90.000000
_cell_volume 5928.087275
_symmetry_space_group_name_H-M "C M C A"
_symmetry_group_IT_number 64
_symmetry_cell_setting 'orthorhombic'
loop_
_space_group_symop_operation_xyz
x,y,z
-x,1/2-y,1/2+z
x,-y,-z
-x,1/2+y,1/2-z
-x,-y,-z
x,1/2+y,1/2-z
-x,y,z
x,1/2-y,1/2+z
1/2+x,1/2+y,z
1/2-x,-y,1/2+z
1/2+x,1/2-y,-z
1/2-x,y,1/2-z
1/2-x,1/2-y,-z
1/2+x,y,1/2-z
1/2-x,1/2+y,z
1/2+x,-y,1/2+z
loop_
_atom_site_type_symbol
_atom_site_label
_atom_site_fract_x
_atom_site_fract_y
_atom_site_fract_z
Si Si1 0.302806 0.056042 0.867334
Si Si2 0.355537 0.847335 0.100097
Si Si3 0.306824 0.955167 0.861411
Si Si4 0.290242 0.209296 0.569160
Si Si5 0.418544 0.772428 0.249101
Si Si6 0.084768 0.682679 0.395900
Si Si7 0.911733 0.871529 0.651586
O O1 0.250000 0.060175 0.750000
O O2 0.352765 0.100478 0.867427
O O3 0.336256 0.006154 0.857709
O O4 0.270430 0.054396 0.005654
O O5 0.411534 0.819592 0.182670
O O6 0.274678 0.823661 0.115046
O O7 0.377220 0.844155 0.959749
O O8 0.250000 0.949945 0.750000
O O9 0.371953 0.919220 0.847474
O O10 0.250000 0.250000 0.500000
O O11 0.346193 0.230744 0.666717
O O12 0.347469 0.180091 0.488667
O O13 0.500000 0.767672 0.311289
O O14 0.415063 0.733733 0.149963
O O15 0.099692 0.653126 0.278039
O O16 0.000000 0.672260 0.440012
O O17 0.000000 0.875608 0.630868
#
# Coordination Sequence:
#
# PCOD9480702 Si02
#       7
#    16  16  16  16  16  16  16
#     4   9  18  35  56  86 119 147 185 243 300 348
#     4  11  22  36  59  84 115 148 195 239 284 341
#     4   9  19  35  59  87 113 148 193 239 294 351
#     4  12  23  36  57  84 112 148 200 241 275 333
#     4  11  23  39  55  77 115 155 190 233 289 342
#     4  10  23  38  55  79 116 155 190 234 291 340
#     4  10  22  39  58  84 114 151 189 236 295 349
#
# _framework density 18.893108000000002
#
# number of rings (size 3 to 8) (size 9 to 14) (size 15 to 20)
#    0.000    1.714    1.429    3.000    4.000    1.143 
#    0.000    6.429    0.000    0.000    0.000    8.000 
#    0.000    0.000    0.000    0.000    0.000    0.000 
#
# Total GULP energy -312244.218021 kJ/mol
# GULP energy per Si atom -5575.789608 kJ/mol
# Density = 1.885011 g / cm^3
# Si number density = 18.893108 Si / 1000 Ang^3
#
#
#
# Elastic Constant Matrix: (Units=GPa)
#
#
# Indices 1 2 3 4 5 6 
#
# 1 89.9875 11.7761 21.1924 0.0000 0.0000 0.0000
# 2 11.7761 79.5831 11.7415 0.0000 0.0000 0.0000
# 3 21.1924 11.7415 53.1089 0.0000 0.0000 0.0000
# 4 0.0000 0.0000 0.0000 27.9866 0.0000 0.0000
# 5 0.0000 0.0000 0.0000 0.0000 29.7465 0.0000
# 6 0.0000 0.0000 0.0000 0.0000 0.0000 9.8981
#
#
#
# Elastic Compliance Matrix: (Units=1/GPa)
#
#
# Indices 1 2 3 4 5 6 
#
# 1 0.012364 -0.001139 -0.004682 0.000000 0.000000 0.000000
# 2 -0.001139 0.013094 -0.002440 0.000000 0.000000 0.000000
# 3 -0.004682 -0.002440 0.021237 0.000000 0.000000 0.000000
# 4 0.000000 0.000000 0.000000 0.035731 0.000000 0.000000
# 5 0.000000 0.000000 0.000000 0.000000 0.033617 0.000000
# 6 0.000000 0.000000 0.000000 0.000000 0.000000 0.101029
#
#
# Mechanical properties :
#
#
# Convention : Reuss Voigt Hill
#
# Bulk Modulus (GPa) = 33.14236 34.67772 33.91004
# Shear Modulus (GPa) = 20.52093 25.39088 22.95591
#
# Velocity S-wave (km/s) = 3.29927 3.66993 3.48953
# Velocity P-wave (km/s) = 5.66513 6.02930 5.85005
#
# Compressibility (1/GPa) = 0.03017286
#
# Stress axis : x y z
#
# Youngs Moduli (GPa) = 80.87788 76.37060 47.08744
#
# Poissons Ratio (x) = 0.08697 0.22047
# Poissons Ratio (y) = 0.09210 0.11491
# Poissons Ratio (z) = 0.37867 0.18638
#
# Static dielectric constant tensor:
#      x y z
#    x 1.623970 0.000000 0.000000 
#    y 0.000000 1.639260 0.000000 
#    z 0.000000 0.000000 1.724910 
# 
# From -- ./inp_files/14958.got.cif
#   From: 2010.05.17/outbox.cif.g08.bks.cpg/sg64_8_cif.got.tgz:14958.got - 2010.06.03 16:29:19.
