data_PCOD9480177
_publ_section_title
;
Structure prediction by ZEFSAII (Michael W. Deem and Ramdas Pophale) SiO2 
 PCOD9480177
Probable space group: C M C A
;
_chemical_formula_sum "Si O2"
_cell_formula_units_Z 80
_cell_length_a 17.735900
_cell_length_b 31.162308
_cell_length_c 7.469979
_cell_angle_alpha 90.000000
_cell_angle_beta 90.000000
_cell_angle_gamma 90.000000
_cell_volume 4128.594485
_symmetry_space_group_name_H-M "C M C A"
_symmetry_group_IT_number 64
_symmetry_cell_setting 'orthorhombic'
loop_
_space_group_symop_operation_xyz
x,y,z
-x,1/2-y,1/2+z
x,-y,-z
-x,1/2+y,1/2-z
-x,-y,-z
x,1/2+y,1/2-z
-x,y,z
x,1/2-y,1/2+z
1/2+x,1/2+y,z
1/2-x,-y,1/2+z
1/2+x,1/2-y,-z
1/2-x,y,1/2-z
1/2-x,1/2-y,-z
1/2+x,y,1/2-z
1/2-x,1/2+y,z
1/2+x,-y,1/2+z
loop_
_atom_site_type_symbol
_atom_site_label
_atom_site_fract_x
_atom_site_fract_y
_atom_site_fract_z
Si Si1 0.766325 0.200600 0.460913
Si Si2 0.280756 0.451275 0.552243
Si Si3 0.583283 0.589356 0.283867
Si Si4 0.414518 0.842441 0.093221
Si Si5 0.670023 0.380815 0.074006
O O1 0.750000 0.193633 0.250000
O O2 0.750000 0.250000 0.500000
O O3 0.849750 0.191543 0.540632
O O4 0.711880 0.164751 0.547577
O O5 0.265444 0.500000 0.500000
O O6 0.250000 0.443239 0.750000
O O7 0.368283 0.442689 0.591376
O O8 0.236208 0.416944 0.431491
O O9 0.500000 0.572271 0.248516
O O10 0.579915 0.630524 0.411306
O O11 0.620242 0.604613 0.097249
O O12 0.500000 0.827308 0.138395
O O13 0.382142 0.872784 0.252688
#
# Coordination Sequence:
#
# PCOD9480177 Si02
#       5
#    16  16  16  16  16
#     4  12  23  42  66  94 125 166 211 259 310 376
#     4  10  22  36  61  91 123 168 218 265 315 383
#     4  10  21  39  61  89 126 163 206 262 319 373
#     4  11  23  40  66  94 124 163 206 254 318 372
#     4  11  21  42  64  89 126 167 211 260 317 377
#
# _framework density 19.377054000000001
#
# number of rings (size 3 to 8) (size 9 to 14) (size 15 to 20)
#    0.000    1.200    4.000    3.000    2.800    0.400 
#    0.000    5.000    0.000    3.000    0.000    0.000 
#    0.000    0.000    0.000    0.000    0.000    0.000 
#
# Total GULP energy -222774.926408 kJ/mol
# GULP energy per Si atom -5569.373160 kJ/mol
# Density = 1.933295 g / cm^3
# Si number density = 19.377054 Si / 1000 Ang^3
#
#
#
# Elastic Constant Matrix: (Units=GPa)
#
#
# Indices 1 2 3 4 5 6 
#
# 1 151.5330 33.3889 54.5231 0.0000 0.0000 0.0000
# 2 33.3889 75.8444 22.6535 0.0000 0.0000 0.0000
# 3 54.5231 22.6535 137.0811 0.0000 0.0000 0.0000
# 4 0.0000 0.0000 0.0000 25.5403 0.0000 0.0000
# 5 0.0000 0.0000 0.0000 0.0000 23.6522 0.0000
# 6 0.0000 0.0000 0.0000 0.0000 0.0000 11.5807
#
#
#
# Elastic Compliance Matrix: (Units=1/GPa)
#
#
# Indices 1 2 3 4 5 6 
#
# 1 0.008223 -0.002780 -0.002811 0.000000 0.000000 0.000000
# 2 -0.002780 0.014810 -0.001341 0.000000 0.000000 0.000000
# 3 -0.002811 -0.001341 0.008635 0.000000 0.000000 0.000000
# 4 0.000000 0.000000 0.000000 0.039154 0.000000 0.000000
# 5 0.000000 0.000000 0.000000 0.000000 0.042279 0.000000
# 6 0.000000 0.000000 0.000000 0.000000 0.000000 0.086351
#
#
# Mechanical properties :
#
#
# Convention : Reuss Voigt Hill
#
# Bulk Modulus (GPa) = 56.17563 65.06551 60.62057
# Shear Modulus (GPa) = 22.80482 29.08084 25.94283
#
# Velocity S-wave (km/s) = 3.43432 3.87820 3.66299
# Velocity P-wave (km/s) = 6.69177 7.32840 7.01731
#
# Compressibility (1/GPa) = 0.01780131
#
# Stress axis : x y z
#
# Youngs Moduli (GPa) = 121.60393 67.52373 115.81018
#
# Poissons Ratio (x) = 0.18775 0.32558
# Poissons Ratio (y) = 0.33812 0.15535
# Poissons Ratio (z) = 0.34187 0.09058
#
# Static dielectric constant tensor:
#      x y z
#    x 1.787260 0.000000 0.000000 
#    y 0.000000 1.673480 0.000000 
#    z 0.000000 0.000000 1.708950 
# 
# From -- ./inp_files/7279.got.cif
#   From: 2010.05.17/outbox.cif.g08.bks.cpg/sg64_4_cif.got.tgz:7279.got - 2010.06.03 16:29:19.
