data_PCOD9480834
_publ_section_title
;
Structure prediction by ZEFSAII (Michael W. Deem and Ramdas Pophale) SiO2 
 PCOD9480834
Probable space group: C M C A
;
_chemical_formula_sum "Si O2"
_cell_formula_units_Z 96
_cell_length_a 15.405509
_cell_length_b 12.100338
_cell_length_c 22.525037
_cell_angle_alpha 90.000000
_cell_angle_beta 90.000000
_cell_angle_gamma 90.000000
_cell_volume 4198.934178
_symmetry_space_group_name_H-M "C M C A"
_symmetry_group_IT_number 64
_symmetry_cell_setting 'orthorhombic'
loop_
_space_group_symop_operation_xyz
x,y,z
-x,1/2-y,1/2+z
x,-y,-z
-x,1/2+y,1/2-z
-x,-y,-z
x,1/2+y,1/2-z
-x,y,z
x,1/2-y,1/2+z
1/2+x,1/2+y,z
1/2-x,-y,1/2+z
1/2+x,1/2-y,-z
1/2-x,y,1/2-z
1/2-x,1/2-y,-z
1/2+x,y,1/2-z
1/2-x,1/2+y,z
1/2+x,-y,1/2+z
loop_
_atom_site_type_symbol
_atom_site_label
_atom_site_fract_x
_atom_site_fract_y
_atom_site_fract_z
Si Si1 0.850959 0.228868 0.394042
Si Si2 0.640002 0.580580 0.810681
Si Si3 0.398253 0.130626 0.499900
Si Si4 0.344398 0.845121 0.632075
Si Si5 0.846565 0.879050 0.317521
Si Si6 0.096234 0.999193 0.435721
O O1 0.892197 0.310741 0.345281
O O2 0.840433 0.306312 0.451909
O O3 0.759698 0.174367 0.373447
O O4 0.906372 0.124982 0.414171
O O5 0.628390 0.465911 0.845308
O O6 0.743508 0.603863 0.811087
O O7 0.612129 0.571865 0.742212
O O8 0.500000 0.145089 0.515674
O O9 0.382025 0.172680 0.433494
O O10 0.379200 0.000000 0.500000
O O11 0.371901 0.749215 0.677187
O O12 0.866380 0.932094 0.380899
O O13 0.000000 0.952544 0.445891
O O14 0.142563 0.000000 0.500000
#
# Coordination Sequence:
#
# PCOD9480834 Si02
#       6
#    16  16  16  16  16  16
#     4  11  22  40  67  96 124 170 217 267 323 386
#     4  10  22  40  64  96 127 161 217 269 317 388
#     4  11  23  40  62  91 134 173 212 267 328 385
#     4  11  22  40  66  96 126 166 217 273 320 388
#     4  10  23  39  65  95 125 168 208 267 331 379
#     4  11  24  43  66  94 132 170 215 270 325 386
#
# _framework density 22.862943999999999
#
# number of rings (size 3 to 8) (size 9 to 14) (size 15 to 20)
#    0.000    1.333    3.333    2.000    2.333    5.333 
#    0.000    2.500    0.000    0.000    0.000    0.000 
#    0.000    0.000    0.000    0.000    0.000    0.000 
#
# Total GULP energy -268161.825428 kJ/mol
# GULP energy per Si atom -5586.704696 kJ/mol
# Density = 2.281091 g / cm^3
# Si number density = 22.862944 Si / 1000 Ang^3
#
#
#
# Elastic Constant Matrix: (Units=GPa)
#
#
# Indices 1 2 3 4 5 6 
#
# 1 36.4447 0.7156 11.8959 0.0000 0.0000 0.0000
# 2 0.7156 110.0504 31.3971 0.0000 0.0000 0.0000
# 3 11.8959 31.3971 153.5567 0.0000 0.0000 0.0000
# 4 0.0000 0.0000 0.0000 35.0829 0.0000 0.0000
# 5 0.0000 0.0000 0.0000 0.0000 -530.4491 0.0000
# 6 0.0000 0.0000 0.0000 0.0000 0.0000 -0.8475
#
#
#
# Elastic Compliance Matrix: (Units=1/GPa)
#
#
# Indices 1 2 3 4 5 6 
#
# 1 0.028173 0.000467 -0.002278 0.000000 0.000000 0.000000
# 2 0.000467 0.009657 -0.002011 0.000000 0.000000 0.000000
# 3 -0.002278 -0.002011 0.007100 0.000000 0.000000 0.000000
# 4 0.000000 0.000000 0.000000 0.028504 0.000000 0.000000
# 5 0.000000 0.000000 0.000000 0.000000 -0.001885 0.000000
# 6 0.000000 0.000000 0.000000 0.000000 0.000000 -1.179904
#
#
# Mechanical properties :
#
#
# Convention : Reuss Voigt Hill
#
# Bulk Modulus (GPa) = 26.81942 43.11877 34.96910
# Shear Modulus (GPa) = -4.59440 -82.17321 -43.38380
#
# Velocity S-wave (km/s) = -1.41912 -6.00164 -4.36082
# Velocity P-wave (km/s) = 3.01177 5.39682 3.16661
#
# Compressibility (1/GPa) = 0.03728642
#
# Stress axis : x y z
#
# Youngs Moduli (GPa) = 35.49467 103.54781 140.84790
#
# Poissons Ratio (x) = -0.04833 0.32085
# Poissons Ratio (y) = -0.01657 0.28321
# Poissons Ratio (z) = 0.08086 0.20821
#
# Static dielectric constant tensor:
#      x y z
#    x 1.880010 0.000000 0.000000 
#    y 0.000000 1.852490 0.000000 
#    z 0.000000 0.000000 1.897350 
# 
# From -- ./inp_files/40834.got.cif
#   From: 2010.05.17/outbox.cif.g08.bks.cpg/sg64_21_cif.got.tgz:40834.got - 2010.06.03 16:29:19.
