data_PCOD9480471
_publ_section_title
;
Structure prediction by ZEFSAII (Michael W. Deem and Ramdas Pophale) SiO2 
 PCOD9480471
Probable space group: C M C A
;
_chemical_formula_sum "Si O2"
_cell_formula_units_Z 128
_cell_length_a 26.783786
_cell_length_b 12.864492
_cell_length_c 14.189496
_cell_angle_alpha 90.000000
_cell_angle_beta 90.000000
_cell_angle_gamma 90.000000
_cell_volume 4889.129914
_symmetry_space_group_name_H-M "C M C A"
_symmetry_group_IT_number 64
_symmetry_cell_setting 'orthorhombic'
loop_
_space_group_symop_operation_xyz
x,y,z
-x,1/2-y,1/2+z
x,-y,-z
-x,1/2+y,1/2-z
-x,-y,-z
x,1/2+y,1/2-z
-x,y,z
x,1/2-y,1/2+z
1/2+x,1/2+y,z
1/2-x,-y,1/2+z
1/2+x,1/2-y,-z
1/2-x,y,1/2-z
1/2-x,1/2-y,-z
1/2+x,y,1/2-z
1/2-x,1/2+y,z
1/2+x,-y,1/2+z
loop_
_atom_site_type_symbol
_atom_site_label
_atom_site_fract_x
_atom_site_fract_y
_atom_site_fract_z
Si Si1 0.947227 0.909021 0.573537
Si Si2 0.556345 0.914643 0.616196
Si Si3 0.054839 0.191321 0.719191
Si Si4 0.916104 0.198370 0.935000
Si Si5 0.334600 0.451284 0.840658
Si Si6 0.693742 0.329208 0.134440
Si Si7 0.860589 0.530135 0.846378
Si Si8 0.303719 0.282365 0.361615
O O1 0.938252 0.802569 0.519577
O O2 0.000000 0.903747 0.627953
O O3 0.951305 0.000000 0.500000
O O4 0.895536 0.935171 0.622913
O O5 0.500000 0.955331 0.630999
O O6 0.565659 0.111738 0.493311
O O7 0.606126 0.975581 0.646941
O O8 0.560357 0.806257 0.675229
O O9 0.059851 0.198052 0.831829
O O10 0.097128 0.111998 0.687973
O O11 0.000000 0.151871 0.693205
O O12 0.856830 0.204686 0.917392
O O13 0.304807 0.546623 0.885710
O O14 0.325565 0.472843 0.730047
O O15 0.325374 0.333896 0.873217
O O16 0.690144 0.306910 0.248064
O O17 0.746087 0.278804 0.109509
O O18 0.828026 0.612891 0.906553
#
# Coordination Sequence:
#
# PCOD9480471 Si02
#       8
#    16  16  16  16  16  16  16  16
#     4  11  24  39  63  96 132 180 232 284 345 408
#     4  11  24  41  69 101 142 191 227 284 357 415
#     4  11  21  39  65  98 139 183 228 282 345 413
#     4  12  23  45  67 100 141 185 232 293 344 425
#     4  11  22  42  66  98 139 175 229 286 345 428
#     4  10  23  41  66 103 134 178 235 289 353 412
#     4  11  21  39  66  99 133 175 231 288 344 415
#     4  10  21  41  70  97 132 180 227 291 351 403
#
# _framework density 26.180527999999999
#
# number of rings (size 3 to 8) (size 9 to 14) (size 15 to 20)
#    0.000    1.125    3.750    3.750    0.000    9.500 
#    0.000    1.250    2.750    0.000    0.000    0.000 
#    0.000    0.000    0.000    0.000    0.000    0.000 
#
# Total GULP energy -357820.121380 kJ/mol
# GULP energy per Si atom -5590.939397 kJ/mol
# Density = 2.612094 g / cm^3
# Si number density = 26.180528 Si / 1000 Ang^3
#
#
#
# Elastic Constant Matrix: (Units=GPa)
#
#
# Indices 1 2 3 4 5 6 
#
# 1 157.2259 37.9650 -1.6296 0.0000 0.0000 0.0000
# 2 37.9650 132.2374 9.2929 0.0000 0.0000 0.0000
# 3 -1.6296 9.2929 68.5866 0.0000 0.0000 0.0000
# 4 0.0000 0.0000 0.0000 34.6891 0.0000 0.0000
# 5 0.0000 0.0000 0.0000 0.0000 10.4060 0.0000
# 6 0.0000 0.0000 0.0000 0.0000 0.0000 48.6750
#
#
#
# Elastic Compliance Matrix: (Units=1/GPa)
#
#
# Indices 1 2 3 4 5 6 
#
# 1 0.006847 -0.001996 0.000433 0.000000 0.000000 0.000000
# 2 -0.001996 0.008217 -0.001161 0.000000 0.000000 0.000000
# 3 0.000433 -0.001161 0.014748 0.000000 0.000000 0.000000
# 4 0.000000 0.000000 0.000000 0.028827 0.000000 0.000000
# 5 0.000000 0.000000 0.000000 0.000000 0.096099 0.000000
# 6 0.000000 0.000000 0.000000 0.000000 0.000000 0.020544
#
#
# Mechanical properties :
#
#
# Convention : Reuss Voigt Hill
#
# Bulk Modulus (GPa) = 41.04454 49.92296 45.48375
# Shear Modulus (GPa) = 26.47595 39.58212 33.02903
#
# Velocity S-wave (km/s) = 3.18352 3.89252 3.55574
# Velocity P-wave (km/s) = 5.40598 6.26996 5.85393
#
# Compressibility (1/GPa) = 0.02436378
#
# Stress axis : x y z
#
# Youngs Moduli (GPa) = 146.05442 121.70175 67.80735
#
# Poissons Ratio (x) = 0.24293 -0.02937
# Poissons Ratio (y) = 0.29154 0.07871
# Poissons Ratio (z) = -0.06326 0.14126
#
# Static dielectric constant tensor:
#      x y z
#    x 2.060840 0.000000 0.000000 
#    y 0.000000 2.088830 0.000000 
#    z 0.000000 0.000000 2.161810 
# 
# From -- ./inp_files/46990.got.cif
#   From: 2010.05.17/outbox.cif.g08.bks.cpg/sg64_24_cif.got.tgz:46990.got - 2010.06.03 16:29:19.
