data_PCOD9480759
_publ_section_title
;
Structure prediction by ZEFSAII (Michael W. Deem and Ramdas Pophale) SiO2 
 PCOD9480759
Probable space group: C M C A
;
_chemical_formula_sum "Si O2"
_cell_formula_units_Z 80
_cell_length_a 10.077016
_cell_length_b 11.914548
_cell_length_c 28.206492
_cell_angle_alpha 90.000000
_cell_angle_beta 90.000000
_cell_angle_gamma 90.000000
_cell_volume 3386.558611
_symmetry_space_group_name_H-M "C M C A"
_symmetry_group_IT_number 64
_symmetry_cell_setting 'orthorhombic'
loop_
_space_group_symop_operation_xyz
x,y,z
-x,1/2-y,1/2+z
x,-y,-z
-x,1/2+y,1/2-z
-x,-y,-z
x,1/2+y,1/2-z
-x,y,z
x,1/2-y,1/2+z
1/2+x,1/2+y,z
1/2-x,-y,1/2+z
1/2+x,1/2-y,-z
1/2-x,y,1/2-z
1/2-x,1/2-y,-z
1/2+x,y,1/2-z
1/2-x,1/2+y,z
1/2+x,-y,1/2+z
loop_
_atom_site_type_symbol
_atom_site_label
_atom_site_fract_x
_atom_site_fract_y
_atom_site_fract_z
Si Si1 0.000000 0.043873 0.282196
Si Si2 0.202514 0.725798 0.182442
Si Si3 0.000000 0.291877 0.180919
Si Si4 0.148728 0.890731 0.479593
Si Si5 0.000000 0.928538 0.181929
Si Si6 0.500000 0.113705 0.400688
Si Si7 0.764027 0.794144 0.572918
O O1 0.126486 0.122963 0.293015
O O2 0.000000 0.007019 0.227709
O O3 0.000000 0.926581 0.312148
O O4 0.354817 0.748114 0.198696
O O5 0.190262 0.693785 0.126457
O O6 0.124358 0.843602 0.185924
O O7 0.000000 0.230042 0.130066
O O8 0.145524 0.815763 0.527242
O O9 0.220157 0.833253 0.436268
O O10 0.000000 0.917924 0.464040
O O11 0.215205 0.000000 0.500000
O O12 0.000000 0.008347 0.135376
O O13 0.633174 0.127879 0.430466
#
# Coordination Sequence:
#
# PCOD9480759 Si02
#       7
#     8  16   8  16   8   8  16
#     4  11  27  52  75 108 150 197 253 320 387 454
#     4  10  26  50  77 110 149 202 252 316 382 470
#     4  10  25  47  76 107 143 196 247 311 376 451
#     4  10  22  39  67  97 142 187 235 306 361 453
#     4  11  27  48  73 108 147 197 258 319 391 454
#     4  10  23  43  68  98 142 191 243 316 367 455
#     4  10  22  43  64 103 139 182 249 296 378 443
#
# _framework density 23.622800000000002
#
# number of rings (size 3 to 8) (size 9 to 14) (size 15 to 20)
#    0.000    1.800    1.000    0.000   14.000    2.400 
#    3.600    0.500    0.000    0.000    0.000    0.000 
#    0.000    0.000    0.000    0.000    0.000    0.000 
#
# Total GULP energy -223165.220298 kJ/mol
# GULP energy per Si atom -5579.130507 kJ/mol
# Density = 2.356903 g / cm^3
# Si number density = 23.622800 Si / 1000 Ang^3
#
#
#
# Elastic Constant Matrix: (Units=GPa)
#
#
# Indices 1 2 3 4 5 6 
#
# 1 132.9456 45.7210 19.0954 0.0000 0.0000 0.0000
# 2 45.7210 110.3374 7.4703 0.0000 0.0000 0.0000
# 3 19.0954 7.4703 54.7378 0.0000 0.0000 0.0000
# 4 0.0000 0.0000 0.0000 46.6454 0.0000 0.0000
# 5 0.0000 0.0000 0.0000 0.0000 2.2817 0.0000
# 6 0.0000 0.0000 0.0000 0.0000 0.0000 -21.2802
#
#
#
# Elastic Compliance Matrix: (Units=1/GPa)
#
#
# Indices 1 2 3 4 5 6 
#
# 1 0.009151 -0.003609 -0.002700 0.000000 0.000000 0.000000
# 2 -0.003609 0.010571 -0.000184 0.000000 0.000000 0.000000
# 3 -0.002700 -0.000184 0.019236 0.000000 0.000000 0.000000
# 4 0.000000 0.000000 0.000000 0.021438 0.000000 0.000000
# 5 0.000000 0.000000 0.000000 0.000000 0.438266 0.000000
# 6 0.000000 0.000000 0.000000 0.000000 0.000000 -0.046992
#
#
# Mechanical properties :
#
#
# Convention : Reuss Voigt Hill
#
# Bulk Modulus (GPa) = 38.50191 49.17715 43.83953
# Shear Modulus (GPa) = 10.56384 20.57831 15.57108
#
# Velocity S-wave (km/s) = 2.11698 2.95468 2.57019
# Velocity P-wave (km/s) = 4.72329 5.70114 5.23510
#
# Compressibility (1/GPa) = 0.02597274
#
# Stress axis : x y z
#
# Youngs Moduli (GPa) = 109.27953 94.59794 51.98638
#
# Poissons Ratio (x) = 0.34141 0.14035
# Poissons Ratio (y) = 0.39440 0.00955
# Poissons Ratio (z) = 0.29503 0.01737
#
# Static dielectric constant tensor:
#      x y z
#    x 1.961930 0.000000 0.000000 
#    y 0.000000 1.941640 0.000000 
#    z 0.000000 0.000000 1.883340 
# 
# From -- ./inp_files/52614.got.cif
#   From: 2010.05.17/outbox.cif.g08.bks.cpg/sg64_27_cif.got.tgz:52614.got - 2010.06.03 16:29:19.
