data_PCOD9480413
_publ_section_title
;
Structure prediction by ZEFSAII (Michael W. Deem and Ramdas Pophale) SiO2 
 PCOD9480413
Probable space group: C M C A
;
_chemical_formula_sum "Si O2"
_cell_formula_units_Z 116
_cell_length_a 18.154056
_cell_length_b 14.419415
_cell_length_c 23.324957
_cell_angle_alpha 90.000000
_cell_angle_beta 90.000000
_cell_angle_gamma 90.000000
_cell_volume 6105.794226
_symmetry_space_group_name_H-M "C M C A"
_symmetry_group_IT_number 64
_symmetry_cell_setting 'orthorhombic'
loop_
_space_group_symop_operation_xyz
x,y,z
-x,1/2-y,1/2+z
x,-y,-z
-x,1/2+y,1/2-z
-x,-y,-z
x,1/2+y,1/2-z
-x,y,z
x,1/2-y,1/2+z
1/2+x,1/2+y,z
1/2-x,-y,1/2+z
1/2+x,1/2-y,-z
1/2-x,y,1/2-z
1/2-x,1/2-y,-z
1/2+x,y,1/2-z
1/2-x,1/2+y,z
1/2+x,-y,1/2+z
loop_
_atom_site_type_symbol
_atom_site_label
_atom_site_fract_x
_atom_site_fract_y
_atom_site_fract_z
Si Si1 0.144807 0.722805 0.096299
Si Si2 0.413901 0.377325 0.177235
Si Si3 0.500000 0.000000 0.000000
Si Si4 0.419019 0.184792 0.972295
Si Si5 0.810183 0.259125 0.623470
Si Si6 0.914253 0.566096 0.181083
Si Si7 0.415643 0.597593 0.184973
Si Si8 0.819717 0.896676 0.285462
O O1 0.124112 0.818755 0.127627
O O2 0.232588 0.710372 0.097130
O O3 0.108307 0.641839 0.134706
O O4 0.111390 0.718995 0.033225
O O5 0.500000 0.353077 0.179186
O O6 0.407547 0.488414 0.170512
O O7 0.376303 0.356994 0.238303
O O8 0.436949 0.924185 0.020707
O O9 0.500000 0.227980 0.960689
O O10 0.362070 0.210623 0.923276
O O11 0.856017 0.342268 0.652004
O O12 0.794007 0.184549 0.673201
O O13 0.906923 0.604704 0.246017
O O14 0.861929 0.476697 0.180141
O O15 0.000000 0.539577 0.172661
O O16 0.500000 0.625452 0.171456
O O17 0.750000 0.935023 0.250000
#
# Coordination Sequence:
#
# PCOD9480413 Si02
#       8
#    16  16   4  16  16  16  16  16
#     4  12  24  39  65  94 129 167 215 264 327 384
#     4  10  21  41  62  88 127 171 216 260 312 392
#     4   8  24  48  68  92 118 160 218 280 312 374
#     4  10  24  45  67  91 123 160 220 269 319 382
#     4  12  25  38  64  94 131 166 207 271 328 388
#     4  10  23  38  64  95 129 174 219 261 318 390
#     4   9  21  40  60  90 127 171 217 263 317 382
#     4  11  23  39  60  97 131 166 207 264 330 380
#
# _framework density 18.998346999999999
#
# number of rings (size 3 to 8) (size 9 to 14) (size 15 to 20)
#    0.414    1.103    1.379    4.138    5.793    3.310 
#    0.000    0.690    0.000    2.483    0.000    0.000 
#    0.000    0.000    0.000    0.000    0.000    0.000 
#
# Total GULP energy -323470.676124 kJ/mol
# GULP energy per Si atom -5577.080623 kJ/mol
# Density = 1.895511 g / cm^3
# Si number density = 18.998347 Si / 1000 Ang^3
#
#
#
# Elastic Constant Matrix: (Units=GPa)
#
#
# Indices 1 2 3 4 5 6 
#
# 1 103.5944 6.1385 9.0663 0.0000 0.0000 0.0000
# 2 6.1385 24.4343 8.4307 0.0000 0.0000 0.0000
# 3 9.0663 8.4307 38.0841 0.0000 0.0000 0.0000
# 4 0.0000 0.0000 0.0000 -0.1110 0.0000 0.0000
# 5 0.0000 0.0000 0.0000 0.0000 31.0211 0.0000
# 6 0.0000 0.0000 0.0000 0.0000 0.0000 28.7355
#
#
#
# Elastic Compliance Matrix: (Units=1/GPa)
#
#
# Indices 1 2 3 4 5 6 
#
# 1 0.009932 -0.001818 -0.001962 0.000000 0.000000 0.000000
# 2 -0.001818 0.044644 -0.009450 0.000000 0.000000 0.000000
# 3 -0.001962 -0.009450 0.028817 0.000000 0.000000 0.000000
# 4 0.000000 0.000000 0.000000 -9.007034 0.000000 0.000000
# 5 0.000000 0.000000 0.000000 0.000000 0.032236 0.000000
# 6 0.000000 0.000000 0.000000 0.000000 0.000000 0.034800
#
#
# Mechanical properties :
#
#
# Convention : Reuss Voigt Hill
#
# Bulk Modulus (GPa) = 17.56475 23.70931 20.63703
# Shear Modulus (GPa) = -0.56746 21.42761 10.43007
#
# Velocity S-wave (km/s) = -0.54712 3.36202 2.34561
# Velocity P-wave (km/s) = 2.97764 5.25144 4.26872
#
# Compressibility (1/GPa) = 0.05693221
#
# Stress axis : x y z
#
# Youngs Moduli (GPa) = 100.67975 22.39966 34.70205
#
# Poissons Ratio (x) = 0.04073 0.06809
# Poissons Ratio (y) = 0.18307 0.32793
# Poissons Ratio (z) = 0.19753 0.21168
#
# Static dielectric constant tensor:
#      x y z
#    x 1.667630 0.000000 0.000000 
#    y 0.000000 1.649330 0.000000 
#    z 0.000000 0.000000 1.638080 
# 
# From -- ./inp_files/45907.got.cif
#   From: 2010.05.17/outbox.cif.g08.bks.cpg/sg64_23_cif.got.tgz:45907.got - 2010.06.03 16:29:19.
