data_PCOD9480140
_publ_section_title
;
Structure prediction by ZEFSAII (Michael W. Deem and Ramdas Pophale) SiO2 
 PCOD9480140
Probable space group: C M C A
;
_chemical_formula_sum "Si O2"
_cell_formula_units_Z 88
_cell_length_a 27.610207
_cell_length_b 11.142587
_cell_length_c 11.228977
_cell_angle_alpha 90.000000
_cell_angle_beta 90.000000
_cell_angle_gamma 90.000000
_cell_volume 3454.585045
_symmetry_space_group_name_H-M "C M C A"
_symmetry_group_IT_number 64
_symmetry_cell_setting 'orthorhombic'
loop_
_space_group_symop_operation_xyz
x,y,z
-x,1/2-y,1/2+z
x,-y,-z
-x,1/2+y,1/2-z
-x,-y,-z
x,1/2+y,1/2-z
-x,y,z
x,1/2-y,1/2+z
1/2+x,1/2+y,z
1/2-x,-y,1/2+z
1/2+x,1/2-y,-z
1/2-x,y,1/2-z
1/2-x,1/2-y,-z
1/2+x,y,1/2-z
1/2-x,1/2+y,z
1/2+x,-y,1/2+z
loop_
_atom_site_type_symbol
_atom_site_label
_atom_site_fract_x
_atom_site_fract_y
_atom_site_fract_z
Si Si1 0.288690 0.119089 0.847558
Si Si2 0.000000 0.756510 0.144748
Si Si3 0.000000 0.484939 0.178532
Si Si4 0.656302 0.847841 0.654021
Si Si5 0.108196 0.479673 0.191037
Si Si6 0.909787 0.866418 0.055697
Si Si7 0.279051 0.500000 0.000000
O O1 0.250000 0.073742 0.750000
O O2 0.305813 0.249588 0.807447
O O3 0.340037 0.051643 0.866100
O O4 0.256668 0.107815 0.966174
O O5 0.000000 0.877382 0.225167
O O6 0.046050 0.775516 0.061147
O O7 0.000000 0.628100 0.210339
O O8 0.944478 0.471289 0.129508
O O9 0.629195 0.809564 0.532973
O O10 0.617769 0.888780 0.751847
O O11 0.685621 0.962231 0.605767
O O12 0.105035 0.393799 0.308506
O O13 0.921856 0.000000 0.000000
#
# Coordination Sequence:
#
# PCOD9480140 Si02
#       7
#    16   8   8  16  16  16   8
#     4  12  26  41  68  99 133 184 224 282 357 400
#     4  10  21  38  69 100 134 180 226 292 338 417
#     4  10  24  40  65 104 137 170 232 282 340 410
#     4  11  22  41  66  93 132 175 227 286 332 419
#     4  10  22  43  66  96 134 174 224 280 337 415
#     4   9  18  39  64  94 126 172 236 276 329 405
#     4  12  24  46  60 100 140 168 234 284 336 426
#
# _framework density 25.473392
#
# number of rings (size 3 to 8) (size 9 to 14) (size 15 to 20)
#    0.000    1.455    4.545    0.818    7.636    3.636 
#    0.000    0.909    0.000    1.636    0.000    0.000 
#    0.000    0.000    0.000    0.000    0.000    0.000 
#
# Total GULP energy -245265.550191 kJ/mol
# GULP energy per Si atom -5574.217050 kJ/mol
# Density = 2.541541 g / cm^3
# Si number density = 25.473392 Si / 1000 Ang^3
#
#
#
# Elastic Constant Matrix: (Units=GPa)
#
#
# Indices 1 2 3 4 5 6 
#
# 1 214.1786 31.5329 35.4280 0.0000 0.0000 0.0000
# 2 31.5329 79.4103 7.2840 0.0000 0.0000 0.0000
# 3 35.4280 7.2840 45.3892 0.0000 0.0000 0.0000
# 4 0.0000 0.0000 0.0000 4.9695 0.0000 0.0000
# 5 0.0000 0.0000 0.0000 0.0000 -114.7123 0.0000
# 6 0.0000 0.0000 0.0000 0.0000 0.0000 24.1961
#
#
#
# Elastic Compliance Matrix: (Units=1/GPa)
#
#
# Indices 1 2 3 4 5 6 
#
# 1 0.005618 -0.001856 -0.004088 0.000000 0.000000 0.000000
# 2 -0.001856 0.013394 -0.000701 0.000000 0.000000 0.000000
# 3 -0.004088 -0.000701 0.025335 0.000000 0.000000 0.000000
# 4 0.000000 0.000000 0.000000 0.201227 0.000000 0.000000
# 5 0.000000 0.000000 0.000000 0.000000 -0.008717 0.000000
# 6 0.000000 0.000000 0.000000 0.000000 0.000000 0.041329
#
#
# Mechanical properties :
#
#
# Convention : Reuss Voigt Hill
#
# Bulk Modulus (GPa) = 32.19734 54.16311 43.18022
# Shear Modulus (GPa) = 16.56578 0.53953 8.55265
#
# Velocity S-wave (km/s) = 2.55290 0.46072 1.83433
# Velocity P-wave (km/s) = 4.62134 4.64670 4.63403
#
# Compressibility (1/GPa) = 0.03105846
#
# Stress axis : x y z
#
# Youngs Moduli (GPa) = 177.98678 74.65957 39.47170
#
# Poissons Ratio (x) = 0.13857 0.16134
# Poissons Ratio (y) = 0.33036 0.02766
# Poissons Ratio (z) = 0.72752 0.05232
#
# Static dielectric constant tensor:
#      x y z
#    x 2.015480 0.000000 0.000000 
#    y 0.000000 2.109080 0.000000 
#    z 0.000000 0.000000 2.014210 
# 
# From -- ./inp_files/27224.got.cif
#   From: 2010.05.17/outbox.cif.g08.bks.cpg/sg64_14_cif.got.tgz:27224.got - 2010.06.03 16:29:19.
