data_PCOD9480104
_publ_section_title
;
Structure prediction by ZEFSAII (Michael W. Deem and Ramdas Pophale) SiO2 
 PCOD9480104
Probable space group: C M C A
;
_chemical_formula_sum "Si O2"
_cell_formula_units_Z 104
_cell_length_a 9.674409
_cell_length_b 20.184863
_cell_length_c 27.407037
_cell_angle_alpha 90.000000
_cell_angle_beta 90.000000
_cell_angle_gamma 90.000000
_cell_volume 5351.953557
_symmetry_space_group_name_H-M "C M C A"
_symmetry_group_IT_number 64
_symmetry_cell_setting 'orthorhombic'
loop_
_space_group_symop_operation_xyz
x,y,z
-x,1/2-y,1/2+z
x,-y,-z
-x,1/2+y,1/2-z
-x,-y,-z
x,1/2+y,1/2-z
-x,y,z
x,1/2-y,1/2+z
1/2+x,1/2+y,z
1/2-x,-y,1/2+z
1/2+x,1/2-y,-z
1/2-x,y,1/2-z
1/2-x,1/2-y,-z
1/2+x,y,1/2-z
1/2-x,1/2+y,z
1/2+x,-y,1/2+z
loop_
_atom_site_type_symbol
_atom_site_label
_atom_site_fract_x
_atom_site_fract_y
_atom_site_fract_z
Si Si1 0.500000 0.735027 0.012585
Si Si2 0.164236 0.339499 0.699485
Si Si3 0.343009 0.763635 0.359290
Si Si4 0.837183 0.525609 0.361073
Si Si5 0.161359 0.026385 0.555062
Si Si6 0.759707 0.826136 0.039060
Si Si7 0.340998 0.101919 0.702502
O O1 0.620368 0.791560 0.021437
O O2 0.377786 0.679913 0.001364
O O3 0.250000 0.337656 0.750000
O O4 0.230595 0.285603 0.663099
O O5 0.180055 0.409913 0.672488
O O6 0.000000 0.327607 0.707806
O O7 0.500000 0.737103 0.354274
O O8 0.316689 0.782998 0.415215
O O9 0.334045 0.831757 0.329226
O O10 0.742774 0.522278 0.408694
O O11 0.798653 0.461090 0.329420
O O12 0.000000 0.520569 0.373981
O O13 0.229666 0.099231 0.556023
O O14 0.000000 0.031136 0.569286
O O15 0.168197 0.000000 0.500000
O O16 0.500000 0.091266 0.717039
O O17 0.250000 0.109021 0.750000
#
# Coordination Sequence:
#
# PCOD9480104 Si02
#       7
#     8  16  16  16  16  16  16
#     4  10  24  38  68  92 132 174 222 268 332 384
#     4  11  25  44  67  99 136 174 223 275 329 396
#     4  11  23  41  68  93 134 173 212 274 335 388
#     4  10  23  44  67  93 129 175 219 266 326 388
#     4  11  25  44  66  96 134 171 219 271 324 389
#     4  11  22  45  64  97 131 174 218 276 325 401
#     4  10  21  38  63  93 123 162 211 259 323 386
#
# _framework density 19.432155999999999
#
# number of rings (size 3 to 8) (size 9 to 14) (size 15 to 20)
#    0.000    1.385    3.077    1.385    2.154    6.462 
#    2.769    0.000    0.000    0.000    0.000    0.000 
#    0.000    0.000    0.000    0.000    0.000    0.000 
#
# Total GULP energy -289486.621748 kJ/mol
# GULP energy per Si atom -5567.050418 kJ/mol
# Density = 1.938793 g / cm^3
# Si number density = 19.432156 Si / 1000 Ang^3
#
#
#
# Elastic Constant Matrix: (Units=GPa)
#
#
# Indices 1 2 3 4 5 6 
#
# 1 105.6996 24.1566 14.6295 0.0000 0.0000 0.0000
# 2 24.1566 58.5075 -0.3416 0.0000 0.0000 0.0000
# 3 14.6295 -0.3416 25.3029 0.0000 0.0000 0.0000
# 4 0.0000 0.0000 0.0000 -53.2182 0.0000 0.0000
# 5 0.0000 0.0000 0.0000 0.0000 27.2175 0.0000
# 6 0.0000 0.0000 0.0000 0.0000 0.0000 28.3284
#
#
#
# Elastic Compliance Matrix: (Units=1/GPa)
#
#
# Indices 1 2 3 4 5 6 
#
# 1 0.011481 -0.004779 -0.006702 0.000000 0.000000 0.000000
# 2 -0.004779 0.019083 0.003021 0.000000 0.000000 0.000000
# 3 -0.006702 0.003021 0.043437 0.000000 0.000000 0.000000
# 4 0.000000 0.000000 0.000000 -0.018791 0.000000 0.000000
# 5 0.000000 0.000000 0.000000 0.000000 0.036741 0.000000
# 6 0.000000 0.000000 0.000000 0.000000 0.000000 0.035300
#
#
# Mechanical properties :
#
#
# Convention : Reuss Voigt Hill
#
# Bulk Modulus (GPa) = 17.51961 29.59990 23.55976
# Shear Modulus (GPa) = 30.63744 10.53658 20.58701
#
# Velocity S-wave (km/s) = 3.97500 2.33110 3.25842
# Velocity P-wave (km/s) = 5.48660 4.74456 5.12902
#
# Compressibility (1/GPa) = 0.05707889
#
# Stress axis : x y z
#
# Youngs Moduli (GPa) = 87.10288 52.40337 23.02185
#
# Poissons Ratio (x) = 0.25045 0.15430
# Poissons Ratio (y) = 0.41629 -0.06955
# Poissons Ratio (z) = 0.58379 -0.15830
#
# Static dielectric constant tensor:
#      x y z
#    x 1.666020 0.000000 0.000000 
#    y 0.000000 1.665260 0.000000 
#    z 0.000000 0.000000 1.691940 
# 
# From -- ./inp_files/48237.got.cif
#   From: 2010.05.17/outbox.cif.g08.bks.cpg/sg64_25_cif.got.tgz:48237.got - 2010.06.03 16:29:19.
