data_PCOD9480069
_publ_section_title
;
Structure prediction by ZEFSAII (Michael W. Deem and Ramdas Pophale) SiO2 
 PCOD9480069
Probable space group: C M C A
;
_chemical_formula_sum "Si O2"
_cell_formula_units_Z 40
_cell_length_a 16.065663
_cell_length_b 18.740701
_cell_length_c 5.353320
_cell_angle_alpha 90.000000
_cell_angle_beta 90.000000
_cell_angle_gamma 90.000000
_cell_volume 1611.787150
_symmetry_space_group_name_H-M "C M C A"
_symmetry_group_IT_number 64
_symmetry_cell_setting 'orthorhombic'
loop_
_space_group_symop_operation_xyz
x,y,z
-x,1/2-y,1/2+z
x,-y,-z
-x,1/2+y,1/2-z
-x,-y,-z
x,1/2+y,1/2-z
-x,y,z
x,1/2-y,1/2+z
1/2+x,1/2+y,z
1/2-x,-y,1/2+z
1/2+x,1/2-y,-z
1/2-x,y,1/2-z
1/2-x,1/2-y,-z
1/2+x,y,1/2-z
1/2-x,1/2+y,z
1/2+x,-y,1/2+z
loop_
_atom_site_type_symbol
_atom_site_label
_atom_site_fract_x
_atom_site_fract_y
_atom_site_fract_z
Si Si1 0.152335 0.716746 0.270442
Si Si2 0.500000 0.047304 0.755091
Si Si3 0.828975 0.082156 0.917878
O O1 0.115256 0.758757 0.507970
O O2 0.250000 0.736859 0.250000
O O3 0.155199 0.633693 0.346898
O O4 0.586846 0.088007 0.741839
O O5 0.500000 0.000000 0.500000
O O6 0.500000 0.000000 0.000000
O O7 0.750000 0.103191 0.750000
O O8 0.816618 0.000000 0.000000
#
# Coordination Sequence:
#
# PCOD9480069 Si02
#       3
#    16   8  16
#     4  10  21  38  61  91 127 165 206 259 321 378
#     4  10  24  42  60  92 132 162 203 270 325 370
#     4  11  22  39  67  95 124 167 218 263 318 389
#
# _framework density 24.817170000000001
#
# number of rings (size 3 to 8) (size 9 to 14) (size 15 to 20)
#    0.000    1.600    0.000    6.000    0.000    9.600 
#    0.000    2.000    0.000    0.000    0.000    2.800 
#    0.000    0.000    0.000    0.000    0.000    0.000 
#
# Total GULP energy -111896.620328 kJ/mol
# GULP energy per Si atom -5594.831016 kJ/mol
# Density = 2.476068 g / cm^3
# Si number density = 24.817170 Si / 1000 Ang^3
#
#
#
# Elastic Constant Matrix: (Units=GPa)
#
#
# Indices 1 2 3 4 5 6 
#
# 1 144.6799 -8.3948 21.5676 0.0000 0.0000 0.0000
# 2 -8.3948 192.2194 65.1607 0.0000 0.0000 0.0000
# 3 21.5676 65.1607 183.6920 0.0000 0.0000 0.0000
# 4 0.0000 0.0000 0.0000 63.2692 0.0000 0.0000
# 5 0.0000 0.0000 0.0000 0.0000 15.6437 0.0000
# 6 0.0000 0.0000 0.0000 0.0000 0.0000 -3.8867
#
#
#
# Elastic Compliance Matrix: (Units=1/GPa)
#
#
# Indices 1 2 3 4 5 6 
#
# 1 0.007111 0.000675 -0.001074 0.000000 0.000000 0.000000
# 2 0.000675 0.005978 -0.002200 0.000000 0.000000 0.000000
# 3 -0.001074 -0.002200 0.006350 0.000000 0.000000 0.000000
# 4 0.000000 0.000000 0.000000 0.015805 0.000000 0.000000
# 5 0.000000 0.000000 0.000000 0.000000 0.063924 0.000000
# 6 0.000000 0.000000 0.000000 0.000000 0.000000 -0.257285
#
#
# Mechanical properties :
#
#
# Convention : Reuss Voigt Hill
#
# Bulk Modulus (GPa) = 70.22176 75.25092 72.73634
# Shear Modulus (GPa) = -33.74463 44.48907 5.37222
#
# Velocity S-wave (km/s) = -3.69145 4.23859 1.47289
# Velocity P-wave (km/s) = 3.19186 7.37171 5.68023
#
# Compressibility (1/GPa) = 0.01424060
#
# Stress axis : x y z
#
# Youngs Moduli (GPa) = 140.62511 167.29386 157.47312
#
# Poissons Ratio (x) = -0.11288 0.16917
# Poissons Ratio (y) = -0.09488 0.34638
# Poissons Ratio (z) = 0.15107 0.36798
#
# Static dielectric constant tensor:
#      x y z
#    x 1.928680 0.000000 0.000000 
#    y 0.000000 2.011280 0.000000 
#    z 0.000000 0.000000 2.063780 
# 
# From -- ./inp_files/1055.got.cif
#   From: 2010.05.17/outbox.cif.g08.bks.cpg/sg64_1_cif.got.tgz:1055.got - 2010.06.03 16:29:19.
