data_PCOD9480178
_publ_section_title
;
Structure prediction by ZEFSAII (Michael W. Deem and Ramdas Pophale) SiO2 
 PCOD9480178
Probable space group: C M C A
;
_chemical_formula_sum "Si O2"
_cell_formula_units_Z 56
_cell_length_a 37.339562
_cell_length_b 5.061052
_cell_length_c 13.572130
_cell_angle_alpha 90.000000
_cell_angle_beta 90.000000
_cell_angle_gamma 90.000000
_cell_volume 2564.826721
_symmetry_space_group_name_H-M "C M C A"
_symmetry_group_IT_number 64
_symmetry_cell_setting 'orthorhombic'
loop_
_space_group_symop_operation_xyz
x,y,z
-x,1/2-y,1/2+z
x,-y,-z
-x,1/2+y,1/2-z
-x,-y,-z
x,1/2+y,1/2-z
-x,y,z
x,1/2-y,1/2+z
1/2+x,1/2+y,z
1/2-x,-y,1/2+z
1/2+x,1/2-y,-z
1/2-x,y,1/2-z
1/2-x,1/2-y,-z
1/2+x,y,1/2-z
1/2-x,1/2+y,z
1/2+x,-y,1/2+z
loop_
_atom_site_type_symbol
_atom_site_label
_atom_site_fract_x
_atom_site_fract_y
_atom_site_fract_z
Si Si1 0.039893 0.165532 0.819407
Si Si2 0.389709 0.739925 0.934890
Si Si3 0.822115 0.158618 0.312015
Si Si4 0.724134 0.500000 0.500000
O O1 0.042722 0.447350 0.765939
O O2 0.072587 0.139117 0.893475
O O3 0.000000 0.141134 0.863975
O O4 0.363431 0.823732 0.846265
O O5 0.373364 0.500000 0.000000
O O6 0.394972 0.000000 0.000000
O O7 0.813969 0.454202 0.275763
O O8 0.800795 0.048206 0.405468
O O9 0.750000 0.250000 0.500000
#
# Coordination Sequence:
#
# PCOD9480178 Si02
#       4
#    16  16  16   8
#     4  10  21  39  61  90 130 177 230 285 343 407
#     4  12  24  40  66  97 137 177 232 291 337 404
#     4  12  26  46  74 102 140 185 228 277 347 411
#     4  12  28  48  74 106 143 174 227 288 336 416
#
# _framework density 21.833834
#
# number of rings (size 3 to 8) (size 9 to 14) (size 15 to 20)
#    0.000    0.571    1.429    6.857    2.000    4.571 
#    0.000    0.000    0.000    0.000    0.000    0.000 
#    0.000    0.000    0.000    0.000    0.000    0.000 
#
# Total GULP energy -156652.625348 kJ/mol
# GULP energy per Si atom -5594.736620 kJ/mol
# Density = 2.178414 g / cm^3
# Si number density = 21.833834 Si / 1000 Ang^3
#
#
#
# Elastic Constant Matrix: (Units=GPa)
#
#
# Indices 1 2 3 4 5 6 
#
# 1 88.9894 22.0548 28.7227 0.0000 0.0000 0.0000
# 2 22.0548 73.6828 9.6827 0.0000 0.0000 0.0000
# 3 28.7227 9.6827 60.1264 0.0000 0.0000 0.0000
# 4 0.0000 0.0000 0.0000 35.9246 0.0000 0.0000
# 5 0.0000 0.0000 0.0000 0.0000 48.7191 0.0000
# 6 0.0000 0.0000 0.0000 0.0000 0.0000 34.6263
#
#
#
# Elastic Compliance Matrix: (Units=1/GPa)
#
#
# Indices 1 2 3 4 5 6 
#
# 1 0.014073 -0.003401 -0.006175 0.000000 0.000000 0.000000
# 2 -0.003401 0.014687 -0.000741 0.000000 0.000000 0.000000
# 3 -0.006175 -0.000741 0.019701 0.000000 0.000000 0.000000
# 4 0.000000 0.000000 0.000000 0.027836 0.000000 0.000000
# 5 0.000000 0.000000 0.000000 0.000000 0.020526 0.000000
# 6 0.000000 0.000000 0.000000 0.000000 0.000000 0.028880
#
#
# Mechanical properties :
#
#
# Convention : Reuss Voigt Hill
#
# Bulk Modulus (GPa) = 35.93536 38.19099 37.06317
# Shear Modulus (GPa) = 32.13118 34.67656 33.40387
#
# Velocity S-wave (km/s) = 3.84034 3.98955 3.91565
# Velocity P-wave (km/s) = 6.01320 6.22508 6.12006
#
# Compressibility (1/GPa) = 0.02782774
#
# Stress axis : x y z
#
# Youngs Moduli (GPa) = 71.05639 68.08750 50.75935
#
# Poissons Ratio (x) = 0.23156 0.31345
# Poissons Ratio (y) = 0.24166 0.03759
# Poissons Ratio (z) = 0.43879 0.05042
#
# Static dielectric constant tensor:
#      x y z
#    x 1.850290 0.000000 0.000000 
#    y 0.000000 1.753220 0.000000 
#    z 0.000000 0.000000 1.785760 
# 
# From -- ./inp_files/28211.got.cif
#   From: 2010.05.17/outbox.cif.g08.bks.cpg/sg64_15_cif.got.tgz:28211.got - 2010.06.03 16:29:19.
