data_PCOD9480037
_publ_section_title
;
Structure prediction by ZEFSAII (Michael W. Deem and Ramdas Pophale) SiO2 
 PCOD9480037
Probable space group: C M C A
;
_chemical_formula_sum "Si O2"
_cell_formula_units_Z 96
_cell_length_a 22.995435
_cell_length_b 13.185008
_cell_length_c 16.410908
_cell_angle_alpha 90.000000
_cell_angle_beta 90.000000
_cell_angle_gamma 90.000000
_cell_volume 4975.705160
_symmetry_space_group_name_H-M "C M C A"
_symmetry_group_IT_number 64
_symmetry_cell_setting 'orthorhombic'
loop_
_space_group_symop_operation_xyz
x,y,z
-x,1/2-y,1/2+z
x,-y,-z
-x,1/2+y,1/2-z
-x,-y,-z
x,1/2+y,1/2-z
-x,y,z
x,1/2-y,1/2+z
1/2+x,1/2+y,z
1/2-x,-y,1/2+z
1/2+x,1/2-y,-z
1/2-x,y,1/2-z
1/2-x,1/2-y,-z
1/2+x,y,1/2-z
1/2-x,1/2+y,z
1/2+x,-y,1/2+z
loop_
_atom_site_type_symbol
_atom_site_label
_atom_site_fract_x
_atom_site_fract_y
_atom_site_fract_z
Si Si1 0.698278 0.537697 0.683834
Si Si2 0.289466 0.685733 0.381305
Si Si3 0.374756 0.826278 0.292011
Si Si4 0.322080 0.216891 0.933018
Si Si5 0.068081 0.297171 0.655056
Si Si6 0.430681 0.019461 0.591641
O O1 0.750000 0.540720 0.750000
O O2 0.694257 0.424856 0.650164
O O3 0.643066 0.583352 0.731113
O O4 0.703321 0.614276 0.607592
O O5 0.317201 0.765771 0.318852
O O6 0.315178 0.709701 0.470551
O O7 0.220280 0.698130 0.393618
O O8 0.415614 0.748111 0.243392
O O9 0.402875 0.881809 0.368543
O O10 0.387488 0.240484 0.905823
O O11 0.079414 0.417081 0.643716
O O12 0.000000 0.279794 0.637277
O O13 0.500000 0.034714 0.587679
O O14 0.408824 0.000000 0.500000
#
# Coordination Sequence:
#
# PCOD9480037 Si02
#       6
#    16  16  16  16  16  16
#     4  11  23  37  58  87 123 152 190 245 295 361
#     4  11  23  38  61  89 121 157 193 245 306 363
#     4  11  22  38  60  89 119 159 197 245 298 360
#     4  10  23  41  60  88 122 156 200 242 300 366
#     4  10  22  39  62  87 120 162 203 252 299 352
#     4  10  21  38  60  88 119 154 202 250 293 346
#
# _framework density 19.293747
#
# number of rings (size 3 to 8) (size 9 to 14) (size 15 to 20)
#    0.000    1.500    1.667    3.000    7.000    0.000 
#    0.000    0.833    0.000   10.000    0.000    0.000 
#    0.000    0.000    0.000    0.000    0.000    0.000 
#
# Total GULP energy -267965.892374 kJ/mol
# GULP energy per Si atom -5582.622758 kJ/mol
# Density = 1.924983 g / cm^3
# Si number density = 19.293747 Si / 1000 Ang^3
#
#
#
# Elastic Constant Matrix: (Units=GPa)
#
#
# Indices 1 2 3 4 5 6 
#
# 1 83.7155 27.4590 23.1241 0.0000 0.0000 0.0000
# 2 27.4590 91.0220 29.1991 0.0000 0.0000 0.0000
# 3 23.1241 29.1991 75.5167 0.0000 0.0000 0.0000
# 4 0.0000 0.0000 0.0000 35.5906 0.0000 0.0000
# 5 0.0000 0.0000 0.0000 0.0000 18.8151 0.0000
# 6 0.0000 0.0000 0.0000 0.0000 0.0000 23.1756
#
#
#
# Elastic Compliance Matrix: (Units=1/GPa)
#
#
# Indices 1 2 3 4 5 6 
#
# 1 0.013825 -0.003211 -0.002992 0.000000 0.000000 0.000000
# 2 -0.003211 0.013288 -0.004155 0.000000 0.000000 0.000000
# 3 -0.002992 -0.004155 0.015765 0.000000 0.000000 0.000000
# 4 0.000000 0.000000 0.000000 0.028097 0.000000 0.000000
# 5 0.000000 0.000000 0.000000 0.000000 0.053149 0.000000
# 6 0.000000 0.000000 0.000000 0.000000 0.000000 0.043149
#
#
# Mechanical properties :
#
#
# Convention : Reuss Voigt Hill
#
# Bulk Modulus (GPa) = 45.12096 45.53541 45.32818
# Shear Modulus (GPa) = 25.59192 26.88106 26.23649
#
# Velocity S-wave (km/s) = 3.64598 3.73668 3.69161
# Velocity P-wave (km/s) = 6.41571 6.50149 6.45874
#
# Compressibility (1/GPa) = 0.02216265
#
# Stress axis : x y z
#
# Youngs Moduli (GPa) = 72.33384 75.25731 63.43306
#
# Poissons Ratio (x) = 0.24164 0.18978
# Poissons Ratio (y) = 0.23225 0.26354
# Poissons Ratio (z) = 0.21641 0.31267
#
# Static dielectric constant tensor:
#      x y z
#    x 1.662780 0.000000 0.000000 
#    y 0.000000 1.666010 0.000000 
#    z 0.000000 0.000000 1.688990 
# 
# From -- ./inp_files/34914.got.cif
#   From: 2010.05.17/outbox.cif.g08.bks.cpg/sg64_18_cif.got.tgz:34914.got - 2010.06.03 16:29:19.
