data_PCOD9480498
_publ_section_title
;
Structure prediction by ZEFSAII (Michael W. Deem and Ramdas Pophale) SiO2 
 PCOD9480498
Probable space group: C M C A
;
_chemical_formula_sum "Si O2"
_cell_formula_units_Z 80
_cell_length_a 18.470705
_cell_length_b 8.222898
_cell_length_c 18.915808
_cell_angle_alpha 90.000000
_cell_angle_beta 90.000000
_cell_angle_gamma 90.000000
_cell_volume 2872.984431
_symmetry_space_group_name_H-M "C M C A"
_symmetry_group_IT_number 64
_symmetry_cell_setting 'orthorhombic'
loop_
_space_group_symop_operation_xyz
x,y,z
-x,1/2-y,1/2+z
x,-y,-z
-x,1/2+y,1/2-z
-x,-y,-z
x,1/2+y,1/2-z
-x,y,z
x,1/2-y,1/2+z
1/2+x,1/2+y,z
1/2-x,-y,1/2+z
1/2+x,1/2-y,-z
1/2-x,y,1/2-z
1/2-x,1/2-y,-z
1/2+x,y,1/2-z
1/2-x,1/2+y,z
1/2+x,-y,1/2+z
loop_
_atom_site_type_symbol
_atom_site_label
_atom_site_fract_x
_atom_site_fract_y
_atom_site_fract_z
Si Si1 0.665153 0.474186 0.627118
Si Si2 0.696793 0.824053 0.607388
Si Si3 0.000000 0.966826 0.364290
Si Si4 0.000000 0.735572 0.747541
Si Si5 0.078954 0.189692 0.988725
Si Si6 0.364569 0.350163 0.169816
O O1 0.696793 0.651153 0.647834
O O2 0.727599 0.396005 0.576884
O O3 0.581157 0.506780 0.605113
O O4 0.670029 0.328332 0.685322
O O5 0.643615 0.779338 0.542860
O O6 0.668790 0.973598 0.655130
O O7 0.000000 0.781775 0.332081
O O8 0.000000 0.104975 0.301198
O O9 0.928817 0.637545 0.724806
O O10 0.102582 0.194884 0.907504
O O11 0.000000 0.271735 0.999786
O O12 0.068135 0.000000 0.000000
#
# Coordination Sequence:
#
# PCOD9480498 Si02
#       6
#    16  16   8   8  16  16
#     4  11  24  44  65 103 135 183 225 281 335 411
#     4  11  23  40  68  95 144 180 219 273 340 402
#     4  10  26  44  73 103 129 171 247 274 349 410
#     4  10  22  44  72  99 130 173 220 301 338 390
#     4   9  19  37  63 102 132 181 232 264 333 418
#     4  10  21  42  67  94 138 176 220 287 337 395
#
# _framework density 27.845607999999999
#
# number of rings (size 3 to 8) (size 9 to 14) (size 15 to 20)
#    0.000    1.800    3.000    0.000    5.600    1.600 
#    3.600    2.000    0.000    0.000    0.000    0.000 
#    0.000    0.000    0.000    0.000    0.000    0.000 
#
# Total GULP energy -222816.168619 kJ/mol
# GULP energy per Si atom -5570.404215 kJ/mol
# Density = 2.778223 g / cm^3
# Si number density = 27.845608 Si / 1000 Ang^3
#
#
#
# Elastic Constant Matrix: (Units=GPa)
#
#
# Indices 1 2 3 4 5 6 
#
# 1 193.9108 86.1056 36.3796 0.0000 0.0000 0.0000
# 2 86.1056 214.0698 24.3229 0.0000 0.0000 0.0000
# 3 36.3796 24.3229 62.5573 0.0000 0.0000 0.0000
# 4 0.0000 0.0000 0.0000 22.5635 0.0000 0.0000
# 5 0.0000 0.0000 0.0000 0.0000 23.8004 0.0000
# 6 0.0000 0.0000 0.0000 0.0000 0.0000 48.5829
#
#
#
# Elastic Compliance Matrix: (Units=1/GPa)
#
#
# Indices 1 2 3 4 5 6 
#
# 1 0.006782 -0.002385 -0.003017 0.000000 0.000000 0.000000
# 2 -0.002385 0.005726 -0.000839 0.000000 0.000000 0.000000
# 3 -0.003017 -0.000839 0.018066 0.000000 0.000000 0.000000
# 4 0.000000 0.000000 0.000000 0.044319 0.000000 0.000000
# 5 0.000000 0.000000 0.000000 0.000000 0.042016 0.000000
# 6 0.000000 0.000000 0.000000 0.000000 0.000000 0.020583
#
#
# Mechanical properties :
#
#
# Convention : Reuss Voigt Hill
#
# Bulk Modulus (GPa) = 55.27341 84.90602 70.08972
# Shear Modulus (GPa) = 32.05004 40.57134 36.31069
#
# Velocity S-wave (km/s) = 3.39631 3.82122 3.61501
# Velocity P-wave (km/s) = 5.93910 7.07297 6.53069
#
# Compressibility (1/GPa) = 0.01809188
#
# Stress axis : x y z
#
# Youngs Moduli (GPa) = 147.44651 174.63751 55.35268
#
# Poissons Ratio (x) = 0.41655 0.16698
# Poissons Ratio (y) = 0.35169 0.04646
# Poissons Ratio (z) = 0.44480 0.14657
#
# Static dielectric constant tensor:
#      x y z
#    x 2.348040 0.000000 0.000000 
#    y 0.000000 2.598960 0.000000 
#    z 0.000000 0.000000 2.188440 
# 
# From -- ./inp_files/50319.got.cif
#   From: 2010.05.17/outbox.cif.g08.bks.cpg/sg64_26_cif.got.tgz:50319.got - 2010.06.03 16:29:19.
