data_PCOD9480637
_publ_section_title
;
Structure prediction by ZEFSAII (Michael W. Deem and Ramdas Pophale) SiO2 
 PCOD9480637
Probable space group: C M C A
;
_chemical_formula_sum "Si O2"
_cell_formula_units_Z 116
_cell_length_a 23.411248
_cell_length_b 25.421464
_cell_length_c 9.830565
_cell_angle_alpha 90.000000
_cell_angle_beta 90.000000
_cell_angle_gamma 90.000000
_cell_volume 5850.643047
_symmetry_space_group_name_H-M "C M C A"
_symmetry_group_IT_number 64
_symmetry_cell_setting 'orthorhombic'
loop_
_space_group_symop_operation_xyz
x,y,z
-x,1/2-y,1/2+z
x,-y,-z
-x,1/2+y,1/2-z
-x,-y,-z
x,1/2+y,1/2-z
-x,y,z
x,1/2-y,1/2+z
1/2+x,1/2+y,z
1/2-x,-y,1/2+z
1/2+x,1/2-y,-z
1/2-x,y,1/2-z
1/2-x,1/2-y,-z
1/2+x,y,1/2-z
1/2-x,1/2+y,z
1/2+x,-y,1/2+z
loop_
_atom_site_type_symbol
_atom_site_label
_atom_site_fract_x
_atom_site_fract_y
_atom_site_fract_z
Si Si1 0.885157 0.239488 0.120136
Si Si2 0.227827 0.202920 0.595254
Si Si3 0.677389 0.136845 0.496720
Si Si4 0.682391 0.453790 0.778404
Si Si5 0.680603 0.572089 0.754433
Si Si6 0.892018 0.581248 0.021101
Si Si7 0.564669 0.197067 0.102567
Si Si8 0.500000 0.000000 0.000000
O O1 0.838511 0.286100 0.111128
O O2 0.856784 0.187529 0.054009
O O3 0.901229 0.223787 0.272773
O O4 0.933812 0.262524 0.023710
O O5 0.250000 0.205410 0.750000
O O6 0.250000 0.250000 0.500000
O O7 0.255947 0.153355 0.519000
O O8 0.670539 0.089535 0.392148
O O9 0.658340 0.116437 0.643480
O O10 0.750000 0.451370 0.750000
O O11 0.669013 0.514123 0.814937
O O12 0.645701 0.440677 0.645579
O O13 0.750000 0.576357 0.750000
O O14 0.648240 0.577530 0.612050
O O15 0.909550 0.640825 0.059431
O O16 0.948854 0.545962 0.002605
O O17 0.500000 0.188339 0.148759
#
# Coordination Sequence:
#
# PCOD9480637 Si02
#       8
#    16  16  16  16  16  16  16   4
#     4  11  25  44  65  96 135 181 229 280 338 416
#     4  10  22  38  58  94 135 176 220 268 331 418
#     4  11  23  39  64  99 142 178 214 277 351 423
#     4  11  23  41  68 103 138 182 227 288 357 420
#     4  11  24  41  66 104 144 177 224 290 356 425
#     4  12  25  46  76 102 138 184 239 290 352 418
#     4  12  27  46  69  96 130 180 237 295 344 399
#     4  12  24  52  80 102 132 188 248 296 326 428
#
# _framework density 19.826879999999999
#
# number of rings (size 3 to 8) (size 9 to 14) (size 15 to 20)
#    0.000    0.828    3.448    3.724    7.724    4.414 
#    0.000    0.000    1.517    0.828    0.000    0.000 
#    0.000    0.000    0.000    0.000    0.000    0.000 
#
# Total GULP energy -323380.431127 kJ/mol
# GULP energy per Si atom -5575.524675 kJ/mol
# Density = 1.978175 g / cm^3
# Si number density = 19.826880 Si / 1000 Ang^3
#
#
#
# Elastic Constant Matrix: (Units=GPa)
#
#
# Indices 1 2 3 4 5 6 
#
# 1 118.4804 25.7624 40.7026 0.0000 0.0000 0.0000
# 2 25.7624 105.2413 38.8263 0.0000 0.0000 0.0000
# 3 40.7026 38.8263 105.9099 0.0000 0.0000 0.0000
# 4 0.0000 0.0000 0.0000 33.6484 0.0000 0.0000
# 5 0.0000 0.0000 0.0000 0.0000 14.5985 0.0000
# 6 0.0000 0.0000 0.0000 0.0000 0.0000 9.4276
#
#
#
# Elastic Compliance Matrix: (Units=1/GPa)
#
#
# Indices 1 2 3 4 5 6 
#
# 1 0.009848 -0.001173 -0.003355 0.000000 0.000000 0.000000
# 2 -0.001173 0.011128 -0.003629 0.000000 0.000000 0.000000
# 3 -0.003355 -0.003629 0.012061 0.000000 0.000000 0.000000
# 4 0.000000 0.000000 0.000000 0.029719 0.000000 0.000000
# 5 0.000000 0.000000 0.000000 0.000000 0.068500 0.000000
# 6 0.000000 0.000000 0.000000 0.000000 0.000000 0.106072
#
#
# Mechanical properties :
#
#
# Convention : Reuss Voigt Hill
#
# Bulk Modulus (GPa) = 59.79257 60.02380 59.90818
# Shear Modulus (GPa) = 19.28899 26.49092 22.88996
#
# Velocity S-wave (km/s) = 3.12247 3.65925 3.40147
# Velocity P-wave (km/s) = 6.57439 6.94213 6.76076
#
# Compressibility (1/GPa) = 0.01672449
#
# Stress axis : x y z
#
# Youngs Moduli (GPa) = 101.54646 89.86484 82.90890
#
# Poissons Ratio (x) = 0.10542 0.27812
# Poissons Ratio (y) = 0.11912 0.30084
# Poissons Ratio (z) = 0.34064 0.32608
#
# Static dielectric constant tensor:
#      x y z
#    x 1.685540 0.000000 0.000000 
#    y 0.000000 1.727050 0.000000 
#    z 0.000000 0.000000 1.681270 
# 
# From -- ./inp_files/9738.got.cif
#   From: 2010.05.17/outbox.cif.g08.bks.cpg/sg64_5_cif.got.tgz:9738.got - 2010.06.03 16:29:19.
