data_PCOD9480313
_publ_section_title
;
Structure prediction by ZEFSAII (Michael W. Deem and Ramdas Pophale) SiO2 
 PCOD9480313
Probable space group: C M C A
;
_chemical_formula_sum "Si O2"
_cell_formula_units_Z 112
_cell_length_a 21.639991
_cell_length_b 23.003114
_cell_length_c 11.609224
_cell_angle_alpha 90.000000
_cell_angle_beta 90.000000
_cell_angle_gamma 90.000000
_cell_volume 5778.922876
_symmetry_space_group_name_H-M "C M C A"
_symmetry_group_IT_number 64
_symmetry_cell_setting 'orthorhombic'
loop_
_space_group_symop_operation_xyz
x,y,z
-x,1/2-y,1/2+z
x,-y,-z
-x,1/2+y,1/2-z
-x,-y,-z
x,1/2+y,1/2-z
-x,y,z
x,1/2-y,1/2+z
1/2+x,1/2+y,z
1/2-x,-y,1/2+z
1/2+x,1/2-y,-z
1/2-x,y,1/2-z
1/2-x,1/2-y,-z
1/2+x,y,1/2-z
1/2-x,1/2+y,z
1/2+x,-y,1/2+z
loop_
_atom_site_type_symbol
_atom_site_label
_atom_site_fract_x
_atom_site_fract_y
_atom_site_fract_z
Si Si1 0.370077 0.326607 0.849099
Si Si2 0.276452 0.088554 0.914687
Si Si3 0.185992 0.219644 0.540469
Si Si4 0.570673 0.645222 0.902322
Si Si5 0.792849 0.060508 0.147309
Si Si6 0.070562 0.723721 0.136250
Si Si7 0.846282 0.447548 0.289586
O O1 0.337975 0.264022 0.862940
O O2 0.321716 0.377408 0.822458
O O3 0.419074 0.316432 0.747910
O O4 0.395563 0.344560 0.975049
O O5 0.297909 0.154786 0.922711
O O6 0.212771 0.084977 0.844417
O O7 0.329969 0.053617 0.846404
O O8 0.251886 0.065833 0.037707
O O9 0.250000 0.250000 0.500000
O O10 0.129055 0.214322 0.449102
O O11 0.500000 0.633320 0.929209
O O12 0.574299 0.707197 0.837106
O O13 0.597887 0.592962 0.827737
O O14 0.750000 0.039834 0.250000
O O15 0.845320 0.010638 0.148983
O O16 0.000000 0.714641 0.089753
#
# Coordination Sequence:
#
# PCOD9480313 Si02
#       7
#    16  16  16  16  16  16  16
#     4  11  22  36  61  89 125 155 203 253 320 371
#     4  11  21  39  60  87 124 157 199 250 320 363
#     4  11  21  37  59  94 122 154 205 265 316 373
#     4  10  21  40  62  86 116 159 209 253 301 367
#     4  12  23  38  59  90 124 160 199 251 312 378
#     4  10  22  40  59  87 125 165 203 251 321 392
#     4  11  23  38  60  86 122 159 202 255 303 375
#
# _framework density 19.380773000000001
#
# number of rings (size 3 to 8) (size 9 to 14) (size 15 to 20)
#    0.000    1.143    4.286    3.429    0.000    1.714 
#    0.000    2.857    0.000    0.000    0.000    2.000 
#    0.000    0.000    0.000    0.000    0.000    0.000 
#
# Total GULP energy -312076.224693 kJ/mol
# GULP energy per Si atom -5572.789727 kJ/mol
# Density = 1.933666 g / cm^3
# Si number density = 19.380773 Si / 1000 Ang^3
#
#
#
# Elastic Constant Matrix: (Units=GPa)
#
#
# Indices 1 2 3 4 5 6 
#
# 1 59.6662 11.1907 4.7958 0.0000 0.0000 0.0000
# 2 11.1907 110.4521 22.5180 0.0000 0.0000 0.0000
# 3 4.7958 22.5180 36.7783 0.0000 0.0000 0.0000
# 4 0.0000 0.0000 0.0000 24.2707 0.0000 0.0000
# 5 0.0000 0.0000 0.0000 0.0000 19.3374 0.0000
# 6 0.0000 0.0000 0.0000 0.0000 0.0000 21.6384
#
#
#
# Elastic Compliance Matrix: (Units=1/GPa)
#
#
# Indices 1 2 3 4 5 6 
#
# 1 0.017142 -0.001464 -0.001339 0.000000 0.000000 0.000000
# 2 -0.001464 0.010470 -0.006220 0.000000 0.000000 0.000000
# 3 -0.001339 -0.006220 0.031172 0.000000 0.000000 0.000000
# 4 0.000000 0.000000 0.000000 0.041202 0.000000 0.000000
# 5 0.000000 0.000000 0.000000 0.000000 0.051713 0.000000
# 6 0.000000 0.000000 0.000000 0.000000 0.000000 0.046214
#
#
# Mechanical properties :
#
#
# Convention : Reuss Voigt Hill
#
# Bulk Modulus (GPa) = 24.54599 31.54507 28.04553
# Shear Modulus (GPa) = 21.78284 24.27545 23.02915
#
# Velocity S-wave (km/s) = 3.35616 3.54298 3.45084
# Velocity P-wave (km/s) = 5.26413 5.74881 5.51180
#
# Compressibility (1/GPa) = 0.04073986
#
# Stress axis : x y z
#
# Youngs Moduli (GPa) = 58.33603 95.51114 32.07957
#
# Poissons Ratio (x) = 0.13981 0.04296
# Poissons Ratio (y) = 0.08539 0.19952
# Poissons Ratio (z) = 0.07811 0.59403
#
# Static dielectric constant tensor:
#      x y z
#    x 1.692530 0.000000 0.000000 
#    y 0.000000 1.701920 0.000000 
#    z 0.000000 0.000000 1.667660 
# 
# From -- ./inp_files/17528.got.cif
#   From: 2010.05.17/outbox.cif.g08.bks.cpg/sg64_9_cif.got.tgz:17528.got - 2010.06.03 16:29:19.
