data_PCOD9480663
_publ_section_title
;
Structure prediction by ZEFSAII (Michael W. Deem and Ramdas Pophale) SiO2 
 PCOD9480663
Probable space group: C M C A
;
_chemical_formula_sum "Si O2"
_cell_formula_units_Z 116
_cell_length_a 17.919646
_cell_length_b 28.581405
_cell_length_c 11.877223
_cell_angle_alpha 90.000000
_cell_angle_beta 90.000000
_cell_angle_gamma 90.000000
_cell_volume 6083.141386
_symmetry_space_group_name_H-M "C M C A"
_symmetry_group_IT_number 64
_symmetry_cell_setting 'orthorhombic'
loop_
_space_group_symop_operation_xyz
x,y,z
-x,1/2-y,1/2+z
x,-y,-z
-x,1/2+y,1/2-z
-x,-y,-z
x,1/2+y,1/2-z
-x,y,z
x,1/2-y,1/2+z
1/2+x,1/2+y,z
1/2-x,-y,1/2+z
1/2+x,1/2-y,-z
1/2-x,y,1/2-z
1/2-x,1/2-y,-z
1/2+x,y,1/2-z
1/2-x,1/2+y,z
1/2+x,-y,1/2+z
loop_
_atom_site_type_symbol
_atom_site_label
_atom_site_fract_x
_atom_site_fract_y
_atom_site_fract_z
Si Si1 0.000000 0.000000 0.500000
Si Si2 0.585474 0.164699 0.168334
Si Si3 0.831607 0.585766 0.305665
Si Si4 0.673313 0.820304 0.059060
Si Si5 0.841031 0.650142 0.521697
Si Si6 0.084945 0.230091 0.119432
Si Si7 0.160282 0.103188 0.745191
Si Si8 0.917494 0.996630 0.269063
O O1 0.935899 0.992122 0.599781
O O2 0.500000 0.158541 0.133036
O O3 0.614207 0.119250 0.233659
O O4 0.589754 0.206942 0.257487
O O5 0.636788 0.173835 0.062371
O O6 0.750000 0.587601 0.250000
O O7 0.829319 0.608779 0.429785
O O8 0.865429 0.534220 0.292373
O O9 0.643957 0.771468 0.107394
O O10 0.647223 0.862013 0.141010
O O11 0.762018 0.824542 0.045445
O O12 0.895572 0.688543 0.467787
O O13 0.865112 0.628230 0.639788
O O14 0.000000 0.246757 0.100375
O O15 0.250000 0.095884 0.750000
O O16 0.118978 0.054312 0.732853
O O17 0.000000 0.995897 0.214161
#
# Coordination Sequence:
#
# PCOD9480663 Si02
#       8
#     4  16  16  16  16  16  16  16
#     4   8  24  40  64  98 132 156 218 264 314 384
#     4  10  22  38  62  94 126 164 221 273 319 390
#     4  11  21  39  65  93 127 170 216 266 323 383
#     4  11  22  40  65  90 128 173 218 269 327 392
#     4  10  23  43  62  92 129 166 220 273 319 394
#     4  10  23  40  60  92 126 167 215 271 335 387
#     4  10  24  42  61  93 129 169 213 263 328 386
#     4  10  23  40  64  96 126 167 209 261 326 378
#
# _framework density 19.069095000000001
#
# number of rings (size 3 to 8) (size 9 to 14) (size 15 to 20)
#    0.414    1.379    1.379    1.655    3.862    2.759 
#    2.483    0.690    0.000    0.000    0.000    0.000 
#    0.000    0.000    0.000    0.000    0.000    0.000 
#
# Total GULP energy -323275.572101 kJ/mol
# GULP energy per Si atom -5573.716760 kJ/mol
# Density = 1.902569 g / cm^3
# Si number density = 19.069095 Si / 1000 Ang^3
#
#
#
# Elastic Constant Matrix: (Units=GPa)
#
#
# Indices 1 2 3 4 5 6 
#
# 1 34.9800 20.1073 14.0417 0.0000 0.0000 0.0000
# 2 20.1073 84.8436 18.2334 0.0000 0.0000 0.0000
# 3 14.0417 18.2334 60.3341 0.0000 0.0000 0.0000
# 4 0.0000 0.0000 0.0000 9.9358 0.0000 0.0000
# 5 0.0000 0.0000 0.0000 0.0000 23.7368 0.0000
# 6 0.0000 0.0000 0.0000 0.0000 0.0000 20.8405
#
#
#
# Elastic Compliance Matrix: (Units=1/GPa)
#
#
# Indices 1 2 3 4 5 6 
#
# 1 0.035039 -0.007006 -0.006037 0.000000 0.000000 0.000000
# 2 -0.007006 0.014006 -0.002602 0.000000 0.000000 0.000000
# 3 -0.006037 -0.002602 0.018766 0.000000 0.000000 0.000000
# 4 0.000000 0.000000 0.000000 0.100646 0.000000 0.000000
# 5 0.000000 0.000000 0.000000 0.000000 0.042129 0.000000
# 6 0.000000 0.000000 0.000000 0.000000 0.000000 0.047983
#
#
# Mechanical properties :
#
#
# Convention : Reuss Voigt Hill
#
# Bulk Modulus (GPa) = 27.38300 31.65804 29.52052
# Shear Modulus (GPa) = 16.55444 19.42098 17.98771
#
# Velocity S-wave (km/s) = 2.94960 3.19478 3.07464
# Velocity P-wave (km/s) = 5.09816 5.49969 5.30273
#
# Compressibility (1/GPa) = 0.03651900
#
# Stress axis : x y z
#
# Youngs Moduli (GPa) = 28.53982 71.39749 53.28841
#
# Poissons Ratio (x) = 0.50025 0.32171
# Poissons Ratio (y) = 0.19996 0.13866
# Poissons Ratio (z) = 0.17230 0.18578
#
# Static dielectric constant tensor:
#      x y z
#    x 1.651780 0.000000 0.000000 
#    y 0.000000 1.655650 0.000000 
#    z 0.000000 0.000000 1.649150 
# 
# From -- ./inp_files/16480.got.cif
#   From: 2010.05.17/outbox.cif.g08.bks.cpg/sg64_9_cif.got.tgz:16480.got - 2010.06.03 16:29:19.
