data_PCOD9480890
_publ_section_title
;
Structure prediction by ZEFSAII (Michael W. Deem and Ramdas Pophale) SiO2 
 PCOD9480890
Probable space group: C M C A
;
_chemical_formula_sum "Si O2"
_cell_formula_units_Z 96
_cell_length_a 14.174709
_cell_length_b 12.994824
_cell_length_c 27.669114
_cell_angle_alpha 90.000000
_cell_angle_beta 90.000000
_cell_angle_gamma 90.000000
_cell_volume 5096.591274
_symmetry_space_group_name_H-M "C M C A"
_symmetry_group_IT_number 64
_symmetry_cell_setting 'orthorhombic'
loop_
_space_group_symop_operation_xyz
x,y,z
-x,1/2-y,1/2+z
x,-y,-z
-x,1/2+y,1/2-z
-x,-y,-z
x,1/2+y,1/2-z
-x,y,z
x,1/2-y,1/2+z
1/2+x,1/2+y,z
1/2-x,-y,1/2+z
1/2+x,1/2-y,-z
1/2-x,y,1/2-z
1/2-x,1/2-y,-z
1/2+x,y,1/2-z
1/2-x,1/2+y,z
1/2+x,-y,1/2+z
loop_
_atom_site_type_symbol
_atom_site_label
_atom_site_fract_x
_atom_site_fract_y
_atom_site_fract_z
Si Si1 0.888018 0.964213 0.554287
Si Si2 0.112156 0.661951 0.878938
Si Si3 0.790873 0.576065 0.301043
Si Si4 0.612345 0.211969 0.774337
Si Si5 0.386794 0.372200 0.170832
Si Si6 0.715310 0.799413 0.886061
O O1 0.870010 0.060491 0.589950
O O2 0.000000 0.940523 0.557287
O O3 0.866830 0.000000 0.500000
O O4 0.828874 0.866103 0.571385
O O5 0.137590 0.646295 0.822112
O O6 0.179588 0.755358 0.895216
O O7 0.000000 0.685781 0.881922
O O8 0.750000 0.537723 0.250000
O O9 0.855522 0.672691 0.285530
O O10 0.848019 0.487614 0.328260
O O11 0.718226 0.625942 0.339004
O O12 0.500000 0.208459 0.771176
O O13 0.646984 0.175178 0.722399
O O14 0.500000 0.371893 0.169111
O O15 0.345465 0.299980 0.129119
#
# Coordination Sequence:
#
# PCOD9480890 Si02
#       6
#    16  16  16  16  16  16
#     4  10  22  41  63  88 115 148 197 253 300 343
#     4   9  20  37  58  83 114 152 189 233 294 352
#     4  11  22  33  53  77 116 152 194 233 277 341
#     4   9  19  35  52  76 111 153 193 229 280 342
#     4  11  23  35  52  81 115 153 195 237 282 334
#     4  11  22  38  60  85 114 154 196 241 287 349
#
# _framework density 18.836119
#
# number of rings (size 3 to 8) (size 9 to 14) (size 15 to 20)
#    0.000    1.833    1.667    2.000    7.000    1.333 
#    0.000    0.000    0.000    0.500    0.000    0.000 
#    0.000    0.000    0.000    0.000    0.000    0.000 
#
# Total GULP energy -267982.109748 kJ/mol
# GULP energy per Si atom -5582.960620 kJ/mol
# Density = 1.879325 g / cm^3
# Si number density = 18.836119 Si / 1000 Ang^3
#
#
#
# Elastic Constant Matrix: (Units=GPa)
#
#
# Indices 1 2 3 4 5 6 
#
# 1 65.5612 30.7199 24.0289 0.0000 0.0000 0.0000
# 2 30.7199 84.8326 25.0668 0.0000 0.0000 0.0000
# 3 24.0289 25.0668 53.2537 0.0000 0.0000 0.0000
# 4 0.0000 0.0000 0.0000 23.2802 0.0000 0.0000
# 5 0.0000 0.0000 0.0000 0.0000 22.6466 0.0000
# 6 0.0000 0.0000 0.0000 0.0000 0.0000 30.7828
#
#
#
# Elastic Compliance Matrix: (Units=1/GPa)
#
#
# Indices 1 2 3 4 5 6 
#
# 1 0.020177 -0.005362 -0.006580 0.000000 0.000000 0.000000
# 2 -0.005362 0.015117 -0.004696 0.000000 0.000000 0.000000
# 3 -0.006580 -0.004696 0.023958 0.000000 0.000000 0.000000
# 4 0.000000 0.000000 0.000000 0.042955 0.000000 0.000000
# 5 0.000000 0.000000 0.000000 0.000000 0.044157 0.000000
# 6 0.000000 0.000000 0.000000 0.000000 0.000000 0.032486
#
#
# Mechanical properties :
#
#
# Convention : Reuss Voigt Hill
#
# Bulk Modulus (GPa) = 38.49895 40.36431 39.43163
# Shear Modulus (GPa) = 22.64641 23.59739 23.12190
#
# Velocity S-wave (km/s) = 3.47116 3.54329 3.50741
# Velocity P-wave (km/s) = 6.04554 6.18188 6.11409
#
# Compressibility (1/GPa) = 0.02597473
#
# Stress axis : x y z
#
# Youngs Moduli (GPa) = 49.56079 66.14885 41.74024
#
# Poissons Ratio (x) = 0.35471 0.27466
# Poissons Ratio (y) = 0.26576 0.19602
# Poissons Ratio (z) = 0.32612 0.31065
#
# Static dielectric constant tensor:
#      x y z
#    x 1.673560 0.000000 0.000000 
#    y 0.000000 1.640180 0.000000 
#    z 0.000000 0.000000 1.658210 
# 
# From -- ./inp_files/50375.got.cif
#   From: 2010.05.17/outbox.cif.g08.bks.cpg/sg64_26_cif.got.tgz:50375.got - 2010.06.03 16:29:19.
