data_PCOD9480734
_publ_section_title
;
Structure prediction by ZEFSAII (Michael W. Deem and Ramdas Pophale) SiO2 
 PCOD9480734
Probable space group: C M C A
;
_chemical_formula_sum "Si O2"
_cell_formula_units_Z 112
_cell_length_a 24.854749
_cell_length_b 10.442453
_cell_length_c 20.949580
_cell_angle_alpha 90.000000
_cell_angle_beta 90.000000
_cell_angle_gamma 90.000000
_cell_volume 5437.349277
_symmetry_space_group_name_H-M "C M C A"
_symmetry_group_IT_number 64
_symmetry_cell_setting 'orthorhombic'
loop_
_space_group_symop_operation_xyz
x,y,z
-x,1/2-y,1/2+z
x,-y,-z
-x,1/2+y,1/2-z
-x,-y,-z
x,1/2+y,1/2-z
-x,y,z
x,1/2-y,1/2+z
1/2+x,1/2+y,z
1/2-x,-y,1/2+z
1/2+x,1/2-y,-z
1/2-x,y,1/2-z
1/2-x,1/2-y,-z
1/2+x,y,1/2-z
1/2-x,1/2+y,z
1/2+x,-y,1/2+z
loop_
_atom_site_type_symbol
_atom_site_label
_atom_site_fract_x
_atom_site_fract_y
_atom_site_fract_z
Si Si1 0.440518 0.532647 0.424718
Si Si2 0.702535 0.876066 0.834430
Si Si3 0.562343 0.185458 0.528274
Si Si4 0.834642 0.875404 0.097517
Si Si5 0.618381 0.215907 0.903550
Si Si6 0.824947 0.614322 0.309100
Si Si7 0.217525 0.086179 0.559281
O O1 0.438893 0.500000 0.500000
O O2 0.500000 0.505210 0.399603
O O3 0.433781 0.684555 0.428842
O O4 0.401349 0.429988 0.393121
O O5 0.671437 0.764403 0.871016
O O6 0.764574 0.832071 0.823011
O O7 0.674790 0.902580 0.766736
O O8 0.709026 0.001904 0.877285
O O9 0.500000 0.142136 0.531236
O O10 0.610614 0.103162 0.558216
O O11 0.578412 0.220687 0.455259
O O12 0.780514 0.885105 0.055182
O O13 0.830698 0.981394 0.152968
O O14 0.630282 0.292720 0.839271
O O15 0.676905 0.204496 0.937399
O O16 0.200333 0.000000 0.500000
#
# Coordination Sequence:
#
# PCOD9480734 Si02
#       7
#    16  16  16  16  16  16  16
#     4   8  15  31  56  86 119 158 206 254 300 356
#     4  10  22  41  58  86 127 174 200 248 306 376
#     4  10  22  39  62  90 125 164 206 259 322 367
#     4  11  23  39  60  86 128 165 203 256 312 373
#     4  11  19  35  59  94 125 160 206 256 301 376
#     4  10  24  36  59  91 127 169 212 240 305 381
#     4  11  23  35  62  96 127 158 204 259 315 370
#
# _framework density 20.598271
#
# number of rings (size 3 to 8) (size 9 to 14) (size 15 to 20)
#    0.000    1.857    1.429    4.286    6.000    2.286 
#    0.000    2.143    0.000    2.571    0.000    0.000 
#    0.000    0.000    0.000    0.000    0.000    0.000 
#
# Total GULP energy -312507.690859 kJ/mol
# GULP energy per Si atom -5580.494480 kJ/mol
# Density = 2.055139 g / cm^3
# Si number density = 20.598271 Si / 1000 Ang^3
#
#
#
# Elastic Constant Matrix: (Units=GPa)
#
#
# Indices 1 2 3 4 5 6 
#
# 1 132.0899 29.5597 44.2541 0.0000 0.0000 0.0000
# 2 29.5597 44.5639 8.3871 0.0000 0.0000 0.0000
# 3 44.2541 8.3871 74.2426 0.0000 0.0000 0.0000
# 4 0.0000 0.0000 0.0000 19.8858 0.0000 0.0000
# 5 0.0000 0.0000 0.0000 0.0000 14.4473 0.0000
# 6 0.0000 0.0000 0.0000 0.0000 0.0000 39.5929
#
#
#
# Elastic Compliance Matrix: (Units=1/GPa)
#
#
# Indices 1 2 3 4 5 6 
#
# 1 0.010884 -0.006129 -0.005795 0.000000 0.000000 0.000000
# 2 -0.006129 0.026378 0.000673 0.000000 0.000000 0.000000
# 3 -0.005795 0.000673 0.016848 0.000000 0.000000 0.000000
# 4 0.000000 0.000000 0.000000 0.050287 0.000000 0.000000
# 5 0.000000 0.000000 0.000000 0.000000 0.069217 0.000000
# 6 0.000000 0.000000 0.000000 0.000000 0.000000 0.025257
#
#
# Mechanical properties :
#
#
# Convention : Reuss Voigt Hill
#
# Bulk Modulus (GPa) = 31.63720 46.14426 38.89073
# Shear Modulus (GPa) = 21.56029 26.03156 23.79592
#
# Velocity S-wave (km/s) = 3.23879 3.55882 3.40257
# Velocity P-wave (km/s) = 5.42023 6.27196 5.86159
#
# Compressibility (1/GPa) = 0.03160836
#
# Stress axis : x y z
#
# Youngs Moduli (GPa) = 91.88121 37.91022 59.35549
#
# Poissons Ratio (x) = 0.23233 0.34397
# Poissons Ratio (y) = 0.56310 -0.03996
# Poissons Ratio (z) = 0.53246 -0.02552
#
# Static dielectric constant tensor:
#      x y z
#    x 1.783460 0.000000 0.000000 
#    y 0.000000 1.803870 0.000000 
#    z 0.000000 0.000000 1.722680 
# 
# From -- ./inp_files/41548.got.cif
#   From: 2010.05.17/outbox.cif.g08.bks.cpg/sg64_21_cif.got.tgz:41548.got - 2010.06.03 16:29:19.
