data_PCOD9480016
_publ_section_title
;
Structure prediction by ZEFSAII (Michael W. Deem and Ramdas Pophale) SiO2 
 PCOD9480016
Probable space group: C M C A
;
_chemical_formula_sum "Si O2"
_cell_formula_units_Z 48
_cell_length_a 9.230691
_cell_length_b 16.040147
_cell_length_c 15.126373
_cell_angle_alpha 90.000000
_cell_angle_beta 90.000000
_cell_angle_gamma 90.000000
_cell_volume 2239.635602
_symmetry_space_group_name_H-M "C M C A"
_symmetry_group_IT_number 64
_symmetry_cell_setting 'orthorhombic'
loop_
_space_group_symop_operation_xyz
x,y,z
-x,1/2-y,1/2+z
x,-y,-z
-x,1/2+y,1/2-z
-x,-y,-z
x,1/2+y,1/2-z
-x,y,z
x,1/2-y,1/2+z
1/2+x,1/2+y,z
1/2-x,-y,1/2+z
1/2+x,1/2-y,-z
1/2-x,y,1/2-z
1/2-x,1/2-y,-z
1/2+x,y,1/2-z
1/2-x,1/2+y,z
1/2+x,-y,1/2+z
loop_
_atom_site_type_symbol
_atom_site_label
_atom_site_fract_x
_atom_site_fract_y
_atom_site_fract_z
Si Si1 0.247673 0.926317 0.611894
Si Si2 0.500000 0.015409 0.799272
Si Si3 0.500000 0.318324 0.937339
Si Si4 0.000000 0.559871 0.605700
Si Si5 0.000000 0.876571 0.475495
O O1 0.358569 0.848824 0.616604
O O2 0.139206 0.903449 0.532285
O O3 0.357514 0.002724 0.594353
O O4 0.138358 0.955157 0.689113
O O5 0.500000 0.071976 0.711764
O O6 0.500000 0.074350 0.884143
O O7 0.500000 0.221326 0.957176
O O8 0.500000 0.367611 0.032666
#
# Coordination Sequence:
#
# PCOD9480016 Si02
#       5
#    16   8   8   8   8
#     4  10  21  38  60  82 111 154 200 232 282 356
#     4  11  21  37  58  84 115 154 200 247 286 336
#     4  11  21  37  61  88 117 154 192 239 296 354
#     4  11  21  37  58  84 115 154 200 247 286 336
#     4  11  21  37  61  88 117 154 192 239 296 354
#
# _framework density 21.432058000000001
#
# number of rings (size 3 to 8) (size 9 to 14) (size 15 to 20)
#    0.000    1.333    0.000   10.000    0.000    0.000 
#    0.000   10.000    0.000    0.000    0.000    0.000 
#    0.000    0.000    0.000    0.000    0.000    0.000 
#
# Total GULP energy -134029.350900 kJ/mol
# GULP energy per Si atom -5584.556287 kJ/mol
# Density = 2.138328 g / cm^3
# Si number density = 21.432058 Si / 1000 Ang^3
#
#
#
# Elastic Constant Matrix: (Units=GPa)
#
#
# Indices 1 2 3 4 5 6 
#
# 1 182.4260 46.0512 24.8953 0.0000 0.0000 0.0000
# 2 46.0512 124.2213 16.0390 0.0000 0.0000 0.0000
# 3 24.8953 16.0390 71.1614 0.0000 0.0000 0.0000
# 4 0.0000 0.0000 0.0000 10.2500 0.0000 0.0000
# 5 0.0000 0.0000 0.0000 0.0000 46.0350 0.0000
# 6 0.0000 0.0000 0.0000 0.0000 0.0000 8.8607
#
#
#
# Elastic Compliance Matrix: (Units=1/GPa)
#
#
# Indices 1 2 3 4 5 6 
#
# 1 0.006244 -0.002094 -0.001713 0.000000 0.000000 0.000000
# 2 -0.002094 0.008993 -0.001295 0.000000 0.000000 0.000000
# 3 -0.001713 -0.001295 0.014943 0.000000 0.000000 0.000000
# 4 0.000000 0.000000 0.000000 0.097561 0.000000 0.000000
# 5 0.000000 0.000000 0.000000 0.000000 0.021723 0.000000
# 6 0.000000 0.000000 0.000000 0.000000 0.000000 0.112858
#
#
# Mechanical properties :
#
#
# Convention : Reuss Voigt Hill
#
# Bulk Modulus (GPa) = 50.05159 61.30884 55.68021
# Shear Modulus (GPa) = 17.90935 32.41736 25.16335
#
# Velocity S-wave (km/s) = 2.89387 3.89339 3.43023
# Velocity P-wave (km/s) = 5.87965 6.99139 6.45948
#
# Compressibility (1/GPa) = 0.01997939
#
# Stress axis : x y z
#
# Youngs Moduli (GPa) = 160.15672 111.19206 66.91893
#
# Poissons Ratio (x) = 0.23279 0.11460
# Poissons Ratio (y) = 0.33531 0.08663
# Poissons Ratio (z) = 0.27427 0.14395
#
# Static dielectric constant tensor:
#      x y z
#    x 1.818900 0.000000 0.000000 
#    y 0.000000 1.727420 0.000000 
#    z 0.000000 0.000000 1.871030 
# 
# From -- ./inp_files/20492.got.cif
#   From: 2010.05.17/outbox.cif.g08.bks.cpg/sg64_11_cif.got.tgz:20492.got - 2010.06.03 16:29:19.
