data_PCOD9480921
_publ_section_title
;
Structure prediction by ZEFSAII (Michael W. Deem and Ramdas Pophale) SiO2 
 PCOD9480921
Probable space group: C M C A
;
_chemical_formula_sum "Si O2"
_cell_formula_units_Z 88
_cell_length_a 16.894425
_cell_length_b 19.526579
_cell_length_c 13.125123
_cell_angle_alpha 90.000000
_cell_angle_beta 90.000000
_cell_angle_gamma 90.000000
_cell_volume 4329.851085
_symmetry_space_group_name_H-M "C M C A"
_symmetry_group_IT_number 64
_symmetry_cell_setting 'orthorhombic'
loop_
_space_group_symop_operation_xyz
x,y,z
-x,1/2-y,1/2+z
x,-y,-z
-x,1/2+y,1/2-z
-x,-y,-z
x,1/2+y,1/2-z
-x,y,z
x,1/2-y,1/2+z
1/2+x,1/2+y,z
1/2-x,-y,1/2+z
1/2+x,1/2-y,-z
1/2-x,y,1/2-z
1/2-x,1/2-y,-z
1/2+x,y,1/2-z
1/2-x,1/2+y,z
1/2+x,-y,1/2+z
loop_
_atom_site_type_symbol
_atom_site_label
_atom_site_fract_x
_atom_site_fract_y
_atom_site_fract_z
Si Si1 0.408415 0.089901 0.246416
Si Si2 0.405840 0.834464 0.346783
Si Si3 0.327492 0.620496 0.048649
Si Si4 0.782621 0.000000 0.500000
Si Si5 0.338665 0.556231 0.704251
Si Si6 0.801485 0.199222 0.351985
O O1 0.500000 0.098254 0.223016
O O2 0.387279 0.120882 0.356892
O O3 0.354169 0.131572 0.167642
O O4 0.384753 0.010334 0.244923
O O5 0.500000 0.826195 0.350254
O O6 0.373311 0.878062 0.442589
O O7 0.380327 0.875149 0.244816
O O8 0.360183 0.762830 0.359991
O O9 0.263288 0.681346 0.062052
O O10 0.275363 0.552176 0.057412
O O11 0.831008 0.043561 0.583118
O O12 0.250000 0.557343 0.750000
O O13 0.750000 0.210169 0.250000
#
# Coordination Sequence:
#
# PCOD9480921 Si02
#       6
#    16  16  16   8  16  16
#     4  11  21  39  63  94 129 164 210 271 329 376
#     4  12  25  41  63  98 134 167 216 282 334 378
#     4  11  21  39  68  95 124 170 222 267 318 394
#     4  12  22  40  70  96 122 166 232 264 310 390
#     4  12  22  41  65  93 127 174 219 267 321 398
#     4  10  22  41  65  91 128 180 218 258 319 403
#
# _framework density 20.324024999999999
#
# number of rings (size 3 to 8) (size 9 to 14) (size 15 to 20)
#    0.000    0.727    5.455    3.273    0.000    0.000 
#    0.000    4.545    0.000    0.000    0.000    0.000 
#    0.000    0.000    0.000    0.000    0.000    0.000 
#
# Total GULP energy -245809.444330 kJ/mol
# GULP energy per Si atom -5586.578280 kJ/mol
# Density = 2.027777 g / cm^3
# Si number density = 20.324025 Si / 1000 Ang^3
#
#
#
# Elastic Constant Matrix: (Units=GPa)
#
#
# Indices 1 2 3 4 5 6 
#
# 1 137.1112 23.0794 29.7871 0.0000 0.0000 0.0000
# 2 23.0794 65.9783 -10.6976 0.0000 0.0000 0.0000
# 3 29.7871 -10.6976 61.8102 0.0000 0.0000 0.0000
# 4 0.0000 0.0000 0.0000 23.1184 0.0000 0.0000
# 5 0.0000 0.0000 0.0000 0.0000 21.2796 0.0000
# 6 0.0000 0.0000 0.0000 0.0000 0.0000 23.9045
#
#
#
# Elastic Compliance Matrix: (Units=1/GPa)
#
#
# Indices 1 2 3 4 5 6 
#
# 1 0.009064 -0.003991 -0.005059 0.000000 0.000000 0.000000
# 2 -0.003991 0.017351 0.004926 0.000000 0.000000 0.000000
# 3 -0.005059 0.004926 0.019469 0.000000 0.000000 0.000000
# 4 0.000000 0.000000 0.000000 0.043256 0.000000 0.000000
# 5 0.000000 0.000000 0.000000 0.000000 0.046993 0.000000
# 6 0.000000 0.000000 0.000000 0.000000 0.000000 0.041833
#
#
# Mechanical properties :
#
#
# Convention : Reuss Voigt Hill
#
# Bulk Modulus (GPa) = 26.56918 38.80416 32.68667
# Shear Modulus (GPa) = 25.15606 28.50922 26.83264
#
# Velocity S-wave (km/s) = 3.52198 3.74937 3.63746
# Velocity P-wave (km/s) = 5.44429 6.15451 5.81026
#
# Compressibility (1/GPa) = 0.03763760
#
# Stress axis : x y z
#
# Youngs Moduli (GPa) = 110.32481 57.63264 51.36349
#
# Poissons Ratio (x) = 0.23001 0.25984
# Poissons Ratio (y) = 0.44030 -0.25303
# Poissons Ratio (z) = 0.55811 -0.28391
#
# Static dielectric constant tensor:
#      x y z
#    x 1.675180 0.000000 0.000000 
#    y 0.000000 1.743100 0.000000 
#    z 0.000000 0.000000 1.737870 
# 
# From -- ./inp_files/25407.got.cif
#   From: 2010.05.17/outbox.cif.g08.bks.cpg/sg64_13_cif.got.tgz:25407.got - 2010.06.03 16:29:19.
