data_PCOD9480870
_publ_section_title
;
Structure prediction by ZEFSAII (Michael W. Deem and Ramdas Pophale) SiO2 
 PCOD9480870
Probable space group: C M C A
;
_chemical_formula_sum "Si O2"
_cell_formula_units_Z 80
_cell_length_a 20.468315
_cell_length_b 13.791814
_cell_length_c 11.239274
_cell_angle_alpha 90.000000
_cell_angle_beta 90.000000
_cell_angle_gamma 90.000000
_cell_volume 3172.793027
_symmetry_space_group_name_H-M "C M C A"
_symmetry_group_IT_number 64
_symmetry_cell_setting 'orthorhombic'
loop_
_space_group_symop_operation_xyz
x,y,z
-x,1/2-y,1/2+z
x,-y,-z
-x,1/2+y,1/2-z
-x,-y,-z
x,1/2+y,1/2-z
-x,y,z
x,1/2-y,1/2+z
1/2+x,1/2+y,z
1/2-x,-y,1/2+z
1/2+x,1/2-y,-z
1/2-x,y,1/2-z
1/2-x,1/2-y,-z
1/2+x,y,1/2-z
1/2-x,1/2+y,z
1/2+x,-y,1/2+z
loop_
_atom_site_type_symbol
_atom_site_label
_atom_site_fract_x
_atom_site_fract_y
_atom_site_fract_z
Si Si1 0.000000 0.164484 0.608921
Si Si2 0.140312 0.121669 0.643475
Si Si3 0.883928 0.529112 0.626401
Si Si4 0.500000 0.317796 0.111847
Si Si5 0.852177 0.656519 0.290694
Si Si6 0.225786 0.849157 0.560853
O O1 0.934294 0.099185 0.608270
O O2 0.000000 0.211638 0.745844
O O3 0.000000 0.237305 0.493797
O O4 0.158561 0.077485 0.770504
O O5 0.135468 0.238084 0.656922
O O6 0.194522 0.094379 0.548719
O O7 0.855772 0.500000 0.500000
O O8 0.905113 0.426150 0.683927
O O9 0.938407 0.609913 0.600082
O O10 0.833632 0.667322 0.153136
O O11 0.786673 0.619884 0.358775
O O12 0.250000 0.750000 0.500000
#
# Coordination Sequence:
#
# PCOD9480870 Si02
#       6
#     8  16  16   8  16  16
#     4  10  22  40  73 106 141 190 240 288 370 423
#     4  10  23  41  69 101 139 182 239 291 360 431
#     4  11  24  42  66 104 142 181 236 289 362 432
#     4  10  23  44  73 110 142 196 242 304 357 441
#     4  10  22  42  67  97 136 188 229 300 360 417
#     4   9  21  43  67  95 138 184 243 294 360 426
#
# _framework density 25.214376999999999
#
# number of rings (size 3 to 8) (size 9 to 14) (size 15 to 20)
#    0.000    2.000    0.000    1.500   11.200    1.600 
#    7.200    1.000    0.000    3.600    0.000    0.000 
#    0.000    0.000    0.000    0.000    0.000    0.000 
#
# Total GULP energy -223252.128071 kJ/mol
# GULP energy per Si atom -5581.303202 kJ/mol
# Density = 2.515699 g / cm^3
# Si number density = 25.214377 Si / 1000 Ang^3
#
#
#
# Elastic Constant Matrix: (Units=GPa)
#
#
# Indices 1 2 3 4 5 6 
#
# 1 67.6923 8.2703 56.6458 0.0000 0.0000 0.0000
# 2 8.2703 104.1271 42.7103 0.0000 0.0000 0.0000
# 3 56.6458 42.7103 197.0247 0.0000 0.0000 0.0000
# 4 0.0000 0.0000 0.0000 50.3439 0.0000 0.0000
# 5 0.0000 0.0000 0.0000 0.0000 12.0655 0.0000
# 6 0.0000 0.0000 0.0000 0.0000 0.0000 12.6929
#
#
#
# Elastic Compliance Matrix: (Units=1/GPa)
#
#
# Indices 1 2 3 4 5 6 
#
# 1 0.019517 0.000825 -0.005790 0.000000 0.000000 0.000000
# 2 0.000825 0.010576 -0.002530 0.000000 0.000000 0.000000
# 3 -0.005790 -0.002530 0.007289 0.000000 0.000000 0.000000
# 4 0.000000 0.000000 0.000000 0.019863 0.000000 0.000000
# 5 0.000000 0.000000 0.000000 0.000000 0.082881 0.000000
# 6 0.000000 0.000000 0.000000 0.000000 0.000000 0.078784
#
#
# Mechanical properties :
#
#
# Convention : Reuss Voigt Hill
#
# Bulk Modulus (GPa) = 44.65982 64.89966 54.77974
# Shear Modulus (GPa) = 20.71557 32.43496 26.57526
#
# Velocity S-wave (km/s) = 2.86943 3.59049 3.25002
# Velocity P-wave (km/s) = 5.35991 6.55621 5.98801
#
# Compressibility (1/GPa) = 0.02239149
#
# Stress axis : x y z
#
# Youngs Moduli (GPa) = 51.23689 94.55583 137.20091
#
# Poissons Ratio (x) = -0.07799 0.79441
# Poissons Ratio (y) = -0.04226 0.34708
# Poissons Ratio (z) = 0.29667 0.23920
#
# Static dielectric constant tensor:
#      x y z
#    x 2.057650 0.000000 0.000000 
#    y 0.000000 2.040780 0.000000 
#    z 0.000000 0.000000 2.048070 
# 
# From -- ./inp_files/18134.got.cif
#   From: 2010.05.17/outbox.cif.g08.bks.cpg/sg64_10_cif.got.tgz:18134.got - 2010.06.03 16:29:19.
