data_PCOD9480283
_publ_section_title
;
Structure prediction by ZEFSAII (Michael W. Deem and Ramdas Pophale) SiO2 
 PCOD9480283
Probable space group: C M C A
;
_chemical_formula_sum "Si O2"
_cell_formula_units_Z 96
_cell_length_a 14.611761
_cell_length_b 14.101064
_cell_length_c 21.346408
_cell_angle_alpha 90.000000
_cell_angle_beta 90.000000
_cell_angle_gamma 90.000000
_cell_volume 4398.243299
_symmetry_space_group_name_H-M "C M C A"
_symmetry_group_IT_number 64
_symmetry_cell_setting 'orthorhombic'
loop_
_space_group_symop_operation_xyz
x,y,z
-x,1/2-y,1/2+z
x,-y,-z
-x,1/2+y,1/2-z
-x,-y,-z
x,1/2+y,1/2-z
-x,y,z
x,1/2-y,1/2+z
1/2+x,1/2+y,z
1/2-x,-y,1/2+z
1/2+x,1/2-y,-z
1/2-x,y,1/2-z
1/2-x,1/2-y,-z
1/2+x,y,1/2-z
1/2-x,1/2+y,z
1/2+x,-y,1/2+z
loop_
_atom_site_type_symbol
_atom_site_label
_atom_site_fract_x
_atom_site_fract_y
_atom_site_fract_z
Si Si1 0.110278 0.857170 0.669303
Si Si2 0.897052 0.803055 0.255997
Si Si3 0.795867 0.944879 0.343409
Si Si4 0.337387 0.749991 0.953423
Si Si5 0.399413 0.420339 0.127101
Si Si6 0.597630 0.904646 0.039706
O O1 0.127169 0.803378 0.735006
O O2 0.166921 0.807430 0.612689
O O3 0.000000 0.850152 0.656625
O O4 0.141789 0.965286 0.672248
O O5 0.823678 0.861248 0.295843
O O6 0.905328 0.853191 0.188239
O O7 0.000000 0.805455 0.284471
O O8 0.691362 0.977903 0.353847
O O9 0.824234 0.900707 0.409604
O O10 0.376097 0.647867 0.932038
O O11 0.250000 0.750000 0.000000
O O12 0.403575 0.815589 0.994433
O O13 0.500000 0.465262 0.118931
O O14 0.500000 0.913971 0.072779
O O15 0.611068 0.000000 0.000000
#
# Coordination Sequence:
#
# PCOD9480283 Si02
#       6
#    16  16  16  16  16  16
#     4  10  21  39  67  99 134 172 216 275 341 395
#     4   9  20  39  63  93 127 163 208 267 337 398
#     4  12  21  37  66  99 127 168 227 273 321 397
#     4  11  20  37  60  90 127 171 215 261 326 401
#     4  10  22  40  60  84 126 177 215 260 330 393
#     4  11  21  34  61  98 129 156 209 280 332 381
#
# _framework density 21.826896999999999
#
# number of rings (size 3 to 8) (size 9 to 14) (size 15 to 20)
#    0.000    1.500    3.333    4.500    0.000    0.000 
#    0.000    6.667    0.000   11.500    0.000    0.000 
#    0.000    0.000    0.000    0.000    0.000    0.000 
#
# Total GULP energy -267511.757413 kJ/mol
# GULP energy per Si atom -5573.161613 kJ/mol
# Density = 2.177722 g / cm^3
# Si number density = 21.826897 Si / 1000 Ang^3
#
#
#
# Elastic Constant Matrix: (Units=GPa)
#
#
# Indices 1 2 3 4 5 6 
#
# 1 146.8882 28.5184 55.7602 0.0000 0.0000 0.0000
# 2 28.5184 58.1128 29.2518 0.0000 0.0000 0.0000
# 3 55.7602 29.2518 62.8235 0.0000 0.0000 0.0000
# 4 0.0000 0.0000 0.0000 27.1328 0.0000 0.0000
# 5 0.0000 0.0000 0.0000 0.0000 27.4466 0.0000
# 6 0.0000 0.0000 0.0000 0.0000 0.0000 35.0006
#
#
#
# Elastic Compliance Matrix: (Units=1/GPa)
#
#
# Indices 1 2 3 4 5 6 
#
# 1 0.010283 -0.000591 -0.008852 0.000000 0.000000 0.000000
# 2 -0.000591 0.022510 -0.009957 0.000000 0.000000 0.000000
# 3 -0.008852 -0.009957 0.028410 0.000000 0.000000 0.000000
# 4 0.000000 0.000000 0.000000 0.036856 0.000000 0.000000
# 5 0.000000 0.000000 0.000000 0.000000 0.036434 0.000000
# 6 0.000000 0.000000 0.000000 0.000000 0.000000 0.028571
#
#
# Mechanical properties :
#
#
# Convention : Reuss Voigt Hill
#
# Bulk Modulus (GPa) = 44.63385 54.98728 49.81056
# Shear Modulus (GPa) = 23.88576 28.20226 26.04401
#
# Velocity S-wave (km/s) = 3.31165 3.59846 3.45803
# Velocity P-wave (km/s) = 5.92588 6.52015 6.23011
#
# Compressibility (1/GPa) = 0.02240452
#
# Stress axis : x y z
#
# Youngs Moduli (GPa) = 97.25036 44.42554 35.19871
#
# Poissons Ratio (x) = 0.02624 0.31157
# Poissons Ratio (y) = 0.05743 0.35046
# Poissons Ratio (z) = 0.86083 0.44233
#
# Static dielectric constant tensor:
#      x y z
#    x 1.891230 0.000000 0.000000 
#    y 0.000000 1.794240 0.000000 
#    z 0.000000 0.000000 1.794520 
# 
# From -- ./inp_files/39219.got.cif
#   From: 2010.05.17/outbox.cif.g08.bks.cpg/sg64_20_cif.got.tgz:39219.got - 2010.06.03 16:29:19.
