data_PCOD9480812
_publ_section_title
;
Structure prediction by ZEFSAII (Michael W. Deem and Ramdas Pophale) SiO2 
 PCOD9480812
Probable space group: C M C A
;
_chemical_formula_sum "Si O2"
_cell_formula_units_Z 80
_cell_length_a 22.834120
_cell_length_b 13.721413
_cell_length_c 11.801604
_cell_angle_alpha 90.000000
_cell_angle_beta 90.000000
_cell_angle_gamma 90.000000
_cell_volume 3697.635973
_symmetry_space_group_name_H-M "C M C A"
_symmetry_group_IT_number 64
_symmetry_cell_setting 'orthorhombic'
loop_
_space_group_symop_operation_xyz
x,y,z
-x,1/2-y,1/2+z
x,-y,-z
-x,1/2+y,1/2-z
-x,-y,-z
x,1/2+y,1/2-z
-x,y,z
x,1/2-y,1/2+z
1/2+x,1/2+y,z
1/2-x,-y,1/2+z
1/2+x,1/2-y,-z
1/2-x,y,1/2-z
1/2-x,1/2-y,-z
1/2+x,y,1/2-z
1/2-x,1/2+y,z
1/2+x,-y,1/2+z
loop_
_atom_site_type_symbol
_atom_site_label
_atom_site_fract_x
_atom_site_fract_y
_atom_site_fract_z
Si Si1 0.662450 0.427402 0.656120
Si Si2 0.430446 0.090890 0.842048
Si Si3 0.351655 0.757917 0.021402
Si Si4 0.937325 0.099210 0.929118
Si Si5 0.294218 0.422026 0.905168
O O1 0.607917 0.496004 0.624626
O O2 0.656904 0.328196 0.585763
O O3 0.666437 0.423863 0.792016
O O4 0.728385 0.459400 0.622836
O O5 0.500000 0.092832 0.877313
O O6 0.390026 0.180025 0.888116
O O7 0.430720 0.088304 0.705343
O O8 0.296257 0.693820 0.064696
O O9 0.389950 0.669175 0.978749
O O10 0.000000 0.148800 0.947850
O O11 0.938434 0.000000 0.000000
O O12 0.313589 0.500000 0.000000
#
# Coordination Sequence:
#
# PCOD9480812 Si02
#       5
#    16  16  16  16  16
#     4  11  25  42  65  96 129 170 216 264 323 383
#     4  11  24  42  65  95 132 172 214 265 324 384
#     4  12  22  39  64  94 128 167 215 269 321 380
#     4  10  22  40  62  90 126 169 216 264 319 385
#     4  11  24  44  67  93 129 171 216 267 320 381
#
# _framework density 21.635445000000001
#
# number of rings (size 3 to 8) (size 9 to 14) (size 15 to 20)
#    0.000    1.000    0.000    7.200    0.000    2.400 
#    0.000    9.000    0.000    0.000    0.000    0.000 
#    0.000    0.000    0.000    0.000    0.000    0.000 
#
# Total GULP energy -222948.282276 kJ/mol
# GULP energy per Si atom -5573.707057 kJ/mol
# Density = 2.158620 g / cm^3
# Si number density = 21.635445 Si / 1000 Ang^3
#
#
#
# Elastic Constant Matrix: (Units=GPa)
#
#
# Indices 1 2 3 4 5 6 
#
# 1 104.1328 40.6505 27.5288 0.0000 0.0000 0.0000
# 2 40.6505 110.8153 52.9417 0.0000 0.0000 0.0000
# 3 27.5288 52.9417 145.3641 0.0000 0.0000 0.0000
# 4 0.0000 0.0000 0.0000 26.1051 0.0000 0.0000
# 5 0.0000 0.0000 0.0000 0.0000 -14.6998 0.0000
# 6 0.0000 0.0000 0.0000 0.0000 0.0000 22.2799
#
#
#
# Elastic Compliance Matrix: (Units=1/GPa)
#
#
# Indices 1 2 3 4 5 6 
#
# 1 0.011277 -0.003773 -0.000762 0.000000 0.000000 0.000000
# 2 -0.003773 0.012187 -0.003724 0.000000 0.000000 0.000000
# 3 -0.000762 -0.003724 0.008380 0.000000 0.000000 0.000000
# 4 0.000000 0.000000 0.000000 0.038307 0.000000 0.000000
# 5 0.000000 0.000000 0.000000 0.000000 -0.068028 0.000000
# 6 0.000000 0.000000 0.000000 0.000000 0.000000 0.044883
#
#
# Mechanical properties :
#
#
# Convention : Reuss Voigt Hill
#
# Bulk Modulus (GPa) = 65.24399 66.95045 66.09722
# Shear Modulus (GPa) = 72.85153 22.68313 47.76733
#
# Velocity S-wave (km/s) = 5.80908 3.24145 4.70385
# Velocity P-wave (km/s) = 8.67268 6.70979 7.75360
#
# Compressibility (1/GPa) = 0.01532708
#
# Stress axis : x y z
#
# Youngs Moduli (GPa) = 88.67342 82.05281 119.33455
#
# Poissons Ratio (x) = 0.30959 0.09088
# Poissons Ratio (y) = 0.33457 0.44441
# Poissons Ratio (z) = 0.06753 0.30557
#
# Static dielectric constant tensor:
#      x y z
#    x 1.880450 0.000000 0.000000 
#    y 0.000000 1.782720 0.000000 
#    z 0.000000 0.000000 1.870160 
# 
# From -- ./inp_files/18033.got.cif
#   From: 2010.05.17/outbox.cif.g08.bks.cpg/sg64_10_cif.got.tgz:18033.got - 2010.06.03 16:29:19.
