data_PCOD9480627
_publ_section_title
;
Structure prediction by ZEFSAII (Michael W. Deem and Ramdas Pophale) SiO2 
 PCOD9480627
Probable space group: C M C A
;
_chemical_formula_sum "Si O2"
_cell_formula_units_Z 112
_cell_length_a 29.396439
_cell_length_b 15.626015
_cell_length_c 10.981484
_cell_angle_alpha 90.000000
_cell_angle_beta 90.000000
_cell_angle_gamma 90.000000
_cell_volume 5044.335855
_symmetry_space_group_name_H-M "C M C A"
_symmetry_group_IT_number 64
_symmetry_cell_setting 'orthorhombic'
loop_
_space_group_symop_operation_xyz
x,y,z
-x,1/2-y,1/2+z
x,-y,-z
-x,1/2+y,1/2-z
-x,-y,-z
x,1/2+y,1/2-z
-x,y,z
x,1/2-y,1/2+z
1/2+x,1/2+y,z
1/2-x,-y,1/2+z
1/2+x,1/2-y,-z
1/2-x,y,1/2-z
1/2-x,1/2-y,-z
1/2+x,y,1/2-z
1/2-x,1/2+y,z
1/2+x,-y,1/2+z
loop_
_atom_site_type_symbol
_atom_site_label
_atom_site_fract_x
_atom_site_fract_y
_atom_site_fract_z
Si Si1 0.948404 0.111558 0.200432
Si Si2 0.200584 0.817828 0.804806
Si Si3 0.628898 0.085412 0.937364
Si Si4 0.050727 0.313710 0.198110
Si Si5 0.332663 0.743818 0.445455
Si Si6 0.089709 0.119013 0.937083
Si Si7 0.139593 0.984762 0.781470
O O1 0.941709 0.212849 0.221073
O O2 0.908470 0.057543 0.260870
O O3 0.000000 0.088236 0.232595
O O4 0.938534 0.098459 0.057003
O O5 0.250000 0.837377 0.750000
O O6 0.180780 0.755192 0.697759
O O7 0.171536 0.905389 0.812028
O O8 0.198409 0.777710 0.941254
O O9 0.588770 0.144480 0.886103
O O10 0.657190 0.047631 0.823511
O O11 0.658396 0.144399 0.025133
O O12 0.611438 0.000000 0.000000
O O13 0.056067 0.361093 0.326515
O O14 0.000000 0.322994 0.147117
O O15 0.378891 0.798128 0.459008
O O16 0.124757 0.047233 0.890291
#
# Coordination Sequence:
#
# PCOD9480627 Si02
#       7
#    16  16  16  16  16  16  16
#     4  11  22  38  64  97 137 182 237 292 348 423
#     4  12  26  47  75 110 144 181 234 293 356 430
#     4  11  22  40  69  90 130 183 231 290 352 415
#     4  10  22  38  57  94 139 186 238 292 347 415
#     4  12  24  48  75 103 137 189 235 288 354 437
#     4  11  22  39  69  94 134 188 239 285 354 419
#     4  11  23  42  64 101 138 182 227 294 356 413
#
# _framework density 22.203120999999999
#
# number of rings (size 3 to 8) (size 9 to 14) (size 15 to 20)
#    0.000    0.857    4.286    3.857    0.000    3.714 
#    0.000    5.714    0.000    0.000    0.000    0.000 
#    0.000    0.000    0.000    0.000    0.000    0.000 
#
# Total GULP energy -312810.135664 kJ/mol
# GULP energy per Si atom -5585.895280 kJ/mol
# Density = 2.215259 g / cm^3
# Si number density = 22.203121 Si / 1000 Ang^3
#
#
#
# Elastic Constant Matrix: (Units=GPa)
#
#
# Indices 1 2 3 4 5 6 
#
# 1 58.6410 25.8245 -8.0394 0.0000 0.0000 0.0000
# 2 25.8245 103.0176 19.8347 0.0000 0.0000 0.0000
# 3 -8.0394 19.8347 75.4992 0.0000 0.0000 0.0000
# 4 0.0000 0.0000 0.0000 30.2664 0.0000 0.0000
# 5 0.0000 0.0000 0.0000 0.0000 -267.5414 0.0000
# 6 0.0000 0.0000 0.0000 0.0000 0.0000 9.1319
#
#
#
# Elastic Compliance Matrix: (Units=1/GPa)
#
#
# Indices 1 2 3 4 5 6 
#
# 1 0.020078 -0.005735 0.003645 0.000000 0.000000 0.000000
# 2 -0.005735 0.011862 -0.003727 0.000000 0.000000 0.000000
# 3 0.003645 -0.003727 0.014612 0.000000 0.000000 0.000000
# 4 0.000000 0.000000 0.000000 0.033040 0.000000 0.000000
# 5 0.000000 0.000000 0.000000 0.000000 -0.003738 0.000000
# 6 0.000000 0.000000 0.000000 0.000000 0.000000 0.109506
#
#
# Mechanical properties :
#
#
# Convention : Reuss Voigt Hill
#
# Bulk Modulus (GPa) = 28.63840 34.71083 31.67461
# Shear Modulus (GPa) = 23.96525 -32.32608 -4.18041
#
# Velocity S-wave (km/s) = 3.28893 -3.81980 -1.37364
# Velocity P-wave (km/s) = 5.22964 1.94608 3.43234
#
# Compressibility (1/GPa) = 0.03491815
#
# Stress axis : x y z
#
# Youngs Moduli (GPa) = 49.80538 84.30058 68.43494
#
# Poissons Ratio (x) = 0.48346 -0.24942
# Poissons Ratio (y) = 0.28563 0.25506
# Poissons Ratio (z) = -0.18152 0.31419
#
# Static dielectric constant tensor:
#      x y z
#    x 1.803740 0.000000 0.000000 
#    y 0.000000 1.838350 0.000000 
#    z 0.000000 0.000000 1.887660 
# 
# From -- ./inp_files/19853.got.cif
#   From: 2010.05.17/outbox.cif.g08.bks.cpg/sg64_10_cif.got.tgz:19853.got - 2010.06.03 16:29:19.
