data_PCOD9480569
_publ_section_title
;
Structure prediction by ZEFSAII (Michael W. Deem and Ramdas Pophale) SiO2 
 PCOD9480569
Probable space group: C M C A
;
_chemical_formula_sum "Si O2"
_cell_formula_units_Z 104
_cell_length_a 15.153146
_cell_length_b 24.333508
_cell_length_c 16.067717
_cell_angle_alpha 90.000000
_cell_angle_beta 90.000000
_cell_angle_gamma 90.000000
_cell_volume 5924.636426
_symmetry_space_group_name_H-M "C M C A"
_symmetry_group_IT_number 64
_symmetry_cell_setting 'orthorhombic'
loop_
_space_group_symop_operation_xyz
x,y,z
-x,1/2-y,1/2+z
x,-y,-z
-x,1/2+y,1/2-z
-x,-y,-z
x,1/2+y,1/2-z
-x,y,z
x,1/2-y,1/2+z
1/2+x,1/2+y,z
1/2-x,-y,1/2+z
1/2+x,1/2-y,-z
1/2-x,y,1/2-z
1/2-x,1/2-y,-z
1/2+x,y,1/2-z
1/2-x,1/2+y,z
1/2+x,-y,1/2+z
loop_
_atom_site_type_symbol
_atom_site_label
_atom_site_fract_x
_atom_site_fract_y
_atom_site_fract_z
Si Si1 0.679700 0.829665 0.681184
Si Si2 0.500000 0.700664 0.858207
Si Si3 0.000000 0.256795 0.039547
Si Si4 0.194919 0.221495 0.572247
Si Si5 0.397061 0.541760 0.879330
Si Si6 0.396643 0.580836 0.070331
Si Si7 0.500000 0.702614 0.223608
Si Si8 0.309107 0.143281 0.670707
O O1 0.750000 0.844844 0.750000
O O2 0.694498 0.767802 0.645890
O O3 0.665370 0.871202 0.604523
O O4 0.588282 0.831042 0.730971
O O5 0.500000 0.750237 0.792386
O O6 0.592645 0.669518 0.839787
O O7 0.500000 0.720281 0.955083
O O8 0.906255 0.288003 0.044075
O O9 0.000000 0.224140 0.127522
O O10 0.250000 0.250000 0.500000
O O11 0.247799 0.167293 0.597844
O O12 0.500000 0.548403 0.854456
O O13 0.378844 0.477052 0.883931
O O14 0.330277 0.578716 0.827696
O O15 0.389351 0.566912 0.972764
O O16 0.500000 0.595530 0.083908
O O17 0.250000 0.158747 0.750000
#
# Coordination Sequence:
#
# PCOD9480569 Si02
#       8
#    16   8   8  16  16  16   8  16
#     4  11  21  33  53  78 111 146 177 230 289 328
#     4  12  22  38  57  78 119 160 198 228 287 346
#     4  10  22  36  58  76 111 167 184 236 287 328
#     4  11  21  35  53  82 112 147 196 226 272 352
#     4   9  19  36  59  82 105 140 190 240 292 341
#     4   9  18  35  59  83 105 136 188 245 287 341
#     4  10  22  36  49  80 117 142 192 230 276 334
#     4  12  23  35  55  82 117 152 191 240 286 345
#
# _framework density 17.553820000000002
#
# number of rings (size 3 to 8) (size 9 to 14) (size 15 to 20)
#    0.000    1.538    3.077    5.077    2.154    0.615 
#    0.000    0.000    0.000    0.000    0.000    0.000 
#    0.000    4.923    0.000    0.000    0.000    0.000 
#
# Total GULP energy -289746.663866 kJ/mol
# GULP energy per Si atom -5572.051228 kJ/mol
# Density = 1.751387 g / cm^3
# Si number density = 17.553820 Si / 1000 Ang^3
#
#
#
# Elastic Constant Matrix: (Units=GPa)
#
#
# Indices 1 2 3 4 5 6 
#
# 1 126.5652 15.3832 21.9444 0.0000 0.0000 0.0000
# 2 15.3832 48.7476 2.7315 0.0000 0.0000 0.0000
# 3 21.9444 2.7315 51.7305 0.0000 0.0000 0.0000
# 4 0.0000 0.0000 0.0000 24.5078 0.0000 0.0000
# 5 0.0000 0.0000 0.0000 0.0000 29.2640 0.0000
# 6 0.0000 0.0000 0.0000 0.0000 0.0000 22.8326
#
#
#
# Elastic Compliance Matrix: (Units=1/GPa)
#
#
# Indices 1 2 3 4 5 6 
#
# 1 0.008842 -0.002588 -0.003614 0.000000 0.000000 0.000000
# 2 -0.002588 0.021332 -0.000029 0.000000 0.000000 0.000000
# 3 -0.003614 -0.000029 0.020866 0.000000 0.000000 0.000000
# 4 0.000000 0.000000 0.000000 0.040803 0.000000 0.000000
# 5 0.000000 0.000000 0.000000 0.000000 0.034172 0.000000
# 6 0.000000 0.000000 0.000000 0.000000 0.000000 0.043797
#
#
# Mechanical properties :
#
#
# Convention : Reuss Voigt Hill
#
# Bulk Modulus (GPa) = 25.92118 34.12908 30.02513
# Shear Modulus (GPa) = 25.62354 27.78649 26.70501
#
# Velocity S-wave (km/s) = 3.82476 3.98292 3.90464
# Velocity P-wave (km/s) = 5.85695 6.37466 6.12128
#
# Compressibility (1/GPa) = 0.03857850
#
# Stress axis : x y z
#
# Youngs Moduli (GPa) = 113.09330 46.87779 47.92561
#
# Poissons Ratio (x) = 0.12131 0.17322
# Poissons Ratio (y) = 0.29266 0.00137
# Poissons Ratio (z) = 0.40875 0.00134
#
# Static dielectric constant tensor:
#      x y z
#    x 1.595680 0.000000 0.000000 
#    y 0.000000 1.624740 0.000000 
#    z 0.000000 0.000000 1.693410 
# 
# From -- ./inp_files/32498.got.cif
#   From: 2010.05.17/outbox.cif.g08.bks.cpg/sg64_17_cif.got.tgz:32498.got - 2010.06.03 16:29:19.
