data_PCOD9480347
_publ_section_title
;
Structure prediction by ZEFSAII (Michael W. Deem and Ramdas Pophale) SiO2 
 PCOD9480347
Probable space group: C M C A
;
_chemical_formula_sum "Si O2"
_cell_formula_units_Z 88
_cell_length_a 20.335354
_cell_length_b 15.789505
_cell_length_c 12.821389
_cell_angle_alpha 90.000000
_cell_angle_beta 90.000000
_cell_angle_gamma 90.000000
_cell_volume 4116.757914
_symmetry_space_group_name_H-M "C M C A"
_symmetry_group_IT_number 64
_symmetry_cell_setting 'orthorhombic'
loop_
_space_group_symop_operation_xyz
x,y,z
-x,1/2-y,1/2+z
x,-y,-z
-x,1/2+y,1/2-z
-x,-y,-z
x,1/2+y,1/2-z
-x,y,z
x,1/2-y,1/2+z
1/2+x,1/2+y,z
1/2-x,-y,1/2+z
1/2+x,1/2-y,-z
1/2-x,y,1/2-z
1/2-x,1/2-y,-z
1/2+x,y,1/2-z
1/2-x,1/2+y,z
1/2+x,-y,1/2+z
loop_
_atom_site_type_symbol
_atom_site_label
_atom_site_fract_x
_atom_site_fract_y
_atom_site_fract_z
Si Si1 0.676795 0.542900 0.227436
Si Si2 0.325519 0.761295 0.746163
Si Si3 0.127101 0.000000 0.000000
Si Si4 0.425330 0.469046 0.387435
Si Si5 0.427611 0.663997 0.885641
Si Si6 0.430015 0.269017 0.413552
O O1 0.750000 0.509735 0.250000
O O2 0.673856 0.638851 0.273864
O O3 0.620742 0.493779 0.291395
O O4 0.665044 0.535281 0.102682
O O5 0.250000 0.734014 0.750000
O O6 0.369847 0.695404 0.810744
O O7 0.363025 0.763548 0.636202
O O8 0.087104 0.078948 0.950981
O O9 0.399680 0.500000 0.500000
O O10 0.500000 0.503060 0.373424
O O11 0.429528 0.368663 0.398784
O O12 0.500000 0.654343 0.835470
O O13 0.430904 0.740407 0.967919
O O14 0.500000 0.234643 0.368042
#
# Coordination Sequence:
#
# PCOD9480347 Si02
#       6
#    16  16   8  16  16  16
#     4  11  26  45  67 104 141 188 236 285 352 424
#     4  11  24  44  65  95 134 179 225 273 339 416
#     4  12  25  46  70 104 143 182 232 300 363 414
#     4  10  22  41  68 100 134 178 232 289 345 410
#     4  11  24  43  69  99 133 177 226 286 351 413
#     4  10  21  40  64  94 127 168 221 272 333 406
#
# _framework density 21.376044
#
# number of rings (size 3 to 8) (size 9 to 14) (size 15 to 20)
#    0.000    1.273    1.818    3.000    1.273    9.455 
#    0.000    0.000    0.000    0.000    0.000    0.000 
#    0.000    0.000    0.000    0.000    0.000    0.000 
#
# Total GULP energy -245474.448752 kJ/mol
# GULP energy per Si atom -5578.964744 kJ/mol
# Density = 2.132739 g / cm^3
# Si number density = 21.376044 Si / 1000 Ang^3
#
#
#
# Elastic Constant Matrix: (Units=GPa)
#
#
# Indices 1 2 3 4 5 6 
#
# 1 152.7358 41.8678 53.4297 0.0000 0.0000 0.0000
# 2 41.8678 83.5259 25.7598 0.0000 0.0000 0.0000
# 3 53.4297 25.7598 108.0270 0.0000 0.0000 0.0000
# 4 0.0000 0.0000 0.0000 43.5380 0.0000 0.0000
# 5 0.0000 0.0000 0.0000 0.0000 33.0056 0.0000
# 6 0.0000 0.0000 0.0000 0.0000 0.0000 6.7262
#
#
#
# Elastic Compliance Matrix: (Units=1/GPa)
#
#
# Indices 1 2 3 4 5 6 
#
# 1 0.008670 -0.003263 -0.003510 0.000000 0.000000 0.000000
# 2 -0.003263 0.014151 -0.001760 0.000000 0.000000 0.000000
# 3 -0.003510 -0.001760 0.011413 0.000000 0.000000 0.000000
# 4 0.000000 0.000000 0.000000 0.022968 0.000000 0.000000
# 5 0.000000 0.000000 0.000000 0.000000 0.030298 0.000000
# 6 0.000000 0.000000 0.000000 0.000000 0.000000 0.148672
#
#
# Mechanical properties :
#
#
# Convention : Reuss Voigt Hill
#
# Bulk Modulus (GPa) = 58.25360 65.15591 61.70475
# Shear Modulus (GPa) = 19.30800 31.53606 25.42203
#
# Velocity S-wave (km/s) = 3.00868 3.84513 3.45233
# Velocity P-wave (km/s) = 6.27539 7.08945 6.69481
#
# Compressibility (1/GPa) = 0.01716632
#
# Stress axis : x y z
#
# Youngs Moduli (GPa) = 115.34619 70.66654 87.62200
#
# Poissons Ratio (x) = 0.23060 0.30753
# Poissons Ratio (y) = 0.37640 0.15425
# Poissons Ratio (z) = 0.40484 0.12440
#
# Static dielectric constant tensor:
#      x y z
#    x 1.839410 0.000000 0.000000 
#    y 0.000000 1.789740 0.000000 
#    z 0.000000 0.000000 1.808860 
# 
# From -- ./inp_files/17166.got.cif
#   From: 2010.05.17/outbox.cif.g08.bks.cpg/sg64_9_cif.got.tgz:17166.got - 2010.06.03 16:29:19.
