data_PCOD9480969
_publ_section_title
;
Structure prediction by ZEFSAII (Michael W. Deem and Ramdas Pophale) SiO2 
 PCOD9480969
Probable space group: C M C A
;
_chemical_formula_sum "Si O2"
_cell_formula_units_Z 64
_cell_length_a 9.573533
_cell_length_b 17.296752
_cell_length_c 19.548336
_cell_angle_alpha 90.000000
_cell_angle_beta 90.000000
_cell_angle_gamma 90.000000
_cell_volume 3237.029016
_symmetry_space_group_name_H-M "C M C A"
_symmetry_group_IT_number 64
_symmetry_cell_setting 'orthorhombic'
loop_
_space_group_symop_operation_xyz
x,y,z
-x,1/2-y,1/2+z
x,-y,-z
-x,1/2+y,1/2-z
-x,-y,-z
x,1/2+y,1/2-z
-x,y,z
x,1/2-y,1/2+z
1/2+x,1/2+y,z
1/2-x,-y,1/2+z
1/2+x,1/2-y,-z
1/2-x,y,1/2-z
1/2-x,1/2-y,-z
1/2+x,y,1/2-z
1/2-x,1/2+y,z
1/2+x,-y,1/2+z
loop_
_atom_site_type_symbol
_atom_site_label
_atom_site_fract_x
_atom_site_fract_y
_atom_site_fract_z
Si Si1 0.778963 0.077025 0.046030
Si Si2 0.500000 0.247257 0.674595
Si Si3 0.500000 0.055015 0.794844
Si Si4 0.000000 0.496121 0.640943
Si Si5 0.250000 0.341381 0.250000
Si Si6 0.000000 0.849854 0.047583
Si Si7 0.500000 0.597387 0.381497
O O1 0.868116 0.050674 0.112141
O O2 0.634727 0.108205 0.072194
O O3 0.867408 0.136853 0.000996
O O4 0.762129 0.000000 0.000000
O O5 0.639386 0.209832 0.707403
O O6 0.500000 0.224368 0.594742
O O7 0.500000 0.339433 0.678675
O O8 0.643447 0.105608 0.795051
O O9 0.500000 0.013963 0.720458
O O10 0.500000 0.989511 0.851968
O O11 0.000000 0.578197 0.601224
#
# Coordination Sequence:
#
# PCOD9480969 Si02
#       7
#    16   8   8   8   8   8   8
#     4   9  20  36  60  90 120 154 202 250 292 345
#     4  11  25  42  60  88 127 157 194 250 309 360
#     4  11  21  36  66  89 116 157 207 246 291 360
#     4   9  16  36  64  89 108 158 206 244 289 351
#     4  10  22  42  62  86 118 164 200 238 306 364
#     4   9  18  40  63  77 121 168 195 230 301 368
#     4  12  25  36  57  99 128 145 198 261 296 340
#
# _framework density 19.771215999999999
#
# number of rings (size 3 to 8) (size 9 to 14) (size 15 to 20)
#    0.000    2.000    2.500    3.375    3.500    4.000 
#    0.000    3.750    0.000    0.000    0.000    0.000 
#    0.000    0.000    0.000    0.000    0.000    0.000 
#
# Total GULP energy -178640.355327 kJ/mol
# GULP energy per Si atom -5582.511104 kJ/mol
# Density = 1.972622 g / cm^3
# Si number density = 19.771216 Si / 1000 Ang^3
#
#
#
# Elastic Constant Matrix: (Units=GPa)
#
#
# Indices 1 2 3 4 5 6 
#
# 1 170.6695 52.8209 44.7364 0.0000 0.0000 0.0000
# 2 52.8209 64.3483 2.3808 0.0000 0.0000 0.0000
# 3 44.7364 2.3808 65.2300 0.0000 0.0000 0.0000
# 4 0.0000 0.0000 0.0000 15.3531 0.0000 0.0000
# 5 0.0000 0.0000 0.0000 0.0000 11.8713 0.0000
# 6 0.0000 0.0000 0.0000 0.0000 0.0000 64.3049
#
#
#
# Elastic Compliance Matrix: (Units=1/GPa)
#
#
# Indices 1 2 3 4 5 6 
#
# 1 0.010079 -0.008029 -0.006620 0.000000 0.000000 0.000000
# 2 -0.008029 0.021957 0.004705 0.000000 0.000000 0.000000
# 3 -0.006620 0.004705 0.019699 0.000000 0.000000 0.000000
# 4 0.000000 0.000000 0.000000 0.065133 0.000000 0.000000
# 5 0.000000 0.000000 0.000000 0.000000 0.084237 0.000000
# 6 0.000000 0.000000 0.000000 0.000000 0.000000 0.015551
#
#
# Mechanical properties :
#
#
# Convention : Reuss Voigt Hill
#
# Bulk Modulus (GPa) = 31.39933 55.56934 43.48433
# Shear Modulus (GPa) = 20.22991 31.65982 25.94487
#
# Velocity S-wave (km/s) = 3.20222 4.00598 3.62644
# Velocity P-wave (km/s) = 5.43949 7.04019 6.29096
#
# Compressibility (1/GPa) = 0.03184782
#
# Stress axis : x y z
#
# Youngs Moduli (GPa) = 99.21373 45.54393 50.76526
#
# Poissons Ratio (x) = 0.36566 0.33604
# Poissons Ratio (y) = 0.79656 -0.23885
# Poissons Ratio (z) = 0.65675 -0.21428
#
# Static dielectric constant tensor:
#      x y z
#    x 1.697800 0.000000 0.000000 
#    y 0.000000 1.709170 0.000000 
#    z 0.000000 0.000000 1.676850 
# 
# From -- ./inp_files/29326.got.cif
#   From: 2010.05.17/outbox.cif.g08.bks.cpg/sg64_15_cif.got.tgz:29326.got - 2010.06.03 16:29:19.
