data_PCOD9480194
_publ_section_title
;
Structure prediction by ZEFSAII (Michael W. Deem and Ramdas Pophale) SiO2 
 PCOD9480194
Probable space group: C M C A
;
_chemical_formula_sum "Si O2"
_cell_formula_units_Z 112
_cell_length_a 14.551897
_cell_length_b 14.448560
_cell_length_c 26.352109
_cell_angle_alpha 90.000000
_cell_angle_beta 90.000000
_cell_angle_gamma 90.000000
_cell_volume 5540.635190
_symmetry_space_group_name_H-M "C M C A"
_symmetry_group_IT_number 64
_symmetry_cell_setting 'orthorhombic'
loop_
_space_group_symop_operation_xyz
x,y,z
-x,1/2-y,1/2+z
x,-y,-z
-x,1/2+y,1/2-z
-x,-y,-z
x,1/2+y,1/2-z
-x,y,z
x,1/2-y,1/2+z
1/2+x,1/2+y,z
1/2-x,-y,1/2+z
1/2+x,1/2-y,-z
1/2-x,y,1/2-z
1/2-x,1/2-y,-z
1/2+x,y,1/2-z
1/2-x,1/2+y,z
1/2+x,-y,1/2+z
loop_
_atom_site_type_symbol
_atom_site_label
_atom_site_fract_x
_atom_site_fract_y
_atom_site_fract_z
Si Si1 0.645112 0.048647 0.049932
Si Si2 0.213781 0.927469 0.365682
Si Si3 0.184186 0.170360 0.023527
Si Si4 0.890103 0.765732 0.867513
Si Si5 0.240144 0.893862 0.809176
Si Si6 0.095250 0.190371 0.373351
Si Si7 0.900635 0.889697 0.079075
O O1 0.747269 0.086621 0.037471
O O2 0.598114 0.138841 0.072583
O O3 0.642697 0.977105 0.096255
O O4 0.608564 0.000000 0.000000
O O5 0.170366 0.826943 0.354398
O O6 0.307052 0.930331 0.398988
O O7 0.238635 0.997775 0.320330
O O8 0.136094 0.208005 0.074276
O O9 0.250000 0.250000 0.000000
O O10 0.116277 0.137021 0.979437
O O11 0.853089 0.850519 0.832565
O O12 0.000000 0.751499 0.862499
O O13 0.250000 0.875024 0.750000
O O14 0.318447 0.840701 0.841185
O O15 0.095761 0.296916 0.387194
O O16 0.000000 0.165502 0.346590
O O17 0.000000 0.938337 0.084240
#
# Coordination Sequence:
#
# PCOD9480194 Si02
#       7
#    16  16  16  16  16  16  16
#     4  11  19  33  59  87 130 175 208 258 315 379
#     4  11  22  42  63  95 133 169 214 272 332 389
#     4  12  18  38  61  91 135 181 221 261 319 390
#     4  12  25  44  70 100 134 175 224 274 330 399
#     4  11  25  47  73  93 127 166 216 285 345 394
#     4  10  21  39  62  90 123 165 212 260 321 389
#     4  11  21  36  62  92 130 175 215 258 318 390
#
# _framework density 20.214289000000001
#
# number of rings (size 3 to 8) (size 9 to 14) (size 15 to 20)
#    0.000    0.857    8.571    0.429    0.000    4.286 
#    0.000    0.714    0.000    0.000    0.000    0.000 
#    0.000    0.000    0.000    0.000    0.000    0.000 
#
# Total GULP energy -312277.066628 kJ/mol
# GULP energy per Si atom -5576.376190 kJ/mol
# Density = 2.016828 g / cm^3
# Si number density = 20.214289 Si / 1000 Ang^3
#
#
#
# Elastic Constant Matrix: (Units=GPa)
#
#
# Indices 1 2 3 4 5 6 
#
# 1 119.7616 18.3725 25.6727 0.0000 0.0000 0.0000
# 2 18.3725 58.6127 22.0889 0.0000 0.0000 0.0000
# 3 25.6727 22.0889 92.0708 0.0000 0.0000 0.0000
# 4 0.0000 0.0000 0.0000 17.8075 0.0000 0.0000
# 5 0.0000 0.0000 0.0000 0.0000 -40.8551 0.0000
# 6 0.0000 0.0000 0.0000 0.0000 0.0000 -1.8230
#
#
#
# Elastic Compliance Matrix: (Units=1/GPa)
#
#
# Indices 1 2 3 4 5 6 
#
# 1 0.009107 -0.002086 -0.002039 0.000000 0.000000 0.000000
# 2 -0.002086 0.019235 -0.004033 0.000000 0.000000 0.000000
# 3 -0.002039 -0.004033 0.012397 0.000000 0.000000 0.000000
# 4 0.000000 0.000000 0.000000 0.056156 0.000000 0.000000
# 5 0.000000 0.000000 0.000000 0.000000 -0.024477 0.000000
# 6 0.000000 0.000000 0.000000 0.000000 0.000000 -0.548539
#
#
# Mechanical properties :
#
#
# Convention : Reuss Voigt Hill
#
# Bulk Modulus (GPa) = 40.94487 44.74591 42.84539
# Shear Modulus (GPa) = -11.07019 8.64661 -1.21179
#
# Velocity S-wave (km/s) = -2.34271 2.07045 -0.77510
# Velocity P-wave (km/s) = 3.60300 5.28200 4.52113
#
# Compressibility (1/GPa) = 0.02442308
#
# Stress axis : x y z
#
# Youngs Moduli (GPa) = 109.80519 51.98862 80.66296
#
# Poissons Ratio (x) = 0.10846 0.16446
# Poissons Ratio (y) = 0.22908 0.32531
# Poissons Ratio (z) = 0.22388 0.20967
#
# Static dielectric constant tensor:
#      x y z
#    x 1.871590 0.000000 0.000000 
#    y 0.000000 1.763140 0.000000 
#    z 0.000000 0.000000 1.691770 
# 
# From -- ./inp_files/50071.got.cif
#   From: 2010.05.17/outbox.cif.g08.bks.cpg/sg64_26_cif.got.tgz:50071.got - 2010.06.03 16:29:19.
