data_PCOD9480434
_publ_section_title
;
Structure prediction by ZEFSAII (Michael W. Deem and Ramdas Pophale) SiO2 
 PCOD9480434
Probable space group: C M C A
;
_chemical_formula_sum "Si O2"
_cell_formula_units_Z 104
_cell_length_a 20.687434
_cell_length_b 28.916767
_cell_length_c 8.829763
_cell_angle_alpha 90.000000
_cell_angle_beta 90.000000
_cell_angle_gamma 90.000000
_cell_volume 5282.085272
_symmetry_space_group_name_H-M "C M C A"
_symmetry_group_IT_number 64
_symmetry_cell_setting 'orthorhombic'
loop_
_space_group_symop_operation_xyz
x,y,z
-x,1/2-y,1/2+z
x,-y,-z
-x,1/2+y,1/2-z
-x,-y,-z
x,1/2+y,1/2-z
-x,y,z
x,1/2-y,1/2+z
1/2+x,1/2+y,z
1/2-x,-y,1/2+z
1/2+x,1/2-y,-z
1/2-x,y,1/2-z
1/2-x,1/2-y,-z
1/2+x,y,1/2-z
1/2-x,1/2+y,z
1/2+x,-y,1/2+z
loop_
_atom_site_type_symbol
_atom_site_label
_atom_site_fract_x
_atom_site_fract_y
_atom_site_fract_z
Si Si1 0.613250 0.296413 0.382652
Si Si2 0.500000 0.143115 0.406004
Si Si3 0.000000 0.204432 0.826137
Si Si4 0.137756 0.379330 0.468369
Si Si5 0.293053 0.714002 0.100543
Si Si6 0.500000 0.803432 0.878162
Si Si7 0.684709 0.885588 0.152281
Si Si8 0.245464 0.550660 0.429300
O O1 0.567190 0.311985 0.244365
O O2 0.646743 0.247309 0.353380
O O3 0.563831 0.298480 0.521288
O O4 0.667346 0.335173 0.410249
O O5 0.500000 0.191437 0.500093
O O6 0.566877 0.120775 0.459055
O O7 0.500000 0.152661 0.228438
O O8 0.000000 0.257408 0.781096
O O9 0.175744 0.330329 0.511422
O O10 0.135129 0.393617 0.290152
O O11 0.182645 0.418489 0.540131
O O12 0.250000 0.701171 0.250000
O O13 0.250000 0.750000 0.000000
O O14 0.750000 0.883257 0.250000
O O15 0.696961 0.921971 0.018791
O O16 0.240579 0.500000 0.500000
O O17 0.250000 0.546964 0.250000
#
# Coordination Sequence:
#
# PCOD9480434 Si02
#       8
#    16   8   8  16  16   8  16  16
#     4  11  23  39  58  85 130 176 227 267 322 373
#     4  12  24  38  63  88 128 178 223 278 320 370
#     4  11  21  41  55  80 116 185 224 273 303 370
#     4  11  23  41  62  94 132 173 225 266 328 386
#     4  12  25  37  58  89 131 177 222 282 332 384
#     4  11  25  35  57  84 124 177 238 274 314 370
#     4  10  21  41  64  94 131 166 214 265 326 391
#     4  11  24  45  76 104 130 160 201 260 333 405
#
# _framework density 19.689193
#
# number of rings (size 3 to 8) (size 9 to 14) (size 15 to 20)
#    0.000    0.923    1.538    7.846    6.462    0.000 
#    0.000    0.385    0.000    0.000    0.000    4.308 
#    0.000    0.000    0.000    0.000    0.000    0.000 
#
# Total GULP energy -289973.690922 kJ/mol
# GULP energy per Si atom -5576.417133 kJ/mol
# Density = 1.964438 g / cm^3
# Si number density = 19.689193 Si / 1000 Ang^3
#
#
#
# Elastic Constant Matrix: (Units=GPa)
#
#
# Indices 1 2 3 4 5 6 
#
# 1 60.9628 20.8553 42.8678 0.0000 0.0000 0.0000
# 2 20.8553 115.1853 49.3207 0.0000 0.0000 0.0000
# 3 42.8678 49.3207 130.2764 0.0000 0.0000 0.0000
# 4 0.0000 0.0000 0.0000 33.1039 0.0000 0.0000
# 5 0.0000 0.0000 0.0000 0.0000 -26.1601 0.0000
# 6 0.0000 0.0000 0.0000 0.0000 0.0000 20.6840
#
#
#
# Elastic Compliance Matrix: (Units=1/GPa)
#
#
# Indices 1 2 3 4 5 6 
#
# 1 0.021443 -0.001028 -0.006667 0.000000 0.000000 0.000000
# 2 -0.001028 0.010411 -0.003603 0.000000 0.000000 0.000000
# 3 -0.006667 -0.003603 0.011234 0.000000 0.000000 0.000000
# 4 0.000000 0.000000 0.000000 0.030208 0.000000 0.000000
# 5 0.000000 0.000000 0.000000 0.000000 -0.038226 0.000000
# 6 0.000000 0.000000 0.000000 0.000000 0.000000 0.048347
#
#
# Mechanical properties :
#
#
# Convention : Reuss Voigt Hill
#
# Bulk Modulus (GPa) = 48.79955 59.16802 53.98378
# Shear Modulus (GPa) = 44.30994 18.41762 31.36378
#
# Velocity S-wave (km/s) = 4.74906 3.06178 3.99550
# Velocity P-wave (km/s) = 7.41014 6.52806 6.98304
#
# Compressibility (1/GPa) = 0.02049199
#
# Stress axis : x y z
#
# Youngs Moduli (GPa) = 46.63531 96.05652 89.01740
#
# Poissons Ratio (x) = 0.09873 0.59346
# Poissons Ratio (y) = 0.04793 0.32073
# Poissons Ratio (z) = 0.31091 0.34610
#
# Static dielectric constant tensor:
#      x y z
#    x 1.848340 0.000000 0.000000 
#    y 0.000000 1.679380 0.000000 
#    z 0.000000 0.000000 1.771210 
# 
# From -- ./inp_files/8598.got.cif
#   From: 2010.05.17/outbox.cif.g08.bks.cpg/sg64_5_cif.got.tgz:8598.got - 2010.06.03 16:29:19.
