data_PCOD9480043
_publ_section_title
;
Structure prediction by ZEFSAII (Michael W. Deem and Ramdas Pophale) SiO2 
 PCOD9480043
Probable space group: C M C A
;
_chemical_formula_sum "Si O2"
_cell_formula_units_Z 88
_cell_length_a 13.804135
_cell_length_b 22.391189
_cell_length_c 12.208471
_cell_angle_alpha 90.000000
_cell_angle_beta 90.000000
_cell_angle_gamma 90.000000
_cell_volume 3773.528458
_symmetry_space_group_name_H-M "C M C A"
_symmetry_group_IT_number 64
_symmetry_cell_setting 'orthorhombic'
loop_
_space_group_symop_operation_xyz
x,y,z
-x,1/2-y,1/2+z
x,-y,-z
-x,1/2+y,1/2-z
-x,-y,-z
x,1/2+y,1/2-z
-x,y,z
x,1/2-y,1/2+z
1/2+x,1/2+y,z
1/2-x,-y,1/2+z
1/2+x,1/2-y,-z
1/2-x,y,1/2-z
1/2-x,1/2-y,-z
1/2+x,y,1/2-z
1/2-x,1/2+y,z
1/2+x,-y,1/2+z
loop_
_atom_site_type_symbol
_atom_site_label
_atom_site_fract_x
_atom_site_fract_y
_atom_site_fract_z
Si Si1 0.118402 0.977660 0.679726
Si Si2 0.884843 0.306433 0.557195
Si Si3 0.613578 0.306515 0.568375
Si Si4 0.883071 0.585108 0.949542
Si Si5 0.750000 0.696734 0.250000
Si Si6 0.382316 0.555462 0.076518
O O1 0.150018 0.045645 0.652208
O O2 0.000000 0.974608 0.684227
O O3 0.144929 0.944098 0.566674
O O4 0.150745 0.955585 0.798575
O O5 0.868046 0.263065 0.454184
O O6 0.822411 0.278852 0.656474
O O7 0.857851 0.376281 0.542643
O O8 0.000000 0.303677 0.581699
O O9 0.500000 0.314183 0.588286
O O10 0.641126 0.345672 0.462641
O O11 0.670597 0.332070 0.671187
O O12 0.000000 0.581429 0.945254
O O13 0.500000 0.553891 0.075145
O O14 0.350751 0.500000 0.000000
#
# Coordination Sequence:
#
# PCOD9480043 Si02
#       6
#    16  16  16  16   8  16
#     4   8  13  24  48  80 111 147 190 239 296 355
#     4  10  22  40  62  89 119 159 209 253 305 373
#     4  10  21  38  60  91 124 160 210 258 306 369
#     4   8  14  27  50  82 114 143 189 247 296 349
#     4  12  22  38  64  86 124 164 204 252 318 362
#     4   9  17  32  56  83 115 157 201 244 301 369
#
# _framework density 23.320349
#
# number of rings (size 3 to 8) (size 9 to 14) (size 15 to 20)
#    0.000    2.727    0.000    3.273    0.000    2.909 
#    3.273    0.000    8.000    0.000    0.000    0.000 
#    0.000    0.000    0.000    0.000    0.000    0.000 
#
# Total GULP energy -245164.901045 kJ/mol
# GULP energy per Si atom -5571.929569 kJ/mol
# Density = 2.326727 g / cm^3
# Si number density = 23.320349 Si / 1000 Ang^3
#
#
#
# Elastic Constant Matrix: (Units=GPa)
#
#
# Indices 1 2 3 4 5 6 
#
# 1 103.9222 24.8272 22.5255 0.0000 0.0000 0.0000
# 2 24.8272 158.5164 63.9736 0.0000 0.0000 0.0000
# 3 22.5255 63.9736 73.9535 0.0000 0.0000 0.0000
# 4 0.0000 0.0000 0.0000 -8.5892 0.0000 0.0000
# 5 0.0000 0.0000 0.0000 0.0000 36.1560 0.0000
# 6 0.0000 0.0000 0.0000 0.0000 0.0000 8.1583
#
#
#
# Elastic Compliance Matrix: (Units=1/GPa)
#
#
# Indices 1 2 3 4 5 6 
#
# 1 0.010332 -0.000535 -0.002684 0.000000 0.000000 0.000000
# 2 -0.000535 0.009720 -0.008245 0.000000 0.000000 0.000000
# 3 -0.002684 -0.008245 0.021472 0.000000 0.000000 0.000000
# 4 0.000000 0.000000 0.000000 -0.116425 0.000000 0.000000
# 5 0.000000 0.000000 0.000000 0.000000 0.027658 0.000000
# 6 0.000000 0.000000 0.000000 0.000000 0.000000 0.122575
#
#
# Mechanical properties :
#
#
# Convention : Reuss Voigt Hill
#
# Bulk Modulus (GPa) = 53.77720 62.11607 57.94664
# Shear Modulus (GPa) = 47.86574 22.14942 35.00758
#
# Velocity S-wave (km/s) = 4.53540 3.08521 3.87868
# Velocity P-wave (km/s) = 7.10892 6.27576 6.70529
#
# Compressibility (1/GPa) = 0.01859524
#
# Stress axis : x y z
#
# Youngs Moduli (GPa) = 96.78461 102.88198 46.57180
#
# Poissons Ratio (x) = 0.05503 0.12502
# Poissons Ratio (y) = 0.05177 0.38400
# Poissons Ratio (z) = 0.25980 0.84829
#
# Static dielectric constant tensor:
#      x y z
#    x 1.943800 0.000000 0.000000 
#    y 0.000000 1.898740 0.000000 
#    z 0.000000 0.000000 1.816500 
# 
# From -- ./inp_files/14609.got.cif
#   From: 2010.05.17/outbox.cif.g08.bks.cpg/sg64_8_cif.got.tgz:14609.got - 2010.06.03 16:29:19.
