data_PCOD9480678
_publ_section_title
;
Structure prediction by ZEFSAII (Michael W. Deem and Ramdas Pophale) SiO2 
 PCOD9480678
Probable space group: C M C A
;
_chemical_formula_sum "Si O2"
_cell_formula_units_Z 88
_cell_length_a 23.718963
_cell_length_b 33.028043
_cell_length_c 5.304382
_cell_angle_alpha 90.000000
_cell_angle_beta 90.000000
_cell_angle_gamma 90.000000
_cell_volume 4155.404747
_symmetry_space_group_name_H-M "C M C A"
_symmetry_group_IT_number 64
_symmetry_cell_setting 'orthorhombic'
loop_
_space_group_symop_operation_xyz
x,y,z
-x,1/2-y,1/2+z
x,-y,-z
-x,1/2+y,1/2-z
-x,-y,-z
x,1/2+y,1/2-z
-x,y,z
x,1/2-y,1/2+z
1/2+x,1/2+y,z
1/2-x,-y,1/2+z
1/2+x,1/2-y,-z
1/2-x,y,1/2-z
1/2-x,1/2-y,-z
1/2+x,y,1/2-z
1/2-x,1/2+y,z
1/2+x,-y,1/2+z
loop_
_atom_site_type_symbol
_atom_site_label
_atom_site_fract_x
_atom_site_fract_y
_atom_site_fract_z
Si Si1 0.650426 0.500000 0.500000
Si Si2 0.814348 0.232666 0.489537
Si Si3 0.561433 0.458561 0.846615
Si Si4 0.217177 0.926379 0.488627
Si Si5 0.566877 0.629450 0.940615
Si Si6 0.364919 0.352816 0.564786
O O1 0.610512 0.470448 0.658176
O O2 0.690206 0.467133 0.369745
O O3 0.841461 0.254925 0.252552
O O4 0.750000 0.250000 0.500000
O O5 0.822490 0.185188 0.450725
O O6 0.500000 0.450695 0.721105
O O7 0.573562 0.419389 0.016952
O O8 0.556478 0.500000 0.000000
O O9 0.250000 0.907683 0.250000
O O10 0.171863 0.893255 0.571572
O O11 0.250000 0.936472 0.750000
O O12 0.500000 0.637477 0.935720
O O13 0.597035 0.648852 0.184386
O O14 0.596440 0.643671 0.684209
#
# Coordination Sequence:
#
# PCOD9480678 Si02
#       6
#     8  16  16  16  16  16
#     4  12  23  42  60  86 138 180 235 274 348 376
#     4  10  23  41  69 103 134 171 217 283 339 410
#     4  10  22  38  64  94 128 176 237 295 337 388
#     4  12  28  42  64  92 135 188 233 280 329 412
#     4  11  24  44  70 106 137 182 232 282 347 416
#     4  12  24  45  73 100 142 180 221 286 355 401
#
# _framework density 21.177239
#
# number of rings (size 3 to 8) (size 9 to 14) (size 15 to 20)
#    0.000    0.909    1.818    4.636    7.636    0.000 
#    0.000    0.000    0.000   10.909    0.000    0.000 
#    0.000    0.000    0.000    0.000    0.000    0.000 
#
# Total GULP energy -245581.816377 kJ/mol
# GULP energy per Si atom -5581.404918 kJ/mol
# Density = 2.112904 g / cm^3
# Si number density = 21.177239 Si / 1000 Ang^3
#
#
#
# Elastic Constant Matrix: (Units=GPa)
#
#
# Indices 1 2 3 4 5 6 
#
# 1 93.0707 34.0377 32.7229 0.0000 0.0000 0.0000
# 2 34.0377 122.1585 6.2567 0.0000 0.0000 0.0000
# 3 32.7229 6.2567 121.0802 0.0000 0.0000 0.0000
# 4 0.0000 0.0000 0.0000 25.4212 0.0000 0.0000
# 5 0.0000 0.0000 0.0000 0.0000 30.8302 0.0000
# 6 0.0000 0.0000 0.0000 0.0000 0.0000 49.1696
#
#
#
# Elastic Compliance Matrix: (Units=1/GPa)
#
#
# Indices 1 2 3 4 5 6 
#
# 1 0.013221 -0.003510 -0.003392 0.000000 0.000000 0.000000
# 2 -0.003510 0.009140 0.000476 0.000000 0.000000 0.000000
# 3 -0.003392 0.000476 0.009151 0.000000 0.000000 0.000000
# 4 0.000000 0.000000 0.000000 0.039337 0.000000 0.000000
# 5 0.000000 0.000000 0.000000 0.000000 0.032436 0.000000
# 6 0.000000 0.000000 0.000000 0.000000 0.000000 0.020338
#
#
# Mechanical properties :
#
#
# Convention : Reuss Voigt Hill
#
# Bulk Modulus (GPa) = 53.58851 53.59380 53.59116
# Shear Modulus (GPa) = 35.04025 38.63700 36.83862
#
# Velocity S-wave (km/s) = 4.07211 4.27600 4.17530
# Velocity P-wave (km/s) = 6.88979 7.05274 6.97174
#
# Compressibility (1/GPa) = 0.01866072
#
# Stress axis : x y z
#
# Youngs Moduli (GPa) = 75.63916 109.41263 109.27788
#
# Poissons Ratio (x) = 0.38404 0.37063
# Poissons Ratio (y) = 0.26550 -0.05205
# Poissons Ratio (z) = 0.25654 -0.05212
#
# Static dielectric constant tensor:
#      x y z
#    x 1.950170 0.000000 0.000000 
#    y 0.000000 1.788370 0.000000 
#    z 0.000000 0.000000 1.541000 
# 
# From -- ./inp_files/2433.got.cif
#   From: 2010.05.17/outbox.cif.g08.bks.cpg/sg64_2_cif.got.tgz:2433.got - 2010.06.03 16:29:19.
