data_PCOD9480846
_publ_section_title
;
Structure prediction by ZEFSAII (Michael W. Deem and Ramdas Pophale) SiO2 
 PCOD9480846
Probable space group: C M C A
;
_chemical_formula_sum "Si O2"
_cell_formula_units_Z 48
_cell_length_a 12.132584
_cell_length_b 13.068458
_cell_length_c 12.113761
_cell_angle_alpha 90.000000
_cell_angle_beta 90.000000
_cell_angle_gamma 90.000000
_cell_volume 1920.687254
_symmetry_space_group_name_H-M "C M C A"
_symmetry_group_IT_number 64
_symmetry_cell_setting 'orthorhombic'
loop_
_space_group_symop_operation_xyz
x,y,z
-x,1/2-y,1/2+z
x,-y,-z
-x,1/2+y,1/2-z
-x,-y,-z
x,1/2+y,1/2-z
-x,y,z
x,1/2-y,1/2+z
1/2+x,1/2+y,z
1/2-x,-y,1/2+z
1/2+x,1/2-y,-z
1/2-x,y,1/2-z
1/2-x,1/2-y,-z
1/2+x,y,1/2-z
1/2-x,1/2+y,z
1/2+x,-y,1/2+z
loop_
_atom_site_type_symbol
_atom_site_label
_atom_site_fract_x
_atom_site_fract_y
_atom_site_fract_z
Si Si1 0.615914 0.864050 0.983826
Si Si2 0.879159 0.542871 0.241478
Si Si3 0.316375 0.834010 0.355385
O O1 0.500000 0.858633 0.047400
O O2 0.612572 0.952021 0.891258
O O3 0.619947 0.758772 0.911345
O O4 0.725817 0.865878 0.054424
O O5 0.750000 0.578762 0.250000
O O6 0.875332 0.434710 0.306500
O O7 0.000000 0.590577 0.277311
O O8 0.250000 0.793543 0.250000
#
# Coordination Sequence:
#
# PCOD9480846 Si02
#       3
#    16  16  16
#     4  10  22  42  67  95 130 174 222 272 329 393
#     4  10  22  41  65  95 132 172 216 268 327 390
#     4  10  22  40  65  96 129 170 221 273 326 391
#
# _framework density 24.991057000000001
#
# number of rings (size 3 to 8) (size 9 to 14) (size 15 to 20)
#    0.000    2.000    0.000    2.000    0.000   12.000 
#    0.000   26.667    0.000    0.000    0.000    0.000 
#    0.000    0.000    0.000    0.000    0.000    0.000 
#
# Total GULP energy -133609.418571 kJ/mol
# GULP energy per Si atom -5567.059107 kJ/mol
# Density = 2.493418 g / cm^3
# Si number density = 24.991057 Si / 1000 Ang^3
#
#
#
# Elastic Constant Matrix: (Units=GPa)
#
#
# Indices 1 2 3 4 5 6 
#
# 1 226.9551 36.7569 37.7171 0.0000 0.0000 0.0000
# 2 36.7569 89.3170 21.0622 0.0000 0.0000 0.0000
# 3 37.7171 21.0622 108.2464 0.0000 0.0000 0.0000
# 4 0.0000 0.0000 0.0000 3.7858 0.0000 0.0000
# 5 0.0000 0.0000 0.0000 0.0000 19.0951 0.0000
# 6 0.0000 0.0000 0.0000 0.0000 0.0000 54.7328
#
#
#
# Elastic Compliance Matrix: (Units=1/GPa)
#
#
# Indices 1 2 3 4 5 6 
#
# 1 0.004910 -0.001695 -0.001381 0.000000 0.000000 0.000000
# 2 -0.001695 0.012320 -0.001807 0.000000 0.000000 0.000000
# 3 -0.001381 -0.001807 0.010071 0.000000 0.000000 0.000000
# 4 0.000000 0.000000 0.000000 0.264146 0.000000 0.000000
# 5 0.000000 0.000000 0.000000 0.000000 0.052369 0.000000
# 6 0.000000 0.000000 0.000000 0.000000 0.000000 0.018271
#
#
# Mechanical properties :
#
#
# Convention : Reuss Voigt Hill
#
# Bulk Modulus (GPa) = 57.02714 68.39898 62.71306
# Shear Modulus (GPa) = 13.23814 37.45491 25.34652
#
# Velocity S-wave (km/s) = 2.30405 3.87555 3.18814
# Velocity P-wave (km/s) = 5.47236 6.88878 6.22101
#
# Compressibility (1/GPa) = 0.01753551
#
# Stress axis : x y z
#
# Youngs Moduli (GPa) = 203.65785 81.17123 99.29595
#
# Poissons Ratio (x) = 0.13759 0.13714
# Poissons Ratio (y) = 0.34521 0.17938
# Poissons Ratio (z) = 0.28127 0.14664
#
# Static dielectric constant tensor:
#      x y z
#    x 1.980360 0.000000 0.000000 
#    y 0.000000 2.090720 0.000000 
#    z 0.000000 0.000000 1.985100 
# 
# From -- ./inp_files/12575.got.cif
#   From: 2010.05.17/outbox.cif.g08.bks.cpg/sg64_7_cif.got.tgz:12575.got - 2010.06.03 16:29:19.
