data_PCOD9480929
_publ_section_title
;
Structure prediction by ZEFSAII (Michael W. Deem and Ramdas Pophale) SiO2 
 PCOD9480929
Probable space group: C M C A
;
_chemical_formula_sum "Si O2"
_cell_formula_units_Z 104
_cell_length_a 18.312913
_cell_length_b 14.273490
_cell_length_c 19.101126
_cell_angle_alpha 90.000000
_cell_angle_beta 90.000000
_cell_angle_gamma 90.000000
_cell_volume 4992.827673
_symmetry_space_group_name_H-M "C M C A"
_symmetry_group_IT_number 64
_symmetry_cell_setting 'orthorhombic'
loop_
_space_group_symop_operation_xyz
x,y,z
-x,1/2-y,1/2+z
x,-y,-z
-x,1/2+y,1/2-z
-x,-y,-z
x,1/2+y,1/2-z
-x,y,z
x,1/2-y,1/2+z
1/2+x,1/2+y,z
1/2-x,-y,1/2+z
1/2+x,1/2-y,-z
1/2-x,y,1/2-z
1/2-x,1/2-y,-z
1/2+x,y,1/2-z
1/2-x,1/2+y,z
1/2+x,-y,1/2+z
loop_
_atom_site_type_symbol
_atom_site_label
_atom_site_fract_x
_atom_site_fract_y
_atom_site_fract_z
Si Si1 0.765531 0.611620 0.327477
Si Si2 0.079385 0.183881 0.143551
Si Si3 0.584203 0.340912 0.244039
Si Si4 0.619674 0.500000 0.500000
Si Si5 0.079665 0.285771 0.998079
Si Si6 0.191486 0.426753 0.141794
Si Si7 0.315677 0.779579 0.385225
O O1 0.750000 0.651050 0.250000
O O2 0.847967 0.623136 0.353816
O O3 0.745037 0.504150 0.327425
O O4 0.709945 0.673242 0.372446
O O5 0.079689 0.241953 0.215301
O O6 0.000000 0.135906 0.136342
O O7 0.084099 0.258619 0.079929
O O8 0.500000 0.373362 0.233570
O O9 0.630459 0.403393 0.299623
O O10 0.629622 0.321263 0.173527
O O11 0.582343 0.398221 0.512980
O O12 0.661680 0.473187 0.429087
O O13 0.141813 0.227898 0.958141
O O14 0.000000 0.253931 0.972287
O O15 0.240992 0.338114 0.120843
#
# Coordination Sequence:
#
# PCOD9480929 Si02
#       7
#    16  16  16   8  16  16  16
#     4  12  22  41  66  96 128 170 222 273 329 400
#     4  10  22  41  66  92 126 171 216 269 338 397
#     4  11  22  43  67  93 132 177 219 272 338 400
#     4  12  23  40  64 104 131 172 222 282 339 406
#     4  11  24  42  66  97 134 176 220 277 339 402
#     4  12  26  41  67 100 135 174 223 277 337 396
#     4  12  23  43  66  96 135 174 225 278 332 403
#
# _framework density 20.829878999999998
#
# number of rings (size 3 to 8) (size 9 to 14) (size 15 to 20)
#    0.000    0.615    6.154    2.077    2.154    1.846 
#    0.000    3.846    0.000    1.846    0.000    0.000 
#    0.000    0.000    0.000    0.000    0.000    0.000 
#
# Total GULP energy -290081.725388 kJ/mol
# GULP energy per Si atom -5578.494719 kJ/mol
# Density = 2.078247 g / cm^3
# Si number density = 20.829879 Si / 1000 Ang^3
#
#
#
# Elastic Constant Matrix: (Units=GPa)
#
#
# Indices 1 2 3 4 5 6 
#
# 1 148.5090 34.1915 34.6252 0.0000 0.0000 0.0000
# 2 34.1915 62.1166 -1.0232 0.0000 0.0000 0.0000
# 3 34.6252 -1.0232 71.3998 0.0000 0.0000 0.0000
# 4 0.0000 0.0000 0.0000 20.9503 0.0000 0.0000
# 5 0.0000 0.0000 0.0000 0.0000 28.7716 0.0000
# 6 0.0000 0.0000 0.0000 0.0000 0.0000 14.6217
#
#
#
# Elastic Compliance Matrix: (Units=1/GPa)
#
#
# Indices 1 2 3 4 5 6 
#
# 1 0.008901 -0.004972 -0.004388 0.000000 0.000000 0.000000
# 2 -0.004972 0.018880 0.002682 0.000000 0.000000 0.000000
# 3 -0.004388 0.002682 0.016172 0.000000 0.000000 0.000000
# 4 0.000000 0.000000 0.000000 0.047732 0.000000 0.000000
# 5 0.000000 0.000000 0.000000 0.000000 0.034756 0.000000
# 6 0.000000 0.000000 0.000000 0.000000 0.000000 0.068392
#
#
# Mechanical properties :
#
#
# Convention : Reuss Voigt Hill
#
# Bulk Modulus (GPa) = 32.68334 46.40140 39.54237
# Shear Modulus (GPa) = 22.89498 27.15084 25.02291
#
# Velocity S-wave (km/s) = 3.31893 3.61426 3.46974
# Velocity P-wave (km/s) = 5.51468 6.30412 5.92257
#
# Compressibility (1/GPa) = 0.03059662
#
# Stress axis : x y z
#
# Youngs Moduli (GPa) = 112.34239 52.96697 61.83525
#
# Poissons Ratio (x) = 0.26335 0.27133
# Poissons Ratio (y) = 0.55856 -0.16582
# Poissons Ratio (z) = 0.49295 -0.14204
#
# Static dielectric constant tensor:
#      x y z
#    x 1.795890 0.000000 0.000000 
#    y 0.000000 1.737530 0.000000 
#    z 0.000000 0.000000 1.776600 
# 
# From -- ./inp_files/40250.got.cif
#   From: 2010.05.17/outbox.cif.g08.bks.cpg/sg64_21_cif.got.tgz:40250.got - 2010.06.03 16:29:19.
