data_PCOD9480438
_publ_section_title
;
Structure prediction by ZEFSAII (Michael W. Deem and Ramdas Pophale) SiO2 
 PCOD9480438
Probable space group: C M C A
;
_chemical_formula_sum "Si O2"
_cell_formula_units_Z 40
_cell_length_a 21.266119
_cell_length_b 15.300574
_cell_length_c 5.217519
_cell_angle_alpha 90.000000
_cell_angle_beta 90.000000
_cell_angle_gamma 90.000000
_cell_volume 1697.696302
_symmetry_space_group_name_H-M "C M C A"
_symmetry_group_IT_number 64
_symmetry_cell_setting 'orthorhombic'
loop_
_space_group_symop_operation_xyz
x,y,z
-x,1/2-y,1/2+z
x,-y,-z
-x,1/2+y,1/2-z
-x,-y,-z
x,1/2+y,1/2-z
-x,y,z
x,1/2-y,1/2+z
1/2+x,1/2+y,z
1/2-x,-y,1/2+z
1/2+x,1/2-y,-z
1/2-x,y,1/2-z
1/2-x,1/2-y,-z
1/2+x,y,1/2-z
1/2-x,1/2+y,z
1/2+x,-y,1/2+z
loop_
_atom_site_type_symbol
_atom_site_label
_atom_site_fract_x
_atom_site_fract_y
_atom_site_fract_z
Si Si1 0.115824 0.057089 0.751108
Si Si2 0.500000 0.188777 0.817619
Si Si3 0.679612 0.284935 0.048229
O O1 0.129277 0.000000 0.500000
O O2 0.059669 0.124021 0.690511
O O3 0.173468 0.118662 0.840818
O O4 0.098665 0.000000 0.000000
O O5 0.500000 0.249697 0.067407
O O6 0.649812 0.276981 0.766862
O O7 0.750000 0.250000 0.000000
#
# Coordination Sequence:
#
# PCOD9480438 Si02
#       3
#    16   8  16
#     4  12  24  41  65 100 137 172 222 289 343 396
#     4  12  24  42  68  96 134 186 228 268 336 424
#     4  10  21  41  65  89 124 173 222 268 329 410
#
# _framework density 23.561337000000002
#
# number of rings (size 3 to 8) (size 9 to 14) (size 15 to 20)
#    0.000    0.800    0.000    8.400    0.000    0.000 
#    0.000   16.000    0.000    0.000    0.000    0.000 
#    0.000    0.000    0.000    0.000    0.000    0.000 
#
# Total GULP energy -111863.801183 kJ/mol
# GULP energy per Si atom -5593.190059 kJ/mol
# Density = 2.350771 g / cm^3
# Si number density = 23.561337 Si / 1000 Ang^3
#
#
#
# Elastic Constant Matrix: (Units=GPa)
#
#
# Indices 1 2 3 4 5 6 
#
# 1 95.7322 58.5887 26.6076 0.0000 0.0000 0.0000
# 2 58.5887 166.5289 99.5019 0.0000 0.0000 0.0000
# 3 26.6076 99.5019 262.5230 0.0000 0.0000 0.0000
# 4 0.0000 0.0000 0.0000 80.5834 0.0000 0.0000
# 5 0.0000 0.0000 0.0000 0.0000 21.9815 0.0000
# 6 0.0000 0.0000 0.0000 0.0000 0.0000 32.2306
#
#
#
# Elastic Compliance Matrix: (Units=1/GPa)
#
#
# Indices 1 2 3 4 5 6 
#
# 1 0.013374 -0.005036 0.000553 0.000000 0.000000 0.000000
# 2 -0.005036 0.009659 -0.003151 0.000000 0.000000 0.000000
# 3 0.000553 -0.003151 0.004947 0.000000 0.000000 0.000000
# 4 0.000000 0.000000 0.000000 0.012410 0.000000 0.000000
# 5 0.000000 0.000000 0.000000 0.000000 0.045493 0.000000
# 6 0.000000 0.000000 0.000000 0.000000 0.000000 0.031026
#
#
# Mechanical properties :
#
#
# Convention : Reuss Voigt Hill
#
# Bulk Modulus (GPa) = 78.65383 99.35337 89.00360
# Shear Modulus (GPa) = 36.65322 49.63150 43.14236
#
# Velocity S-wave (km/s) = 3.94845 4.59462 4.28374
# Velocity P-wave (km/s) = 7.36492 8.39088 7.89459
#
# Compressibility (1/GPa) = 0.01271394
#
# Stress axis : x y z
#
# Youngs Moduli (GPa) = 74.77192 103.52818 202.13089
#
# Poissons Ratio (x) = 0.52135 -0.11181
# Poissons Ratio (y) = 0.37654 0.63684
# Poissons Ratio (z) = -0.04136 0.32618
#
# Static dielectric constant tensor:
#      x y z
#    x 2.085320 0.000000 0.000000 
#    y 0.000000 1.882070 0.000000 
#    z 0.000000 0.000000 2.038460 
# 
# From -- ./inp_files/2009.got.cif
#   From: 2010.05.17/outbox.cif.g08.bks.cpg/sg64_2_cif.got.tgz:2009.got - 2010.06.03 16:29:19.
