data_PCOD9480976
_publ_section_title
;
Structure prediction by ZEFSAII (Michael W. Deem and Ramdas Pophale) SiO2 
 PCOD9480976
Probable space group: C M C A
;
_chemical_formula_sum "Si O2"
_cell_formula_units_Z 112
_cell_length_a 15.449652
_cell_length_b 24.118709
_cell_length_c 14.858753
_cell_angle_alpha 90.000000
_cell_angle_beta 90.000000
_cell_angle_gamma 90.000000
_cell_volume 5536.752654
_symmetry_space_group_name_H-M "C M C A"
_symmetry_group_IT_number 64
_symmetry_cell_setting 'orthorhombic'
loop_
_space_group_symop_operation_xyz
x,y,z
-x,1/2-y,1/2+z
x,-y,-z
-x,1/2+y,1/2-z
-x,-y,-z
x,1/2+y,1/2-z
-x,y,z
x,1/2-y,1/2+z
1/2+x,1/2+y,z
1/2-x,-y,1/2+z
1/2+x,1/2-y,-z
1/2-x,y,1/2-z
1/2-x,1/2-y,-z
1/2+x,y,1/2-z
1/2-x,1/2+y,z
1/2+x,-y,1/2+z
loop_
_atom_site_type_symbol
_atom_site_label
_atom_site_fract_x
_atom_site_fract_y
_atom_site_fract_z
Si Si1 0.898566 0.338444 0.487844
Si Si2 0.664175 0.046776 0.931471
Si Si3 0.602602 0.215103 0.954068
Si Si4 0.104709 0.545567 0.423754
Si Si5 0.749712 0.849311 0.144570
Si Si6 0.395382 0.535450 0.279478
Si Si7 0.901002 0.875194 0.584457
O O1 0.890114 0.280980 0.541304
O O2 0.869762 0.392644 0.544136
O O3 0.838914 0.331148 0.400784
O O4 0.000000 0.345952 0.464681
O O5 0.733021 0.089690 0.895018
O O6 0.624082 0.016106 0.845248
O O7 0.603270 0.084099 0.996894
O O8 0.695834 0.000000 0.000000
O O9 0.500000 0.201903 0.939538
O O10 0.668959 0.188997 0.884072
O O11 0.631142 0.183719 0.047089
O O12 0.123452 0.500000 0.500000
O O13 0.137888 0.531682 0.323002
O O14 0.000000 0.546590 0.416933
O O15 0.750000 0.851877 0.250000
O O16 0.500000 0.539360 0.275690
O O17 0.361202 0.590009 0.333253
O O18 0.000000 0.865614 0.610081
#
# Coordination Sequence:
#
# PCOD9480976 Si02
#       7
#    16  16  16  16  16  16  16
#     4  10  22  42  64  85 117 165 207 248 309 368
#     4   9  18  33  53  81 119 158 198 245 305 364
#     4   9  19  40  67  89 119 159 200 252 311 368
#     4   9  19  34  54  82 117 158 200 246 296 355
#     4  11  24  39  59  93 126 159 203 258 309 367
#     4   9  16  29  54  86 118 153 199 249 299 366
#     4   8  14  28  54  87 117 146 187 245 306 355
#
# _framework density 20.228463000000001
#
# number of rings (size 3 to 8) (size 9 to 14) (size 15 to 20)
#    0.000    2.714    0.000    0.857    2.000    3.429 
#    2.571    0.000    0.000    0.000    0.000    0.000 
#    0.000    0.000    0.000    0.000    0.000    0.000 
#
# Total GULP energy -312071.567679 kJ/mol
# GULP energy per Si atom -5572.706566 kJ/mol
# Density = 2.018242 g / cm^3
# Si number density = 20.228463 Si / 1000 Ang^3
#
#
#
# Elastic Constant Matrix: (Units=GPa)
#
#
# Indices 1 2 3 4 5 6 
#
# 1 53.5809 27.1814 39.4270 0.0000 0.0000 0.0000
# 2 27.1814 131.0608 58.3628 0.0000 0.0000 0.0000
# 3 39.4270 58.3628 152.7762 0.0000 0.0000 0.0000
# 4 0.0000 0.0000 0.0000 7.6503 0.0000 0.0000
# 5 0.0000 0.0000 0.0000 0.0000 11.5494 0.0000
# 6 0.0000 0.0000 0.0000 0.0000 0.0000 32.6731
#
#
#
# Elastic Compliance Matrix: (Units=1/GPa)
#
#
# Indices 1 2 3 4 5 6 
#
# 1 0.023778 -0.002650 -0.005124 0.000000 0.000000 0.000000
# 2 -0.002650 0.009489 -0.002941 0.000000 0.000000 0.000000
# 3 -0.005124 -0.002941 0.008992 0.000000 0.000000 0.000000
# 4 0.000000 0.000000 0.000000 0.130713 0.000000 0.000000
# 5 0.000000 0.000000 0.000000 0.000000 0.086584 0.000000
# 6 0.000000 0.000000 0.000000 0.000000 0.000000 0.030606
#
#
# Mechanical properties :
#
#
# Convention : Reuss Voigt Hill
#
# Bulk Modulus (GPa) = 48.01050 65.26226 56.63638
# Shear Modulus (GPa) = 15.69683 24.53768 20.11726
#
# Velocity S-wave (km/s) = 2.78866 3.48663 3.15699
# Velocity P-wave (km/s) = 5.84418 6.96717 6.43024
#
# Compressibility (1/GPa) = 0.02082877
#
# Stress axis : x y z
#
# Youngs Moduli (GPa) = 42.05547 105.38131 111.21546
#
# Poissons Ratio (x) = 0.27922 0.56989
# Poissons Ratio (y) = 0.11143 0.32712
# Poissons Ratio (z) = 0.21550 0.30996
#
# Static dielectric constant tensor:
#      x y z
#    x 1.749820 0.000000 0.000000 
#    y 0.000000 1.735370 0.000000 
#    z 0.000000 0.000000 1.711320 
# 
# From -- ./inp_files/24244.got.cif
#   From: 2010.05.17/outbox.cif.g08.bks.cpg/sg64_13_cif.got.tgz:24244.got - 2010.06.03 16:29:19.
