data_PCOD9480980
_publ_section_title
;
Structure prediction by ZEFSAII (Michael W. Deem and Ramdas Pophale) SiO2 
 PCOD9480980
Probable space group: C M C A
;
_chemical_formula_sum "Si O2"
_cell_formula_units_Z 64
_cell_length_a 11.891803
_cell_length_b 24.122520
_cell_length_c 10.470392
_cell_angle_alpha 90.000000
_cell_angle_beta 90.000000
_cell_angle_gamma 90.000000
_cell_volume 3003.539326
_symmetry_space_group_name_H-M "C M C A"
_symmetry_group_IT_number 64
_symmetry_cell_setting 'orthorhombic'
loop_
_space_group_symop_operation_xyz
x,y,z
-x,1/2-y,1/2+z
x,-y,-z
-x,1/2+y,1/2-z
-x,-y,-z
x,1/2+y,1/2-z
-x,y,z
x,1/2-y,1/2+z
1/2+x,1/2+y,z
1/2-x,-y,1/2+z
1/2+x,1/2-y,-z
1/2-x,y,1/2-z
1/2-x,1/2-y,-z
1/2+x,y,1/2-z
1/2-x,1/2+y,z
1/2+x,-y,1/2+z
loop_
_atom_site_type_symbol
_atom_site_label
_atom_site_fract_x
_atom_site_fract_y
_atom_site_fract_z
Si Si1 0.500000 0.064592 0.707744
Si Si2 0.500000 0.677647 0.273698
Si Si3 0.000000 0.051342 0.350458
Si Si4 0.320166 0.763740 0.374349
Si Si5 0.500000 0.154509 0.524033
Si Si6 0.250000 0.438803 0.250000
Si Si7 0.697670 0.000000 0.000000
O O1 0.500000 0.089965 0.563956
O O2 0.621896 0.085341 0.764836
O O3 0.500000 0.999205 0.747148
O O4 0.500000 0.613130 0.302861
O O5 0.395066 0.710933 0.332447
O O6 0.500000 0.676147 0.120475
O O7 0.888640 0.043076 0.435224
O O8 0.250000 0.778119 0.250000
O O9 0.250000 0.750000 0.500000
O O10 0.394664 0.816130 0.410665
O O11 0.236117 0.473733 0.381766
#
# Coordination Sequence:
#
# PCOD9480980 Si02
#       7
#     8   8   8  16   8   8   8
#     4  10  24  43  66 105 146 189 249 299 365 445
#     4  11  24  44  73 106 142 192 237 307 377 440
#     4   9  21  45  65  95 150 195 240 288 369 456
#     4  11  24  48  71 104 142 184 244 307 377 444
#     4  11  25  42  72 107 142 186 249 304 375 436
#     4  10  22  42  64  96 138 184 246 300 360 432
#     4   9  20  41  64  92 134 190 238 292 356 430
#
# _framework density 21.308195000000001
#
# number of rings (size 3 to 8) (size 9 to 14) (size 15 to 20)
#    0.000    1.750    2.500    0.750    1.750    7.000 
#   22.500    0.000    0.000    0.000    0.000    0.000 
#    0.000    0.000    0.000    0.000    0.000    0.000 
#
# Total GULP energy -178247.854957 kJ/mol
# GULP energy per Si atom -5570.245467 kJ/mol
# Density = 2.125970 g / cm^3
# Si number density = 21.308195 Si / 1000 Ang^3
#
#
#
# Elastic Constant Matrix: (Units=GPa)
#
#
# Indices 1 2 3 4 5 6 
#
# 1 131.3456 23.8386 61.9539 0.0000 0.0000 0.0000
# 2 23.8386 113.5809 64.5169 0.0000 0.0000 0.0000
# 3 61.9539 64.5169 187.4380 0.0000 0.0000 0.0000
# 4 0.0000 0.0000 0.0000 38.6348 0.0000 0.0000
# 5 0.0000 0.0000 0.0000 0.0000 38.8291 0.0000
# 6 0.0000 0.0000 0.0000 0.0000 0.0000 -47.6835
#
#
#
# Elastic Compliance Matrix: (Units=1/GPa)
#
#
# Indices 1 2 3 4 5 6 
#
# 1 0.009025 -0.000248 -0.002898 0.000000 0.000000 0.000000
# 2 -0.000248 0.010951 -0.003687 0.000000 0.000000 0.000000
# 3 -0.002898 -0.003687 0.007562 0.000000 0.000000 0.000000
# 4 0.000000 0.000000 0.000000 0.025883 0.000000 0.000000
# 5 0.000000 0.000000 0.000000 0.000000 0.025754 0.000000
# 6 0.000000 0.000000 0.000000 0.000000 0.000000 -0.020972
#
#
# Mechanical properties :
#
#
# Convention : Reuss Voigt Hill
#
# Bulk Modulus (GPa) = 72.08882 81.44259 76.76571
# Shear Modulus (GPa) = 65.36429 24.75976 45.06202
#
# Velocity S-wave (km/s) = 5.54457 3.41248 4.60366
# Velocity P-wave (km/s) = 8.65417 7.33696 8.02264
#
# Compressibility (1/GPa) = 0.01387178
#
# Stress axis : x y z
#
# Youngs Moduli (GPa) = 110.79882 91.31689 132.23943
#
# Poissons Ratio (x) = 0.02267 0.38319
# Poissons Ratio (y) = 0.02751 0.48760
# Poissons Ratio (z) = 0.32106 0.33671
#
# Static dielectric constant tensor:
#      x y z
#    x 1.828250 0.000000 0.000000 
#    y 0.000000 1.744780 0.000000 
#    z 0.000000 0.000000 1.796970 
# 
# From -- ./inp_files/12993.got.cif
#   From: 2010.05.17/outbox.cif.g08.bks.cpg/sg64_7_cif.got.tgz:12993.got - 2010.06.03 16:29:19.
