data_PCOD9480586
_publ_section_title
;
Structure prediction by ZEFSAII (Michael W. Deem and Ramdas Pophale) SiO2 
 PCOD9480586
Probable space group: C M C A
;
_chemical_formula_sum "Si O2"
_cell_formula_units_Z 112
_cell_length_a 36.222254
_cell_length_b 11.615134
_cell_length_c 13.855409
_cell_angle_alpha 90.000000
_cell_angle_beta 90.000000
_cell_angle_gamma 90.000000
_cell_volume 5829.335435
_symmetry_space_group_name_H-M "C M C A"
_symmetry_group_IT_number 64
_symmetry_cell_setting 'orthorhombic'
loop_
_space_group_symop_operation_xyz
x,y,z
-x,1/2-y,1/2+z
x,-y,-z
-x,1/2+y,1/2-z
-x,-y,-z
x,1/2+y,1/2-z
-x,y,z
x,1/2-y,1/2+z
1/2+x,1/2+y,z
1/2-x,-y,1/2+z
1/2+x,1/2-y,-z
1/2-x,y,1/2-z
1/2-x,1/2-y,-z
1/2+x,y,1/2-z
1/2-x,1/2+y,z
1/2+x,-y,1/2+z
loop_
_atom_site_type_symbol
_atom_site_label
_atom_site_fract_x
_atom_site_fract_y
_atom_site_fract_z
Si Si1 0.902429 0.733013 0.260543
Si Si2 0.458202 0.389563 0.629553
Si Si3 0.270544 0.179525 0.646707
Si Si4 0.144888 0.137765 0.888160
Si Si5 0.541769 0.838816 0.086730
Si Si6 0.758708 0.078869 0.135128
Si Si7 0.344384 0.870499 0.602270
O O1 0.927311 0.638590 0.207183
O O2 0.888012 0.816578 0.176825
O O3 0.928349 0.784891 0.343190
O O4 0.865401 0.691206 0.312233
O O5 0.500000 0.356525 0.659965
O O6 0.458559 0.524941 0.607979
O O7 0.450397 0.327002 0.527313
O O8 0.250000 0.185405 0.750000
O O9 0.314552 0.163367 0.655846
O O10 0.264081 0.307291 0.601094
O O11 0.256537 0.056433 0.600250
O O12 0.141591 0.001122 0.895976
O O13 0.146448 0.183330 0.998082
O O14 0.500000 0.795361 0.104591
O O15 0.750000 0.068603 0.250000
O O16 0.800662 0.118959 0.116846
#
# Coordination Sequence:
#
# PCOD9480586 Si02
#       7
#    16  16  16  16  16  16  16
#     4  12  19  32  57  80 100 136 184 214 247 314
#     4   9  19  35  53  76 106 136 169 214 264 308
#     4   9  17  32  53  75 101 137 179 222 269 320
#     4  10  22  37  52  76 111 143 171 215 275 324
#     4   9  19  35  53  76 106 136 169 214 264 308
#     4   9  17  32  53  75 101 137 179 222 269 320
#     4  10  22  37  52  76 111 143 171 215 275 324
#
# _framework density 19.213168
#
# number of rings (size 3 to 8) (size 9 to 14) (size 15 to 20)
#    0.000    2.286    0.000    4.714    0.000    0.571 
#    0.000    1.429    0.000    3.429    0.000   12.000 
#    0.000    0.000    0.000    0.000    0.000    0.000 
#
# Total GULP energy -311944.346738 kJ/mol
# GULP energy per Si atom -5570.434763 kJ/mol
# Density = 1.916944 g / cm^3
# Si number density = 19.213168 Si / 1000 Ang^3
#
#
#
# Elastic Constant Matrix: (Units=GPa)
#
#
# Indices 1 2 3 4 5 6 
#
# 1 30.5927 10.3461 9.8478 0.0000 0.0000 0.0000
# 2 10.3461 73.6695 1.4091 0.0000 0.0000 0.0000
# 3 9.8478 1.4091 58.7628 0.0000 0.0000 0.0000
# 4 0.0000 0.0000 0.0000 30.2013 0.0000 0.0000
# 5 0.0000 0.0000 0.0000 0.0000 26.0361 0.0000
# 6 0.0000 0.0000 0.0000 0.0000 0.0000 19.7667
#
#
#
# Elastic Compliance Matrix: (Units=1/GPa)
#
#
# Indices 1 2 3 4 5 6 
#
# 1 0.036292 -0.004983 -0.005963 0.000000 0.000000 0.000000
# 2 -0.004983 0.014264 0.000493 0.000000 0.000000 0.000000
# 3 -0.005963 0.000493 0.018005 0.000000 0.000000 0.000000
# 4 0.000000 0.000000 0.000000 0.033111 0.000000 0.000000
# 5 0.000000 0.000000 0.000000 0.000000 0.038408 0.000000
# 6 0.000000 0.000000 0.000000 0.000000 0.000000 0.050590
#
#
# Mechanical properties :
#
#
# Convention : Reuss Voigt Hill
#
# Bulk Modulus (GPa) = 20.98335 22.91454 21.94895
# Shear Modulus (GPa) = 21.98178 24.62896 23.30537
#
# Velocity S-wave (km/s) = 3.38612 3.58422 3.48658
# Velocity P-wave (km/s) = 5.12180 5.39270 5.25899
#
# Compressibility (1/GPa) = 0.04765683
#
# Stress axis : x y z
#
# Youngs Moduli (GPa) = 27.55433 70.10419 55.54019
#
# Poissons Ratio (x) = 0.34931 0.33116
# Poissons Ratio (y) = 0.13730 -0.02738
# Poissons Ratio (z) = 0.16429 -0.03456
#
# Static dielectric constant tensor:
#      x y z
#    x 1.647850 0.000000 0.000000 
#    y 0.000000 1.693130 0.000000 
#    z 0.000000 0.000000 1.722070 
# 
# From -- ./inp_files/28437.got.cif
#   From: 2010.05.17/outbox.cif.g08.bks.cpg/sg64_15_cif.got.tgz:28437.got - 2010.06.03 16:29:19.
