data_PCOD9480790
_publ_section_title
;
Structure prediction by ZEFSAII (Michael W. Deem and Ramdas Pophale) SiO2 
 PCOD9480790
Probable space group: C M C A
;
_chemical_formula_sum "Si O2"
_cell_formula_units_Z 80
_cell_length_a 24.078097
_cell_length_b 11.112180
_cell_length_c 13.676696
_cell_angle_alpha 90.000000
_cell_angle_beta 90.000000
_cell_angle_gamma 90.000000
_cell_volume 3659.338805
_symmetry_space_group_name_H-M "C M C A"
_symmetry_group_IT_number 64
_symmetry_cell_setting 'orthorhombic'
loop_
_space_group_symop_operation_xyz
x,y,z
-x,1/2-y,1/2+z
x,-y,-z
-x,1/2+y,1/2-z
-x,-y,-z
x,1/2+y,1/2-z
-x,y,z
x,1/2-y,1/2+z
1/2+x,1/2+y,z
1/2-x,-y,1/2+z
1/2+x,1/2-y,-z
1/2-x,y,1/2-z
1/2-x,1/2-y,-z
1/2+x,y,1/2-z
1/2-x,1/2+y,z
1/2+x,-y,1/2+z
loop_
_atom_site_type_symbol
_atom_site_label
_atom_site_fract_x
_atom_site_fract_y
_atom_site_fract_z
Si Si1 0.895341 0.883810 0.067291
Si Si2 0.275799 0.931345 0.359142
Si Si3 0.500000 0.085449 0.169968
Si Si4 0.234243 0.676525 0.136339
Si Si5 0.000000 0.154494 0.792630
Si Si6 0.383862 0.622167 0.441670
O O1 0.841177 0.907706 0.133840
O O2 0.888448 0.755903 0.009835
O O3 0.946708 0.865204 0.139068
O O4 0.903246 0.000000 0.000000
O O5 0.250000 0.939618 0.250000
O O6 0.250831 0.808650 0.404089
O O7 0.265490 0.061176 0.405386
O O8 0.500000 0.204798 0.239912
O O9 0.556695 0.098638 0.108471
O O10 0.500000 0.952778 0.215184
O O11 0.250000 0.686435 0.250000
O O12 0.169107 0.643835 0.128247
O O13 0.371247 0.500000 0.500000
#
# Coordination Sequence:
#
# PCOD9480790 Si02
#       6
#    16  16   8  16   8  16
#     4  10  22  40  61  89 122 156 197 246 298 355
#     4   9  19  35  57  83 115 154 197 241 288 344
#     4  10  23  40  62  92 122 154 199 246 296 356
#     4   9  19  35  57  83 115 154 197 241 288 344
#     4  10  23  40  62  92 122 154 199 246 296 356
#     4  10  22  40  61  89 122 156 197 246 298 355
#
# _framework density 21.861872999999999
#
# number of rings (size 3 to 8) (size 9 to 14) (size 15 to 20)
#    0.000    2.400    0.000    0.600    5.600    4.000 
#    0.000    4.000    0.000    0.000    0.000    0.000 
#    0.000    0.000    0.000    0.000    0.000    0.000 
#
# Total GULP energy -222920.707387 kJ/mol
# GULP energy per Si atom -5573.017685 kJ/mol
# Density = 2.181211 g / cm^3
# Si number density = 21.861873 Si / 1000 Ang^3
#
#
#
# Elastic Constant Matrix: (Units=GPa)
#
#
# Indices 1 2 3 4 5 6 
#
# 1 89.6988 17.7957 -14.2125 0.0000 0.0000 0.0000
# 2 17.7957 224.2048 34.7242 0.0000 0.0000 0.0000
# 3 -14.2125 34.7242 33.0578 0.0000 0.0000 0.0000
# 4 0.0000 0.0000 0.0000 30.0655 0.0000 0.0000
# 5 0.0000 0.0000 0.0000 0.0000 -361.6817 0.0000
# 6 0.0000 0.0000 0.0000 0.0000 0.0000 35.2985
#
#
#
# Elastic Compliance Matrix: (Units=1/GPa)
#
#
# Indices 1 2 3 4 5 6 
#
# 1 0.012840 -0.002238 0.007871 0.000000 0.000000 0.000000
# 2 -0.002238 0.005717 -0.006967 0.000000 0.000000 0.000000
# 3 0.007871 -0.006967 0.040953 0.000000 0.000000 0.000000
# 4 0.000000 0.000000 0.000000 0.033261 0.000000 0.000000
# 5 0.000000 0.000000 0.000000 0.000000 -0.002765 0.000000
# 6 0.000000 0.000000 0.000000 0.000000 0.000000 0.028330
#
#
# Mechanical properties :
#
#
# Convention : Reuss Voigt Hill
#
# Bulk Modulus (GPa) = 17.59318 47.06403 32.32861
# Shear Modulus (GPa) = 35.72695 -38.68659 -1.47982
#
# Velocity S-wave (km/s) = 4.04693 -4.21122 -0.82363
# Velocity P-wave (km/s) = 5.46824 1.43914 3.73032
#
# Compressibility (1/GPa) = 0.05684020
#
# Stress axis : x y z
#
# Youngs Moduli (GPa) = 77.88407 174.91868 24.41849
#
# Poissons Ratio (x) = 0.39150 -0.19220
# Poissons Ratio (y) = 0.17432 0.17013
# Poissons Ratio (z) = -0.61303 1.21872
#
# Static dielectric constant tensor:
#      x y z
#    x 1.763010 0.000000 0.000000 
#    y 0.000000 1.900580 0.000000 
#    z 0.000000 0.000000 1.740020 
# 
# From -- ./inp_files/27142.got.cif
#   From: 2010.05.17/outbox.cif.g08.bks.cpg/sg64_14_cif.got.tgz:27142.got - 2010.06.03 16:29:19.
