data_PCOD9480346
_publ_section_title
;
Structure prediction by ZEFSAII (Michael W. Deem and Ramdas Pophale) SiO2 
 PCOD9480346
Probable space group: C M C A
;
_chemical_formula_sum "Si O2"
_cell_formula_units_Z 72
_cell_length_a 9.089410
_cell_length_b 20.236926
_cell_length_c 17.293441
_cell_angle_alpha 90.000000
_cell_angle_beta 90.000000
_cell_angle_gamma 90.000000
_cell_volume 3180.985240
_symmetry_space_group_name_H-M "C M C A"
_symmetry_group_IT_number 64
_symmetry_cell_setting 'orthorhombic'
loop_
_space_group_symop_operation_xyz
x,y,z
-x,1/2-y,1/2+z
x,-y,-z
-x,1/2+y,1/2-z
-x,-y,-z
x,1/2+y,1/2-z
-x,y,z
x,1/2-y,1/2+z
1/2+x,1/2+y,z
1/2-x,-y,1/2+z
1/2+x,1/2-y,-z
1/2-x,y,1/2-z
1/2-x,1/2-y,-z
1/2+x,y,1/2-z
1/2-x,1/2+y,z
1/2+x,-y,1/2+z
loop_
_atom_site_type_symbol
_atom_site_label
_atom_site_fract_x
_atom_site_fract_y
_atom_site_fract_z
Si Si1 0.668713 0.472236 0.326970
Si Si2 0.173579 0.819241 0.365211
Si Si3 0.731474 0.500000 0.000000
Si Si4 0.825096 0.687786 0.172949
Si Si5 0.665424 0.148584 0.482594
O O1 0.500000 0.482637 0.309535
O O2 0.750000 0.497358 0.250000
O O3 0.697267 0.393273 0.334289
O O4 0.692591 0.499346 0.414540
O O5 0.283097 0.765577 0.329757
O O6 0.222205 0.821951 0.454800
O O7 0.000000 0.802358 0.355699
O O8 0.653750 0.429385 0.999638
O O9 0.750000 0.660379 0.250000
O O10 0.739305 0.658643 0.099978
O O11 0.000000 0.677819 0.170476
O O12 0.500000 0.177072 0.487085
#
# Coordination Sequence:
#
# PCOD9480346 Si02
#       5
#    16  16   8  16  16
#     4  10  22  39  64  93 125 165 212 263 320 381
#     4  10  21  40  64  92 125 163 204 253 312 377
#     4  10  24  44  66  90 126 170 216 264 318 378
#     4  12  25  41  62  91 126 164 203 252 311 374
#     4  11  23  41  64  91 121 160 208 258 310 370
#
# _framework density 22.634497
#
# number of rings (size 3 to 8) (size 9 to 14) (size 15 to 20)
#    0.000    1.333    0.000    5.333    0.000   10.667 
#    0.000    0.000    0.000    0.000    0.000    0.000 
#    0.000    0.000    0.000    0.000    0.000    0.000 
#
# Total GULP energy -201000.508418 kJ/mol
# GULP energy per Si atom -5583.347456 kJ/mol
# Density = 2.258298 g / cm^3
# Si number density = 22.634497 Si / 1000 Ang^3
#
#
#
# Elastic Constant Matrix: (Units=GPa)
#
#
# Indices 1 2 3 4 5 6 
#
# 1 107.2606 13.6484 44.8134 0.0000 0.0000 0.0000
# 2 13.6484 41.1688 -9.0588 0.0000 0.0000 0.0000
# 3 44.8134 -9.0588 180.5416 0.0000 0.0000 0.0000
# 4 0.0000 0.0000 0.0000 -11.8190 0.0000 0.0000
# 5 0.0000 0.0000 0.0000 0.0000 21.0911 0.0000
# 6 0.0000 0.0000 0.0000 0.0000 0.0000 7.1306
#
#
#
# Elastic Compliance Matrix: (Units=1/GPa)
#
#
# Indices 1 2 3 4 5 6 
#
# 1 0.011120 -0.004342 -0.002978 0.000000 0.000000 0.000000
# 2 -0.004342 0.026257 0.002395 0.000000 0.000000 0.000000
# 3 -0.002978 0.002395 0.006398 0.000000 0.000000 0.000000
# 4 0.000000 0.000000 0.000000 -0.084609 0.000000 0.000000
# 5 0.000000 0.000000 0.000000 0.000000 0.047413 0.000000
# 6 0.000000 0.000000 0.000000 0.000000 0.000000 0.140240
#
#
# Mechanical properties :
#
#
# Convention : Reuss Voigt Hill
#
# Bulk Modulus (GPa) = 29.47631 47.53077 38.50354
# Shear Modulus (GPa) = 29.76614 21.91841 25.84228
#
# Velocity S-wave (km/s) = 3.63034 3.11523 3.38260
# Velocity P-wave (km/s) = 5.53385 5.82961 5.68365
#
# Compressibility (1/GPa) = 0.03392555
#
# Stress axis : x y z
#
# Youngs Moduli (GPa) = 89.93018 38.08561 156.29293
#
# Poissons Ratio (x) = 0.16536 0.46543
# Poissons Ratio (y) = 0.39045 -0.37434
# Poissons Ratio (z) = 0.26781 -0.09122
#
# Static dielectric constant tensor:
#      x y z
#    x 1.773330 0.000000 0.000000 
#    y 0.000000 1.922210 0.000000 
#    z 0.000000 0.000000 1.817610 
# 
# From -- ./inp_files/29532.got.cif
#   From: 2010.05.17/outbox.cif.g08.bks.cpg/sg64_15_cif.got.tgz:29532.got - 2010.06.03 16:29:19.
