data_PCOD9480828
_publ_section_title
;
Structure prediction by ZEFSAII (Michael W. Deem and Ramdas Pophale) SiO2 
 PCOD9480828
Probable space group: C M C A
;
_chemical_formula_sum "Si O2"
_cell_formula_units_Z 64
_cell_length_a 10.740150
_cell_length_b 32.495736
_cell_length_c 9.068409
_cell_angle_alpha 90.000000
_cell_angle_beta 90.000000
_cell_angle_gamma 90.000000
_cell_volume 3164.957073
_symmetry_space_group_name_H-M "C M C A"
_symmetry_group_IT_number 64
_symmetry_cell_setting 'orthorhombic'
loop_
_space_group_symop_operation_xyz
x,y,z
-x,1/2-y,1/2+z
x,-y,-z
-x,1/2+y,1/2-z
-x,-y,-z
x,1/2+y,1/2-z
-x,y,z
x,1/2-y,1/2+z
1/2+x,1/2+y,z
1/2-x,-y,1/2+z
1/2+x,1/2-y,-z
1/2-x,y,1/2-z
1/2-x,1/2-y,-z
1/2+x,y,1/2-z
1/2-x,1/2+y,z
1/2+x,-y,1/2+z
loop_
_atom_site_type_symbol
_atom_site_label
_atom_site_fract_x
_atom_site_fract_y
_atom_site_fract_z
Si Si1 0.262419 0.819046 0.578681
Si Si2 0.254786 0.406010 0.072948
Si Si3 0.500000 0.953858 0.066373
Si Si4 0.000000 0.956527 0.077660
Si Si5 0.367486 0.734371 0.640732
O O1 0.250000 0.829485 0.750000
O O2 0.279920 0.861042 0.492409
O O3 0.359109 0.781022 0.580810
O O4 0.148026 0.796441 0.496323
O O5 0.250000 0.402361 0.250000
O O6 0.124815 0.427869 0.025970
O O7 0.373877 0.433355 0.033128
O O8 0.500000 0.958941 0.244142
O O9 0.500000 0.000000 0.000000
O O10 0.000000 0.000000 0.000000
O O11 0.500000 0.727390 0.715092
O O12 0.250000 0.728525 0.750000
#
# Coordination Sequence:
#
# PCOD9480828 Si02
#       5
#    16  16   8   8  16
#     4  10  23  39  60  93 127 166 211 263 311 368
#     4  10  22  41  61  90 124 163 206 251 311 382
#     4  10  22  40  64  89 122 159 198 253 316 375
#     4  10  22  40  64  91 120 155 204 253 310 381
#     4  10  23  44  67  92 128 173 218 267 324 382
#
# _framework density 20.221444999999999
#
# number of rings (size 3 to 8) (size 9 to 14) (size 15 to 20)
#    0.000    2.000    0.000    1.500    3.500   12.000 
#    4.500    0.000    0.000    0.000    0.000    0.000 
#    0.000    0.000    0.000    0.000    0.000    0.000 
#
# Total GULP energy -178469.773368 kJ/mol
# GULP energy per Si atom -5577.180418 kJ/mol
# Density = 2.017542 g / cm^3
# Si number density = 20.221445 Si / 1000 Ang^3
#
#
#
# Elastic Constant Matrix: (Units=GPa)
#
#
# Indices 1 2 3 4 5 6 
#
# 1 176.3545 56.8486 50.7219 0.0000 0.0000 0.0000
# 2 56.8486 154.8763 46.8905 0.0000 0.0000 0.0000
# 3 50.7219 46.8905 43.8976 0.0000 0.0000 0.0000
# 4 0.0000 0.0000 0.0000 44.7560 0.0000 0.0000
# 5 0.0000 0.0000 0.0000 0.0000 14.7807 0.0000
# 6 0.0000 0.0000 0.0000 0.0000 0.0000 -61.2160
#
#
#
# Elastic Compliance Matrix: (Units=1/GPa)
#
#
# Indices 1 2 3 4 5 6 
#
# 1 0.008498 -0.000216 -0.009588 0.000000 0.000000 0.000000
# 2 -0.000216 0.009549 -0.009949 0.000000 0.000000 0.000000
# 3 -0.009588 -0.009949 0.044486 0.000000 0.000000 0.000000
# 4 0.000000 0.000000 0.000000 0.022343 0.000000 0.000000
# 5 0.000000 0.000000 0.000000 0.000000 0.067656 0.000000
# 6 0.000000 0.000000 0.000000 0.000000 0.000000 -0.016336
#
#
# Mechanical properties :
#
#
# Convention : Reuss Voigt Hill
#
# Bulk Modulus (GPa) = 43.43017 76.00561 59.71789
# Shear Modulus (GPa) = 27.26608 14.37530 20.82069
#
# Velocity S-wave (km/s) = 3.67601 2.66915 3.21227
# Velocity P-wave (km/s) = 6.28818 6.86785 6.58440
#
# Compressibility (1/GPa) = 0.02302547
#
# Stress axis : x y z
#
# Youngs Moduli (GPa) = 117.67928 104.72834 22.47886
#
# Poissons Ratio (x) = 0.02266 0.21552
# Poissons Ratio (y) = 0.02546 0.22365
# Poissons Ratio (z) = 1.12826 1.04199
#
# Static dielectric constant tensor:
#      x y z
#    x 1.746600 0.000000 0.000000 
#    y 0.000000 1.678870 0.000000 
#    z 0.000000 0.000000 1.728860 
# 
# From -- ./inp_files/4663.got.cif
#   From: 2010.05.17/outbox.cif.g08.bks.cpg/sg64_3_cif.got.tgz:4663.got - 2010.06.03 16:29:19.
