data_PCOD9480259
_publ_section_title
;
Structure prediction by ZEFSAII (Michael W. Deem and Ramdas Pophale) SiO2 
 PCOD9480259
Probable space group: C M C A
;
_chemical_formula_sum "Si O2"
_cell_formula_units_Z 112
_cell_length_a 17.059894
_cell_length_b 20.088862
_cell_length_c 14.132285
_cell_angle_alpha 90.000000
_cell_angle_beta 90.000000
_cell_angle_gamma 90.000000
_cell_volume 4843.329891
_symmetry_space_group_name_H-M "C M C A"
_symmetry_group_IT_number 64
_symmetry_cell_setting 'orthorhombic'
loop_
_space_group_symop_operation_xyz
x,y,z
-x,1/2-y,1/2+z
x,-y,-z
-x,1/2+y,1/2-z
-x,-y,-z
x,1/2+y,1/2-z
-x,y,z
x,1/2-y,1/2+z
1/2+x,1/2+y,z
1/2-x,-y,1/2+z
1/2+x,1/2-y,-z
1/2-x,y,1/2-z
1/2-x,1/2-y,-z
1/2+x,y,1/2-z
1/2-x,1/2+y,z
1/2+x,-y,1/2+z
loop_
_atom_site_type_symbol
_atom_site_label
_atom_site_fract_x
_atom_site_fract_y
_atom_site_fract_z
Si Si1 0.092334 0.643729 0.597624
Si Si2 0.089686 0.564286 0.240337
Si Si3 0.592919 0.131222 0.057496
Si Si4 0.683667 0.511830 0.887932
Si Si5 0.337395 0.761549 0.535897
Si Si6 0.593361 0.201755 0.791810
Si Si7 0.640712 0.441526 0.377547
O O1 0.124918 0.573066 0.628744
O O2 0.133800 0.668447 0.503280
O O3 0.109421 0.696881 0.680661
O O4 0.000000 0.640410 0.584789
O O5 0.115422 0.621674 0.166934
O O6 0.149278 0.547857 0.324732
O O7 0.090415 0.499510 0.170628
O O8 0.000000 0.575682 0.273249
O O9 0.500000 0.121309 0.052054
O O10 0.612929 0.202789 0.014482
O O11 0.631494 0.076057 0.988675
O O12 0.770012 0.536475 0.859805
O O13 0.683734 0.500000 0.000000
O O14 0.250000 0.750000 0.500000
O O15 0.355119 0.751844 0.646303
O O16 0.500000 0.213284 0.806095
O O17 0.615717 0.128265 0.830375
#
# Coordination Sequence:
#
# PCOD9480259 Si02
#       7
#    16  16  16  16  16  16  16
#     4  11  23  42  68  93 125 172 218 264 318 384
#     4  11  22  38  62  91 122 168 213 261 317 373
#     4  10  21  39  65  95 127 160 214 275 320 374
#     4  12  26  41  60  92 135 176 212 259 323 394
#     4  11  23  40  66  96 132 167 208 269 328 384
#     4  10  21  40  68  96 124 165 221 268 314 382
#     4  11  20  36  64  93 125 159 206 267 325 375
#
# _framework density 23.124585
#
# number of rings (size 3 to 8) (size 9 to 14) (size 15 to 20)
#    0.000    1.143    1.429    7.286    0.000    4.000 
#    2.571    0.000    6.286    0.000    0.000    0.000 
#    0.000    0.000    0.000    0.000    0.000    0.000 
#
# Total GULP energy -313312.012606 kJ/mol
# GULP energy per Si atom -5594.857368 kJ/mol
# Density = 2.307195 g / cm^3
# Si number density = 23.124585 Si / 1000 Ang^3
#
#
#
# Elastic Constant Matrix: (Units=GPa)
#
#
# Indices 1 2 3 4 5 6 
#
# 1 76.2487 -17.0658 27.9693 0.0000 0.0000 0.0000
# 2 -17.0658 18.6969 5.5219 0.0000 0.0000 0.0000
# 3 27.9693 5.5219 73.1506 0.0000 0.0000 0.0000
# 4 0.0000 0.0000 0.0000 31.9260 0.0000 0.0000
# 5 0.0000 0.0000 0.0000 0.0000 12.3135 0.0000
# 6 0.0000 0.0000 0.0000 0.0000 0.0000 14.4071
#
#
#
# Elastic Compliance Matrix: (Units=1/GPa)
#
#
# Indices 1 2 3 4 5 6 
#
# 1 0.022009 0.023089 -0.010158 0.000000 0.000000 0.000000
# 2 0.023089 0.078926 -0.014786 0.000000 0.000000 0.000000
# 3 -0.010158 -0.014786 0.018671 0.000000 0.000000 0.000000
# 4 0.000000 0.000000 0.000000 0.031322 0.000000 0.000000
# 5 0.000000 0.000000 0.000000 0.000000 0.081212 0.000000
# 6 0.000000 0.000000 0.000000 0.000000 0.000000 0.069410
#
#
# Mechanical properties :
#
#
# Convention : Reuss Voigt Hill
#
# Bulk Modulus (GPa) = 8.62848 22.32744 15.47796
# Shear Modulus (GPa) = 14.53946 21.84072 18.19009
#
# Velocity S-wave (km/s) = 2.51020 3.07657 2.80770
# Velocity P-wave (km/s) = 3.48437 4.72193 4.14955
#
# Compressibility (1/GPa) = 0.11589520
#
# Stress axis : x y z
#
# Youngs Moduli (GPa) = 45.43637 12.67006 53.56040
#
# Poissons Ratio (x) = -0.29254 0.54407
# Poissons Ratio (y) = -1.04907 0.79194
# Poissons Ratio (z) = 0.46154 0.18734
#
# Static dielectric constant tensor:
#      x y z
#    x 1.838140 0.000000 0.000000 
#    y 0.000000 1.832620 0.000000 
#    z 0.000000 0.000000 1.930910 
# 
# From -- ./inp_files/24259.got.cif
#   From: 2010.05.17/outbox.cif.g08.bks.cpg/sg64_13_cif.got.tgz:24259.got - 2010.06.03 16:29:19.
