data_PCOD9480706
_publ_section_title
;
Structure prediction by ZEFSAII (Michael W. Deem and Ramdas Pophale) SiO2 
 PCOD9480706
Probable space group: C M C A
;
_chemical_formula_sum "Si O2"
_cell_formula_units_Z 80
_cell_length_a 25.650423
_cell_length_b 13.760094
_cell_length_c 8.301349
_cell_angle_alpha 90.000000
_cell_angle_beta 90.000000
_cell_angle_gamma 90.000000
_cell_volume 2929.979655
_symmetry_space_group_name_H-M "C M C A"
_symmetry_group_IT_number 64
_symmetry_cell_setting 'orthorhombic'
loop_
_space_group_symop_operation_xyz
x,y,z
-x,1/2-y,1/2+z
x,-y,-z
-x,1/2+y,1/2-z
-x,-y,-z
x,1/2+y,1/2-z
-x,y,z
x,1/2-y,1/2+z
1/2+x,1/2+y,z
1/2-x,-y,1/2+z
1/2+x,1/2-y,-z
1/2-x,y,1/2-z
1/2-x,1/2-y,-z
1/2+x,y,1/2-z
1/2-x,1/2+y,z
1/2+x,-y,1/2+z
loop_
_atom_site_type_symbol
_atom_site_label
_atom_site_fract_x
_atom_site_fract_y
_atom_site_fract_z
Si Si1 0.803840 0.930996 0.655850
Si Si2 0.558968 0.286793 0.456323
Si Si3 0.399246 0.116679 0.644101
Si Si4 0.578433 0.453377 0.675701
Si Si5 0.291665 0.291800 0.125288
O O1 0.750000 0.937073 0.750000
O O2 0.859888 0.968171 0.710908
O O3 0.816440 0.814151 0.660654
O O4 0.795183 0.000000 0.500000
O O5 0.500000 0.296482 0.398043
O O6 0.597626 0.330668 0.321848
O O7 0.573603 0.178865 0.504875
O O8 0.563376 0.345172 0.627978
O O9 0.337685 0.132008 0.593777
O O10 0.436611 0.023933 0.680736
O O11 0.565560 0.500000 0.500000
O O12 0.250000 0.335291 0.250000
O O13 0.250000 0.250000 0.000000
#
# Coordination Sequence:
#
# PCOD9480706 Si02
#       5
#    16  16  16  16  16
#     4  10  22  39  58  91 129 168 214 257 318 390
#     4  11  23  43  68  96 128 170 228 286 340 396
#     4  11  23  42  66  96 133 172 220 276 338 393
#     4   9  21  39  64  90 127 172 219 270 324 399
#     4  11  24  38  63  96 131 173 215 263 326 397
#
# _framework density 27.303944000000001
#
# number of rings (size 3 to 8) (size 9 to 14) (size 15 to 20)
#    0.000    1.600    2.000    1.800    8.400    4.400 
#    0.000    1.000    0.000    2.400    0.000    0.000 
#    0.000    0.000    0.000    0.000    0.000    0.000 
#
# Total GULP energy -222755.929093 kJ/mol
# GULP energy per Si atom -5568.898227 kJ/mol
# Density = 2.724180 g / cm^3
# Si number density = 27.303944 Si / 1000 Ang^3
#
#
#
# Elastic Constant Matrix: (Units=GPa)
#
#
# Indices 1 2 3 4 5 6 
#
# 1 153.7182 -4.3052 5.7416 0.0000 0.0000 0.0000
# 2 -4.3052 93.2354 7.9143 0.0000 0.0000 0.0000
# 3 5.7416 7.9143 63.0590 0.0000 0.0000 0.0000
# 4 0.0000 0.0000 0.0000 43.5925 0.0000 0.0000
# 5 0.0000 0.0000 0.0000 0.0000 26.0835 0.0000
# 6 0.0000 0.0000 0.0000 0.0000 0.0000 -30.5060
#
#
#
# Elastic Compliance Matrix: (Units=1/GPa)
#
#
# Indices 1 2 3 4 5 6 
#
# 1 0.006539 0.000356 -0.000640 0.000000 0.000000 0.000000
# 2 0.000356 0.010860 -0.001395 0.000000 0.000000 0.000000
# 3 -0.000640 -0.001395 0.016092 0.000000 0.000000 0.000000
# 4 0.000000 0.000000 0.000000 0.022940 0.000000 0.000000
# 5 0.000000 0.000000 0.000000 0.000000 0.038338 0.000000
# 6 0.000000 0.000000 0.000000 0.000000 0.000000 -0.032780
#
#
# Mechanical properties :
#
#
# Convention : Reuss Voigt Hill
#
# Bulk Modulus (GPa) = 33.18655 36.52377 34.85516
# Shear Modulus (GPa) = 66.32010 27.87812 47.09911
#
# Velocity S-wave (km/s) = 4.93379 3.19882 4.15781
# Velocity P-wave (km/s) = 6.68111 5.20087 5.98692
#
# Compressibility (1/GPa) = 0.03013269
#
# Stress axis : x y z
#
# Youngs Moduli (GPa) = 152.92159 92.07723 62.14426
#
# Poissons Ratio (x) = -0.03281 0.03978
# Poissons Ratio (y) = -0.05448 0.08672
# Poissons Ratio (z) = 0.09789 0.12849
#
# Static dielectric constant tensor:
#      x y z
#    x 2.378990 0.000000 0.000000 
#    y 0.000000 2.400690 0.000000 
#    z 0.000000 0.000000 2.219760 
# 
# From -- ./inp_files/10206.got.cif
#   From: 2010.05.17/outbox.cif.g08.bks.cpg/sg64_6_cif.got.tgz:10206.got - 2010.06.03 16:29:19.
