data_PCOD9480280
_publ_section_title
;
Structure prediction by ZEFSAII (Michael W. Deem and Ramdas Pophale) SiO2 
 PCOD9480280
Probable space group: C M C A
;
_chemical_formula_sum "Si O2"
_cell_formula_units_Z 88
_cell_length_a 22.576338
_cell_length_b 11.400564
_cell_length_c 15.033918
_cell_angle_alpha 90.000000
_cell_angle_beta 90.000000
_cell_angle_gamma 90.000000
_cell_volume 3869.474710
_symmetry_space_group_name_H-M "C M C A"
_symmetry_group_IT_number 64
_symmetry_cell_setting 'orthorhombic'
loop_
_space_group_symop_operation_xyz
x,y,z
-x,1/2-y,1/2+z
x,-y,-z
-x,1/2+y,1/2-z
-x,-y,-z
x,1/2+y,1/2-z
-x,y,z
x,1/2-y,1/2+z
1/2+x,1/2+y,z
1/2-x,-y,1/2+z
1/2+x,1/2-y,-z
1/2-x,y,1/2-z
1/2-x,1/2-y,-z
1/2+x,y,1/2-z
1/2-x,1/2+y,z
1/2+x,-y,1/2+z
loop_
_atom_site_type_symbol
_atom_site_label
_atom_site_fract_x
_atom_site_fract_y
_atom_site_fract_z
Si Si1 0.567719 0.809101 0.130652
Si Si2 0.633966 0.831455 0.316204
Si Si3 0.275331 0.603134 0.068138
Si Si4 0.935000 0.469529 0.603441
Si Si5 0.750000 0.707639 0.250000
Si Si6 0.849024 0.684003 0.020921
O O1 0.500000 0.849796 0.129553
O O2 0.597346 0.821430 0.226195
O O3 0.568610 0.669459 0.112007
O O4 0.607154 0.866015 0.052989
O O5 0.618178 0.960560 0.351154
O O6 0.701217 0.793340 0.294794
O O7 0.616538 0.743015 0.396367
O O8 0.279768 0.626095 0.174408
O O9 0.310926 0.713477 0.027776
O O10 0.293716 0.500000 0.000000
O O11 0.203763 0.605009 0.057763
O O12 0.934263 0.500000 0.500000
O O13 0.000000 0.507380 0.639404
#
# Coordination Sequence:
#
# PCOD9480280 Si02
#       6
#    16  16  16  16   8  16
#     4  11  23  41  64  95 130 166 217 265 318 386
#     4  11  22  40  65  92 136 168 210 274 319 382
#     4  10  22  43  66  94 132 170 214 268 323 386
#     4  10  21  39  67  97 122 166 221 265 324 387
#     4  10  22  42  66 102 132 170 224 256 332 394
#     4  10  22  41  62  95 126 167 216 262 328 382
#
# _framework density 22.742104999999999
#
# number of rings (size 3 to 8) (size 9 to 14) (size 15 to 20)
#    0.000    1.636    3.636    0.545    2.545    0.727 
#    9.818    0.909    0.000    0.545    0.000    0.000 
#    0.000    0.000    0.000    0.000    0.000    0.000 
#
# Total GULP energy -245665.316214 kJ/mol
# GULP energy per Si atom -5583.302641 kJ/mol
# Density = 2.269034 g / cm^3
# Si number density = 22.742105 Si / 1000 Ang^3
#
#
#
# Elastic Constant Matrix: (Units=GPa)
#
#
# Indices 1 2 3 4 5 6 
#
# 1 133.1666 4.1072 32.6637 0.0000 0.0000 0.0000
# 2 4.1072 25.8941 -6.3035 0.0000 0.0000 0.0000
# 3 32.6637 -6.3035 114.4113 0.0000 0.0000 0.0000
# 4 0.0000 0.0000 0.0000 21.7547 0.0000 0.0000
# 5 0.0000 0.0000 0.0000 0.0000 27.8376 0.0000
# 6 0.0000 0.0000 0.0000 0.0000 0.0000 25.0616
#
#
#
# Elastic Compliance Matrix: (Units=1/GPa)
#
#
# Indices 1 2 3 4 5 6 
#
# 1 0.008165 -0.001888 -0.002435 0.000000 0.000000 0.000000
# 2 -0.001888 0.039580 0.002720 0.000000 0.000000 0.000000
# 3 -0.002435 0.002720 0.009585 0.000000 0.000000 0.000000
# 4 0.000000 0.000000 0.000000 0.045967 0.000000 0.000000
# 5 0.000000 0.000000 0.000000 0.000000 0.035923 0.000000
# 6 0.000000 0.000000 0.000000 0.000000 0.000000 0.039902
#
#
# Mechanical properties :
#
#
# Convention : Reuss Voigt Hill
#
# Bulk Modulus (GPa) = 18.47600 37.15630 27.81615
# Shear Modulus (GPa) = 24.95385 31.13110 28.04247
#
# Velocity S-wave (km/s) = 3.31608 3.70384 3.51531
# Velocity P-wave (km/s) = 4.77531 5.88769 5.36043
#
# Compressibility (1/GPa) = 0.05412428
#
# Stress axis : x y z
#
# Youngs Moduli (GPa) = 122.47553 25.26503 104.32503
#
# Poissons Ratio (x) = 0.04770 0.25404
# Poissons Ratio (y) = 0.23122 -0.28373
# Poissons Ratio (z) = 0.29823 -0.06871
#
# Static dielectric constant tensor:
#      x y z
#    x 1.985330 0.000000 0.000000 
#    y 0.000000 1.960980 0.000000 
#    z 0.000000 0.000000 1.872680 
# 
# From -- ./inp_files/27211.got.cif
#   From: 2010.05.17/outbox.cif.g08.bks.cpg/sg64_14_cif.got.tgz:27211.got - 2010.06.03 16:29:19.
