data_PCOD9480422
_publ_section_title
;
Structure prediction by ZEFSAII (Michael W. Deem and Ramdas Pophale) SiO2 
 PCOD9480422
Probable space group: C M C A
;
_chemical_formula_sum "Si O2"
_cell_formula_units_Z 88
_cell_length_a 24.675196
_cell_length_b 14.082705
_cell_length_c 11.899573
_cell_angle_alpha 90.000000
_cell_angle_beta 90.000000
_cell_angle_gamma 90.000000
_cell_volume 4135.024343
_symmetry_space_group_name_H-M "C M C A"
_symmetry_group_IT_number 64
_symmetry_cell_setting 'orthorhombic'
loop_
_space_group_symop_operation_xyz
x,y,z
-x,1/2-y,1/2+z
x,-y,-z
-x,1/2+y,1/2-z
-x,-y,-z
x,1/2+y,1/2-z
-x,y,z
x,1/2-y,1/2+z
1/2+x,1/2+y,z
1/2-x,-y,1/2+z
1/2+x,1/2-y,-z
1/2-x,y,1/2-z
1/2-x,1/2-y,-z
1/2+x,y,1/2-z
1/2-x,1/2+y,z
1/2+x,-y,1/2+z
loop_
_atom_site_type_symbol
_atom_site_label
_atom_site_fract_x
_atom_site_fract_y
_atom_site_fract_z
Si Si1 0.000000 0.447679 0.167792
Si Si2 0.668093 0.321371 0.527574
Si Si3 0.090054 0.166094 0.070821
Si Si4 0.272902 0.153947 0.627780
Si Si5 0.500000 0.177262 0.612524
Si Si6 0.843285 0.000000 0.000000
Si Si7 0.500000 0.157549 0.251514
Si Si8 0.094936 0.500000 0.000000
O O1 0.000000 0.368301 0.264165
O O2 0.000000 0.546145 0.235038
O O3 0.946179 0.451560 0.089951
O O4 0.629727 0.252331 0.454927
O O5 0.691776 0.251917 0.624932
O O6 0.721402 0.342180 0.454881
O O7 0.633668 0.416879 0.550981
O O8 0.052427 0.185000 0.176741
O O9 0.122053 0.068199 0.080213
O O10 0.051689 0.152052 0.961892
O O11 0.250000 0.135393 0.750000
O O12 0.309403 0.070291 0.578263
O O13 0.500000 0.290206 0.632803
#
# Coordination Sequence:
#
# PCOD9480422 Si02
#       8
#     8  16  16  16   8   8   8   8
#     4  11  24  37  58  92 122 157 206 244 295 370
#     4  10  22  41  62  88 122 160 205 255 309 367
#     4  10  22  39  60  88 124 158 199 249 302 368
#     4  10  23  43  65  91 122 159 209 261 311 372
#     4  11  22  39  60  88 124 161 200 247 300 364
#     4  10  21  41  63  90 123 159 201 254 314 370
#     4  11  22  37  60  90 120 159 202 245 295 359
#     4  11  23  40  59  88 127 160 199 255 304 360
#
# _framework density 21.281616
#
# number of rings (size 3 to 8) (size 9 to 14) (size 15 to 20)
#    0.000    1.636    0.000    3.818    0.000   13.091 
#    0.000   16.364    0.000    0.000    0.000    0.000 
#    0.000    0.000    0.000    0.000    0.000    0.000 
#
# Total GULP energy -245893.553016 kJ/mol
# GULP energy per Si atom -5588.489841 kJ/mol
# Density = 2.123318 g / cm^3
# Si number density = 21.281616 Si / 1000 Ang^3
#
#
#
# Elastic Constant Matrix: (Units=GPa)
#
#
# Indices 1 2 3 4 5 6 
#
# 1 122.6405 52.2961 18.3810 0.0000 0.0000 0.0000
# 2 52.2961 111.8434 13.0370 0.0000 0.0000 0.0000
# 3 18.3810 13.0370 55.0286 0.0000 0.0000 0.0000
# 4 0.0000 0.0000 0.0000 9.3757 0.0000 0.0000
# 5 0.0000 0.0000 0.0000 0.0000 4.6350 0.0000
# 6 0.0000 0.0000 0.0000 0.0000 0.0000 37.3084
#
#
#
# Elastic Compliance Matrix: (Units=1/GPa)
#
#
# Indices 1 2 3 4 5 6 
#
# 1 0.010486 -0.004622 -0.002407 0.000000 0.000000 0.000000
# 2 -0.004622 0.011233 -0.001117 0.000000 0.000000 0.000000
# 3 -0.002407 -0.001117 0.019241 0.000000 0.000000 0.000000
# 4 0.000000 0.000000 0.000000 0.106659 0.000000 0.000000
# 5 0.000000 0.000000 0.000000 0.000000 0.215748 0.000000
# 6 0.000000 0.000000 0.000000 0.000000 0.000000 0.026804
#
#
# Mechanical properties :
#
#
# Convention : Reuss Voigt Hill
#
# Bulk Modulus (GPa) = 40.54215 50.77118 45.65666
# Shear Modulus (GPa) = 12.05733 23.98373 18.02053
#
# Velocity S-wave (km/s) = 2.38284 3.36068 2.91308
# Velocity P-wave (km/s) = 5.16355 6.24239 5.72843
#
# Compressibility (1/GPa) = 0.02466569
#
# Stress axis : x y z
#
# Youngs Moduli (GPa) = 95.36721 89.02635 51.97189
#
# Poissons Ratio (x) = 0.41151 0.12512
# Poissons Ratio (y) = 0.44082 0.05806
# Poissons Ratio (z) = 0.22959 0.09946
#
# Static dielectric constant tensor:
#      x y z
#    x 1.857160 0.000000 0.000000 
#    y 0.000000 1.764540 0.000000 
#    z 0.000000 0.000000 1.740980 
# 
# From -- ./inp_files/18281.got.cif
#   From: 2010.05.17/outbox.cif.g08.bks.cpg/sg64_10_cif.got.tgz:18281.got - 2010.06.03 16:29:19.
