data_PCOD9480966
_publ_section_title
;
Structure prediction by ZEFSAII (Michael W. Deem and Ramdas Pophale) SiO2 
 PCOD9480966
Probable space group: C M C A
;
_chemical_formula_sum "Si O2"
_cell_formula_units_Z 64
_cell_length_a 26.369211
_cell_length_b 10.828258
_cell_length_c 9.229384
_cell_angle_alpha 90.000000
_cell_angle_beta 90.000000
_cell_angle_gamma 90.000000
_cell_volume 2635.290194
_symmetry_space_group_name_H-M "C M C A"
_symmetry_group_IT_number 64
_symmetry_cell_setting 'orthorhombic'
loop_
_space_group_symop_operation_xyz
x,y,z
-x,1/2-y,1/2+z
x,-y,-z
-x,1/2+y,1/2-z
-x,-y,-z
x,1/2+y,1/2-z
-x,y,z
x,1/2-y,1/2+z
1/2+x,1/2+y,z
1/2-x,-y,1/2+z
1/2+x,1/2-y,-z
1/2-x,y,1/2-z
1/2-x,1/2-y,-z
1/2+x,y,1/2-z
1/2-x,1/2+y,z
1/2+x,-y,1/2+z
loop_
_atom_site_type_symbol
_atom_site_label
_atom_site_fract_x
_atom_site_fract_y
_atom_site_fract_z
Si Si1 0.849447 0.246667 0.132530
Si Si2 0.812255 0.500000 0.500000
Si Si3 0.500000 0.681948 0.978853
Si Si4 0.911001 0.645728 0.094304
Si Si5 0.750000 0.128844 0.750000
Si Si6 0.000000 0.493043 0.758500
O O1 0.884163 0.212634 0.269905
O O2 0.793538 0.285179 0.182901
O O3 0.845385 0.118893 0.043127
O O4 0.868807 0.359261 0.031364
O O5 0.777303 0.543353 0.632066
O O6 0.450507 0.763553 0.983046
O O7 0.500000 0.624814 0.816842
O O8 0.500000 0.593015 0.115579
O O9 0.948529 0.538773 0.154396
#
# Coordination Sequence:
#
# PCOD9480966 Si02
#       6
#    16   8   8  16   8   8
#     4  12  26  48  71 104 146 186 243 298 355 432
#     4  12  28  46  76 103 140 195 234 296 376 420
#     4  10  22  43  66 103 140 185 237 296 361 425
#     4  11  24  42  70 102 141 188 235 300 350 425
#     4  12  28  50  72 108 146 184 242 308 356 434
#     4  10  22  41  72  97 144 186 237 290 361 428
#
# _framework density 24.285753
#
# number of rings (size 3 to 8) (size 9 to 14) (size 15 to 20)
#    0.000    0.750    5.000    1.500    7.000    0.000 
#    0.000    1.250    0.000    0.000    0.000    0.000 
#    0.000    0.000    0.000    0.000    0.000    0.000 
#
# Total GULP energy -179166.399707 kJ/mol
# GULP energy per Si atom -5598.949991 kJ/mol
# Density = 2.423048 g / cm^3
# Si number density = 24.285753 Si / 1000 Ang^3
#
#
#
# Elastic Constant Matrix: (Units=GPa)
#
#
# Indices 1 2 3 4 5 6 
#
# 1 124.6495 26.1516 47.3685 0.0000 0.0000 0.0000
# 2 26.1516 77.0343 19.7836 0.0000 0.0000 0.0000
# 3 47.3685 19.7836 118.2510 0.0000 0.0000 0.0000
# 4 0.0000 0.0000 0.0000 37.6372 0.0000 0.0000
# 5 0.0000 0.0000 0.0000 0.0000 46.9042 0.0000
# 6 0.0000 0.0000 0.0000 0.0000 0.0000 34.8946
#
#
#
# Elastic Compliance Matrix: (Units=1/GPa)
#
#
# Indices 1 2 3 4 5 6 
#
# 1 0.009884 -0.002444 -0.003551 0.000000 0.000000 0.000000
# 2 -0.002444 0.014168 -0.001391 0.000000 0.000000 0.000000
# 3 -0.003551 -0.001391 0.010112 0.000000 0.000000 0.000000
# 4 0.000000 0.000000 0.000000 0.026569 0.000000 0.000000
# 5 0.000000 0.000000 0.000000 0.000000 0.021320 0.000000
# 6 0.000000 0.000000 0.000000 0.000000 0.000000 0.028658
#
#
# Mechanical properties :
#
#
# Convention : Reuss Voigt Hill
#
# Bulk Modulus (GPa) = 51.56584 56.28246 53.92415
# Shear Modulus (GPa) = 37.89386 38.99594 38.44490
#
# Velocity S-wave (km/s) = 3.95439 4.01148 3.98304
# Velocity P-wave (km/s) = 6.49066 6.68441 6.58825
#
# Compressibility (1/GPa) = 0.01939268
#
# Stress axis : x y z
#
# Youngs Moduli (GPa) = 101.16867 70.58074 98.89541
#
# Poissons Ratio (x) = 0.17248 0.35114
# Poissons Ratio (y) = 0.24723 0.13761
# Poissons Ratio (z) = 0.35921 0.09821
#
# Static dielectric constant tensor:
#      x y z
#    x 1.983340 0.000000 0.000000 
#    y 0.000000 2.114070 0.000000 
#    z 0.000000 0.000000 1.955330 
# 
# From -- ./inp_files/9976.got.cif
#   From: 2010.05.17/outbox.cif.g08.bks.cpg/sg64_5_cif.got.tgz:9976.got - 2010.06.03 16:29:19.
