data_PCOD9480030
_publ_section_title
;
Structure prediction by ZEFSAII (Michael W. Deem and Ramdas Pophale) SiO2 
 PCOD9480030
Probable space group: C M C A
;
_chemical_formula_sum "Si O2"
_cell_formula_units_Z 96
_cell_length_a 8.778021
_cell_length_b 20.018567
_cell_length_c 28.403585
_cell_angle_alpha 90.000000
_cell_angle_beta 90.000000
_cell_angle_gamma 90.000000
_cell_volume 4991.174571
_symmetry_space_group_name_H-M "C M C A"
_symmetry_group_IT_number 64
_symmetry_cell_setting 'orthorhombic'
loop_
_space_group_symop_operation_xyz
x,y,z
-x,1/2-y,1/2+z
x,-y,-z
-x,1/2+y,1/2-z
-x,-y,-z
x,1/2+y,1/2-z
-x,y,z
x,1/2-y,1/2+z
1/2+x,1/2+y,z
1/2-x,-y,1/2+z
1/2+x,1/2-y,-z
1/2-x,y,1/2-z
1/2-x,1/2-y,-z
1/2+x,y,1/2-z
1/2-x,1/2+y,z
1/2+x,-y,1/2+z
loop_
_atom_site_type_symbol
_atom_site_label
_atom_site_fract_x
_atom_site_fract_y
_atom_site_fract_z
Si Si1 0.317942 0.912064 0.131182
Si Si2 0.816357 0.337828 0.041341
Si Si3 0.320261 0.517599 0.200428
Si Si4 0.680888 0.697830 0.800992
Si Si5 0.180921 0.650888 0.164995
Si Si6 0.683724 0.307724 0.562031
O O1 0.500000 0.919276 0.132850
O O2 0.270685 0.895909 0.077475
O O3 0.265613 0.847819 0.161144
O O4 0.243642 0.974727 0.157027
O O5 0.750142 0.266975 0.058761
O O6 0.000000 0.333217 0.043104
O O7 0.772240 0.344425 0.986550
O O8 0.500000 0.510752 0.203021
O O9 0.250000 0.494060 0.250000
O O10 0.271790 0.593948 0.191804
O O11 0.500000 0.683594 0.802131
O O12 0.750000 0.683916 0.750000
O O13 0.702429 0.775739 0.813254
O O14 0.229047 0.656424 0.110250
O O15 0.000000 0.635091 0.167154
O O16 0.500000 0.301924 0.563391
#
# Coordination Sequence:
#
# PCOD9480030 Si02
#       6
#    16  16  16  16  16  16
#     4  11  22  38  59  85 117 152 193 237 284 341
#     4   9  18  32  56  88 119 152 189 231 282 337
#     4  12  26  43  62  82 112 153 196 241 293 349
#     4  11  22  36  56  84 114 147 188 239 290 339
#     4  10  21  38  60  86 117 152 191 236 286 342
#     4   9  17  33  57  87 120 152 187 231 283 337
#
# _framework density 19.23395
#
# number of rings (size 3 to 8) (size 9 to 14) (size 15 to 20)
#    0.000    1.667    1.667    3.500    0.000    4.000 
#    0.000    0.833    0.000    5.000    0.000    0.000 
#    0.000    0.000    0.000    0.000    0.000    0.000 
#
# Total GULP energy -268157.002722 kJ/mol
# GULP energy per Si atom -5586.604223 kJ/mol
# Density = 1.919017 g / cm^3
# Si number density = 19.233950 Si / 1000 Ang^3
#
#
#
# Elastic Constant Matrix: (Units=GPa)
#
#
# Indices 1 2 3 4 5 6 
#
# 1 50.2064 16.3028 9.7868 0.0000 0.0000 0.0000
# 2 16.3028 34.2461 -5.6967 0.0000 0.0000 0.0000
# 3 9.7868 -5.6967 83.4176 0.0000 0.0000 0.0000
# 4 0.0000 0.0000 0.0000 15.1354 0.0000 0.0000
# 5 0.0000 0.0000 0.0000 0.0000 17.7496 0.0000
# 6 0.0000 0.0000 0.0000 0.0000 0.0000 32.2334
#
#
#
# Elastic Compliance Matrix: (Units=1/GPa)
#
#
# Indices 1 2 3 4 5 6 
#
# 1 0.024660 -0.012361 -0.003737 0.000000 0.000000 0.000000
# 2 -0.012361 0.035732 0.003890 0.000000 0.000000 0.000000
# 3 -0.003737 0.003890 0.012692 0.000000 0.000000 0.000000
# 4 0.000000 0.000000 0.000000 0.066070 0.000000 0.000000
# 5 0.000000 0.000000 0.000000 0.000000 0.056339 0.000000
# 6 0.000000 0.000000 0.000000 0.000000 0.000000 0.031024
#
#
# Mechanical properties :
#
#
# Convention : Reuss Voigt Hill
#
# Bulk Modulus (GPa) = 20.54730 23.18399 21.86565
# Shear Modulus (GPa) = 18.71562 22.85549 20.78555
#
# Velocity S-wave (km/s) = 3.12276 3.45090 3.29092
# Velocity P-wave (km/s) = 4.86911 5.28754 5.08263
#
# Compressibility (1/GPa) = 0.04866819
#
# Stress axis : x y z
#
# Youngs Moduli (GPa) = 40.55124 27.98603 78.78951
#
# Poissons Ratio (x) = 0.34594 0.29447
# Poissons Ratio (y) = 0.50126 -0.30653
# Poissons Ratio (z) = 0.15156 -0.10888
#
# Static dielectric constant tensor:
#      x y z
#    x 1.449790 0.000000 0.000000 
#    y 0.000000 1.650400 0.000000 
#    z 0.000000 0.000000 1.720410 
# 
# From -- ./inp_files/48049.got.cif
#   From: 2010.05.17/outbox.cif.g08.bks.cpg/sg64_25_cif.got.tgz:48049.got - 2010.06.03 16:29:19.
