data_PCOD9480291
_publ_section_title
;
Structure prediction by ZEFSAII (Michael W. Deem and Ramdas Pophale) SiO2 
 PCOD9480291
Probable space group: C M C A
;
_chemical_formula_sum "Si O2"
_cell_formula_units_Z 72
_cell_length_a 15.252766
_cell_length_b 19.329078
_cell_length_c 11.083793
_cell_angle_alpha 90.000000
_cell_angle_beta 90.000000
_cell_angle_gamma 90.000000
_cell_volume 3267.744953
_symmetry_space_group_name_H-M "C M C A"
_symmetry_group_IT_number 64
_symmetry_cell_setting 'orthorhombic'
loop_
_space_group_symop_operation_xyz
x,y,z
-x,1/2-y,1/2+z
x,-y,-z
-x,1/2+y,1/2-z
-x,-y,-z
x,1/2+y,1/2-z
-x,y,z
x,1/2-y,1/2+z
1/2+x,1/2+y,z
1/2-x,-y,1/2+z
1/2+x,1/2-y,-z
1/2-x,y,1/2-z
1/2-x,1/2-y,-z
1/2+x,y,1/2-z
1/2-x,1/2+y,z
1/2+x,-y,1/2+z
loop_
_atom_site_type_symbol
_atom_site_label
_atom_site_fract_x
_atom_site_fract_y
_atom_site_fract_z
Si Si1 0.399733 0.736685 0.973525
Si Si2 0.337863 0.618488 0.419960
Si Si3 0.500000 0.005566 0.671071
Si Si4 0.855589 0.895128 0.865415
Si Si5 0.500000 0.840224 0.301455
Si Si6 0.500000 0.073908 0.923734
O O1 0.500000 0.761320 0.991190
O O2 0.337854 0.802672 0.970099
O O3 0.413271 0.700530 0.842364
O O4 0.382848 0.674840 0.065782
O O5 0.240503 0.587748 0.417656
O O6 0.358879 0.622222 0.277490
O O7 0.412283 0.578935 0.496105
O O8 0.582338 0.961509 0.627467
O O9 0.500000 0.014937 0.818398
O O10 0.500000 0.085414 0.630383
O O11 0.500000 0.860357 0.164641
#
# Coordination Sequence:
#
# PCOD9480291 Si02
#       6
#    16  16   8  16   8   8
#     4  10  21  39  69  97 133 182 221 294 347 416
#     4  11  24  40  67 102 138 175 232 296 350 416
#     4  10  22  44  70  94 140 184 236 268 348 428
#     4  11  24  41  63 100 138 183 231 288 348 411
#     4   8  22  39  68 100 124 184 225 279 343 418
#     4  10  22  43  70  98 132 184 229 283 353 412
#
# _framework density 22.033543999999999
#
# number of rings (size 3 to 8) (size 9 to 14) (size 15 to 20)
#    1.333    0.444    2.222    1.333    3.111    3.556 
#    0.000    8.889    0.000    0.000    0.000    0.000 
#    0.000    0.000    0.000    0.000    0.000    0.000 
#
# Total GULP energy -200598.787482 kJ/mol
# GULP energy per Si atom -5572.188541 kJ/mol
# Density = 2.198339 g / cm^3
# Si number density = 22.033544 Si / 1000 Ang^3
#
#
#
# Elastic Constant Matrix: (Units=GPa)
#
#
# Indices 1 2 3 4 5 6 
#
# 1 138.4109 50.7181 62.4320 0.0000 0.0000 0.0000
# 2 50.7181 108.7299 29.9372 0.0000 0.0000 0.0000
# 3 62.4320 29.9372 110.2638 0.0000 0.0000 0.0000
# 4 0.0000 0.0000 0.0000 50.9527 0.0000 0.0000
# 5 0.0000 0.0000 0.0000 0.0000 8.2126 0.0000
# 6 0.0000 0.0000 0.0000 0.0000 0.0000 15.9970
#
#
#
# Elastic Compliance Matrix: (Units=1/GPa)
#
#
# Indices 1 2 3 4 5 6 
#
# 1 0.010902 -0.003659 -0.005179 0.000000 0.000000 0.000000
# 2 -0.003659 0.011168 -0.000960 0.000000 0.000000 0.000000
# 3 -0.005179 -0.000960 0.012262 0.000000 0.000000 0.000000
# 4 0.000000 0.000000 0.000000 0.019626 0.000000 0.000000
# 5 0.000000 0.000000 0.000000 0.000000 0.121764 0.000000
# 6 0.000000 0.000000 0.000000 0.000000 0.000000 0.062512
#
#
# Mechanical properties :
#
#
# Convention : Reuss Voigt Hill
#
# Bulk Modulus (GPa) = 67.86558 71.50878 69.68718
# Shear Modulus (GPa) = 19.02996 29.32029 24.17512
#
# Velocity S-wave (km/s) = 2.94203 3.65185 3.31599
# Velocity P-wave (km/s) = 6.51219 7.09269 6.80863
#
# Compressibility (1/GPa) = 0.01473501
#
# Stress axis : x y z
#
# Youngs Moduli (GPa) = 91.72732 89.53807 81.55013
#
# Poissons Ratio (x) = 0.32764 0.42236
# Poissons Ratio (y) = 0.33566 0.07832
# Poissons Ratio (z) = 0.47507 0.08599
#
# Static dielectric constant tensor:
#      x y z
#    x 1.805960 0.000000 0.000000 
#    y 0.000000 1.876920 0.000000 
#    z 0.000000 0.000000 1.851920 
# 
# From -- ./inp_files/15919.got.cif
#   From: 2010.05.17/outbox.cif.g08.bks.cpg/sg64_8_cif.got.tgz:15919.got - 2010.06.03 16:29:19.
