data_PCOD9480493
_publ_section_title
;
Structure prediction by ZEFSAII (Michael W. Deem and Ramdas Pophale) SiO2 
 PCOD9480493
Probable space group: C M C A
;
_chemical_formula_sum "Si O2"
_cell_formula_units_Z 88
_cell_length_a 28.045208
_cell_length_b 16.566045
_cell_length_c 10.093802
_cell_angle_alpha 90.000000
_cell_angle_beta 90.000000
_cell_angle_gamma 90.000000
_cell_volume 4689.562016
_symmetry_space_group_name_H-M "C M C A"
_symmetry_group_IT_number 64
_symmetry_cell_setting 'orthorhombic'
loop_
_space_group_symop_operation_xyz
x,y,z
-x,1/2-y,1/2+z
x,-y,-z
-x,1/2+y,1/2-z
-x,-y,-z
x,1/2+y,1/2-z
-x,y,z
x,1/2-y,1/2+z
1/2+x,1/2+y,z
1/2-x,-y,1/2+z
1/2+x,1/2-y,-z
1/2-x,y,1/2-z
1/2-x,1/2-y,-z
1/2+x,y,1/2-z
1/2-x,1/2+y,z
1/2+x,-y,1/2+z
loop_
_atom_site_type_symbol
_atom_site_label
_atom_site_fract_x
_atom_site_fract_y
_atom_site_fract_z
Si Si1 0.593925 0.260133 0.586581
Si Si2 0.689608 0.085472 0.547674
Si Si3 0.250000 0.187288 0.750000
Si Si4 0.000000 0.967434 0.298263
Si Si5 0.414332 0.928594 0.392440
Si Si6 0.000000 0.632555 0.069024
Si Si7 0.843108 0.722480 0.350881
O O1 0.578701 0.165805 0.570641
O O2 0.547130 0.313844 0.579116
O O3 0.622025 0.277160 0.723698
O O4 0.630389 0.273810 0.465260
O O5 0.727542 0.134574 0.632008
O O6 0.642328 0.068604 0.636626
O O7 0.669716 0.137870 0.423512
O O8 0.708743 0.000000 0.500000
O O9 0.206655 0.239815 0.694117
O O10 0.047992 0.945392 0.221136
O O11 0.000000 0.916314 0.432165
O O12 0.000000 0.063004 0.321250
O O13 0.422190 0.000000 0.500000
#
# Coordination Sequence:
#
# PCOD9480493 Si02
#       7
#    16  16   8   8  16   8  16
#     4  11  24  43  68 101 128 183 222 280 332 413
#     4  10  24  41  66 100 133 178 223 277 332 410
#     4  12  22  46  68 102 132 174 232 278 340 394
#     4  11  24  43  59  97 136 173 216 280 341 388
#     4  10  21  42  66  92 129 173 226 271 326 402
#     4  11  27  39  64  97 139 172 225 272 340 408
#     4  11  23  43  69  97 134 172 230 276 337 394
#
# _framework density 18.765079
#
# number of rings (size 3 to 8) (size 9 to 14) (size 15 to 20)
#    0.000    1.273    3.636    2.455    7.636    1.455 
#    0.000    0.000    0.000    0.000    0.000    0.000 
#    0.000    0.000    0.000    0.000    0.000    0.000 
#
# Total GULP energy -245493.035565 kJ/mol
# GULP energy per Si atom -5579.387172 kJ/mol
# Density = 1.872237 g / cm^3
# Si number density = 18.765079 Si / 1000 Ang^3
#
#
#
# Elastic Constant Matrix: (Units=GPa)
#
#
# Indices 1 2 3 4 5 6 
#
# 1 125.2419 67.4832 62.3593 0.0000 0.0000 0.0000
# 2 67.4832 130.2786 38.8883 0.0000 0.0000 0.0000
# 3 62.3593 38.8883 96.7267 0.0000 0.0000 0.0000
# 4 0.0000 0.0000 0.0000 23.8250 0.0000 0.0000
# 5 0.0000 0.0000 0.0000 0.0000 25.0287 0.0000
# 6 0.0000 0.0000 0.0000 0.0000 0.0000 3.2952
#
#
#
# Elastic Compliance Matrix: (Units=1/GPa)
#
#
# Indices 1 2 3 4 5 6 
#
# 1 0.014420 -0.005335 -0.007152 0.000000 0.000000 0.000000
# 2 -0.005335 0.010696 -0.000861 0.000000 0.000000 0.000000
# 3 -0.007152 -0.000861 0.015295 0.000000 0.000000 0.000000
# 4 0.000000 0.000000 0.000000 0.041973 0.000000 0.000000
# 5 0.000000 0.000000 0.000000 0.000000 0.039954 0.000000
# 6 0.000000 0.000000 0.000000 0.000000 0.000000 0.303473
#
#
# Mechanical properties :
#
#
# Convention : Reuss Voigt Hill
#
# Bulk Modulus (GPa) = 72.90491 76.63432 74.76961
# Shear Modulus (GPa) = 10.93904 22.66420 16.80162
#
# Velocity S-wave (km/s) = 2.41705 3.47909 2.99551
# Velocity P-wave (km/s) = 6.83558 7.55422 7.20387
#
# Compressibility (1/GPa) = 0.01371650
#
# Stress axis : x y z
#
# Youngs Moduli (GPa) = 69.34890 93.49139 65.37958
#
# Poissons Ratio (x) = 0.49874 0.46757
# Poissons Ratio (y) = 0.36995 0.05630
# Poissons Ratio (z) = 0.49596 0.08051
#
# Static dielectric constant tensor:
#      x y z
#    x 1.625780 0.000000 0.000000 
#    y 0.000000 1.660240 0.000000 
#    z 0.000000 0.000000 1.669680 
# 
# From -- ./inp_files/11124.got.cif
#   From: 2010.05.17/outbox.cif.g08.bks.cpg/sg64_6_cif.got.tgz:11124.got - 2010.06.03 16:29:19.
