data_PCOD9480681
_publ_section_title
;
Structure prediction by ZEFSAII (Michael W. Deem and Ramdas Pophale) SiO2 
 PCOD9480681
Probable space group: C M C A
;
_chemical_formula_sum "Si O2"
_cell_formula_units_Z 56
_cell_length_a 10.913366
_cell_length_b 9.177387
_cell_length_c 21.297551
_cell_angle_alpha 90.000000
_cell_angle_beta 90.000000
_cell_angle_gamma 90.000000
_cell_volume 2133.081421
_symmetry_space_group_name_H-M "C M C A"
_symmetry_group_IT_number 64
_symmetry_cell_setting 'orthorhombic'
loop_
_space_group_symop_operation_xyz
x,y,z
-x,1/2-y,1/2+z
x,-y,-z
-x,1/2+y,1/2-z
-x,-y,-z
x,1/2+y,1/2-z
-x,y,z
x,1/2-y,1/2+z
1/2+x,1/2+y,z
1/2-x,-y,1/2+z
1/2+x,1/2-y,-z
1/2-x,y,1/2-z
1/2-x,1/2-y,-z
1/2+x,y,1/2-z
1/2-x,1/2+y,z
1/2+x,-y,1/2+z
loop_
_atom_site_type_symbol
_atom_site_label
_atom_site_fract_x
_atom_site_fract_y
_atom_site_fract_z
Si Si1 0.250000 0.589763 0.250000
Si Si2 0.500000 0.273586 0.711280
Si Si3 0.243263 0.580602 0.877056
Si Si4 0.000000 0.595109 0.825713
Si Si5 0.356852 0.188232 0.046169
O O1 0.367172 0.684970 0.263454
O O2 0.274311 0.498329 0.187376
O O3 0.500000 0.114799 0.750374
O O4 0.500000 0.418837 0.661067
O O5 0.200295 0.462265 0.928303
O O6 0.117908 0.663210 0.859351
O O7 0.349686 0.688319 0.898887
O O8 0.500000 0.177084 0.024488
O O9 0.250000 0.250000 0.000000
#
# Coordination Sequence:
#
# PCOD9480681 Si02
#       5
#     8   8  16   8  16
#     4  10  24  44  70 112 150 196 238 302 374 468
#     4  10  22  38  64  99 149 196 240 281 366 440
#     4  11  25  48  77 111 154 196 249 312 384 452
#     4  10  22  42  67 103 148 200 235 309 361 444
#     4  12  29  51  79 110 149 201 265 320 381 448
#
# _framework density 26.253098999999999
#
# number of rings (size 3 to 8) (size 9 to 14) (size 15 to 20)
#    0.000    1.143    1.429    2.571    4.000   18.286 
#    0.000    0.000    0.000    0.000    0.000    0.000 
#    0.000    0.000    0.000    0.000    0.000    0.000 
#
# Total GULP energy -156026.052824 kJ/mol
# GULP energy per Si atom -5572.359029 kJ/mol
# Density = 2.619335 g / cm^3
# Si number density = 26.253099 Si / 1000 Ang^3
#
#
#
# Elastic Constant Matrix: (Units=GPa)
#
#
# Indices 1 2 3 4 5 6 
#
# 1 176.6959 29.8379 -6.5973 0.0000 0.0000 0.0000
# 2 29.8379 107.2683 25.7463 0.0000 0.0000 0.0000
# 3 -6.5973 25.7463 75.8561 0.0000 0.0000 0.0000
# 4 0.0000 0.0000 0.0000 37.2117 0.0000 0.0000
# 5 0.0000 0.0000 0.0000 0.0000 33.2830 0.0000
# 6 0.0000 0.0000 0.0000 0.0000 0.0000 33.0517
#
#
#
# Elastic Compliance Matrix: (Units=1/GPa)
#
#
# Indices 1 2 3 4 5 6 
#
# 1 0.006036 -0.001965 0.001192 0.000000 0.000000 0.000000
# 2 -0.001965 0.010789 -0.003833 0.000000 0.000000 0.000000
# 3 0.001192 -0.003833 0.014587 0.000000 0.000000 0.000000
# 4 0.000000 0.000000 0.000000 0.026873 0.000000 0.000000
# 5 0.000000 0.000000 0.000000 0.000000 0.030045 0.000000
# 6 0.000000 0.000000 0.000000 0.000000 0.000000 0.030256
#
#
# Mechanical properties :
#
#
# Convention : Reuss Voigt Hill
#
# Bulk Modulus (GPa) = 45.04437 50.86601 47.95519
# Shear Modulus (GPa) = 36.98275 41.43151 39.20713
#
# Velocity S-wave (km/s) = 3.75734 3.97691 3.86868
# Velocity P-wave (km/s) = 6.00154 6.36436 6.18561
#
# Compressibility (1/GPa) = 0.02220033
#
# Stress axis : x y z
#
# Youngs Moduli (GPa) = 165.67916 92.68758 68.55234
#
# Poissons Ratio (x) = 0.18213 -0.08171
# Poissons Ratio (y) = 0.32556 0.26274
# Poissons Ratio (z) = -0.19747 0.35525
#
# Static dielectric constant tensor:
#      x y z
#    x 2.147330 0.000000 0.000000 
#    y 0.000000 2.117150 0.000000 
#    z 0.000000 0.000000 2.749250 
# 
# From -- ./inp_files/37656.got.cif
#   From: 2010.05.17/outbox.cif.g08.bks.cpg/sg64_19_cif.got.tgz:37656.got - 2010.06.03 16:29:19.
