data_PCOD9480515
_publ_section_title
;
Structure prediction by ZEFSAII (Michael W. Deem and Ramdas Pophale) SiO2 
 PCOD9480515
Probable space group: C M C A
;
_chemical_formula_sum "Si O2"
_cell_formula_units_Z 68
_cell_length_a 17.982005
_cell_length_b 15.618258
_cell_length_c 8.608346
_cell_angle_alpha 90.000000
_cell_angle_beta 90.000000
_cell_angle_gamma 90.000000
_cell_volume 2417.633258
_symmetry_space_group_name_H-M "C M C A"
_symmetry_group_IT_number 64
_symmetry_cell_setting 'orthorhombic'
loop_
_space_group_symop_operation_xyz
x,y,z
-x,1/2-y,1/2+z
x,-y,-z
-x,1/2+y,1/2-z
-x,-y,-z
x,1/2+y,1/2-z
-x,y,z
x,1/2-y,1/2+z
1/2+x,1/2+y,z
1/2-x,-y,1/2+z
1/2+x,1/2-y,-z
1/2-x,y,1/2-z
1/2-x,1/2-y,-z
1/2+x,y,1/2-z
1/2-x,1/2+y,z
1/2+x,-y,1/2+z
loop_
_atom_site_type_symbol
_atom_site_label
_atom_site_fract_x
_atom_site_fract_y
_atom_site_fract_z
Si Si1 0.500000 0.000000 0.000000
Si Si2 0.087467 0.292711 0.397831
Si Si3 0.856564 0.569700 0.841327
Si Si4 0.287727 0.830923 0.915376
Si Si5 0.582484 0.066536 0.355516
O O1 0.434048 0.062408 0.930747
O O2 0.131891 0.353357 0.279186
O O3 0.127570 0.202198 0.395721
O O4 0.093639 0.342372 0.563535
O O5 0.000000 0.288954 0.361278
O O6 0.643617 0.478948 0.749159
O O7 0.790855 0.593317 0.958408
O O8 0.250000 0.842402 0.750000
O O9 0.250000 0.750000 0.000000
O O10 0.500000 0.064418 0.273935
O O11 0.576266 0.000000 0.500000
#
# Coordination Sequence:
#
# PCOD9480515 Si02
#       5
#     4  16  16  16  16
#     4  12  24  40  78 116 152 188 278 364 402 482
#     4  10  21  42  79 114 153 212 279 345 417 497
#     4  11  22  43  71 110 160 198 266 346 416 486
#     4  12  27  49  76 110 172 226 274 336 421 522
#     4   8  15  34  67 108 149 185 251 337 406 481
#
# _framework density 28.126681999999999
#
# number of rings (size 3 to 8) (size 9 to 14) (size 15 to 20)
#    0.000    1.647    4.706    1.412    1.647    1.882 
#    0.000    0.000   18.118    0.000    0.000    0.000 
#    0.000    0.000    0.000    0.000    0.000    0.000 
#
# Total GULP energy -190298.871483 kJ/mol
# GULP energy per Si atom -5597.025632 kJ/mol
# Density = 2.806266 g / cm^3
# Si number density = 28.126682 Si / 1000 Ang^3
#
#
#
# Elastic Constant Matrix: (Units=GPa)
#
#
# Indices 1 2 3 4 5 6 
#
# 1 109.7303 53.6037 72.5857 0.0000 0.0000 0.0000
# 2 53.6037 141.4618 62.0135 0.0000 0.0000 0.0000
# 3 72.5857 62.0135 150.0290 0.0000 0.0000 0.0000
# 4 0.0000 0.0000 0.0000 56.6879 0.0000 0.0000
# 5 0.0000 0.0000 0.0000 0.0000 59.2905 0.0000
# 6 0.0000 0.0000 0.0000 0.0000 0.0000 49.9448
#
#
#
# Elastic Compliance Matrix: (Units=1/GPa)
#
#
# Indices 1 2 3 4 5 6 
#
# 1 0.014326 -0.002919 -0.005724 0.000000 0.000000 0.000000
# 2 -0.002919 0.009228 -0.002402 0.000000 0.000000 0.000000
# 3 -0.005724 -0.002402 0.010428 0.000000 0.000000 0.000000
# 4 0.000000 0.000000 0.000000 0.017640 0.000000 0.000000
# 5 0.000000 0.000000 0.000000 0.000000 0.016866 0.000000
# 6 0.000000 0.000000 0.000000 0.000000 0.000000 0.020022
#
#
# Mechanical properties :
#
#
# Convention : Reuss Voigt Hill
#
# Bulk Modulus (GPa) = 84.09963 86.40300 85.25132
# Shear Modulus (GPa) = 43.64316 47.38583 45.51450
#
# Velocity S-wave (km/s) = 3.94339 4.10900 4.02705
# Velocity P-wave (km/s) = 7.12032 7.30053 7.21099
#
# Compressibility (1/GPa) = 0.01189066
#
# Stress axis : x y z
#
# Youngs Moduli (GPa) = 69.80368 108.36360 95.89684
#
# Poissons Ratio (x) = 0.31631 0.54896
# Poissons Ratio (y) = 0.20376 0.23036
# Poissons Ratio (z) = 0.39959 0.26031
#
# Static dielectric constant tensor:
#      x y z
#    x 2.192850 0.000000 0.000000 
#    y 0.000000 2.770040 0.000000 
#    z 0.000000 0.000000 1.622790 
# 
# From -- ./inp_files/14264.got.cif
#   From: 2010.05.17/outbox.cif.g08.bks.cpg/sg64_8_cif.got.tgz:14264.got - 2010.06.03 16:29:19.
