data_PCOD9480013
_publ_section_title
;
Structure prediction by ZEFSAII (Michael W. Deem and Ramdas Pophale) SiO2 
 PCOD9480013
Probable space group: C M C A
;
_chemical_formula_sum "Si O2"
_cell_formula_units_Z 96
_cell_length_a 11.097097
_cell_length_b 22.843035
_cell_length_c 19.587066
_cell_angle_alpha 90.000000
_cell_angle_beta 90.000000
_cell_angle_gamma 90.000000
_cell_volume 4965.152296
_symmetry_space_group_name_H-M "C M C A"
_symmetry_group_IT_number 64
_symmetry_cell_setting 'orthorhombic'
loop_
_space_group_symop_operation_xyz
x,y,z
-x,1/2-y,1/2+z
x,-y,-z
-x,1/2+y,1/2-z
-x,-y,-z
x,1/2+y,1/2-z
-x,y,z
x,1/2-y,1/2+z
1/2+x,1/2+y,z
1/2-x,-y,1/2+z
1/2+x,1/2-y,-z
1/2-x,y,1/2-z
1/2-x,1/2-y,-z
1/2+x,y,1/2-z
1/2-x,1/2+y,z
1/2+x,-y,1/2+z
loop_
_atom_site_type_symbol
_atom_site_label
_atom_site_fract_x
_atom_site_fract_y
_atom_site_fract_z
Si Si1 0.359282 0.810094 0.419249
Si Si2 0.636834 0.026301 0.363552
Si Si3 0.366050 0.626732 0.509055
Si Si4 0.284401 0.500000 0.500000
Si Si5 0.364649 0.313600 0.632448
Si Si6 0.250000 0.612006 0.250000
Si Si7 0.131142 0.601331 0.705661
O O1 0.500000 0.807364 0.447578
O O2 0.253793 0.841502 0.462603
O O3 0.310141 0.745791 0.398805
O O4 0.368765 0.848864 0.351408
O O5 0.500000 0.042797 0.379945
O O6 0.683153 0.069919 0.304472
O O7 0.707971 0.021965 0.434711
O O8 0.638811 0.961450 0.331273
O O9 0.500000 0.647881 0.532734
O O10 0.356520 0.557568 0.522835
O O11 0.363392 0.639154 0.428112
O O12 0.500000 0.293992 0.646193
O O13 0.321277 0.344309 0.700534
O O14 0.250000 0.608395 0.750000
O O15 0.000000 0.603347 0.742153
#
# Coordination Sequence:
#
# PCOD9480013 Si02
#       7
#    16  16  16   8  16   8  16
#     4  10  22  42  65  90 125 168 211 263 318 377
#     4  11  23  39  63  91 127 169 213 265 327 391
#     4  11  23  41  65  96 127 165 212 264 323 383
#     4  12  22  42  62  96 131 166 217 270 329 386
#     4  10  23  42  62  87 127 166 211 267 319 382
#     4  12  22  42  62  94 126 170 220 264 336 392
#     4  10  21  38  59  89 120 157 204 254 312 375
#
# _framework density 19.334754
#
# number of rings (size 3 to 8) (size 9 to 14) (size 15 to 20)
#    0.000    1.333    4.167    1.500    1.167    1.333 
#    0.000    1.667    0.000    0.000    0.000    0.000 
#    0.000    0.000    0.000    0.000    0.000    0.000 
#
# Total GULP energy -267335.542112 kJ/mol
# GULP energy per Si atom -5569.490461 kJ/mol
# Density = 1.929075 g / cm^3
# Si number density = 19.334754 Si / 1000 Ang^3
#
#
#
# Elastic Constant Matrix: (Units=GPa)
#
#
# Indices 1 2 3 4 5 6 
#
# 1 126.6636 19.7599 61.6392 0.0000 0.0000 0.0000
# 2 19.7599 93.7118 22.3316 0.0000 0.0000 0.0000
# 3 61.6392 22.3316 73.5914 0.0000 0.0000 0.0000
# 4 0.0000 0.0000 0.0000 32.8527 0.0000 0.0000
# 5 0.0000 0.0000 0.0000 0.0000 22.9804 0.0000
# 6 0.0000 0.0000 0.0000 0.0000 0.0000 -1.2542
#
#
#
# Elastic Compliance Matrix: (Units=1/GPa)
#
#
# Indices 1 2 3 4 5 6 
#
# 1 0.013329 -0.000162 -0.011115 0.000000 0.000000 0.000000
# 2 -0.000162 0.011505 -0.003356 0.000000 0.000000 0.000000
# 3 -0.011115 -0.003356 0.023917 0.000000 0.000000 0.000000
# 4 0.000000 0.000000 0.000000 0.030439 0.000000 0.000000
# 5 0.000000 0.000000 0.000000 0.000000 0.043515 0.000000
# 6 0.000000 0.000000 0.000000 0.000000 0.000000 -0.797302
#
#
# Mechanical properties :
#
#
# Convention : Reuss Voigt Hill
#
# Bulk Modulus (GPa) = 51.32050 55.71423 53.51737
# Shear Modulus (GPa) = -7.82674 23.59817 7.88572
#
# Velocity S-wave (km/s) = -2.01415 3.49736 2.02173
# Velocity P-wave (km/s) = 4.60344 6.72212 5.76101
#
# Compressibility (1/GPa) = 0.01948539
#
# Stress axis : x y z
#
# Youngs Moduli (GPa) = 75.02266 86.92039 41.81143
#
# Poissons Ratio (x) = 0.01406 0.46475
# Poissons Ratio (y) = 0.01214 0.14030
# Poissons Ratio (z) = 0.83390 0.29167
#
# Static dielectric constant tensor:
#      x y z
#    x 1.725200 0.000000 0.000000 
#    y 0.000000 1.770730 0.000000 
#    z 0.000000 0.000000 1.668410 
# 
# From -- ./inp_files/38324.got.cif
#   From: 2010.05.17/outbox.cif.g08.bks.cpg/sg64_20_cif.got.tgz:38324.got - 2010.06.03 16:29:19.
