data_PCOD9480055
_publ_section_title
;
Structure prediction by ZEFSAII (Michael W. Deem and Ramdas Pophale) SiO2 
 PCOD9480055
Probable space group: C M C A
;
_chemical_formula_sum "Si O2"
_cell_formula_units_Z 64
_cell_length_a 18.512759
_cell_length_b 13.539889
_cell_length_c 11.695582
_cell_angle_alpha 90.000000
_cell_angle_beta 90.000000
_cell_angle_gamma 90.000000
_cell_volume 2931.622794
_symmetry_space_group_name_H-M "C M C A"
_symmetry_group_IT_number 64
_symmetry_cell_setting 'orthorhombic'
loop_
_space_group_symop_operation_xyz
x,y,z
-x,1/2-y,1/2+z
x,-y,-z
-x,1/2+y,1/2-z
-x,-y,-z
x,1/2+y,1/2-z
-x,y,z
x,1/2-y,1/2+z
1/2+x,1/2+y,z
1/2-x,-y,1/2+z
1/2+x,1/2-y,-z
1/2-x,y,1/2-z
1/2-x,1/2-y,-z
1/2+x,y,1/2-z
1/2-x,1/2+y,z
1/2+x,-y,1/2+z
loop_
_atom_site_type_symbol
_atom_site_label
_atom_site_fract_x
_atom_site_fract_y
_atom_site_fract_z
Si Si1 0.306054 0.894287 0.533447
Si Si2 0.917889 0.411841 0.093840
Si Si3 0.163115 0.290128 0.913696
Si Si4 0.913794 0.575687 0.266391
O O1 0.242897 0.835271 0.598016
O O2 0.329746 0.826635 0.427147
O O3 0.373681 0.913415 0.614621
O O4 0.274614 0.000000 0.500000
O O5 0.893306 0.471560 0.205504
O O6 0.000000 0.374370 0.109944
O O7 0.921364 0.500000 0.000000
O O8 0.867968 0.329864 0.036000
O O9 0.112901 0.335662 0.816286
O O10 0.000000 0.577901 0.274885
#
# Coordination Sequence:
#
# PCOD9480055 Si02
#       4
#    16  16  16  16
#     4  11  24  39  57  86 120 149 187 242 293 335
#     4   8  15  32  59  85 107 140 189 233 269 325
#     4  10  21  39  62  84 112 155 196 231 280 346
#     4  10  21  38  61  87 116 151 191 237 286 337
#
# _framework density 21.830912000000001
#
# number of rings (size 3 to 8) (size 9 to 14) (size 15 to 20)
#    0.000    2.250    0.000    5.250    0.000    4.500 
#    0.000    7.500    0.000    0.000    0.000    0.000 
#    0.000    0.000    0.000    0.000    0.000    0.000 
#
# Total GULP energy -178777.104318 kJ/mol
# GULP energy per Si atom -5586.784510 kJ/mol
# Density = 2.178122 g / cm^3
# Si number density = 21.830912 Si / 1000 Ang^3
#
#
#
# Elastic Constant Matrix: (Units=GPa)
#
#
# Indices 1 2 3 4 5 6 
#
# 1 62.8266 1.6732 9.3296 0.0000 0.0000 0.0000
# 2 1.6732 80.8928 6.2275 0.0000 0.0000 0.0000
# 3 9.3296 6.2275 35.0671 0.0000 0.0000 0.0000
# 4 0.0000 0.0000 0.0000 12.6482 0.0000 0.0000
# 5 0.0000 0.0000 0.0000 0.0000 21.4446 0.0000
# 6 0.0000 0.0000 0.0000 0.0000 0.0000 15.0738
#
#
#
# Elastic Compliance Matrix: (Units=1/GPa)
#
#
# Indices 1 2 3 4 5 6 
#
# 1 0.016572 -0.000003 -0.004408 0.000000 0.000000 0.000000
# 2 -0.000003 0.012533 -0.002225 0.000000 0.000000 0.000000
# 3 -0.004408 -0.002225 0.030085 0.000000 0.000000 0.000000
# 4 0.000000 0.000000 0.000000 0.079063 0.000000 0.000000
# 5 0.000000 0.000000 0.000000 0.000000 0.046632 0.000000
# 6 0.000000 0.000000 0.000000 0.000000 0.000000 0.066340
#
#
# Mechanical properties :
#
#
# Convention : Reuss Voigt Hill
#
# Bulk Modulus (GPa) = 21.77864 23.69412 22.73638
# Shear Modulus (GPa) = 17.86971 20.60373 19.23672
#
# Velocity S-wave (km/s) = 2.86414 3.07544 2.97167
# Velocity P-wave (km/s) = 4.57552 4.84646 4.71294
#
# Compressibility (1/GPa) = 0.04591656
#
# Stress axis : x y z
#
# Youngs Moduli (GPa) = 60.34449 79.78683 33.23950
#
# Poissons Ratio (x) = 0.00027 0.14653
# Poissons Ratio (y) = 0.00020 0.07395
# Poissons Ratio (z) = 0.26601 0.17752
#
# Static dielectric constant tensor:
#      x y z
#    x 1.757600 0.000000 0.000000 
#    y 0.000000 1.826320 0.000000 
#    z 0.000000 0.000000 1.808490 
# 
# From -- ./inp_files/15477.got.cif
#   From: 2010.05.17/outbox.cif.g08.bks.cpg/sg64_8_cif.got.tgz:15477.got - 2010.06.03 16:29:19.
