data_PCOD9480833
_publ_section_title
;
Structure prediction by ZEFSAII (Michael W. Deem and Ramdas Pophale) SiO2 
 PCOD9480833
Probable space group: C M C A
;
_chemical_formula_sum "Si O2"
_cell_formula_units_Z 112
_cell_length_a 24.369242
_cell_length_b 15.807394
_cell_length_c 14.262188
_cell_angle_alpha 90.000000
_cell_angle_beta 90.000000
_cell_angle_gamma 90.000000
_cell_volume 5493.997480
_symmetry_space_group_name_H-M "C M C A"
_symmetry_group_IT_number 64
_symmetry_cell_setting 'orthorhombic'
loop_
_space_group_symop_operation_xyz
x,y,z
-x,1/2-y,1/2+z
x,-y,-z
-x,1/2+y,1/2-z
-x,-y,-z
x,1/2+y,1/2-z
-x,y,z
x,1/2-y,1/2+z
1/2+x,1/2+y,z
1/2-x,-y,1/2+z
1/2+x,1/2-y,-z
1/2-x,y,1/2-z
1/2-x,1/2-y,-z
1/2+x,y,1/2-z
1/2-x,1/2+y,z
1/2+x,-y,1/2+z
loop_
_atom_site_type_symbol
_atom_site_label
_atom_site_fract_x
_atom_site_fract_y
_atom_site_fract_z
Si Si1 0.717068 0.410533 0.465495
Si Si2 0.060630 0.727325 0.904519
Si Si3 0.170560 0.848449 0.091074
Si Si4 0.586253 0.419710 0.947104
Si Si5 0.619052 0.163887 0.081548
Si Si6 0.864591 0.612448 0.797123
Si Si7 0.065903 0.454046 0.764221
O O1 0.740353 0.500000 0.500000
O O2 0.766597 0.347225 0.442137
O O3 0.672885 0.384008 0.543705
O O4 0.681148 0.415279 0.371283
O O5 0.061000 0.825359 0.936689
O O6 0.108099 0.701290 0.830854
O O7 0.000000 0.708449 0.867586
O O8 0.075801 0.672356 0.996194
O O9 0.141337 0.757856 0.098570
O O10 0.162112 0.885722 0.194639
O O11 0.138816 0.901367 0.011729
O O12 0.591508 0.445311 0.839202
O O13 0.558944 0.500000 0.000000
O O14 0.590840 0.117236 0.167886
O O15 0.913882 0.544863 0.800623
O O16 0.000000 0.447705 0.758292
#
# Coordination Sequence:
#
# PCOD9480833 Si02
#       7
#    16  16  16  16  16  16  16
#     4  11  22  41  69  95 127 168 213 270 329 384
#     4  10  22  40  64  93 128 170 214 270 328 382
#     4  11  23  43  66  91 133 171 210 270 330 385
#     4  11  23  42  61  93 131 167 220 266 316 398
#     4  10  23  43  65  97 127 166 222 269 323 397
#     4  11  23  42  64  96 130 168 220 268 322 399
#     4  12  24  41  65  95 133 172 217 273 324 384
#
# _framework density 20.385885999999999
#
# number of rings (size 3 to 8) (size 9 to 14) (size 15 to 20)
#    0.000    1.143    2.857    3.429    0.000    1.143 
#    0.000    5.714    0.000    0.000    0.000    0.000 
#    0.000    0.000    0.000    0.000    0.000    0.000 
#
# Total GULP energy -312390.293331 kJ/mol
# GULP energy per Si atom -5578.398095 kJ/mol
# Density = 2.033949 g / cm^3
# Si number density = 20.385886 Si / 1000 Ang^3
#
#
#
# Elastic Constant Matrix: (Units=GPa)
#
#
# Indices 1 2 3 4 5 6 
#
# 1 83.6520 18.1464 50.1642 0.0000 0.0000 0.0000
# 2 18.1464 80.6900 20.9108 0.0000 0.0000 0.0000
# 3 50.1642 20.9108 117.8466 0.0000 0.0000 0.0000
# 4 0.0000 0.0000 0.0000 26.6082 0.0000 0.0000
# 5 0.0000 0.0000 0.0000 0.0000 -33.5607 0.0000
# 6 0.0000 0.0000 0.0000 0.0000 0.0000 19.1079
#
#
#
# Elastic Compliance Matrix: (Units=1/GPa)
#
#
# Indices 1 2 3 4 5 6 
#
# 1 0.016343 -0.001963 -0.006609 0.000000 0.000000 0.000000
# 2 -0.001963 0.013226 -0.001511 0.000000 0.000000 0.000000
# 3 -0.006609 -0.001511 0.011567 0.000000 0.000000 0.000000
# 4 0.000000 0.000000 0.000000 0.037582 0.000000 0.000000
# 5 0.000000 0.000000 0.000000 0.000000 -0.029797 0.000000
# 6 0.000000 0.000000 0.000000 0.000000 0.000000 0.052334
#
#
# Mechanical properties :
#
#
# Convention : Reuss Voigt Hill
#
# Bulk Modulus (GPa) = 47.68547 51.18127 49.43337
# Shear Modulus (GPa) = 38.93726 15.29557 27.11641
#
# Velocity S-wave (km/s) = 4.37511 2.74214 3.65109
# Velocity P-wave (km/s) = 6.99745 5.93182 6.48655
#
# Compressibility (1/GPa) = 0.02097075
#
# Stress axis : x y z
#
# Youngs Moduli (GPa) = 61.18807 75.60758 86.45391
#
# Poissons Ratio (x) = 0.14840 0.57133
# Poissons Ratio (y) = 0.12010 0.13066
# Poissons Ratio (z) = 0.40436 0.11427
#
# Static dielectric constant tensor:
#      x y z
#    x 1.694600 0.000000 0.000000 
#    y 0.000000 1.776480 0.000000 
#    z 0.000000 0.000000 1.703950 
# 
# From -- ./inp_files/27411.got.cif
#   From: 2010.05.17/outbox.cif.g08.bks.cpg/sg64_14_cif.got.tgz:27411.got - 2010.06.03 16:29:19.
