data_PCOD9480201
_publ_section_title
;
Structure prediction by ZEFSAII (Michael W. Deem and Ramdas Pophale) SiO2 
 PCOD9480201
Probable space group: C M C A
;
_chemical_formula_sum "Si O2"
_cell_formula_units_Z 80
_cell_length_a 17.080345
_cell_length_b 24.988379
_cell_length_c 10.363001
_cell_angle_alpha 90.000000
_cell_angle_beta 90.000000
_cell_angle_gamma 90.000000
_cell_volume 4423.033849
_symmetry_space_group_name_H-M "C M C A"
_symmetry_group_IT_number 64
_symmetry_cell_setting 'orthorhombic'
loop_
_space_group_symop_operation_xyz
x,y,z
-x,1/2-y,1/2+z
x,-y,-z
-x,1/2+y,1/2-z
-x,-y,-z
x,1/2+y,1/2-z
-x,y,z
x,1/2-y,1/2+z
1/2+x,1/2+y,z
1/2-x,-y,1/2+z
1/2+x,1/2-y,-z
1/2-x,y,1/2-z
1/2-x,1/2-y,-z
1/2+x,y,1/2-z
1/2-x,1/2+y,z
1/2+x,-y,1/2+z
loop_
_atom_site_type_symbol
_atom_site_label
_atom_site_fract_x
_atom_site_fract_y
_atom_site_fract_z
Si Si1 0.404654 0.963339 0.881093
Si Si2 0.804992 0.252583 0.874497
Si Si3 0.405239 0.528216 0.868684
Si Si4 0.158019 0.139425 0.769628
Si Si5 0.093745 0.848115 0.521521
O O1 0.500000 0.963667 0.880598
O O2 0.378588 0.991087 0.749960
O O3 0.380817 0.902722 0.907258
O O4 0.378880 0.000000 0.000000
O O5 0.750000 0.263567 0.750000
O O6 0.845711 0.195414 0.846695
O O7 0.750000 0.250000 0.000000
O O8 0.866932 0.298496 0.906395
O O9 0.500000 0.529058 0.869159
O O10 0.377861 0.588669 0.842914
O O11 0.378614 0.500000 0.000000
O O12 0.250000 0.128903 0.750000
O O13 0.119911 0.147290 0.628203
O O14 0.000000 0.844305 0.524920
#
# Coordination Sequence:
#
# PCOD9480201 Si02
#       5
#    16  16  16  16  16
#     4   9  17  34  61  88 118 156 199 249 305 362
#     4  11  23  44  64  87 130 170 203 261 329 369
#     4  10  21  39  62  92 127 161 202 260 316 365
#     4  11  22  41  64  87 130 167 205 253 326 373
#     4  11  22  40  69  97 120 167 223 258 302 383
#
# _framework density 18.087133000000001
#
# number of rings (size 3 to 8) (size 9 to 14) (size 15 to 20)
#    0.000    1.600    6.000    0.600    0.000    3.200 
#    3.600    0.000    0.000    0.000    0.000    0.000 
#    0.000    0.000    0.000    0.000    0.000    0.000 
#
# Total GULP energy -223245.025610 kJ/mol
# GULP energy per Si atom -5581.125640 kJ/mol
# Density = 1.804597 g / cm^3
# Si number density = 18.087133 Si / 1000 Ang^3
#
#
#
# Elastic Constant Matrix: (Units=GPa)
#
#
# Indices 1 2 3 4 5 6 
#
# 1 52.1392 52.5203 36.9197 0.0000 0.0000 0.0000
# 2 52.5203 208.4898 108.6077 0.0000 0.0000 0.0000
# 3 36.9197 108.6077 169.0621 0.0000 0.0000 0.0000
# 4 0.0000 0.0000 0.0000 39.0526 0.0000 0.0000
# 5 0.0000 0.0000 0.0000 0.0000 15.8701 0.0000
# 6 0.0000 0.0000 0.0000 0.0000 0.0000 8.4385
#
#
#
# Elastic Compliance Matrix: (Units=1/GPa)
#
#
# Indices 1 2 3 4 5 6 
#
# 1 0.026249 -0.005450 -0.002231 0.000000 0.000000 0.000000
# 2 -0.005450 0.008340 -0.004168 0.000000 0.000000 0.000000
# 3 -0.002231 -0.004168 0.009080 0.000000 0.000000 0.000000
# 4 0.000000 0.000000 0.000000 0.025606 0.000000 0.000000
# 5 0.000000 0.000000 0.000000 0.000000 0.063012 0.000000
# 6 0.000000 0.000000 0.000000 0.000000 0.000000 0.118505
#
#
# Mechanical properties :
#
#
# Convention : Reuss Voigt Hill
#
# Bulk Modulus (GPa) = 50.07188 91.75405 70.91297
# Shear Modulus (GPa) = 17.78428 28.11513 22.94970
#
# Velocity S-wave (km/s) = 3.13909 3.94690 3.56594
# Velocity P-wave (km/s) = 6.39393 8.46225 7.49974
#
# Compressibility (1/GPa) = 0.01997129
#
# Stress axis : x y z
#
# Youngs Moduli (GPa) = 38.09637 119.89732 110.13631
#
# Poissons Ratio (x) = 0.65346 0.24572
# Poissons Ratio (y) = 0.20763 0.45903
# Poissons Ratio (z) = 0.08499 0.49971
#
# Static dielectric constant tensor:
#      x y z
#    x 1.617740 0.000000 0.000000 
#    y 0.000000 1.619590 0.000000 
#    z 0.000000 0.000000 1.619730 
# 
# From -- ./inp_files/7102.got.cif
#   From: 2010.05.17/outbox.cif.g08.bks.cpg/sg64_4_cif.got.tgz:7102.got - 2010.06.03 16:29:19.
