data_PCOD9480305
_publ_section_title
;
Structure prediction by ZEFSAII (Michael W. Deem and Ramdas Pophale) SiO2 
 PCOD9480305
Probable space group: C M C A
;
_chemical_formula_sum "Si O2"
_cell_formula_units_Z 96
_cell_length_a 8.728552
_cell_length_b 20.275756
_cell_length_c 28.474319
_cell_angle_alpha 90.000000
_cell_angle_beta 90.000000
_cell_angle_gamma 90.000000
_cell_volume 5039.327760
_symmetry_space_group_name_H-M "C M C A"
_symmetry_group_IT_number 64
_symmetry_cell_setting 'orthorhombic'
loop_
_space_group_symop_operation_xyz
x,y,z
-x,1/2-y,1/2+z
x,-y,-z
-x,1/2+y,1/2-z
-x,-y,-z
x,1/2+y,1/2-z
-x,y,z
x,1/2-y,1/2+z
1/2+x,1/2+y,z
1/2-x,-y,1/2+z
1/2+x,1/2-y,-z
1/2-x,y,1/2-z
1/2-x,1/2-y,-z
1/2+x,y,1/2-z
1/2-x,1/2+y,z
1/2+x,-y,1/2+z
loop_
_atom_site_type_symbol
_atom_site_label
_atom_site_fract_x
_atom_site_fract_y
_atom_site_fract_z
Si Si1 0.315923 0.340086 0.536394
Si Si2 0.183857 0.189730 0.939711
Si Si3 0.315493 0.155157 0.665620
Si Si4 0.815157 0.600847 0.131460
Si Si5 0.317557 0.208375 0.299195
Si Si6 0.316257 0.017167 0.800169
O O1 0.500000 0.340250 0.532479
O O2 0.247320 0.348552 0.484813
O O3 0.268791 0.266600 0.554192
O O4 0.271266 0.391661 0.576860
O O5 0.231140 0.161993 0.889218
O O6 0.000000 0.188672 0.941174
O O7 0.500000 0.156201 0.668553
O O8 0.249009 0.219034 0.691457
O O9 0.251334 0.088522 0.687700
O O10 0.740067 0.660675 0.159795
O O11 0.774409 0.533948 0.158476
O O12 0.000000 0.608502 0.133958
O O13 0.500000 0.210173 0.297312
O O14 0.250000 0.183494 0.250000
O O15 0.500000 0.020528 0.797120
O O16 0.250000 0.994917 0.750000
#
# Coordination Sequence:
#
# PCOD9480305 Si02
#       6
#    16  16  16  16  16  16
#     4   9  17  33  57  85 117 150 187 233 287 342
#     4   9  18  33  56  85 116 150 188 234 287 341
#     4  11  22  40  61  83 117 154 194 241 291 342
#     4  10  21  40  61  85 118 154 193 240 291 343
#     4  12  24  37  58  86 115 147 192 243 292 346
#     4  11  24  41  61  84 115 155 198 239 291 351
#
# _framework density 19.050160000000002
#
# number of rings (size 3 to 8) (size 9 to 14) (size 15 to 20)
#    0.000    1.667    1.667    3.500    0.000    4.667 
#    0.000    0.833    0.000    5.000    0.000    0.000 
#    0.000    0.000    0.000    0.000    0.000    0.000 
#
# Total GULP energy -268175.465268 kJ/mol
# GULP energy per Si atom -5586.988860 kJ/mol
# Density = 1.900680 g / cm^3
# Si number density = 19.050160 Si / 1000 Ang^3
#
#
#
# Elastic Constant Matrix: (Units=GPa)
#
#
# Indices 1 2 3 4 5 6 
#
# 1 22.9054 12.6316 6.7347 0.0000 0.0000 0.0000
# 2 12.6316 48.9595 -13.3546 0.0000 0.0000 0.0000
# 3 6.7347 -13.3546 85.1335 0.0000 0.0000 0.0000
# 4 0.0000 0.0000 0.0000 25.8085 0.0000 0.0000
# 5 0.0000 0.0000 0.0000 0.0000 33.9639 0.0000
# 6 0.0000 0.0000 0.0000 0.0000 0.0000 20.2521
#
#
#
# Elastic Compliance Matrix: (Units=1/GPa)
#
#
# Indices 1 2 3 4 5 6 
#
# 1 0.054423 -0.015896 -0.006799 0.000000 0.000000 0.000000
# 2 -0.015896 0.025981 0.005333 0.000000 0.000000 0.000000
# 3 -0.006799 0.005333 0.013121 0.000000 0.000000 0.000000
# 4 0.000000 0.000000 0.000000 0.038747 0.000000 0.000000
# 5 0.000000 0.000000 0.000000 0.000000 0.029443 0.000000
# 6 0.000000 0.000000 0.000000 0.000000 0.000000 0.049378
#
#
# Mechanical properties :
#
#
# Convention : Reuss Voigt Hill
#
# Bulk Modulus (GPa) = 17.00637 18.78018 17.89328
# Shear Modulus (GPa) = 18.83846 26.07068 22.45457
#
# Velocity S-wave (km/s) = 3.14807 3.70338 3.43696
# Velocity P-wave (km/s) = 4.70747 5.30720 5.01631
#
# Compressibility (1/GPa) = 0.05880149
#
# Stress axis : x y z
#
# Youngs Moduli (GPa) = 18.37473 38.49001 76.21571
#
# Poissons Ratio (x) = 0.61182 0.51817
# Poissons Ratio (y) = 0.29208 -0.40646
# Poissons Ratio (z) = 0.12492 -0.20527
#
# Static dielectric constant tensor:
#      x y z
#    x 1.642140 0.000000 0.000000 
#    y 0.000000 1.642690 0.000000 
#    z 0.000000 0.000000 1.705090 
# 
# From -- ./inp_files/48047.got.cif
#   From: 2010.05.17/outbox.cif.g08.bks.cpg/sg64_25_cif.got.tgz:48047.got - 2010.06.03 16:29:19.
