data_PCOD9480306
_publ_section_title
;
Structure prediction by ZEFSAII (Michael W. Deem and Ramdas Pophale) SiO2 
 PCOD9480306
Probable space group: C M C A
;
_chemical_formula_sum "Si O2"
_cell_formula_units_Z 56
_cell_length_a 20.691904
_cell_length_b 5.090932
_cell_length_c 20.212573
_cell_angle_alpha 90.000000
_cell_angle_beta 90.000000
_cell_angle_gamma 90.000000
_cell_volume 2129.214193
_symmetry_space_group_name_H-M "C M C A"
_symmetry_group_IT_number 64
_symmetry_cell_setting 'orthorhombic'
loop_
_space_group_symop_operation_xyz
x,y,z
-x,1/2-y,1/2+z
x,-y,-z
-x,1/2+y,1/2-z
-x,-y,-z
x,1/2+y,1/2-z
-x,y,z
x,1/2-y,1/2+z
1/2+x,1/2+y,z
1/2-x,-y,1/2+z
1/2+x,1/2-y,-z
1/2-x,y,1/2-z
1/2-x,1/2-y,-z
1/2+x,y,1/2-z
1/2-x,1/2+y,z
1/2+x,-y,1/2+z
loop_
_atom_site_type_symbol
_atom_site_label
_atom_site_fract_x
_atom_site_fract_y
_atom_site_fract_z
Si Si1 0.897146 0.500000 0.500000
Si Si2 0.791631 0.828313 0.573748
Si Si3 0.500000 0.256899 0.450950
Si Si4 0.137339 0.617400 0.204601
Si Si5 0.000000 0.756836 0.707902
O O1 0.854704 0.717228 0.537136
O O2 0.927277 0.677357 0.434422
O O3 0.734681 0.619213 0.560910
O O4 0.809171 0.826708 0.651198
O O5 0.500000 0.500000 0.500000
O O6 0.500000 0.000000 0.500000
O O7 0.140116 0.330931 0.236685
O O8 0.065565 0.661188 0.172573
O O9 0.000000 0.451621 0.727733
#
# Coordination Sequence:
#
# PCOD9480306 Si02
#       5
#     8  16   8  16   8
#     4   9  24  42  66  90 130 147 210 250 304 369
#     4  12  26  39  62  89 123 172 204 243 300 355
#     4   8  20  38  68  92 114 158 190 256 320 344
#     4  10  21  40  61  86 121 154 207 255 300 359
#     4   8  16  32  58  83 108 147 188 248 308 342
#
# _framework density 26.300785999999999
#
# number of rings (size 3 to 8) (size 9 to 14) (size 15 to 20)
#    0.857    1.143    0.000    2.571    4.000    5.714 
#    0.000    0.000    6.286    0.000    0.000    0.000 
#    0.000    0.000    0.000    0.000    0.000    0.000 
#
# Total GULP energy -155926.470610 kJ/mol
# GULP energy per Si atom -5568.802522 kJ/mol
# Density = 2.624092 g / cm^3
# Si number density = 26.300786 Si / 1000 Ang^3
#
#
#
# Elastic Constant Matrix: (Units=GPa)
#
#
# Indices 1 2 3 4 5 6 
#
# 1 83.0252 34.8087 31.3222 0.0000 0.0000 0.0000
# 2 34.8087 160.6612 18.2729 0.0000 0.0000 0.0000
# 3 31.3222 18.2729 54.6198 0.0000 0.0000 0.0000
# 4 0.0000 0.0000 0.0000 37.4630 0.0000 0.0000
# 5 0.0000 0.0000 0.0000 0.0000 3.6527 0.0000
# 6 0.0000 0.0000 0.0000 0.0000 0.0000 14.3528
#
#
#
# Elastic Compliance Matrix: (Units=1/GPa)
#
#
# Indices 1 2 3 4 5 6 
#
# 1 0.016331 -0.002571 -0.008505 0.000000 0.000000 0.000000
# 2 -0.002571 0.006875 -0.000826 0.000000 0.000000 0.000000
# 3 -0.008505 -0.000826 0.023462 0.000000 0.000000 0.000000
# 4 0.000000 0.000000 0.000000 0.026693 0.000000 0.000000
# 5 0.000000 0.000000 0.000000 0.000000 0.273772 0.000000
# 6 0.000000 0.000000 0.000000 0.000000 0.000000 0.069673
#
#
# Mechanical properties :
#
#
# Convention : Reuss Voigt Hill
#
# Bulk Modulus (GPa) = 43.73562 51.90153 47.81858
# Shear Modulus (GPa) = 11.15495 25.35384 18.25440
#
# Velocity S-wave (km/s) = 2.06168 3.10820 2.63737
# Velocity P-wave (km/s) = 4.72572 5.71470 5.24358
#
# Compressibility (1/GPa) = 0.02286466
#
# Stress axis : x y z
#
# Youngs Moduli (GPa) = 61.23302 145.45006 42.62219
#
# Poissons Ratio (x) = 0.37394 0.36251
# Poissons Ratio (y) = 0.15743 0.03520
# Poissons Ratio (z) = 0.52079 0.12011
#
# Static dielectric constant tensor:
#      x y z
#    x 1.926080 0.000000 0.000000 
#    y 0.000000 1.968120 0.000000 
#    z 0.000000 0.000000 2.117350 
# 
# From -- ./inp_files/2180.got.cif
#   From: 2010.05.17/outbox.cif.g08.bks.cpg/sg64_2_cif.got.tgz:2180.got - 2010.06.03 16:29:19.
