data_PCOD9480405
_publ_section_title
;
Structure prediction by ZEFSAII (Michael W. Deem and Ramdas Pophale) SiO2 
 PCOD9480405
Probable space group: C M C A
;
_chemical_formula_sum "Si O2"
_cell_formula_units_Z 88
_cell_length_a 26.286359
_cell_length_b 14.369809
_cell_length_c 10.666580
_cell_angle_alpha 90.000000
_cell_angle_beta 90.000000
_cell_angle_gamma 90.000000
_cell_volume 4029.086817
_symmetry_space_group_name_H-M "C M C A"
_symmetry_group_IT_number 64
_symmetry_cell_setting 'orthorhombic'
loop_
_space_group_symop_operation_xyz
x,y,z
-x,1/2-y,1/2+z
x,-y,-z
-x,1/2+y,1/2-z
-x,-y,-z
x,1/2+y,1/2-z
-x,y,z
x,1/2-y,1/2+z
1/2+x,1/2+y,z
1/2-x,-y,1/2+z
1/2+x,1/2-y,-z
1/2-x,y,1/2-z
1/2-x,1/2-y,-z
1/2+x,y,1/2-z
1/2-x,1/2+y,z
1/2+x,-y,1/2+z
loop_
_atom_site_type_symbol
_atom_site_label
_atom_site_fract_x
_atom_site_fract_y
_atom_site_fract_z
Si Si1 0.825242 0.821115 0.494065
Si Si2 0.274218 0.639842 0.882926
Si Si3 0.911506 0.103106 0.328847
Si Si4 0.000000 0.887217 0.469906
Si Si5 0.087214 0.797178 0.292492
Si Si6 0.378140 0.547431 0.869009
O O1 0.775950 0.882608 0.462556
O O2 0.803186 0.724772 0.548928
O O3 0.861562 0.868213 0.594496
O O4 0.860224 0.801719 0.371866
O O5 0.250000 0.669370 0.750000
O O6 0.317246 0.562198 0.865444
O O7 0.925967 0.191975 0.243583
O O8 0.956302 0.082743 0.425409
O O9 0.897626 0.017568 0.241710
O O10 0.044480 0.845238 0.376383
O O11 0.096156 0.853489 0.162847
O O12 0.391909 0.500000 0.000000
#
# Coordination Sequence:
#
# PCOD9480405 Si02
#       6
#    16  16  16   8  16  16
#     4  10  21  40  75  97 144 188 238 291 359 424
#     4  11  21  41  67 108 142 192 234 289 355 434
#     4  11  24  45  73 106 138 191 235 303 368 435
#     4  10  26  45  80  99 136 186 248 289 386 437
#     4  11  23  49  70 102 145 180 235 308 357 435
#     4  12  27  43  69 101 146 185 235 294 358 432
#
# _framework density 21.841176999999998
#
# number of rings (size 3 to 8) (size 9 to 14) (size 15 to 20)
#    0.000    1.091    3.636    1.636    2.545    7.273 
#    0.000    0.909    0.000    0.000    0.000    0.000 
#    0.000    0.000    0.000    0.000    0.000    0.000 
#
# Total GULP energy -245138.043736 kJ/mol
# GULP energy per Si atom -5571.319176 kJ/mol
# Density = 2.179147 g / cm^3
# Si number density = 21.841177 Si / 1000 Ang^3
#
#
#
# Elastic Constant Matrix: (Units=GPa)
#
#
# Indices 1 2 3 4 5 6 
#
# 1 169.2302 33.3594 59.2177 0.0000 0.0000 0.0000
# 2 33.3594 70.7080 24.9753 0.0000 0.0000 0.0000
# 3 59.2177 24.9753 72.7121 0.0000 0.0000 0.0000
# 4 0.0000 0.0000 0.0000 14.7930 0.0000 0.0000
# 5 0.0000 0.0000 0.0000 0.0000 18.7714 0.0000
# 6 0.0000 0.0000 0.0000 0.0000 0.0000 -245.4321
#
#
#
# Elastic Compliance Matrix: (Units=1/GPa)
#
#
# Indices 1 2 3 4 5 6 
#
# 1 0.008455 -0.001772 -0.006277 0.000000 0.000000 0.000000
# 2 -0.001772 0.016467 -0.004213 0.000000 0.000000 0.000000
# 3 -0.006277 -0.004213 0.020312 0.000000 0.000000 0.000000
# 4 0.000000 0.000000 0.000000 0.067600 0.000000 0.000000
# 5 0.000000 0.000000 0.000000 0.000000 0.053273 0.000000
# 6 0.000000 0.000000 0.000000 0.000000 0.000000 -0.004074
#
#
# Mechanical properties :
#
#
# Convention : Reuss Voigt Hill
#
# Bulk Modulus (GPa) = 48.28646 60.86169 54.57408
# Shear Modulus (GPa) = 25.84528 -29.36703 -1.76088
#
# Velocity S-wave (km/s) = 3.44369 -3.67082 -0.89887
# Velocity P-wave (km/s) = 6.16181 3.15587 4.89528
#
# Compressibility (1/GPa) = 0.02070974
#
# Stress axis : x y z
#
# Youngs Moduli (GPa) = 118.27435 60.72858 49.23135
#
# Poissons Ratio (x) = 0.10759 0.30904
# Poissons Ratio (y) = 0.20955 0.20742
# Poissons Ratio (z) = 0.74244 0.25586
#
# Static dielectric constant tensor:
#      x y z
#    x 1.768390 0.000000 0.000000 
#    y 0.000000 1.940050 0.000000 
#    z 0.000000 0.000000 1.792440 
# 
# From -- ./inp_files/18206.got.cif
#   From: 2010.05.17/outbox.cif.g08.bks.cpg/sg64_10_cif.got.tgz:18206.got - 2010.06.03 16:29:19.
