data_PCOD9480900
_publ_section_title
;
Structure prediction by ZEFSAII (Michael W. Deem and Ramdas Pophale) SiO2 
 PCOD9480900
Probable space group: C M C A
;
_chemical_formula_sum "Si O2"
_cell_formula_units_Z 112
_cell_length_a 14.888082
_cell_length_b 23.226630
_cell_length_c 16.240156
_cell_angle_alpha 90.000000
_cell_angle_beta 90.000000
_cell_angle_gamma 90.000000
_cell_volume 5615.845490
_symmetry_space_group_name_H-M "C M C A"
_symmetry_group_IT_number 64
_symmetry_cell_setting 'orthorhombic'
loop_
_space_group_symop_operation_xyz
x,y,z
-x,1/2-y,1/2+z
x,-y,-z
-x,1/2+y,1/2-z
-x,-y,-z
x,1/2+y,1/2-z
-x,y,z
x,1/2-y,1/2+z
1/2+x,1/2+y,z
1/2-x,-y,1/2+z
1/2+x,1/2-y,-z
1/2-x,y,1/2-z
1/2-x,1/2-y,-z
1/2+x,y,1/2-z
1/2-x,1/2+y,z
1/2+x,-y,1/2+z
loop_
_atom_site_type_symbol
_atom_site_label
_atom_site_fract_x
_atom_site_fract_y
_atom_site_fract_z
Si Si1 0.105630 0.451296 0.931995
Si Si2 0.594138 0.152308 0.308127
Si Si3 0.896975 0.524175 0.585194
Si Si4 0.852651 0.537025 0.246434
Si Si5 0.746001 0.155653 0.066837
Si Si6 0.896971 0.838708 0.068414
Si Si7 0.666916 0.751491 0.809218
O O1 0.123659 0.483342 0.844676
O O2 0.174690 0.396972 0.942251
O O3 0.000000 0.433238 0.936225
O O4 0.121184 0.500000 0.000000
O O5 0.500000 0.158673 0.353327
O O6 0.592175 0.095517 0.253798
O O7 0.675177 0.140011 0.369227
O O8 0.610363 0.206682 0.250105
O O9 0.854154 0.500000 0.500000
O O10 0.864157 0.502756 0.673853
O O11 0.894767 0.592738 0.581211
O O12 0.000000 0.502952 0.583844
O O13 0.750000 0.554563 0.250000
O O14 0.697643 0.208783 0.113224
O O15 0.808115 0.172457 0.988382
O O16 0.881896 0.802937 0.151936
O O17 0.000000 0.824645 0.039584
O O18 0.750000 0.734661 0.750000
#
# Coordination Sequence:
#
# PCOD9480900 Si02
#       7
#    16  16  16  16  16  16  16
#     4  11  25  43  63  93 132 174 220 270 322 385
#     4  11  20  36  65  97 126 156 209 270 319 379
#     4  10  23  40  62  94 128 163 207 260 321 386
#     4  12  22  37  63  95 127 169 211 261 323 386
#     4  11  22  40  63  95 122 165 213 267 315 376
#     4  11  24  41  64  93 130 170 205 258 328 386
#     4  10  22  41  63  91 127 168 215 260 315 384
#
# _framework density 19.943569
#
# number of rings (size 3 to 8) (size 9 to 14) (size 15 to 20)
#    0.000    1.143    2.857    3.857    2.000    2.286 
#    0.000    0.000    0.000    1.286    0.000    0.000 
#    0.000    0.000    0.000    0.000    0.000    0.000 
#
# Total GULP energy -312097.027350 kJ/mol
# GULP energy per Si atom -5573.161203 kJ/mol
# Density = 1.989818 g / cm^3
# Si number density = 19.943569 Si / 1000 Ang^3
#
#
#
# Elastic Constant Matrix: (Units=GPa)
#
#
# Indices 1 2 3 4 5 6 
#
# 1 137.1347 40.9184 35.1584 0.0000 0.0000 0.0000
# 2 40.9184 66.1224 49.0873 0.0000 0.0000 0.0000
# 3 35.1584 49.0873 122.5286 0.0000 0.0000 0.0000
# 4 0.0000 0.0000 0.0000 30.6372 0.0000 0.0000
# 5 0.0000 0.0000 0.0000 0.0000 -13.0260 0.0000
# 6 0.0000 0.0000 0.0000 0.0000 0.0000 28.1265
#
#
#
# Elastic Compliance Matrix: (Units=1/GPa)
#
#
# Indices 1 2 3 4 5 6 
#
# 1 0.008965 -0.005178 -0.000498 0.000000 0.000000 0.000000
# 2 -0.005178 0.024516 -0.008336 0.000000 0.000000 0.000000
# 3 -0.000498 -0.008336 0.011644 0.000000 0.000000 0.000000
# 4 0.000000 0.000000 0.000000 0.032640 0.000000 0.000000
# 5 0.000000 0.000000 0.000000 0.000000 -0.076770 0.000000
# 6 0.000000 0.000000 0.000000 0.000000 0.000000 0.035554
#
#
# Mechanical properties :
#
#
# Convention : Reuss Voigt Hill
#
# Bulk Modulus (GPa) = 58.47608 64.01265 61.24437
# Shear Modulus (GPa) = 71.15181 22.52233 46.83707
#
# Velocity S-wave (km/s) = 5.97947 3.36416 4.85137
# Velocity P-wave (km/s) = 8.77818 6.87435 7.88394
#
# Compressibility (1/GPa) = 0.01710101
#
# Stress axis : x y z
#
# Youngs Moduli (GPa) = 111.54769 40.78967 85.88308
#
# Poissons Ratio (x) = 0.21121 0.04277
# Poissons Ratio (y) = 0.57759 0.71591
# Poissons Ratio (z) = 0.05555 0.34002
#
# Static dielectric constant tensor:
#      x y z
#    x 1.744500 0.000000 0.000000 
#    y 0.000000 1.700540 0.000000 
#    z 0.000000 0.000000 1.779820 
# 
# From -- ./inp_files/24284.got.cif
#   From: 2010.05.17/outbox.cif.g08.bks.cpg/sg64_13_cif.got.tgz:24284.got - 2010.06.03 16:29:19.
