data_PCOD9480839
_publ_section_title
;
Structure prediction by ZEFSAII (Michael W. Deem and Ramdas Pophale) SiO2 
 PCOD9480839
Probable space group: C M C A
;
_chemical_formula_sum "Si O2"
_cell_formula_units_Z 88
_cell_length_a 16.900047
_cell_length_b 10.113107
_cell_length_c 21.824116
_cell_angle_alpha 90.000000
_cell_angle_beta 90.000000
_cell_angle_gamma 90.000000
_cell_volume 3730.002956
_symmetry_space_group_name_H-M "C M C A"
_symmetry_group_IT_number 64
_symmetry_cell_setting 'orthorhombic'
loop_
_space_group_symop_operation_xyz
x,y,z
-x,1/2-y,1/2+z
x,-y,-z
-x,1/2+y,1/2-z
-x,-y,-z
x,1/2+y,1/2-z
-x,y,z
x,1/2-y,1/2+z
1/2+x,1/2+y,z
1/2-x,-y,1/2+z
1/2+x,1/2-y,-z
1/2-x,y,1/2-z
1/2-x,1/2-y,-z
1/2+x,y,1/2-z
1/2-x,1/2+y,z
1/2+x,-y,1/2+z
loop_
_atom_site_type_symbol
_atom_site_label
_atom_site_fract_x
_atom_site_fract_y
_atom_site_fract_z
Si Si1 0.000000 0.706292 0.855679
Si Si2 0.668549 0.301552 0.156923
Si Si3 0.500000 0.683748 0.883236
Si Si4 0.500000 0.215743 0.989780
Si Si5 0.000000 0.956131 0.786359
Si Si6 0.639263 0.000000 0.000000
Si Si7 0.754236 0.454791 0.879081
Si Si8 0.136403 0.412868 0.214360
O O1 0.000000 0.805137 0.799769
O O2 0.081877 0.632999 0.842757
O O3 0.000000 0.770532 0.921543
O O4 0.582180 0.246501 0.136906
O O5 0.678641 0.446050 0.123416
O O6 0.738392 0.203599 0.133010
O O7 0.663550 0.315716 0.230822
O O8 0.500000 0.547694 0.846185
O O9 0.500000 0.680113 0.955981
O O10 0.421741 0.123461 0.995646
O O11 0.077479 0.991735 0.749787
O O12 0.695635 0.016654 0.059416
O O13 0.793724 0.510966 0.817318
#
# Coordination Sequence:
#
# PCOD9480839 Si02
#       8
#     8  16   8   8   8   8  16  16
#     4  11  20  37  67 107 141 181 243 293 351 431
#     4  11  26  45  73 101 147 186 237 293 366 423
#     4  10  22  47  67 100 137 187 230 291 357 421
#     4  11  21  42  75  98 134 192 245 285 344 450
#     4   9  21  36  63 102 146 181 229 306 362 408
#     4  11  24  44  72 103 138 184 256 287 346 432
#     4  12  25  45  71 105 143 192 239 299 356 429
#     4  10  22  40  65 102 140 191 234 294 357 439
#
# _framework density 23.592475
#
# number of rings (size 3 to 8) (size 9 to 14) (size 15 to 20)
#    0.000    1.273    3.636    2.182    0.000    8.364 
#    0.000    0.000    0.000    1.091    0.000    0.000 
#    0.000    0.000    0.000    0.000    0.000    0.000 
#
# Total GULP energy -245479.939143 kJ/mol
# GULP energy per Si atom -5579.089526 kJ/mol
# Density = 2.353878 g / cm^3
# Si number density = 23.592475 Si / 1000 Ang^3
#
#
#
# Elastic Constant Matrix: (Units=GPa)
#
#
# Indices 1 2 3 4 5 6 
#
# 1 77.3669 4.8356 35.0549 0.0000 0.0000 0.0000
# 2 4.8356 33.5480 0.8422 0.0000 0.0000 0.0000
# 3 35.0549 0.8422 134.1636 0.0000 0.0000 0.0000
# 4 0.0000 0.0000 0.0000 27.3242 0.0000 0.0000
# 5 0.0000 0.0000 0.0000 0.0000 38.5970 0.0000
# 6 0.0000 0.0000 0.0000 0.0000 0.0000 14.3690
#
#
#
# Elastic Compliance Matrix: (Units=1/GPa)
#
#
# Indices 1 2 3 4 5 6 
#
# 1 0.014799 -0.002036 -0.003854 0.000000 0.000000 0.000000
# 2 -0.002036 0.030093 0.000343 0.000000 0.000000 0.000000
# 3 -0.003854 0.000343 0.008458 0.000000 0.000000 0.000000
# 4 0.000000 0.000000 0.000000 0.036598 0.000000 0.000000
# 5 0.000000 0.000000 0.000000 0.000000 0.025909 0.000000
# 6 0.000000 0.000000 0.000000 0.000000 0.000000 0.069594
#
#
# Mechanical properties :
#
#
# Convention : Reuss Voigt Hill
#
# Bulk Modulus (GPa) = 23.66527 36.28265 29.97396
# Shear Modulus (GPa) = 23.73824 29.68109 26.70966
#
# Velocity S-wave (km/s) = 3.17547 3.55078 3.36836
# Velocity P-wave (km/s) = 4.84742 5.67653 5.27828
#
# Compressibility (1/GPa) = 0.04225601
#
# Stress axis : x y z
#
# Youngs Moduli (GPa) = 67.57248 33.23038 118.22550
#
# Poissons Ratio (x) = 0.06767 0.45564
# Poissons Ratio (y) = 0.13760 -0.04057
# Poissons Ratio (z) = 0.26042 -0.01140
#
# Static dielectric constant tensor:
#      x y z
#    x 2.101250 0.000000 0.000000 
#    y 0.000000 1.989340 0.000000 
#    z 0.000000 0.000000 1.840740 
# 
# From -- ./inp_files/40116.got.cif
#   From: 2010.05.17/outbox.cif.g08.bks.cpg/sg64_21_cif.got.tgz:40116.got - 2010.06.03 16:29:19.
