data_PCOD9480253
_publ_section_title
;
Structure prediction by ZEFSAII (Michael W. Deem and Ramdas Pophale) SiO2 
 PCOD9480253
Probable space group: C M C A
;
_chemical_formula_sum "Si O2"
_cell_formula_units_Z 80
_cell_length_a 18.951579
_cell_length_b 15.357527
_cell_length_c 13.664620
_cell_angle_alpha 90.000000
_cell_angle_beta 90.000000
_cell_angle_gamma 90.000000
_cell_volume 3977.079263
_symmetry_space_group_name_H-M "C M C A"
_symmetry_group_IT_number 64
_symmetry_cell_setting 'orthorhombic'
loop_
_space_group_symop_operation_xyz
x,y,z
-x,1/2-y,1/2+z
x,-y,-z
-x,1/2+y,1/2-z
-x,-y,-z
x,1/2+y,1/2-z
-x,y,z
x,1/2-y,1/2+z
1/2+x,1/2+y,z
1/2-x,-y,1/2+z
1/2+x,1/2-y,-z
1/2-x,y,1/2-z
1/2-x,1/2-y,-z
1/2+x,y,1/2-z
1/2-x,1/2+y,z
1/2+x,-y,1/2+z
loop_
_atom_site_type_symbol
_atom_site_label
_atom_site_fract_x
_atom_site_fract_y
_atom_site_fract_z
Si Si1 0.581529 0.206763 0.785626
Si Si2 0.686912 0.324200 0.889658
Si Si3 0.077165 0.979546 0.384028
Si Si4 0.730480 0.994688 0.881747
Si Si5 0.304409 0.824436 0.378955
O O1 0.500000 0.220919 0.761071
O O2 0.617706 0.288957 0.837176
O O3 0.584811 0.123219 0.859028
O O4 0.628856 0.186183 0.690983
O O5 0.717107 0.416839 0.857573
O O6 0.748980 0.254319 0.868819
O O7 0.675200 0.326851 0.006632
O O8 0.000000 0.007014 0.343882
O O9 0.074902 0.000000 0.500000
O O10 0.150308 0.020130 0.346278
O O11 0.763220 0.087015 0.853961
O O12 0.725387 0.000000 0.000000
#
# Coordination Sequence:
#
# PCOD9480253 Si02
#       5
#    16  16  16  16  16
#     4  11  23  41  61  89 131 169 206 264 325 376
#     4  10  21  39  65  92 119 164 215 260 311 377
#     4   9  18  34  58  88 121 158 200 251 315 372
#     4   9  18  36  63  88 116 158 208 257 306 368
#     4  10  21  40  62  90 124 163 213 263 317 373
#
# _framework density 20.115264
#
# number of rings (size 3 to 8) (size 9 to 14) (size 15 to 20)
#    0.000    2.200    2.000    0.600    2.800    0.800 
#    7.200    2.000    0.000    3.600    0.000    0.000 
#    0.000    0.000    0.000    0.000    0.000    0.000 
#
# Total GULP energy -223364.803296 kJ/mol
# GULP energy per Si atom -5584.120082 kJ/mol
# Density = 2.006948 g / cm^3
# Si number density = 20.115264 Si / 1000 Ang^3
#
#
#
# Elastic Constant Matrix: (Units=GPa)
#
#
# Indices 1 2 3 4 5 6 
#
# 1 182.7303 49.4853 75.2954 0.0000 0.0000 0.0000
# 2 49.4853 92.9512 42.0280 0.0000 0.0000 0.0000
# 3 75.2954 42.0280 102.5148 0.0000 0.0000 0.0000
# 4 0.0000 0.0000 0.0000 -5.1310 0.0000 0.0000
# 5 0.0000 0.0000 0.0000 0.0000 26.2117 0.0000
# 6 0.0000 0.0000 0.0000 0.0000 0.0000 21.7989
#
#
#
# Elastic Compliance Matrix: (Units=1/GPa)
#
#
# Indices 1 2 3 4 5 6 
#
# 1 0.008140 -0.002001 -0.005158 0.000000 0.000000 0.000000
# 2 -0.002001 0.013698 -0.004146 0.000000 0.000000 0.000000
# 3 -0.005158 -0.004146 0.015243 0.000000 0.000000 0.000000
# 4 0.000000 0.000000 0.000000 -0.194895 0.000000 0.000000
# 5 0.000000 0.000000 0.000000 0.000000 0.038151 0.000000
# 6 0.000000 0.000000 0.000000 0.000000 0.000000 0.045874
#
#
# Mechanical properties :
#
#
# Convention : Reuss Voigt Hill
#
# Bulk Modulus (GPa) = 69.10658 79.09040 74.09849
# Shear Modulus (GPa) = -107.86614 22.66841 -42.59887
#
# Velocity S-wave (km/s) = -7.33079 3.36061 -4.60688
# Velocity P-wave (km/s) = 6.10115 7.37985 2.93583
#
# Compressibility (1/GPa) = 0.01447040
#
# Stress axis : x y z
#
# Youngs Moduli (GPa) = 122.85012 73.00118 65.60355
#
# Poissons Ratio (x) = 0.14609 0.33840
# Poissons Ratio (y) = 0.24586 0.27200
# Poissons Ratio (z) = 0.63369 0.30267
#
# Static dielectric constant tensor:
#      x y z
#    x 1.692940 0.000000 0.000000 
#    y 0.000000 1.697580 0.000000 
#    z 0.000000 0.000000 1.822090 
# 
# From -- ./inp_files/25293.got.cif
#   From: 2010.05.17/outbox.cif.g08.bks.cpg/sg64_13_cif.got.tgz:25293.got - 2010.06.03 16:29:19.
