data_PCOD9480740
_publ_section_title
;
Structure prediction by ZEFSAII (Michael W. Deem and Ramdas Pophale) SiO2 
 PCOD9480740
Probable space group: C M C A
;
_chemical_formula_sum "Si O2"
_cell_formula_units_Z 72
_cell_length_a 10.944434
_cell_length_b 27.559154
_cell_length_c 12.336495
_cell_angle_alpha 90.000000
_cell_angle_beta 90.000000
_cell_angle_gamma 90.000000
_cell_volume 3720.925505
_symmetry_space_group_name_H-M "C M C A"
_symmetry_group_IT_number 64
_symmetry_cell_setting 'orthorhombic'
loop_
_space_group_symop_operation_xyz
x,y,z
-x,1/2-y,1/2+z
x,-y,-z
-x,1/2+y,1/2-z
-x,-y,-z
x,1/2+y,1/2-z
-x,y,z
x,1/2-y,1/2+z
1/2+x,1/2+y,z
1/2-x,-y,1/2+z
1/2+x,1/2-y,-z
1/2-x,y,1/2-z
1/2-x,1/2-y,-z
1/2+x,y,1/2-z
1/2-x,1/2+y,z
1/2+x,-y,1/2+z
loop_
_atom_site_type_symbol
_atom_site_label
_atom_site_fract_x
_atom_site_fract_y
_atom_site_fract_z
Si Si1 0.361244 0.750554 0.415899
Si Si2 0.750000 0.930670 0.250000
Si Si3 0.500000 0.077152 0.058741
Si Si4 0.140525 0.857747 0.084868
Si Si5 0.714513 0.646487 0.368268
Si Si6 0.500000 0.024704 0.826931
O O1 0.500000 0.748777 0.462338
O O2 0.250000 0.750000 0.500000
O O3 0.351516 0.803708 0.362684
O O4 0.341244 0.700627 0.351963
O O5 0.774998 0.895414 0.147891
O O6 0.626290 0.961357 0.232803
O O7 0.384899 0.111122 0.080667
O O8 0.500000 0.031405 0.139394
O O9 0.500000 0.055716 0.938179
O O10 0.000000 0.873547 0.092805
O O11 0.179082 0.852071 0.958948
O O12 0.750000 0.628275 0.250000
#
# Coordination Sequence:
#
# PCOD9480740 Si02
#       6
#    16   8   8  16  16   8
#     4   9  19  37  59  89 127 167 210 251 306 377
#     4  12  22  44  68  94 122 166 216 270 318 372
#     4  11  24  46  64  91 127 171 216 261 329 383
#     4  10  22  39  62  96 131 166 209 261 314 377
#     4  11  23  39  64  93 131 172 210 258 319 390
#     4  11  26  44  70  91 125 167 222 273 320 382
#
# _framework density 19.350024999999999
#
# number of rings (size 3 to 8) (size 9 to 14) (size 15 to 20)
#    0.000    1.556    4.444    0.000    4.667    0.000 
#    0.000    0.000    0.000    4.000    0.000    0.000 
#    0.000    0.000    0.000    0.000    0.000    0.000 
#
# Total GULP energy -200642.288665 kJ/mol
# GULP energy per Si atom -5573.396907 kJ/mol
# Density = 1.930598 g / cm^3
# Si number density = 19.350025 Si / 1000 Ang^3
#
#
#
# Elastic Constant Matrix: (Units=GPa)
#
#
# Indices 1 2 3 4 5 6 
#
# 1 124.1754 24.6389 12.8008 0.0000 0.0000 0.0000
# 2 24.6389 73.0662 3.8689 0.0000 0.0000 0.0000
# 3 12.8008 3.8689 55.8863 0.0000 0.0000 0.0000
# 4 0.0000 0.0000 0.0000 20.1986 0.0000 0.0000
# 5 0.0000 0.0000 0.0000 0.0000 24.0009 0.0000
# 6 0.0000 0.0000 0.0000 0.0000 0.0000 -4.4153
#
#
#
# Elastic Compliance Matrix: (Units=1/GPa)
#
#
# Indices 1 2 3 4 5 6 
#
# 1 0.008811 -0.002875 -0.001819 0.000000 0.000000 0.000000
# 2 -0.002875 0.014675 -0.000357 0.000000 0.000000 0.000000
# 3 -0.001819 -0.000357 0.018335 0.000000 0.000000 0.000000
# 4 0.000000 0.000000 0.000000 0.049508 0.000000 0.000000
# 5 0.000000 0.000000 0.000000 0.000000 0.041665 0.000000
# 6 0.000000 0.000000 0.000000 0.000000 0.000000 -0.226487
#
#
# Mechanical properties :
#
#
# Convention : Reuss Voigt Hill
#
# Bulk Modulus (GPa) = 31.52815 37.30500 34.41658
# Shear Modulus (GPa) = -68.66511 22.07814 -23.29349
#
# Velocity S-wave (km/s) = -5.96346 3.38152 -3.47334
# Velocity P-wave (km/s) = 5.57567 5.87938 1.31889
#
# Compressibility (1/GPa) = 0.03171768
#
# Stress axis : x y z
#
# Youngs Moduli (GPa) = 113.49334 68.14500 54.54081
#
# Poissons Ratio (x) = 0.19591 0.09922
# Poissons Ratio (y) = 0.32628 0.01949
# Poissons Ratio (z) = 0.20646 0.02435
#
# Static dielectric constant tensor:
#      x y z
#    x 1.775340 0.000000 0.000000 
#    y 0.000000 1.694840 0.000000 
#    z 0.000000 0.000000 1.666210 
# 
# From -- ./inp_files/13109.got.cif
#   From: 2010.05.17/outbox.cif.g08.bks.cpg/sg64_7_cif.got.tgz:13109.got - 2010.06.03 16:29:19.
