data_PCOD9480918
_publ_section_title
;
Structure prediction by ZEFSAII (Michael W. Deem and Ramdas Pophale) SiO2 
 PCOD9480918
Probable space group: C M C A
;
_chemical_formula_sum "Si O2"
_cell_formula_units_Z 64
_cell_length_a 19.121520
_cell_length_b 12.427877
_cell_length_c 11.708486
_cell_angle_alpha 90.000000
_cell_angle_beta 90.000000
_cell_angle_gamma 90.000000
_cell_volume 2782.403426
_symmetry_space_group_name_H-M "C M C A"
_symmetry_group_IT_number 64
_symmetry_cell_setting 'orthorhombic'
loop_
_space_group_symop_operation_xyz
x,y,z
-x,1/2-y,1/2+z
x,-y,-z
-x,1/2+y,1/2-z
-x,-y,-z
x,1/2+y,1/2-z
-x,y,z
x,1/2-y,1/2+z
1/2+x,1/2+y,z
1/2-x,-y,1/2+z
1/2+x,1/2-y,-z
1/2-x,y,1/2-z
1/2-x,1/2-y,-z
1/2+x,y,1/2-z
1/2-x,1/2+y,z
1/2+x,-y,1/2+z
loop_
_atom_site_type_symbol
_atom_site_label
_atom_site_fract_x
_atom_site_fract_y
_atom_site_fract_z
Si Si1 0.377450 0.034791 0.628602
Si Si2 0.140631 0.747718 0.034462
Si Si3 0.500000 0.527420 0.298567
Si Si4 0.745081 0.121394 0.374959
Si Si5 0.000000 0.164002 0.519409
O O1 0.375618 0.164367 0.632619
O O2 0.431201 0.984664 0.719140
O O3 0.400298 0.000000 0.500000
O O4 0.297760 0.989662 0.638843
O O5 0.177440 0.636598 0.073695
O O6 0.070473 0.728893 0.966044
O O7 0.194740 0.808681 0.953493
O O8 0.500000 0.628345 0.384968
O O9 0.500000 0.431258 0.390386
O O10 0.750000 0.170460 0.250000
#
# Coordination Sequence:
#
# PCOD9480918 Si02
#       5
#    16  16   8  16   8
#     4  10  22  44  68 100 132 180 222 280 340 405
#     4  10  23  44  66 102 131 177 227 274 343 406
#     4  11  24  43  67  97 139 176 226 282 339 399
#     4  10  22  41  65 100 134 174 222 278 331 407
#     4  11  25  45  66  99 140 177 229 288 337 407
#
# _framework density 23.001695999999999
#
# number of rings (size 3 to 8) (size 9 to 14) (size 15 to 20)
#    0.000    1.750    0.000    2.625    3.500    4.000 
#   45.000    0.000    0.000    0.000    0.000    0.000 
#    0.000    0.000    0.000    0.000    0.000    0.000 
#
# Total GULP energy -178567.556241 kJ/mol
# GULP energy per Si atom -5580.236133 kJ/mol
# Density = 2.294934 g / cm^3
# Si number density = 23.001696 Si / 1000 Ang^3
#
#
#
# Elastic Constant Matrix: (Units=GPa)
#
#
# Indices 1 2 3 4 5 6 
#
# 1 98.9758 19.5099 1.6820 0.0000 0.0000 0.0000
# 2 19.5099 58.9524 -11.1527 0.0000 0.0000 0.0000
# 3 1.6820 -11.1527 78.7131 0.0000 0.0000 0.0000
# 4 0.0000 0.0000 0.0000 -23.6180 0.0000 0.0000
# 5 0.0000 0.0000 0.0000 0.0000 17.7249 0.0000
# 6 0.0000 0.0000 0.0000 0.0000 0.0000 37.2130
#
#
#
# Elastic Compliance Matrix: (Units=1/GPa)
#
#
# Indices 1 2 3 4 5 6 
#
# 1 0.010853 -0.003736 -0.000761 0.000000 0.000000 0.000000
# 2 -0.003736 0.018716 0.002732 0.000000 0.000000 0.000000
# 3 -0.000761 0.002732 0.013108 0.000000 0.000000 0.000000
# 4 0.000000 0.000000 0.000000 -0.042340 0.000000 0.000000
# 5 0.000000 0.000000 0.000000 0.000000 0.056418 0.000000
# 6 0.000000 0.000000 0.000000 0.000000 0.000000 0.026872
#
#
# Mechanical properties :
#
#
# Convention : Reuss Voigt Hill
#
# Bulk Modulus (GPa) = 25.54546 28.52442 27.03494
# Shear Modulus (GPa) = 49.89777 21.37080 35.63429
#
# Velocity S-wave (km/s) = 4.66264 3.05142 3.94026
# Velocity P-wave (km/s) = 6.33379 4.98425 5.69911
#
# Compressibility (1/GPa) = 0.03914590
#
# Stress axis : x y z
#
# Youngs Moduli (GPa) = 92.14229 53.43052 76.29121
#
# Poissons Ratio (x) = 0.19960 0.05807
# Poissons Ratio (y) = 0.34421 -0.20840
# Poissons Ratio (z) = 0.07014 -0.14595
#
# Static dielectric constant tensor:
#      x y z
#    x 1.878680 0.000000 0.000000 
#    y 0.000000 1.939820 0.000000 
#    z 0.000000 0.000000 1.865930 
# 
# From -- ./inp_files/15521.got.cif
#   From: 2010.05.17/outbox.cif.g08.bks.cpg/sg64_8_cif.got.tgz:15521.got - 2010.06.03 16:29:19.
