data_PCOD9480395
_publ_section_title
;
Structure prediction by ZEFSAII (Michael W. Deem and Ramdas Pophale) SiO2 
 PCOD9480395
Probable space group: C M C A
;
_chemical_formula_sum "Si O2"
_cell_formula_units_Z 96
_cell_length_a 16.078412
_cell_length_b 16.162363
_cell_length_c 16.102388
_cell_angle_alpha 90.000000
_cell_angle_beta 90.000000
_cell_angle_gamma 90.000000
_cell_volume 4184.449170
_symmetry_space_group_name_H-M "C M C A"
_symmetry_group_IT_number 64
_symmetry_cell_setting 'orthorhombic'
loop_
_space_group_symop_operation_xyz
x,y,z
-x,1/2-y,1/2+z
x,-y,-z
-x,1/2+y,1/2-z
-x,-y,-z
x,1/2+y,1/2-z
-x,y,z
x,1/2-y,1/2+z
1/2+x,1/2+y,z
1/2-x,-y,1/2+z
1/2+x,1/2-y,-z
1/2-x,y,1/2-z
1/2-x,1/2-y,-z
1/2+x,y,1/2-z
1/2-x,1/2+y,z
1/2+x,-y,1/2+z
loop_
_atom_site_type_symbol
_atom_site_label
_atom_site_fract_x
_atom_site_fract_y
_atom_site_fract_z
Si Si1 0.906848 0.865699 0.409932
Si Si2 0.333496 0.380281 0.709111
Si Si3 0.407346 0.813267 0.545247
Si Si4 0.094487 0.209124 0.849795
Si Si5 0.904006 0.547447 0.731238
Si Si6 0.239383 0.585767 0.036040
O O1 0.905914 0.767042 0.396381
O O2 0.900990 0.914946 0.324218
O O3 0.828598 0.882728 0.469213
O O4 0.000000 0.884465 0.446359
O O5 0.250000 0.349015 0.750000
O O6 0.382283 0.296415 0.690083
O O7 0.366419 0.455544 0.765585
O O8 0.312060 0.421029 0.620648
O O9 0.500000 0.853155 0.554470
O O10 0.402563 0.782874 0.449172
O O11 0.321658 0.861670 0.555027
O O12 0.136739 0.121371 0.823880
O O13 0.000000 0.195491 0.823488
O O14 0.000000 0.534187 0.706500
O O15 0.270776 0.500000 0.000000
#
# Coordination Sequence:
#
# PCOD9480395 Si02
#       6
#    16  16  16  16  16  16
#     4  10  21  40  69  98 125 164 217 275 330 385
#     4  12  27  41  62  98 134 175 217 269 333 397
#     4  10  23  43  68  96 128 173 225 273 329 393
#     4  10  23  44  69  94 128 176 221 272 334 391
#     4  10  23  43  66  94 131 173 219 274 329 395
#     4  12  25  42  65  99 133 169 218 275 331 394
#
# _framework density 22.942087000000001
#
# number of rings (size 3 to 8) (size 9 to 14) (size 15 to 20)
#    0.000    1.333    3.333    1.000    4.667    2.000 
#    0.000    0.833    0.000    0.000    0.000    0.000 
#    0.000    0.000    0.000    0.000    0.000    0.000 
#
# Total GULP energy -267918.744249 kJ/mol
# GULP energy per Si atom -5581.640505 kJ/mol
# Density = 2.288987 g / cm^3
# Si number density = 22.942087 Si / 1000 Ang^3
#
#
#
# Elastic Constant Matrix: (Units=GPa)
#
#
# Indices 1 2 3 4 5 6 
#
# 1 87.8154 37.5906 -0.5448 0.0000 0.0000 0.0000
# 2 37.5906 114.3858 6.0672 0.0000 0.0000 0.0000
# 3 -0.5448 6.0672 34.5286 0.0000 0.0000 0.0000
# 4 0.0000 0.0000 0.0000 33.9180 0.0000 0.0000
# 5 0.0000 0.0000 0.0000 0.0000 15.6778 0.0000
# 6 0.0000 0.0000 0.0000 0.0000 0.0000 24.5791
#
#
#
# Elastic Compliance Matrix: (Units=1/GPa)
#
#
# Indices 1 2 3 4 5 6 
#
# 1 0.013285 -0.004418 0.000986 0.000000 0.000000 0.000000
# 2 -0.004418 0.010294 -0.001879 0.000000 0.000000 0.000000
# 3 0.000986 -0.001879 0.029307 0.000000 0.000000 0.000000
# 4 0.000000 0.000000 0.000000 0.029483 0.000000 0.000000
# 5 0.000000 0.000000 0.000000 0.000000 0.063784 0.000000
# 6 0.000000 0.000000 0.000000 0.000000 0.000000 0.040685
#
#
# Mechanical properties :
#
#
# Convention : Reuss Voigt Hill
#
# Bulk Modulus (GPa) = 23.66045 35.88395 29.77220
# Shear Modulus (GPa) = 23.63532 27.74276 25.68904
#
# Velocity S-wave (km/s) = 3.21318 3.48120 3.34987
# Velocity P-wave (km/s) = 4.90933 5.64211 5.28843
#
# Compressibility (1/GPa) = 0.04226462
#
# Stress axis : x y z
#
# Youngs Moduli (GPa) = 75.27360 97.14492 34.12137
#
# Poissons Ratio (x) = 0.42920 -0.03364
# Poissons Ratio (y) = 0.33257 0.06410
# Poissons Ratio (z) = -0.07422 0.18249
#
# Static dielectric constant tensor:
#      x y z
#    x 1.860230 0.000000 0.000000 
#    y 0.000000 1.902680 0.000000 
#    z 0.000000 0.000000 1.862540 
# 
# From -- ./inp_files/39192.got.cif
#   From: 2010.05.17/outbox.cif.g08.bks.cpg/sg64_20_cif.got.tgz:39192.got - 2010.06.03 16:29:19.
