data_PCOD9480299
_publ_section_title
;
Structure prediction by ZEFSAII (Michael W. Deem and Ramdas Pophale) SiO2 
 PCOD9480299
Probable space group: C M C A
;
_chemical_formula_sum "Si O2"
_cell_formula_units_Z 116
_cell_length_a 19.699329
_cell_length_b 20.124779
_cell_length_c 16.268622
_cell_angle_alpha 90.000000
_cell_angle_beta 90.000000
_cell_angle_gamma 90.000000
_cell_volume 6449.608034
_symmetry_space_group_name_H-M "C M C A"
_symmetry_group_IT_number 64
_symmetry_cell_setting 'orthorhombic'
loop_
_space_group_symop_operation_xyz
x,y,z
-x,1/2-y,1/2+z
x,-y,-z
-x,1/2+y,1/2-z
-x,-y,-z
x,1/2+y,1/2-z
-x,y,z
x,1/2-y,1/2+z
1/2+x,1/2+y,z
1/2-x,-y,1/2+z
1/2+x,1/2-y,-z
1/2-x,y,1/2-z
1/2-x,1/2-y,-z
1/2+x,y,1/2-z
1/2-x,1/2+y,z
1/2+x,-y,1/2+z
loop_
_atom_site_type_symbol
_atom_site_label
_atom_site_fract_x
_atom_site_fract_y
_atom_site_fract_z
Si Si1 0.667022 0.349190 0.368544
Si Si2 0.192047 0.202358 0.182593
Si Si3 0.229941 0.927418 0.917840
Si Si4 0.921270 0.200176 0.312243
Si Si5 0.196238 0.071073 0.890754
Si Si6 0.420130 0.642991 0.795440
Si Si7 0.000000 0.500000 0.000000
Si Si8 0.380173 0.600130 0.454585
O O1 0.681375 0.270369 0.366945
O O2 0.738113 0.388538 0.357444
O O3 0.614596 0.362794 0.294428
O O4 0.635114 0.370838 0.454945
O O5 0.250000 0.216239 0.250000
O O6 0.214166 0.140703 0.127845
O O7 0.124828 0.184094 0.233627
O O8 0.310921 0.934983 0.925804
O O9 0.202460 0.992758 0.872875
O O10 0.200865 0.923309 0.010275
O O11 0.914659 0.279782 0.322616
O O12 0.896497 0.159057 0.390833
O O13 0.000000 0.185274 0.297218
O O14 0.127045 0.100313 0.855307
O O15 0.500000 0.625360 0.793597
O O16 0.059171 0.451381 0.961095
#
# Coordination Sequence:
#
# PCOD9480299 Si02
#       8
#    16  16  16  16  16  16   4  16
#     4  10  22  37  63  91 120 156 208 252 304 361
#     4  11  21  38  63  91 121 158 208 260 301 363
#     4  10  23  40  61  92 121 157 208 256 299 363
#     4  10  21  40  59  88 126 159 196 250 311 361
#     4  10  21  41  61  86 123 159 203 251 301 361
#     4  10  22  39  61  89 122 158 203 253 301 362
#     4  12  24  40  60  92 132 160 198 244 316 380
#     4  11  22  39  62  89 122 163 196 251 307 367
#
# _framework density 17.985589000000001
#
# number of rings (size 3 to 8) (size 9 to 14) (size 15 to 20)
#    0.000    1.655    2.069    3.724    2.897    2.207 
#    2.483    2.759    0.000    0.000    0.000    0.000 
#    0.000    0.000    0.000    0.000    0.000    0.000 
#
# Total GULP energy -323379.784995 kJ/mol
# GULP energy per Si atom -5575.513534 kJ/mol
# Density = 1.794465 g / cm^3
# Si number density = 17.985589 Si / 1000 Ang^3
#
#
#
# Elastic Constant Matrix: (Units=GPa)
#
#
# Indices 1 2 3 4 5 6 
#
# 1 130.6001 53.9463 31.2224 0.0000 0.0000 0.0000
# 2 53.9463 77.0070 31.1136 0.0000 0.0000 0.0000
# 3 31.2224 31.1136 32.0806 0.0000 0.0000 0.0000
# 4 0.0000 0.0000 0.0000 -95.8981 0.0000 0.0000
# 5 0.0000 0.0000 0.0000 0.0000 22.1407 0.0000
# 6 0.0000 0.0000 0.0000 0.0000 0.0000 28.7500
#
#
#
# Elastic Compliance Matrix: (Units=1/GPa)
#
#
# Indices 1 2 3 4 5 6 
#
# 1 0.011331 -0.005726 -0.005475 0.000000 0.000000 0.000000
# 2 -0.005726 0.024247 -0.017943 0.000000 0.000000 0.000000
# 3 -0.005475 -0.017943 0.053902 0.000000 0.000000 0.000000
# 4 0.000000 0.000000 0.000000 -0.010428 0.000000 0.000000
# 5 0.000000 0.000000 0.000000 0.000000 0.045166 0.000000
# 6 0.000000 0.000000 0.000000 0.000000 0.000000 0.034783
#
#
# Mechanical properties :
#
#
# Convention : Reuss Voigt Hill
#
# Bulk Modulus (GPa) = 32.05907 52.47247 42.26577
# Shear Modulus (GPa) = 21.96020 -0.77446 10.59287
#
# Velocity S-wave (km/s) = 3.49806 -0.65691 2.42949
# Velocity P-wave (km/s) = 5.84626 5.35375 5.60542
#
# Compressibility (1/GPa) = 0.03119242
#
# Stress axis : x y z
#
# Youngs Moduli (GPa) = 88.25437 41.24290 18.55221
#
# Poissons Ratio (x) = 0.23615 0.10157
# Poissons Ratio (y) = 0.50532 0.33288
# Poissons Ratio (z) = 0.48316 0.74003
#
# Static dielectric constant tensor:
#      x y z
#    x 1.605040 0.000000 0.000000 
#    y 0.000000 1.609400 0.000000 
#    z 0.000000 0.000000 1.607960 
# 
# From -- ./inp_files/33445.got.cif
#   From: 2010.05.17/outbox.cif.g08.bks.cpg/sg64_17_cif.got.tgz:33445.got - 2010.06.03 16:29:19.
