data_PCOD9480768
_publ_section_title
;
Structure prediction by ZEFSAII (Michael W. Deem and Ramdas Pophale) SiO2 
 PCOD9480768
Probable space group: C M C A
;
_chemical_formula_sum "Si O2"
_cell_formula_units_Z 88
_cell_length_a 12.867274
_cell_length_b 13.610520
_cell_length_c 28.823546
_cell_angle_alpha 90.000000
_cell_angle_beta 90.000000
_cell_angle_gamma 90.000000
_cell_volume 5047.875973
_symmetry_space_group_name_H-M "C M C A"
_symmetry_group_IT_number 64
_symmetry_cell_setting 'orthorhombic'
loop_
_space_group_symop_operation_xyz
x,y,z
-x,1/2-y,1/2+z
x,-y,-z
-x,1/2+y,1/2-z
-x,-y,-z
x,1/2+y,1/2-z
-x,y,z
x,1/2-y,1/2+z
1/2+x,1/2+y,z
1/2-x,-y,1/2+z
1/2+x,1/2-y,-z
1/2-x,y,1/2-z
1/2-x,1/2-y,-z
1/2+x,y,1/2-z
1/2-x,1/2+y,z
1/2+x,-y,1/2+z
loop_
_atom_site_type_symbol
_atom_site_label
_atom_site_fract_x
_atom_site_fract_y
_atom_site_fract_z
Si Si1 0.379063 0.593696 0.564091
Si Si2 0.000000 0.860758 0.157212
Si Si3 0.878917 0.635958 0.042879
Si Si4 0.500000 0.859794 0.236642
Si Si5 0.326736 0.781635 0.706701
Si Si6 0.000000 0.947247 0.789372
Si Si7 0.713611 0.719795 0.884283
O O1 0.500000 0.614604 0.576200
O O2 0.359553 0.635779 0.512239
O O3 0.367410 0.476402 0.559733
O O4 0.297212 0.639987 0.598966
O O5 0.000000 0.818302 0.210135
O O6 0.895514 0.827462 0.131767
O O7 0.000000 0.977564 0.167303
O O8 0.809228 0.707339 0.073198
O O9 0.000000 0.662984 0.049733
O O10 0.600183 0.814900 0.211644
O O11 0.500000 0.976799 0.245700
O O12 0.250000 0.782168 0.750000
O O13 0.401099 0.876271 0.709414
O O14 0.262742 0.776237 0.659370
#
# Coordination Sequence:
#
# PCOD9480768 Si02
#       7
#    16   8  16   8  16   8  16
#     4   9  21  39  61  87 118 151 196 245 291 346
#     4  10  22  40  56  82 120 161 183 243 287 346
#     4   9  19  40  61  86 117 155 195 238 294 352
#     4   9  21  44  51  78 122 156 182 242 296 334
#     4  11  22  38  60  85 114 156 195 240 282 347
#     4   9  23  40  59  78 119 149 202 241 289 336
#     4  12  22  36  63  88 120 151 200 237 296 342
#
# _framework density 17.433074000000001
#
# number of rings (size 3 to 8) (size 9 to 14) (size 15 to 20)
#    0.545    1.455    2.727    1.636    5.091    2.182 
#    0.000    0.000    0.000    1.091    0.000    0.000 
#    0.000    0.000    0.000    0.000    0.000    0.000 
#
# Total GULP energy -245328.877785 kJ/mol
# GULP energy per Si atom -5575.656313 kJ/mol
# Density = 1.739340 g / cm^3
# Si number density = 17.433074 Si / 1000 Ang^3
#
#
#
# Elastic Constant Matrix: (Units=GPa)
#
#
# Indices 1 2 3 4 5 6 
#
# 1 107.6567 39.5926 27.1755 0.0000 0.0000 0.0000
# 2 39.5926 65.9270 8.6707 0.0000 0.0000 0.0000
# 3 27.1755 8.6707 25.6073 0.0000 0.0000 0.0000
# 4 0.0000 0.0000 0.0000 12.5134 0.0000 0.0000
# 5 0.0000 0.0000 0.0000 0.0000 25.3689 0.0000
# 6 0.0000 0.0000 0.0000 0.0000 0.0000 17.1959
#
#
#
# Elastic Compliance Matrix: (Units=1/GPa)
#
#
# Indices 1 2 3 4 5 6 
#
# 1 0.015587 -0.007520 -0.013996 0.000000 0.000000 0.000000
# 2 -0.007520 0.019504 0.001377 0.000000 0.000000 0.000000
# 3 -0.013996 0.001377 0.053438 0.000000 0.000000 0.000000
# 4 0.000000 0.000000 0.000000 0.079915 0.000000 0.000000
# 5 0.000000 0.000000 0.000000 0.000000 0.039418 0.000000
# 6 0.000000 0.000000 0.000000 0.000000 0.000000 0.058153
#
#
# Mechanical properties :
#
#
# Convention : Reuss Voigt Hill
#
# Bulk Modulus (GPa) = 20.72503 38.89652 29.81078
# Shear Modulus (GPa) = 15.50981 19.26578 17.38780
#
# Velocity S-wave (km/s) = 2.98598 3.32795 3.16159
# Velocity P-wave (km/s) = 4.87876 6.09322 5.51949
#
# Compressibility (1/GPa) = 0.04825083
#
# Stress axis : x y z
#
# Youngs Moduli (GPa) = 64.15438 51.27269 18.71336
#
# Poissons Ratio (x) = 0.38559 0.26190
# Poissons Ratio (y) = 0.48246 -0.02577
# Poissons Ratio (z) = 0.89788 -0.07060
#
# Static dielectric constant tensor:
#      x y z
#    x 1.575550 0.000000 0.000000 
#    y 0.000000 1.570580 0.000000 
#    z 0.000000 0.000000 1.588420 
# 
# From -- ./inp_files/44107.got.cif
#   From: 2010.05.17/outbox.cif.g08.bks.cpg/sg64_23_cif.got.tgz:44107.got - 2010.06.03 16:29:19.
