data_PCOD9480788
_publ_section_title
;
Structure prediction by ZEFSAII (Michael W. Deem and Ramdas Pophale) SiO2 
 PCOD9480788
Probable space group: C M C A
;
_chemical_formula_sum "Si O2"
_cell_formula_units_Z 112
_cell_length_a 17.579557
_cell_length_b 25.791182
_cell_length_c 12.872578
_cell_angle_alpha 90.000000
_cell_angle_beta 90.000000
_cell_angle_gamma 90.000000
_cell_volume 5836.395380
_symmetry_space_group_name_H-M "C M C A"
_symmetry_group_IT_number 64
_symmetry_cell_setting 'orthorhombic'
loop_
_space_group_symop_operation_xyz
x,y,z
-x,1/2-y,1/2+z
x,-y,-z
-x,1/2+y,1/2-z
-x,-y,-z
x,1/2+y,1/2-z
-x,y,z
x,1/2-y,1/2+z
1/2+x,1/2+y,z
1/2-x,-y,1/2+z
1/2+x,1/2-y,-z
1/2-x,y,1/2-z
1/2-x,1/2-y,-z
1/2+x,y,1/2-z
1/2-x,1/2+y,z
1/2+x,-y,1/2+z
loop_
_atom_site_type_symbol
_atom_site_label
_atom_site_fract_x
_atom_site_fract_y
_atom_site_fract_z
Si Si1 0.672798 0.254607 0.309671
Si Si2 0.590066 0.724630 0.379991
Si Si3 0.092348 0.038882 0.594482
Si Si4 0.153812 0.346107 0.058571
Si Si5 0.177506 0.815350 0.006500
Si Si6 0.908442 0.080791 0.020702
Si Si7 0.092311 0.989935 0.172269
O O1 0.750000 0.267598 0.250000
O O2 0.619293 0.220063 0.237206
O O3 0.630966 0.306441 0.349119
O O4 0.696760 0.221677 0.409905
O O5 0.500000 0.728321 0.386584
O O6 0.618628 0.678371 0.453819
O O7 0.629181 0.778068 0.418599
O O8 0.127537 0.095612 0.576189
O O9 0.000000 0.043347 0.594799
O O10 0.112722 0.000000 0.500000
O O11 0.116810 0.018506 0.708949
O O12 0.244748 0.338665 0.051496
O O13 0.126451 0.862979 0.970745
O O14 0.000000 0.082737 0.022053
O O15 0.885775 0.055040 0.909822
O O16 0.883779 0.042882 0.114548
O O17 0.000000 0.990450 0.174211
#
# Coordination Sequence:
#
# PCOD9480788 Si02
#       7
#    16  16  16  16  16  16  16
#     4  11  21  41  62  86 120 167 201 242 314 366
#     4  11  23  39  62  94 123 156 209 256 296 365
#     4  10  22  40  61  88 122 160 208 256 303 362
#     4  11  23  40  63  87 124 167 200 247 310 371
#     4  11  22  38  62  88 128 162 197 251 312 369
#     4   9  18  35  60  88 117 155 207 256 306 360
#     4   8  17  36  59  84 116 156 201 259 310 353
#
# _framework density 19.189927000000001
#
# number of rings (size 3 to 8) (size 9 to 14) (size 15 to 20)
#    0.000    1.857    2.857    2.571    2.000    4.571 
#    2.571    1.429    0.000    0.000    0.000    0.000 
#    0.000    0.000    0.000    0.000    0.000    0.000 
#
# Total GULP energy -312513.170545 kJ/mol
# GULP energy per Si atom -5580.592331 kJ/mol
# Density = 1.914625 g / cm^3
# Si number density = 19.189927 Si / 1000 Ang^3
#
#
#
# Elastic Constant Matrix: (Units=GPa)
#
#
# Indices 1 2 3 4 5 6 
#
# 1 53.5210 7.3015 21.4076 0.0000 0.0000 0.0000
# 2 7.3015 105.8355 46.9341 0.0000 0.0000 0.0000
# 3 21.4076 46.9341 116.5675 0.0000 0.0000 0.0000
# 4 0.0000 0.0000 0.0000 13.9475 0.0000 0.0000
# 5 0.0000 0.0000 0.0000 0.0000 16.1820 0.0000
# 6 0.0000 0.0000 0.0000 0.0000 0.0000 29.8841
#
#
#
# Elastic Compliance Matrix: (Units=1/GPa)
#
#
# Indices 1 2 3 4 5 6 
#
# 1 0.020174 0.000306 -0.003828 0.000000 0.000000 0.000000
# 2 0.000306 0.011507 -0.004689 0.000000 0.000000 0.000000
# 3 -0.003828 -0.004689 0.011170 0.000000 0.000000 0.000000
# 4 0.000000 0.000000 0.000000 0.071698 0.000000 0.000000
# 5 0.000000 0.000000 0.000000 0.000000 0.061797 0.000000
# 6 0.000000 0.000000 0.000000 0.000000 0.000000 0.033463
#
#
# Mechanical properties :
#
#
# Convention : Reuss Voigt Hill
#
# Bulk Modulus (GPa) = 37.83935 47.46784 42.65360
# Shear Modulus (GPa) = 21.27297 25.35476 23.31387
#
# Velocity S-wave (km/s) = 3.33310 3.63885 3.48932
# Velocity P-wave (km/s) = 5.87996 6.51494 6.20558
#
# Compressibility (1/GPa) = 0.02642752
#
# Stress axis : x y z
#
# Youngs Moduli (GPa) = 49.56955 86.90318 89.52704
#
# Poissons Ratio (x) = -0.02658 0.34271
# Poissons Ratio (y) = -0.01516 0.41982
# Poissons Ratio (z) = 0.18975 0.40752
#
# Static dielectric constant tensor:
#      x y z
#    x 1.654240 0.000000 0.000000 
#    y 0.000000 1.653340 0.000000 
#    z 0.000000 0.000000 1.719980 
# 
# From -- ./inp_files/17569.got.cif
#   From: 2010.05.17/outbox.cif.g08.bks.cpg/sg64_9_cif.got.tgz:17569.got - 2010.06.03 16:29:19.
