data_PCOD9480294
_publ_section_title
;
Structure prediction by ZEFSAII (Michael W. Deem and Ramdas Pophale) SiO2 
 PCOD9480294
Probable space group: C M C A
;
_chemical_formula_sum "Si O2"
_cell_formula_units_Z 88
_cell_length_a 17.637065
_cell_length_b 13.076738
_cell_length_c 16.586238
_cell_angle_alpha 90.000000
_cell_angle_beta 90.000000
_cell_angle_gamma 90.000000
_cell_volume 3825.371614
_symmetry_space_group_name_H-M "C M C A"
_symmetry_group_IT_number 64
_symmetry_cell_setting 'orthorhombic'
loop_
_space_group_symop_operation_xyz
x,y,z
-x,1/2-y,1/2+z
x,-y,-z
-x,1/2+y,1/2-z
-x,-y,-z
x,1/2+y,1/2-z
-x,y,z
x,1/2-y,1/2+z
1/2+x,1/2+y,z
1/2-x,-y,1/2+z
1/2+x,1/2-y,-z
1/2-x,y,1/2-z
1/2-x,1/2-y,-z
1/2+x,y,1/2-z
1/2-x,1/2+y,z
1/2+x,-y,1/2+z
loop_
_atom_site_type_symbol
_atom_site_label
_atom_site_fract_x
_atom_site_fract_y
_atom_site_fract_z
Si Si1 0.140595 0.324087 0.495671
Si Si2 0.646159 0.986260 0.616154
Si Si3 0.000000 0.473478 0.897231
Si Si4 0.635923 0.835922 0.868702
Si Si5 0.000000 0.982702 0.794791
Si Si6 0.000000 0.721938 0.722147
Si Si7 0.500000 0.714867 0.584194
Si Si8 0.750000 0.954662 0.750000
O O1 0.181429 0.393677 0.563772
O O2 0.118838 0.418877 0.437145
O O3 0.173786 0.238847 0.435384
O O4 0.071913 0.266527 0.540300
O O5 0.573770 0.941873 0.661695
O O6 0.703290 0.020380 0.685651
O O7 0.919753 0.417157 0.914303
O O8 0.000000 0.467468 0.799789
O O9 0.000000 0.409066 0.075068
O O10 0.575013 0.769783 0.817641
O O11 0.692733 0.888025 0.805090
O O12 0.000000 0.104184 0.801513
O O13 0.000000 0.730652 0.819013
#
# Coordination Sequence:
#
# PCOD9480294 Si02
#       8
#    16  16   8  16   8   8   8   8
#     4  11  24  42  68 101 142 177 233 288 359 411
#     4  11  24  44  70 105 134 185 233 295 348 415
#     4  10  23  39  68 102 138 172 236 283 346 410
#     4  11  23  43  66 105 136 186 231 292 347 423
#     4  11  18  40  71 102 128 172 231 297 329 412
#     4  10  21  39  71 105 134 169 238 286 347 411
#     4  11  22  40  69 106 136 182 219 302 355 415
#     4  12  26  44  72  92 144 194 238 284 348 420
#
# _framework density 23.004301999999999
#
# number of rings (size 3 to 8) (size 9 to 14) (size 15 to 20)
#    0.000    1.091    3.636    3.273    2.545    4.364 
#    0.000    5.455    0.000    0.000    0.000    0.000 
#    0.000    0.000    0.000    0.000    0.000    0.000 
#
# Total GULP energy -245557.644845 kJ/mol
# GULP energy per Si atom -5580.855565 kJ/mol
# Density = 2.295194 g / cm^3
# Si number density = 23.004302 Si / 1000 Ang^3
#
#
#
# Elastic Constant Matrix: (Units=GPa)
#
#
# Indices 1 2 3 4 5 6 
#
# 1 41.9791 15.1939 33.0852 0.0000 0.0000 0.0000
# 2 15.1939 142.8388 42.4977 0.0000 0.0000 0.0000
# 3 33.0852 42.4977 141.4923 0.0000 0.0000 0.0000
# 4 0.0000 0.0000 0.0000 52.1735 0.0000 0.0000
# 5 0.0000 0.0000 0.0000 0.0000 12.6126 0.0000
# 6 0.0000 0.0000 0.0000 0.0000 0.0000 -45.8345
#
#
#
# Elastic Compliance Matrix: (Units=1/GPa)
#
#
# Indices 1 2 3 4 5 6 
#
# 1 0.029386 -0.001188 -0.006515 0.000000 0.000000 0.000000
# 2 -0.001188 0.007736 -0.002046 0.000000 0.000000 0.000000
# 3 -0.006515 -0.002046 0.009205 0.000000 0.000000 0.000000
# 4 0.000000 0.000000 0.000000 0.019167 0.000000 0.000000
# 5 0.000000 0.000000 0.000000 0.000000 0.079286 0.000000
# 6 0.000000 0.000000 0.000000 0.000000 0.000000 -0.021818
#
#
# Mechanical properties :
#
#
# Convention : Reuss Voigt Hill
#
# Bulk Modulus (GPa) = 37.27048 56.42933 46.84991
# Shear Modulus (GPa) = 33.02480 19.49256 26.25868
#
# Velocity S-wave (km/s) = 3.79303 2.91408 3.38223
# Velocity P-wave (km/s) = 5.95143 5.99213 5.97181
#
# Compressibility (1/GPa) = 0.02683088
#
# Stress axis : x y z
#
# Youngs Moduli (GPa) = 34.03037 129.26757 108.63314
#
# Poissons Ratio (x) = 0.15351 0.70770
# Poissons Ratio (y) = 0.04041 0.22224
# Poissons Ratio (z) = 0.22169 0.26446
#
# Static dielectric constant tensor:
#      x y z
#    x 1.842720 0.000000 0.000000 
#    y 0.000000 1.871940 0.000000 
#    z 0.000000 0.000000 1.907470 
# 
# From -- ./inp_files/25470.got.cif
#   From: 2010.05.17/outbox.cif.g08.bks.cpg/sg64_13_cif.got.tgz:25470.got - 2010.06.03 16:29:19.
