data_PCOD9480781
_publ_section_title
;
Structure prediction by ZEFSAII (Michael W. Deem and Ramdas Pophale) SiO2 
 PCOD9480781
Probable space group: C M C A
;
_chemical_formula_sum "Si O2"
_cell_formula_units_Z 80
_cell_length_a 11.223662
_cell_length_b 18.069600
_cell_length_c 17.005283
_cell_angle_alpha 90.000000
_cell_angle_beta 90.000000
_cell_angle_gamma 90.000000
_cell_volume 3448.791839
_symmetry_space_group_name_H-M "C M C A"
_symmetry_group_IT_number 64
_symmetry_cell_setting 'orthorhombic'
loop_
_space_group_symop_operation_xyz
x,y,z
-x,1/2-y,1/2+z
x,-y,-z
-x,1/2+y,1/2-z
-x,-y,-z
x,1/2+y,1/2-z
-x,y,z
x,1/2-y,1/2+z
1/2+x,1/2+y,z
1/2-x,-y,1/2+z
1/2+x,1/2-y,-z
1/2-x,y,1/2-z
1/2-x,1/2-y,-z
1/2+x,y,1/2-z
1/2-x,1/2+y,z
1/2+x,-y,1/2+z
loop_
_atom_site_type_symbol
_atom_site_label
_atom_site_fract_x
_atom_site_fract_y
_atom_site_fract_z
Si Si1 0.373226 0.399433 0.285525
Si Si2 0.631219 0.722652 0.957457
Si Si3 0.627882 0.977711 0.909676
Si Si4 0.129470 0.735990 0.226517
Si Si5 0.871621 0.426000 0.551104
O O1 0.500000 0.419322 0.245362
O O2 0.250000 0.425508 0.250000
O O3 0.371669 0.443266 0.366416
O O4 0.370208 0.310386 0.281346
O O5 0.500000 0.753787 0.982484
O O6 0.637695 0.735957 0.863911
O O7 0.750000 0.750000 0.000000
O O8 0.631220 0.638246 0.986015
O O9 0.500000 0.940588 0.889260
O O10 0.748964 0.930511 0.899090
O O11 0.624938 0.000000 0.000000
O O12 0.250000 0.694379 0.250000
O O13 0.000000 0.700250 0.237307
O O14 0.874557 0.500000 0.500000
O O15 0.000000 0.418809 0.593986
#
# Coordination Sequence:
#
# PCOD9480781 Si02
#       5
#    16  16  16  16  16
#     4   9  18  30  47  75 115 155 191 238 296 354
#     4  10  22  40  60  89 126 165 210 258 312 376
#     4   9  18  30  46  76 118 155 190 236 295 355
#     4   9  19  33  54  85 119 153 199 255 306 360
#     4   9  19  33  55  85 118 155 198 247 300 353
#
# _framework density 23.196529999999999
#
# number of rings (size 3 to 8) (size 9 to 14) (size 15 to 20)
#    0.000    2.800    0.000    0.000   11.200    2.400 
#    0.000    0.000    0.000    1.200    0.000    0.000 
#    0.000    0.000    0.000    0.000    0.000    0.000 
#
# Total GULP energy -222676.662381 kJ/mol
# GULP energy per Si atom -5566.916560 kJ/mol
# Density = 2.314373 g / cm^3
# Si number density = 23.196530 Si / 1000 Ang^3
#
#
#
# Elastic Constant Matrix: (Units=GPa)
#
#
# Indices 1 2 3 4 5 6 
#
# 1 287.5776 16.6581 39.1523 0.0000 0.0000 0.0000
# 2 16.6581 38.4735 14.1165 0.0000 0.0000 0.0000
# 3 39.1523 14.1165 31.7175 0.0000 0.0000 0.0000
# 4 0.0000 0.0000 0.0000 23.6556 0.0000 0.0000
# 5 0.0000 0.0000 0.0000 0.0000 25.8720 0.0000
# 6 0.0000 0.0000 0.0000 0.0000 0.0000 14.5911
#
#
#
# Elastic Compliance Matrix: (Units=1/GPa)
#
#
# Indices 1 2 3 4 5 6 
#
# 1 0.004180 0.000100 -0.005204 0.000000 0.000000 0.000000
# 2 0.000100 0.031067 -0.013950 0.000000 0.000000 0.000000
# 3 -0.005204 -0.013950 0.044161 0.000000 0.000000 0.000000
# 4 0.000000 0.000000 0.000000 0.042273 0.000000 0.000000
# 5 0.000000 0.000000 0.000000 0.000000 0.038652 0.000000
# 6 0.000000 0.000000 0.000000 0.000000 0.000000 0.068535
#
#
# Mechanical properties :
#
#
# Convention : Reuss Voigt Hill
#
# Bulk Modulus (GPa) = 24.21353 55.29136 39.75245
# Shear Modulus (GPa) = 17.80979 32.01320 24.91149
#
# Velocity S-wave (km/s) = 2.77389 3.71898 3.28065
# Velocity P-wave (km/s) = 4.55196 6.50607 5.61468
#
# Compressibility (1/GPa) = 0.04129922
#
# Stress axis : x y z
#
# Youngs Moduli (GPa) = 239.22946 32.18820 22.64428
#
# Poissons Ratio (x) = -0.00321 0.11785
# Poissons Ratio (y) = -0.02384 0.31589
# Poissons Ratio (z) = 1.24502 0.44903
#
# Static dielectric constant tensor:
#      x y z
#    x 2.193070 0.000000 0.000000 
#    y 0.000000 1.858880 0.000000 
#    z 0.000000 0.000000 1.785950 
# 
# From -- ./inp_files/22348.got.cif
#   From: 2010.05.17/outbox.cif.g08.bks.cpg/sg64_12_cif.got.tgz:22348.got - 2010.06.03 16:29:19.
