data_PCOD9480164
_publ_section_title
;
Structure prediction by ZEFSAII (Michael W. Deem and Ramdas Pophale) SiO2 
 PCOD9480164
Probable space group: C M C A
;
_chemical_formula_sum "Si O2"
_cell_formula_units_Z 112
_cell_length_a 34.365961
_cell_length_b 10.527169
_cell_length_c 15.258009
_cell_angle_alpha 90.000000
_cell_angle_beta 90.000000
_cell_angle_gamma 90.000000
_cell_volume 5519.985725
_symmetry_space_group_name_H-M "C M C A"
_symmetry_group_IT_number 64
_symmetry_cell_setting 'orthorhombic'
loop_
_space_group_symop_operation_xyz
x,y,z
-x,1/2-y,1/2+z
x,-y,-z
-x,1/2+y,1/2-z
-x,-y,-z
x,1/2+y,1/2-z
-x,y,z
x,1/2-y,1/2+z
1/2+x,1/2+y,z
1/2-x,-y,1/2+z
1/2+x,1/2-y,-z
1/2-x,y,1/2-z
1/2-x,1/2-y,-z
1/2+x,y,1/2-z
1/2-x,1/2+y,z
1/2+x,-y,1/2+z
loop_
_atom_site_type_symbol
_atom_site_label
_atom_site_fract_x
_atom_site_fract_y
_atom_site_fract_z
Si Si1 0.956471 0.233901 0.691783
Si Si2 0.406181 0.638983 0.542614
Si Si3 0.792394 0.578754 0.789115
Si Si4 0.042827 0.995390 0.103391
Si Si5 0.414145 0.263608 0.133555
Si Si6 0.317366 0.352616 0.472232
Si Si7 0.175450 0.701165 0.162948
O O1 0.927975 0.144501 0.635186
O O2 0.956389 0.364124 0.638769
O O3 0.941855 0.274873 0.787277
O O4 0.000000 0.180728 0.692904
O O5 0.405455 0.500000 0.500000
O O6 0.425393 0.721457 0.464582
O O7 0.361551 0.684260 0.554360
O O8 0.750000 0.553113 0.750000
O O9 0.791644 0.646788 0.884907
O O10 0.812014 0.682730 0.725020
O O11 0.813207 0.440236 0.801467
O O12 0.000000 0.939192 0.126543
O O13 0.079342 0.914882 0.136762
O O14 0.044845 0.000000 0.000000
O O15 0.371062 0.212135 0.150499
O O16 0.318965 0.500000 0.500000
O O17 0.307119 0.284379 0.563782
#
# Coordination Sequence:
#
# PCOD9480164 Si02
#       7
#    16  16  16  16  16  16  16
#     4  11  24  37  57  88 122 164 211 270 326 374
#     4  10  21  39  60  85 119 165 213 260 311 377
#     4  11  22  41  66  94 129 164 203 254 320 389
#     4  10  21  40  60  83 124 168 211 267 327 376
#     4  11  23  39  64  86 120 165 212 260 318 374
#     4   8  18  39  62  88 125 167 204 254 320 377
#     4  10  23  40  65  94 126 169 213 262 312 380
#
# _framework density 20.289906999999999
#
# number of rings (size 3 to 8) (size 9 to 14) (size 15 to 20)
#    0.000    1.857    1.429    2.571    4.000    1.429 
#    0.000    2.143    0.000    0.000    0.000    0.000 
#    0.000    0.000    0.000    0.000    0.000    0.000 
#
# Total GULP energy -312022.656937 kJ/mol
# GULP energy per Si atom -5571.833160 kJ/mol
# Density = 2.024373 g / cm^3
# Si number density = 20.289907 Si / 1000 Ang^3
#
#
#
# Elastic Constant Matrix: (Units=GPa)
#
#
# Indices 1 2 3 4 5 6 
#
# 1 60.4734 22.3209 49.7575 0.0000 0.0000 0.0000
# 2 22.3209 67.4920 22.6378 0.0000 0.0000 0.0000
# 3 49.7575 22.6378 115.6294 0.0000 0.0000 0.0000
# 4 0.0000 0.0000 0.0000 35.5721 0.0000 0.0000
# 5 0.0000 0.0000 0.0000 0.0000 -333.7622 0.0000
# 6 0.0000 0.0000 0.0000 0.0000 0.0000 28.0764
#
#
#
# Elastic Compliance Matrix: (Units=1/GPa)
#
#
# Indices 1 2 3 4 5 6 
#
# 1 0.027358 -0.005457 -0.010704 0.000000 0.000000 0.000000
# 2 -0.005457 0.016947 -0.000969 0.000000 0.000000 0.000000
# 3 -0.010704 -0.000969 0.013444 0.000000 0.000000 0.000000
# 4 0.000000 0.000000 0.000000 0.028112 0.000000 0.000000
# 5 0.000000 0.000000 0.000000 0.000000 -0.002996 0.000000
# 6 0.000000 0.000000 0.000000 0.000000 0.000000 0.035617
#
#
# Mechanical properties :
#
#
# Convention : Reuss Voigt Hill
#
# Bulk Modulus (GPa) = 42.57694 48.11412 45.34553
# Shear Modulus (GPa) = 31.13856 -44.09749 -6.47946
#
# Velocity S-wave (km/s) = 3.92175 -4.66700 -1.78896
# Velocity P-wave (km/s) = 6.44490 2.29704 4.25795
#
# Compressibility (1/GPa) = 0.02348689
#
# Stress axis : x y z
#
# Youngs Moduli (GPa) = 36.55245 59.00899 74.38088
#
# Poissons Ratio (x) = 0.32204 0.79619
# Poissons Ratio (y) = 0.19948 0.07210
# Poissons Ratio (z) = 0.39126 0.05720
#
# Static dielectric constant tensor:
#      x y z
#    x 1.761090 0.000000 0.000000 
#    y 0.000000 1.748420 0.000000 
#    z 0.000000 0.000000 1.835420 
# 
# From -- ./inp_files/28376.got.cif
#   From: 2010.05.17/outbox.cif.g08.bks.cpg/sg64_15_cif.got.tgz:28376.got - 2010.06.03 16:29:19.
