data_PCOD9480623
_publ_section_title
;
Structure prediction by ZEFSAII (Michael W. Deem and Ramdas Pophale) SiO2 
 PCOD9480623
Probable space group: C M C A
;
_chemical_formula_sum "Si O2"
_cell_formula_units_Z 96
_cell_length_a 16.974428
_cell_length_b 19.712301
_cell_length_c 15.758218
_cell_angle_alpha 90.000000
_cell_angle_beta 90.000000
_cell_angle_gamma 90.000000
_cell_volume 5272.779070
_symmetry_space_group_name_H-M "C M C A"
_symmetry_group_IT_number 64
_symmetry_cell_setting 'orthorhombic'
loop_
_space_group_symop_operation_xyz
x,y,z
-x,1/2-y,1/2+z
x,-y,-z
-x,1/2+y,1/2-z
-x,-y,-z
x,1/2+y,1/2-z
-x,y,z
x,1/2-y,1/2+z
1/2+x,1/2+y,z
1/2-x,-y,1/2+z
1/2+x,1/2-y,-z
1/2-x,y,1/2-z
1/2-x,1/2-y,-z
1/2+x,y,1/2-z
1/2-x,1/2+y,z
1/2+x,-y,1/2+z
loop_
_atom_site_type_symbol
_atom_site_label
_atom_site_fract_x
_atom_site_fract_y
_atom_site_fract_z
Si Si1 0.671986 0.621754 0.809298
Si Si2 0.908093 0.769223 0.294265
Si Si3 0.820446 0.068581 0.452023
Si Si4 0.186667 0.530338 0.327685
Si Si5 0.593086 0.626813 0.285792
Si Si6 0.219724 0.195083 0.565608
O O1 0.750000 0.617161 0.750000
O O2 0.605587 0.661526 0.758042
O O3 0.652903 0.545351 0.835796
O O4 0.703919 0.667857 0.884769
O O5 0.885867 0.705053 0.234651
O O6 0.846074 0.774049 0.371366
O O7 0.000000 0.762187 0.319239
O O8 0.870350 0.095149 0.371412
O O9 0.815668 0.129363 0.518771
O O10 0.848204 0.000000 0.500000
O O11 0.735074 0.051709 0.410770
O O12 0.250000 0.529040 0.250000
O O13 0.123416 0.583873 0.294768
O O14 0.500000 0.622710 0.293025
O O15 0.250000 0.250000 0.500000
#
# Coordination Sequence:
#
# PCOD9480623 Si02
#       6
#    16  16  16  16  16  16
#     4   9  18  34  55  79 107 144 193 233 275 340
#     4  10  22  39  57  81 115 154 197 240 280 342
#     4  11  21  36  59  90 118 143 184 248 298 332
#     4   9  18  35  57  80 112 150 190 232 277 344
#     4  10  22  38  57  81 116 157 193 229 283 349
#     4  11  21  35  60  88 113 150 189 238 296 348
#
# _framework density 18.206717999999999
#
# number of rings (size 3 to 8) (size 9 to 14) (size 15 to 20)
#    0.000    2.000    1.667    2.000    2.333    6.333 
#    0.000    0.833    0.000    1.500    0.000    0.000 
#    0.000    0.000    0.000    0.000    0.000    0.000 
#
# Total GULP energy -267618.505607 kJ/mol
# GULP energy per Si atom -5575.385533 kJ/mol
# Density = 1.816528 g / cm^3
# Si number density = 18.206718 Si / 1000 Ang^3
#
#
#
# Elastic Constant Matrix: (Units=GPa)
#
#
# Indices 1 2 3 4 5 6 
#
# 1 52.4166 40.7847 34.4951 0.0000 0.0000 0.0000
# 2 40.7847 115.9933 33.0157 0.0000 0.0000 0.0000
# 3 34.4951 33.0157 68.7785 0.0000 0.0000 0.0000
# 4 0.0000 0.0000 0.0000 34.6371 0.0000 0.0000
# 5 0.0000 0.0000 0.0000 0.0000 19.6483 0.0000
# 6 0.0000 0.0000 0.0000 0.0000 0.0000 21.8857
#
#
#
# Elastic Compliance Matrix: (Units=1/GPa)
#
#
# Indices 1 2 3 4 5 6 
#
# 1 0.034182 -0.008269 -0.013174 0.000000 0.000000 0.000000
# 2 -0.008269 0.011986 -0.001606 0.000000 0.000000 0.000000
# 3 -0.013174 -0.001606 0.021918 0.000000 0.000000 0.000000
# 4 0.000000 0.000000 0.000000 0.028871 0.000000 0.000000
# 5 0.000000 0.000000 0.000000 0.000000 0.050895 0.000000
# 6 0.000000 0.000000 0.000000 0.000000 0.000000 0.045692
#
#
# Mechanical properties :
#
#
# Convention : Reuss Voigt Hill
#
# Bulk Modulus (GPa) = 45.48226 50.41993 47.95110
# Shear Modulus (GPa) = 20.24529 23.82707 22.03618
#
# Velocity S-wave (km/s) = 3.33824 3.62152 3.48276
# Velocity P-wave (km/s) = 6.31615 6.72609 6.52434
#
# Compressibility (1/GPa) = 0.02198659
#
# Stress axis : x y z
#
# Youngs Moduli (GPa) = 29.25540 83.43158 45.62480
#
# Poissons Ratio (x) = 0.68989 0.60107
# Poissons Ratio (y) = 0.24191 0.07329
# Poissons Ratio (z) = 0.38542 0.13402
#
# Static dielectric constant tensor:
#      x y z
#    x 1.610840 0.000000 0.000000 
#    y 0.000000 1.638780 0.000000 
#    z 0.000000 0.000000 1.642340 
# 
# From -- ./inp_files/23959.got.cif
#   From: 2010.05.17/outbox.cif.g08.bks.cpg/sg64_12_cif.got.tgz:23959.got - 2010.06.03 16:29:19.
