data_PCOD9480343
_publ_section_title
;
Structure prediction by ZEFSAII (Michael W. Deem and Ramdas Pophale) SiO2 
 PCOD9480343
Probable space group: C M C A
;
_chemical_formula_sum "Si O2"
_cell_formula_units_Z 64
_cell_length_a 8.579777
_cell_length_b 14.196222
_cell_length_c 24.707683
_cell_angle_alpha 90.000000
_cell_angle_beta 90.000000
_cell_angle_gamma 90.000000
_cell_volume 3009.406142
_symmetry_space_group_name_H-M "C M C A"
_symmetry_group_IT_number 64
_symmetry_cell_setting 'orthorhombic'
loop_
_space_group_symop_operation_xyz
x,y,z
-x,1/2-y,1/2+z
x,-y,-z
-x,1/2+y,1/2-z
-x,-y,-z
x,1/2+y,1/2-z
-x,y,z
x,1/2-y,1/2+z
1/2+x,1/2+y,z
1/2-x,-y,1/2+z
1/2+x,1/2-y,-z
1/2-x,y,1/2-z
1/2-x,1/2-y,-z
1/2+x,y,1/2-z
1/2-x,1/2+y,z
1/2+x,-y,1/2+z
loop_
_atom_site_type_symbol
_atom_site_label
_atom_site_fract_x
_atom_site_fract_y
_atom_site_fract_z
Si Si1 0.681795 0.445144 0.876937
Si Si2 0.179788 0.388244 0.984673
Si Si3 0.814598 0.850984 0.397177
Si Si4 0.815943 0.713004 0.192274
O O1 0.500000 0.468070 0.875145
O O2 0.717678 0.383753 0.930987
O O3 0.780008 0.540492 0.882155
O O4 0.733718 0.383588 0.826123
O O5 0.000000 0.361846 0.973006
O O6 0.178291 0.500000 0.000000
O O7 0.235146 0.338770 0.039906
O O8 0.726156 0.787405 0.354294
O O9 0.000000 0.833499 0.394606
O O10 0.750000 0.744401 0.250000
O O11 0.000000 0.699702 0.195217
#
# Coordination Sequence:
#
# PCOD9480343 Si02
#       4
#    16  16  16  16
#     4  11  22  38  62  92 124 159 198 242 296 353
#     4   8  16  33  58  88 122 157 194 239 291 350
#     4  10  21  40  64  91 123 158 197 243 297 354
#     4  12  26  44  63  86 117 155 203 252 298 351
#
# _framework density 21.266653000000002
#
# number of rings (size 3 to 8) (size 9 to 14) (size 15 to 20)
#    0.000    1.750    0.000    6.750    0.000    7.500 
#    0.000    5.000    0.000    0.000    0.000    0.000 
#    0.000    0.000    0.000    0.000    0.000    0.000 
#
# Total GULP energy -178979.480015 kJ/mol
# GULP energy per Si atom -5593.108750 kJ/mol
# Density = 2.121825 g / cm^3
# Si number density = 21.266653 Si / 1000 Ang^3
#
#
#
# Elastic Constant Matrix: (Units=GPa)
#
#
# Indices 1 2 3 4 5 6 
#
# 1 68.3825 -25.0567 21.4938 0.0000 0.0000 0.0000
# 2 -25.0567 37.9299 10.2613 0.0000 0.0000 0.0000
# 3 21.4938 10.2613 88.9885 0.0000 0.0000 0.0000
# 4 0.0000 0.0000 0.0000 26.9894 0.0000 0.0000
# 5 0.0000 0.0000 0.0000 0.0000 30.9038 0.0000
# 6 0.0000 0.0000 0.0000 0.0000 0.0000 29.3195
#
#
#
# Elastic Compliance Matrix: (Units=1/GPa)
#
#
# Indices 1 2 3 4 5 6 
#
# 1 0.023497 0.017607 -0.007706 0.000000 0.000000 0.000000
# 2 0.017607 0.040407 -0.008912 0.000000 0.000000 0.000000
# 3 -0.007706 -0.008912 0.014126 0.000000 0.000000 0.000000
# 4 0.000000 0.000000 0.000000 0.037052 0.000000 0.000000
# 5 0.000000 0.000000 0.000000 0.000000 0.032358 0.000000
# 6 0.000000 0.000000 0.000000 0.000000 0.000000 0.034107
#
#
# Mechanical properties :
#
#
# Convention : Reuss Voigt Hill
#
# Bulk Modulus (GPa) = 12.49863 23.18865 17.84364
# Shear Modulus (GPa) = 24.24383 30.01605 27.12994
#
# Velocity S-wave (km/s) = 3.38004 3.76095 3.57557
# Velocity P-wave (km/s) = 4.59595 5.45776 5.04529
#
# Compressibility (1/GPa) = 0.08000876
#
# Stress axis : x y z
#
# Youngs Moduli (GPa) = 42.55827 24.74838 70.79027
#
# Poissons Ratio (x) = -0.43574 0.54549
# Poissons Ratio (y) = -0.74932 0.63088
# Poissons Ratio (z) = 0.32794 0.22056
#
# Static dielectric constant tensor:
#      x y z
#    x 1.698000 0.000000 0.000000 
#    y 0.000000 1.812720 0.000000 
#    z 0.000000 0.000000 1.772250 
# 
# From -- ./inp_files/42472.got.cif
#   From: 2010.05.17/outbox.cif.g08.bks.cpg/sg64_22_cif.got.tgz:42472.got - 2010.06.03 16:29:19.
