data_PCOD9480718
_publ_section_title
;
Structure prediction by ZEFSAII (Michael W. Deem and Ramdas Pophale) SiO2 
 PCOD9480718
Probable space group: C M C A
;
_chemical_formula_sum "Si O2"
_cell_formula_units_Z 72
_cell_length_a 13.811953
_cell_length_b 25.983412
_cell_length_c 6.920738
_cell_angle_alpha 90.000000
_cell_angle_beta 90.000000
_cell_angle_gamma 90.000000
_cell_volume 2483.725979
_symmetry_space_group_name_H-M "C M C A"
_symmetry_group_IT_number 64
_symmetry_cell_setting 'orthorhombic'
loop_
_space_group_symop_operation_xyz
x,y,z
-x,1/2-y,1/2+z
x,-y,-z
-x,1/2+y,1/2-z
-x,-y,-z
x,1/2+y,1/2-z
-x,y,z
x,1/2-y,1/2+z
1/2+x,1/2+y,z
1/2-x,-y,1/2+z
1/2+x,1/2-y,-z
1/2-x,y,1/2-z
1/2-x,1/2-y,-z
1/2+x,y,1/2-z
1/2-x,1/2+y,z
1/2+x,-y,1/2+z
loop_
_atom_site_type_symbol
_atom_site_label
_atom_site_fract_x
_atom_site_fract_y
_atom_site_fract_z
Si Si1 0.611091 0.349780 0.637818
Si Si2 0.115002 0.066717 0.842655
Si Si3 0.885875 0.461458 0.792992
Si Si4 0.112678 0.682473 0.697493
Si Si5 0.750000 0.228874 0.250000
O O1 0.500000 0.355300 0.699909
O O2 0.651276 0.407921 0.617551
O O3 0.612703 0.320982 0.432969
O O4 0.666719 0.314194 0.787779
O O5 0.150354 0.125012 0.844648
O O6 0.000000 0.071784 0.796982
O O7 0.149835 0.020951 0.697739
O O8 0.122830 0.049242 0.063664
O O9 0.000000 0.463719 0.838732
O O10 0.183270 0.728842 0.640048
O O11 0.000000 0.690012 0.638673
#
# Coordination Sequence:
#
# PCOD9480718 Si02
#       5
#    16  16  16  16   8
#     4  10  22  39  60  87 116 149 193 242 287 334
#     4   8  15  31  57  87 117 149 184 226 284 349
#     4   8  15  31  57  87 117 149 184 226 284 349
#     4  10  22  39  60  87 116 149 193 242 287 334
#     4  12  24  40  58  80 114 160 198 236 286 346
#
# _framework density 28.988703000000001
#
# number of rings (size 3 to 8) (size 9 to 14) (size 15 to 20)
#    0.000    2.667    0.000    2.667    0.000    4.444 
#    0.000   10.000    0.000    0.000    0.000    0.000 
#    0.000    0.000    0.000    0.000    0.000    0.000 
#
# Total GULP energy -201193.446999 kJ/mol
# GULP energy per Si atom -5588.706861 kJ/mol
# Density = 2.892272 g / cm^3
# Si number density = 28.988703 Si / 1000 Ang^3
#
#
#
# Elastic Constant Matrix: (Units=GPa)
#
#
# Indices 1 2 3 4 5 6 
#
# 1 163.4331 80.3896 5.6612 0.0000 0.0000 0.0000
# 2 80.3896 333.3571 59.8251 0.0000 0.0000 0.0000
# 3 5.6612 59.8251 76.4555 0.0000 0.0000 0.0000
# 4 0.0000 0.0000 0.0000 -277.3883 0.0000 0.0000
# 5 0.0000 0.0000 0.0000 0.0000 11.5832 0.0000
# 6 0.0000 0.0000 0.0000 0.0000 0.0000 1101.1902
#
#
#
# Elastic Compliance Matrix: (Units=1/GPa)
#
#
# Indices 1 2 3 4 5 6 
#
# 1 0.006999 -0.001855 0.000934 0.000000 0.000000 0.000000
# 2 -0.001855 0.003982 -0.002978 0.000000 0.000000 0.000000
# 3 0.000934 -0.002978 0.015341 0.000000 0.000000 0.000000
# 4 0.000000 0.000000 0.000000 -0.003605 0.000000 0.000000
# 5 0.000000 0.000000 0.000000 0.000000 0.086332 0.000000
# 6 0.000000 0.000000 0.000000 0.000000 0.000000 0.000908
#
#
# Mechanical properties :
#
#
# Convention : Reuss Voigt Hill
#
# Bulk Modulus (GPa) = 53.99164 96.11084 75.05124
# Shear Modulus (GPa) = 40.34516 195.56831 117.95673
#
# Velocity S-wave (km/s) = 3.73467 8.22254 6.38584
# Velocity P-wave (km/s) = 6.10430 11.10736 8.96203
#
# Compressibility (1/GPa) = 0.01852138
#
# Stress axis : x y z
#
# Youngs Moduli (GPa) = 142.87785 251.14984 65.18569
#
# Poissons Ratio (x) = 0.46597 -0.06085
# Poissons Ratio (y) = 0.26509 0.19414
# Poissons Ratio (z) = -0.13338 0.74798
#
# Static dielectric constant tensor:
#      x y z
#    x 2.186850 0.000000 0.000000 
#    y 0.000000 2.181460 0.000000 
#    z 0.000000 0.000000 2.443560 
# 
# From -- ./inp_files/5855.got.cif
#   From: 2010.05.17/outbox.cif.g08.bks.cpg/sg64_3_cif.got.tgz:5855.got - 2010.06.03 16:29:19.
