data_PCOD9480843
_publ_section_title
;
Structure prediction by ZEFSAII (Michael W. Deem and Ramdas Pophale) SiO2 
 PCOD9480843
Probable space group: C M C A
;
_chemical_formula_sum "Si O2"
_cell_formula_units_Z 68
_cell_length_a 24.798769
_cell_length_b 13.772355
_cell_length_c 9.976356
_cell_angle_alpha 90.000000
_cell_angle_beta 90.000000
_cell_angle_gamma 90.000000
_cell_volume 3407.299191
_symmetry_space_group_name_H-M "C M C A"
_symmetry_group_IT_number 64
_symmetry_cell_setting 'orthorhombic'
loop_
_space_group_symop_operation_xyz
x,y,z
-x,1/2-y,1/2+z
x,-y,-z
-x,1/2+y,1/2-z
-x,-y,-z
x,1/2+y,1/2-z
-x,y,z
x,1/2-y,1/2+z
1/2+x,1/2+y,z
1/2-x,-y,1/2+z
1/2+x,1/2-y,-z
1/2-x,y,1/2-z
1/2-x,1/2-y,-z
1/2+x,y,1/2-z
1/2-x,1/2+y,z
1/2+x,-y,1/2+z
loop_
_atom_site_type_symbol
_atom_site_label
_atom_site_fract_x
_atom_site_fract_y
_atom_site_fract_z
Si Si1 0.888287 0.311517 0.893724
Si Si2 0.500000 0.377935 0.254511
Si Si3 0.500000 0.147795 0.239199
Si Si4 0.614587 0.360947 0.308849
Si Si5 0.799628 0.974002 0.651446
Si Si6 0.000000 0.000000 0.000000
O O1 0.883933 0.209990 0.817270
O O2 0.839297 0.381809 0.852623
O O3 0.945380 0.357545 0.848693
O O4 0.883878 0.301164 0.053202
O O5 0.500000 0.261825 0.284567
O O6 0.556761 0.414251 0.310706
O O7 0.500000 0.403785 0.097335
O O8 0.500000 0.071407 0.361689
O O9 0.662974 0.436322 0.303837
O O10 0.750000 0.959620 0.750000
O O11 0.781630 0.000000 0.500000
#
# Coordination Sequence:
#
# PCOD9480843 Si02
#       6
#    16   8   8  16  16   4
#     4  10  22  40  65  94 130 166 210 264 328 389
#     4  10  23  38  65  99 138 166 219 264 328 403
#     4  10  23  38  65  99 138 166 219 264 328 403
#     4  10  22  40  65  94 130 166 210 264 328 389
#     4  10  23  43  60  87 121 165 219 271 318 384
#     4  12  24  40  62  98 136 188 222 256 336 396
#
# _framework density 19.957156000000001
#
# number of rings (size 3 to 8) (size 9 to 14) (size 15 to 20)
#    0.000    1.882    0.000    2.118   13.176    2.824 
#    4.235    9.412    0.000    0.000    0.000    0.000 
#    0.000    0.000    0.000    0.000    0.000    0.000 
#
# Total GULP energy -189282.702485 kJ/mol
# GULP energy per Si atom -5567.138308 kJ/mol
# Density = 1.991173 g / cm^3
# Si number density = 19.957156 Si / 1000 Ang^3
#
#
#
# Elastic Constant Matrix: (Units=GPa)
#
#
# Indices 1 2 3 4 5 6 
#
# 1 115.5773 -9.0853 27.7118 0.0000 0.0000 0.0000
# 2 -9.0853 47.1080 -6.1685 0.0000 0.0000 0.0000
# 3 27.7118 -6.1685 36.4881 0.0000 0.0000 0.0000
# 4 0.0000 0.0000 0.0000 41.5006 0.0000 0.0000
# 5 0.0000 0.0000 0.0000 0.0000 27.5403 0.0000
# 6 0.0000 0.0000 0.0000 0.0000 0.0000 5.8400
#
#
#
# Elastic Compliance Matrix: (Units=1/GPa)
#
#
# Indices 1 2 3 4 5 6 
#
# 1 0.010626 0.001015 -0.007898 0.000000 0.000000 0.000000
# 2 0.001015 0.021805 0.002915 0.000000 0.000000 0.000000
# 3 -0.007898 0.002915 0.033898 0.000000 0.000000 0.000000
# 4 0.000000 0.000000 0.000000 0.024096 0.000000 0.000000
# 5 0.000000 0.000000 0.000000 0.000000 0.036310 0.000000
# 6 0.000000 0.000000 0.000000 0.000000 0.000000 0.171233
#
#
# Mechanical properties :
#
#
# Convention : Reuss Voigt Hill
#
# Bulk Modulus (GPa) = 17.12539 24.89881 21.01210
# Shear Modulus (GPa) = 15.36721 27.42388 21.39554
#
# Velocity S-wave (km/s) = 2.77792 3.71096 3.27781
# Velocity P-wave (km/s) = 4.34612 5.55561 4.98767
#
# Compressibility (1/GPa) = 0.05839283
#
# Stress axis : x y z
#
# Youngs Moduli (GPa) = 94.11055 45.86036 29.50054
#
# Poissons Ratio (x) = -0.04655 0.23301
# Poissons Ratio (y) = -0.09553 -0.08600
# Poissons Ratio (z) = 0.74332 -0.13370
#
# Static dielectric constant tensor:
#      x y z
#    x 1.699340 0.000000 0.000000 
#    y 0.000000 1.739380 0.000000 
#    z 0.000000 0.000000 1.691200 
# 
# From -- ./inp_files/6752.got.cif
#   From: 2010.05.17/outbox.cif.g08.bks.cpg/sg64_4_cif.got.tgz:6752.got - 2010.06.03 16:29:19.
