data_PCOD9480325
_publ_section_title
;
Structure prediction by ZEFSAII (Michael W. Deem and Ramdas Pophale) SiO2 
 PCOD9480325
Probable space group: C M C A
;
_chemical_formula_sum "Si O2"
_cell_formula_units_Z 80
_cell_length_a 14.335926
_cell_length_b 12.834559
_cell_length_c 19.367737
_cell_angle_alpha 90.000000
_cell_angle_beta 90.000000
_cell_angle_gamma 90.000000
_cell_volume 3563.572349
_symmetry_space_group_name_H-M "C M C A"
_symmetry_group_IT_number 64
_symmetry_cell_setting 'orthorhombic'
loop_
_space_group_symop_operation_xyz
x,y,z
-x,1/2-y,1/2+z
x,-y,-z
-x,1/2+y,1/2-z
-x,-y,-z
x,1/2+y,1/2-z
-x,y,z
x,1/2-y,1/2+z
1/2+x,1/2+y,z
1/2-x,-y,1/2+z
1/2+x,1/2-y,-z
1/2-x,y,1/2-z
1/2-x,1/2-y,-z
1/2+x,y,1/2-z
1/2-x,1/2+y,z
1/2+x,-y,1/2+z
loop_
_atom_site_type_symbol
_atom_site_label
_atom_site_fract_x
_atom_site_fract_y
_atom_site_fract_z
Si Si1 0.197360 0.653244 0.944540
Si Si2 0.395934 0.315494 0.697804
Si Si3 0.891067 0.667698 0.352417
Si Si4 0.253825 0.000546 0.825892
Si Si5 0.605631 0.228684 0.551103
O O1 0.164698 0.756451 0.902871
O O2 0.198873 0.564026 0.887494
O O3 0.305414 0.658836 0.967765
O O4 0.131659 0.661863 0.012213
O O5 0.500000 0.362003 0.692841
O O6 0.385863 0.279535 0.776310
O O7 0.318924 0.401432 0.686852
O O8 0.388715 0.236885 0.634200
O O9 0.844457 0.553195 0.346850
O O10 0.000000 0.660815 0.371062
O O11 0.250000 0.054644 0.750000
O O12 0.500000 0.198504 0.533188
#
# Coordination Sequence:
#
# PCOD9480325 Si02
#       5
#    16  16  16  16  16
#     4  11  23  38  64  89 121 164 205 249 307 363
#     4   9  19  38  61  84 121 161 197 250 311 358
#     4  10  21  40  63  89 124 162 202 253 309 364
#     4  10  22  37  61  91 123 152 203 253 301 360
#     4  10  22  40  59  87 123 160 204 249 303 368
#
# _framework density 22.449382
#
# number of rings (size 3 to 8) (size 9 to 14) (size 15 to 20)
#    0.000    2.000    2.000    0.600    2.800    3.200 
#    0.000    2.000    0.000    3.600    0.000    0.000 
#    0.000    0.000    0.000    0.000    0.000    0.000 
#
# Total GULP energy -222951.372051 kJ/mol
# GULP energy per Si atom -5573.784301 kJ/mol
# Density = 2.239829 g / cm^3
# Si number density = 22.449382 Si / 1000 Ang^3
#
#
#
# Elastic Constant Matrix: (Units=GPa)
#
#
# Indices 1 2 3 4 5 6 
#
# 1 115.6379 -0.8054 -2.9063 0.0000 0.0000 0.0000
# 2 -0.8054 21.2182 10.1919 0.0000 0.0000 0.0000
# 3 -2.9063 10.1919 113.0694 0.0000 0.0000 0.0000
# 4 0.0000 0.0000 0.0000 24.6444 0.0000 0.0000
# 5 0.0000 0.0000 0.0000 0.0000 21.8412 0.0000
# 6 0.0000 0.0000 0.0000 0.0000 0.0000 6.3618
#
#
#
# Elastic Compliance Matrix: (Units=1/GPa)
#
#
# Indices 1 2 3 4 5 6 
#
# 1 0.008654 0.000232 0.000202 0.000000 0.000000 0.000000
# 2 0.000232 0.049269 -0.004435 0.000000 0.000000 0.000000
# 3 0.000202 -0.004435 0.009249 0.000000 0.000000 0.000000
# 4 0.000000 0.000000 0.000000 0.040577 0.000000 0.000000
# 5 0.000000 0.000000 0.000000 0.000000 0.045785 0.000000
# 6 0.000000 0.000000 0.000000 0.000000 0.000000 0.157187
#
#
# Mechanical properties :
#
#
# Convention : Reuss Voigt Hill
#
# Bulk Modulus (GPa) = 16.90091 29.20954 23.05522
# Shear Modulus (GPa) = 14.77332 26.79918 20.78625
#
# Velocity S-wave (km/s) = 2.56808 3.45883 3.04619
# Velocity P-wave (km/s) = 4.04205 5.38432 4.76073
#
# Compressibility (1/GPa) = 0.05916842
#
# Stress axis : x y z
#
# Youngs Moduli (GPa) = 115.54867 20.29692 108.11897
#
# Poissons Ratio (x) = -0.00470 -0.02179
# Poissons Ratio (y) = -0.02677 0.47951
# Poissons Ratio (z) = -0.02329 0.09002
#
# Static dielectric constant tensor:
#      x y z
#    x 1.853960 0.000000 0.000000 
#    y 0.000000 1.839940 0.000000 
#    z 0.000000 0.000000 1.967800 
# 
# From -- ./inp_files/38994.got.cif
#   From: 2010.05.17/outbox.cif.g08.bks.cpg/sg64_20_cif.got.tgz:38994.got - 2010.06.03 16:29:19.
