data_PCOD9480974
_publ_section_title
;
Structure prediction by ZEFSAII (Michael W. Deem and Ramdas Pophale) SiO2 
 PCOD9480974
Probable space group: C M C A
;
_chemical_formula_sum "Si O2"
_cell_formula_units_Z 104
_cell_length_a 28.180177
_cell_length_b 22.118645
_cell_length_c 8.801880
_cell_angle_alpha 90.000000
_cell_angle_beta 90.000000
_cell_angle_gamma 90.000000
_cell_volume 5486.276331
_symmetry_space_group_name_H-M "C M C A"
_symmetry_group_IT_number 64
_symmetry_cell_setting 'orthorhombic'
loop_
_space_group_symop_operation_xyz
x,y,z
-x,1/2-y,1/2+z
x,-y,-z
-x,1/2+y,1/2-z
-x,-y,-z
x,1/2+y,1/2-z
-x,y,z
x,1/2-y,1/2+z
1/2+x,1/2+y,z
1/2-x,-y,1/2+z
1/2+x,1/2-y,-z
1/2-x,y,1/2-z
1/2-x,1/2-y,-z
1/2+x,y,1/2-z
1/2-x,1/2+y,z
1/2+x,-y,1/2+z
loop_
_atom_site_type_symbol
_atom_site_label
_atom_site_fract_x
_atom_site_fract_y
_atom_site_fract_z
Si Si1 0.094488 0.661119 0.917837
Si Si2 0.667727 0.669605 0.076080
Si Si3 0.000000 0.915342 0.406759
Si Si4 0.750000 0.885418 0.750000
Si Si5 0.898266 0.557903 0.393418
Si Si6 0.000000 0.041674 0.240475
Si Si7 0.125405 0.748491 0.160119
Si Si8 0.158768 0.062985 0.415650
O O1 0.047646 0.622872 0.889309
O O2 0.105756 0.698878 0.767021
O O3 0.089773 0.712030 0.050280
O O4 0.135778 0.615254 0.977415
O O5 0.720221 0.649534 0.120787
O O6 0.631251 0.614755 0.039032
O O7 0.647543 0.699090 0.229501
O O8 0.664023 0.720127 0.947869
O O9 0.000000 0.933571 0.586111
O O10 0.000000 0.969999 0.283793
O O11 0.790852 0.920421 0.658615
O O12 0.890554 0.500000 0.500000
O O13 0.876113 0.551822 0.225904
O O14 0.954130 0.562220 0.355742
O O15 0.162723 0.000000 0.500000
#
# Coordination Sequence:
#
# PCOD9480974 Si02
#       8
#    16  16   8   8  16   8  16  16
#     4  11  22  43  63  96 122 175 205 267 308 377
#     4  10  22  42  63  92 123 168 204 267 313 374
#     4  11  22  36  68  92 128 162 223 248 310 374
#     4  10  22  42  64  96 126 160 214 266 318 376
#     4  11  23  39  64  93 130 162 205 265 315 372
#     4  11  21  38  60  98 124 168 206 256 312 385
#     4  10  22  42  66  86 128 164 215 250 323 367
#     4  11  23  43  66  91 130 164 207 259 324 374
#
# _framework density 18.956389999999999
#
# number of rings (size 3 to 8) (size 9 to 14) (size 15 to 20)
#    0.000    1.385    4.615    1.154    4.308    3.692 
#    0.000    3.077    0.000    0.000    0.000    0.000 
#    0.000    0.000    0.000    0.000    0.000    0.000 
#
# Total GULP energy -289947.634447 kJ/mol
# GULP energy per Si atom -5575.916047 kJ/mol
# Density = 1.891324 g / cm^3
# Si number density = 18.956390 Si / 1000 Ang^3
#
#
#
# Elastic Constant Matrix: (Units=GPa)
#
#
# Indices 1 2 3 4 5 6 
#
# 1 122.3720 39.8531 4.9197 0.0000 0.0000 0.0000
# 2 39.8531 81.1719 14.3778 0.0000 0.0000 0.0000
# 3 4.9197 14.3778 36.1372 0.0000 0.0000 0.0000
# 4 0.0000 0.0000 0.0000 38.7518 0.0000 0.0000
# 5 0.0000 0.0000 0.0000 0.0000 3.1330 0.0000
# 6 0.0000 0.0000 0.0000 0.0000 0.0000 17.6106
#
#
#
# Elastic Compliance Matrix: (Units=1/GPa)
#
#
# Indices 1 2 3 4 5 6 
#
# 1 0.009740 -0.004892 0.000620 0.000000 0.000000 0.000000
# 2 -0.004892 0.015711 -0.005585 0.000000 0.000000 0.000000
# 3 0.000620 -0.005585 0.029810 0.000000 0.000000 0.000000
# 4 0.000000 0.000000 0.000000 0.025805 0.000000 0.000000
# 5 0.000000 0.000000 0.000000 0.000000 0.319186 0.000000
# 6 0.000000 0.000000 0.000000 0.000000 0.000000 0.056784
#
#
# Mechanical properties :
#
#
# Convention : Reuss Voigt Hill
#
# Bulk Modulus (GPa) = 28.13118 39.77581 33.95350
# Shear Modulus (GPa) = 10.23337 23.93443 17.08390
#
# Velocity S-wave (km/s) = 2.32596 3.55717 3.00529
# Velocity P-wave (km/s) = 4.69953 6.15627 5.47655
#
# Compressibility (1/GPa) = 0.03554774
#
# Stress axis : x y z
#
# Youngs Moduli (GPa) = 102.66901 63.65142 33.54600
#
# Poissons Ratio (x) = 0.31138 -0.02081
# Poissons Ratio (y) = 0.50225 0.18735
# Poissons Ratio (z) = -0.06369 0.35548
#
# Static dielectric constant tensor:
#      x y z
#    x 1.660850 0.000000 0.000000 
#    y 0.000000 1.686000 0.000000 
#    z 0.000000 0.000000 1.662760 
# 
# From -- ./inp_files/11240.got.cif
#   From: 2010.05.17/outbox.cif.g08.bks.cpg/sg64_6_cif.got.tgz:11240.got - 2010.06.03 16:29:19.
