data_PCOD9480782
_publ_section_title
;
Structure prediction by ZEFSAII (Michael W. Deem and Ramdas Pophale) SiO2 
 PCOD9480782
Probable space group: C M C A
;
_chemical_formula_sum "Si O2"
_cell_formula_units_Z 80
_cell_length_a 18.483379
_cell_length_b 23.906607
_cell_length_c 8.438845
_cell_angle_alpha 90.000000
_cell_angle_beta 90.000000
_cell_angle_gamma 90.000000
_cell_volume 3728.913603
_symmetry_space_group_name_H-M "C M C A"
_symmetry_group_IT_number 64
_symmetry_cell_setting 'orthorhombic'
loop_
_space_group_symop_operation_xyz
x,y,z
-x,1/2-y,1/2+z
x,-y,-z
-x,1/2+y,1/2-z
-x,-y,-z
x,1/2+y,1/2-z
-x,y,z
x,1/2-y,1/2+z
1/2+x,1/2+y,z
1/2-x,-y,1/2+z
1/2+x,1/2-y,-z
1/2-x,y,1/2-z
1/2-x,1/2-y,-z
1/2+x,y,1/2-z
1/2-x,1/2+y,z
1/2+x,-y,1/2+z
loop_
_atom_site_type_symbol
_atom_site_label
_atom_site_fract_x
_atom_site_fract_y
_atom_site_fract_z
Si Si1 0.196782 0.359236 0.398649
Si Si2 0.812179 0.455905 0.632864
Si Si3 0.173226 0.724741 0.336762
Si Si4 0.085198 0.377109 0.819061
Si Si5 0.084581 0.840317 0.329824
O O1 0.250000 0.359313 0.250000
O O2 0.219241 0.403632 0.531356
O O3 0.188996 0.300887 0.490115
O O4 0.118616 0.371502 0.321354
O O5 0.834577 0.500000 0.500000
O O6 0.750000 0.478296 0.750000
O O7 0.875924 0.429617 0.737567
O O8 0.250000 0.727342 0.250000
O O9 0.123317 0.678559 0.249848
O O10 0.130015 0.782757 0.346059
O O11 0.000000 0.375865 0.784265
O O12 0.094381 0.374824 0.008660
O O13 0.000000 0.828091 0.309341
#
# Coordination Sequence:
#
# PCOD9480782 Si02
#       5
#    16  16  16  16  16
#     4  11  22  38  60  88 122 159 204 253 304 362
#     4  11  24  43  69  94 119 153 198 253 312 370
#     4  11  22  36  59  90 127 171 214 253 297 352
#     4  10  22  40  60  89 129 166 205 253 303 359
#     4  11  23  38  58  87 126 169 208 249 300 357
#
# _framework density 21.453970999999999
#
# number of rings (size 3 to 8) (size 9 to 14) (size 15 to 20)
#    0.000    1.200    0.000    7.800    0.000    8.400 
#    0.000    1.000    0.000    3.000    0.000    0.000 
#    0.000    0.000    0.000    0.000    0.000    0.000 
#
# Total GULP energy -223813.308052 kJ/mol
# GULP energy per Si atom -5595.332701 kJ/mol
# Density = 2.140514 g / cm^3
# Si number density = 21.453971 Si / 1000 Ang^3
#
#
#
# Elastic Constant Matrix: (Units=GPa)
#
#
# Indices 1 2 3 4 5 6 
#
# 1 154.4412 26.1300 59.7914 0.0000 0.0000 0.0000
# 2 26.1300 49.8999 10.5752 0.0000 0.0000 0.0000
# 3 59.7914 10.5752 117.9743 0.0000 0.0000 0.0000
# 4 0.0000 0.0000 0.0000 35.7805 0.0000 0.0000
# 5 0.0000 0.0000 0.0000 0.0000 38.5631 0.0000
# 6 0.0000 0.0000 0.0000 0.0000 0.0000 14.1566
#
#
#
# Elastic Compliance Matrix: (Units=1/GPa)
#
#
# Indices 1 2 3 4 5 6 
#
# 1 0.008671 -0.003679 -0.004065 0.000000 0.000000 0.000000
# 2 -0.003679 0.021989 -0.000106 0.000000 0.000000 0.000000
# 3 -0.004065 -0.000106 0.010546 0.000000 0.000000 0.000000
# 4 0.000000 0.000000 0.000000 0.027948 0.000000 0.000000
# 5 0.000000 0.000000 0.000000 0.000000 0.025932 0.000000
# 6 0.000000 0.000000 0.000000 0.000000 0.000000 0.070638
#
#
# Mechanical properties :
#
#
# Convention : Reuss Voigt Hill
#
# Bulk Modulus (GPa) = 39.20717 57.25651 48.23184
# Shear Modulus (GPa) = 26.32584 32.75464 29.54024
#
# Velocity S-wave (km/s) = 3.50678 3.91159 3.71470
# Velocity P-wave (km/s) = 5.89163 6.86635 6.39758
#
# Compressibility (1/GPa) = 0.02550554
#
# Stress axis : x y z
#
# Youngs Moduli (GPa) = 115.32507 45.47669 94.82170
#
# Poissons Ratio (x) = 0.16732 0.38544
# Poissons Ratio (y) = 0.42430 0.01009
# Poissons Ratio (z) = 0.46878 0.00484
#
# Static dielectric constant tensor:
#      x y z
#    x 1.769820 0.000000 0.000000 
#    y 0.000000 1.801770 0.000000 
#    z 0.000000 0.000000 1.802520 
# 
# From -- ./inp_files/7054.got.cif
#   From: 2010.05.17/outbox.cif.g08.bks.cpg/sg64_4_cif.got.tgz:7054.got - 2010.06.03 16:29:19.
