data_PCOD9480970
_publ_section_title
;
Structure prediction by ZEFSAII (Michael W. Deem and Ramdas Pophale) SiO2 
 PCOD9480970
Probable space group: C M C A
;
_chemical_formula_sum "Si O2"
_cell_formula_units_Z 96
_cell_length_a 14.479754
_cell_length_b 19.122347
_cell_length_c 14.969083
_cell_angle_alpha 90.000000
_cell_angle_beta 90.000000
_cell_angle_gamma 90.000000
_cell_volume 4144.742695
_symmetry_space_group_name_H-M "C M C A"
_symmetry_group_IT_number 64
_symmetry_cell_setting 'orthorhombic'
loop_
_space_group_symop_operation_xyz
x,y,z
-x,1/2-y,1/2+z
x,-y,-z
-x,1/2+y,1/2-z
-x,-y,-z
x,1/2+y,1/2-z
-x,y,z
x,1/2-y,1/2+z
1/2+x,1/2+y,z
1/2-x,-y,1/2+z
1/2+x,1/2-y,-z
1/2-x,y,1/2-z
1/2-x,1/2-y,-z
1/2+x,y,1/2-z
1/2-x,1/2+y,z
1/2+x,-y,1/2+z
loop_
_atom_site_type_symbol
_atom_site_label
_atom_site_fract_x
_atom_site_fract_y
_atom_site_fract_z
Si Si1 0.750000 0.096652 0.250000
Si Si2 0.000000 0.953439 0.208845
Si Si3 0.670752 0.148141 0.976152
Si Si4 0.324603 0.854266 0.324359
Si Si5 0.690522 0.439236 0.929356
Si Si6 0.000000 0.567305 0.433938
Si Si7 0.500000 0.941834 0.081659
Si Si8 0.891772 0.297196 0.845538
O O1 0.704000 0.048542 0.325211
O O2 0.827850 0.148318 0.291118
O O3 0.090531 0.909292 0.175563
O O4 0.000000 0.966573 0.315450
O O5 0.000000 0.027757 0.160166
O O6 0.757361 0.158804 0.910104
O O7 0.587803 0.109210 0.927804
O O8 0.713428 0.092856 0.044099
O O9 0.634230 0.204592 0.047799
O O10 0.250000 0.874854 0.250000
O O11 0.370820 0.779145 0.305642
O O12 0.597080 0.393770 0.942075
O O13 0.679653 0.500000 0.000000
O O14 0.000000 0.500000 0.500000
O O15 0.500000 0.000000 0.000000
O O16 0.000000 0.314872 0.838666
#
# Coordination Sequence:
#
# PCOD9480970 Si02
#       8
#     8   8  16  16  16   8   8  16
#     4  10  24  40  68  98 130 180 228 272 340 404
#     4  12  26  43  70 103 135 182 227 290 344 401
#     4  11  24  44  67  98 137 177 223 280 339 410
#     4  12  23  43  72  99 135 173 225 283 346 411
#     4  10  22  42  64  93 133 173 222 277 333 397
#     4  10  22  42  62  92 132 165 222 275 336 406
#     4  12  26  43  64 101 137 183 235 273 337 405
#     4  11  23  43  70  99 137 178 225 282 345 413
#
# _framework density 23.161873
#
# number of rings (size 3 to 8) (size 9 to 14) (size 15 to 20)
#    0.000    1.000    4.167    3.000    1.167    4.000 
#    3.000    0.000    0.000    0.000    0.000    0.000 
#    0.000    0.000    0.000    0.000    0.000    0.000 
#
# Total GULP energy -267551.261266 kJ/mol
# GULP energy per Si atom -5573.984610 kJ/mol
# Density = 2.310916 g / cm^3
# Si number density = 23.161873 Si / 1000 Ang^3
#
#
#
# Elastic Constant Matrix: (Units=GPa)
#
#
# Indices 1 2 3 4 5 6 
#
# 1 175.8009 26.7589 46.2066 0.0000 0.0000 0.0000
# 2 26.7589 56.9486 15.0702 0.0000 0.0000 0.0000
# 3 46.2066 15.0702 114.7200 0.0000 0.0000 0.0000
# 4 0.0000 0.0000 0.0000 17.1966 0.0000 0.0000
# 5 0.0000 0.0000 0.0000 0.0000 237.7179 0.0000
# 6 0.0000 0.0000 0.0000 0.0000 0.0000 23.5799
#
#
#
# Elastic Compliance Matrix: (Units=1/GPa)
#
#
# Indices 1 2 3 4 5 6 
#
# 1 0.006693 -0.002519 -0.002365 0.000000 0.000000 0.000000
# 2 -0.002519 0.019140 -0.001500 0.000000 0.000000 0.000000
# 3 -0.002365 -0.001500 0.009866 0.000000 0.000000 0.000000
# 4 0.000000 0.000000 0.000000 0.058151 0.000000 0.000000
# 5 0.000000 0.000000 0.000000 0.000000 0.004207 0.000000
# 6 0.000000 0.000000 0.000000 0.000000 0.000000 0.042409
#
#
# Mechanical properties :
#
#
# Convention : Reuss Voigt Hill
#
# Bulk Modulus (GPa) = 43.60664 58.17123 50.88893
# Shear Modulus (GPa) = 31.07938 72.99448 52.03693
#
# Velocity S-wave (km/s) = 3.66708 5.61991 4.74504
# Velocity P-wave (km/s) = 6.06611 8.20248 7.21382
#
# Compressibility (1/GPa) = 0.02293229
#
# Stress axis : x y z
#
# Youngs Moduli (GPa) = 149.40313 52.24583 101.35366
#
# Poissons Ratio (x) = 0.13162 0.23970
# Poissons Ratio (y) = 0.37638 0.15200
# Poissons Ratio (z) = 0.35333 0.07835
#
# Static dielectric constant tensor:
#      x y z
#    x 1.961440 0.000000 0.000000 
#    y 0.000000 1.902830 0.000000 
#    z 0.000000 0.000000 1.975350 
# 
# From -- ./inp_files/24017.got.cif
#   From: 2010.05.17/outbox.cif.g08.bks.cpg/sg64_13_cif.got.tgz:24017.got - 2010.06.03 16:29:19.
