data_PCOD9480265
_publ_section_title
;
Structure prediction by ZEFSAII (Michael W. Deem and Ramdas Pophale) SiO2 
 PCOD9480265
Probable space group: C M C A
;
_chemical_formula_sum "Si O2"
_cell_formula_units_Z 112
_cell_length_a 24.191054
_cell_length_b 11.441136
_cell_length_c 19.741608
_cell_angle_alpha 90.000000
_cell_angle_beta 90.000000
_cell_angle_gamma 90.000000
_cell_volume 5463.946811
_symmetry_space_group_name_H-M "C M C A"
_symmetry_group_IT_number 64
_symmetry_cell_setting 'orthorhombic'
loop_
_space_group_symop_operation_xyz
x,y,z
-x,1/2-y,1/2+z
x,-y,-z
-x,1/2+y,1/2-z
-x,-y,-z
x,1/2+y,1/2-z
-x,y,z
x,1/2-y,1/2+z
1/2+x,1/2+y,z
1/2-x,-y,1/2+z
1/2+x,1/2-y,-z
1/2-x,y,1/2-z
1/2-x,1/2-y,-z
1/2+x,y,1/2-z
1/2-x,1/2+y,z
1/2+x,-y,1/2+z
loop_
_atom_site_type_symbol
_atom_site_label
_atom_site_fract_x
_atom_site_fract_y
_atom_site_fract_z
Si Si1 0.869655 0.891054 0.828169
Si Si2 0.252361 0.926954 0.823859
Si Si3 0.374145 0.428802 0.671316
Si Si4 0.064823 0.680340 0.044361
Si Si5 0.251532 0.397866 0.444288
Si Si6 0.629512 0.409715 0.061632
Si Si7 0.130729 0.832065 0.408553
O O1 0.804181 0.855434 0.826170
O O2 0.889150 0.909494 0.750524
O O3 0.892995 0.784374 0.872715
O O4 0.874338 0.011826 0.870366
O O5 0.250000 0.982046 0.750000
O O6 0.312450 0.872026 0.834967
O O7 0.247639 0.028506 0.876543
O O8 0.413248 0.376254 0.614014
O O9 0.369184 0.564159 0.647379
O O10 0.082038 0.815480 0.053411
O O11 0.000000 0.662898 0.037178
O O12 0.095365 0.638066 0.975656
O O13 0.260067 0.500000 0.500000
O O14 0.189691 0.347559 0.448470
O O15 0.306080 0.320783 0.436562
O O16 0.626976 0.500000 0.000000
#
# Coordination Sequence:
#
# PCOD9480265 Si02
#       7
#    16  16  16  16  16  16  16
#     4  10  21  39  65  99 133 167 206 256 330 392
#     4   8  16  34  54  90 132 165 193 241 314 387
#     4  10  23  41  64  94 133 167 216 260 316 384
#     4  12  27  45  68  91 121 173 226 272 323 371
#     4   9  18  33  60  95 130 164 205 252 318 381
#     4  10  21  42  64  97 133 166 213 268 320 395
#     4  11  22  40  66  97 131 170 208 265 322 389
#
# _framework density 20.498004000000002
#
# number of rings (size 3 to 8) (size 9 to 14) (size 15 to 20)
#    0.000    2.000    1.429    2.143    4.000    2.000 
#    0.000    3.571    0.000    0.000    0.000    0.000 
#    0.000    0.000    0.000    0.000    0.000    0.000 
#
# Total GULP energy -311978.084204 kJ/mol
# GULP energy per Si atom -5571.037218 kJ/mol
# Density = 2.045135 g / cm^3
# Si number density = 20.498004 Si / 1000 Ang^3
#
#
#
# Elastic Constant Matrix: (Units=GPa)
#
#
# Indices 1 2 3 4 5 6 
#
# 1 53.2473 1.9762 31.7659 0.0000 0.0000 0.0000
# 2 1.9762 53.3870 45.3910 0.0000 0.0000 0.0000
# 3 31.7659 45.3910 169.4390 0.0000 0.0000 0.0000
# 4 0.0000 0.0000 0.0000 19.2428 0.0000 0.0000
# 5 0.0000 0.0000 0.0000 0.0000 -313.4049 0.0000
# 6 0.0000 0.0000 0.0000 0.0000 0.0000 23.7504
#
#
#
# Elastic Compliance Matrix: (Units=1/GPa)
#
#
# Indices 1 2 3 4 5 6 
#
# 1 0.021619 0.003426 -0.004971 0.000000 0.000000 0.000000
# 2 0.003426 0.024799 -0.007286 0.000000 0.000000 0.000000
# 3 -0.004971 -0.007286 0.008785 0.000000 0.000000 0.000000
# 4 0.000000 0.000000 0.000000 0.051967 0.000000 0.000000
# 5 0.000000 0.000000 0.000000 0.000000 -0.003191 0.000000
# 6 0.000000 0.000000 0.000000 0.000000 0.000000 0.042104
#
#
# Mechanical properties :
#
#
# Convention : Reuss Voigt Hill
#
# Bulk Modulus (GPa) = 26.63676 48.25993 37.44835
# Shear Modulus (GPa) = 28.36738 -40.95297 -6.29279
#
# Velocity S-wave (km/s) = 3.72413 -4.47464 -1.75403
# Velocity P-wave (km/s) = 5.61384 1.76116 3.76919
#
# Compressibility (1/GPa) = 0.03754210
#
# Stress axis : x y z
#
# Youngs Moduli (GPa) = 46.25652 40.32456 113.82404
#
# Poissons Ratio (x) = -0.13815 0.56580
# Poissons Ratio (y) = -0.15848 0.82928
# Poissons Ratio (z) = 0.22993 0.29379
#
# Static dielectric constant tensor:
#      x y z
#    x 1.766000 0.000000 0.000000 
#    y 0.000000 1.711350 0.000000 
#    z 0.000000 0.000000 1.724350 
# 
# From -- ./inp_files/41511.got.cif
#   From: 2010.05.17/outbox.cif.g08.bks.cpg/sg64_21_cif.got.tgz:41511.got - 2010.06.03 16:29:19.
