data_PCOD9480668
_publ_section_title
;
Structure prediction by ZEFSAII (Michael W. Deem and Ramdas Pophale) SiO2 
 PCOD9480668
Probable space group: C M C A
;
_chemical_formula_sum "Si O2"
_cell_formula_units_Z 80
_cell_length_a 13.893066
_cell_length_b 10.825901
_cell_length_c 19.931194
_cell_angle_alpha 90.000000
_cell_angle_beta 90.000000
_cell_angle_gamma 90.000000
_cell_volume 2997.750379
_symmetry_space_group_name_H-M "C M C A"
_symmetry_group_IT_number 64
_symmetry_cell_setting 'orthorhombic'
loop_
_space_group_symop_operation_xyz
x,y,z
-x,1/2-y,1/2+z
x,-y,-z
-x,1/2+y,1/2-z
-x,-y,-z
x,1/2+y,1/2-z
-x,y,z
x,1/2-y,1/2+z
1/2+x,1/2+y,z
1/2-x,-y,1/2+z
1/2+x,1/2-y,-z
1/2-x,y,1/2-z
1/2-x,1/2-y,-z
1/2+x,y,1/2-z
1/2-x,1/2+y,z
1/2+x,-y,1/2+z
loop_
_atom_site_type_symbol
_atom_site_label
_atom_site_fract_x
_atom_site_fract_y
_atom_site_fract_z
Si Si1 0.856531 0.822287 0.780989
Si Si2 0.822567 0.185766 0.060281
Si Si3 0.218202 0.555524 0.897481
Si Si4 0.899725 0.913255 0.197479
Si Si5 0.000000 0.503462 0.900445
Si Si6 0.000000 0.773758 0.511616
O O1 0.750000 0.829411 0.750000
O O2 0.862212 0.810264 0.861718
O O3 0.901211 0.954844 0.766456
O O4 0.600581 0.703209 0.754144
O O5 0.777848 0.322508 0.056730
O O6 0.754378 0.067875 0.066108
O O7 0.908768 0.189760 0.007090
O O8 0.298447 0.584249 0.841429
O O9 0.108739 0.528689 0.874075
O O10 0.000000 0.907392 0.155822
O O11 0.000000 0.609756 0.959108
O O12 0.000000 0.357436 0.921470
#
# Coordination Sequence:
#
# PCOD9480668 Si02
#       6
#    16  16  16  16   8   8
#     4  11  22  39  60  87 133 172 215 254 304 379
#     4  10  22  38  63  93 131 164 209 262 314 374
#     4  10  22  41  63  93 128 166 211 266 312 376
#     4  11  24  39  61  93 131 174 211 258 314 373
#     4   9  20  44  69  94 120 166 219 261 318 387
#     4   9  20  40  71  96 118 166 219 259 321 386
#
# _framework density 26.686677
#
# number of rings (size 3 to 8) (size 9 to 14) (size 15 to 20)
#    0.000    1.800    2.000    1.200    9.800    0.800 
#    1.800    0.000    0.000    1.200    0.000    0.000 
#    0.000    0.000    0.000    0.000    0.000    0.000 
#
# Total GULP energy -223666.582664 kJ/mol
# GULP energy per Si atom -5591.664567 kJ/mol
# Density = 2.662594 g / cm^3
# Si number density = 26.686677 Si / 1000 Ang^3
#
#
#
# Elastic Constant Matrix: (Units=GPa)
#
#
# Indices 1 2 3 4 5 6 
#
# 1 253.0281 64.9692 31.5147 0.0000 0.0000 0.0000
# 2 64.9692 211.2863 26.4447 0.0000 0.0000 0.0000
# 3 31.5147 26.4447 55.3911 0.0000 0.0000 0.0000
# 4 0.0000 0.0000 0.0000 41.8847 0.0000 0.0000
# 5 0.0000 0.0000 0.0000 0.0000 -88.2382 0.0000
# 6 0.0000 0.0000 0.0000 0.0000 0.0000 157.6496
#
#
#
# Elastic Compliance Matrix: (Units=1/GPa)
#
#
# Indices 1 2 3 4 5 6 
#
# 1 0.004493 -0.001129 -0.002017 0.000000 0.000000 0.000000
# 2 -0.001129 0.005317 -0.001896 0.000000 0.000000 0.000000
# 3 -0.002017 -0.001896 0.020107 0.000000 0.000000 0.000000
# 4 0.000000 0.000000 0.000000 0.023875 0.000000 0.000000
# 5 0.000000 0.000000 0.000000 0.000000 -0.011333 0.000000
# 6 0.000000 0.000000 0.000000 0.000000 0.000000 0.006343
#
#
# Mechanical properties :
#
#
# Convention : Reuss Voigt Hill
#
# Bulk Modulus (GPa) = 50.42415 85.06253 67.74334
# Shear Modulus (GPa) = 76.33738 48.71102 62.52420
#
# Velocity S-wave (km/s) = 5.35417 4.27698 4.84560
# Velocity P-wave (km/s) = 7.56034 7.50558 7.53301
#
# Compressibility (1/GPa) = 0.01983177
#
# Stress axis : x y z
#
# Youngs Moduli (GPa) = 222.55208 188.05974 49.73512
#
# Poissons Ratio (x) = 0.21235 0.10033
# Poissons Ratio (y) = 0.25130 0.09431
# Poissons Ratio (z) = 0.44897 0.35660
#
# Static dielectric constant tensor:
#      x y z
#    x 2.057220 0.000000 0.000000 
#    y 0.000000 2.030930 0.000000 
#    z 0.000000 0.000000 2.252230 
# 
# From -- ./inp_files/52583.got.cif
#   From: 2010.05.17/outbox.cif.g08.bks.cpg/sg64_27_cif.got.tgz:52583.got - 2010.06.03 16:29:19.
