data_PCOD9480169
_publ_section_title
;
Structure prediction by ZEFSAII (Michael W. Deem and Ramdas Pophale) SiO2 
 PCOD9480169
Probable space group: C M C A
;
_chemical_formula_sum "Si O2"
_cell_formula_units_Z 80
_cell_length_a 17.570685
_cell_length_b 24.292177
_cell_length_c 8.236765
_cell_angle_alpha 90.000000
_cell_angle_beta 90.000000
_cell_angle_gamma 90.000000
_cell_volume 3515.699970
_symmetry_space_group_name_H-M "C M C A"
_symmetry_group_IT_number 64
_symmetry_cell_setting 'orthorhombic'
loop_
_space_group_symop_operation_xyz
x,y,z
-x,1/2-y,1/2+z
x,-y,-z
-x,1/2+y,1/2-z
-x,-y,-z
x,1/2+y,1/2-z
-x,y,z
x,1/2-y,1/2+z
1/2+x,1/2+y,z
1/2-x,-y,1/2+z
1/2+x,1/2-y,-z
1/2-x,y,1/2-z
1/2-x,1/2-y,-z
1/2+x,y,1/2-z
1/2-x,1/2+y,z
1/2+x,-y,1/2+z
loop_
_atom_site_type_symbol
_atom_site_label
_atom_site_fract_x
_atom_site_fract_y
_atom_site_fract_z
Si Si1 0.088913 0.074099 0.822827
Si Si2 0.089694 0.376115 0.681099
Si Si3 0.333992 0.526633 0.322747
Si Si4 0.909966 0.765002 0.990058
Si Si5 0.837615 0.822382 0.297687
O O1 0.138962 0.114101 0.710012
O O2 0.000000 0.083007 0.789325
O O3 0.111506 0.011905 0.786378
O O4 0.102947 0.093128 0.007739
O O5 0.136872 0.410810 0.810394
O O6 0.108084 0.312550 0.643573
O O7 0.000000 0.379003 0.718931
O O8 0.335400 0.500000 0.500000
O O9 0.250000 0.523656 0.250000
O O10 0.860547 0.711055 0.957062
O O11 0.000000 0.753105 0.983969
O O12 0.889195 0.793436 0.159274
O O13 0.750000 0.816311 0.250000
#
# Coordination Sequence:
#
# PCOD9480169 Si02
#       5
#    16  16  16  16  16
#     4  10  21  40  63  85 116 158 199 241 298 365
#     4   9  20  39  61  84 116 157 196 238 293 356
#     4  12  25  39  59  87 119 153 194 246 300 354
#     4  10  21  39  61  87 121 161 202 243 297 361
#     4  11  22  37  60  90 122 157 201 251 301 352
#
# _framework density 22.755068999999999
#
# number of rings (size 3 to 8) (size 9 to 14) (size 15 to 20)
#    0.000    1.600    0.000    6.600    0.000    7.200 
#    0.000    2.000    0.000    0.000    0.000    0.000 
#    0.000    0.000    0.000    0.000    0.000    0.000 
#
# Total GULP energy -223870.808965 kJ/mol
# GULP energy per Si atom -5596.770224 kJ/mol
# Density = 2.270328 g / cm^3
# Si number density = 22.755069 Si / 1000 Ang^3
#
#
#
# Elastic Constant Matrix: (Units=GPa)
#
#
# Indices 1 2 3 4 5 6 
#
# 1 61.0946 9.7042 9.4505 0.0000 0.0000 0.0000
# 2 9.7042 84.1196 5.0143 0.0000 0.0000 0.0000
# 3 9.4505 5.0143 44.7400 0.0000 0.0000 0.0000
# 4 0.0000 0.0000 0.0000 27.8068 0.0000 0.0000
# 5 0.0000 0.0000 0.0000 0.0000 1.7258 0.0000
# 6 0.0000 0.0000 0.0000 0.0000 0.0000 2.3868
#
#
#
# Elastic Compliance Matrix: (Units=1/GPa)
#
#
# Indices 1 2 3 4 5 6 
#
# 1 0.017181 -0.001778 -0.003430 0.000000 0.000000 0.000000
# 2 -0.001778 0.012152 -0.000986 0.000000 0.000000 0.000000
# 3 -0.003430 -0.000986 0.023186 0.000000 0.000000 0.000000
# 4 0.000000 0.000000 0.000000 0.035962 0.000000 0.000000
# 5 0.000000 0.000000 0.000000 0.000000 0.579446 0.000000
# 6 0.000000 0.000000 0.000000 0.000000 0.000000 0.418963
#
#
# Mechanical properties :
#
#
# Convention : Reuss Voigt Hill
#
# Bulk Modulus (GPa) = 24.91827 26.47691 25.69759
# Shear Modulus (GPa) = 4.49376 17.43624 10.96500
#
# Velocity S-wave (km/s) = 1.40681 2.77114 2.19754
# Velocity P-wave (km/s) = 3.68961 4.67972 4.21385
#
# Compressibility (1/GPa) = 0.04013120
#
# Stress axis : x y z
#
# Youngs Moduli (GPa) = 58.20392 82.29304 43.12869
#
# Poissons Ratio (x) = 0.14628 0.14793
# Poissons Ratio (y) = 0.10346 0.04254
# Poissons Ratio (z) = 0.19964 0.08118
#
# Static dielectric constant tensor:
#      x y z
#    x 1.761900 0.000000 0.000000 
#    y 0.000000 1.831730 0.000000 
#    z 0.000000 0.000000 1.886680 
# 
# From -- ./inp_files/7089.got.cif
#   From: 2010.05.17/outbox.cif.g08.bks.cpg/sg64_4_cif.got.tgz:7089.got - 2010.06.03 16:29:19.
