data_PCOD9480524
_publ_section_title
;
Structure prediction by ZEFSAII (Michael W. Deem and Ramdas Pophale) SiO2 
 PCOD9480524
Probable space group: C M C A
;
_chemical_formula_sum "Si O2"
_cell_formula_units_Z 88
_cell_length_a 22.579038
_cell_length_b 5.339408
_cell_length_c 30.516681
_cell_angle_alpha 90.000000
_cell_angle_beta 90.000000
_cell_angle_gamma 90.000000
_cell_volume 3679.051272
_symmetry_space_group_name_H-M "C M C A"
_symmetry_group_IT_number 64
_symmetry_cell_setting 'orthorhombic'
loop_
_space_group_symop_operation_xyz
x,y,z
-x,1/2-y,1/2+z
x,-y,-z
-x,1/2+y,1/2-z
-x,-y,-z
x,1/2+y,1/2-z
-x,y,z
x,1/2-y,1/2+z
1/2+x,1/2+y,z
1/2-x,-y,1/2+z
1/2+x,1/2-y,-z
1/2-x,y,1/2-z
1/2-x,1/2-y,-z
1/2+x,y,1/2-z
1/2-x,1/2+y,z
1/2+x,-y,1/2+z
loop_
_atom_site_type_symbol
_atom_site_label
_atom_site_fract_x
_atom_site_fract_y
_atom_site_fract_z
Si Si1 0.111897 0.283216 0.652124
Si Si2 0.229073 0.554319 0.300983
Si Si3 0.111595 0.718488 0.096745
Si Si4 0.066454 0.422226 0.234927
Si Si5 0.500000 0.747588 0.469889
Si Si6 0.682830 0.748248 0.981408
O O1 0.167929 0.318654 0.684646
O O2 0.101496 0.549926 0.629634
O O3 0.064191 0.183079 0.686360
O O4 0.116925 0.056669 0.617789
O O5 0.250000 0.522792 0.250000
O O6 0.227722 0.271779 0.319106
O O7 0.173029 0.760433 0.070117
O O8 0.057694 0.734356 0.061901
O O9 0.095075 0.697842 0.236755
O O10 0.000000 0.467062 0.252070
O O11 0.500000 0.500000 0.500000
O O12 0.500000 0.000000 0.500000
O O13 0.653649 0.500000 0.000000
O O14 0.750000 0.750000 0.000000
O O15 0.654808 0.000000 0.000000
#
# Coordination Sequence:
#
# PCOD9480524 Si02
#       6
#    16  16  16  16   8  16
#     4  12  26  43  70 101 146 175 231 297 355 402
#     4  10  23  43  67  92 132 186 238 282 344 418
#     4  12  26  44  70 110 137 181 228 291 365 405
#     4  10  23  41  67  96 131 185 235 270 331 409
#     4  12  26  48  80 106 146 188 234 280 356 464
#     4  10  21  43  68  90 127 176 220 274 329 422
#
# _framework density 23.919212000000002
#
# number of rings (size 3 to 8) (size 9 to 14) (size 15 to 20)
#    0.000    1.091    0.000    5.455    7.636    0.000 
#   19.636    0.000    0.000    0.000    0.000    0.000 
#    0.000    0.000    0.000    0.000    0.000    0.000 
#
# Total GULP energy -245416.229403 kJ/mol
# GULP energy per Si atom -5577.641577 kJ/mol
# Density = 2.386477 g / cm^3
# Si number density = 23.919212 Si / 1000 Ang^3
#
#
#
# Elastic Constant Matrix: (Units=GPa)
#
#
# Indices 1 2 3 4 5 6 
#
# 1 73.2385 -23.7209 26.8707 0.0000 0.0000 0.0000
# 2 -23.7209 136.9093 10.6510 0.0000 0.0000 0.0000
# 3 26.8707 10.6510 92.2383 0.0000 0.0000 0.0000
# 4 0.0000 0.0000 0.0000 58.1783 0.0000 0.0000
# 5 0.0000 0.0000 0.0000 0.0000 42.5790 0.0000
# 6 0.0000 0.0000 0.0000 0.0000 0.0000 -4.5322
#
#
#
# Elastic Compliance Matrix: (Units=1/GPa)
#
#
# Indices 1 2 3 4 5 6 
#
# 1 0.016637 0.003289 -0.005226 0.000000 0.000000 0.000000
# 2 0.003289 0.008021 -0.001884 0.000000 0.000000 0.000000
# 3 -0.005226 -0.001884 0.012582 0.000000 0.000000 0.000000
# 4 0.000000 0.000000 0.000000 0.017189 0.000000 0.000000
# 5 0.000000 0.000000 0.000000 0.000000 0.023486 0.000000
# 6 0.000000 0.000000 0.000000 0.000000 0.000000 -0.220642
#
#
# Mechanical properties :
#
#
# Convention : Reuss Voigt Hill
#
# Bulk Modulus (GPa) = 33.78866 36.66531 35.22698
# Shear Modulus (GPa) = -39.92969 38.48403 -0.72283
#
# Velocity S-wave (km/s) = -4.09021 4.01548 -0.55032
# Velocity P-wave (km/s) = 2.85475 6.07132 3.78889
#
# Compressibility (1/GPa) = 0.02959573
#
# Stress axis : x y z
#
# Youngs Moduli (GPa) = 60.10752 124.67943 79.48099
#
# Poissons Ratio (x) = -0.41008 0.41540
# Poissons Ratio (y) = -0.19770 0.14977
# Poissons Ratio (z) = 0.31415 0.23494
#
# Static dielectric constant tensor:
#      x y z
#    x 1.938810 0.000000 0.000000 
#    y 0.000000 1.987390 0.000000 
#    z 0.000000 0.000000 1.950090 
# 
# From -- ./inp_files/53889.got.cif
#   From: 2010.05.17/outbox.cif.g08.bks.cpg/sg64_27_cif.got.tgz:53889.got - 2010.06.03 16:29:19.
