data_PCOD9480188
_publ_section_title
;
Structure prediction by ZEFSAII (Michael W. Deem and Ramdas Pophale) SiO2 
 PCOD9480188
Probable space group: C M C A
;
_chemical_formula_sum "Si O2"
_cell_formula_units_Z 104
_cell_length_a 19.834385
_cell_length_b 9.618924
_cell_length_c 28.137751
_cell_angle_alpha 90.000000
_cell_angle_beta 90.000000
_cell_angle_gamma 90.000000
_cell_volume 5368.273259
_symmetry_space_group_name_H-M "C M C A"
_symmetry_group_IT_number 64
_symmetry_cell_setting 'orthorhombic'
loop_
_space_group_symop_operation_xyz
x,y,z
-x,1/2-y,1/2+z
x,-y,-z
-x,1/2+y,1/2-z
-x,-y,-z
x,1/2+y,1/2-z
-x,y,z
x,1/2-y,1/2+z
1/2+x,1/2+y,z
1/2-x,-y,1/2+z
1/2+x,1/2-y,-z
1/2-x,y,1/2-z
1/2-x,1/2-y,-z
1/2+x,y,1/2-z
1/2-x,1/2+y,z
1/2+x,-y,1/2+z
loop_
_atom_site_type_symbol
_atom_site_label
_atom_site_fract_x
_atom_site_fract_y
_atom_site_fract_z
Si Si1 0.923640 0.464839 0.713331
Si Si2 0.197225 0.745014 0.939314
Si Si3 0.282768 0.163285 0.145737
Si Si4 0.241420 0.000000 0.000000
Si Si5 0.218485 0.578067 0.700229
Si Si6 0.423970 0.775528 0.134866
Si Si7 0.075402 0.916305 0.676598
O O1 0.861941 0.567980 0.704520
O O2 0.916315 0.345407 0.673891
O O3 0.916059 0.405092 0.766599
O O4 0.000000 0.523117 0.710572
O O5 0.259156 0.775676 0.903794
O O6 0.212597 0.601194 0.966902
O O7 0.131770 0.733720 0.905981
O O8 0.197333 0.883284 0.972304
O O9 0.259288 0.267869 0.187060
O O10 0.362798 0.152029 0.149441
O O11 0.247021 0.019077 0.158434
O O12 0.250000 0.533202 0.750000
O O13 0.500000 0.765812 0.115103
O O14 0.419364 0.920865 0.162938
O O15 0.000000 0.868243 0.664008
#
# Coordination Sequence:
#
# PCOD9480188 Si02
#       7
#    16  16  16   8  16  16  16
#     4  10  22  36  54  82 124 171 206 239 279 329
#     4  11  22  42  65  91 116 148 195 250 316 377
#     4  12  24  37  61  86 119 160 202 251 294 347
#     4  10  24  42  68  90 112 142 188 256 326 386
#     4  12  24  35  54  86 124 162 206 246 286 329
#     4  10  21  39  62  88 123 163 201 245 295 351
#     4  10  22  36  55  86 126 170 211 242 279 335
#
# _framework density 19.373083000000001
#
# number of rings (size 3 to 8) (size 9 to 14) (size 15 to 20)
#    0.000    1.231    3.077    3.231    2.154    0.615 
#    0.000    0.769    0.000    3.692    0.000    0.000 
#    0.000    0.000    0.000    0.000    0.000    0.000 
#
# Total GULP energy -290474.304507 kJ/mol
# GULP energy per Si atom -5586.044317 kJ/mol
# Density = 1.932899 g / cm^3
# Si number density = 19.373083 Si / 1000 Ang^3
#
#
#
# Elastic Constant Matrix: (Units=GPa)
#
#
# Indices 1 2 3 4 5 6 
#
# 1 117.6534 22.3177 39.7213 0.0000 0.0000 0.0000
# 2 22.3177 81.4414 28.7373 0.0000 0.0000 0.0000
# 3 39.7213 28.7373 82.2012 0.0000 0.0000 0.0000
# 4 0.0000 0.0000 0.0000 26.9940 0.0000 0.0000
# 5 0.0000 0.0000 0.0000 0.0000 23.3853 0.0000
# 6 0.0000 0.0000 0.0000 0.0000 0.0000 20.6839
#
#
#
# Elastic Compliance Matrix: (Units=1/GPa)
#
#
# Indices 1 2 3 4 5 6 
#
# 1 0.010260 -0.001212 -0.004534 0.000000 0.000000 0.000000
# 2 -0.001212 0.014150 -0.004361 0.000000 0.000000 0.000000
# 3 -0.004534 -0.004361 0.015881 0.000000 0.000000 0.000000
# 4 0.000000 0.000000 0.000000 0.037045 0.000000 0.000000
# 5 0.000000 0.000000 0.000000 0.000000 0.042762 0.000000
# 6 0.000000 0.000000 0.000000 0.000000 0.000000 0.048347
#
#
# Mechanical properties :
#
#
# Convention : Reuss Voigt Hill
#
# Bulk Modulus (GPa) = 49.80942 51.42762 50.61852
# Shear Modulus (GPa) = 25.59491 26.91398 26.25444
#
# Velocity S-wave (km/s) = 3.63872 3.73130 3.68530
# Velocity P-wave (km/s) = 6.58940 6.72064 6.65534
#
# Compressibility (1/GPa) = 0.02007652
#
# Stress axis : x y z
#
# Youngs Moduli (GPa) = 97.46360 70.67287 62.96819
#
# Poissons Ratio (x) = 0.08563 0.28552
# Poissons Ratio (y) = 0.11809 0.27462
# Poissons Ratio (z) = 0.44194 0.30822
#
# Static dielectric constant tensor:
#      x y z
#    x 1.690380 0.000000 0.000000 
#    y 0.000000 1.692690 0.000000 
#    z 0.000000 0.000000 1.669410 
# 
# From -- ./inp_files/53777.got.cif
#   From: 2010.05.17/outbox.cif.g08.bks.cpg/sg64_27_cif.got.tgz:53777.got - 2010.06.03 16:29:19.
