data_PCOD9480588
_publ_section_title
;
Structure prediction by ZEFSAII (Michael W. Deem and Ramdas Pophale) SiO2 
 PCOD9480588
Probable space group: C M C A
;
_chemical_formula_sum "Si O2"
_cell_formula_units_Z 112
_cell_length_a 21.817068
_cell_length_b 13.584550
_cell_length_c 20.711185
_cell_angle_alpha 90.000000
_cell_angle_beta 90.000000
_cell_angle_gamma 90.000000
_cell_volume 6138.278513
_symmetry_space_group_name_H-M "C M C A"
_symmetry_group_IT_number 64
_symmetry_cell_setting 'orthorhombic'
loop_
_space_group_symop_operation_xyz
x,y,z
-x,1/2-y,1/2+z
x,-y,-z
-x,1/2+y,1/2-z
-x,-y,-z
x,1/2+y,1/2-z
-x,y,z
x,1/2-y,1/2+z
1/2+x,1/2+y,z
1/2-x,-y,1/2+z
1/2+x,1/2-y,-z
1/2-x,y,1/2-z
1/2-x,1/2-y,-z
1/2+x,y,1/2-z
1/2-x,1/2+y,z
1/2+x,-y,1/2+z
loop_
_atom_site_type_symbol
_atom_site_label
_atom_site_fract_x
_atom_site_fract_y
_atom_site_fract_z
Si Si1 0.644568 0.720615 0.806350
Si Si2 0.255340 0.843756 0.654601
Si Si3 0.071977 0.896713 0.304289
Si Si4 0.674383 0.602610 0.467888
Si Si5 0.161119 0.822273 0.395914
Si Si6 0.735054 0.066574 0.676072
Si Si7 0.072231 0.397609 0.864353
O O1 0.702957 0.795264 0.799484
O O2 0.612751 0.661205 0.748164
O O3 0.678009 0.633271 0.846455
O O4 0.594381 0.791963 0.837836
O O5 0.220634 0.857551 0.585875
O O6 0.311900 0.773084 0.639587
O O7 0.275946 0.951174 0.675650
O O8 0.093605 0.848766 0.371719
O O9 0.000000 0.884898 0.291606
O O10 0.085470 0.013511 0.313375
O O11 0.694683 0.500000 0.500000
O O12 0.666103 0.677158 0.527349
O O13 0.611634 0.583776 0.428676
O O14 0.206485 0.906772 0.367351
O O15 0.750000 0.095577 0.750000
O O16 0.000000 0.399360 0.876278
#
# Coordination Sequence:
#
# PCOD9480588 Si02
#       7
#    16  16  16  16  16  16  16
#     4  10  22  37  55  82 118 149 183 233 287 344
#     4  10  23  35  59  84 117 154 185 232 292 356
#     4  11  22  36  55  81 113 148 193 239 278 333
#     4  11  19  37  58  83 118 145 193 242 286 341
#     4  11  21  37  54  85 115 151 186 236 287 340
#     4  11  21  34  56  87 114 146 186 230 287 349
#     4  10  22  39  59  83 111 155 197 238 291 336
#
# _framework density 18.246158999999999
#
# number of rings (size 3 to 8) (size 9 to 14) (size 15 to 20)
#    0.000    1.429    4.286    1.714    2.000    0.857 
#    0.000    0.000    0.000    0.857    0.000    1.000 
#    0.000    0.000    0.000    0.000    0.000    0.000 
#
# Total GULP energy -312211.034307 kJ/mol
# GULP energy per Si atom -5575.197041 kJ/mol
# Density = 1.820463 g / cm^3
# Si number density = 18.246159 Si / 1000 Ang^3
#
#
#
# Elastic Constant Matrix: (Units=GPa)
#
#
# Indices 1 2 3 4 5 6 
#
# 1 75.1072 37.0126 20.7707 0.0000 0.0000 0.0000
# 2 37.0126 117.7676 11.7120 0.0000 0.0000 0.0000
# 3 20.7707 11.7120 70.9208 0.0000 0.0000 0.0000
# 4 0.0000 0.0000 0.0000 29.2002 0.0000 0.0000
# 5 0.0000 0.0000 0.0000 0.0000 19.7227 0.0000
# 6 0.0000 0.0000 0.0000 0.0000 0.0000 26.3588
#
#
#
# Elastic Compliance Matrix: (Units=1/GPa)
#
#
# Indices 1 2 3 4 5 6 
#
# 1 0.016867 -0.004890 -0.004132 0.000000 0.000000 0.000000
# 2 -0.004890 0.010051 -0.000228 0.000000 0.000000 0.000000
# 3 -0.004132 -0.000228 0.015348 0.000000 0.000000 0.000000
# 4 0.000000 0.000000 0.000000 0.034246 0.000000 0.000000
# 5 0.000000 0.000000 0.000000 0.000000 0.050703 0.000000
# 6 0.000000 0.000000 0.000000 0.000000 0.000000 0.037938
#
#
# Mechanical properties :
#
#
# Convention : Reuss Voigt Hill
#
# Bulk Modulus (GPa) = 42.07730 44.75401 43.41565
# Shear Modulus (GPa) = 26.09943 28.00969 27.05456
#
# Velocity S-wave (km/s) = 3.78618 3.92229 3.85483
# Velocity P-wave (km/s) = 6.49804 6.71518 6.60750
#
# Compressibility (1/GPa) = 0.02376578
#
# Stress axis : x y z
#
# Youngs Moduli (GPa) = 59.28783 99.49447 65.15487
#
# Poissons Ratio (x) = 0.48653 0.26924
# Poissons Ratio (y) = 0.28992 0.01483
# Poissons Ratio (z) = 0.24499 0.02265
#
# Static dielectric constant tensor:
#      x y z
#    x 1.615360 0.000000 0.000000 
#    y 0.000000 1.664380 0.000000 
#    z 0.000000 0.000000 1.650860 
# 
# From -- ./inp_files/41510.got.cif
#   From: 2010.05.17/outbox.cif.g08.bks.cpg/sg64_21_cif.got.tgz:41510.got - 2010.06.03 16:29:19.
