data_PCOD9480228
_publ_section_title
;
Structure prediction by ZEFSAII (Michael W. Deem and Ramdas Pophale) SiO2 
 PCOD9480228
Probable space group: C M C A
;
_chemical_formula_sum "Si O2"
_cell_formula_units_Z 96
_cell_length_a 20.593694
_cell_length_b 19.114786
_cell_length_c 12.216607
_cell_angle_alpha 90.000000
_cell_angle_beta 90.000000
_cell_angle_gamma 90.000000
_cell_volume 4808.994703
_symmetry_space_group_name_H-M "C M C A"
_symmetry_group_IT_number 64
_symmetry_cell_setting 'orthorhombic'
loop_
_space_group_symop_operation_xyz
x,y,z
-x,1/2-y,1/2+z
x,-y,-z
-x,1/2+y,1/2-z
-x,-y,-z
x,1/2+y,1/2-z
-x,y,z
x,1/2-y,1/2+z
1/2+x,1/2+y,z
1/2-x,-y,1/2+z
1/2+x,1/2-y,-z
1/2-x,y,1/2-z
1/2-x,1/2-y,-z
1/2+x,y,1/2-z
1/2-x,1/2+y,z
1/2+x,-y,1/2+z
loop_
_atom_site_type_symbol
_atom_site_label
_atom_site_fract_x
_atom_site_fract_y
_atom_site_fract_z
Si Si1 0.633613 0.153852 0.923691
Si Si2 0.071772 0.651645 0.143530
Si Si3 0.678648 0.785417 0.696095
Si Si4 0.274022 0.390493 0.976502
Si Si5 0.801338 0.479300 0.329460
Si Si6 0.112500 0.503286 0.875914
O O1 0.648575 0.210614 0.832215
O O2 0.596272 0.085707 0.877206
O O3 0.592315 0.182230 0.025678
O O4 0.704353 0.132065 0.974997
O O5 0.128629 0.672672 0.227174
O O6 0.070939 0.567360 0.124172
O O7 0.000000 0.674089 0.178410
O O8 0.750000 0.779962 0.750000
O O9 0.691266 0.826642 0.582876
O O10 0.268998 0.452195 0.885226
O O11 0.315725 0.426194 0.073205
O O12 0.750000 0.442010 0.250000
O O13 0.853627 0.503225 0.242308
O O14 0.143897 0.500000 0.000000
#
# Coordination Sequence:
#
# PCOD9480228 Si02
#       6
#    16  16  16  16  16  16
#     4  11  24  38  61 100 130 167 215 272 341 392
#     4  11  25  46  68  91 129 181 226 271 336 403
#     4  12  25  41  66  97 138 174 219 276 340 405
#     4  11  22  35  59  96 138 169 205 271 337 394
#     4  11  19  31  59  92 131 169 210 261 328 389
#     4  10  21  39  63  94 125 169 221 275 321 383
#
# _framework density 19.962593999999999
#
# number of rings (size 3 to 8) (size 9 to 14) (size 15 to 20)
#    0.000    1.000    5.000    3.000    4.667    3.667 
#    0.000    0.000    0.000    2.000    0.000    0.000 
#    0.000    0.000    0.000    0.000    0.000    0.000 
#
# Total GULP energy -267218.462926 kJ/mol
# GULP energy per Si atom -5567.051311 kJ/mol
# Density = 1.991716 g / cm^3
# Si number density = 19.962594 Si / 1000 Ang^3
#
#
#
# Elastic Constant Matrix: (Units=GPa)
#
#
# Indices 1 2 3 4 5 6 
#
# 1 76.4770 15.2238 25.4810 0.0000 0.0000 0.0000
# 2 15.2238 92.7374 27.6354 0.0000 0.0000 0.0000
# 3 25.4810 27.6354 96.8224 0.0000 0.0000 0.0000
# 4 0.0000 0.0000 0.0000 29.7905 0.0000 0.0000
# 5 0.0000 0.0000 0.0000 0.0000 2.8875 0.0000
# 6 0.0000 0.0000 0.0000 0.0000 0.0000 3.1669
#
#
#
# Elastic Compliance Matrix: (Units=1/GPa)
#
#
# Indices 1 2 3 4 5 6 
#
# 1 0.014487 -0.001358 -0.003425 0.000000 0.000000 0.000000
# 2 -0.001358 0.011913 -0.003043 0.000000 0.000000 0.000000
# 3 -0.003425 -0.003043 0.012098 0.000000 0.000000 0.000000
# 4 0.000000 0.000000 0.000000 0.033568 0.000000 0.000000
# 5 0.000000 0.000000 0.000000 0.000000 0.346326 0.000000
# 6 0.000000 0.000000 0.000000 0.000000 0.000000 0.315770
#
#
# Mechanical properties :
#
#
# Convention : Reuss Voigt Hill
#
# Bulk Modulus (GPa) = 43.76964 44.74636 44.25800
# Shear Modulus (GPa) = 6.60128 20.34873 13.47500
#
# Velocity S-wave (km/s) = 1.82044 3.19618 2.60092
# Velocity P-wave (km/s) = 5.13732 6.00704 5.58912
#
# Compressibility (1/GPa) = 0.02284688
#
# Stress axis : x y z
#
# Youngs Moduli (GPa) = 69.02609 83.94348 82.65745
#
# Poissons Ratio (x) = 0.11396 0.28312
# Poissons Ratio (y) = 0.09371 0.25152
# Poissons Ratio (z) = 0.23643 0.25543
#
# Static dielectric constant tensor:
#      x y z
#    x 1.753040 0.000000 0.000000 
#    y 0.000000 1.761880 0.000000 
#    z 0.000000 0.000000 1.763380 
# 
# From -- ./inp_files/17357.got.cif
#   From: 2010.05.17/outbox.cif.g08.bks.cpg/sg64_9_cif.got.tgz:17357.got - 2010.06.03 16:29:19.
