data_PCOD9480547
_publ_section_title
;
Structure prediction by ZEFSAII (Michael W. Deem and Ramdas Pophale) SiO2 
 PCOD9480547
Probable space group: C M C A
;
_chemical_formula_sum "Si O2"
_cell_formula_units_Z 116
_cell_length_a 24.470291
_cell_length_b 26.704929
_cell_length_c 9.095386
_cell_angle_alpha 90.000000
_cell_angle_beta 90.000000
_cell_angle_gamma 90.000000
_cell_volume 5943.629048
_symmetry_space_group_name_H-M "C M C A"
_symmetry_group_IT_number 64
_symmetry_cell_setting 'orthorhombic'
loop_
_space_group_symop_operation_xyz
x,y,z
-x,1/2-y,1/2+z
x,-y,-z
-x,1/2+y,1/2-z
-x,-y,-z
x,1/2+y,1/2-z
-x,y,z
x,1/2-y,1/2+z
1/2+x,1/2+y,z
1/2-x,-y,1/2+z
1/2+x,1/2-y,-z
1/2-x,y,1/2-z
1/2-x,1/2-y,-z
1/2+x,y,1/2-z
1/2-x,1/2+y,z
1/2+x,-y,1/2+z
loop_
_atom_site_type_symbol
_atom_site_label
_atom_site_fract_x
_atom_site_fract_y
_atom_site_fract_z
Si Si1 0.000000 0.500000 0.500000
Si Si2 0.299328 0.538178 0.365811
Si Si3 0.108241 0.998179 0.156395
Si Si4 0.880906 0.791387 0.784892
Si Si5 0.646164 0.364140 0.540176
Si Si6 0.936386 0.204553 0.901099
Si Si7 0.713597 0.222322 0.878598
Si Si8 0.934902 0.604461 0.791686
O O1 0.049226 0.520704 0.389835
O O2 0.290977 0.500000 0.500000
O O3 0.250000 0.536388 0.250000
O O4 0.355270 0.523690 0.279856
O O5 0.309258 0.593336 0.430242
O O6 0.092666 0.942329 0.209300
O O7 0.139713 0.000000 0.000000
O O8 0.875693 0.841807 0.692653
O O9 0.917493 0.752114 0.693741
O O10 0.822467 0.764816 0.800465
O O11 0.903396 0.798383 0.948064
O O12 0.673873 0.318031 0.452981
O O13 0.596893 0.386023 0.442821
O O14 0.928805 0.154505 0.805447
O O15 0.000000 0.209617 0.937024
O O16 0.750000 0.198199 0.750000
O O17 0.750000 0.250000 0.000000
O O18 0.000000 0.594710 0.808113
#
# Coordination Sequence:
#
# PCOD9480547 Si02
#       8
#     4  16  16  16  16  16  16  16
#     4   8  20  40  78 104 132 184 230 286 360 416
#     4  12  28  50  72 104 140 184 233 295 360 420
#     4  10  21  46  72  98 140 179 229 282 349 424
#     4  12  23  43  63  99 137 177 229 276 334 409
#     4  12  27  45  69 103 138 176 233 283 343 408
#     4  11  23  39  68  96 140 180 222 276 343 406
#     4  12  24  44  68  93 129 178 227 278 330 398
#     4  11  22  44  69 103 136 179 227 281 344 419
#
# _framework density 19.516696
#
# number of rings (size 3 to 8) (size 9 to 14) (size 15 to 20)
#    0.414    0.276    6.207    0.828    3.862    2.759 
#    3.724    1.034    0.000    0.000    0.000    0.000 
#    0.000    0.000    0.000    0.000    0.000    0.000 
#
# Total GULP energy -323451.189795 kJ/mol
# GULP energy per Si atom -5576.744652 kJ/mol
# Density = 1.947228 g / cm^3
# Si number density = 19.516696 Si / 1000 Ang^3
#
#
#
# Elastic Constant Matrix: (Units=GPa)
#
#
# Indices 1 2 3 4 5 6 
#
# 1 75.5397 12.7992 31.9014 0.0000 0.0000 0.0000
# 2 12.7992 68.0202 19.6340 0.0000 0.0000 0.0000
# 3 31.9014 19.6340 95.6922 0.0000 0.0000 0.0000
# 4 0.0000 0.0000 0.0000 29.3139 0.0000 0.0000
# 5 0.0000 0.0000 0.0000 0.0000 28.4863 0.0000
# 6 0.0000 0.0000 0.0000 0.0000 0.0000 15.4026
#
#
#
# Elastic Compliance Matrix: (Units=1/GPa)
#
#
# Indices 1 2 3 4 5 6 
#
# 1 0.015554 -0.001520 -0.004873 0.000000 0.000000 0.000000
# 2 -0.001520 0.015776 -0.002730 0.000000 0.000000 0.000000
# 3 -0.004873 -0.002730 0.012635 0.000000 0.000000 0.000000
# 4 0.000000 0.000000 0.000000 0.034113 0.000000 0.000000
# 5 0.000000 0.000000 0.000000 0.000000 0.035105 0.000000
# 6 0.000000 0.000000 0.000000 0.000000 0.000000 0.064924
#
#
# Mechanical properties :
#
#
# Convention : Reuss Voigt Hill
#
# Bulk Modulus (GPa) = 38.88422 40.88014 39.88218
# Shear Modulus (GPa) = 24.39908 26.30173 25.35041
#
# Velocity S-wave (km/s) = 3.53960 3.67502 3.60795
# Velocity P-wave (km/s) = 6.05573 6.24495 6.15107
#
# Compressibility (1/GPa) = 0.02571737
#
# Stress axis : x y z
#
# Youngs Moduli (GPa) = 64.29344 63.38914 79.14540
#
# Poissons Ratio (x) = 0.09635 0.38570
# Poissons Ratio (y) = 0.09773 0.21607
# Poissons Ratio (z) = 0.31332 0.17306
#
# Static dielectric constant tensor:
#      x y z
#    x 1.684880 0.000000 0.000000 
#    y 0.000000 1.672990 0.000000 
#    z 0.000000 0.000000 1.701900 
# 
# From -- ./inp_files/10637.got.cif
#   From: 2010.05.17/outbox.cif.g08.bks.cpg/sg64_6_cif.got.tgz:10637.got - 2010.06.03 16:29:19.
