data_PCOD9480312
_publ_section_title
;
Structure prediction by ZEFSAII (Michael W. Deem and Ramdas Pophale) SiO2 
 PCOD9480312
Probable space group: C M C A
;
_chemical_formula_sum "Si O2"
_cell_formula_units_Z 80
_cell_length_a 15.262808
_cell_length_b 27.702701
_cell_length_c 8.372014
_cell_angle_alpha 90.000000
_cell_angle_beta 90.000000
_cell_angle_gamma 90.000000
_cell_volume 3539.863385
_symmetry_space_group_name_H-M "C M C A"
_symmetry_group_IT_number 64
_symmetry_cell_setting 'orthorhombic'
loop_
_space_group_symop_operation_xyz
x,y,z
-x,1/2-y,1/2+z
x,-y,-z
-x,1/2+y,1/2-z
-x,-y,-z
x,1/2+y,1/2-z
-x,y,z
x,1/2-y,1/2+z
1/2+x,1/2+y,z
1/2-x,-y,1/2+z
1/2+x,1/2-y,-z
1/2-x,y,1/2-z
1/2-x,1/2-y,-z
1/2+x,y,1/2-z
1/2-x,1/2+y,z
1/2+x,-y,1/2+z
loop_
_atom_site_type_symbol
_atom_site_label
_atom_site_fract_x
_atom_site_fract_y
_atom_site_fract_z
Si Si1 0.226874 0.048787 0.436267
Si Si2 0.596155 0.590824 0.984254
Si Si3 0.898766 0.868860 0.654494
Si Si4 0.601683 0.231828 0.017024
Si Si5 0.346352 0.318348 0.194909
O O1 0.250000 0.042313 0.250000
O O2 0.318095 0.057794 0.529178
O O3 0.164840 0.095614 0.442502
O O4 0.183812 0.000000 0.500000
O O5 0.500000 0.567517 0.973031
O O6 0.604170 0.614826 0.161059
O O7 0.603166 0.634443 0.859981
O O8 0.873496 0.813207 0.630513
O O9 0.000000 0.873170 0.600706
O O10 0.500000 0.244758 0.044988
O O11 0.610923 0.210620 0.840560
O O12 0.656853 0.279453 0.052033
O O13 0.250000 0.332404 0.250000
#
# Coordination Sequence:
#
# PCOD9480312 Si02
#       5
#    16  16  16  16  16
#     4  10  22  39  60  86 116 150 194 248 302 354
#     4  10  21  40  62  84 117 159 198 239 293 353
#     4   9  20  39  62  87 118 157 198 242 293 349
#     4  11  22  37  57  84 118 155 194 235 285 345
#     4  12  24  37  57  87 120 155 197 241 288 342
#
# _framework density 22.599743
#
# number of rings (size 3 to 8) (size 9 to 14) (size 15 to 20)
#    0.000    1.600    0.000    4.800    0.000    7.200 
#    0.000    0.000    0.000    0.000    0.000    0.000 
#    0.000    0.000    0.000    0.000    0.000    0.000 
#
# Total GULP energy -223776.279712 kJ/mol
# GULP energy per Si atom -5594.406993 kJ/mol
# Density = 2.254830 g / cm^3
# Si number density = 22.599743 Si / 1000 Ang^3
#
#
#
# Elastic Constant Matrix: (Units=GPa)
#
#
# Indices 1 2 3 4 5 6 
#
# 1 93.1734 21.2761 4.5282 0.0000 0.0000 0.0000
# 2 21.2761 56.9027 1.7826 0.0000 0.0000 0.0000
# 3 4.5282 1.7826 36.7779 0.0000 0.0000 0.0000
# 4 0.0000 0.0000 0.0000 31.1814 0.0000 0.0000
# 5 0.0000 0.0000 0.0000 0.0000 20.9359 0.0000
# 6 0.0000 0.0000 0.0000 0.0000 0.0000 26.7389
#
#
#
# Elastic Compliance Matrix: (Units=1/GPa)
#
#
# Indices 1 2 3 4 5 6 
#
# 1 0.011791 -0.004370 -0.001240 0.000000 0.000000 0.000000
# 2 -0.004370 0.019220 -0.000394 0.000000 0.000000 0.000000
# 3 -0.001240 -0.000394 0.027362 0.000000 0.000000 0.000000
# 4 0.000000 0.000000 0.000000 0.032070 0.000000 0.000000
# 5 0.000000 0.000000 0.000000 0.000000 0.047765 0.000000
# 6 0.000000 0.000000 0.000000 0.000000 0.000000 0.037399
#
#
# Mechanical properties :
#
#
# Convention : Reuss Voigt Hill
#
# Bulk Modulus (GPa) = 21.56736 26.89197 24.22967
# Shear Modulus (GPa) = 24.62221 26.38905 25.50563
#
# Velocity S-wave (km/s) = 3.30432 3.42083 3.36308
# Velocity P-wave (km/s) = 4.91141 5.24669 5.08182
#
# Compressibility (1/GPa) = 0.04636635
#
# Stress axis : x y z
#
# Youngs Moduli (GPa) = 84.81209 52.02895 36.54708
#
# Poissons Ratio (x) = 0.22735 0.04532
# Poissons Ratio (y) = 0.37061 0.01438
# Poissons Ratio (z) = 0.10516 0.02048
#
# Static dielectric constant tensor:
#      x y z
#    x 1.843860 0.000000 0.000000 
#    y 0.000000 1.787330 0.000000 
#    z 0.000000 0.000000 1.867450 
# 
# From -- ./inp_files/7032.got.cif
#   From: 2010.05.17/outbox.cif.g08.bks.cpg/sg64_4_cif.got.tgz:7032.got - 2010.06.03 16:29:19.
