data_PCOD9480931
_publ_section_title
;
Structure prediction by ZEFSAII (Michael W. Deem and Ramdas Pophale) SiO2 
 PCOD9480931
Probable space group: C M C A
;
_chemical_formula_sum "Si O2"
_cell_formula_units_Z 112
_cell_length_a 21.445490
_cell_length_b 14.318844
_cell_length_c 16.637217
_cell_angle_alpha 90.000000
_cell_angle_beta 90.000000
_cell_angle_gamma 90.000000
_cell_volume 5108.867185
_symmetry_space_group_name_H-M "C M C A"
_symmetry_group_IT_number 64
_symmetry_cell_setting 'orthorhombic'
loop_
_space_group_symop_operation_xyz
x,y,z
-x,1/2-y,1/2+z
x,-y,-z
-x,1/2+y,1/2-z
-x,-y,-z
x,1/2+y,1/2-z
-x,y,z
x,1/2-y,1/2+z
1/2+x,1/2+y,z
1/2-x,-y,1/2+z
1/2+x,1/2-y,-z
1/2-x,y,1/2-z
1/2-x,1/2-y,-z
1/2+x,y,1/2-z
1/2-x,1/2+y,z
1/2+x,-y,1/2+z
loop_
_atom_site_type_symbol
_atom_site_label
_atom_site_fract_x
_atom_site_fract_y
_atom_site_fract_z
Si Si1 0.316535 0.892855 0.295333
Si Si2 0.571883 0.391863 0.507364
Si Si3 0.375431 0.534934 0.082283
Si Si4 0.067297 0.369613 0.729045
Si Si5 0.284507 0.200431 0.425330
Si Si6 0.112174 0.319833 0.160986
Si Si7 0.661174 0.320252 0.643469
O O1 0.250000 0.904295 0.250000
O O2 0.369016 0.897776 0.225318
O O3 0.327041 0.787102 0.329474
O O4 0.331715 0.962290 0.368549
O O5 0.591755 0.500000 0.500000
O O6 0.500000 0.387645 0.534440
O O7 0.577715 0.353657 0.417674
O O8 0.617099 0.333737 0.565920
O O9 0.422906 0.571292 0.149034
O O10 0.334259 0.622534 0.052643
O O11 0.405328 0.500000 0.000000
O O12 0.072749 0.261423 0.702770
O O13 0.126003 0.377730 0.787939
O O14 0.000000 0.388943 0.766237
O O15 0.250000 0.250000 0.500000
O O16 0.322591 0.273583 0.370558
O O17 0.230556 0.147743 0.376199
#
# Coordination Sequence:
#
# PCOD9480931 Si02
#       7
#    16  16  16  16  16  16  16
#     4  11  24  42  67 102 141 171 222 281 344 417
#     4  11  25  42  66  99 136 177 231 283 330 403
#     4  11  27  41  67 103 137 178 228 283 346 407
#     4  10  24  45  68  93 131 179 232 281 335 405
#     4  11  21  41  68 100 136 177 223 277 339 415
#     4  10  22  41  66  93 130 177 218 278 346 399
#     4  11  23  43  71  95 134 180 223 278 343 411
#
# _framework density 21.922668000000002
#
# number of rings (size 3 to 8) (size 9 to 14) (size 15 to 20)
#    0.000    1.286    2.857    1.714    6.000    0.857 
#    0.000    3.571    0.000    0.000    0.000    0.000 
#    0.000    0.000    0.000    0.000    0.000    0.000 
#
# Total GULP energy -312760.210356 kJ/mol
# GULP energy per Si atom -5585.003756 kJ/mol
# Density = 2.187277 g / cm^3
# Si number density = 21.922668 Si / 1000 Ang^3
#
#
#
# Elastic Constant Matrix: (Units=GPa)
#
#
# Indices 1 2 3 4 5 6 
#
# 1 87.6318 5.3528 11.0851 0.0000 0.0000 0.0000
# 2 5.3528 54.4228 13.2433 0.0000 0.0000 0.0000
# 3 11.0851 13.2433 98.3594 0.0000 0.0000 0.0000
# 4 0.0000 0.0000 0.0000 28.5110 0.0000 0.0000
# 5 0.0000 0.0000 0.0000 0.0000 9.4441 0.0000
# 6 0.0000 0.0000 0.0000 0.0000 0.0000 0.1062
#
#
#
# Elastic Compliance Matrix: (Units=1/GPa)
#
#
# Indices 1 2 3 4 5 6 
#
# 1 0.011614 -0.000852 -0.001194 0.000000 0.000000 0.000000
# 2 -0.000852 0.019060 -0.002470 0.000000 0.000000 0.000000
# 3 -0.001194 -0.002470 0.010634 0.000000 0.000000 0.000000
# 4 0.000000 0.000000 0.000000 0.035074 0.000000 0.000000
# 5 0.000000 0.000000 0.000000 0.000000 0.105886 0.000000
# 6 0.000000 0.000000 0.000000 0.000000 0.000000 9.416523
#
#
# Mechanical properties :
#
#
# Convention : Reuss Voigt Hill
#
# Bulk Modulus (GPa) = 30.98319 33.30847 32.14583
# Shear Modulus (GPa) = 0.51983 21.66112 11.09047
#
# Velocity S-wave (km/s) = 0.48748 3.14677 2.25164
# Velocity P-wave (km/s) = 3.80532 5.33193 4.63195
#
# Compressibility (1/GPa) = 0.03227556
#
# Stress axis : x y z
#
# Youngs Moduli (GPa) = 86.09941 52.46717 94.03813
#
# Poissons Ratio (x) = 0.04469 0.11231
# Poissons Ratio (y) = 0.07333 0.23229
# Poissons Ratio (z) = 0.10283 0.12961
#
# Static dielectric constant tensor:
#      x y z
#    x 1.790340 0.000000 0.000000 
#    y 0.000000 1.804310 0.000000 
#    z 0.000000 0.000000 1.840150 
# 
# From -- ./inp_files/27380.got.cif
#   From: 2010.05.17/outbox.cif.g08.bks.cpg/sg64_14_cif.got.tgz:27380.got - 2010.06.03 16:29:19.
