data_PCOD9480532
_publ_section_title
;
Structure prediction by ZEFSAII (Michael W. Deem and Ramdas Pophale) SiO2 
 PCOD9480532
Probable space group: C M C A
;
_chemical_formula_sum "Si O2"
_cell_formula_units_Z 72
_cell_length_a 17.955689
_cell_length_b 23.745926
_cell_length_c 8.810125
_cell_angle_alpha 90.000000
_cell_angle_beta 90.000000
_cell_angle_gamma 90.000000
_cell_volume 3756.412309
_symmetry_space_group_name_H-M "C M C A"
_symmetry_group_IT_number 64
_symmetry_cell_setting 'orthorhombic'
loop_
_space_group_symop_operation_xyz
x,y,z
-x,1/2-y,1/2+z
x,-y,-z
-x,1/2+y,1/2-z
-x,-y,-z
x,1/2+y,1/2-z
-x,y,z
x,1/2-y,1/2+z
1/2+x,1/2+y,z
1/2-x,-y,1/2+z
1/2+x,1/2-y,-z
1/2-x,y,1/2-z
1/2-x,1/2-y,-z
1/2+x,y,1/2-z
1/2-x,1/2+y,z
1/2+x,-y,1/2+z
loop_
_atom_site_type_symbol
_atom_site_label
_atom_site_fract_x
_atom_site_fract_y
_atom_site_fract_z
Si Si1 0.000000 0.076773 0.235235
Si Si2 0.000000 0.950464 0.269266
Si Si3 0.807263 0.180048 0.960716
Si Si4 0.645935 0.718523 0.628841
Si Si5 0.626113 0.561958 0.983927
Si Si6 0.500000 0.155861 0.989115
O O1 0.928302 0.074347 0.125681
O O2 0.000000 0.131474 0.340649
O O3 0.000000 0.015809 0.319281
O O4 0.000000 0.901525 0.391288
O O5 0.071674 0.941430 0.161296
O O6 0.719848 0.193317 0.950985
O O7 0.845294 0.203061 0.805568
O O8 0.845671 0.214992 0.096106
O O9 0.819076 0.113815 0.969437
O O10 0.572315 0.692081 0.556461
O O11 0.660825 0.500000 0.000000
#
# Coordination Sequence:
#
# PCOD9480532 Si02
#       6
#     8   8  16  16  16   8
#     4   9  21  32  56  89 120 151 192 237 291 339
#     4   9  17  36  56  82 120 154 185 246 292 330
#     4  10  21  44  58  85 117 154 195 236 292 347
#     4  10  24  37  64  82 119 154 185 245 298 334
#     4   9  18  37  63  82 111 160 198 234 282 348
#     4  12  21  36  56  93 113 149 192 244 287 344
#
# _framework density 19.167224000000001
#
# number of rings (size 3 to 8) (size 9 to 14) (size 15 to 20)
#    0.000    2.222    2.222    1.667    3.111    2.667 
#    0.000    2.222    0.000    0.000    0.000    0.000 
#    0.000    0.000    0.000    0.000    0.000    0.000 
#
# Total GULP energy -200864.585455 kJ/mol
# GULP energy per Si atom -5579.571818 kJ/mol
# Density = 1.912360 g / cm^3
# Si number density = 19.167224 Si / 1000 Ang^3
#
#
#
# Elastic Constant Matrix: (Units=GPa)
#
#
# Indices 1 2 3 4 5 6 
#
# 1 78.2533 42.5311 14.7504 0.0000 0.0000 0.0000
# 2 42.5311 123.2617 20.9941 0.0000 0.0000 0.0000
# 3 14.7504 20.9941 54.1369 0.0000 0.0000 0.0000
# 4 0.0000 0.0000 0.0000 32.6478 0.0000 0.0000
# 5 0.0000 0.0000 0.0000 0.0000 2.5279 0.0000
# 6 0.0000 0.0000 0.0000 0.0000 0.0000 23.2284
#
#
#
# Elastic Compliance Matrix: (Units=1/GPa)
#
#
# Indices 1 2 3 4 5 6 
#
# 1 0.016009 -0.005119 -0.002377 0.000000 0.000000 0.000000
# 2 -0.005119 0.010323 -0.002609 0.000000 0.000000 0.000000
# 3 -0.002377 -0.002609 0.020131 0.000000 0.000000 0.000000
# 4 0.000000 0.000000 0.000000 0.030630 0.000000 0.000000
# 5 0.000000 0.000000 0.000000 0.000000 0.395593 0.000000
# 6 0.000000 0.000000 0.000000 0.000000 0.000000 0.043051
#
#
# Mechanical properties :
#
#
# Convention : Reuss Voigt Hill
#
# Bulk Modulus (GPa) = 38.08862 45.80034 41.94448
# Shear Modulus (GPa) = 9.17940 23.50590 16.34265
#
# Velocity S-wave (km/s) = 2.19078 3.50574 2.92316
# Velocity P-wave (km/s) = 5.12974 6.35090 5.77270
#
# Compressibility (1/GPa) = 0.02625456
#
# Stress axis : x y z
#
# Youngs Moduli (GPa) = 62.46366 96.86670 49.67489
#
# Poissons Ratio (x) = 0.49587 0.11807
# Poissons Ratio (y) = 0.31976 0.12958
# Poissons Ratio (z) = 0.14846 0.25269
#
# Static dielectric constant tensor:
#      x y z
#    x 1.628240 0.000000 0.000000 
#    y 0.000000 1.670870 0.000000 
#    z 0.000000 0.000000 1.685940 
# 
# From -- ./inp_files/6906.got.cif
#   From: 2010.05.17/outbox.cif.g08.bks.cpg/sg64_4_cif.got.tgz:6906.got - 2010.06.03 16:29:19.
