data_PCOD9480906
_publ_section_title
;
Structure prediction by ZEFSAII (Michael W. Deem and Ramdas Pophale) SiO2 
 PCOD9480906
Probable space group: C M C A
;
_chemical_formula_sum "Si O2"
_cell_formula_units_Z 112
_cell_length_a 27.801291
_cell_length_b 14.310500
_cell_length_c 14.263586
_cell_angle_alpha 90.000000
_cell_angle_beta 90.000000
_cell_angle_gamma 90.000000
_cell_volume 5674.773037
_symmetry_space_group_name_H-M "C M C A"
_symmetry_group_IT_number 64
_symmetry_cell_setting 'orthorhombic'
loop_
_space_group_symop_operation_xyz
x,y,z
-x,1/2-y,1/2+z
x,-y,-z
-x,1/2+y,1/2-z
-x,-y,-z
x,1/2+y,1/2-z
-x,y,z
x,1/2-y,1/2+z
1/2+x,1/2+y,z
1/2-x,-y,1/2+z
1/2+x,1/2-y,-z
1/2-x,y,1/2-z
1/2-x,1/2-y,-z
1/2+x,y,1/2-z
1/2-x,1/2+y,z
1/2+x,-y,1/2+z
loop_
_atom_site_type_symbol
_atom_site_label
_atom_site_fract_x
_atom_site_fract_y
_atom_site_fract_z
Si Si1 0.276770 0.151643 0.508330
Si Si2 0.376439 0.745590 0.017886
Si Si3 0.943997 0.939932 0.237579
Si Si4 0.945085 0.267460 0.846569
Si Si5 0.368610 0.948156 0.094280
Si Si6 0.761205 0.496892 0.858769
Si Si7 0.444017 0.127122 0.347142
O O1 0.250000 0.250000 0.500000
O O2 0.332593 0.178340 0.508431
O O3 0.260979 0.086654 0.420924
O O4 0.261662 0.091918 0.599146
O O5 0.406453 0.778264 0.927628
O O6 0.358887 0.839592 0.069478
O O7 0.411548 0.687498 0.085050
O O8 0.940594 0.836848 0.195145
O O9 0.908228 0.950964 0.324473
O O10 0.000000 0.955288 0.265748
O O11 0.932676 0.017413 0.158733
O O12 0.937847 0.336201 0.759165
O O13 0.000000 0.279544 0.881416
O O14 0.318450 0.995819 0.124247
O O15 0.385588 0.000000 0.000000
O O16 0.750000 0.485523 0.750000
O O17 0.500000 0.139681 0.372806
#
# Coordination Sequence:
#
# PCOD9480906 Si02
#       7
#    16  16  16  16  16  16  16
#     4  11  24  47  63  98 134 163 222 277 327 395
#     4  12  24  39  70  96 128 179 213 269 331 390
#     4  10  23  40  64  96 134 173 214 266 321 390
#     4  10  22  41  63  96 137 171 216 264 316 388
#     4  12  23  44  68  95 130 168 224 275 323 390
#     4  11  26  45  68  94 129 175 215 281 332 390
#     4  10  22  41  63  98 138 171 218 268 318 388
#
# _framework density 19.736471999999999
#
# number of rings (size 3 to 8) (size 9 to 14) (size 15 to 20)
#    0.000    1.143    4.286    1.286    4.000    3.143 
#    0.000    2.143    0.000    0.000    0.000    0.000 
#    0.000    0.000    0.000    0.000    0.000    0.000 
#
# Total GULP energy -313120.414317 kJ/mol
# GULP energy per Si atom -5591.435970 kJ/mol
# Density = 1.969155 g / cm^3
# Si number density = 19.736472 Si / 1000 Ang^3
#
#
#
# Elastic Constant Matrix: (Units=GPa)
#
#
# Indices 1 2 3 4 5 6 
#
# 1 71.2569 -7.5514 8.1129 0.0000 0.0000 0.0000
# 2 -7.5514 74.5931 -18.4997 0.0000 0.0000 0.0000
# 3 8.1129 -18.4997 36.6342 0.0000 0.0000 0.0000
# 4 0.0000 0.0000 0.0000 20.3731 0.0000 0.0000
# 5 0.0000 0.0000 0.0000 0.0000 25.8776 0.0000
# 6 0.0000 0.0000 0.0000 0.0000 0.0000 -0.2144
#
#
#
# Elastic Compliance Matrix: (Units=1/GPa)
#
#
# Indices 1 2 3 4 5 6 
#
# 1 0.014435 0.000764 -0.002811 0.000000 0.000000 0.000000
# 2 0.000764 0.015366 0.007590 0.000000 0.000000 0.000000
# 3 -0.002811 0.007590 0.031752 0.000000 0.000000 0.000000
# 4 0.000000 0.000000 0.000000 0.049084 0.000000 0.000000
# 5 0.000000 0.000000 0.000000 0.000000 0.038643 0.000000
# 6 0.000000 0.000000 0.000000 0.000000 0.000000 -4.664958
#
#
# Mechanical properties :
#
#
# Convention : Reuss Voigt Hill
#
# Bulk Modulus (GPa) = 13.76645 16.28976 15.02810
# Shear Modulus (GPa) = -1.11048 22.56875 10.72913
#
# Velocity S-wave (km/s) = -0.75092 3.38524 2.33409
# Velocity P-wave (km/s) = 2.49769 4.85298 3.85939
#
# Compressibility (1/GPa) = 0.07264038
#
# Stress axis : x y z
#
# Youngs Moduli (GPa) = 69.27731 65.07924 31.49374
#
# Poissons Ratio (x) = -0.04973 0.08852
# Poissons Ratio (y) = -0.05294 -0.23905
# Poissons Ratio (z) = 0.19472 -0.49397
#
# Static dielectric constant tensor:
#      x y z
#    x 1.657870 0.000000 0.000000 
#    y 0.000000 1.689550 0.000000 
#    z 0.000000 0.000000 1.656070 
# 
# From -- ./inp_files/28103.got.cif
#   From: 2010.05.17/outbox.cif.g08.bks.cpg/sg64_15_cif.got.tgz:28103.got - 2010.06.03 16:29:19.
