data_PCOD9480606
_publ_section_title
;
Structure prediction by ZEFSAII (Michael W. Deem and Ramdas Pophale) SiO2 
 PCOD9480606
Probable space group: C M C A
;
_chemical_formula_sum "Si O2"
_cell_formula_units_Z 88
_cell_length_a 21.123235
_cell_length_b 22.863145
_cell_length_c 7.999334
_cell_angle_alpha 90.000000
_cell_angle_beta 90.000000
_cell_angle_gamma 90.000000
_cell_volume 3863.227037
_symmetry_space_group_name_H-M "C M C A"
_symmetry_group_IT_number 64
_symmetry_cell_setting 'orthorhombic'
loop_
_space_group_symop_operation_xyz
x,y,z
-x,1/2-y,1/2+z
x,-y,-z
-x,1/2+y,1/2-z
-x,-y,-z
x,1/2+y,1/2-z
-x,y,z
x,1/2-y,1/2+z
1/2+x,1/2+y,z
1/2-x,-y,1/2+z
1/2+x,1/2-y,-z
1/2-x,y,1/2-z
1/2-x,1/2-y,-z
1/2+x,y,1/2-z
1/2-x,1/2+y,z
1/2+x,-y,1/2+z
loop_
_atom_site_type_symbol
_atom_site_label
_atom_site_fract_x
_atom_site_fract_y
_atom_site_fract_z
Si Si1 0.425602 0.958504 0.151378
Si Si2 0.103842 0.357369 0.360808
Si Si3 0.000000 0.655312 0.199416
Si Si4 0.500000 0.774634 0.446021
Si Si5 0.750000 0.896830 0.750000
Si Si6 0.104761 0.071789 0.179849
Si Si7 0.737579 0.315980 0.053539
O O1 0.500000 0.945059 0.127213
O O2 0.390278 0.898355 0.198259
O O3 0.417389 0.006045 0.296604
O O4 0.401878 0.000000 0.000000
O O5 0.058431 0.302568 0.345524
O O6 0.082445 0.403028 0.502060
O O7 0.164161 0.330278 0.449829
O O8 0.000000 0.704967 0.057893
O O9 0.937415 0.614150 0.198750
O O10 0.000000 0.694968 0.370570
O O11 0.818149 0.927094 0.794335
O O12 0.766921 0.857916 0.586759
O O13 0.750000 0.325489 0.250000
O O14 0.750000 0.250000 0.000000
#
# Coordination Sequence:
#
# PCOD9480606 Si02
#       7
#    16  16   8   8   8  16  16
#     4  11  23  40  65  99 132 170 222 283 349 415
#     4  10  23  41  64  93 128 174 221 277 344 407
#     4  10  22  37  62  93 125 172 214 270 341 400
#     4  10  22  37  60  95 129 160 216 270 331 414
#     4  10  24  44  62  98 134 174 230 276 342 416
#     4  10  22  43  65  91 128 173 221 276 341 414
#     4  11  24  42  68  96 133 183 229 278 345 417
#
# _framework density 22.778883
#
# number of rings (size 3 to 8) (size 9 to 14) (size 15 to 20)
#    0.000    1.636    2.727    0.545    5.091    3.636 
#    1.636    0.000    0.000    0.000    0.000    0.000 
#    0.000    0.000    0.000    0.000    0.000    0.000 
#
# Total GULP energy -245194.383943 kJ/mol
# GULP energy per Si atom -5572.599635 kJ/mol
# Density = 2.272704 g / cm^3
# Si number density = 22.778883 Si / 1000 Ang^3
#
#
#
# Elastic Constant Matrix: (Units=GPa)
#
#
# Indices 1 2 3 4 5 6 
#
# 1 59.2745 31.9110 -3.3557 0.0000 0.0000 0.0000
# 2 31.9110 76.7465 6.8944 0.0000 0.0000 0.0000
# 3 -3.3557 6.8944 85.6464 0.0000 0.0000 0.0000
# 4 0.0000 0.0000 0.0000 2900.4232 0.0000 0.0000
# 5 0.0000 0.0000 0.0000 0.0000 22.2761 0.0000
# 6 0.0000 0.0000 0.0000 0.0000 0.0000 7.0199
#
#
#
# Elastic Compliance Matrix: (Units=1/GPa)
#
#
# Indices 1 2 3 4 5 6 
#
# 1 0.021954 -0.009273 0.001607 0.000000 0.000000 0.000000
# 2 -0.009273 0.017041 -0.001735 0.000000 0.000000 0.000000
# 3 0.001607 -0.001735 0.011879 0.000000 0.000000 0.000000
# 4 0.000000 0.000000 0.000000 0.000345 0.000000 0.000000
# 5 0.000000 0.000000 0.000000 0.000000 0.044891 0.000000
# 6 0.000000 0.000000 0.000000 0.000000 0.000000 0.142452
#
#
# Mechanical properties :
#
#
# Convention : Reuss Voigt Hill
#
# Bulk Modulus (GPa) = 31.18058 32.50742 31.84400
# Shear Modulus (GPa) = 18.65296 598.35837 308.50567
#
# Velocity S-wave (km/s) = 2.86470 16.22502 11.65028
# Velocity P-wave (km/s) = 4.96589 19.11292 13.96359
#
# Compressibility (1/GPa) = 0.03207125
#
# Stress axis : x y z
#
# Youngs Moduli (GPa) = 45.55065 58.68102 84.18548
#
# Poissons Ratio (x) = 0.54412 -0.13525
# Poissons Ratio (y) = 0.42237 0.14607
# Poissons Ratio (z) = -0.07318 0.10182
#
# Static dielectric constant tensor:
#      x y z
#    x 1.659930 0.000000 0.000000 
#    y 0.000000 1.783950 0.000000 
#    z 0.000000 0.000000 2.037120 
# 
# From -- ./inp_files/8268.got.cif
#   From: 2010.05.17/outbox.cif.g08.bks.cpg/sg64_5_cif.got.tgz:8268.got - 2010.06.03 16:29:19.
