data_PCOD9480805
_publ_section_title
;
Structure prediction by ZEFSAII (Michael W. Deem and Ramdas Pophale) SiO2 
 PCOD9480805
Probable space group: C M C A
;
_chemical_formula_sum "Si O2"
_cell_formula_units_Z 56
_cell_length_a 33.457757
_cell_length_b 14.553068
_cell_length_c 4.994724
_cell_angle_alpha 90.000000
_cell_angle_beta 90.000000
_cell_angle_gamma 90.000000
_cell_volume 2431.996111
_symmetry_space_group_name_H-M "C M C A"
_symmetry_group_IT_number 64
_symmetry_cell_setting 'orthorhombic'
loop_
_space_group_symop_operation_xyz
x,y,z
-x,1/2-y,1/2+z
x,-y,-z
-x,1/2+y,1/2-z
-x,-y,-z
x,1/2+y,1/2-z
-x,y,z
x,1/2-y,1/2+z
1/2+x,1/2+y,z
1/2-x,-y,1/2+z
1/2+x,1/2-y,-z
1/2-x,y,1/2-z
1/2-x,1/2-y,-z
1/2+x,y,1/2-z
1/2-x,1/2+y,z
1/2+x,-y,1/2+z
loop_
_atom_site_type_symbol
_atom_site_label
_atom_site_fract_x
_atom_site_fract_y
_atom_site_fract_z
Si Si1 0.429177 0.940114 0.257406
Si Si2 0.365367 0.807626 0.516032
Si Si3 0.222075 0.890275 0.000611
Si Si4 0.000000 0.809667 0.431666
O O1 0.392831 0.888045 0.401763
O O2 0.461289 0.868332 0.145041
O O3 0.447566 0.000000 0.500000
O O4 0.416464 0.000000 0.000000
O O5 0.373531 0.778822 0.820537
O O6 0.319275 0.836512 0.494259
O O7 0.250000 0.869364 0.750000
O O8 0.250000 0.869435 0.250000
O O9 0.213074 0.000000 0.000000
O O10 0.000000 0.779434 0.739548
#
# Coordination Sequence:
#
# PCOD9480805 Si02
#       4
#    16  16  16   8
#     4  12  25  44  68  96 131 175 222 265 322 394
#     4  12  25  41  63  94 129 165 211 268 327 379
#     4  10  22  40  62  88 122 166 214 263 320 388
#     4  12  24  44  70 100 136 170 216 274 332 384
#
# _framework density 23.026350999999998
#
# number of rings (size 3 to 8) (size 9 to 14) (size 15 to 20)
#    0.000    0.571    0.000    8.571    0.000    6.857 
#    0.000    0.000    0.000    0.000    0.000    0.000 
#    0.000    0.000    0.000    0.000    0.000    0.000 
#
# Total GULP energy -157014.662115 kJ/mol
# GULP energy per Si atom -5607.666504 kJ/mol
# Density = 2.297394 g / cm^3
# Si number density = 23.026351 Si / 1000 Ang^3
#
#
#
# Elastic Constant Matrix: (Units=GPa)
#
#
# Indices 1 2 3 4 5 6 
#
# 1 105.1981 29.8792 10.6482 0.0000 0.0000 0.0000
# 2 29.8792 71.7498 14.3736 0.0000 0.0000 0.0000
# 3 10.6482 14.3736 114.8690 0.0000 0.0000 0.0000
# 4 0.0000 0.0000 0.0000 49.9115 0.0000 0.0000
# 5 0.0000 0.0000 0.0000 0.0000 22.5463 0.0000
# 6 0.0000 0.0000 0.0000 0.0000 0.0000 17.6385
#
#
#
# Elastic Compliance Matrix: (Units=1/GPa)
#
#
# Indices 1 2 3 4 5 6 
#
# 1 0.010804 -0.004409 -0.000450 0.000000 0.000000 0.000000
# 2 -0.004409 0.016095 -0.001605 0.000000 0.000000 0.000000
# 3 -0.000450 -0.001605 0.008948 0.000000 0.000000 0.000000
# 4 0.000000 0.000000 0.000000 0.020035 0.000000 0.000000
# 5 0.000000 0.000000 0.000000 0.000000 0.044353 0.000000
# 6 0.000000 0.000000 0.000000 0.000000 0.000000 0.056694
#
#
# Mechanical properties :
#
#
# Convention : Reuss Voigt Hill
#
# Bulk Modulus (GPa) = 43.63236 44.62430 44.12833
# Shear Modulus (GPa) = 28.16947 33.81365 30.99156
#
# Velocity S-wave (km/s) = 3.50145 3.83623 3.67265
# Velocity P-wave (km/s) = 5.94448 6.24851 6.09839
#
# Compressibility (1/GPa) = 0.02291877
#
# Stress axis : x y z
#
# Youngs Moduli (GPa) = 92.56115 62.13128 111.75515
#
# Poissons Ratio (x) = 0.27393 0.05027
# Poissons Ratio (y) = 0.40810 0.17940
# Poissons Ratio (z) = 0.04163 0.09974
#
# Static dielectric constant tensor:
#      x y z
#    x 1.774210 0.000000 0.000000 
#    y 0.000000 1.915830 0.000000 
#    z 0.000000 0.000000 1.784490 
# 
# From -- ./inp_files/3094.got.cif
#   From: 2010.05.17/outbox.cif.g08.bks.cpg/sg64_2_cif.got.tgz:3094.got - 2010.06.03 16:29:19.
