data_PCOD9480272
_publ_section_title
;
Structure prediction by ZEFSAII (Michael W. Deem and Ramdas Pophale) SiO2 
 PCOD9480272
Probable space group: C M C A
;
_chemical_formula_sum "Si O2"
_cell_formula_units_Z 116
_cell_length_a 31.030559
_cell_length_b 15.759602
_cell_length_c 11.036236
_cell_angle_alpha 90.000000
_cell_angle_beta 90.000000
_cell_angle_gamma 90.000000
_cell_volume 5397.042321
_symmetry_space_group_name_H-M "C M C A"
_symmetry_group_IT_number 64
_symmetry_cell_setting 'orthorhombic'
loop_
_space_group_symop_operation_xyz
x,y,z
-x,1/2-y,1/2+z
x,-y,-z
-x,1/2+y,1/2-z
-x,-y,-z
x,1/2+y,1/2-z
-x,y,z
x,1/2-y,1/2+z
1/2+x,1/2+y,z
1/2-x,-y,1/2+z
1/2+x,1/2-y,-z
1/2-x,y,1/2-z
1/2-x,1/2-y,-z
1/2+x,y,1/2-z
1/2-x,1/2+y,z
1/2+x,-y,1/2+z
loop_
_atom_site_type_symbol
_atom_site_label
_atom_site_fract_x
_atom_site_fract_y
_atom_site_fract_z
Si Si1 0.049191 0.850835 0.437443
Si Si2 0.225279 0.332072 0.373314
Si Si3 0.500000 0.000000 0.500000
Si Si4 0.115742 0.609720 0.148368
Si Si5 0.569924 0.537011 0.788799
Si Si6 0.359697 0.406611 0.055835
Si Si7 0.691230 0.340038 0.498541
Si Si8 0.623793 0.735941 0.143727
O O1 0.077312 0.882637 0.550932
O O2 0.049367 0.919544 0.329214
O O3 0.076676 0.771166 0.389256
O O4 0.000000 0.830730 0.470365
O O5 0.250000 0.312299 0.250000
O O6 0.184517 0.393092 0.372539
O O7 0.263312 0.374086 0.453041
O O8 0.206743 0.244223 0.428369
O O9 0.462729 0.005475 0.608284
O O10 0.101014 0.536953 0.239447
O O11 0.160846 0.599554 0.078179
O O12 0.122397 0.696703 0.223132
O O13 0.600480 0.605274 0.853871
O O14 0.361838 0.500000 0.000000
O O15 0.363990 0.339918 0.947435
O O16 0.659557 0.306870 0.390210
#
# Coordination Sequence:
#
# PCOD9480272 Si02
#       8
#    16  16   4  16  16  16  16  16
#     4  11  27  44  66 102 137 173 225 292 341 413
#     4  10  21  39  66  96 134 178 228 282 339 408
#     4  12  24  48  78  96 128 196 230 268 354 422
#     4  11  23  43  69  99 139 181 222 284 356 397
#     4  12  25  46  72 100 134 182 229 283 339 425
#     4  11  23  46  66  95 135 176 229 280 338 410
#     4   9  21  39  66  99 134 182 232 275 341 418
#     4  10  22  44  69  95 135 181 225 280 340 412
#
# _framework density 21.493252999999999
#
# number of rings (size 3 to 8) (size 9 to 14) (size 15 to 20)
#    0.000    1.379    2.759    1.241   10.621    1.103 
#    6.207    0.000    0.000    0.000    0.000    0.000 
#    0.000    0.000    0.000    0.000    0.000    0.000 
#
# Total GULP energy -323430.642705 kJ/mol
# GULP energy per Si atom -5576.390391 kJ/mol
# Density = 2.144433 g / cm^3
# Si number density = 21.493253 Si / 1000 Ang^3
#
#
#
# Elastic Constant Matrix: (Units=GPa)
#
#
# Indices 1 2 3 4 5 6 
#
# 1 173.3939 12.0911 47.2529 0.0000 0.0000 0.0000
# 2 12.0911 34.1411 10.9771 0.0000 0.0000 0.0000
# 3 47.2529 10.9771 115.8115 0.0000 0.0000 0.0000
# 4 0.0000 0.0000 0.0000 17.8140 0.0000 0.0000
# 5 0.0000 0.0000 0.0000 0.0000 40.6926 0.0000
# 6 0.0000 0.0000 0.0000 0.0000 0.0000 4.6228
#
#
#
# Elastic Compliance Matrix: (Units=1/GPa)
#
#
# Indices 1 2 3 4 5 6 
#
# 1 0.006563 -0.001509 -0.002535 0.000000 0.000000 0.000000
# 2 -0.001509 0.030558 -0.002281 0.000000 0.000000 0.000000
# 3 -0.002535 -0.002281 0.009885 0.000000 0.000000 0.000000
# 4 0.000000 0.000000 0.000000 0.056136 0.000000 0.000000
# 5 0.000000 0.000000 0.000000 0.000000 0.024574 0.000000
# 6 0.000000 0.000000 0.000000 0.000000 0.000000 0.216321
#
#
# Mechanical properties :
#
#
# Convention : Reuss Voigt Hill
#
# Bulk Modulus (GPa) = 29.10630 51.55429 40.33030
# Shear Modulus (GPa) = 13.58183 29.49424 21.53804
#
# Velocity S-wave (km/s) = 2.51651 3.70842 3.16900
# Velocity P-wave (km/s) = 4.69204 6.50959 5.67407
#
# Compressibility (1/GPa) = 0.03435682
#
# Stress axis : x y z
#
# Youngs Moduli (GPa) = 152.36333 32.72468 101.16189
#
# Poissons Ratio (x) = 0.04939 0.25643
# Poissons Ratio (y) = 0.22997 0.23071
# Poissons Ratio (z) = 0.38622 0.07463
#
# Static dielectric constant tensor:
#      x y z
#    x 1.772510 0.000000 0.000000 
#    y 0.000000 1.806200 0.000000 
#    z 0.000000 0.000000 1.850080 
# 
# From -- ./inp_files/19268.got.cif
#   From: 2010.05.17/outbox.cif.g08.bks.cpg/sg64_10_cif.got.tgz:19268.got - 2010.06.03 16:29:19.
