data_PCOD9480514
_publ_section_title
;
Structure prediction by ZEFSAII (Michael W. Deem and Ramdas Pophale) SiO2 
 PCOD9480514
Probable space group: C M C A
;
_chemical_formula_sum "Si O2"
_cell_formula_units_Z 72
_cell_length_a 16.347293
_cell_length_b 14.013979
_cell_length_c 12.054133
_cell_angle_alpha 90.000000
_cell_angle_beta 90.000000
_cell_angle_gamma 90.000000
_cell_volume 2761.488812
_symmetry_space_group_name_H-M "C M C A"
_symmetry_group_IT_number 64
_symmetry_cell_setting 'orthorhombic'
loop_
_space_group_symop_operation_xyz
x,y,z
-x,1/2-y,1/2+z
x,-y,-z
-x,1/2+y,1/2-z
-x,-y,-z
x,1/2+y,1/2-z
-x,y,z
x,1/2-y,1/2+z
1/2+x,1/2+y,z
1/2-x,-y,1/2+z
1/2+x,1/2-y,-z
1/2-x,y,1/2-z
1/2-x,1/2-y,-z
1/2+x,y,1/2-z
1/2-x,1/2+y,z
1/2+x,-y,1/2+z
loop_
_atom_site_type_symbol
_atom_site_label
_atom_site_fract_x
_atom_site_fract_y
_atom_site_fract_z
Si Si1 0.000000 0.632318 0.982479
Si Si2 0.157494 0.670549 0.130209
Si Si3 0.500000 0.345675 0.892205
Si Si4 0.173283 0.593490 0.386806
Si Si5 0.500000 0.479793 0.272648
Si Si6 0.333225 0.111574 0.680616
O O1 0.918055 0.636406 0.056359
O O2 0.000000 0.457215 0.098710
O O3 0.000000 0.730714 0.904486
O O4 0.162603 0.626144 0.255414
O O5 0.245015 0.646766 0.075737
O O6 0.148134 0.782984 0.141211
O O7 0.413226 0.378992 0.942247
O O8 0.500000 0.413532 0.780610
O O9 0.188476 0.481222 0.390685
O O10 0.582586 0.426924 0.234018
O O11 0.250000 0.124371 0.750000
#
# Coordination Sequence:
#
# PCOD9480514 Si02
#       6
#     8  16   8  16   8  16
#     4  12  26  44  74 116 150 178 258 340 358 430
#     4  11  22  39  71 109 146 190 250 317 366 439
#     4  10  23  45  71  95 142 200 249 296 388 453
#     4  10  21  42  71  99 147 205 245 287 382 467
#     4  10  25  45  73  99 142 200 247 304 384 457
#     4  11  20  43  73 101 139 206 249 286 379 474
#
# _framework density 26.072892
#
# number of rings (size 3 to 8) (size 9 to 14) (size 15 to 20)
#    0.000    1.333    4.444    2.667    0.000    0.889 
#    0.000   17.778    0.000    0.000    0.000    0.000 
#    0.000    0.000    0.000    0.000    0.000    0.000 
#
# Total GULP energy -201359.518573 kJ/mol
# GULP energy per Si atom -5593.319960 kJ/mol
# Density = 2.601355 g / cm^3
# Si number density = 26.072892 Si / 1000 Ang^3
#
#
#
# Elastic Constant Matrix: (Units=GPa)
#
#
# Indices 1 2 3 4 5 6 
#
# 1 216.5750 42.0838 59.8414 0.0000 0.0000 0.0000
# 2 42.0838 174.7518 67.3761 0.0000 0.0000 0.0000
# 3 59.8414 67.3761 122.6047 0.0000 0.0000 0.0000
# 4 0.0000 0.0000 0.0000 40.3982 0.0000 0.0000
# 5 0.0000 0.0000 0.0000 0.0000 21.6172 0.0000
# 6 0.0000 0.0000 0.0000 0.0000 0.0000 71.9460
#
#
#
# Elastic Compliance Matrix: (Units=1/GPa)
#
#
# Indices 1 2 3 4 5 6 
#
# 1 0.005355 -0.000358 -0.002417 0.000000 0.000000 0.000000
# 2 -0.000358 0.007285 -0.003829 0.000000 0.000000 0.000000
# 3 -0.002417 -0.003829 0.011440 0.000000 0.000000 0.000000
# 4 0.000000 0.000000 0.000000 0.024754 0.000000 0.000000
# 5 0.000000 0.000000 0.000000 0.000000 0.046260 0.000000
# 6 0.000000 0.000000 0.000000 0.000000 0.000000 0.013899
#
#
# Mechanical properties :
#
#
# Convention : Reuss Voigt Hill
#
# Bulk Modulus (GPa) = 91.97299 94.72600 93.34950
# Shear Modulus (GPa) = 39.73849 49.76761 44.75305
#
# Velocity S-wave (km/s) = 3.90825 4.37371 4.14751
# Velocity P-wave (km/s) = 7.46443 7.86866 7.66921
#
# Compressibility (1/GPa) = 0.01087276
#
# Stress axis : x y z
#
# Youngs Moduli (GPa) = 186.75302 137.27441 87.41270
#
# Poissons Ratio (x) = 0.04909 0.21128
# Poissons Ratio (y) = 0.06679 0.33467
# Poissons Ratio (z) = 0.45138 0.52558
#
# Static dielectric constant tensor:
#      x y z
#    x 1.946450 0.000000 0.000000 
#    y 0.000000 1.964760 0.000000 
#    z 0.000000 0.000000 2.270170 
# 
# From -- ./inp_files/25172.got.cif
#   From: 2010.05.17/outbox.cif.g08.bks.cpg/sg64_13_cif.got.tgz:25172.got - 2010.06.03 16:29:19.
