data_PCOD9480389
_publ_section_title
;
Structure prediction by ZEFSAII (Michael W. Deem and Ramdas Pophale) SiO2 
 PCOD9480389
Probable space group: C M C A
;
_chemical_formula_sum "Si O2"
_cell_formula_units_Z 96
_cell_length_a 26.683128
_cell_length_b 19.377140
_cell_length_c 8.949794
_cell_angle_alpha 90.000000
_cell_angle_beta 90.000000
_cell_angle_gamma 90.000000
_cell_volume 4627.425716
_symmetry_space_group_name_H-M "C M C A"
_symmetry_group_IT_number 64
_symmetry_cell_setting 'orthorhombic'
loop_
_space_group_symop_operation_xyz
x,y,z
-x,1/2-y,1/2+z
x,-y,-z
-x,1/2+y,1/2-z
-x,-y,-z
x,1/2+y,1/2-z
-x,y,z
x,1/2-y,1/2+z
1/2+x,1/2+y,z
1/2-x,-y,1/2+z
1/2+x,1/2-y,-z
1/2-x,y,1/2-z
1/2-x,1/2-y,-z
1/2+x,y,1/2-z
1/2-x,1/2+y,z
1/2+x,-y,1/2+z
loop_
_atom_site_type_symbol
_atom_site_label
_atom_site_fract_x
_atom_site_fract_y
_atom_site_fract_z
Si Si1 0.943133 0.053123 0.364108
Si Si2 0.809817 0.242420 0.490638
Si Si3 0.060221 0.173124 0.989195
Si Si4 0.883845 0.459122 0.359616
Si Si5 0.397187 0.307041 0.678059
Si Si6 0.190428 0.146775 0.768389
O O1 0.918684 0.125777 0.404678
O O2 0.000000 0.066610 0.316496
O O3 0.943193 0.000000 0.500000
O O4 0.913596 0.015824 0.232999
O O5 0.750000 0.250000 0.500000
O O6 0.838170 0.197204 0.364049
O O7 0.822081 0.319413 0.430585
O O8 0.824707 0.202871 0.641997
O O9 0.086957 0.183672 0.150062
O O10 0.000000 0.173121 0.005608
O O11 0.078923 0.101662 0.915313
O O12 0.077103 0.238149 0.887490
O O13 0.861225 0.500000 0.500000
O O14 0.841557 0.422058 0.260854
O O15 0.250000 0.135960 0.750000
#
# Coordination Sequence:
#
# PCOD9480389 Si02
#       6
#    16  16  16  16  16  16
#     4  11  25  43  66 100 141 183 230 279 343 412
#     4  10  21  40  69 100 133 170 217 285 348 399
#     4  12  26  42  67 100 137 179 231 285 342 407
#     4  12  25  44  68  92 141 186 226 278 343 414
#     4  12  24  43  67  99 136 173 231 283 337 410
#     4  10  22  42  67 100 134 170 226 284 344 410
#
# _framework density 20.745875999999999
#
# number of rings (size 3 to 8) (size 9 to 14) (size 15 to 20)
#    0.000    0.833    3.333    4.000    2.333    0.667 
#    0.000    4.167    0.000    0.000    0.000    0.000 
#    0.000    0.000    0.000    0.000    0.000    0.000 
#
# Total GULP energy -267836.934662 kJ/mol
# GULP energy per Si atom -5579.936139 kJ/mol
# Density = 2.069866 g / cm^3
# Si number density = 20.745876 Si / 1000 Ang^3
#
#
#
# Elastic Constant Matrix: (Units=GPa)
#
#
# Indices 1 2 3 4 5 6 
#
# 1 120.8950 28.8524 21.4291 0.0000 0.0000 0.0000
# 2 28.8524 104.1921 6.8839 0.0000 0.0000 0.0000
# 3 21.4291 6.8839 66.2506 0.0000 0.0000 0.0000
# 4 0.0000 0.0000 0.0000 39.4711 0.0000 0.0000
# 5 0.0000 0.0000 0.0000 0.0000 26.6574 0.0000
# 6 0.0000 0.0000 0.0000 0.0000 0.0000 24.2968
#
#
#
# Elastic Compliance Matrix: (Units=1/GPa)
#
#
# Indices 1 2 3 4 5 6 
#
# 1 0.009336 -0.002402 -0.002770 0.000000 0.000000 0.000000
# 2 -0.002402 0.010282 -0.000291 0.000000 0.000000 0.000000
# 3 -0.002770 -0.000291 0.016020 0.000000 0.000000 0.000000
# 4 0.000000 0.000000 0.000000 0.025335 0.000000 0.000000
# 5 0.000000 0.000000 0.000000 0.000000 0.037513 0.000000
# 6 0.000000 0.000000 0.000000 0.000000 0.000000 0.041158
#
#
# Mechanical properties :
#
#
# Convention : Reuss Voigt Hill
#
# Bulk Modulus (GPa) = 40.46773 45.07428 42.77100
# Shear Modulus (GPa) = 31.48439 33.69655 32.59047
#
# Velocity S-wave (km/s) = 3.89989 4.03457 3.96780
# Velocity P-wave (km/s) = 6.31091 6.59377 6.45389
#
# Compressibility (1/GPa) = 0.02471105
#
# Stress axis : x y z
#
# Youngs Moduli (GPa) = 107.11248 97.25612 62.42004
#
# Poissons Ratio (x) = 0.23363 0.17291
# Poissons Ratio (y) = 0.25731 0.01819
# Poissons Ratio (z) = 0.29672 0.02834
#
# Static dielectric constant tensor:
#      x y z
#    x 1.777010 0.000000 0.000000 
#    y 0.000000 1.712960 0.000000 
#    z 0.000000 0.000000 1.793810 
# 
# From -- ./inp_files/10381.got.cif
#   From: 2010.05.17/outbox.cif.g08.bks.cpg/sg64_6_cif.got.tgz:10381.got - 2010.06.03 16:29:19.
