data_PCOD9480914
_publ_section_title
;
Structure prediction by ZEFSAII (Michael W. Deem and Ramdas Pophale) SiO2 
 PCOD9480914
Probable space group: C M C A
;
_chemical_formula_sum "Si O2"
_cell_formula_units_Z 56
_cell_length_a 15.127894
_cell_length_b 13.036286
_cell_length_c 10.829782
_cell_angle_alpha 90.000000
_cell_angle_beta 90.000000
_cell_angle_gamma 90.000000
_cell_volume 2135.758124
_symmetry_space_group_name_H-M "C M C A"
_symmetry_group_IT_number 64
_symmetry_cell_setting 'orthorhombic'
loop_
_space_group_symop_operation_xyz
x,y,z
-x,1/2-y,1/2+z
x,-y,-z
-x,1/2+y,1/2-z
-x,-y,-z
x,1/2+y,1/2-z
-x,y,z
x,1/2-y,1/2+z
1/2+x,1/2+y,z
1/2-x,-y,1/2+z
1/2+x,1/2-y,-z
1/2-x,y,1/2-z
1/2-x,1/2-y,-z
1/2+x,y,1/2-z
1/2-x,1/2+y,z
1/2+x,-y,1/2+z
loop_
_atom_site_type_symbol
_atom_site_label
_atom_site_fract_x
_atom_site_fract_y
_atom_site_fract_z
Si Si1 0.500000 0.136509 0.641268
Si Si2 0.176704 0.000000 0.500000
Si Si3 0.652879 0.366387 0.704656
Si Si4 0.690003 0.636299 0.869971
Si Si5 0.500000 0.710755 0.132009
O O1 0.405322 0.081760 0.630736
O O2 0.500000 0.188791 0.778194
O O3 0.500000 0.210107 0.516524
O O4 0.120920 0.045308 0.387849
O O5 0.244152 0.092877 0.528860
O O6 0.750000 0.396214 0.750000
O O7 0.664777 0.256454 0.635675
O O8 0.587535 0.345458 0.817826
O O9 0.750000 0.621720 0.750000
#
# Coordination Sequence:
#
# PCOD9480914 Si02
#       5
#     8   8  16  16   8
#     4  10  22  43  70  97 132 174 224 271 331 397
#     4  12  22  38  64  96 134 178 226 272 322 390
#     4  10  22  41  64  93 132 171 221 276 333 392
#     4  10  23  42  67  97 131 176 221 273 334 393
#     4  10  22  41  68  98 130 176 220 274 331 393
#
# _framework density 26.220198
#
# number of rings (size 3 to 8) (size 9 to 14) (size 15 to 20)
#    0.000    1.714    0.000    3.429    0.000   12.571 
#    0.000    5.714    0.000    0.000    0.000    0.000 
#    0.000    0.000    0.000    0.000    0.000    0.000 
#
# Total GULP energy -156445.951949 kJ/mol
# GULP energy per Si atom -5587.355427 kJ/mol
# Density = 2.616052 g / cm^3
# Si number density = 26.220198 Si / 1000 Ang^3
#
#
#
# Elastic Constant Matrix: (Units=GPa)
#
#
# Indices 1 2 3 4 5 6 
#
# 1 125.8525 -6.6252 15.4534 0.0000 0.0000 0.0000
# 2 -6.6252 105.6639 26.2841 0.0000 0.0000 0.0000
# 3 15.4534 26.2841 107.9853 0.0000 0.0000 0.0000
# 4 0.0000 0.0000 0.0000 35.5221 0.0000 0.0000
# 5 0.0000 0.0000 0.0000 0.0000 35.2221 0.0000
# 6 0.0000 0.0000 0.0000 0.0000 0.0000 33.8584
#
#
#
# Elastic Compliance Matrix: (Units=1/GPa)
#
#
# Indices 1 2 3 4 5 6 
#
# 1 0.008160 0.000854 -0.001376 0.000000 0.000000 0.000000
# 2 0.000854 0.010163 -0.002596 0.000000 0.000000 0.000000
# 3 -0.001376 -0.002596 0.010089 0.000000 0.000000 0.000000
# 4 0.000000 0.000000 0.000000 0.028152 0.000000 0.000000
# 5 0.000000 0.000000 0.000000 0.000000 0.028391 0.000000
# 6 0.000000 0.000000 0.000000 0.000000 0.000000 0.029535
#
#
# Mechanical properties :
#
#
# Convention : Reuss Voigt Hill
#
# Bulk Modulus (GPa) = 45.09229 45.52515 45.30872
# Shear Modulus (GPa) = 39.02673 41.21314 40.11993
#
# Velocity S-wave (km/s) = 3.86219 3.96891 3.91591
# Velocity P-wave (km/s) = 6.09291 6.19704 6.14520
#
# Compressibility (1/GPa) = 0.02217674
#
# Stress axis : x y z
#
# Youngs Moduli (GPa) = 122.55424 98.39374 99.11553
#
# Poissons Ratio (x) = -0.08401 0.13634
# Poissons Ratio (y) = -0.10463 0.25730
# Poissons Ratio (z) = 0.16858 0.25543
#
# Static dielectric constant tensor:
#      x y z
#    x 2.023070 0.000000 0.000000 
#    y 0.000000 2.141540 0.000000 
#    z 0.000000 0.000000 2.101190 
# 
# From -- ./inp_files/13799.got.cif
#   From: 2010.05.17/outbox.cif.g08.bks.cpg/sg64_7_cif.got.tgz:13799.got - 2010.06.03 16:29:19.
