data_PCOD9480050
_publ_section_title
;
Structure prediction by ZEFSAII (Michael W. Deem and Ramdas Pophale) SiO2 
 PCOD9480050
Probable space group: C M C A
;
_chemical_formula_sum "Si O2"
_cell_formula_units_Z 104
_cell_length_a 21.676506
_cell_length_b 8.923460
_cell_length_c 26.101468
_cell_angle_alpha 90.000000
_cell_angle_beta 90.000000
_cell_angle_gamma 90.000000
_cell_volume 5048.792188
_symmetry_space_group_name_H-M "C M C A"
_symmetry_group_IT_number 64
_symmetry_cell_setting 'orthorhombic'
loop_
_space_group_symop_operation_xyz
x,y,z
-x,1/2-y,1/2+z
x,-y,-z
-x,1/2+y,1/2-z
-x,-y,-z
x,1/2+y,1/2-z
-x,y,z
x,1/2-y,1/2+z
1/2+x,1/2+y,z
1/2-x,-y,1/2+z
1/2+x,1/2-y,-z
1/2-x,y,1/2-z
1/2-x,1/2-y,-z
1/2+x,y,1/2-z
1/2-x,1/2+y,z
1/2+x,-y,1/2+z
loop_
_atom_site_type_symbol
_atom_site_label
_atom_site_fract_x
_atom_site_fract_y
_atom_site_fract_z
Si Si1 0.500000 0.029769 0.918374
Si Si2 0.786955 0.960294 0.379789
Si Si3 0.391595 0.000000 0.500000
Si Si4 0.088284 0.027688 0.675725
Si Si5 0.610091 0.699207 0.241940
Si Si6 0.716148 0.815504 0.550692
Si Si7 0.000000 0.238143 0.990157
Si Si8 0.696436 0.556861 0.791773
O O1 0.500000 0.878234 0.951579
O O2 0.443775 0.024920 0.878798
O O3 0.500000 0.176698 0.954572
O O4 0.767100 0.094172 0.416886
O O5 0.839848 0.990771 0.338438
O O6 0.806162 0.822478 0.415166
O O7 0.727152 0.919275 0.346380
O O8 0.342284 0.922015 0.538440
O O9 0.439273 0.867348 0.483537
O O10 0.076703 0.184636 0.704515
O O11 0.072849 0.897808 0.716539
O O12 0.650425 0.583528 0.208807
O O13 0.657668 0.801676 0.273451
O O14 0.750000 0.750000 0.500000
O O15 0.750000 0.530000 0.750000
#
# Coordination Sequence:
#
# PCOD9480050 Si02
#       8
#     8  16   8  16  16  16   8  16
#     4  11  26  50  72 102 120 178 246 299 344 412
#     4  12  23  36  65  96 135 189 219 270 346 415
#     4  11  24  50  70  98 142 175 228 290 350 403
#     4  11  24  40  66  94 135 174 230 275 347 404
#     4  10  21  38  60  97 136 176 209 283 331 407
#     4  12  25  42  61 102 144 177 220 284 348 407
#     4  10  26  50  82  96 130 186 240 300 332 410
#     4  11  20  34  60  92 137 172 222 256 320 418
#
# _framework density 20.598987000000001
#
# number of rings (size 3 to 8) (size 9 to 14) (size 15 to 20)
#    0.000    0.923    4.615    3.231    2.154    1.846 
#    0.000    4.615    0.000    0.000    0.000    0.000 
#    0.000    0.000    0.000    0.000    0.000    0.000 
#
# Total GULP energy -290393.220498 kJ/mol
# GULP energy per Si atom -5584.485010 kJ/mol
# Density = 2.055210 g / cm^3
# Si number density = 20.598987 Si / 1000 Ang^3
#
#
#
# Elastic Constant Matrix: (Units=GPa)
#
#
# Indices 1 2 3 4 5 6 
#
# 1 83.5697 40.6210 34.1204 0.0000 0.0000 0.0000
# 2 40.6210 113.5290 44.1145 0.0000 0.0000 0.0000
# 3 34.1204 44.1145 113.6749 0.0000 0.0000 0.0000
# 4 0.0000 0.0000 0.0000 40.8158 0.0000 0.0000
# 5 0.0000 0.0000 0.0000 0.0000 129.7189 0.0000
# 6 0.0000 0.0000 0.0000 0.0000 0.0000 6.0046
#
#
#
# Elastic Compliance Matrix: (Units=1/GPa)
#
#
# Indices 1 2 3 4 5 6 
#
# 1 0.015255 -0.004332 -0.002898 0.000000 0.000000 0.000000
# 2 -0.004332 0.011603 -0.003202 0.000000 0.000000 0.000000
# 3 -0.002898 -0.003202 0.010910 0.000000 0.000000 0.000000
# 4 0.000000 0.000000 0.000000 0.024500 0.000000 0.000000
# 5 0.000000 0.000000 0.000000 0.000000 0.007709 0.000000
# 6 0.000000 0.000000 0.000000 0.000000 0.000000 0.166539
#
#
# Mechanical properties :
#
#
# Convention : Reuss Voigt Hill
#
# Bulk Modulus (GPa) = 59.16244 60.94283 60.05264
# Shear Modulus (GPa) = 19.01039 48.10238 33.55638
#
# Velocity S-wave (km/s) = 3.04119 4.83761 4.04050
# Velocity P-wave (km/s) = 6.41211 7.80083 7.14031
#
# Compressibility (1/GPa) = 0.01690262
#
# Stress axis : x y z
#
# Youngs Moduli (GPa) = 65.55250 86.18606 91.66294
#
# Poissons Ratio (x) = 0.37339 0.26561
# Poissons Ratio (y) = 0.28399 0.29354
# Poissons Ratio (z) = 0.18995 0.27600
#
# Static dielectric constant tensor:
#      x y z
#    x 1.809460 0.000000 0.000000 
#    y 0.000000 1.750330 0.000000 
#    z 0.000000 0.000000 1.726560 
# 
# From -- ./inp_files/50816.got.cif
#   From: 2010.05.17/outbox.cif.g08.bks.cpg/sg64_26_cif.got.tgz:50816.got - 2010.06.03 16:29:19.
