data_PCOD9480131
_publ_section_title
;
Structure prediction by ZEFSAII (Michael W. Deem and Ramdas Pophale) SiO2 
 PCOD9480131
Probable space group: C M C A
;
_chemical_formula_sum "Si O2"
_cell_formula_units_Z 112
_cell_length_a 16.458133
_cell_length_b 11.533468
_cell_length_c 26.947600
_cell_angle_alpha 90.000000
_cell_angle_beta 90.000000
_cell_angle_gamma 90.000000
_cell_volume 5115.175924
_symmetry_space_group_name_H-M "C M C A"
_symmetry_group_IT_number 64
_symmetry_cell_setting 'orthorhombic'
loop_
_space_group_symop_operation_xyz
x,y,z
-x,1/2-y,1/2+z
x,-y,-z
-x,1/2+y,1/2-z
-x,-y,-z
x,1/2+y,1/2-z
-x,y,z
x,1/2-y,1/2+z
1/2+x,1/2+y,z
1/2-x,-y,1/2+z
1/2+x,1/2-y,-z
1/2-x,y,1/2-z
1/2-x,1/2-y,-z
1/2+x,y,1/2-z
1/2-x,1/2+y,z
1/2+x,-y,1/2+z
loop_
_atom_site_type_symbol
_atom_site_label
_atom_site_fract_x
_atom_site_fract_y
_atom_site_fract_z
Si Si1 0.323363 0.546178 0.652069
Si Si2 0.098032 0.656442 0.209670
Si Si3 0.829923 0.328677 0.371508
Si Si4 0.794177 0.719560 0.449349
Si Si5 0.408008 0.537737 0.085844
Si Si6 0.094025 0.212751 0.178188
Si Si7 0.903581 0.060320 0.552591
O O1 0.356800 0.458917 0.692235
O O2 0.228230 0.570280 0.650362
O O3 0.359845 0.672976 0.661659
O O4 0.356455 0.503197 0.598641
O O5 0.128333 0.756274 0.172047
O O6 0.120622 0.679015 0.266674
O O7 0.000000 0.644469 0.206068
O O8 0.770403 0.250126 0.405778
O O9 0.892853 0.402110 0.404373
O O10 0.750000 0.750000 0.500000
O O11 0.835398 0.593826 0.446176
O O12 0.869604 0.809454 0.447297
O O13 0.500000 0.556179 0.066817
O O14 0.401525 0.611079 0.137507
O O15 0.000000 0.245942 0.181839
O O16 0.000000 0.056883 0.561328
O O17 0.886289 0.000000 0.500000
#
# Coordination Sequence:
#
# PCOD9480131 Si02
#       7
#    16  16  16  16  16  16  16
#     4  11  23  43  67  96 136 169 222 282 335 394
#     4  11  25  43  66  97 133 175 221 272 327 392
#     4  11  25  43  65 100 133 169 217 277 334 388
#     4  11  25  42  67  93 131 170 216 269 333 398
#     4  11  23  46  69  93 132 179 220 267 329 407
#     4  10  22  42  68  95 128 178 225 266 327 396
#     4  10  21  38  66  96 121 164 222 277 326 386
#
# _framework density 21.895631000000002
#
# number of rings (size 3 to 8) (size 9 to 14) (size 15 to 20)
#    0.000    1.286    2.857    3.000    8.000    0.571 
#    0.000    2.857    0.000    0.000    0.000    0.000 
#    0.000    0.000    0.000    0.000    0.000    0.000 
#
# Total GULP energy -313126.242763 kJ/mol
# GULP energy per Si atom -5591.540049 kJ/mol
# Density = 2.184580 g / cm^3
# Si number density = 21.895631 Si / 1000 Ang^3
#
#
#
# Elastic Constant Matrix: (Units=GPa)
#
#
# Indices 1 2 3 4 5 6 
#
# 1 82.7405 28.2189 26.5651 0.0000 0.0000 0.0000
# 2 28.2189 46.2498 1.2594 0.0000 0.0000 0.0000
# 3 26.5651 1.2594 77.1046 0.0000 0.0000 0.0000
# 4 0.0000 0.0000 0.0000 25.1284 0.0000 0.0000
# 5 0.0000 0.0000 0.0000 0.0000 23.6432 0.0000
# 6 0.0000 0.0000 0.0000 0.0000 0.0000 31.0067
#
#
#
# Elastic Compliance Matrix: (Units=1/GPa)
#
#
# Indices 1 2 3 4 5 6 
#
# 1 0.017578 -0.010565 -0.005884 0.000000 0.000000 0.000000
# 2 -0.010565 0.027981 0.003183 0.000000 0.000000 0.000000
# 3 -0.005884 0.003183 0.014945 0.000000 0.000000 0.000000
# 4 0.000000 0.000000 0.000000 0.039796 0.000000 0.000000
# 5 0.000000 0.000000 0.000000 0.000000 0.042296 0.000000
# 6 0.000000 0.000000 0.000000 0.000000 0.000000 0.032251
#
#
# Mechanical properties :
#
#
# Convention : Reuss Voigt Hill
#
# Bulk Modulus (GPa) = 29.43564 35.35354 32.39459
# Shear Modulus (GPa) = 23.50708 25.95909 24.73308
#
# Velocity S-wave (km/s) = 3.28013 3.44697 3.36458
# Velocity P-wave (km/s) = 5.27432 5.65893 5.47001
#
# Compressibility (1/GPa) = 0.03397243
#
# Stress axis : x y z
#
# Youngs Moduli (GPa) = 56.88843 35.73832 66.91400
#
# Poissons Ratio (x) = 0.37758 0.39370
# Poissons Ratio (y) = 0.60103 -0.21298
# Poissons Ratio (z) = 0.33472 -0.11375
#
# Static dielectric constant tensor:
#      x y z
#    x 1.820550 0.000000 0.000000 
#    y 0.000000 1.832160 0.000000 
#    z 0.000000 0.000000 1.911110 
# 
# From -- ./inp_files/53249.got.cif
#   From: 2010.05.17/outbox.cif.g08.bks.cpg/sg64_27_cif.got.tgz:53249.got - 2010.06.03 16:29:19.
