data_PCOD9480390
_publ_section_title
;
Structure prediction by ZEFSAII (Michael W. Deem and Ramdas Pophale) SiO2 
 PCOD9480390
Probable space group: C M C A
;
_chemical_formula_sum "Si O2"
_cell_formula_units_Z 112
_cell_length_a 29.396078
_cell_length_b 14.115604
_cell_length_c 12.402068
_cell_angle_alpha 90.000000
_cell_angle_beta 90.000000
_cell_angle_gamma 90.000000
_cell_volume 5146.156216
_symmetry_space_group_name_H-M "C M C A"
_symmetry_group_IT_number 64
_symmetry_cell_setting 'orthorhombic'
loop_
_space_group_symop_operation_xyz
x,y,z
-x,1/2-y,1/2+z
x,-y,-z
-x,1/2+y,1/2-z
-x,-y,-z
x,1/2+y,1/2-z
-x,y,z
x,1/2-y,1/2+z
1/2+x,1/2+y,z
1/2-x,-y,1/2+z
1/2+x,1/2-y,-z
1/2-x,y,1/2-z
1/2-x,1/2-y,-z
1/2+x,y,1/2-z
1/2-x,1/2+y,z
1/2+x,-y,1/2+z
loop_
_atom_site_type_symbol
_atom_site_label
_atom_site_fract_x
_atom_site_fract_y
_atom_site_fract_z
Si Si1 0.696512 0.564686 0.109183
Si Si2 0.551574 0.747457 0.137079
Si Si3 0.108664 0.865546 0.212377
Si Si4 0.551793 0.478037 0.873824
Si Si5 0.719948 0.843699 0.974788
Si Si6 0.797621 0.910730 0.294223
Si Si7 0.636419 0.775595 0.505713
O O1 0.748202 0.603485 0.109312
O O2 0.692338 0.500417 0.215734
O O3 0.662784 0.654385 0.090463
O O4 0.691527 0.500000 0.000000
O O5 0.500000 0.776008 0.110721
O O6 0.569785 0.796011 0.244970
O O7 0.552808 0.633911 0.143285
O O8 0.590915 0.771354 0.051549
O O9 0.155114 0.854805 0.279925
O O10 0.086526 0.969274 0.204843
O O11 0.121912 0.842032 0.091454
O O12 0.500000 0.512130 0.854947
O O13 0.561756 0.500000 0.000000
O O14 0.750000 0.750000 0.000000
O O15 0.712496 0.910357 0.079032
O O16 0.670718 0.800602 0.953760
O O17 0.750000 0.867725 0.250000
#
# Coordination Sequence:
#
# PCOD9480390 Si02
#       7
#    16  16  16  16  16  16  16
#     4  11  21  39  67  96 133 168 223 285 337 415
#     4  11  24  40  65 104 137 179 239 285 348 419
#     4  12  23  40  69  97 144 177 231 287 353 412
#     4  10  21  40  69 101 131 171 226 288 350 407
#     4  10  22  43  62  91 137 176 221 272 339 419
#     4  12  22  38  65  98 130 178 221 274 339 407
#     4  11  22  42  64  96 133 179 218 284 350 409
#
# _framework density 21.763817
#
# number of rings (size 3 to 8) (size 9 to 14) (size 15 to 20)
#    0.000    1.000    5.714    2.143    0.000    0.571 
#    5.143    1.429    0.000    0.000    0.000    3.000 
#    0.000    0.000    0.000    0.000    0.000    0.000 
#
# Total GULP energy -312473.564646 kJ/mol
# GULP energy per Si atom -5579.885083 kJ/mol
# Density = 2.171428 g / cm^3
# Si number density = 21.763817 Si / 1000 Ang^3
#
#
#
# Elastic Constant Matrix: (Units=GPa)
#
#
# Indices 1 2 3 4 5 6 
#
# 1 185.2957 33.3031 28.5014 0.0000 0.0000 0.0000
# 2 33.3031 53.9376 14.0846 0.0000 0.0000 0.0000
# 3 28.5014 14.0846 53.4154 0.0000 0.0000 0.0000
# 4 0.0000 0.0000 0.0000 28.6128 0.0000 0.0000
# 5 0.0000 0.0000 0.0000 0.0000 12.5552 0.0000
# 6 0.0000 0.0000 0.0000 0.0000 0.0000 36.5805
#
#
#
# Elastic Compliance Matrix: (Units=1/GPa)
#
#
# Indices 1 2 3 4 5 6 
#
# 1 0.006376 -0.003274 -0.002539 0.000000 0.000000 0.000000
# 2 -0.003274 0.021592 -0.003947 0.000000 0.000000 0.000000
# 3 -0.002539 -0.003947 0.021116 0.000000 0.000000 0.000000
# 4 0.000000 0.000000 0.000000 0.034949 0.000000 0.000000
# 5 0.000000 0.000000 0.000000 0.000000 0.079648 0.000000
# 6 0.000000 0.000000 0.000000 0.000000 0.000000 0.027337
#
#
# Mechanical properties :
#
#
# Convention : Reuss Voigt Hill
#
# Bulk Modulus (GPa) = 33.82265 49.38074 41.60170
# Shear Modulus (GPa) = 22.68688 30.00035 26.34361
#
# Velocity S-wave (km/s) = 3.23214 3.71678 3.48290
# Velocity P-wave (km/s) = 5.43171 6.41544 5.94396
#
# Compressibility (1/GPa) = 0.02956599
#
# Stress axis : x y z
#
# Youngs Moduli (GPa) = 156.84702 46.31396 47.35650
#
# Poissons Ratio (x) = 0.15161 0.12022
# Poissons Ratio (y) = 0.51346 0.18690
# Poissons Ratio (z) = 0.39819 0.18278
#
# Static dielectric constant tensor:
#      x y z
#    x 1.840220 0.000000 0.000000 
#    y 0.000000 1.865530 0.000000 
#    z 0.000000 0.000000 1.793340 
# 
# From -- ./inp_files/19870.got.cif
#   From: 2010.05.17/outbox.cif.g08.bks.cpg/sg64_10_cif.got.tgz:19870.got - 2010.06.03 16:29:19.
