data_PCOD9480879
_publ_section_title
;
Structure prediction by ZEFSAII (Michael W. Deem and Ramdas Pophale) SiO2 
 PCOD9480879
Probable space group: C M C A
;
_chemical_formula_sum "Si O2"
_cell_formula_units_Z 88
_cell_length_a 20.493767
_cell_length_b 24.533989
_cell_length_c 9.193368
_cell_angle_alpha 90.000000
_cell_angle_beta 90.000000
_cell_angle_gamma 90.000000
_cell_volume 4622.368929
_symmetry_space_group_name_H-M "C M C A"
_symmetry_group_IT_number 64
_symmetry_cell_setting 'orthorhombic'
loop_
_space_group_symop_operation_xyz
x,y,z
-x,1/2-y,1/2+z
x,-y,-z
-x,1/2+y,1/2-z
-x,-y,-z
x,1/2+y,1/2-z
-x,y,z
x,1/2-y,1/2+z
1/2+x,1/2+y,z
1/2-x,-y,1/2+z
1/2+x,1/2-y,-z
1/2-x,y,1/2-z
1/2-x,1/2-y,-z
1/2+x,y,1/2-z
1/2-x,1/2+y,z
1/2+x,-y,1/2+z
loop_
_atom_site_type_symbol
_atom_site_label
_atom_site_fract_x
_atom_site_fract_y
_atom_site_fract_z
Si Si1 0.183629 0.290956 0.845913
Si Si2 0.382129 0.000000 0.000000
Si Si3 0.680469 0.310911 0.321605
Si Si4 0.572511 0.098380 0.805807
Si Si5 0.428460 0.564234 0.027017
Si Si6 0.327396 0.088065 0.223082
O O1 0.250000 0.292123 0.750000
O O2 0.150650 0.236693 0.780966
O O3 0.153071 0.350486 0.822322
O O4 0.193459 0.287194 0.018057
O O5 0.343112 0.958053 0.896468
O O6 0.419919 0.040956 0.891074
O O7 0.750000 0.327833 0.250000
O O8 0.631040 0.360664 0.340273
O O9 0.500000 0.119985 0.840461
O O10 0.577065 0.089752 0.632525
O O11 0.500000 0.579352 0.090153
O O12 0.428574 0.500000 0.000000
O O13 0.369248 0.577109 0.132918
O O14 0.250000 0.087010 0.250000
#
# Coordination Sequence:
#
# PCOD9480879 Si02
#       6
#    16   8  16  16  16  16
#     4  10  22  41  63  97 123 166 210 261 324 377
#     4  12  23  42  62  94 135 170 204 264 321 380
#     4  11  23  41  69  92 126 165 215 264 319 374
#     4  11  25  42  65  92 127 169 213 258 317 382
#     4  10  22  41  61  85 121 173 210 246 309 385
#     4  11  25  39  64  95 131 160 215 264 318 375
#
# _framework density 19.037856999999999
#
# number of rings (size 3 to 8) (size 9 to 14) (size 15 to 20)
#    0.000    1.273    3.636    2.455    8.909    1.455 
#    0.000    1.818    0.000    0.000    0.000    0.000 
#    0.000    0.000    0.000    0.000    0.000    0.000 
#
# Total GULP energy -245292.398179 kJ/mol
# GULP energy per Si atom -5574.827231 kJ/mol
# Density = 1.899453 g / cm^3
# Si number density = 19.037857 Si / 1000 Ang^3
#
#
#
# Elastic Constant Matrix: (Units=GPa)
#
#
# Indices 1 2 3 4 5 6 
#
# 1 109.6179 47.8474 53.9631 0.0000 0.0000 0.0000
# 2 47.8474 110.3750 27.6955 0.0000 0.0000 0.0000
# 3 53.9631 27.6955 114.4517 0.0000 0.0000 0.0000
# 4 0.0000 0.0000 0.0000 33.0678 0.0000 0.0000
# 5 0.0000 0.0000 0.0000 0.0000 24.7570 0.0000
# 6 0.0000 0.0000 0.0000 0.0000 0.0000 -103.6687
#
#
#
# Elastic Compliance Matrix: (Units=1/GPa)
#
#
# Indices 1 2 3 4 5 6 
#
# 1 0.013793 -0.004628 -0.005383 0.000000 0.000000 0.000000
# 2 -0.004628 0.011199 -0.000528 0.000000 0.000000 0.000000
# 3 -0.005383 -0.000528 0.011403 0.000000 0.000000 0.000000
# 4 0.000000 0.000000 0.000000 0.030241 0.000000 0.000000
# 5 0.000000 0.000000 0.000000 0.000000 0.040393 0.000000
# 6 0.000000 0.000000 0.000000 0.000000 0.000000 -0.009646
#
#
# Mechanical properties :
#
#
# Convention : Reuss Voigt Hill
#
# Bulk Modulus (GPa) = 65.29027 65.93962 65.61494
# Shear Modulus (GPa) = 40.46400 4.49379 22.47890
#
# Velocity S-wave (km/s) = 4.61526 1.53804 3.43993
# Velocity P-wave (km/s) = 7.92277 6.15348 7.09350
#
# Compressibility (1/GPa) = 0.01531622
#
# Stress axis : x y z
#
# Youngs Moduli (GPa) = 72.50062 89.29486 87.69494
#
# Poissons Ratio (x) = 0.41330 0.47209
# Poissons Ratio (y) = 0.33557 0.04627
# Poissons Ratio (z) = 0.39029 0.04712
#
# Static dielectric constant tensor:
#      x y z
#    x 1.664150 0.000000 0.000000 
#    y 0.000000 1.691040 0.000000 
#    z 0.000000 0.000000 1.832560 
# 
# From -- ./inp_files/8199.got.cif
#   From: 2010.05.17/outbox.cif.g08.bks.cpg/sg64_5_cif.got.tgz:8199.got - 2010.06.03 16:29:19.
