data_PCOD9480642
_publ_section_title
;
Structure prediction by ZEFSAII (Michael W. Deem and Ramdas Pophale) SiO2 
 PCOD9480642
Probable space group: C M C A
;
_chemical_formula_sum "Si O2"
_cell_formula_units_Z 72
_cell_length_a 14.125665
_cell_length_b 27.632990
_cell_length_c 9.678520
_cell_angle_alpha 90.000000
_cell_angle_beta 90.000000
_cell_angle_gamma 90.000000
_cell_volume 3777.858907
_symmetry_space_group_name_H-M "C M C A"
_symmetry_group_IT_number 64
_symmetry_cell_setting 'orthorhombic'
loop_
_space_group_symop_operation_xyz
x,y,z
-x,1/2-y,1/2+z
x,-y,-z
-x,1/2+y,1/2-z
-x,-y,-z
x,1/2+y,1/2-z
-x,y,z
x,1/2-y,1/2+z
1/2+x,1/2+y,z
1/2-x,-y,1/2+z
1/2+x,1/2-y,-z
1/2-x,y,1/2-z
1/2-x,1/2-y,-z
1/2+x,y,1/2-z
1/2-x,1/2+y,z
1/2+x,-y,1/2+z
loop_
_atom_site_type_symbol
_atom_site_label
_atom_site_fract_x
_atom_site_fract_y
_atom_site_fract_z
Si Si1 0.250000 0.880669 0.250000
Si Si2 0.114270 0.294191 0.667665
Si Si3 0.763064 0.057106 0.475465
Si Si4 0.114557 0.202011 0.850215
Si Si5 0.112552 0.596577 0.267054
O O1 0.229799 0.913925 0.382084
O O2 0.163010 0.845163 0.213758
O O3 0.142163 0.249064 0.761578
O O4 0.147048 0.292040 0.509052
O O5 0.137750 0.346365 0.730975
O O6 0.000000 0.292271 0.661603
O O7 0.846338 0.072771 0.371095
O O8 0.667085 0.072568 0.395632
O O9 0.764426 0.000000 0.500000
O O10 0.000000 0.197579 0.848420
O O11 0.000000 0.591598 0.278409
#
# Coordination Sequence:
#
# PCOD9480642 Si02
#       5
#     8  16  16  16  16
#     4  12  24  38  64  94 124 168 206 254 318 374
#     4   9  19  38  61  89 125 164 203 248 300 364
#     4  11  25  44  64  92 127 159 211 271 311 359
#     4  10  22  38  59  91 129 164 204 251 303 371
#     4  10  22  44  69  89 123 170 207 250 315 375
#
# _framework density 19.058413999999999
#
# number of rings (size 3 to 8) (size 9 to 14) (size 15 to 20)
#    0.000    1.778    2.222    1.333    3.111    4.444 
#    0.000    2.222    0.000    0.000    0.000    0.000 
#    0.000    0.000    0.000    0.000    0.000    0.000 
#
# Total GULP energy -201187.741948 kJ/mol
# GULP energy per Si atom -5588.548387 kJ/mol
# Density = 1.901504 g / cm^3
# Si number density = 19.058414 Si / 1000 Ang^3
#
#
#
# Elastic Constant Matrix: (Units=GPa)
#
#
# Indices 1 2 3 4 5 6 
#
# 1 83.8711 28.0035 20.1614 0.0000 0.0000 0.0000
# 2 28.0035 189.3355 77.9728 0.0000 0.0000 0.0000
# 3 20.1614 77.9728 108.5039 0.0000 0.0000 0.0000
# 4 0.0000 0.0000 0.0000 -28.0438 0.0000 0.0000
# 5 0.0000 0.0000 0.0000 0.0000 17.9298 0.0000
# 6 0.0000 0.0000 0.0000 0.0000 0.0000 23.2764
#
#
#
# Elastic Compliance Matrix: (Units=1/GPa)
#
#
# Indices 1 2 3 4 5 6 
#
# 1 0.012698 -0.001287 -0.001434 0.000000 0.000000 0.000000
# 2 -0.001287 0.007632 -0.005245 0.000000 0.000000 0.000000
# 3 -0.001434 -0.005245 0.013252 0.000000 0.000000 0.000000
# 4 0.000000 0.000000 0.000000 -0.035658 0.000000 0.000000
# 5 0.000000 0.000000 0.000000 0.000000 0.055773 0.000000
# 6 0.000000 0.000000 0.000000 0.000000 0.000000 0.042962
#
#
# Mechanical properties :
#
#
# Convention : Reuss Voigt Hill
#
# Bulk Modulus (GPa) = 56.66375 70.44290 63.55333
# Shear Modulus (GPa) = 42.20281 19.67066 30.93673
#
# Velocity S-wave (km/s) = 4.71084 3.21615 4.03334
# Velocity P-wave (km/s) = 7.70620 7.12975 7.42357
#
# Compressibility (1/GPa) = 0.01764797
#
# Stress axis : x y z
#
# Youngs Moduli (GPa) = 78.75461 131.02312 75.45895
#
# Poissons Ratio (x) = 0.16868 0.10823
# Poissons Ratio (y) = 0.10139 0.39582
# Poissons Ratio (z) = 0.11295 0.68728
#
# Static dielectric constant tensor:
#      x y z
#    x 1.674340 0.000000 0.000000 
#    y 0.000000 1.627790 0.000000 
#    z 0.000000 0.000000 1.642990 
# 
# From -- ./inp_files/5803.got.cif
#   From: 2010.05.17/outbox.cif.g08.bks.cpg/sg64_3_cif.got.tgz:5803.got - 2010.06.03 16:29:19.
