data_PCOD9480540
_publ_section_title
;
Structure prediction by ZEFSAII (Michael W. Deem and Ramdas Pophale) SiO2 
 PCOD9480540
Probable space group: C M C A
;
_chemical_formula_sum "Si O2"
_cell_formula_units_Z 88
_cell_length_a 10.818501
_cell_length_b 21.293012
_cell_length_c 17.515079
_cell_angle_alpha 90.000000
_cell_angle_beta 90.000000
_cell_angle_gamma 90.000000
_cell_volume 4034.746829
_symmetry_space_group_name_H-M "C M C A"
_symmetry_group_IT_number 64
_symmetry_cell_setting 'orthorhombic'
loop_
_space_group_symop_operation_xyz
x,y,z
-x,1/2-y,1/2+z
x,-y,-z
-x,1/2+y,1/2-z
-x,-y,-z
x,1/2+y,1/2-z
-x,y,z
x,1/2-y,1/2+z
1/2+x,1/2+y,z
1/2-x,-y,1/2+z
1/2+x,1/2-y,-z
1/2-x,y,1/2-z
1/2-x,1/2-y,-z
1/2+x,y,1/2-z
1/2-x,1/2+y,z
1/2+x,-y,1/2+z
loop_
_atom_site_type_symbol
_atom_site_label
_atom_site_fract_x
_atom_site_fract_y
_atom_site_fract_z
Si Si1 0.232804 0.824585 0.158719
Si Si2 0.641771 0.878482 0.479762
Si Si3 0.000000 0.380297 0.843503
Si Si4 0.000000 0.520611 0.871350
Si Si5 0.239845 0.689589 0.104540
Si Si6 0.794512 0.000000 0.500000
Si Si7 0.000000 0.799537 0.806560
Si Si8 0.000000 0.158842 0.663613
O O1 0.250000 0.833885 0.250000
O O2 0.152185 0.873596 0.111927
O O3 0.188407 0.755292 0.136929
O O4 0.370030 0.832137 0.122683
O O5 0.500000 0.876815 0.501795
O O6 0.712291 0.819920 0.518617
O O7 0.707100 0.940296 0.511485
O O8 0.000000 0.454495 0.828531
O O9 0.872680 0.359474 0.884773
O O10 0.000000 0.341354 0.766989
O O11 0.117289 0.517601 0.928730
O O12 0.000000 0.583874 0.820089
O O13 0.370620 0.684476 0.150864
O O14 0.000000 0.724011 0.786947
#
# Coordination Sequence:
#
# PCOD9480540 Si02
#       8
#    16  16   8   8  16   8   8   8
#     4  11  25  43  70 101 141 184 231 293 358 427
#     4  12  25  44  69  99 139 184 238 288 361 428
#     4  12  23  40  75 105 138 192 239 289 361 431
#     4  11  22  42  72 101 135 181 247 291 346 418
#     4  11  23  43  68 104 139 183 233 294 355 426
#     4  11  23  46  66  96 139 187 230 298 352 416
#     4  10  22  44  69 102 151 184 226 304 364 419
#     4  10  21  44  70  95 134 184 230 293 342 412
#
# _framework density 21.810538999999999
#
# number of rings (size 3 to 8) (size 9 to 14) (size 15 to 20)
#    0.000    0.909    4.545    3.545    2.545    0.727 
#    0.000    3.636    0.000    0.000    0.000    0.000 
#    0.000    0.000    0.000    0.000    0.000    0.000 
#
# Total GULP energy -245130.736231 kJ/mol
# GULP energy per Si atom -5571.153096 kJ/mol
# Density = 2.176090 g / cm^3
# Si number density = 21.810539 Si / 1000 Ang^3
#
#
#
# Elastic Constant Matrix: (Units=GPa)
#
#
# Indices 1 2 3 4 5 6 
#
# 1 122.3084 42.4330 28.1309 0.0000 0.0000 0.0000
# 2 42.4330 143.3652 35.5114 0.0000 0.0000 0.0000
# 3 28.1309 35.5114 102.7609 0.0000 0.0000 0.0000
# 4 0.0000 0.0000 0.0000 25.1113 0.0000 0.0000
# 5 0.0000 0.0000 0.0000 0.0000 21.7296 0.0000
# 6 0.0000 0.0000 0.0000 0.0000 0.0000 18.9250
#
#
#
# Elastic Compliance Matrix: (Units=1/GPa)
#
#
# Indices 1 2 3 4 5 6 
#
# 1 0.009395 -0.002344 -0.001762 0.000000 0.000000 0.000000
# 2 -0.002344 0.008213 -0.002196 0.000000 0.000000 0.000000
# 3 -0.001762 -0.002196 0.010973 0.000000 0.000000 0.000000
# 4 0.000000 0.000000 0.000000 0.039823 0.000000 0.000000
# 5 0.000000 0.000000 0.000000 0.000000 0.046020 0.000000
# 6 0.000000 0.000000 0.000000 0.000000 0.000000 0.052840
#
#
# Mechanical properties :
#
#
# Convention : Reuss Voigt Hill
#
# Bulk Modulus (GPa) = 62.59579 64.50945 63.55262
# Shear Modulus (GPa) = 26.99885 30.64380 28.82133
#
# Velocity S-wave (km/s) = 3.52217 3.75240 3.63911
# Velocity P-wave (km/s) = 6.73075 6.95812 6.84538
#
# Compressibility (1/GPa) = 0.01597551
#
# Stress axis : x y z
#
# Youngs Moduli (GPa) = 106.44497 121.75671 91.13583
#
# Poissons Ratio (x) = 0.28542 0.16055
# Poissons Ratio (y) = 0.24953 0.20018
# Poissons Ratio (z) = 0.18752 0.26744
#
# Static dielectric constant tensor:
#      x y z
#    x 1.816640 0.000000 0.000000 
#    y 0.000000 1.823050 0.000000 
#    z 0.000000 0.000000 1.851520 
# 
# From -- ./inp_files/30991.got.cif
#   From: 2010.05.17/outbox.cif.g08.bks.cpg/sg64_16_cif.got.tgz:30991.got - 2010.06.03 16:29:19.
