data_PCOD9480535
_publ_section_title
;
Structure prediction by ZEFSAII (Michael W. Deem and Ramdas Pophale) SiO2 
 PCOD9480535
Probable space group: C M C A
;
_chemical_formula_sum "Si O2"
_cell_formula_units_Z 68
_cell_length_a 16.874519
_cell_length_b 8.569934
_cell_length_c 19.123519
_cell_angle_alpha 90.000000
_cell_angle_beta 90.000000
_cell_angle_gamma 90.000000
_cell_volume 2765.519285
_symmetry_space_group_name_H-M "C M C A"
_symmetry_group_IT_number 64
_symmetry_cell_setting 'orthorhombic'
loop_
_space_group_symop_operation_xyz
x,y,z
-x,1/2-y,1/2+z
x,-y,-z
-x,1/2+y,1/2-z
-x,-y,-z
x,1/2+y,1/2-z
-x,y,z
x,1/2-y,1/2+z
1/2+x,1/2+y,z
1/2-x,-y,1/2+z
1/2+x,1/2-y,-z
1/2-x,y,1/2-z
1/2-x,1/2-y,-z
1/2+x,y,1/2-z
1/2-x,1/2+y,z
1/2+x,-y,1/2+z
loop_
_atom_site_type_symbol
_atom_site_label
_atom_site_fract_x
_atom_site_fract_y
_atom_site_fract_z
Si Si1 0.587132 0.751201 0.155915
Si Si2 0.000000 0.000000 0.500000
Si Si3 0.763572 0.094814 0.602017
Si Si4 0.622527 0.400797 0.196032
Si Si5 0.365852 0.795247 0.930107
O O1 0.500000 0.795577 0.126597
O O2 0.661757 0.789697 0.107650
O O3 0.589226 0.570011 0.176473
O O4 0.601315 0.851282 0.226224
O O5 0.930776 0.127964 0.477867
O O6 0.715850 0.092309 0.675632
O O7 0.693043 0.152015 0.550992
O O8 0.803319 0.930943 0.587597
O O9 0.594481 0.267941 0.141609
#
# Coordination Sequence:
#
# PCOD9480535 Si02
#       5
#    16   4  16  16  16
#     4  12  23  35  65 102 140 182 216 261 328 413
#     4  12  28  44  76 102 122 168 244 310 348 378
#     4  10  21  44  65  93 135 176 217 263 344 411
#     4  10  22  40  61  96 140 182 218 263 326 413
#     4  10  24  44  70  95 131 177 227 289 336 397
#
# _framework density 24.588511
#
# number of rings (size 3 to 8) (size 9 to 14) (size 15 to 20)
#    1.412    0.000    2.353    2.824    4.941    2.824 
#    0.000    0.000    0.000    2.824    0.000    0.000 
#    0.000    0.000    0.000    0.000    0.000    0.000 
#
# Total GULP energy -189421.714195 kJ/mol
# GULP energy per Si atom -5571.226888 kJ/mol
# Density = 2.453255 g / cm^3
# Si number density = 24.588511 Si / 1000 Ang^3
#
#
#
# Elastic Constant Matrix: (Units=GPa)
#
#
# Indices 1 2 3 4 5 6 
#
# 1 212.1230 37.7307 32.9782 0.0000 0.0000 0.0000
# 2 37.7307 113.4621 2.0501 0.0000 0.0000 0.0000
# 3 32.9782 2.0501 55.0367 0.0000 0.0000 0.0000
# 4 0.0000 0.0000 0.0000 25.2236 0.0000 0.0000
# 5 0.0000 0.0000 0.0000 0.0000 34.8918 0.0000
# 6 0.0000 0.0000 0.0000 0.0000 0.0000 13.5615
#
#
#
# Elastic Compliance Matrix: (Units=1/GPa)
#
#
# Indices 1 2 3 4 5 6 
#
# 1 0.005537 -0.001782 -0.003251 0.000000 0.000000 0.000000
# 2 -0.001782 0.009393 0.000718 0.000000 0.000000 0.000000
# 3 -0.003251 0.000718 0.020091 0.000000 0.000000 0.000000
# 4 0.000000 0.000000 0.000000 0.039645 0.000000 0.000000
# 5 0.000000 0.000000 0.000000 0.000000 0.028660 0.000000
# 6 0.000000 0.000000 0.000000 0.000000 0.000000 0.073738
#
#
# Mechanical properties :
#
#
# Convention : Reuss Voigt Hill
#
# Bulk Modulus (GPa) = 37.89303 58.45997 48.17650
# Shear Modulus (GPa) = 25.70789 35.25955 30.48372
#
# Velocity S-wave (km/s) = 3.23697 3.79091 3.52483
# Velocity P-wave (km/s) = 5.42355 6.55654 6.01677
#
# Compressibility (1/GPa) = 0.02639008
#
# Stress axis : x y z
#
# Youngs Moduli (GPa) = 180.61103 106.45909 49.77321
#
# Poissons Ratio (x) = 0.18976 0.16183
# Poissons Ratio (y) = 0.32193 -0.03575
# Poissons Ratio (z) = 0.58721 -0.07646
#
# Static dielectric constant tensor:
#      x y z
#    x 1.942450 0.000000 0.000000 
#    y 0.000000 1.953740 0.000000 
#    z 0.000000 0.000000 2.032270 
# 
# From -- ./inp_files/39869.got.cif
#   From: 2010.05.17/outbox.cif.g08.bks.cpg/sg64_20_cif.got.tgz:39869.got - 2010.06.03 16:29:19.
