data_PCOD9480127
_publ_section_title
;
Structure prediction by ZEFSAII (Michael W. Deem and Ramdas Pophale) SiO2 
 PCOD9480127
Probable space group: C M C A
;
_chemical_formula_sum "Si O2"
_cell_formula_units_Z 88
_cell_length_a 22.780617
_cell_length_b 17.176297
_cell_length_c 11.115639
_cell_angle_alpha 90.000000
_cell_angle_beta 90.000000
_cell_angle_gamma 90.000000
_cell_volume 4349.401074
_symmetry_space_group_name_H-M "C M C A"
_symmetry_group_IT_number 64
_symmetry_cell_setting 'orthorhombic'
loop_
_space_group_symop_operation_xyz
x,y,z
-x,1/2-y,1/2+z
x,-y,-z
-x,1/2+y,1/2-z
-x,-y,-z
x,1/2+y,1/2-z
-x,y,z
x,1/2-y,1/2+z
1/2+x,1/2+y,z
1/2-x,-y,1/2+z
1/2+x,1/2-y,-z
1/2-x,y,1/2-z
1/2-x,1/2-y,-z
1/2+x,y,1/2-z
1/2-x,1/2+y,z
1/2+x,-y,1/2+z
loop_
_atom_site_type_symbol
_atom_site_label
_atom_site_fract_x
_atom_site_fract_y
_atom_site_fract_z
Si Si1 0.347650 0.215176 0.856551
Si Si2 0.067920 0.340116 0.559626
Si Si3 0.068119 0.562117 0.195709
Si Si4 0.181670 0.086774 0.458577
Si Si5 0.250000 0.171074 0.250000
Si Si6 0.931766 0.889337 0.202319
O O1 0.389059 0.267105 0.941957
O O2 0.301200 0.273086 0.798027
O O3 0.389182 0.174446 0.758540
O O4 0.317063 0.147405 0.932396
O O5 0.076915 0.386648 0.683852
O O6 0.077215 0.392570 0.441412
O O7 0.000000 0.314573 0.557331
O O8 0.115557 0.584527 0.096073
O O9 0.077695 0.472519 0.234936
O O10 0.000000 0.571071 0.157075
O O11 0.224479 0.117683 0.355459
O O12 0.196662 0.000000 0.500000
O O13 0.000000 0.867634 0.222384
#
# Coordination Sequence:
#
# PCOD9480127 Si02
#       6
#    16  16  16  16   8  16
#     4  12  24  44  68  95 134 174 221 280 332 392
#     4  10  21  38  65  99 136 174 216 268 333 400
#     4  10  21  42  69 100 136 171 215 273 332 400
#     4  12  26  48  69  98 132 174 226 276 335 397
#     4  12  28  50  66  96 130 176 236 278 330 390
#     4  10  21  39  67 101 135 173 215 265 332 401
#
# _framework density 20.232672000000001
#
# number of rings (size 3 to 8) (size 9 to 14) (size 15 to 20)
#    0.000    1.091    3.636    2.727    0.000    4.727 
#    3.273    0.000    0.000    0.000    0.000    0.000 
#    0.000    0.000    0.000    0.000    0.000    0.000 
#
# Total GULP energy -246132.821492 kJ/mol
# GULP energy per Si atom -5593.927761 kJ/mol
# Density = 2.018662 g / cm^3
# Si number density = 20.232672 Si / 1000 Ang^3
#
#
#
# Elastic Constant Matrix: (Units=GPa)
#
#
# Indices 1 2 3 4 5 6 
#
# 1 58.8584 53.9198 23.3302 0.0000 0.0000 0.0000
# 2 53.9198 112.7556 38.2553 0.0000 0.0000 0.0000
# 3 23.3302 38.2553 66.9451 0.0000 0.0000 0.0000
# 4 0.0000 0.0000 0.0000 34.0319 0.0000 0.0000
# 5 0.0000 0.0000 0.0000 0.0000 24.4682 0.0000
# 6 0.0000 0.0000 0.0000 0.0000 0.0000 31.2633
#
#
#
# Elastic Compliance Matrix: (Units=1/GPa)
#
#
# Indices 1 2 3 4 5 6 
#
# 1 0.030671 -0.013696 -0.002862 0.000000 0.000000 0.000000
# 2 -0.013696 0.017117 -0.005009 0.000000 0.000000 0.000000
# 3 -0.002862 -0.005009 0.018797 0.000000 0.000000 0.000000
# 4 0.000000 0.000000 0.000000 0.029384 0.000000 0.000000
# 5 0.000000 0.000000 0.000000 0.000000 0.040869 0.000000
# 6 0.000000 0.000000 0.000000 0.000000 0.000000 0.031986
#
#
# Mechanical properties :
#
#
# Convention : Reuss Voigt Hill
#
# Bulk Modulus (GPa) = 42.64019 52.17441 47.40730
# Shear Modulus (GPa) = 22.75032 26.15627 24.45330
#
# Velocity S-wave (km/s) = 3.35690 3.59942 3.48027
# Velocity P-wave (km/s) = 6.01213 6.56640 6.29537
#
# Compressibility (1/GPa) = 0.02345205
#
# Stress axis : x y z
#
# Youngs Moduli (GPa) = 32.60387 58.42010 53.19905
#
# Poissons Ratio (x) = 0.80011 0.15228
# Poissons Ratio (y) = 0.44654 0.26646
# Poissons Ratio (z) = 0.09333 0.29261
#
# Static dielectric constant tensor:
#      x y z
#    x 1.700860 0.000000 0.000000 
#    y 0.000000 1.686870 0.000000 
#    z 0.000000 0.000000 1.713590 
# 
# From -- ./inp_files/17154.got.cif
#   From: 2010.05.17/outbox.cif.g08.bks.cpg/sg64_9_cif.got.tgz:17154.got - 2010.06.03 16:29:19.
