data_PCOD9480400
_publ_section_title
;
Structure prediction by ZEFSAII (Michael W. Deem and Ramdas Pophale) SiO2 
 PCOD9480400
Probable space group: C M C A
;
_chemical_formula_sum "Si O2"
_cell_formula_units_Z 112
_cell_length_a 15.337382
_cell_length_b 22.799862
_cell_length_c 13.803374
_cell_angle_alpha 90.000000
_cell_angle_beta 90.000000
_cell_angle_gamma 90.000000
_cell_volume 4826.904519
_symmetry_space_group_name_H-M "C M C A"
_symmetry_group_IT_number 64
_symmetry_cell_setting 'orthorhombic'
loop_
_space_group_symop_operation_xyz
x,y,z
-x,1/2-y,1/2+z
x,-y,-z
-x,1/2+y,1/2-z
-x,-y,-z
x,1/2+y,1/2-z
-x,y,z
x,1/2-y,1/2+z
1/2+x,1/2+y,z
1/2-x,-y,1/2+z
1/2+x,1/2-y,-z
1/2-x,y,1/2-z
1/2-x,1/2-y,-z
1/2+x,y,1/2-z
1/2-x,1/2+y,z
1/2+x,-y,1/2+z
loop_
_atom_site_type_symbol
_atom_site_label
_atom_site_fract_x
_atom_site_fract_y
_atom_site_fract_z
Si Si1 0.400632 0.178091 0.501634
Si Si2 0.894525 0.171426 0.616901
Si Si3 0.282773 0.334447 0.578692
Si Si4 0.398647 0.753805 0.801390
Si Si5 0.122019 0.047426 0.927090
Si Si6 0.404698 0.048513 0.793086
Si Si7 0.298291 0.026114 0.092832
O O1 0.500000 0.189756 0.464271
O O2 0.314893 0.190427 0.437226
O O3 0.393556 0.210390 0.605328
O O4 0.388766 0.109382 0.521984
O O5 0.840852 0.179548 0.517847
O O6 0.878290 0.217306 0.704150
O O7 0.868070 0.107620 0.658999
O O8 0.000000 0.171765 0.598864
O O9 0.333029 0.305620 0.669210
O O10 0.279764 0.405318 0.586877
O O11 0.500000 0.773687 0.795020
O O12 0.087973 0.057218 0.820377
O O13 0.216736 0.018516 0.908091
O O14 0.084069 0.000000 0.000000
O O15 0.500000 0.040288 0.835606
O O16 0.350708 0.990349 0.812356
O O17 0.350543 0.000000 0.000000
#
# Coordination Sequence:
#
# PCOD9480400 Si02
#       7
#    16  16  16  16  16  16  16
#     4  11  22  40  67 100 136 180 242 295 343 418
#     4  10  21  40  70 105 136 179 236 289 349 431
#     4  12  23  43  71 103 144 190 226 290 370 414
#     4  10  23  43  68 101 139 177 236 298 347 421
#     4  11  21  41  66  94 137 186 231 291 341 407
#     4  11  22  37  64 100 139 181 231 289 351 416
#     4  11  22  40  64 106 143 179 235 289 345 434
#
# _framework density 23.203275999999999
#
# number of rings (size 3 to 8) (size 9 to 14) (size 15 to 20)
#    0.000    1.143    5.714    1.714    0.000    3.143 
#    0.000    1.429    3.143    0.857    0.000    0.000 
#    0.000    0.000    0.000    0.000    0.000    0.000 
#
# Total GULP energy -312746.834749 kJ/mol
# GULP energy per Si atom -5584.764906 kJ/mol
# Density = 2.315046 g / cm^3
# Si number density = 23.203276 Si / 1000 Ang^3
#
#
#
# Elastic Constant Matrix: (Units=GPa)
#
#
# Indices 1 2 3 4 5 6 
#
# 1 120.5946 46.2168 48.4187 0.0000 0.0000 0.0000
# 2 46.2168 125.9020 23.4091 0.0000 0.0000 0.0000
# 3 48.4187 23.4091 65.8470 0.0000 0.0000 0.0000
# 4 0.0000 0.0000 0.0000 48.8318 0.0000 0.0000
# 5 0.0000 0.0000 0.0000 0.0000 27.7523 0.0000
# 6 0.0000 0.0000 0.0000 0.0000 0.0000 36.3276
#
#
#
# Elastic Compliance Matrix: (Units=1/GPa)
#
#
# Indices 1 2 3 4 5 6 
#
# 1 0.012847 -0.003169 -0.008320 0.000000 0.000000 0.000000
# 2 -0.003169 0.009287 -0.000971 0.000000 0.000000 0.000000
# 3 -0.008320 -0.000971 0.021650 0.000000 0.000000 0.000000
# 4 0.000000 0.000000 0.000000 0.020478 0.000000 0.000000
# 5 0.000000 0.000000 0.000000 0.000000 0.036033 0.000000
# 6 0.000000 0.000000 0.000000 0.000000 0.000000 0.027527
#
#
# Mechanical properties :
#
#
# Convention : Reuss Voigt Hill
#
# Bulk Modulus (GPa) = 53.01403 60.93698 56.97551
# Shear Modulus (GPa) = 31.44028 35.53559 33.48794
#
# Velocity S-wave (km/s) = 3.68502 3.91767 3.80312
# Velocity P-wave (km/s) = 6.40336 6.83984 6.62520
#
# Compressibility (1/GPa) = 0.01886293
#
# Stress axis : x y z
#
# Youngs Moduli (GPa) = 77.83692 107.68233 46.18917
#
# Poissons Ratio (x) = 0.34125 0.38431
# Poissons Ratio (y) = 0.24667 0.04486
# Poissons Ratio (z) = 0.64763 0.10458
#
# Static dielectric constant tensor:
#      x y z
#    x 1.966480 0.000000 0.000000 
#    y 0.000000 1.849140 0.000000 
#    z 0.000000 0.000000 1.916220 
# 
# From -- ./inp_files/24268.got.cif
#   From: 2010.05.17/outbox.cif.g08.bks.cpg/sg64_13_cif.got.tgz:24268.got - 2010.06.03 16:29:19.
