data_PCOD9480449
_publ_section_title
;
Structure prediction by ZEFSAII (Michael W. Deem and Ramdas Pophale) SiO2 
 PCOD9480449
Probable space group: C M C A
;
_chemical_formula_sum "Si O2"
_cell_formula_units_Z 96
_cell_length_a 18.142235
_cell_length_b 27.124057
_cell_length_c 9.743696
_cell_angle_alpha 90.000000
_cell_angle_beta 90.000000
_cell_angle_gamma 90.000000
_cell_volume 4794.785267
_symmetry_space_group_name_H-M "C M C A"
_symmetry_group_IT_number 64
_symmetry_cell_setting 'orthorhombic'
loop_
_space_group_symop_operation_xyz
x,y,z
-x,1/2-y,1/2+z
x,-y,-z
-x,1/2+y,1/2-z
-x,-y,-z
x,1/2+y,1/2-z
-x,y,z
x,1/2-y,1/2+z
1/2+x,1/2+y,z
1/2-x,-y,1/2+z
1/2+x,1/2-y,-z
1/2-x,y,1/2-z
1/2-x,1/2-y,-z
1/2+x,y,1/2-z
1/2-x,1/2+y,z
1/2+x,-y,1/2+z
loop_
_atom_site_type_symbol
_atom_site_label
_atom_site_fract_x
_atom_site_fract_y
_atom_site_fract_z
Si Si1 0.412180 0.205683 0.835924
Si Si2 0.089124 0.697240 0.159474
Si Si3 0.334845 0.389573 0.210916
Si Si4 0.349692 0.094341 0.167865
Si Si5 0.083925 0.951442 0.426034
Si Si6 0.191807 0.055781 0.058646
O O1 0.500000 0.198795 0.828816
O O2 0.394243 0.255678 0.754497
O O3 0.375789 0.159669 0.757993
O O4 0.393354 0.207085 0.998159
O O5 0.138587 0.651027 0.207682
O O6 0.000000 0.688051 0.170759
O O7 0.250000 0.383768 0.250000
O O8 0.367247 0.433545 0.302716
O O9 0.340902 0.407796 0.055669
O O10 0.271783 0.078708 0.099444
O O11 0.355380 0.060001 0.301676
O O12 0.410264 0.087480 0.049322
O O13 0.000000 0.959017 0.382910
O O14 0.112871 0.000000 0.500000
O O15 0.197481 0.000000 0.000000
#
# Coordination Sequence:
#
# PCOD9480449 Si02
#       6
#    16  16  16  16  16  16
#     4  10  22  41  65  92 126 171 219 269 333 401
#     4  10  21  41  66  93 125 170 221 271 332 396
#     4  12  23  40  64  95 128 170 217 276 331 396
#     4  11  22  41  64  93 127 171 218 271 323 400
#     4  11  22  39  65  92 124 170 220 270 328 400
#     4  11  25  40  63  94 133 173 216 270 333 399
#
# _framework density 20.021751999999999
#
# number of rings (size 3 to 8) (size 9 to 14) (size 15 to 20)
#    0.000    1.167    3.333    2.500    4.667    0.000 
#    3.000    4.167    0.000    6.000    0.000    0.000 
#    0.000    0.000    0.000    0.000    0.000    0.000 
#
# Total GULP energy -268010.144269 kJ/mol
# GULP energy per Si atom -5583.544672 kJ/mol
# Density = 1.997618 g / cm^3
# Si number density = 20.021752 Si / 1000 Ang^3
#
#
#
# Elastic Constant Matrix: (Units=GPa)
#
#
# Indices 1 2 3 4 5 6 
#
# 1 33.1188 30.7829 20.6730 0.0000 0.0000 0.0000
# 2 30.7829 122.6130 43.5575 0.0000 0.0000 0.0000
# 3 20.6730 43.5575 121.9326 0.0000 0.0000 0.0000
# 4 0.0000 0.0000 0.0000 33.8298 0.0000 0.0000
# 5 0.0000 0.0000 0.0000 0.0000 9.2395 0.0000
# 6 0.0000 0.0000 0.0000 0.0000 0.0000 36.1154
#
#
#
# Elastic Compliance Matrix: (Units=1/GPa)
#
#
# Indices 1 2 3 4 5 6 
#
# 1 0.040817 -0.008921 -0.003733 0.000000 0.000000 0.000000
# 2 -0.008921 0.011291 -0.002521 0.000000 0.000000 0.000000
# 3 -0.003733 -0.002521 0.009735 0.000000 0.000000 0.000000
# 4 0.000000 0.000000 0.000000 0.029560 0.000000 0.000000
# 5 0.000000 0.000000 0.000000 0.000000 0.108231 0.000000
# 6 0.000000 0.000000 0.000000 0.000000 0.000000 0.027689
#
#
# Mechanical properties :
#
#
# Convention : Reuss Voigt Hill
#
# Bulk Modulus (GPa) = 31.75452 51.96568 41.86010
# Shear Modulus (GPa) = 18.64491 28.01366 23.32929
#
# Velocity S-wave (km/s) = 3.05492 3.74459 3.41720
# Velocity P-wave (km/s) = 5.32333 6.68632 6.04338
#
# Compressibility (1/GPa) = 0.03149158
#
# Stress axis : x y z
#
# Youngs Moduli (GPa) = 24.49989 88.56632 102.72461
#
# Poissons Ratio (x) = 0.79010 0.38351
# Poissons Ratio (y) = 0.21856 0.25896
# Poissons Ratio (z) = 0.09147 0.22327
#
# Static dielectric constant tensor:
#      x y z
#    x 1.702420 0.000000 0.000000 
#    y 0.000000 1.791860 0.000000 
#    z 0.000000 0.000000 1.725780 
# 
# From -- ./inp_files/8378.got.cif
#   From: 2010.05.17/outbox.cif.g08.bks.cpg/sg64_5_cif.got.tgz:8378.got - 2010.06.03 16:29:19.
