data_PCOD9480495
_publ_section_title
;
Structure prediction by ZEFSAII (Michael W. Deem and Ramdas Pophale) SiO2 
 PCOD9480495
Probable space group: C M C A
;
_chemical_formula_sum "Si O2"
_cell_formula_units_Z 112
_cell_length_a 17.178341
_cell_length_b 11.296794
_cell_length_c 28.812226
_cell_angle_alpha 90.000000
_cell_angle_beta 90.000000
_cell_angle_gamma 90.000000
_cell_volume 5591.305750
_symmetry_space_group_name_H-M "C M C A"
_symmetry_group_IT_number 64
_symmetry_cell_setting 'orthorhombic'
loop_
_space_group_symop_operation_xyz
x,y,z
-x,1/2-y,1/2+z
x,-y,-z
-x,1/2+y,1/2-z
-x,-y,-z
x,1/2+y,1/2-z
-x,y,z
x,1/2-y,1/2+z
1/2+x,1/2+y,z
1/2-x,-y,1/2+z
1/2+x,1/2-y,-z
1/2-x,y,1/2-z
1/2-x,1/2-y,-z
1/2+x,y,1/2-z
1/2-x,1/2+y,z
1/2+x,-y,1/2+z
loop_
_atom_site_type_symbol
_atom_site_label
_atom_site_fract_x
_atom_site_fract_y
_atom_site_fract_z
Si Si1 0.181233 0.164475 0.141936
Si Si2 0.407478 0.181240 0.926729
Si Si3 0.088173 0.374704 0.790657
Si Si4 0.192194 0.361301 0.987840
Si Si5 0.838235 0.559601 0.113440
Si Si6 0.788361 0.184793 0.794663
Si Si7 0.912882 0.504519 0.700325
O O1 0.138598 0.208913 0.095826
O O2 0.249577 0.069186 0.132115
O O3 0.226810 0.269260 0.168393
O O4 0.116019 0.114647 0.176153
O O5 0.500000 0.189377 0.920671
O O6 0.371421 0.067087 0.900894
O O7 0.382389 0.162338 0.979776
O O8 0.107233 0.397870 0.844399
O O9 0.160306 0.293555 0.775104
O O10 0.090369 0.486446 0.755966
O O11 0.000000 0.325709 0.785296
O O12 0.167741 0.363847 0.933865
O O13 0.218990 0.500000 0.000000
O O14 0.250000 0.250000 0.000000
O O15 0.750000 0.124535 0.750000
O O16 0.853632 0.102850 0.816121
O O17 0.000000 0.532433 0.686845
#
# Coordination Sequence:
#
# PCOD9480495 Si02
#       7
#    16  16  16  16  16  16  16
#     4  11  22  40  61  88 121 159 203 250 301 373
#     4  11  23  39  65  98 123 156 204 262 314 364
#     4  10  22  39  57  85 121 157 198 251 307 359
#     4  10  21  42  66  95 128 165 208 259 320 384
#     4  10  22  37  63  91 122 158 206 250 307 372
#     4  11  23  37  59  81 115 156 210 241 294 354
#     4  11  24  39  57  82 120 160 199 247 303 355
#
# _framework density 20.031099999999999
#
# number of rings (size 3 to 8) (size 9 to 14) (size 15 to 20)
#    0.000    1.429    2.857    2.143    6.000    3.143 
#    0.000    0.000    0.000    0.429    0.000    0.000 
#    0.000    0.000    0.000    0.000    0.000    0.000 
#
# Total GULP energy -312139.331666 kJ/mol
# GULP energy per Si atom -5573.916637 kJ/mol
# Density = 1.998551 g / cm^3
# Si number density = 20.031100 Si / 1000 Ang^3
#
#
#
# Elastic Constant Matrix: (Units=GPa)
#
#
# Indices 1 2 3 4 5 6 
#
# 1 127.3573 24.0634 17.0921 0.0000 0.0000 0.0000
# 2 24.0634 39.5646 -6.1433 0.0000 0.0000 0.0000
# 3 17.0921 -6.1433 72.9423 0.0000 0.0000 0.0000
# 4 0.0000 0.0000 0.0000 6.0964 0.0000 0.0000
# 5 0.0000 0.0000 0.0000 0.0000 18.7044 0.0000
# 6 0.0000 0.0000 0.0000 0.0000 0.0000 10.1297
#
#
#
# Elastic Compliance Matrix: (Units=1/GPa)
#
#
# Indices 1 2 3 4 5 6 
#
# 1 0.009372 -0.006121 -0.002712 0.000000 0.000000 0.000000
# 2 -0.006121 0.029608 0.003928 0.000000 0.000000 0.000000
# 3 -0.002712 0.003928 0.014676 0.000000 0.000000 0.000000
# 4 0.000000 0.000000 0.000000 0.164032 0.000000 0.000000
# 5 0.000000 0.000000 0.000000 0.000000 0.053463 0.000000
# 6 0.000000 0.000000 0.000000 0.000000 0.000000 0.098720
#
#
# Mechanical properties :
#
#
# Convention : Reuss Voigt Hill
#
# Bulk Modulus (GPa) = 22.80710 34.43206 28.61958
# Shear Modulus (GPa) = 12.68078 20.64289 16.66184
#
# Velocity S-wave (km/s) = 2.51879 3.21369 2.88722
# Velocity P-wave (km/s) = 4.45753 5.56750 5.04315
#
# Compressibility (1/GPa) = 0.04384599
#
# Stress axis : x y z
#
# Youngs Moduli (GPa) = 106.69553 33.77456 68.13974
#
# Poissons Ratio (x) = 0.20675 0.18478
# Poissons Ratio (y) = 0.65313 -0.26766
# Poissons Ratio (z) = 0.28933 -0.13267
#
# Static dielectric constant tensor:
#      x y z
#    x 1.701720 0.000000 0.000000 
#    y 0.000000 1.769510 0.000000 
#    z 0.000000 0.000000 1.714770 
# 
# From -- ./inp_files/53244.got.cif
#   From: 2010.05.17/outbox.cif.g08.bks.cpg/sg64_27_cif.got.tgz:53244.got - 2010.06.03 16:29:19.
