data_PCOD9480699
_publ_section_title
;
Structure prediction by ZEFSAII (Michael W. Deem and Ramdas Pophale) SiO2 
 PCOD9480699
Probable space group: C M C A
;
_chemical_formula_sum "Si O2"
_cell_formula_units_Z 88
_cell_length_a 31.679809
_cell_length_b 12.527986
_cell_length_c 8.500781
_cell_angle_alpha 90.000000
_cell_angle_beta 90.000000
_cell_angle_gamma 90.000000
_cell_volume 3373.825697
_symmetry_space_group_name_H-M "C M C A"
_symmetry_group_IT_number 64
_symmetry_cell_setting 'orthorhombic'
loop_
_space_group_symop_operation_xyz
x,y,z
-x,1/2-y,1/2+z
x,-y,-z
-x,1/2+y,1/2-z
-x,-y,-z
x,1/2+y,1/2-z
-x,y,z
x,1/2-y,1/2+z
1/2+x,1/2+y,z
1/2-x,-y,1/2+z
1/2+x,1/2-y,-z
1/2-x,y,1/2-z
1/2-x,1/2-y,-z
1/2+x,y,1/2-z
1/2-x,1/2+y,z
1/2+x,-y,1/2+z
loop_
_atom_site_type_symbol
_atom_site_label
_atom_site_fract_x
_atom_site_fract_y
_atom_site_fract_z
Si Si1 0.500000 0.669227 0.956604
Si Si2 0.315692 0.315400 0.023384
Si Si3 0.750000 0.573524 0.750000
Si Si4 0.181664 0.091992 0.330076
Si Si5 0.910332 0.903937 0.672474
Si Si6 0.500000 0.903405 0.820154
Si Si7 0.908855 0.324308 0.469155
O O1 0.500000 0.795822 0.924937
O O2 0.546672 0.632565 0.898297
O O3 0.500000 0.638476 0.139863
O O4 0.277582 0.360694 0.125779
O O5 0.314905 0.188231 0.046069
O O6 0.361834 0.356188 0.086021
O O7 0.313424 0.351862 0.842621
O O8 0.783083 0.496241 0.834410
O O9 0.134841 0.042132 0.340977
O O10 0.955349 0.960067 0.655116
O O11 0.909944 0.802516 0.556409
O O12 0.910048 0.853903 0.847902
#
# Coordination Sequence:
#
# PCOD9480699 Si02
#       7
#     8  16   8  16  16   8  16
#     4   8  12  20  40  69  99 131 166 204 251 311
#     4  10  22  39  58  81 110 143 182 230 279 328
#     4  12  24  36  56  78 104 144 188 230 276 328
#     4  10  22  39  58  81 110 143 182 230 279 328
#     4   8  14  26  45  71 102 134 169 211 260 314
#     4   8  12  20  40  69  99 131 166 204 251 311
#     4   8  14  26  45  71 102 134 169 211 260 314
#
# _framework density 26.083148999999999
#
# number of rings (size 3 to 8) (size 9 to 14) (size 15 to 20)
#    0.000    2.909    0.000    1.091    0.000    4.364 
#    0.000    0.000    0.000    1.091    0.000    6.364 
#    0.000    0.000    0.000  116.545    0.000   33.818 
#
# Total GULP energy -245954.514384 kJ/mol
# GULP energy per Si atom -5589.875327 kJ/mol
# Density = 2.602378 g / cm^3
# Si number density = 26.083149 Si / 1000 Ang^3
#
#
#
# Elastic Constant Matrix: (Units=GPa)
#
#
# Indices 1 2 3 4 5 6 
#
# 1 293.5926 43.5585 41.0917 0.0000 0.0000 0.0000
# 2 43.5585 62.0692 44.8568 0.0000 0.0000 0.0000
# 3 41.0917 44.8568 76.9201 0.0000 0.0000 0.0000
# 4 0.0000 0.0000 0.0000 47.2197 0.0000 0.0000
# 5 0.0000 0.0000 0.0000 0.0000 32.3615 0.0000
# 6 0.0000 0.0000 0.0000 0.0000 0.0000 256.5191
#
#
#
# Elastic Compliance Matrix: (Units=1/GPa)
#
#
# Indices 1 2 3 4 5 6 
#
# 1 0.003832 -0.002091 -0.000828 0.000000 0.000000 0.000000
# 2 -0.002091 0.028988 -0.015788 0.000000 0.000000 0.000000
# 3 -0.000828 -0.015788 0.022649 0.000000 0.000000 0.000000
# 4 0.000000 0.000000 0.000000 0.021178 0.000000 0.000000
# 5 0.000000 0.000000 0.000000 0.000000 0.030901 0.000000
# 6 0.000000 0.000000 0.000000 0.000000 0.000000 0.003898
#
#
# Mechanical properties :
#
#
# Convention : Reuss Voigt Hill
#
# Bulk Modulus (GPa) = 55.38104 76.84398 66.11251
# Shear Modulus (GPa) = 32.28337 87.42506 59.85421
#
# Velocity S-wave (km/s) = 3.52193 5.79574 4.79555
# Velocity P-wave (km/s) = 6.14957 8.62047 7.48765
#
# Compressibility (1/GPa) = 0.01805672
#
# Stress axis : x y z
#
# Youngs Moduli (GPa) = 260.94821 34.49689 44.15118
#
# Poissons Ratio (x) = 0.07214 0.03655
# Poissons Ratio (y) = 0.54567 0.69704
# Poissons Ratio (z) = 0.21600 0.54463
#
# Static dielectric constant tensor:
#      x y z
#    x 2.114210 0.000000 0.000000 
#    y 0.000000 1.973020 0.000000 
#    z 0.000000 0.000000 2.040450 
# 
# From -- ./inp_files/19723.got.cif
#   From: 2010.05.17/outbox.cif.g08.bks.cpg/sg64_10_cif.got.tgz:19723.got - 2010.06.03 16:29:19.
