data_PCOD9480107
_publ_section_title
;
Structure prediction by ZEFSAII (Michael W. Deem and Ramdas Pophale) SiO2 
 PCOD9480107
Probable space group: C M C A
;
_chemical_formula_sum "Si O2"
_cell_formula_units_Z 88
_cell_length_a 25.601312
_cell_length_b 21.645082
_cell_length_c 5.904744
_cell_angle_alpha 90.000000
_cell_angle_beta 90.000000
_cell_angle_gamma 90.000000
_cell_volume 3272.069588
_symmetry_space_group_name_H-M "C M C A"
_symmetry_group_IT_number 64
_symmetry_cell_setting 'orthorhombic'
loop_
_space_group_symop_operation_xyz
x,y,z
-x,1/2-y,1/2+z
x,-y,-z
-x,1/2+y,1/2-z
-x,-y,-z
x,1/2+y,1/2-z
-x,y,z
x,1/2-y,1/2+z
1/2+x,1/2+y,z
1/2-x,-y,1/2+z
1/2+x,1/2-y,-z
1/2-x,y,1/2-z
1/2-x,1/2-y,-z
1/2+x,y,1/2-z
1/2-x,1/2+y,z
1/2+x,-y,1/2+z
loop_
_atom_site_type_symbol
_atom_site_label
_atom_site_fract_x
_atom_site_fract_y
_atom_site_fract_z
Si Si1 0.559867 0.341270 0.314500
Si Si2 0.223926 0.000000 0.500000
Si Si3 0.147244 0.237072 0.197547
Si Si4 0.445071 0.554509 0.322582
Si Si5 0.250974 0.127306 0.997024
Si Si6 0.364771 0.100530 0.454981
O O1 0.500000 0.329685 0.237505
O O2 0.594670 0.279066 0.318415
O O3 0.555722 0.380447 0.544410
O O4 0.594620 0.384943 0.154121
O O5 0.205208 0.072781 0.500328
O O6 0.250000 0.001257 0.250000
O O7 0.172110 0.249277 0.447049
O O8 0.135842 0.165125 0.182222
O O9 0.447013 0.500000 0.500000
O O10 0.500000 0.553370 0.188741
O O11 0.392028 0.547873 0.186942
O O12 0.250000 0.160170 0.750000
O O13 0.250000 0.157227 0.250000
O O14 0.195030 0.092156 0.985894
#
# Coordination Sequence:
#
# PCOD9480107 Si02
#       6
#    16   8  16  16  16  16
#     4  10  22  39  63  95 131 175 228 285 341 404
#     4   8  16  36  56  86 117 156 211 272 324 376
#     4  10  21  38  63  94 128 168 223 283 327 394
#     4  10  22  40  61  97 143 182 225 275 343 431
#     4  10  23  40  65  93 132 173 226 291 343 411
#     4  11  23  40  66  95 136 179 233 278 357 414
#
# _framework density 26.894290999999999
#
# number of rings (size 3 to 8) (size 9 to 14) (size 15 to 20)
#    0.000    2.000    1.818    0.545    2.545    5.818 
#    6.545    2.727    0.000   13.091    0.000    0.000 
#    0.000    0.000    0.000    0.000    0.000    0.000 
#
# Total GULP energy -245199.991935 kJ/mol
# GULP energy per Si atom -5572.727089 kJ/mol
# Density = 2.683308 g / cm^3
# Si number density = 26.894291 Si / 1000 Ang^3
#
#
#
# Elastic Constant Matrix: (Units=GPa)
#
#
# Indices 1 2 3 4 5 6 
#
# 1 142.2757 3.0184 42.9972 0.0000 0.0000 0.0000
# 2 3.0184 77.8221 29.0645 0.0000 0.0000 0.0000
# 3 42.9972 29.0645 211.4937 0.0000 0.0000 0.0000
# 4 0.0000 0.0000 0.0000 57.3834 0.0000 0.0000
# 5 0.0000 0.0000 0.0000 0.0000 39.6965 0.0000
# 6 0.0000 0.0000 0.0000 0.0000 0.0000 25.9936
#
#
#
# Elastic Compliance Matrix: (Units=1/GPa)
#
#
# Indices 1 2 3 4 5 6 
#
# 1 0.007495 0.000293 -0.001564 0.000000 0.000000 0.000000
# 2 0.000293 0.013557 -0.001923 0.000000 0.000000 0.000000
# 3 -0.001564 -0.001923 0.005310 0.000000 0.000000 0.000000
# 4 0.000000 0.000000 0.000000 0.017427 0.000000 0.000000
# 5 0.000000 0.000000 0.000000 0.000000 0.025191 0.000000
# 6 0.000000 0.000000 0.000000 0.000000 0.000000 0.038471
#
#
# Mechanical properties :
#
#
# Convention : Reuss Voigt Hill
#
# Bulk Modulus (GPa) = 50.06148 64.63907 57.35028
# Shear Modulus (GPa) = 41.49518 48.38213 44.93866
#
# Velocity S-wave (km/s) = 3.93224 4.24603 4.09214
# Velocity P-wave (km/s) = 6.26668 6.93722 6.61046
#
# Compressibility (1/GPa) = 0.01997544
#
# Stress axis : x y z
#
# Youngs Moduli (GPa) = 133.42105 73.76535 188.30697
#
# Poissons Ratio (x) = -0.02165 0.29453
# Poissons Ratio (y) = -0.03915 0.36205
# Poissons Ratio (z) = 0.20868 0.14183
#
# Static dielectric constant tensor:
#      x y z
#    x 2.183380 0.000000 0.000000 
#    y 0.000000 2.091360 0.000000 
#    z 0.000000 0.000000 2.201460 
# 
# From -- ./inp_files/3312.got.cif
#   From: 2010.05.17/outbox.cif.g08.bks.cpg/sg64_2_cif.got.tgz:3312.got - 2010.06.03 16:29:19.
