data_PCOD9480575
_publ_section_title
;
Structure prediction by ZEFSAII (Michael W. Deem and Ramdas Pophale) SiO2 
 PCOD9480575
Probable space group: C M C A
;
_chemical_formula_sum "Si O2"
_cell_formula_units_Z 104
_cell_length_a 22.775077
_cell_length_b 24.699462
_cell_length_c 8.989043
_cell_angle_alpha 90.000000
_cell_angle_beta 90.000000
_cell_angle_gamma 90.000000
_cell_volume 5056.625675
_symmetry_space_group_name_H-M "C M C A"
_symmetry_group_IT_number 64
_symmetry_cell_setting 'orthorhombic'
loop_
_space_group_symop_operation_xyz
x,y,z
-x,1/2-y,1/2+z
x,-y,-z
-x,1/2+y,1/2-z
-x,-y,-z
x,1/2+y,1/2-z
-x,y,z
x,1/2-y,1/2+z
1/2+x,1/2+y,z
1/2-x,-y,1/2+z
1/2+x,1/2-y,-z
1/2-x,y,1/2-z
1/2-x,1/2-y,-z
1/2+x,y,1/2-z
1/2-x,1/2+y,z
1/2+x,-y,1/2+z
loop_
_atom_site_type_symbol
_atom_site_label
_atom_site_fract_x
_atom_site_fract_y
_atom_site_fract_z
Si Si1 0.000000 0.645744 0.239670
Si Si2 0.116768 0.418368 0.252423
Si Si3 0.000000 0.740965 0.897215
Si Si4 0.811803 0.480194 0.670387
Si Si5 0.183786 0.688526 0.808663
Si Si6 0.382965 0.379759 0.909828
Si Si7 0.372498 0.236882 0.525047
Si Si8 0.500000 0.878898 0.108701
O O1 0.942106 0.621862 0.315689
O O2 0.000000 0.709072 0.283608
O O3 0.000000 0.633273 0.066140
O O4 0.143430 0.478073 0.251807
O O5 0.163733 0.373824 0.195912
O O6 0.104349 0.402633 0.424601
O O7 0.057812 0.409917 0.160164
O O8 0.939791 0.746943 0.991779
O O9 0.000000 0.681868 0.821760
O O10 0.805728 0.500000 0.500000
O O11 0.750000 0.482896 0.750000
O O12 0.837009 0.419814 0.665235
O O13 0.250000 0.693555 0.750000
O O14 0.170052 0.716050 0.966053
O O15 0.141343 0.720929 0.694010
O O16 0.360740 0.318696 0.934451
#
# Coordination Sequence:
#
# PCOD9480575 Si02
#       8
#     8  16   8  16  16  16  16   8
#     4  10  23  37  60  92 123 156 201 256 307 368
#     4  10  22  40  61  89 120 162 207 250 311 373
#     4  10  22  36  58  88 124 158 200 248 314 366
#     4  10  22  42  66  89 119 164 210 255 305 366
#     4  11  22  37  56  84 121 158 198 250 301 365
#     4   9  21  40  60  86 123 161 199 250 312 368
#     4  10  22  36  59  86 119 157 201 248 303 369
#     4  12  23  37  64  92 121 162 205 258 311 368
#
# _framework density 20.567074000000002
#
# number of rings (size 3 to 8) (size 9 to 14) (size 15 to 20)
#    0.000    1.846    1.538    1.385    4.308    5.538 
#    0.000    4.615    0.000    0.000    0.000    0.000 
#    0.000    0.000    0.000    0.000    0.000    0.000 
#
# Total GULP energy -290793.348145 kJ/mol
# GULP energy per Si atom -5592.179772 kJ/mol
# Density = 2.052026 g / cm^3
# Si number density = 20.567074 Si / 1000 Ang^3
#
#
#
# Elastic Constant Matrix: (Units=GPa)
#
#
# Indices 1 2 3 4 5 6 
#
# 1 97.1832 24.2901 15.6617 0.0000 0.0000 0.0000
# 2 24.2901 73.1913 11.7213 0.0000 0.0000 0.0000
# 3 15.6617 11.7213 26.2404 0.0000 0.0000 0.0000
# 4 0.0000 0.0000 0.0000 20.7296 0.0000 0.0000
# 5 0.0000 0.0000 0.0000 0.0000 30.7232 0.0000
# 6 0.0000 0.0000 0.0000 0.0000 0.0000 -41.9758
#
#
#
# Elastic Compliance Matrix: (Units=1/GPa)
#
#
# Indices 1 2 3 4 5 6 
#
# 1 0.011985 -0.003050 -0.005791 0.000000 0.000000 0.000000
# 2 -0.003050 0.015492 -0.005099 0.000000 0.000000 0.000000
# 3 -0.005791 -0.005099 0.043843 0.000000 0.000000 0.000000
# 4 0.000000 0.000000 0.000000 0.048240 0.000000 0.000000
# 5 0.000000 0.000000 0.000000 0.000000 0.032549 0.000000
# 6 0.000000 0.000000 0.000000 0.000000 0.000000 -0.023823
#
#
# Mechanical properties :
#
#
# Convention : Reuss Voigt Hill
#
# Bulk Modulus (GPa) = 23.02069 33.32899 28.17484
# Shear Modulus (GPa) = 29.30018 11.55820 20.42919
#
# Velocity S-wave (km/s) = 3.77850 2.37317 3.15508
# Velocity P-wave (km/s) = 5.50031 4.87334 5.19629
#
# Compressibility (1/GPa) = 0.04343919
#
# Stress axis : x y z
#
# Youngs Moduli (GPa) = 83.43418 64.55042 22.80845
#
# Poissons Ratio (x) = 0.19689 0.13209
# Poissons Ratio (y) = 0.25449 0.11631
# Poissons Ratio (z) = 0.48317 0.32917
#
# Static dielectric constant tensor:
#      x y z
#    x 1.695450 0.000000 0.000000 
#    y 0.000000 1.721470 0.000000 
#    z 0.000000 0.000000 1.753660 
# 
# From -- ./inp_files/8581.got.cif
#   From: 2010.05.17/outbox.cif.g08.bks.cpg/sg64_5_cif.got.tgz:8581.got - 2010.06.03 16:29:19.
