data_PCOD9480571
_publ_section_title
;
Structure prediction by ZEFSAII (Michael W. Deem and Ramdas Pophale) SiO2 
 PCOD9480571
Probable space group: C M C A
;
_chemical_formula_sum "Si O2"
_cell_formula_units_Z 56
_cell_length_a 10.855593
_cell_length_b 20.845466
_cell_length_c 10.368909
_cell_angle_alpha 90.000000
_cell_angle_beta 90.000000
_cell_angle_gamma 90.000000
_cell_volume 2346.379327
_symmetry_space_group_name_H-M "C M C A"
_symmetry_group_IT_number 64
_symmetry_cell_setting 'orthorhombic'
loop_
_space_group_symop_operation_xyz
x,y,z
-x,1/2-y,1/2+z
x,-y,-z
-x,1/2+y,1/2-z
-x,-y,-z
x,1/2+y,1/2-z
-x,y,z
x,1/2-y,1/2+z
1/2+x,1/2+y,z
1/2-x,-y,1/2+z
1/2+x,1/2-y,-z
1/2-x,y,1/2-z
1/2-x,1/2-y,-z
1/2+x,y,1/2-z
1/2-x,1/2+y,z
1/2+x,-y,1/2+z
loop_
_atom_site_type_symbol
_atom_site_label
_atom_site_fract_x
_atom_site_fract_y
_atom_site_fract_z
Si Si1 0.500000 0.318297 0.518893
Si Si2 0.500000 0.166276 0.492863
Si Si3 0.500000 0.890780 0.230949
Si Si4 0.249169 0.305875 0.606622
Si Si5 0.355949 0.507460 0.348483
O O1 0.500000 0.241439 0.536258
O O2 0.500000 0.331581 0.366946
O O3 0.374468 0.344058 0.580492
O O4 0.500000 0.126751 0.621883
O O5 0.624023 0.155742 0.413712
O O6 0.616871 0.934511 0.197964
O O7 0.250000 0.278393 0.750000
O O8 0.250000 0.250000 0.500000
O O9 0.320748 0.500000 0.500000
O O10 0.500000 0.533454 0.341609
O O11 0.250000 0.533282 0.250000
#
# Coordination Sequence:
#
# PCOD9480571 Si02
#       5
#     8   8   8  16  16
#     4  10  23  33  59  81 126 167 215 255 292 358
#     4  10  23  33  61  85 126 176 218 255 304 365
#     4  10  23  40  67  94 131 172 222 246 330 390
#     4  10  22  36  55  78 115 168 224 264 310 344
#     4   9  21  42  73 102 127 163 210 276 344 405
#
# _framework density 23.86656
#
# number of rings (size 3 to 8) (size 9 to 14) (size 15 to 20)
#    0.857    1.429    0.000    0.857   20.000    0.571 
#    0.000    1.429    6.286    0.000    0.000    0.000 
#    0.000    0.000    0.000    0.000    0.000    0.000 
#
# Total GULP energy -156240.919397 kJ/mol
# GULP energy per Si atom -5580.032836 kJ/mol
# Density = 2.381224 g / cm^3
# Si number density = 23.866560 Si / 1000 Ang^3
#
#
#
# Elastic Constant Matrix: (Units=GPa)
#
#
# Indices 1 2 3 4 5 6 
#
# 1 228.0496 10.7658 90.6969 0.0000 0.0000 0.0000
# 2 10.7658 46.6505 29.1465 0.0000 0.0000 0.0000
# 3 90.6969 29.1465 214.7532 0.0000 0.0000 0.0000
# 4 0.0000 0.0000 0.0000 33.9395 0.0000 0.0000
# 5 0.0000 0.0000 0.0000 0.0000 34.4825 0.0000
# 6 0.0000 0.0000 0.0000 0.0000 0.0000 15.5254
#
#
#
# Elastic Compliance Matrix: (Units=1/GPa)
#
#
# Indices 1 2 3 4 5 6 
#
# 1 0.005272 0.000191 -0.002252 0.000000 0.000000 0.000000
# 2 0.000191 0.023429 -0.003260 0.000000 0.000000 0.000000
# 3 -0.002252 -0.003260 0.006050 0.000000 0.000000 0.000000
# 4 0.000000 0.000000 0.000000 0.029464 0.000000 0.000000
# 5 0.000000 0.000000 0.000000 0.000000 0.029000 0.000000
# 6 0.000000 0.000000 0.000000 0.000000 0.000000 0.064410
#
#
# Mechanical properties :
#
#
# Convention : Reuss Voigt Hill
#
# Bulk Modulus (GPa) = 41.48175 83.40796 62.44485
# Shear Modulus (GPa) = 28.35986 40.71243 34.53615
#
# Velocity S-wave (km/s) = 3.45087 4.13466 3.80814
# Velocity P-wave (km/s) = 5.77030 7.60377 6.74958
#
# Compressibility (1/GPa) = 0.02410699
#
# Stress axis : x y z
#
# Youngs Moduli (GPa) = 189.68977 42.68214 165.28340
#
# Poissons Ratio (x) = -0.00814 0.37227
# Poissons Ratio (y) = -0.03616 0.53887
# Poissons Ratio (z) = 0.42724 0.13916
#
# Static dielectric constant tensor:
#      x y z
#    x 2.025760 0.000000 0.000000 
#    y 0.000000 2.003110 0.000000 
#    z 0.000000 0.000000 1.825740 
# 
# From -- ./inp_files/4584.got.cif
#   From: 2010.05.17/outbox.cif.g08.bks.cpg/sg64_3_cif.got.tgz:4584.got - 2010.06.03 16:29:19.
