data_PCOD9480475
_publ_section_title
;
Structure prediction by ZEFSAII (Michael W. Deem and Ramdas Pophale) SiO2 
 PCOD9480475
Probable space group: C M C A
;
_chemical_formula_sum "Si O2"
_cell_formula_units_Z 60
_cell_length_a 15.428632
_cell_length_b 36.455022
_cell_length_c 5.256709
_cell_angle_alpha 90.000000
_cell_angle_beta 90.000000
_cell_angle_gamma 90.000000
_cell_volume 2956.641859
_symmetry_space_group_name_H-M "C M C A"
_symmetry_group_IT_number 64
_symmetry_cell_setting 'orthorhombic'
loop_
_space_group_symop_operation_xyz
x,y,z
-x,1/2-y,1/2+z
x,-y,-z
-x,1/2+y,1/2-z
-x,-y,-z
x,1/2+y,1/2-z
-x,y,z
x,1/2-y,1/2+z
1/2+x,1/2+y,z
1/2-x,-y,1/2+z
1/2+x,1/2-y,-z
1/2-x,y,1/2-z
1/2-x,1/2-y,-z
1/2+x,y,1/2-z
1/2-x,1/2+y,z
1/2+x,-y,1/2+z
loop_
_atom_site_type_symbol
_atom_site_label
_atom_site_fract_x
_atom_site_fract_y
_atom_site_fract_z
Si Si1 0.500000 0.000000 0.000000
Si Si2 0.601477 0.225490 0.186748
Si Si3 0.750000 0.834167 0.750000
Si Si4 0.594460 0.561501 0.797413
Si Si5 0.750000 0.116478 0.750000
Si Si6 0.192599 0.500000 0.500000
O O1 0.426967 0.969667 0.089907
O O2 0.500000 0.214435 0.194787
O O3 0.616655 0.253069 0.422775
O O4 0.666573 0.191808 0.213073
O O5 0.739513 0.858949 0.500255
O O6 0.500000 0.577647 0.866295
O O7 0.665423 0.590859 0.721473
O O8 0.632609 0.536100 0.021813
O O9 0.250000 0.504605 0.750000
#
# Coordination Sequence:
#
# PCOD9480475 Si02
#       6
#     4  16   8  16   8   8
#     4   8  22  46  70  94 122 170 246 306 338 386
#     4  10  21  41  73 104 130 171 229 277 316 379
#     4  12  26  43  65  98 144 184 212 266 344 414
#     4  10  24  44  66 100 123 177 230 296 353 406
#     4  12  28  43  63  96 142 188 218 270 356 434
#     4  12  24  42  72  96 126 160 226 306 352 398
#
# _framework density 20.293291
#
# number of rings (size 3 to 8) (size 9 to 14) (size 15 to 20)
#    0.800    0.533    1.333    3.600    1.867    2.133 
#    0.000    0.000    0.000    0.000    0.000    0.000 
#    0.000    0.000    0.000    0.000    0.000    0.000 
#
# Total GULP energy -167038.679861 kJ/mol
# GULP energy per Si atom -5567.955995 kJ/mol
# Density = 2.024710 g / cm^3
# Si number density = 20.293291 Si / 1000 Ang^3
#
#
#
# Elastic Constant Matrix: (Units=GPa)
#
#
# Indices 1 2 3 4 5 6 
#
# 1 137.5492 59.4397 16.4096 0.0000 0.0000 0.0000
# 2 59.4397 97.3683 19.7300 0.0000 0.0000 0.0000
# 3 16.4096 19.7300 94.1305 0.0000 0.0000 0.0000
# 4 0.0000 0.0000 0.0000 34.8648 0.0000 0.0000
# 5 0.0000 0.0000 0.0000 0.0000 -10.4713 0.0000
# 6 0.0000 0.0000 0.0000 0.0000 0.0000 -2.0133
#
#
#
# Elastic Compliance Matrix: (Units=1/GPa)
#
#
# Indices 1 2 3 4 5 6 
#
# 1 0.009896 -0.005944 -0.000479 0.000000 0.000000 0.000000
# 2 -0.005944 0.014296 -0.001960 0.000000 0.000000 0.000000
# 3 -0.000479 -0.001960 0.011118 0.000000 0.000000 0.000000
# 4 0.000000 0.000000 0.000000 0.028682 0.000000 0.000000
# 5 0.000000 0.000000 0.000000 0.000000 -0.095499 0.000000
# 6 0.000000 0.000000 0.000000 0.000000 0.000000 -0.496702
#
#
# Mechanical properties :
#
#
# Convention : Reuss Voigt Hill
#
# Bulk Modulus (GPa) = 53.92898 57.80074 55.86486
# Shear Modulus (GPa) = -9.89587 20.04063 5.07238
#
# Velocity S-wave (km/s) = -2.21066 3.14594 1.58271
# Velocity P-wave (km/s) = 4.48514 6.46068 5.56133
#
# Compressibility (1/GPa) = 0.01854291
#
# Stress axis : x y z
#
# Youngs Moduli (GPa) = 101.05208 69.94936 89.94444
#
# Poissons Ratio (x) = 0.41578 0.04311
# Poissons Ratio (y) = 0.60065 0.17632
# Poissons Ratio (z) = 0.04843 0.13712
#
# Static dielectric constant tensor:
#      x y z
#    x 1.648250 0.000000 0.000000 
#    y 0.000000 1.694630 0.000000 
#    z 0.000000 0.000000 1.766520 
# 
# From -- ./inp_files/1285.got.cif
#   From: 2010.05.17/outbox.cif.g08.bks.cpg/sg64_1_cif.got.tgz:1285.got - 2010.06.03 16:29:19.
