data_PCOD9480376
_publ_section_title
;
Structure prediction by ZEFSAII (Michael W. Deem and Ramdas Pophale) SiO2 
 PCOD9480376
Probable space group: C M C A
;
_chemical_formula_sum "Si O2"
_cell_formula_units_Z 72
_cell_length_a 14.557057
_cell_length_b 27.920456
_cell_length_c 9.098758
_cell_angle_alpha 90.000000
_cell_angle_beta 90.000000
_cell_angle_gamma 90.000000
_cell_volume 3698.096194
_symmetry_space_group_name_H-M "C M C A"
_symmetry_group_IT_number 64
_symmetry_cell_setting 'orthorhombic'
loop_
_space_group_symop_operation_xyz
x,y,z
-x,1/2-y,1/2+z
x,-y,-z
-x,1/2+y,1/2-z
-x,-y,-z
x,1/2+y,1/2-z
-x,y,z
x,1/2-y,1/2+z
1/2+x,1/2+y,z
1/2-x,-y,1/2+z
1/2+x,1/2-y,-z
1/2-x,y,1/2-z
1/2-x,1/2-y,-z
1/2+x,y,1/2-z
1/2-x,1/2+y,z
1/2+x,-y,1/2+z
loop_
_atom_site_type_symbol
_atom_site_label
_atom_site_fract_x
_atom_site_fract_y
_atom_site_fract_z
Si Si1 0.148911 0.798402 0.822858
Si Si2 0.639860 0.095692 0.234406
Si Si3 0.000000 0.442040 0.997989
Si Si4 0.000000 0.053293 0.053855
Si Si5 0.351087 0.798085 0.320951
Si Si6 0.500000 0.622008 0.780244
O O1 0.250000 0.798985 0.750000
O O2 0.110262 0.849724 0.773563
O O3 0.108045 0.750636 0.749898
O O4 0.152364 0.794697 0.000487
O O5 0.750000 0.092778 0.250000
O O6 0.590868 0.078517 0.084972
O O7 0.590872 0.061875 0.351422
O O8 0.000000 0.500000 0.000000
O O9 0.000000 0.417940 0.155931
O O10 0.000000 0.093370 0.930714
O O11 0.000000 0.000000 0.000000
O O12 0.250000 0.803848 0.250000
O O13 0.412598 0.843031 0.276526
#
# Coordination Sequence:
#
# PCOD9480376 Si02
#       6
#    16  16   8   8  16   8
#     4  10  21  40  67  95 132 173 213 259 319 376
#     4  10  23  44  71  93 127 174 214 257 330 386
#     4  11  27  46  66  95 133 163 220 279 327 373
#     4  11  23  46  66  92 131 164 211 285 318 373
#     4  11  24  40  64  99 136 170 213 262 316 385
#     4  12  26  38  66  99 124 171 219 258 329 396
#
# _framework density 19.469477999999999
#
# number of rings (size 3 to 8) (size 9 to 14) (size 15 to 20)
#    0.000    1.333    2.222    4.000    9.333    3.556 
#    0.000    2.222    0.000    0.000    0.000    0.000 
#    0.000    0.000    0.000    0.000    0.000    0.000 
#
# Total GULP energy -200884.555577 kJ/mol
# GULP energy per Si atom -5580.126544 kJ/mol
# Density = 1.942516 g / cm^3
# Si number density = 19.469478 Si / 1000 Ang^3
#
#
#
# Elastic Constant Matrix: (Units=GPa)
#
#
# Indices 1 2 3 4 5 6 
#
# 1 115.2996 20.4002 18.5051 0.0000 0.0000 0.0000
# 2 20.4002 107.4670 14.7356 0.0000 0.0000 0.0000
# 3 18.5051 14.7356 106.4135 0.0000 0.0000 0.0000
# 4 0.0000 0.0000 0.0000 40.6053 0.0000 0.0000
# 5 0.0000 0.0000 0.0000 0.0000 53.5529 0.0000
# 6 0.0000 0.0000 0.0000 0.0000 0.0000 43.8101
#
#
#
# Elastic Compliance Matrix: (Units=1/GPa)
#
#
# Indices 1 2 3 4 5 6 
#
# 1 0.009169 -0.001551 -0.001380 0.000000 0.000000 0.000000
# 2 -0.001551 0.009748 -0.001080 0.000000 0.000000 0.000000
# 3 -0.001380 -0.001080 0.009787 0.000000 0.000000 0.000000
# 4 0.000000 0.000000 0.000000 0.024627 0.000000 0.000000
# 5 0.000000 0.000000 0.000000 0.000000 0.018673 0.000000
# 6 0.000000 0.000000 0.000000 0.000000 0.000000 0.022826
#
#
# Mechanical properties :
#
#
# Convention : Reuss Voigt Hill
#
# Bulk Modulus (GPa) = 48.35254 48.49577 48.42415
# Shear Modulus (GPa) = 45.55989 45.96293 45.76141
#
# Velocity S-wave (km/s) = 4.84267 4.86405 4.85337
# Velocity P-wave (km/s) = 7.49384 7.51718 7.50552
#
# Compressibility (1/GPa) = 0.02068144
#
# Stress axis : x y z
#
# Youngs Moduli (GPa) = 109.06354 102.58759 102.17864
#
# Poissons Ratio (x) = 0.15915 0.14097
# Poissons Ratio (y) = 0.16920 0.11036
# Poissons Ratio (z) = 0.15047 0.11080
#
# Static dielectric constant tensor:
#      x y z
#    x 1.663790 0.000000 0.000000 
#    y 0.000000 1.702020 0.000000 
#    z 0.000000 0.000000 1.678650 
# 
# From -- ./inp_files/5869.got.cif
#   From: 2010.05.17/outbox.cif.g08.bks.cpg/sg64_3_cif.got.tgz:5869.got - 2010.06.03 16:29:19.
