data_PCOD9480085
_publ_section_title
;
Structure prediction by ZEFSAII (Michael W. Deem and Ramdas Pophale) SiO2 
 PCOD9480085
Probable space group: C M C A
;
_chemical_formula_sum "Si O2"
_cell_formula_units_Z 112
_cell_length_a 15.739158
_cell_length_b 29.139787
_cell_length_c 11.235631
_cell_angle_alpha 90.000000
_cell_angle_beta 90.000000
_cell_angle_gamma 90.000000
_cell_volume 5153.061620
_symmetry_space_group_name_H-M "C M C A"
_symmetry_group_IT_number 64
_symmetry_cell_setting 'orthorhombic'
loop_
_space_group_symop_operation_xyz
x,y,z
-x,1/2-y,1/2+z
x,-y,-z
-x,1/2+y,1/2-z
-x,-y,-z
x,1/2+y,1/2-z
-x,y,z
x,1/2-y,1/2+z
1/2+x,1/2+y,z
1/2-x,-y,1/2+z
1/2+x,1/2-y,-z
1/2-x,y,1/2-z
1/2-x,1/2-y,-z
1/2+x,y,1/2-z
1/2-x,1/2+y,z
1/2+x,-y,1/2+z
loop_
_atom_site_type_symbol
_atom_site_label
_atom_site_fract_x
_atom_site_fract_y
_atom_site_fract_z
Si Si1 0.175721 0.225834 0.340464
Si Si2 0.230570 0.184243 0.948066
Si Si3 0.907470 0.552274 0.542394
Si Si4 0.594084 0.667373 0.155125
Si Si5 0.098185 0.582104 0.179058
Si Si6 0.596364 0.526216 0.687175
Si Si7 0.777567 0.412536 0.036017
O O1 0.250000 0.210388 0.250000
O O2 0.188433 0.280227 0.356621
O O3 0.193302 0.207337 0.473783
O O4 0.100105 0.203265 0.266617
O O5 0.264348 0.136156 0.899098
O O6 0.159675 0.175154 0.048950
O O7 0.910204 0.500000 0.500000
O O8 0.903819 0.550834 0.685626
O O9 0.816909 0.571379 0.503749
O O10 0.000000 0.572691 0.506931
O O11 0.500000 0.671379 0.105180
O O12 0.607654 0.617360 0.213125
O O13 0.111294 0.528165 0.206204
O O14 0.000000 0.586650 0.137884
O O15 0.166059 0.596081 0.080407
O O16 0.500000 0.530936 0.635916
O O17 0.669481 0.549265 0.608345
#
# Coordination Sequence:
#
# PCOD9480085 Si02
#       7
#    16  16  16  16  16  16  16
#     4   9  19  41  62  86 120 162 200 256 319 383
#     4  10  22  37  62  91 124 157 206 259 319 386
#     4  10  23  40  55  80 121 167 208 253 312 376
#     4  10  21  39  64  94 125 162 211 264 324 391
#     4  10  21  38  62  91 124 162 211 271 321 370
#     4  10  22  40  60  86 125 166 215 270 317 372
#     4  12  22  36  61  92 121 164 210 259 316 382
#
# _framework density 21.734652000000001
#
# number of rings (size 3 to 8) (size 9 to 14) (size 15 to 20)
#    0.000    1.857    1.429    2.143    2.000    3.429 
#    0.000    0.000    0.000    4.286    0.000    0.000 
#    0.000    0.000    0.000    0.000    0.000    0.000 
#
# Total GULP energy -312525.930942 kJ/mol
# GULP energy per Si atom -5580.820195 kJ/mol
# Density = 2.168518 g / cm^3
# Si number density = 21.734652 Si / 1000 Ang^3
#
#
#
# Elastic Constant Matrix: (Units=GPa)
#
#
# Indices 1 2 3 4 5 6 
#
# 1 123.2523 31.7588 31.0641 0.0000 0.0000 0.0000
# 2 31.7588 92.5148 2.1145 0.0000 0.0000 0.0000
# 3 31.0641 2.1145 49.8278 0.0000 0.0000 0.0000
# 4 0.0000 0.0000 0.0000 39.0697 0.0000 0.0000
# 5 0.0000 0.0000 0.0000 0.0000 3.7026 0.0000
# 6 0.0000 0.0000 0.0000 0.0000 0.0000 16.7540
#
#
#
# Elastic Compliance Matrix: (Units=1/GPa)
#
#
# Indices 1 2 3 4 5 6 
#
# 1 0.010654 -0.003509 -0.006493 0.000000 0.000000 0.000000
# 2 -0.003509 0.011975 0.001679 0.000000 0.000000 0.000000
# 3 -0.006493 0.001679 0.024046 0.000000 0.000000 0.000000
# 4 0.000000 0.000000 0.000000 0.025595 0.000000 0.000000
# 5 0.000000 0.000000 0.000000 0.000000 0.270081 0.000000
# 6 0.000000 0.000000 0.000000 0.000000 0.000000 0.059687
#
#
# Mechanical properties :
#
#
# Convention : Reuss Voigt Hill
#
# Bulk Modulus (GPa) = 33.30025 43.94106 38.62066
# Shear Modulus (GPa) = 11.66332 25.28244 18.47288
#
# Velocity S-wave (km/s) = 2.31903 3.41432 2.91851
# Velocity P-wave (km/s) = 4.74606 5.98368 5.40044
#
# Compressibility (1/GPa) = 0.03002980
#
# Stress axis : x y z
#
# Youngs Moduli (GPa) = 93.86035 83.50539 41.58718
#
# Poissons Ratio (x) = 0.29302 0.27003
# Poissons Ratio (y) = 0.32935 -0.06984
# Poissons Ratio (z) = 0.60945 -0.14024
#
# Static dielectric constant tensor:
#      x y z
#    x 1.819540 0.000000 0.000000 
#    y 0.000000 1.830630 0.000000 
#    z 0.000000 0.000000 1.805410 
# 
# From -- ./inp_files/14966.got.cif
#   From: 2010.05.17/outbox.cif.g08.bks.cpg/sg64_8_cif.got.tgz:14966.got - 2010.06.03 16:29:19.
