data_PCOD9480068
_publ_section_title
;
Structure prediction by ZEFSAII (Michael W. Deem and Ramdas Pophale) SiO2 
 PCOD9480068
Probable space group: C M C A
;
_chemical_formula_sum "Si O2"
_cell_formula_units_Z 72
_cell_length_a 21.841640
_cell_length_b 9.344790
_cell_length_c 14.322944
_cell_angle_alpha 90.000000
_cell_angle_beta 90.000000
_cell_angle_gamma 90.000000
_cell_volume 2923.392206
_symmetry_space_group_name_H-M "C M C A"
_symmetry_group_IT_number 64
_symmetry_cell_setting 'orthorhombic'
loop_
_space_group_symop_operation_xyz
x,y,z
-x,1/2-y,1/2+z
x,-y,-z
-x,1/2+y,1/2-z
-x,-y,-z
x,1/2+y,1/2-z
-x,y,z
x,1/2-y,1/2+z
1/2+x,1/2+y,z
1/2-x,-y,1/2+z
1/2+x,1/2-y,-z
1/2-x,y,1/2-z
1/2-x,1/2-y,-z
1/2+x,y,1/2-z
1/2-x,1/2+y,z
1/2+x,-y,1/2+z
loop_
_atom_site_type_symbol
_atom_site_label
_atom_site_fract_x
_atom_site_fract_y
_atom_site_fract_z
Si Si1 0.612530 0.839164 0.005987
Si Si2 0.000000 0.935961 0.760376
Si Si3 0.177005 0.806132 0.316774
Si Si4 0.584701 0.808049 0.330598
Si Si5 0.760054 0.572034 0.089234
O O1 0.581483 0.723742 0.940604
O O2 0.681632 0.854649 0.963479
O O3 0.618013 0.802073 0.114039
O O4 0.585259 0.000000 0.000000
O O5 0.947339 0.046934 0.800176
O O6 0.947687 0.828487 0.716190
O O7 0.153144 0.807451 0.212132
O O8 0.218580 0.676613 0.351327
O O9 0.211195 0.951360 0.344849
O O10 0.725717 0.500000 0.000000
#
# Coordination Sequence:
#
# PCOD9480068 Si02
#       5
#    16   8  16  16  16
#     4   9  19  39  64  91 126 170 207 246 309 385
#     4  10  24  44  63  90 123 154 212 286 318 344
#     4  10  21  38  61  91 126 162 202 247 304 374
#     4  11  23  44  67  89 123 166 213 268 321 371
#     4   9  18  36  58  89 130 163 196 244 296 369
#
# _framework density 24.628923
#
# number of rings (size 3 to 8) (size 9 to 14) (size 15 to 20)
#    0.000    2.667    0.000    5.333    0.000    4.444 
#    0.000   24.444    0.000    0.000    0.000    0.000 
#    0.000    0.000    0.000    0.000    0.000    0.000 
#
# Total GULP energy -200437.332241 kJ/mol
# GULP energy per Si atom -5567.703673 kJ/mol
# Density = 2.457287 g / cm^3
# Si number density = 24.628923 Si / 1000 Ang^3
#
#
#
# Elastic Constant Matrix: (Units=GPa)
#
#
# Indices 1 2 3 4 5 6 
#
# 1 37.6287 -5.1853 -2.5787 0.0000 0.0000 0.0000
# 2 -5.1853 49.5331 7.4468 0.0000 0.0000 0.0000
# 3 -2.5787 7.4468 87.8647 0.0000 0.0000 0.0000
# 4 0.0000 0.0000 0.0000 17.0358 0.0000 0.0000
# 5 0.0000 0.0000 0.0000 0.0000 -13.1258 0.0000
# 6 0.0000 0.0000 0.0000 0.0000 0.0000 7.6826
#
#
#
# Elastic Compliance Matrix: (Units=1/GPa)
#
#
# Indices 1 2 3 4 5 6 
#
# 1 0.026992 0.002741 0.000560 0.000000 0.000000 0.000000
# 2 0.002741 0.020727 -0.001676 0.000000 0.000000 0.000000
# 3 0.000560 -0.001676 0.011540 0.000000 0.000000 0.000000
# 4 0.000000 0.000000 0.000000 0.058700 0.000000 0.000000
# 5 0.000000 0.000000 0.000000 0.000000 -0.076186 0.000000
# 6 0.000000 0.000000 0.000000 0.000000 0.000000 0.130165
#
#
# Mechanical properties :
#
#
# Convention : Reuss Voigt Hill
#
# Bulk Modulus (GPa) = 15.99778 19.37690 17.68734
# Shear Modulus (GPa) = 26.38194 14.00810 20.19502
#
# Velocity S-wave (km/s) = 3.27643 2.38747 2.86662
# Velocity P-wave (km/s) = 4.56322 3.93505 4.26073
#
# Compressibility (1/GPa) = 0.06250866
#
# Stress axis : x y z
#
# Youngs Moduli (GPa) = 37.04853 48.24510 86.65784
#
# Poissons Ratio (x) = -0.13226 -0.04851
# Poissons Ratio (y) = -0.10156 0.14526
# Poissons Ratio (z) = -0.02074 0.08087
#
# Static dielectric constant tensor:
#      x y z
#    x 1.992630 0.000000 0.000000 
#    y 0.000000 1.931910 0.000000 
#    z 0.000000 0.000000 2.022180 
# 
# From -- ./inp_files/27802.got.cif
#   From: 2010.05.17/outbox.cif.g08.bks.cpg/sg64_14_cif.got.tgz:27802.got - 2010.06.03 16:29:19.
