data_PCOD9480776
_publ_section_title
;
Structure prediction by ZEFSAII (Michael W. Deem and Ramdas Pophale) SiO2 
 PCOD9480776
Probable space group: C M C A
;
_chemical_formula_sum "Si O2"
_cell_formula_units_Z 64
_cell_length_a 13.678363
_cell_length_b 7.864788
_cell_length_c 22.791931
_cell_angle_alpha 90.000000
_cell_angle_beta 90.000000
_cell_angle_gamma 90.000000
_cell_volume 2451.897252
_symmetry_space_group_name_H-M "C M C A"
_symmetry_group_IT_number 64
_symmetry_cell_setting 'orthorhombic'
loop_
_space_group_symop_operation_xyz
x,y,z
-x,1/2-y,1/2+z
x,-y,-z
-x,1/2+y,1/2-z
-x,-y,-z
x,1/2+y,1/2-z
-x,y,z
x,1/2-y,1/2+z
1/2+x,1/2+y,z
1/2-x,-y,1/2+z
1/2+x,1/2-y,-z
1/2-x,y,1/2-z
1/2-x,1/2-y,-z
1/2+x,y,1/2-z
1/2-x,1/2+y,z
1/2+x,-y,1/2+z
loop_
_atom_site_type_symbol
_atom_site_label
_atom_site_fract_x
_atom_site_fract_y
_atom_site_fract_z
Si Si1 0.114463 0.577509 0.595392
Si Si2 0.723801 0.852147 0.682135
Si Si3 0.883598 0.535217 0.873584
Si Si4 0.885725 0.766408 0.483810
O O1 0.166725 0.514647 0.654785
O O2 0.117011 0.400055 0.557750
O O3 0.156603 0.708425 0.546125
O O4 0.000000 0.615962 0.606426
O O5 0.750000 0.861926 0.750000
O O6 0.828482 0.869326 0.649411
O O7 0.657033 0.690787 0.666120
O O8 0.855152 0.581684 0.940570
O O9 0.000000 0.526061 0.869691
O O10 0.000000 0.798409 0.496273
#
# Coordination Sequence:
#
# PCOD9480776 Si02
#       4
#    16  16  16  16
#     4   8  14  28  53  82 111 143 183 233 280 329
#     4  11  22  37  57  85 116 152 196 229 276 347
#     4  10  22  40  60  84 116 149 188 241 285 330
#     4   7  12  27  52  80 107 140 183 228 282 335
#
# _framework density 26.102235
#
# number of rings (size 3 to 8) (size 9 to 14) (size 15 to 20)
#    0.000    3.000    0.000    4.500    0.000    3.000 
#    0.000    2.500    0.000    0.000    0.000   19.250 
#    0.000    0.000    0.000    0.000    0.000    0.000 
#
# Total GULP energy -179012.402780 kJ/mol
# GULP energy per Si atom -5594.137587 kJ/mol
# Density = 2.604283 g / cm^3
# Si number density = 26.102235 Si / 1000 Ang^3
#
#
#
# Elastic Constant Matrix: (Units=GPa)
#
#
# Indices 1 2 3 4 5 6 
#
# 1 164.8492 11.8288 51.1116 0.0000 0.0000 0.0000
# 2 11.8288 131.8519 31.4814 0.0000 0.0000 0.0000
# 3 51.1116 31.4814 232.2766 0.0000 0.0000 0.0000
# 4 0.0000 0.0000 0.0000 31.5773 0.0000 0.0000
# 5 0.0000 0.0000 0.0000 0.0000 54.6998 0.0000
# 6 0.0000 0.0000 0.0000 0.0000 0.0000 35.2798
#
#
#
# Elastic Compliance Matrix: (Units=1/GPa)
#
#
# Indices 1 2 3 4 5 6 
#
# 1 0.006518 -0.000250 -0.001400 0.000000 0.000000 0.000000
# 2 -0.000250 0.007848 -0.001009 0.000000 0.000000 0.000000
# 3 -0.001400 -0.001009 0.004750 0.000000 0.000000 0.000000
# 4 0.000000 0.000000 0.000000 0.031668 0.000000 0.000000
# 5 0.000000 0.000000 0.000000 0.000000 0.018282 0.000000
# 6 0.000000 0.000000 0.000000 0.000000 0.000000 0.028345
#
#
# Mechanical properties :
#
#
# Convention : Reuss Voigt Hill
#
# Bulk Modulus (GPa) = 72.47809 79.75790 76.11800
# Shear Modulus (GPa) = 46.58602 53.28178 49.93390
#
# Velocity S-wave (km/s) = 4.22922 4.52295 4.37854
# Velocity P-wave (km/s) = 7.18858 7.60910 7.40182
#
# Compressibility (1/GPa) = 0.01379727
#
# Stress axis : x y z
#
# Youngs Moduli (GPa) = 153.41402 127.42866 210.52417
#
# Poissons Ratio (x) = 0.03191 0.29482
# Poissons Ratio (y) = 0.03842 0.21231
# Poissons Ratio (z) = 0.21484 0.12851
#
# Static dielectric constant tensor:
#      x y z
#    x 2.058180 0.000000 0.000000 
#    y 0.000000 2.187230 0.000000 
#    z 0.000000 0.000000 2.003880 
# 
# From -- ./inp_files/43720.got.cif
#   From: 2010.05.17/outbox.cif.g08.bks.cpg/sg64_22_cif.got.tgz:43720.got - 2010.06.03 16:29:19.
