data_PCOD9480721
_publ_section_title
;
Structure prediction by ZEFSAII (Michael W. Deem and Ramdas Pophale) SiO2 
 PCOD9480721
Probable space group: C M C A
;
_chemical_formula_sum "Si O2"
_cell_formula_units_Z 88
_cell_length_a 14.040067
_cell_length_b 23.902288
_cell_length_c 13.356872
_cell_angle_alpha 90.000000
_cell_angle_beta 90.000000
_cell_angle_gamma 90.000000
_cell_volume 4482.429001
_symmetry_space_group_name_H-M "C M C A"
_symmetry_group_IT_number 64
_symmetry_cell_setting 'orthorhombic'
loop_
_space_group_symop_operation_xyz
x,y,z
-x,1/2-y,1/2+z
x,-y,-z
-x,1/2+y,1/2-z
-x,-y,-z
x,1/2+y,1/2-z
-x,y,z
x,1/2-y,1/2+z
1/2+x,1/2+y,z
1/2-x,-y,1/2+z
1/2+x,1/2-y,-z
1/2-x,y,1/2-z
1/2-x,1/2-y,-z
1/2+x,y,1/2-z
1/2-x,1/2+y,z
1/2+x,-y,1/2+z
loop_
_atom_site_type_symbol
_atom_site_label
_atom_site_fract_x
_atom_site_fract_y
_atom_site_fract_z
Si Si1 0.109042 0.777591 0.272896
Si Si2 0.893848 0.134180 0.907795
Si Si3 0.391765 0.493571 0.119691
Si Si4 0.287116 0.310903 0.471628
Si Si5 0.888303 0.660672 0.169007
Si Si6 0.250000 0.933388 0.750000
O O1 0.109000 0.818342 0.177209
O O2 0.171699 0.804521 0.360127
O O3 0.137820 0.715818 0.234859
O O4 0.000000 0.773286 0.309531
O O5 0.883508 0.072824 0.860721
O O6 0.000000 0.136234 0.955904
O O7 0.803514 0.147640 0.976739
O O8 0.500000 0.511261 0.147755
O O9 0.310804 0.528191 0.174934
O O10 0.383559 0.500000 0.000000
O O11 0.250000 0.250000 0.500000
O O12 0.365636 0.326509 0.553192
O O13 0.825653 0.607821 0.198572
O O14 0.000000 0.650918 0.183585
#
# Coordination Sequence:
#
# PCOD9480721 Si02
#       6
#    16  16  16  16  16   8
#     4  10  22  39  60  90 128 164 201 253 315 377
#     4  10  22  40  63  92 126 163 210 260 308 372
#     4  10  23  44  68  94 124 165 218 266 310 367
#     4  12  22  35  64  92 128 164 204 247 315 381
#     4  11  24  42  61  93 131 163 206 259 317 376
#     4  12  24  42  68  94 124 170 212 264 316 370
#
# _framework density 19.632211999999999
#
# number of rings (size 3 to 8) (size 9 to 14) (size 15 to 20)
#    0.000    1.273    1.818    3.818    2.545    0.727 
#    0.000    4.545    0.000    2.182    0.000    0.000 
#    0.000    0.000    0.000    0.000    0.000    0.000 
#
# Total GULP energy -245868.418506 kJ/mol
# GULP energy per Si atom -5587.918602 kJ/mol
# Density = 1.958753 g / cm^3
# Si number density = 19.632212 Si / 1000 Ang^3
#
#
#
# Elastic Constant Matrix: (Units=GPa)
#
#
# Indices 1 2 3 4 5 6 
#
# 1 153.9806 61.1297 36.8327 0.0000 0.0000 0.0000
# 2 61.1297 108.0046 14.3856 0.0000 0.0000 0.0000
# 3 36.8327 14.3856 40.2489 0.0000 0.0000 0.0000
# 4 0.0000 0.0000 0.0000 21.3430 0.0000 0.0000
# 5 0.0000 0.0000 0.0000 0.0000 32.1529 0.0000
# 6 0.0000 0.0000 0.0000 0.0000 0.0000 41.3297
#
#
#
# Elastic Compliance Matrix: (Units=1/GPa)
#
#
# Indices 1 2 3 4 5 6 
#
# 1 0.010214 -0.004763 -0.007645 0.000000 0.000000 0.000000
# 2 -0.004763 0.011943 0.000090 0.000000 0.000000 0.000000
# 3 -0.007645 0.000090 0.031809 0.000000 0.000000 0.000000
# 4 0.000000 0.000000 0.000000 0.046854 0.000000 0.000000
# 5 0.000000 0.000000 0.000000 0.000000 0.031101 0.000000
# 6 0.000000 0.000000 0.000000 0.000000 0.000000 0.024196
#
#
# Mechanical properties :
#
#
# Convention : Reuss Voigt Hill
#
# Bulk Modulus (GPa) = 34.09399 58.54780 46.32089
# Shear Modulus (GPa) = 26.24299 31.62421 28.93360
#
# Velocity S-wave (km/s) = 3.66010 4.01787 3.84315
# Velocity P-wave (km/s) = 5.93850 7.17018 6.58321
#
# Compressibility (1/GPa) = 0.02933068
#
# Stress axis : x y z
#
# Youngs Moduli (GPa) = 97.90790 83.73456 31.43775
#
# Poissons Ratio (x) = 0.39880 0.24033
# Poissons Ratio (y) = 0.46630 -0.00283
# Poissons Ratio (z) = 0.74846 -0.00754
#
# Static dielectric constant tensor:
#      x y z
#    x 1.729950 0.000000 0.000000 
#    y 0.000000 1.674900 0.000000 
#    z 0.000000 0.000000 1.681710 
# 
# From -- ./inp_files/14620.got.cif
#   From: 2010.05.17/outbox.cif.g08.bks.cpg/sg64_8_cif.got.tgz:14620.got - 2010.06.03 16:29:19.
