data_PCOD9480667
_publ_section_title
;
Structure prediction by ZEFSAII (Michael W. Deem and Ramdas Pophale) SiO2 
 PCOD9480667
Probable space group: C M C A
;
_chemical_formula_sum "Si O2"
_cell_formula_units_Z 72
_cell_length_a 9.460336
_cell_length_b 23.590464
_cell_length_c 14.164069
_cell_angle_alpha 90.000000
_cell_angle_beta 90.000000
_cell_angle_gamma 90.000000
_cell_volume 3161.047910
_symmetry_space_group_name_H-M "C M C A"
_symmetry_group_IT_number 64
_symmetry_cell_setting 'orthorhombic'
loop_
_space_group_symop_operation_xyz
x,y,z
-x,1/2-y,1/2+z
x,-y,-z
-x,1/2+y,1/2-z
-x,-y,-z
x,1/2+y,1/2-z
-x,y,z
x,1/2-y,1/2+z
1/2+x,1/2+y,z
1/2-x,-y,1/2+z
1/2+x,1/2-y,-z
1/2-x,y,1/2-z
1/2-x,1/2-y,-z
1/2+x,y,1/2-z
1/2-x,1/2+y,z
1/2+x,-y,1/2+z
loop_
_atom_site_type_symbol
_atom_site_label
_atom_site_fract_x
_atom_site_fract_y
_atom_site_fract_z
Si Si1 0.739003 0.732612 0.109359
Si Si2 0.000000 0.756509 0.247743
Si Si3 0.165900 0.470800 0.845308
Si Si4 0.667913 0.614840 0.031944
Si Si5 0.666366 0.107628 0.845057
O O1 0.620744 0.763454 0.169705
O O2 0.693805 0.666230 0.104440
O O3 0.879564 0.742728 0.167376
O O4 0.750000 0.750000 0.000000
O O5 0.250000 0.455610 0.750000
O O6 0.251070 0.439714 0.927585
O O7 0.170535 0.538740 0.853438
O O8 0.000000 0.453727 0.843397
O O9 0.500000 0.605965 0.019123
O O10 0.744907 0.629560 0.933790
O O11 0.500000 0.121750 0.840115
O O12 0.750000 0.122519 0.750000
#
# Coordination Sequence:
#
# PCOD9480667 Si02
#       5
#    16   8  16  16  16
#     4  11  25  47  69 103 134 172 221 272 336 403
#     4  10  24  46  76  94 134 172 216 278 338 396
#     4  10  22  38  63  92 128 170 219 268 326 387
#     4  12  25  39  64  95 133 167 217 269 326 395
#     4  10  22  43  62  90 128 174 222 271 325 391
#
# _framework density 22.777258
#
# number of rings (size 3 to 8) (size 9 to 14) (size 15 to 20)
#    0.000    1.333    1.111    3.333    6.222    5.333 
#    4.000    0.000    0.000    0.000    0.000    0.000 
#    0.000    0.000    0.000    0.000    0.000    0.000 
#
# Total GULP energy -200521.653082 kJ/mol
# GULP energy per Si atom -5570.045919 kJ/mol
# Density = 2.272542 g / cm^3
# Si number density = 22.777258 Si / 1000 Ang^3
#
#
#
# Elastic Constant Matrix: (Units=GPa)
#
#
# Indices 1 2 3 4 5 6 
#
# 1 302.2953 50.4633 103.2885 0.0000 0.0000 0.0000
# 2 50.4633 89.9153 33.8131 0.0000 0.0000 0.0000
# 3 103.2885 33.8131 186.1525 0.0000 0.0000 0.0000
# 4 0.0000 0.0000 0.0000 16.9208 0.0000 0.0000
# 5 0.0000 0.0000 0.0000 0.0000 43.5205 0.0000
# 6 0.0000 0.0000 0.0000 0.0000 0.0000 -6.7447
#
#
#
# Elastic Compliance Matrix: (Units=1/GPa)
#
#
# Indices 1 2 3 4 5 6 
#
# 1 0.004292 -0.001624 -0.002086 0.000000 0.000000 0.000000
# 2 -0.001624 0.012552 -0.001379 0.000000 0.000000 0.000000
# 3 -0.002086 -0.001379 0.006780 0.000000 0.000000 0.000000
# 4 0.000000 0.000000 0.000000 0.059099 0.000000 0.000000
# 5 0.000000 0.000000 0.000000 0.000000 0.022978 0.000000
# 6 0.000000 0.000000 0.000000 0.000000 0.000000 -0.148264
#
#
# Mechanical properties :
#
#
# Convention : Reuss Voigt Hill
#
# Bulk Modulus (GPa) = 74.37714 105.94363 90.16038
# Shear Modulus (GPa) = -179.19065 36.79253 -71.19906
#
# Velocity S-wave (km/s) = -8.87928 4.02346 -5.59703
# Velocity P-wave (km/s) = 8.50865 8.25822 1.44896
#
# Compressibility (1/GPa) = 0.01344499
#
# Stress axis : x y z
#
# Youngs Moduli (GPa) = 232.98801 79.67116 147.49128
#
# Poissons Ratio (x) = 0.12940 0.30774
# Poissons Ratio (y) = 0.37842 0.20334
# Poissons Ratio (z) = 0.48612 0.10984
#
# Static dielectric constant tensor:
#      x y z
#    x 1.740970 0.000000 0.000000 
#    y 0.000000 1.968100 0.000000 
#    z 0.000000 0.000000 1.862220 
# 
# From -- ./inp_files/21104.got.cif
#   From: 2010.05.17/outbox.cif.g08.bks.cpg/sg64_11_cif.got.tgz:21104.got - 2010.06.03 16:29:19.
