data_PCOD9480946
_publ_section_title
;
Structure prediction by ZEFSAII (Michael W. Deem and Ramdas Pophale) SiO2 
 PCOD9480946
Probable space group: C M C A
;
_chemical_formula_sum "Si O2"
_cell_formula_units_Z 56
_cell_length_a 10.945462
_cell_length_b 14.410071
_cell_length_c 15.507532
_cell_angle_alpha 90.000000
_cell_angle_beta 90.000000
_cell_angle_gamma 90.000000
_cell_volume 2445.923694
_symmetry_space_group_name_H-M "C M C A"
_symmetry_group_IT_number 64
_symmetry_cell_setting 'orthorhombic'
loop_
_space_group_symop_operation_xyz
x,y,z
-x,1/2-y,1/2+z
x,-y,-z
-x,1/2+y,1/2-z
-x,-y,-z
x,1/2+y,1/2-z
-x,y,z
x,1/2-y,1/2+z
1/2+x,1/2+y,z
1/2-x,-y,1/2+z
1/2+x,1/2-y,-z
1/2-x,y,1/2-z
1/2-x,1/2-y,-z
1/2+x,y,1/2-z
1/2-x,1/2+y,z
1/2+x,-y,1/2+z
loop_
_atom_site_type_symbol
_atom_site_label
_atom_site_fract_x
_atom_site_fract_y
_atom_site_fract_z
Si Si1 0.639944 0.476846 0.182688
Si Si2 0.250338 0.000000 0.000000
Si Si3 0.868297 0.188695 0.484612
Si Si4 0.628283 0.754431 0.297810
O O1 0.500000 0.503701 0.208026
O O2 0.750000 0.499710 0.250000
O O3 0.671364 0.514171 0.086877
O O4 0.638479 0.363533 0.176532
O O5 0.336455 0.087502 0.982233
O O6 0.750000 0.250000 0.500000
O O7 0.877975 0.191577 0.381818
O O8 0.000000 0.222187 0.518615
O O9 0.500000 0.745009 0.248467
O O10 0.750000 0.729277 0.250000
#
# Coordination Sequence:
#
# PCOD9480946 Si02
#       4
#    16   8  16  16
#     4  10  22  41  67  97 135 178 226 279 337 402
#     4  12  24  42  70 104 136 178 224 280 342 404
#     4  11  24  42  64  95 131 170 219 273 330 399
#     4   9  19  39  63  91 125 168 218 270 327 394
#
# _framework density 22.895237000000002
#
# number of rings (size 3 to 8) (size 9 to 14) (size 15 to 20)
#    0.000    1.714    2.857    0.857    0.000    5.714 
#    0.000    2.857    0.000    0.000    0.000    0.000 
#    0.000    0.000    0.000    0.000    0.000    0.000 
#
# Total GULP energy -156282.926498 kJ/mol
# GULP energy per Si atom -5581.533089 kJ/mol
# Density = 2.284313 g / cm^3
# Si number density = 22.895237 Si / 1000 Ang^3
#
#
#
# Elastic Constant Matrix: (Units=GPa)
#
#
# Indices 1 2 3 4 5 6 
#
# 1 257.6681 25.7122 65.6931 0.0000 0.0000 0.0000
# 2 25.7122 55.3668 -19.3765 0.0000 0.0000 0.0000
# 3 65.6931 -19.3765 85.6739 0.0000 0.0000 0.0000
# 4 0.0000 0.0000 0.0000 26.6632 0.0000 0.0000
# 5 0.0000 0.0000 0.0000 0.0000 23.6304 0.0000
# 6 0.0000 0.0000 0.0000 0.0000 0.0000 -7.1519
#
#
#
# Elastic Compliance Matrix: (Units=1/GPa)
#
#
# Indices 1 2 3 4 5 6 
#
# 1 0.005714 -0.004547 -0.005410 0.000000 0.000000 0.000000
# 2 -0.004547 0.023232 0.008740 0.000000 0.000000 0.000000
# 3 -0.005410 0.008740 0.017797 0.000000 0.000000 0.000000
# 4 0.000000 0.000000 0.000000 0.037505 0.000000 0.000000
# 5 0.000000 0.000000 0.000000 0.000000 0.042318 0.000000
# 6 0.000000 0.000000 0.000000 0.000000 0.000000 -0.139824
#
#
# Mechanical properties :
#
#
# Convention : Reuss Voigt Hill
#
# Bulk Modulus (GPa) = 22.56779 60.30737 41.43758
# Shear Modulus (GPa) = 1267.91063 30.40702 649.15882
#
# Velocity S-wave (km/s) = 23.55823 3.64826 16.85675
# Velocity P-wave (km/s) = 27.38367 6.64410 19.92498
#
# Compressibility (1/GPa) = 0.04431095
#
# Stress axis : x y z
#
# Youngs Moduli (GPa) = 175.01369 43.04471 56.18958
#
# Poissons Ratio (x) = 0.19571 0.30396
# Poissons Ratio (y) = 0.79572 -0.49112
# Poissons Ratio (z) = 0.94675 -0.37623
#
# Static dielectric constant tensor:
#      x y z
#    x 1.933940 0.000000 0.000000 
#    y 0.000000 25.299030 0.000000 
#    z 0.000000 0.000000 1.783640 
# 
# From -- ./inp_files/21724.got.cif
#   From: 2010.05.17/outbox.cif.g08.bks.cpg/sg64_11_cif.got.tgz:21724.got - 2010.06.03 16:29:19.
