data_PCOD9480911
_publ_section_title
;
Structure prediction by ZEFSAII (Michael W. Deem and Ramdas Pophale) SiO2 
 PCOD9480911
Probable space group: C M C A
;
_chemical_formula_sum "Si O2"
_cell_formula_units_Z 64
_cell_length_a 21.656518
_cell_length_b 14.410321
_cell_length_c 10.378397
_cell_angle_alpha 90.000000
_cell_angle_beta 90.000000
_cell_angle_gamma 90.000000
_cell_volume 3238.862904
_symmetry_space_group_name_H-M "C M C A"
_symmetry_group_IT_number 64
_symmetry_cell_setting 'orthorhombic'
loop_
_space_group_symop_operation_xyz
x,y,z
-x,1/2-y,1/2+z
x,-y,-z
-x,1/2+y,1/2-z
-x,-y,-z
x,1/2+y,1/2-z
-x,y,z
x,1/2-y,1/2+z
1/2+x,1/2+y,z
1/2-x,-y,1/2+z
1/2+x,1/2-y,-z
1/2-x,y,1/2-z
1/2-x,1/2-y,-z
1/2+x,y,1/2-z
1/2-x,1/2+y,z
1/2+x,-y,1/2+z
loop_
_atom_site_type_symbol
_atom_site_label
_atom_site_fract_x
_atom_site_fract_y
_atom_site_fract_z
Si Si1 0.500000 0.584181 0.897425
Si Si2 0.000000 0.040628 0.354858
Si Si3 0.376516 0.163235 0.201971
Si Si4 0.699458 0.500000 0.000000
Si Si5 0.250000 0.949419 0.750000
Si Si6 0.117268 0.315362 0.506918
O O1 0.500000 0.539330 0.755646
O O2 0.442552 0.647578 0.932738
O O3 0.500000 0.500000 0.000000
O O4 0.062900 0.100801 0.331694
O O5 0.000000 0.000000 0.500000
O O6 0.312609 0.107989 0.225003
O O7 0.362009 0.231338 0.083155
O O8 0.391703 0.209482 0.342075
O O9 0.740074 0.510334 0.874681
O O10 0.659898 0.593306 0.009100
#
# Coordination Sequence:
#
# PCOD9480911 Si02
#       6
#     8   8  16   8   8  16
#     4  12  19  42  68  86 131 169 213 272 319 406
#     4  12  27  42  66 103 132 172 226 272 340 402
#     4  11  25  43  63 101 133 171 226 277 338 400
#     4  10  22  41  64  91 120 178 218 270 338 392
#     4  10  24  42  66  96 132 174 230 274 332 414
#     4  11  23  41  67  94 131 172 220 274 338 393
#
# _framework density 19.760020999999998
#
# number of rings (size 3 to 8) (size 9 to 14) (size 15 to 20)
#    0.000    1.000    3.750    2.250    5.250    7.000 
#    0.000    0.000    0.000    0.000    0.000    0.000 
#    0.000    0.000    0.000    0.000    0.000    0.000 
#
# Total GULP energy -178420.102351 kJ/mol
# GULP energy per Si atom -5575.628198 kJ/mol
# Density = 1.971505 g / cm^3
# Si number density = 19.760021 Si / 1000 Ang^3
#
#
#
# Elastic Constant Matrix: (Units=GPa)
#
#
# Indices 1 2 3 4 5 6 
#
# 1 97.4905 14.6477 31.5578 0.0000 0.0000 0.0000
# 2 14.6477 22.5473 30.7730 0.0000 0.0000 0.0000
# 3 31.5578 30.7730 198.1719 0.0000 0.0000 0.0000
# 4 0.0000 0.0000 0.0000 47.4919 0.0000 0.0000
# 5 0.0000 0.0000 0.0000 0.0000 28.7817 0.0000
# 6 0.0000 0.0000 0.0000 0.0000 0.0000 38.2247
#
#
#
# Elastic Compliance Matrix: (Units=1/GPa)
#
#
# Indices 1 2 3 4 5 6 
#
# 1 0.011479 -0.006297 -0.000850 0.000000 0.000000 0.000000
# 2 -0.006297 0.059733 -0.008273 0.000000 0.000000 0.000000
# 3 -0.000850 -0.008273 0.006466 0.000000 0.000000 0.000000
# 4 0.000000 0.000000 0.000000 0.021056 0.000000 0.000000
# 5 0.000000 0.000000 0.000000 0.000000 0.034744 0.000000
# 6 0.000000 0.000000 0.000000 0.000000 0.000000 0.026161
#
#
# Mechanical properties :
#
#
# Convention : Reuss Voigt Hill
#
# Bulk Modulus (GPa) = 21.35017 52.46299 36.90658
# Shear Modulus (GPa) = 24.26110 38.98174 31.62142
#
# Velocity S-wave (km/s) = 3.50778 4.44639 4.00468
# Velocity P-wave (km/s) = 5.21864 7.27793 6.33255
#
# Compressibility (1/GPa) = 0.04683804
#
# Stress axis : x y z
#
# Youngs Moduli (GPa) = 87.11806 16.74125 154.65166
#
# Poissons Ratio (x) = 0.10542 0.13147
# Poissons Ratio (y) = 0.54856 1.27941
# Poissons Ratio (z) = 0.07406 0.13850
#
# Static dielectric constant tensor:
#      x y z
#    x 1.755160 0.000000 0.000000 
#    y 0.000000 1.553470 0.000000 
#    z 0.000000 0.000000 1.738140 
# 
# From -- ./inp_files/9026.got.cif
#   From: 2010.05.17/outbox.cif.g08.bks.cpg/sg64_5_cif.got.tgz:9026.got - 2010.06.03 16:29:19.
