data_PCOD9480320
_publ_section_title
;
Structure prediction by ZEFSAII (Michael W. Deem and Ramdas Pophale) SiO2 
 PCOD9480320
Probable space group: C M C A
;
_chemical_formula_sum "Si O2"
_cell_formula_units_Z 80
_cell_length_a 8.898650
_cell_length_b 19.592434
_cell_length_c 26.098708
_cell_angle_alpha 90.000000
_cell_angle_beta 90.000000
_cell_angle_gamma 90.000000
_cell_volume 4550.210899
_symmetry_space_group_name_H-M "C M C A"
_symmetry_group_IT_number 64
_symmetry_cell_setting 'orthorhombic'
loop_
_space_group_symop_operation_xyz
x,y,z
-x,1/2-y,1/2+z
x,-y,-z
-x,1/2+y,1/2-z
-x,-y,-z
x,1/2+y,1/2-z
-x,y,z
x,1/2-y,1/2+z
1/2+x,1/2+y,z
1/2-x,-y,1/2+z
1/2+x,1/2-y,-z
1/2-x,y,1/2-z
1/2-x,1/2-y,-z
1/2+x,y,1/2-z
1/2-x,1/2+y,z
1/2+x,-y,1/2+z
loop_
_atom_site_type_symbol
_atom_site_label
_atom_site_fract_x
_atom_site_fract_y
_atom_site_fract_z
Si Si1 0.321059 0.120754 0.586622
Si Si2 0.821299 0.735282 0.391735
Si Si3 0.178840 0.983022 0.617483
Si Si4 0.179747 0.387873 0.533608
Si Si5 0.320247 0.375521 0.805887
O O1 0.500000 0.113411 0.591905
O O2 0.268390 0.194930 0.604730
O O3 0.283796 0.113876 0.526118
O O4 0.238648 0.059918 0.616036
O O5 0.786161 0.684400 0.439092
O O6 0.788631 0.690871 0.341044
O O7 0.000000 0.749367 0.393256
O O8 0.235030 0.945738 0.565482
O O9 0.250949 0.939311 0.663400
O O10 0.000000 0.980794 0.620563
O O11 0.000000 0.399667 0.539550
O O12 0.500000 0.383214 0.803167
O O13 0.250000 0.369471 0.750000
#
# Coordination Sequence:
#
# PCOD9480320 Si02
#       5
#    16  16  16  16  16
#     4  11  21  33  52  79 113 148 181 222 269 314
#     4   9  19  35  54  79 110 141 177 220 265 318
#     4  11  22  35  54  80 109 143 184 224 264 317
#     4   9  19  35  53  76 110 149 184 221 266 315
#     4  10  21  40  63  83 105 135 174 221 271 323
#
# _framework density 17.581602
#
# number of rings (size 3 to 8) (size 9 to 14) (size 15 to 20)
#    0.000    2.000    0.000    5.400    0.000    8.000 
#    0.000    1.000    0.000    2.400    0.000    0.000 
#    0.000    0.000    0.000    0.000    0.000    0.000 
#
# Total GULP energy -223460.155865 kJ/mol
# GULP energy per Si atom -5586.503897 kJ/mol
# Density = 1.754159 g / cm^3
# Si number density = 17.581602 Si / 1000 Ang^3
#
#
#
# Elastic Constant Matrix: (Units=GPa)
#
#
# Indices 1 2 3 4 5 6 
#
# 1 71.9453 51.7076 45.5097 0.0000 0.0000 0.0000
# 2 51.7076 96.9424 28.4636 0.0000 0.0000 0.0000
# 3 45.5097 28.4636 88.0090 0.0000 0.0000 0.0000
# 4 0.0000 0.0000 0.0000 3.8704 0.0000 0.0000
# 5 0.0000 0.0000 0.0000 0.0000 28.4594 0.0000
# 6 0.0000 0.0000 0.0000 0.0000 0.0000 33.9549
#
#
#
# Elastic Compliance Matrix: (Units=1/GPa)
#
#
# Indices 1 2 3 4 5 6 
#
# 1 0.030471 -0.012846 -0.011602 0.000000 0.000000 0.000000
# 2 -0.012846 0.016814 0.001205 0.000000 0.000000 0.000000
# 3 -0.011602 0.001205 0.016972 0.000000 0.000000 0.000000
# 4 0.000000 0.000000 0.000000 0.258368 0.000000 0.000000
# 5 0.000000 0.000000 0.000000 0.000000 0.035138 0.000000
# 6 0.000000 0.000000 0.000000 0.000000 0.000000 0.029451
#
#
# Mechanical properties :
#
#
# Convention : Reuss Voigt Hill
#
# Bulk Modulus (GPa) = 56.27334 56.47315 56.37324
# Shear Modulus (GPa) = 11.37336 22.00466 16.68901
#
# Velocity S-wave (km/s) = 2.54616 3.54160 3.08430
# Velocity P-wave (km/s) = 6.38125 6.99387 6.69457
#
# Compressibility (1/GPa) = 0.01777040
#
# Stress axis : x y z
#
# Youngs Moduli (GPa) = 32.81794 59.47559 58.92005
#
# Poissons Ratio (x) = 0.76404 0.68359
# Poissons Ratio (y) = 0.42159 -0.07100
# Poissons Ratio (z) = 0.38075 -0.07167
#
# Static dielectric constant tensor:
#      x y z
#    x 1.583260 0.000000 0.000000 
#    y 0.000000 1.582230 0.000000 
#    z 0.000000 0.000000 1.578110 
# 
# From -- ./inp_files/47791.got.cif
#   From: 2010.05.17/outbox.cif.g08.bks.cpg/sg64_24_cif.got.tgz:47791.got - 2010.06.03 16:29:19.
