data_PCOD9480260
_publ_section_title
;
Structure prediction by ZEFSAII (Michael W. Deem and Ramdas Pophale) SiO2 
 PCOD9480260
Probable space group: C M C A
;
_chemical_formula_sum "Si O2"
_cell_formula_units_Z 80
_cell_length_a 8.909594
_cell_length_b 19.751371
_cell_length_c 22.801389
_cell_angle_alpha 90.000000
_cell_angle_beta 90.000000
_cell_angle_gamma 90.000000
_cell_volume 4012.513113
_symmetry_space_group_name_H-M "C M C A"
_symmetry_group_IT_number 64
_symmetry_cell_setting 'orthorhombic'
loop_
_space_group_symop_operation_xyz
x,y,z
-x,1/2-y,1/2+z
x,-y,-z
-x,1/2+y,1/2-z
-x,-y,-z
x,1/2+y,1/2-z
-x,y,z
x,1/2-y,1/2+z
1/2+x,1/2+y,z
1/2-x,-y,1/2+z
1/2+x,1/2-y,-z
1/2-x,y,1/2-z
1/2-x,1/2-y,-z
1/2+x,y,1/2-z
1/2-x,1/2+y,z
1/2+x,-y,1/2+z
loop_
_atom_site_type_symbol
_atom_site_label
_atom_site_fract_x
_atom_site_fract_y
_atom_site_fract_z
Si Si1 0.819537 0.823528 0.486851
Si Si2 0.821614 0.003987 0.811805
Si Si3 0.175604 0.599719 0.100266
Si Si4 0.820724 0.643655 0.852186
Si Si5 0.174724 0.780179 0.692538
O O1 0.750000 0.750000 0.500000
O O2 0.772057 0.878438 0.535628
O O3 0.785068 0.847832 0.421279
O O4 0.000000 0.816917 0.492016
O O5 0.750000 0.981408 0.750000
O O6 0.767688 0.956397 0.864986
O O7 0.000000 0.003326 0.806720
O O8 0.761043 0.078985 0.825439
O O9 0.184506 0.668121 0.138764
O O10 0.000000 0.578677 0.097774
O O11 0.763033 0.711824 0.821807
O O12 0.000000 0.636668 0.845458
O O13 0.250000 0.811671 0.750000
O O14 0.000000 0.765516 0.703239
#
# Coordination Sequence:
#
# PCOD9480260 Si02
#       5
#    16  16  16  16  16
#     4  10  21  39  65  95 128 164 204 256 308 365
#     4  12  26  44  65  90 125 166 210 261 314 372
#     4  10  22  41  64  92 126 164 206 254 311 369
#     4  11  23  40  64  92 125 165 207 253 310 369
#     4  11  22  37  60  89 123 160 207 259 308 367
#
# _framework density 19.937629000000001
#
# number of rings (size 3 to 8) (size 9 to 14) (size 15 to 20)
#    0.000    1.200    2.000    4.200    0.000    5.600 
#    0.000    4.000    0.000    0.000    0.000    0.000 
#    0.000    0.000    0.000    0.000    0.000    0.000 
#
# Total GULP energy -223754.987337 kJ/mol
# GULP energy per Si atom -5593.874683 kJ/mol
# Density = 1.989225 g / cm^3
# Si number density = 19.937629 Si / 1000 Ang^3
#
#
#
# Elastic Constant Matrix: (Units=GPa)
#
#
# Indices 1 2 3 4 5 6 
#
# 1 92.8596 28.4843 30.2623 0.0000 0.0000 0.0000
# 2 28.4843 62.0304 -5.0759 0.0000 0.0000 0.0000
# 3 30.2623 -5.0759 86.4741 0.0000 0.0000 0.0000
# 4 0.0000 0.0000 0.0000 67.6695 0.0000 0.0000
# 5 0.0000 0.0000 0.0000 0.0000 27.0094 0.0000
# 6 0.0000 0.0000 0.0000 0.0000 0.0000 35.5091
#
#
#
# Elastic Compliance Matrix: (Units=1/GPa)
#
#
# Indices 1 2 3 4 5 6 
#
# 1 0.014829 -0.007269 -0.005616 0.000000 0.000000 0.000000
# 2 -0.007269 0.019762 0.003704 0.000000 0.000000 0.000000
# 3 -0.005616 0.003704 0.013747 0.000000 0.000000 0.000000
# 4 0.000000 0.000000 0.000000 0.014778 0.000000 0.000000
# 5 0.000000 0.000000 0.000000 0.000000 0.037024 0.000000
# 6 0.000000 0.000000 0.000000 0.000000 0.000000 0.028162
#
#
# Mechanical properties :
#
#
# Convention : Reuss Voigt Hill
#
# Bulk Modulus (GPa) = 33.36069 38.74504 36.05286
# Shear Modulus (GPa) = 31.91703 38.55050 35.23376
#
# Velocity S-wave (km/s) = 4.00539 4.40199 4.20837
# Velocity P-wave (km/s) = 6.17736 6.73142 6.46033
#
# Compressibility (1/GPa) = 0.02997540
#
# Stress axis : x y z
#
# Youngs Moduli (GPa) = 67.43564 50.60186 72.74316
#
# Poissons Ratio (x) = 0.36782 0.40854
# Poissons Ratio (y) = 0.49019 -0.26943
# Poissons Ratio (z) = 0.37873 -0.18742
#
# Static dielectric constant tensor:
#      x y z
#    x 1.670750 0.000000 0.000000 
#    y 0.000000 1.670930 0.000000 
#    z 0.000000 0.000000 23.620360 
# 
# From -- ./inp_files/47883.got.cif
#   From: 2010.05.17/outbox.cif.g08.bks.cpg/sg64_24_cif.got.tgz:47883.got - 2010.06.03 16:29:19.
