data_PCOD9480109
_publ_section_title
;
Structure prediction by ZEFSAII (Michael W. Deem and Ramdas Pophale) SiO2 
 PCOD9480109
Probable space group: C M C A
;
_chemical_formula_sum "Si O2"
_cell_formula_units_Z 64
_cell_length_a 23.581401
_cell_length_b 9.274331
_cell_length_c 11.096471
_cell_angle_alpha 90.000000
_cell_angle_beta 90.000000
_cell_angle_gamma 90.000000
_cell_volume 2426.817275
_symmetry_space_group_name_H-M "C M C A"
_symmetry_group_IT_number 64
_symmetry_cell_setting 'orthorhombic'
loop_
_space_group_symop_operation_xyz
x,y,z
-x,1/2-y,1/2+z
x,-y,-z
-x,1/2+y,1/2-z
-x,-y,-z
x,1/2+y,1/2-z
-x,y,z
x,1/2-y,1/2+z
1/2+x,1/2+y,z
1/2-x,-y,1/2+z
1/2+x,1/2-y,-z
1/2-x,y,1/2-z
1/2-x,1/2-y,-z
1/2+x,y,1/2-z
1/2-x,1/2+y,z
1/2+x,-y,1/2+z
loop_
_atom_site_type_symbol
_atom_site_label
_atom_site_fract_x
_atom_site_fract_y
_atom_site_fract_z
Si Si1 0.654896 0.292850 0.955174
Si Si2 0.252494 0.094400 0.882571
Si Si3 0.437338 0.331634 0.590824
Si Si4 0.935750 0.500497 0.670514
O O1 0.702731 0.224559 0.870476
O O2 0.613374 0.410808 0.896456
O O3 0.691986 0.347298 0.069497
O O4 0.612418 0.169202 0.996374
O O5 0.250000 0.024879 0.750000
O O6 0.270256 0.000000 0.000000
O O7 0.500000 0.339596 0.536439
O O8 0.431871 0.450611 0.692563
O O9 0.432163 0.171783 0.652004
O O10 0.000000 0.457139 0.630309
#
# Coordination Sequence:
#
# PCOD9480109 Si02
#       4
#    16  16  16  16
#     4  11  23  39  65  94 130 176 234 286 339 413
#     4  11  26  45  67  98 137 183 235 291 352 415
#     4  10  21  38  63  95 132 175 223 279 344 412
#     4  10  21  39  64  96 134 177 226 281 344 414
#
# _framework density 26.37199
#
# number of rings (size 3 to 8) (size 9 to 14) (size 15 to 20)
#    0.000    1.500    0.000    4.500    0.000   12.000 
#    0.000    0.000    0.000    7.500    0.000    0.000 
#    0.000    0.000    0.000    0.000    0.000    0.000 
#
# Total GULP energy -179199.302696 kJ/mol
# GULP energy per Si atom -5599.978209 kJ/mol
# Density = 2.631197 g / cm^3
# Si number density = 26.371990 Si / 1000 Ang^3
#
#
#
# Elastic Constant Matrix: (Units=GPa)
#
#
# Indices 1 2 3 4 5 6 
#
# 1 209.5037 61.7200 47.5421 0.0000 0.0000 0.0000
# 2 61.7200 125.2693 58.3878 0.0000 0.0000 0.0000
# 3 47.5421 58.3878 115.7959 0.0000 0.0000 0.0000
# 4 0.0000 0.0000 0.0000 50.3674 0.0000 0.0000
# 5 0.0000 0.0000 0.0000 0.0000 9.9805 0.0000
# 6 0.0000 0.0000 0.0000 0.0000 0.0000 20.1289
#
#
#
# Elastic Compliance Matrix: (Units=1/GPa)
#
#
# Indices 1 2 3 4 5 6 
#
# 1 0.005711 -0.002249 -0.001210 0.000000 0.000000 0.000000
# 2 -0.002249 0.011321 -0.004785 0.000000 0.000000 0.000000
# 3 -0.001210 -0.004785 0.011546 0.000000 0.000000 0.000000
# 4 0.000000 0.000000 0.000000 0.019854 0.000000 0.000000
# 5 0.000000 0.000000 0.000000 0.000000 0.100196 0.000000
# 6 0.000000 0.000000 0.000000 0.000000 0.000000 0.049680
#
#
# Mechanical properties :
#
#
# Convention : Reuss Voigt Hill
#
# Bulk Modulus (GPa) = 82.72747 87.31872 85.02310
# Shear Modulus (GPa) = 22.84920 34.95663 28.90291
#
# Velocity S-wave (km/s) = 2.94669 3.64472 3.31414
# Velocity P-wave (km/s) = 6.55857 7.13402 6.85234
#
# Compressibility (1/GPa) = 0.01208788
#
# Stress axis : x y z
#
# Youngs Moduli (GPa) = 175.11512 88.32836 86.61330
#
# Poissons Ratio (x) = 0.19869 0.10483
# Poissons Ratio (y) = 0.39391 0.41445
# Poissons Ratio (z) = 0.21195 0.42265
#
# Static dielectric constant tensor:
#      x y z
#    x 2.012310 0.000000 0.000000 
#    y 0.000000 2.143950 0.000000 
#    z 0.000000 0.000000 2.086970 
# 
# From -- ./inp_files/17898.got.cif
#   From: 2010.05.17/outbox.cif.g08.bks.cpg/sg64_9_cif.got.tgz:17898.got - 2010.06.03 16:29:19.
