data_PCOD9480673
_publ_section_title
;
Structure prediction by ZEFSAII (Michael W. Deem and Ramdas Pophale) SiO2 
 PCOD9480673
Probable space group: C M C A
;
_chemical_formula_sum "Si O2"
_cell_formula_units_Z 60
_cell_length_a 19.017182
_cell_length_b 9.108841
_cell_length_c 15.031671
_cell_angle_alpha 90.000000
_cell_angle_beta 90.000000
_cell_angle_gamma 90.000000
_cell_volume 2603.853499
_symmetry_space_group_name_H-M "C M C A"
_symmetry_group_IT_number 64
_symmetry_cell_setting 'orthorhombic'
loop_
_space_group_symop_operation_xyz
x,y,z
-x,1/2-y,1/2+z
x,-y,-z
-x,1/2+y,1/2-z
-x,-y,-z
x,1/2+y,1/2-z
-x,y,z
x,1/2-y,1/2+z
1/2+x,1/2+y,z
1/2-x,-y,1/2+z
1/2+x,1/2-y,-z
1/2-x,y,1/2-z
1/2-x,1/2-y,-z
1/2+x,y,1/2-z
1/2-x,1/2+y,z
1/2+x,-y,1/2+z
loop_
_atom_site_type_symbol
_atom_site_label
_atom_site_fract_x
_atom_site_fract_y
_atom_site_fract_z
Si Si1 0.675167 0.671845 0.506182
Si Si2 0.250000 0.465013 0.250000
Si Si3 0.575420 0.190514 0.358730
Si Si4 0.653228 0.292326 0.680195
Si Si5 0.500000 0.500000 0.000000
O O1 0.750000 0.750000 0.500000
O O2 0.711229 0.422194 0.684271
O O3 0.636579 0.717176 0.595923
O O4 0.627652 0.716279 0.420747
O O5 0.306809 0.358456 0.204587
O O6 0.500000 0.271673 0.358630
O O7 0.598204 0.166017 0.257159
O O8 0.559968 0.054571 0.425290
O O9 0.684344 0.500000 0.500000
#
# Coordination Sequence:
#
# PCOD9480673 Si02
#       5
#    16   8  16  16   4
#     4  12  26  43  71 106 139 176 226 295 350 417
#     4  10  22  38  64 102 126 166 226 280 334 422
#     4  10  25  44  66  96 134 183 236 276 348 415
#     4  11  22  41  68  94 136 176 221 280 358 412
#     4   8  24  48  62  96 134 184 230 294 328 436
#
# _framework density 23.042770999999998
#
# number of rings (size 3 to 8) (size 9 to 14) (size 15 to 20)
#    0.800    0.533    0.000    6.400    5.600    1.600 
#    0.000    4.000    0.000    0.000    0.000    0.000 
#    0.000    0.000    0.000    0.000    0.000    0.000 
#
# Total GULP energy -167058.149498 kJ/mol
# GULP energy per Si atom -5568.604983 kJ/mol
# Density = 2.299032 g / cm^3
# Si number density = 23.042771 Si / 1000 Ang^3
#
#
#
# Elastic Constant Matrix: (Units=GPa)
#
#
# Indices 1 2 3 4 5 6 
#
# 1 97.1594 20.9490 27.0827 0.0000 0.0000 0.0000
# 2 20.9490 97.3324 -0.1336 0.0000 0.0000 0.0000
# 3 27.0827 -0.1336 144.4997 0.0000 0.0000 0.0000
# 4 0.0000 0.0000 0.0000 18.0034 0.0000 0.0000
# 5 0.0000 0.0000 0.0000 0.0000 24.4839 0.0000
# 6 0.0000 0.0000 0.0000 0.0000 0.0000 18.3629
#
#
#
# Elastic Compliance Matrix: (Units=1/GPa)
#
#
# Indices 1 2 3 4 5 6 
#
# 1 0.011420 -0.002461 -0.002143 0.000000 0.000000 0.000000
# 2 -0.002461 0.010804 0.000471 0.000000 0.000000 0.000000
# 3 -0.002143 0.000471 0.007322 0.000000 0.000000 0.000000
# 4 0.000000 0.000000 0.000000 0.055545 0.000000 0.000000
# 5 0.000000 0.000000 0.000000 0.000000 0.040843 0.000000
# 6 0.000000 0.000000 0.000000 0.000000 0.000000 0.054458
#
#
# Mechanical properties :
#
#
# Convention : Reuss Voigt Hill
#
# Bulk Modulus (GPa) = 46.98745 48.30972 47.64858
# Shear Modulus (GPa) = 25.54253 31.57626 28.55940
#
# Velocity S-wave (km/s) = 3.33300 3.70582 3.52434
# Velocity P-wave (km/s) = 5.93696 6.27069 6.10611
#
# Compressibility (1/GPa) = 0.02128228
#
# Stress axis : x y z
#
# Youngs Moduli (GPa) = 87.56375 92.55502 136.56610
#
# Poissons Ratio (x) = 0.22777 0.29262
# Poissons Ratio (y) = 0.21549 -0.06435
# Poissons Ratio (z) = 0.18762 -0.04361
#
# Static dielectric constant tensor:
#      x y z
#    x 1.825050 0.000000 0.000000 
#    y 0.000000 1.868490 0.000000 
#    z 0.000000 0.000000 1.927670 
# 
# From -- ./inp_files/16895.got.cif
#   From: 2010.05.17/outbox.cif.g08.bks.cpg/sg64_9_cif.got.tgz:16895.got - 2010.06.03 16:29:19.
