data_PCOD9480853
_publ_section_title
;
Structure prediction by ZEFSAII (Michael W. Deem and Ramdas Pophale) SiO2 
 PCOD9480853
Probable space group: C M C A
;
_chemical_formula_sum "Si O2"
_cell_formula_units_Z 104
_cell_length_a 25.988701
_cell_length_b 19.175126
_cell_length_c 9.750263
_cell_angle_alpha 90.000000
_cell_angle_beta 90.000000
_cell_angle_gamma 90.000000
_cell_volume 4858.913071
_symmetry_space_group_name_H-M "C M C A"
_symmetry_group_IT_number 64
_symmetry_cell_setting 'orthorhombic'
loop_
_space_group_symop_operation_xyz
x,y,z
-x,1/2-y,1/2+z
x,-y,-z
-x,1/2+y,1/2-z
-x,-y,-z
x,1/2+y,1/2-z
-x,y,z
x,1/2-y,1/2+z
1/2+x,1/2+y,z
1/2-x,-y,1/2+z
1/2+x,1/2-y,-z
1/2-x,y,1/2-z
1/2-x,1/2-y,-z
1/2+x,y,1/2-z
1/2-x,1/2+y,z
1/2+x,-y,1/2+z
loop_
_atom_site_type_symbol
_atom_site_label
_atom_site_fract_x
_atom_site_fract_y
_atom_site_fract_z
Si Si1 0.500000 0.662149 0.952086
Si Si2 0.681468 0.900904 0.272610
Si Si3 0.103971 0.916010 0.004486
Si Si4 0.750000 0.466909 0.750000
Si Si5 0.170106 0.579271 0.035955
Si Si6 0.714515 0.255631 0.133728
Si Si7 0.114208 0.168660 0.269895
Si Si8 0.000000 0.232825 0.223469
O O1 0.547467 0.614004 0.988543
O O2 0.500000 0.693414 0.800221
O O3 0.500000 0.727645 0.058209
O O4 0.627786 0.899451 0.348154
O O5 0.710004 0.838059 0.344910
O O6 0.707676 0.976225 0.301447
O O7 0.678542 0.885967 0.111034
O O8 0.127740 0.870351 0.876218
O O9 0.106535 0.000000 0.000000
O O10 0.779019 0.423253 0.867254
O O11 0.122147 0.608769 0.117996
O O12 0.160176 0.500000 0.000000
O O13 0.750000 0.223301 0.250000
O O14 0.657588 0.223163 0.169119
O O15 0.750000 0.250000 0.000000
O O16 0.055808 0.197878 0.263594
#
# Coordination Sequence:
#
# PCOD9480853 Si02
#       8
#     8  16  16   8  16  16  16   8
#     4  10  23  44  72 100 135 178 232 294 362 414
#     4  11  23  42  63  96 134 177 234 279 343 427
#     4  11  23  42  66 101 137 184 235 289 350 425
#     4  10  22  40  66  94 136 182 228 278 344 412
#     4  10  23  41  67  95 134 179 230 283 345 424
#     4  12  25  42  64  97 138 179 228 291 347 418
#     4  11  25  44  69  99 140 181 235 291 364 417
#     4  10  24  46  71 102 133 182 234 298 356 430
#
# _framework density 21.403963000000001
#
# number of rings (size 3 to 8) (size 9 to 14) (size 15 to 20)
#    0.000    1.231    0.769    4.846    3.231   10.462 
#    0.000    0.385    0.000    0.000    0.000    0.000 
#    0.000    0.000    0.000    0.000    0.000    0.000 
#
# Total GULP energy -289660.211298 kJ/mol
# GULP energy per Si atom -5570.388679 kJ/mol
# Density = 2.135525 g / cm^3
# Si number density = 21.403963 Si / 1000 Ang^3
#
#
#
# Elastic Constant Matrix: (Units=GPa)
#
#
# Indices 1 2 3 4 5 6 
#
# 1 116.7957 12.3032 53.6205 0.0000 0.0000 0.0000
# 2 12.3032 49.6875 44.3515 0.0000 0.0000 0.0000
# 3 53.6205 44.3515 133.3063 0.0000 0.0000 0.0000
# 4 0.0000 0.0000 0.0000 35.8185 0.0000 0.0000
# 5 0.0000 0.0000 0.0000 0.0000 27.2958 0.0000
# 6 0.0000 0.0000 0.0000 0.0000 0.0000 8.2959
#
#
#
# Elastic Compliance Matrix: (Units=1/GPa)
#
#
# Indices 1 2 3 4 5 6 
#
# 1 0.010599 0.001680 -0.004822 0.000000 0.000000 0.000000
# 2 0.001680 0.028894 -0.010289 0.000000 0.000000 0.000000
# 3 -0.004822 -0.010289 0.012864 0.000000 0.000000 0.000000
# 4 0.000000 0.000000 0.000000 0.027919 0.000000 0.000000
# 5 0.000000 0.000000 0.000000 0.000000 0.036636 0.000000
# 6 0.000000 0.000000 0.000000 0.000000 0.000000 0.120542
#
#
# Mechanical properties :
#
#
# Convention : Reuss Voigt Hill
#
# Bulk Modulus (GPa) = 39.22373 57.81554 48.51963
# Shear Modulus (GPa) = 18.32759 26.91633 22.62196
#
# Velocity S-wave (km/s) = 2.92939 3.55003 3.25453
# Velocity P-wave (km/s) = 5.45958 6.62373 6.06963
#
# Compressibility (1/GPa) = 0.02549477
#
# Stress axis : x y z
#
# Youngs Moduli (GPa) = 94.35011 34.60970 77.73479
#
# Poissons Ratio (x) = -0.05814 0.37485
# Poissons Ratio (y) = -0.15850 0.79979
# Poissons Ratio (z) = 0.45497 0.35609
#
# Static dielectric constant tensor:
#      x y z
#    x 1.803770 0.000000 0.000000 
#    y 0.000000 1.822620 0.000000 
#    z 0.000000 0.000000 1.840730 
# 
# From -- ./inp_files/10474.got.cif
#   From: 2010.05.17/outbox.cif.g08.bks.cpg/sg64_6_cif.got.tgz:10474.got - 2010.06.03 16:29:19.
