data_PCOD9480468
_publ_section_title
;
Structure prediction by ZEFSAII (Michael W. Deem and Ramdas Pophale) SiO2 
 PCOD9480468
Probable space group: C M C A
;
_chemical_formula_sum "Si O2"
_cell_formula_units_Z 112
_cell_length_a 28.533215
_cell_length_b 11.930432
_cell_length_c 15.398044
_cell_angle_alpha 90.000000
_cell_angle_beta 90.000000
_cell_angle_gamma 90.000000
_cell_volume 5241.703303
_symmetry_space_group_name_H-M "C M C A"
_symmetry_group_IT_number 64
_symmetry_cell_setting 'orthorhombic'
loop_
_space_group_symop_operation_xyz
x,y,z
-x,1/2-y,1/2+z
x,-y,-z
-x,1/2+y,1/2-z
-x,-y,-z
x,1/2+y,1/2-z
-x,y,z
x,1/2-y,1/2+z
1/2+x,1/2+y,z
1/2-x,-y,1/2+z
1/2+x,1/2-y,-z
1/2-x,y,1/2-z
1/2-x,1/2-y,-z
1/2+x,y,1/2-z
1/2-x,1/2+y,z
1/2+x,-y,1/2+z
loop_
_atom_site_type_symbol
_atom_site_label
_atom_site_fract_x
_atom_site_fract_y
_atom_site_fract_z
Si Si1 0.945796 0.366111 0.496157
Si Si2 0.307970 0.240034 0.599387
Si Si3 0.114666 0.288299 0.647363
Si Si4 0.638290 0.461276 0.172084
Si Si5 0.554711 0.322590 0.205973
Si Si6 0.795104 0.949301 0.692777
Si Si7 0.704020 0.342125 0.408285
O O1 0.930736 0.500000 0.500000
O O2 0.918025 0.287735 0.562306
O O3 0.944177 0.313350 0.399340
O O4 0.000000 0.370163 0.523653
O O5 0.342395 0.133774 0.606752
O O6 0.321923 0.336569 0.667227
O O7 0.305387 0.297102 0.505336
O O8 0.254195 0.207733 0.620589
O O9 0.135966 0.412463 0.640483
O O10 0.082104 0.264441 0.731722
O O11 0.158434 0.205238 0.640949
O O12 0.587845 0.431952 0.212798
O O13 0.676706 0.467967 0.246021
O O14 0.500000 0.332791 0.230507
O O15 0.750000 0.920547 0.750000
O O16 0.788198 0.025138 0.607114
#
# Coordination Sequence:
#
# PCOD9480468 Si02
#       7
#    16  16  16  16  16  16  16
#     4  10  21  41  70 102 137 182 235 293 352 420
#     4  11  26  44  64  97 134 178 226 282 330 416
#     4  12  24  42  70 104 139 184 226 298 351 421
#     4  12  24  41  68  98 133 173 230 275 347 408
#     4  11  24  42  66 102 140 176 229 290 355 418
#     4  12  24  42  67  92 133 177 228 275 338 412
#     4  11  25  43  66  96 134 176 227 276 350 400
#
# _framework density 21.367100000000001
#
# number of rings (size 3 to 8) (size 9 to 14) (size 15 to 20)
#    0.000    0.714    4.286    3.429    2.000    0.571 
#    0.000    0.000    0.000    0.000    0.000    4.000 
#    0.000    0.000    0.000    0.000    0.000    0.000 
#
# Total GULP energy -312270.292657 kJ/mol
# GULP energy per Si atom -5576.255226 kJ/mol
# Density = 2.131847 g / cm^3
# Si number density = 21.367100 Si / 1000 Ang^3
#
#
#
# Elastic Constant Matrix: (Units=GPa)
#
#
# Indices 1 2 3 4 5 6 
#
# 1 113.4494 14.6859 31.1445 0.0000 0.0000 0.0000
# 2 14.6859 75.9084 30.8372 0.0000 0.0000 0.0000
# 3 31.1445 30.8372 77.6696 0.0000 0.0000 0.0000
# 4 0.0000 0.0000 0.0000 22.8213 0.0000 0.0000
# 5 0.0000 0.0000 0.0000 0.0000 14.0554 0.0000
# 6 0.0000 0.0000 0.0000 0.0000 0.0000 21.5069
#
#
#
# Elastic Compliance Matrix: (Units=1/GPa)
#
#
# Indices 1 2 3 4 5 6 
#
# 1 0.009913 -0.000361 -0.003832 0.000000 0.000000 0.000000
# 2 -0.000361 0.015720 -0.006097 0.000000 0.000000 0.000000
# 3 -0.003832 -0.006097 0.016832 0.000000 0.000000 0.000000
# 4 0.000000 0.000000 0.000000 0.043819 0.000000 0.000000
# 5 0.000000 0.000000 0.000000 0.000000 0.071147 0.000000
# 6 0.000000 0.000000 0.000000 0.000000 0.000000 0.046497
#
#
# Mechanical properties :
#
#
# Convention : Reuss Voigt Hill
#
# Bulk Modulus (GPa) = 45.69020 46.70693 46.19856
# Shear Modulus (GPa) = 21.57007 24.36736 22.96871
#
# Velocity S-wave (km/s) = 3.18071 3.38067 3.28221
# Velocity P-wave (km/s) = 5.90924 6.09469 6.00268
#
# Compressibility (1/GPa) = 0.02188653
#
# Stress axis : x y z
#
# Youngs Moduli (GPa) = 100.87625 63.61175 59.41067
#
# Poissons Ratio (x) = 0.02298 0.22764
# Poissons Ratio (y) = 0.03645 0.36220
# Poissons Ratio (z) = 0.38652 0.38781
#
# Static dielectric constant tensor:
#      x y z
#    x 1.797740 0.000000 0.000000 
#    y 0.000000 1.762520 0.000000 
#    z 0.000000 0.000000 1.880480 
# 
# From -- ./inp_files/28371.got.cif
#   From: 2010.05.17/outbox.cif.g08.bks.cpg/sg64_15_cif.got.tgz:28371.got - 2010.06.03 16:29:19.
