data_PCOD9480988
_publ_section_title
;
Structure prediction by ZEFSAII (Michael W. Deem and Ramdas Pophale) SiO2 
 PCOD9480988
Probable space group: C M C A
;
_chemical_formula_sum "Si O2"
_cell_formula_units_Z 64
_cell_length_a 9.665312
_cell_length_b 26.997274
_cell_length_c 10.343828
_cell_angle_alpha 90.000000
_cell_angle_beta 90.000000
_cell_angle_gamma 90.000000
_cell_volume 2699.088237
_symmetry_space_group_name_H-M "C M C A"
_symmetry_group_IT_number 64
_symmetry_cell_setting 'orthorhombic'
loop_
_space_group_symop_operation_xyz
x,y,z
-x,1/2-y,1/2+z
x,-y,-z
-x,1/2+y,1/2-z
-x,-y,-z
x,1/2+y,1/2-z
-x,y,z
x,1/2-y,1/2+z
1/2+x,1/2+y,z
1/2-x,-y,1/2+z
1/2+x,1/2-y,-z
1/2-x,y,1/2-z
1/2-x,1/2-y,-z
1/2+x,y,1/2-z
1/2-x,1/2+y,z
1/2+x,-y,1/2+z
loop_
_atom_site_type_symbol
_atom_site_label
_atom_site_fract_x
_atom_site_fract_y
_atom_site_fract_z
Si Si1 0.221532 0.192272 0.986658
Si Si2 0.500000 0.333272 0.801970
Si Si3 0.750000 0.504425 0.250000
Si Si4 0.500000 0.642993 0.468220
Si Si5 0.000000 0.555850 0.872470
Si Si6 0.500000 0.131816 0.641262
Si Si7 0.500000 0.437781 0.881127
O O1 0.134285 0.180009 0.116660
O O2 0.250000 0.250000 0.000000
O O3 0.358023 0.160596 0.971913
O O4 0.125628 0.169857 0.875362
O O5 0.500000 0.318713 0.655527
O O6 0.500000 0.392124 0.782567
O O7 0.640586 0.474102 0.339287
O O8 0.641625 0.533143 0.153919
O O9 0.500000 0.583174 0.488904
O O10 0.000000 0.599924 0.767970
O O11 0.500000 0.090714 0.521139
#
# Coordination Sequence:
#
# PCOD9480988 Si02
#       7
#    16   8   8   8   8   8   8
#     4  10  22  44  68 100 129 175 230 277 332 404
#     4  10  24  43  68  98 138 177 212 282 353 403
#     4  10  22  42  66 100 132 182 242 290 338 420
#     4  12  23  41  67  98 138 172 225 276 337 415
#     4  11  24  45  62  99 139 183 229 276 351 409
#     4  10  23  45  69  92 144 187 217 284 355 409
#     4   9  22  41  68  95 131 177 230 287 351 394
#
# _framework density 23.711711000000001
#
# number of rings (size 3 to 8) (size 9 to 14) (size 15 to 20)
#    0.000    2.000    0.000    3.750    7.000    2.000 
#   18.000    1.250    0.000    0.000    0.000    0.000 
#    0.000    0.000    0.000    0.000    0.000    0.000 
#
# Total GULP energy -178444.735675 kJ/mol
# GULP energy per Si atom -5576.397990 kJ/mol
# Density = 2.365774 g / cm^3
# Si number density = 23.711711 Si / 1000 Ang^3
#
#
#
# Elastic Constant Matrix: (Units=GPa)
#
#
# Indices 1 2 3 4 5 6 
#
# 1 203.8574 67.7907 9.2591 0.0000 0.0000 0.0000
# 2 67.7907 128.6229 15.0856 0.0000 0.0000 0.0000
# 3 9.2591 15.0856 78.1894 0.0000 0.0000 0.0000
# 4 0.0000 0.0000 0.0000 11.6219 0.0000 0.0000
# 5 0.0000 0.0000 0.0000 0.0000 5.0783 0.0000
# 6 0.0000 0.0000 0.0000 0.0000 0.0000 50.7306
#
#
#
# Elastic Compliance Matrix: (Units=1/GPa)
#
#
# Indices 1 2 3 4 5 6 
#
# 1 0.005949 -0.003123 -0.000102 0.000000 0.000000 0.000000
# 2 -0.003123 0.009595 -0.001481 0.000000 0.000000 0.000000
# 3 -0.000102 -0.001481 0.013087 0.000000 0.000000 0.000000
# 4 0.000000 0.000000 0.000000 0.086044 0.000000 0.000000
# 5 0.000000 0.000000 0.000000 0.000000 0.196916 0.000000
# 6 0.000000 0.000000 0.000000 0.000000 0.000000 0.019712
#
#
# Mechanical properties :
#
#
# Convention : Reuss Voigt Hill
#
# Bulk Modulus (GPa) = 52.03544 66.10449 59.06996
# Shear Modulus (GPa) = 14.40417 34.72179 24.56298
#
# Velocity S-wave (km/s) = 2.46737 3.83081 3.22203
# Velocity P-wave (km/s) = 5.48725 6.89244 6.22959
#
# Compressibility (1/GPa) = 0.01921767
#
# Stress axis : x y z
#
# Youngs Moduli (GPa) = 168.10593 104.22617 76.40991
#
# Poissons Ratio (x) = 0.32553 0.00778
# Poissons Ratio (y) = 0.52504 0.11318
# Poissons Ratio (z) = 0.01712 0.15439
#
# Static dielectric constant tensor:
#      x y z
#    x 1.807680 0.000000 0.000000 
#    y 0.000000 2.029010 0.000000 
#    z 0.000000 0.000000 1.774710 
# 
# From -- ./inp_files/12222.got.cif
#   From: 2010.05.17/outbox.cif.g08.bks.cpg/sg64_7_cif.got.tgz:12222.got - 2010.06.03 16:29:19.
