data_PCOD9480275
_publ_section_title
;
Structure prediction by ZEFSAII (Michael W. Deem and Ramdas Pophale) SiO2 
 PCOD9480275
Probable space group: C M C A
;
_chemical_formula_sum "Si O2"
_cell_formula_units_Z 88
_cell_length_a 10.332987
_cell_length_b 21.712101
_cell_length_c 17.114422
_cell_angle_alpha 90.000000
_cell_angle_beta 90.000000
_cell_angle_gamma 90.000000
_cell_volume 3839.635249
_symmetry_space_group_name_H-M "C M C A"
_symmetry_group_IT_number 64
_symmetry_cell_setting 'orthorhombic'
loop_
_space_group_symop_operation_xyz
x,y,z
-x,1/2-y,1/2+z
x,-y,-z
-x,1/2+y,1/2-z
-x,-y,-z
x,1/2+y,1/2-z
-x,y,z
x,1/2-y,1/2+z
1/2+x,1/2+y,z
1/2-x,-y,1/2+z
1/2+x,1/2-y,-z
1/2-x,y,1/2-z
1/2-x,1/2-y,-z
1/2+x,y,1/2-z
1/2-x,1/2+y,z
1/2+x,-y,1/2+z
loop_
_atom_site_type_symbol
_atom_site_label
_atom_site_fract_x
_atom_site_fract_y
_atom_site_fract_z
Si Si1 0.000000 0.275233 0.462315
Si Si2 0.281279 0.384366 0.615712
Si Si3 0.500000 0.660421 0.137864
Si Si4 0.144525 0.350786 0.185935
Si Si5 0.351808 0.508643 0.681166
Si Si6 0.500000 0.201501 0.191571
Si Si7 0.673863 0.797970 0.022171
O O1 0.000000 0.315054 0.547817
O O2 0.165304 0.268406 0.470157
O O3 0.000000 0.261551 0.365783
O O4 0.133832 0.377012 0.643979
O O5 0.327064 0.454363 0.620440
O O6 0.375526 0.340078 0.666593
O O7 0.293140 0.357401 0.528906
O O8 0.500000 0.705964 0.213954
O O9 0.250000 0.336035 0.250000
O O10 0.167720 0.420761 0.155240
O O11 0.155339 0.305871 0.113629
O O12 0.000000 0.350858 0.218793
O O13 0.500000 0.503217 0.708813
O O14 0.250000 0.497964 0.750000
O O15 0.500000 0.796587 0.001458
#
# Coordination Sequence:
#
# PCOD9480275 Si02
#       7
#     8  16   8  16  16   8  16
#     4  10  22  42  59  91 129 176 220 274 333 390
#     4  11  23  38  63  96 130 170 221 273 337 396
#     4  12  22  40  62  92 136 172 220 282 335 398
#     4  10  23  46  71 100 133 175 221 270 335 405
#     4  10  21  39  66  97 132 168 216 275 330 397
#     4  10  22  38  61  90 130 171 225 275 339 408
#     4  11  22  45  65  89 138 172 217 279 331 390
#
# _framework density 22.918844
#
# number of rings (size 3 to 8) (size 9 to 14) (size 15 to 20)
#    0.000    1.455    3.636    1.636    1.273    0.727 
#    9.818    1.818    0.000    1.091    0.000    0.000 
#    0.000    0.000    0.000    0.000    0.000    0.000 
#
# Total GULP energy -245303.936341 kJ/mol
# GULP energy per Si atom -5575.089462 kJ/mol
# Density = 2.286668 g / cm^3
# Si number density = 22.918844 Si / 1000 Ang^3
#
#
#
# Elastic Constant Matrix: (Units=GPa)
#
#
# Indices 1 2 3 4 5 6 
#
# 1 198.6674 28.9789 53.1758 0.0000 0.0000 0.0000
# 2 28.9789 47.5465 42.6011 0.0000 0.0000 0.0000
# 3 53.1758 42.6011 114.4023 0.0000 0.0000 0.0000
# 4 0.0000 0.0000 0.0000 32.6814 0.0000 0.0000
# 5 0.0000 0.0000 0.0000 0.0000 27.5869 0.0000
# 6 0.0000 0.0000 0.0000 0.0000 0.0000 28.9246
#
#
#
# Elastic Compliance Matrix: (Units=1/GPa)
#
#
# Indices 1 2 3 4 5 6 
#
# 1 0.005838 -0.001691 -0.002084 0.000000 0.000000 0.000000
# 2 -0.001691 0.032053 -0.011150 0.000000 0.000000 0.000000
# 3 -0.002084 -0.011150 0.013862 0.000000 0.000000 0.000000
# 4 0.000000 0.000000 0.000000 0.030598 0.000000 0.000000
# 5 0.000000 0.000000 0.000000 0.000000 0.036249 0.000000
# 6 0.000000 0.000000 0.000000 0.000000 0.000000 0.034573
#
#
# Mechanical properties :
#
#
# Convention : Reuss Voigt Hill
#
# Bulk Modulus (GPa) = 45.65579 67.79196 56.72388
# Shear Modulus (GPa) = 26.27114 33.56261 29.91688
#
# Velocity S-wave (km/s) = 3.38933 3.83091 3.61687
# Velocity P-wave (km/s) = 5.93975 7.01507 6.49969
#
# Compressibility (1/GPa) = 0.02190303
#
# Stress axis : x y z
#
# Youngs Moduli (GPa) = 171.29220 31.19856 72.14152
#
# Poissons Ratio (x) = 0.05276 0.15033
# Poissons Ratio (y) = 0.28966 0.80436
# Poissons Ratio (z) = 0.35695 0.34786
#
# Static dielectric constant tensor:
#      x y z
#    x 2.141590 0.000000 0.000000 
#    y 0.000000 1.869060 0.000000 
#    z 0.000000 0.000000 1.788400 
# 
# From -- ./inp_files/30126.got.cif
#   From: 2010.05.17/outbox.cif.g08.bks.cpg/sg64_16_cif.got.tgz:30126.got - 2010.06.03 16:29:19.
