data_PCOD9480393
_publ_section_title
;
Structure prediction by ZEFSAII (Michael W. Deem and Ramdas Pophale) SiO2 
 PCOD9480393
Probable space group: C M C A
;
_chemical_formula_sum "Si O2"
_cell_formula_units_Z 64
_cell_length_a 26.771977
_cell_length_b 12.891388
_cell_length_c 9.134044
_cell_angle_alpha 90.000000
_cell_angle_beta 90.000000
_cell_angle_gamma 90.000000
_cell_volume 3152.413817
_symmetry_space_group_name_H-M "C M C A"
_symmetry_group_IT_number 64
_symmetry_cell_setting 'orthorhombic'
loop_
_space_group_symop_operation_xyz
x,y,z
-x,1/2-y,1/2+z
x,-y,-z
-x,1/2+y,1/2-z
-x,-y,-z
x,1/2+y,1/2-z
-x,y,z
x,1/2-y,1/2+z
1/2+x,1/2+y,z
1/2-x,-y,1/2+z
1/2+x,1/2-y,-z
1/2-x,y,1/2-z
1/2-x,1/2-y,-z
1/2+x,y,1/2-z
1/2-x,1/2+y,z
1/2+x,-y,1/2+z
loop_
_atom_site_type_symbol
_atom_site_label
_atom_site_fract_x
_atom_site_fract_y
_atom_site_fract_z
Si Si1 0.797084 0.967274 0.835659
Si Si2 0.359867 0.914911 0.124794
Si Si3 0.440906 0.660446 0.819789
Si Si4 0.886604 0.809910 0.882464
O O1 0.750000 0.921724 0.750000
O O2 0.816345 0.065444 0.741943
O O3 0.844244 0.890591 0.840090
O O4 0.784057 0.000000 0.000000
O O5 0.412141 0.920460 0.214618
O O6 0.359625 0.797373 0.067431
O O7 0.356516 0.000000 0.000000
O O8 0.500000 0.652447 0.814373
O O9 0.421499 0.769870 0.750483
O O10 0.419773 0.650509 0.983030
#
# Coordination Sequence:
#
# PCOD9480393 Si02
#       4
#    16  16  16  16
#     4  12  24  44  67  98 132 177 226 275 334 388
#     4  10  23  42  65  97 135 169 219 277 319 399
#     4  10  21  40  69  96 131 176 217 272 332 390
#     4  10  22  43  66  94 138 169 223 273 329 395
#
# _framework density 20.301902999999999
#
# number of rings (size 3 to 8) (size 9 to 14) (size 15 to 20)
#    1.500    0.000    2.500    3.000    0.000    1.500 
#    0.000    8.750    0.000    0.000    0.000    0.000 
#    0.000    0.000    0.000    0.000    0.000    0.000 
#
# Total GULP energy -178487.494331 kJ/mol
# GULP energy per Si atom -5577.734198 kJ/mol
# Density = 2.025570 g / cm^3
# Si number density = 20.301903 Si / 1000 Ang^3
#
#
#
# Elastic Constant Matrix: (Units=GPa)
#
#
# Indices 1 2 3 4 5 6 
#
# 1 110.6611 4.9689 62.3590 0.0000 0.0000 0.0000
# 2 4.9689 37.3692 2.1778 0.0000 0.0000 0.0000
# 3 62.3590 2.1778 105.6011 0.0000 0.0000 0.0000
# 4 0.0000 0.0000 0.0000 10.5140 0.0000 0.0000
# 5 0.0000 0.0000 0.0000 0.0000 36.7186 0.0000
# 6 0.0000 0.0000 0.0000 0.0000 0.0000 17.9467
#
#
#
# Elastic Compliance Matrix: (Units=1/GPa)
#
#
# Indices 1 2 3 4 5 6 
#
# 1 0.013610 -0.001343 -0.008009 0.000000 0.000000 0.000000
# 2 -0.001343 0.026925 0.000238 0.000000 0.000000 0.000000
# 3 -0.008009 0.000238 0.014194 0.000000 0.000000 0.000000
# 4 0.000000 0.000000 0.000000 0.095111 0.000000 0.000000
# 5 0.000000 0.000000 0.000000 0.000000 0.027234 0.000000
# 6 0.000000 0.000000 0.000000 0.000000 0.000000 0.055721
#
#
# Mechanical properties :
#
#
# Convention : Reuss Voigt Hill
#
# Bulk Modulus (GPa) = 27.39709 43.62697 35.51203
# Shear Modulus (GPa) = 18.99758 25.31090 22.15424
#
# Velocity S-wave (km/s) = 3.06233 3.53473 3.30698
# Velocity P-wave (km/s) = 5.10176 6.18020 5.66669
#
# Compressibility (1/GPa) = 0.03650023
#
# Stress axis : x y z
#
# Youngs Moduli (GPa) = 73.47387 37.14059 70.45056
#
# Poissons Ratio (x) = 0.04988 0.56426
# Poissons Ratio (y) = 0.09867 -0.01675
# Poissons Ratio (z) = 0.58848 -0.00883
#
# Static dielectric constant tensor:
#      x y z
#    x 1.687550 0.000000 0.000000 
#    y 0.000000 1.732230 0.000000 
#    z 0.000000 0.000000 1.735280 
# 
# From -- ./inp_files/7755.got.cif
#   From: 2010.05.17/outbox.cif.g08.bks.cpg/sg64_4_cif.got.tgz:7755.got - 2010.06.03 16:29:19.
