data_PCOD9480090
_publ_section_title
;
Structure prediction by ZEFSAII (Michael W. Deem and Ramdas Pophale) SiO2 
 PCOD9480090
Probable space group: C M C A
;
_chemical_formula_sum "Si O2"
_cell_formula_units_Z 64
_cell_length_a 15.885801
_cell_length_b 16.671062
_cell_length_c 9.962469
_cell_angle_alpha 90.000000
_cell_angle_beta 90.000000
_cell_angle_gamma 90.000000
_cell_volume 2638.392280
_symmetry_space_group_name_H-M "C M C A"
_symmetry_group_IT_number 64
_symmetry_cell_setting 'orthorhombic'
loop_
_space_group_symop_operation_xyz
x,y,z
-x,1/2-y,1/2+z
x,-y,-z
-x,1/2+y,1/2-z
-x,-y,-z
x,1/2+y,1/2-z
-x,y,z
x,1/2-y,1/2+z
1/2+x,1/2+y,z
1/2-x,-y,1/2+z
1/2+x,1/2-y,-z
1/2-x,y,1/2-z
1/2-x,1/2-y,-z
1/2+x,y,1/2-z
1/2-x,1/2+y,z
1/2+x,-y,1/2+z
loop_
_atom_site_type_symbol
_atom_site_label
_atom_site_fract_x
_atom_site_fract_y
_atom_site_fract_z
Si Si1 0.847921 0.851534 0.655225
Si Si2 0.905444 0.071944 0.586234
Si Si3 0.663526 0.586549 0.071839
Si Si4 0.100179 0.676761 0.679103
O O1 0.906408 0.858573 0.525267
O O2 0.755823 0.876529 0.601835
O O3 0.874467 0.910014 0.777597
O O4 0.854126 0.760613 0.704063
O O5 0.865423 0.108987 0.718245
O O6 0.000000 0.046053 0.621076
O O7 0.865419 0.000000 0.500000
O O8 0.665073 0.500000 0.000000
O O9 0.615974 0.645147 0.970141
O O10 0.000000 0.685965 0.704000
#
# Coordination Sequence:
#
# PCOD9480090 Si02
#       4
#    16  16  16  16
#     4  11  23  41  64  95 130 169 216 269 327 387
#     4  10  21  38  62  92 128 173 219 265 320 383
#     4  11  25  43  66  97 131 173 219 269 326 388
#     4  11  24  42  67  99 134 173 218 269 326 388
#
# _framework density 24.257197000000001
#
# number of rings (size 3 to 8) (size 9 to 14) (size 15 to 20)
#    0.000    1.250    0.000    5.250    0.000    9.500 
#    0.000    0.000    0.000    0.000    0.000    0.000 
#    0.000    0.000    0.000    0.000    0.000    0.000 
#
# Total GULP energy -178855.622131 kJ/mol
# GULP energy per Si atom -5589.238192 kJ/mol
# Density = 2.420199 g / cm^3
# Si number density = 24.257197 Si / 1000 Ang^3
#
#
#
# Elastic Constant Matrix: (Units=GPa)
#
#
# Indices 1 2 3 4 5 6 
#
# 1 53.3167 18.5967 11.1768 0.0000 0.0000 0.0000
# 2 18.5967 127.2745 15.3148 0.0000 0.0000 0.0000
# 3 11.1768 15.3148 131.8218 0.0000 0.0000 0.0000
# 4 0.0000 0.0000 0.0000 45.0053 0.0000 0.0000
# 5 0.0000 0.0000 0.0000 0.0000 -4.0365 0.0000
# 6 0.0000 0.0000 0.0000 0.0000 0.0000 16.0765
#
#
#
# Elastic Compliance Matrix: (Units=1/GPa)
#
#
# Indices 1 2 3 4 5 6 
#
# 1 0.020006 -0.002758 -0.001376 0.000000 0.000000 0.000000
# 2 -0.002758 0.008349 -0.000736 0.000000 0.000000 0.000000
# 3 -0.001376 -0.000736 0.007788 0.000000 0.000000 0.000000
# 4 0.000000 0.000000 0.000000 0.022220 0.000000 0.000000
# 5 0.000000 0.000000 0.000000 0.000000 -0.247741 0.000000
# 6 0.000000 0.000000 0.000000 0.000000 0.000000 0.062202
#
#
# Mechanical properties :
#
#
# Convention : Reuss Voigt Hill
#
# Bulk Modulus (GPa) = 37.87364 44.73217 41.30290
# Shear Modulus (GPa) = -46.02551 29.23072 -8.39740
#
# Velocity S-wave (km/s) = -4.36064 3.47512 -1.86261
# Velocity P-wave (km/s) = 3.11549 5.88071 3.52679
#
# Compressibility (1/GPa) = 0.02640359
#
# Stress axis : x y z
#
# Youngs Moduli (GPa) = 49.98473 119.78147 128.39974
#
# Poissons Ratio (x) = 0.33031 0.17666
# Poissons Ratio (y) = 0.13784 0.09452
# Poissons Ratio (z) = 0.06877 0.08817
#
# Static dielectric constant tensor:
#      x y z
#    x 1.924430 0.000000 0.000000 
#    y 0.000000 2.005360 0.000000 
#    z 0.000000 0.000000 1.951460 
# 
# From -- ./inp_files/8972.got.cif
#   From: 2010.05.17/outbox.cif.g08.bks.cpg/sg64_5_cif.got.tgz:8972.got - 2010.06.03 16:29:19.
