data_PCOD9480909
_publ_section_title
;
Structure prediction by ZEFSAII (Michael W. Deem and Ramdas Pophale) SiO2 
 PCOD9480909
Probable space group: C M C A
;
_chemical_formula_sum "Si O2"
_cell_formula_units_Z 80
_cell_length_a 7.723905
_cell_length_b 16.940379
_cell_length_c 24.921714
_cell_angle_alpha 90.000000
_cell_angle_beta 90.000000
_cell_angle_gamma 90.000000
_cell_volume 3260.903551
_symmetry_space_group_name_H-M "C M C A"
_symmetry_group_IT_number 64
_symmetry_cell_setting 'orthorhombic'
loop_
_space_group_symop_operation_xyz
x,y,z
-x,1/2-y,1/2+z
x,-y,-z
-x,1/2+y,1/2-z
-x,-y,-z
x,1/2+y,1/2-z
-x,y,z
x,1/2-y,1/2+z
1/2+x,1/2+y,z
1/2-x,-y,1/2+z
1/2+x,1/2-y,-z
1/2-x,y,1/2-z
1/2-x,1/2-y,-z
1/2+x,y,1/2-z
1/2-x,1/2+y,z
1/2+x,-y,1/2+z
loop_
_atom_site_type_symbol
_atom_site_label
_atom_site_fract_x
_atom_site_fract_y
_atom_site_fract_z
Si Si1 0.307115 0.003828 0.828820
Si Si2 0.205601 0.838806 0.510015
Si Si3 0.802096 0.531169 0.557105
Si Si4 0.207819 0.157024 0.366964
Si Si5 0.295092 0.679805 0.689988
O O1 0.500000 0.000725 0.804138
O O2 0.314561 0.013992 0.892970
O O3 0.221790 0.088891 0.814162
O O4 0.227949 0.914751 0.827559
O O5 0.250000 0.750000 0.500000
O O6 0.297961 0.878402 0.459126
O O7 0.267066 0.857279 0.571183
O O8 0.000000 0.853142 0.507309
O O9 0.735829 0.500000 0.500000
O O10 0.000000 0.506302 0.566357
O O11 0.245026 0.246451 0.347918
O O12 0.000000 0.149222 0.367136
O O13 0.500000 0.669686 0.682584
O O14 0.250000 0.706244 0.750000
#
# Coordination Sequence:
#
# PCOD9480909 Si02
#       5
#    16  16  16  16  16
#     4  10  22  42  66  92 124 167 213 257 313 375
#     4  11  22  36  58  86 124 167 207 254 307 366
#     4  11  22  35  56  89 127 164 206 250 296 361
#     4  10  22  41  64  90 123 162 207 255 309 369
#     4  11  25  44  67  92 121 156 202 260 319 379
#
# _framework density 24.533078
#
# number of rings (size 3 to 8) (size 9 to 14) (size 15 to 20)
#    0.000    1.400    2.000    3.000    0.000    8.800 
#    0.000    2.000    0.000    0.000    0.000    0.000 
#    0.000    0.000    0.000    0.000    0.000    0.000 
#
# Total GULP energy -222920.630112 kJ/mol
# GULP energy per Si atom -5573.015753 kJ/mol
# Density = 2.447724 g / cm^3
# Si number density = 24.533078 Si / 1000 Ang^3
#
#
#
# Elastic Constant Matrix: (Units=GPa)
#
#
# Indices 1 2 3 4 5 6 
#
# 1 86.7110 19.8120 4.1553 0.0000 0.0000 0.0000
# 2 19.8120 146.9806 6.3444 0.0000 0.0000 0.0000
# 3 4.1553 6.3444 63.4790 0.0000 0.0000 0.0000
# 4 0.0000 0.0000 0.0000 -1.4906 0.0000 0.0000
# 5 0.0000 0.0000 0.0000 0.0000 -23.9698 0.0000
# 6 0.0000 0.0000 0.0000 0.0000 0.0000 39.7654
#
#
#
# Elastic Compliance Matrix: (Units=1/GPa)
#
#
# Indices 1 2 3 4 5 6 
#
# 1 0.011923 -0.001580 -0.000623 0.000000 0.000000 0.000000
# 2 -0.001580 0.007043 -0.000600 0.000000 0.000000 0.000000
# 3 -0.000623 -0.000600 0.015854 0.000000 0.000000 0.000000
# 4 0.000000 0.000000 0.000000 -0.670893 0.000000 0.000000
# 5 0.000000 0.000000 0.000000 0.000000 -0.041719 0.000000
# 6 0.000000 0.000000 0.000000 0.000000 0.000000 0.025148
#
#
# Mechanical properties :
#
#
# Convention : Reuss Voigt Hill
#
# Bulk Modulus (GPa) = 34.23084 39.75488 36.99286
# Shear Modulus (GPa) = -7.84560 20.65160 6.40300
#
# Velocity S-wave (km/s) = -1.79023 2.90450 1.61729
# Velocity P-wave (km/s) = 3.11609 5.24290 4.31265
#
# Compressibility (1/GPa) = 0.02921342
#
# Stress axis : x y z
#
# Youngs Moduli (GPa) = 83.86819 141.99396 63.07555
#
# Poissons Ratio (x) = 0.22440 0.03927
# Poissons Ratio (y) = 0.13254 0.03787
# Poissons Ratio (z) = 0.05221 0.08526
#
# Static dielectric constant tensor:
#      x y z
#    x 2.024430 0.000000 0.000000 
#    y 0.000000 -2.219850 0.000000 
#    z 0.000000 0.000000 2.245810 
# 
# From -- ./inp_files/47837.got.cif
#   From: 2010.05.17/outbox.cif.g08.bks.cpg/sg64_24_cif.got.tgz:47837.got - 2010.06.03 16:29:19.
