data_PCOD9480964
_publ_section_title
;
Structure prediction by ZEFSAII (Michael W. Deem and Ramdas Pophale) SiO2 
 PCOD9480964
Probable space group: C M C A
;
_chemical_formula_sum "Si O2"
_cell_formula_units_Z 40
_cell_length_a 15.027559
_cell_length_b 22.491765
_cell_length_c 5.057563
_cell_angle_alpha 90.000000
_cell_angle_beta 90.000000
_cell_angle_gamma 90.000000
_cell_volume 1709.437710
_symmetry_space_group_name_H-M "C M C A"
_symmetry_group_IT_number 64
_symmetry_cell_setting 'orthorhombic'
loop_
_space_group_symop_operation_xyz
x,y,z
-x,1/2-y,1/2+z
x,-y,-z
-x,1/2+y,1/2-z
-x,-y,-z
x,1/2+y,1/2-z
-x,y,z
x,1/2-y,1/2+z
1/2+x,1/2+y,z
1/2-x,-y,1/2+z
1/2+x,1/2-y,-z
1/2-x,y,1/2-z
1/2-x,1/2-y,-z
1/2+x,y,1/2-z
1/2-x,1/2+y,z
1/2+x,-y,1/2+z
loop_
_atom_site_type_symbol
_atom_site_label
_atom_site_fract_x
_atom_site_fract_y
_atom_site_fract_z
Si Si1 0.653710 0.871760 0.894955
Si Si2 0.185540 0.000000 0.500000
Si Si3 0.250000 0.206315 0.750000
Si Si4 0.500000 0.208112 0.329840
O O1 0.750000 0.872601 0.750000
O O2 0.584507 0.833229 0.731359
O O3 0.630622 0.940431 0.940499
O O4 0.670142 0.837945 0.172376
O O5 0.250000 0.987291 0.250000
O O6 0.250000 0.250000 0.500000
O O7 0.500000 0.239080 0.612943
#
# Coordination Sequence:
#
# PCOD9480964 Si02
#       4
#    16   8   8   8
#     4  11  25  46  71 100 140 182 228 284 345 404
#     4  10  22  41  72 101 130 180 236 275 338 417
#     4  12  22  36  66  92 126 178 216 268 338 392
#     4  12  30  43  66 105 140 178 236 280 338 420
#
# _framework density 23.399507
#
# number of rings (size 3 to 8) (size 9 to 14) (size 15 to 20)
#    0.000    0.800    4.000    2.400    5.600    0.800 
#    0.000    0.000    0.000    8.400    0.000    0.000 
#    0.000    0.000    0.000    0.000    0.000    0.000 
#
# Total GULP energy -111932.539634 kJ/mol
# GULP energy per Si atom -5596.626982 kJ/mol
# Density = 2.334625 g / cm^3
# Si number density = 23.399507 Si / 1000 Ang^3
#
#
#
# Elastic Constant Matrix: (Units=GPa)
#
#
# Indices 1 2 3 4 5 6 
#
# 1 91.4437 39.7225 14.6934 0.0000 0.0000 0.0000
# 2 39.7225 203.3854 20.5112 0.0000 0.0000 0.0000
# 3 14.6934 20.5112 131.0731 0.0000 0.0000 0.0000
# 4 0.0000 0.0000 0.0000 25.8404 0.0000 0.0000
# 5 0.0000 0.0000 0.0000 0.0000 23.3383 0.0000
# 6 0.0000 0.0000 0.0000 0.0000 0.0000 24.3368
#
#
#
# Elastic Compliance Matrix: (Units=1/GPa)
#
#
# Indices 1 2 3 4 5 6 
#
# 1 0.012077 -0.002258 -0.001001 0.000000 0.000000 0.000000
# 2 -0.002258 0.005418 -0.000595 0.000000 0.000000 0.000000
# 3 -0.001001 -0.000595 0.007835 0.000000 0.000000 0.000000
# 4 0.000000 0.000000 0.000000 0.038699 0.000000 0.000000
# 5 0.000000 0.000000 0.000000 0.000000 0.042848 0.000000
# 6 0.000000 0.000000 0.000000 0.000000 0.000000 0.041090
#
#
# Mechanical properties :
#
#
# Convention : Reuss Voigt Hill
#
# Bulk Modulus (GPa) = 56.74296 63.97292 60.35794
# Shear Modulus (GPa) = 30.95068 38.10144 34.52606
#
# Velocity S-wave (km/s) = 3.64085 4.03960 3.84540
# Velocity P-wave (km/s) = 6.47894 7.01118 6.75031
#
# Compressibility (1/GPa) = 0.01762333
#
# Stress axis : x y z
#
# Youngs Moduli (GPa) = 82.80024 184.57939 127.63968
#
# Poissons Ratio (x) = 0.41675 0.12771
# Poissons Ratio (y) = 0.18695 0.07591
# Poissons Ratio (z) = 0.08285 0.10977
#
# Static dielectric constant tensor:
#      x y z
#    x 1.937690 0.000000 0.000000 
#    y 0.000000 1.909160 0.000000 
#    z 0.000000 0.000000 1.961970 
# 
# From -- ./inp_files/615.got.cif
#   From: 2010.05.17/outbox.cif.g08.bks.cpg/sg64_1_cif.got.tgz:615.got - 2010.06.03 16:29:19.
