data_PCOD9480168
_publ_section_title
;
Structure prediction by ZEFSAII (Michael W. Deem and Ramdas Pophale) SiO2 
 PCOD9480168
Probable space group: C M C A
;
_chemical_formula_sum "Si O2"
_cell_formula_units_Z 96
_cell_length_a 8.876682
_cell_length_b 22.030723
_cell_length_c 23.957185
_cell_angle_alpha 90.000000
_cell_angle_beta 90.000000
_cell_angle_gamma 90.000000
_cell_volume 4685.060446
_symmetry_space_group_name_H-M "C M C A"
_symmetry_group_IT_number 64
_symmetry_cell_setting 'orthorhombic'
loop_
_space_group_symop_operation_xyz
x,y,z
-x,1/2-y,1/2+z
x,-y,-z
-x,1/2+y,1/2-z
-x,-y,-z
x,1/2+y,1/2-z
-x,y,z
x,1/2-y,1/2+z
1/2+x,1/2+y,z
1/2-x,-y,1/2+z
1/2+x,1/2-y,-z
1/2-x,y,1/2-z
1/2-x,1/2-y,-z
1/2+x,y,1/2-z
1/2-x,1/2+y,z
1/2+x,-y,1/2+z
loop_
_atom_site_type_symbol
_atom_site_label
_atom_site_fract_x
_atom_site_fract_y
_atom_site_fract_z
Si Si1 0.179977 0.332833 0.810716
Si Si2 0.320301 0.533855 0.576959
Si Si3 0.678096 0.845373 0.473576
Si Si4 0.679586 0.395769 0.577192
Si Si5 0.322462 0.590329 0.691437
Si Si6 0.181382 0.715038 0.869732
O O1 0.250000 0.343925 0.750000
O O2 0.211735 0.383459 0.857883
O O3 0.247610 0.272030 0.838425
O O4 0.000000 0.326791 0.805065
O O5 0.500000 0.544168 0.565947
O O6 0.227421 0.588207 0.549708
O O7 0.282590 0.465169 0.561351
O O8 0.296324 0.541424 0.643178
O O9 0.500000 0.837058 0.471243
O O10 0.736145 0.848752 0.537000
O O11 0.758205 0.797878 0.432154
O O12 0.500000 0.388338 0.569053
O O13 0.500000 0.595061 0.699849
O O14 0.250000 0.576348 0.750000
O O15 0.273584 0.655145 0.665914
O O16 0.000000 0.719234 0.871119
#
# Coordination Sequence:
#
# PCOD9480168 Si02
#       6
#    16  16  16  16  16  16
#     4  11  24  41  61  86 116 153 195 236 281 334
#     4   9  19  37  57  79 113 156 195 231 281 345
#     4  11  22  36  59  91 119 143 183 241 296 343
#     4  10  22  40  60  81 113 158 197 229 276 343
#     4   9  18  31  51  79 107 140 184 232 281 332
#     4  10  21  39  61  83 112 151 192 236 289 346
#
# _framework density 20.490663000000001
#
# number of rings (size 3 to 8) (size 9 to 14) (size 15 to 20)
#    0.000    2.000    0.000    4.500    0.000   10.000 
#    0.000    0.000    0.000    0.000    0.000    0.000 
#    0.000    0.000    0.000    0.000    0.000    0.000 
#
# Total GULP energy -268176.813934 kJ/mol
# GULP energy per Si atom -5587.016957 kJ/mol
# Density = 2.044403 g / cm^3
# Si number density = 20.490663 Si / 1000 Ang^3
#
#
#
# Elastic Constant Matrix: (Units=GPa)
#
#
# Indices 1 2 3 4 5 6 
#
# 1 50.2948 14.3422 44.0558 0.0000 0.0000 0.0000
# 2 14.3422 33.0533 28.8043 0.0000 0.0000 0.0000
# 3 44.0558 28.8043 120.2691 0.0000 0.0000 0.0000
# 4 0.0000 0.0000 0.0000 8.5984 0.0000 0.0000
# 5 0.0000 0.0000 0.0000 0.0000 36.1834 0.0000
# 6 0.0000 0.0000 0.0000 0.0000 0.0000 13.2445
#
#
#
# Elastic Compliance Matrix: (Units=1/GPa)
#
#
# Indices 1 2 3 4 5 6 
#
# 1 0.029756 -0.004313 -0.009867 0.000000 0.000000 0.000000
# 2 -0.004313 0.038859 -0.007727 0.000000 0.000000 0.000000
# 3 -0.009867 -0.007727 0.013780 0.000000 0.000000 0.000000
# 4 0.000000 0.000000 0.000000 0.116301 0.000000 0.000000
# 5 0.000000 0.000000 0.000000 0.000000 0.027637 0.000000
# 6 0.000000 0.000000 0.000000 0.000000 0.000000 0.075503
#
#
# Mechanical properties :
#
#
# Convention : Reuss Voigt Hill
#
# Bulk Modulus (GPa) = 25.91933 42.00241 33.96087
# Shear Modulus (GPa) = 13.94665 19.36623 16.65644
#
# Velocity S-wave (km/s) = 2.61173 3.07762 2.85420
# Velocity P-wave (km/s) = 4.66601 5.75950 5.24135
#
# Compressibility (1/GPa) = 0.03858124
#
# Stress axis : x y z
#
# Youngs Moduli (GPa) = 33.60723 25.73395 72.57101
#
# Poissons Ratio (x) = 0.11098 0.71605
# Poissons Ratio (y) = 0.14494 0.56075
# Poissons Ratio (z) = 0.33160 0.19884
#
# Static dielectric constant tensor:
#      x y z
#    x 1.684900 0.000000 0.000000 
#    y 0.000000 1.735360 0.000000 
#    z 0.000000 0.000000 1.777010 
# 
# From -- ./inp_files/42985.got.cif
#   From: 2010.05.17/outbox.cif.g08.bks.cpg/sg64_22_cif.got.tgz:42985.got - 2010.06.03 16:29:19.
