data_PCOD9480288
_publ_section_title
;
Structure prediction by ZEFSAII (Michael W. Deem and Ramdas Pophale) SiO2 
 PCOD9480288
Probable space group: C M C A
;
_chemical_formula_sum "Si O2"
_cell_formula_units_Z 64
_cell_length_a 18.393266
_cell_length_b 8.390866
_cell_length_c 19.537605
_cell_angle_alpha 90.000000
_cell_angle_beta 90.000000
_cell_angle_gamma 90.000000
_cell_volume 3015.344675
_symmetry_space_group_name_H-M "C M C A"
_symmetry_group_IT_number 64
_symmetry_cell_setting 'orthorhombic'
loop_
_space_group_symop_operation_xyz
x,y,z
-x,1/2-y,1/2+z
x,-y,-z
-x,1/2+y,1/2-z
-x,-y,-z
x,1/2+y,1/2-z
-x,y,z
x,1/2-y,1/2+z
1/2+x,1/2+y,z
1/2-x,-y,1/2+z
1/2+x,1/2-y,-z
1/2-x,y,1/2-z
1/2-x,1/2-y,-z
1/2+x,y,1/2-z
1/2-x,1/2+y,z
1/2+x,-y,1/2+z
loop_
_atom_site_type_symbol
_atom_site_label
_atom_site_fract_x
_atom_site_fract_y
_atom_site_fract_z
Si Si1 0.416461 0.384726 0.170502
Si Si2 0.170178 0.812244 0.779278
Si Si3 0.809598 0.114367 0.587056
Si Si4 0.155048 0.747509 0.048526
O O1 0.500000 0.414827 0.187797
O O2 0.381649 0.249846 0.219143
O O3 0.366796 0.537793 0.184757
O O4 0.407804 0.326141 0.092661
O O5 0.250000 0.850025 0.750000
O O6 0.179333 0.675644 0.836633
O O7 0.855251 0.219096 0.532101
O O8 0.726828 0.147695 0.563654
O O9 0.828145 0.929771 0.577499
#
# Coordination Sequence:
#
# PCOD9480288 Si02
#       4
#    16  16  16  16
#     4  12  26  43  63  96 137 174 213 269 333 388
#     4  12  24  41  67  97 125 174 224 270 318 386
#     4  10  21  39  68  98 125 164 221 272 315 377
#     4  10  21  40  65  98 130 165 213 270 325 383
#
# _framework density 21.224769999999999
#
# number of rings (size 3 to 8) (size 9 to 14) (size 15 to 20)
#    0.000    1.000    2.500    4.500    0.000    3.000 
#    0.000    7.500    0.000    0.000    0.000    0.000 
#    0.000    0.000    0.000    0.000    0.000    0.000 
#
# Total GULP energy -179096.386396 kJ/mol
# GULP energy per Si atom -5596.762075 kJ/mol
# Density = 2.117646 g / cm^3
# Si number density = 21.224770 Si / 1000 Ang^3
#
#
#
# Elastic Constant Matrix: (Units=GPa)
#
#
# Indices 1 2 3 4 5 6 
#
# 1 107.1022 28.8006 35.0996 0.0000 0.0000 0.0000
# 2 28.8006 66.9151 5.3845 0.0000 0.0000 0.0000
# 3 35.0996 5.3845 88.6823 0.0000 0.0000 0.0000
# 4 0.0000 0.0000 0.0000 34.0246 0.0000 0.0000
# 5 0.0000 0.0000 0.0000 0.0000 23.0365 0.0000
# 6 0.0000 0.0000 0.0000 0.0000 0.0000 5.6971
#
#
#
# Elastic Compliance Matrix: (Units=1/GPa)
#
#
# Indices 1 2 3 4 5 6 
#
# 1 0.012117 -0.004853 -0.004501 0.000000 0.000000 0.000000
# 2 -0.004853 0.016961 0.000891 0.000000 0.000000 0.000000
# 3 -0.004501 0.000891 0.013004 0.000000 0.000000 0.000000
# 4 0.000000 0.000000 0.000000 0.029390 0.000000 0.000000
# 5 0.000000 0.000000 0.000000 0.000000 0.043409 0.000000
# 6 0.000000 0.000000 0.000000 0.000000 0.000000 0.175529
#
#
# Mechanical properties :
#
#
# Convention : Reuss Voigt Hill
#
# Bulk Modulus (GPa) = 39.75259 44.58542 42.16901
# Shear Modulus (GPa) = 15.83669 25.44596 20.64133
#
# Velocity S-wave (km/s) = 2.73452 3.46624 3.12189
# Velocity P-wave (km/s) = 5.36098 6.08865 5.73637
#
# Compressibility (1/GPa) = 0.02515559
#
# Stress axis : x y z
#
# Youngs Moduli (GPa) = 82.52864 58.95738 76.90166
#
# Poissons Ratio (x) = 0.28612 0.34614
# Poissons Ratio (y) = 0.40051 -0.06852
# Poissons Ratio (z) = 0.37147 -0.05253
#
# Static dielectric constant tensor:
#      x y z
#    x 1.718060 0.000000 0.000000 
#    y 0.000000 1.772670 0.000000 
#    z 0.000000 0.000000 1.801560 
# 
# From -- ./inp_files/39790.got.cif
#   From: 2010.05.17/outbox.cif.g08.bks.cpg/sg64_20_cif.got.tgz:39790.got - 2010.06.03 16:29:19.
