data_PCOD9480997
_publ_section_title
;
Structure prediction by ZEFSAII (Michael W. Deem and Ramdas Pophale) SiO2 
 PCOD9480997
Probable space group: C M C A
;
_chemical_formula_sum "Si O2"
_cell_formula_units_Z 64
_cell_length_a 15.357125
_cell_length_b 13.034866
_cell_length_c 13.753658
_cell_angle_alpha 90.000000
_cell_angle_beta 90.000000
_cell_angle_gamma 90.000000
_cell_volume 2753.180666
_symmetry_space_group_name_H-M "C M C A"
_symmetry_group_IT_number 64
_symmetry_cell_setting 'orthorhombic'
loop_
_space_group_symop_operation_xyz
x,y,z
-x,1/2-y,1/2+z
x,-y,-z
-x,1/2+y,1/2-z
-x,-y,-z
x,1/2+y,1/2-z
-x,y,z
x,1/2-y,1/2+z
1/2+x,1/2+y,z
1/2-x,-y,1/2+z
1/2+x,1/2-y,-z
1/2-x,y,1/2-z
1/2-x,1/2-y,-z
1/2+x,y,1/2-z
1/2-x,1/2+y,z
1/2+x,-y,1/2+z
loop_
_atom_site_type_symbol
_atom_site_label
_atom_site_fract_x
_atom_site_fract_y
_atom_site_fract_z
Si Si1 0.097726 0.555826 0.624098
Si Si2 0.903862 0.102767 0.648298
Si Si3 0.231642 0.066013 0.362754
Si Si4 0.648051 0.238289 0.018613
O O1 0.105840 0.599673 0.735098
O O2 0.170656 0.468575 0.604799
O O3 0.109575 0.658294 0.561229
O O4 0.000000 0.514215 0.613691
O O5 0.896085 0.203775 0.582187
O O6 0.000000 0.058401 0.627708
O O7 0.820733 0.038130 0.616688
O O8 0.250000 0.090800 0.250000
O O9 0.160152 0.147322 0.402461
O O10 0.750000 0.250000 0.000000
#
# Coordination Sequence:
#
# PCOD9480997 Si02
#       4
#    16  16  16  16
#     4  10  23  45  67  94 135 175 215 269 324 387
#     4  10  22  42  66  94 129 169 217 270 323 383
#     4  10  23  41  65  93 131 168 213 265 325 384
#     4  12  24  37  68  96 129 170 216 267 324 386
#
# _framework density 23.245840000000001
#
# number of rings (size 3 to 8) (size 9 to 14) (size 15 to 20)
#    0.000    1.500    2.500    1.500    3.500    3.000 
#    0.000    3.750    0.000    0.000    0.000    0.000 
#    0.000    0.000    0.000    0.000    0.000    0.000 
#
# Total GULP energy -178248.360479 kJ/mol
# GULP energy per Si atom -5570.261265 kJ/mol
# Density = 2.319293 g / cm^3
# Si number density = 23.245840 Si / 1000 Ang^3
#
#
#
# Elastic Constant Matrix: (Units=GPa)
#
#
# Indices 1 2 3 4 5 6 
#
# 1 146.7441 8.3774 14.3648 0.0000 0.0000 0.0000
# 2 8.3774 42.9989 20.5844 0.0000 0.0000 0.0000
# 3 14.3648 20.5844 101.3889 0.0000 0.0000 0.0000
# 4 0.0000 0.0000 0.0000 15.4245 0.0000 0.0000
# 5 0.0000 0.0000 0.0000 0.0000 9.4539 0.0000
# 6 0.0000 0.0000 0.0000 0.0000 0.0000 6.0733
#
#
#
# Elastic Compliance Matrix: (Units=1/GPa)
#
#
# Indices 1 2 3 4 5 6 
#
# 1 0.006947 -0.000977 -0.000786 0.000000 0.000000 0.000000
# 2 -0.000977 0.025898 -0.005119 0.000000 0.000000 0.000000
# 3 -0.000786 -0.005119 0.011014 0.000000 0.000000 0.000000
# 4 0.000000 0.000000 0.000000 0.064832 0.000000 0.000000
# 5 0.000000 0.000000 0.000000 0.000000 0.105777 0.000000
# 6 0.000000 0.000000 0.000000 0.000000 0.000000 0.164656
#
#
# Mechanical properties :
#
#
# Convention : Reuss Voigt Hill
#
# Bulk Modulus (GPa) = 33.22980 41.97611 37.60296
# Shear Modulus (GPa) = 12.40942 22.71066 17.56004
#
# Velocity S-wave (km/s) = 2.31299 3.12905 2.75145
# Velocity P-wave (km/s) = 4.63241 5.58134 5.12887
#
# Compressibility (1/GPa) = 0.03009347
#
# Stress axis : x y z
#
# Youngs Moduli (GPa) = 143.94062 38.61365 90.79592
#
# Poissons Ratio (x) = 0.03774 0.07135
# Poissons Ratio (y) = 0.14068 0.46482
# Poissons Ratio (z) = 0.11312 0.19768
#
# Static dielectric constant tensor:
#      x y z
#    x 1.832940 0.000000 0.000000 
#    y 0.000000 1.581570 0.000000 
#    z 0.000000 0.000000 1.845530 
# 
# From -- ./inp_files/23231.got.cif
#   From: 2010.05.17/outbox.cif.g08.bks.cpg/sg64_12_cif.got.tgz:23231.got - 2010.06.03 16:29:19.
