data_PCOD9480361
_publ_section_title
;
Structure prediction by ZEFSAII (Michael W. Deem and Ramdas Pophale) SiO2 
 PCOD9480361
Probable space group: C M C A
;
_chemical_formula_sum "Si O2"
_cell_formula_units_Z 96
_cell_length_a 24.228015
_cell_length_b 9.677833
_cell_length_c 18.443180
_cell_angle_alpha 90.000000
_cell_angle_beta 90.000000
_cell_angle_gamma 90.000000
_cell_volume 4324.458786
_symmetry_space_group_name_H-M "C M C A"
_symmetry_group_IT_number 64
_symmetry_cell_setting 'orthorhombic'
loop_
_space_group_symop_operation_xyz
x,y,z
-x,1/2-y,1/2+z
x,-y,-z
-x,1/2+y,1/2-z
-x,-y,-z
x,1/2+y,1/2-z
-x,y,z
x,1/2-y,1/2+z
1/2+x,1/2+y,z
1/2-x,-y,1/2+z
1/2+x,1/2-y,-z
1/2-x,y,1/2-z
1/2-x,1/2-y,-z
1/2+x,y,1/2-z
1/2-x,1/2+y,z
1/2+x,-y,1/2+z
loop_
_atom_site_type_symbol
_atom_site_label
_atom_site_fract_x
_atom_site_fract_y
_atom_site_fract_z
Si Si1 0.315761 0.101255 0.662092
Si Si2 0.401695 0.792058 0.108822
Si Si3 0.864438 0.147875 0.248715
Si Si4 0.785109 0.628816 0.945762
Si Si5 0.061808 0.921639 0.616637
Si Si6 0.632829 0.294374 0.028744
O O1 0.328694 0.236643 0.709523
O O2 0.258434 0.117935 0.619664
O O3 0.359033 0.102109 0.594567
O O4 0.325932 0.966705 0.710470
O O5 0.399649 0.721570 0.185909
O O6 0.343119 0.871705 0.097867
O O7 0.442526 0.917423 0.097679
O O8 0.401561 0.680906 0.043839
O O9 0.907624 0.085728 0.305832
O O10 0.695140 0.742626 0.001042
O O11 0.778139 0.500000 0.000000
O O12 0.102399 0.838551 0.563042
O O13 0.000000 0.860997 0.617689
#
# Coordination Sequence:
#
# PCOD9480361 Si02
#       6
#    16  16  16  16  16  16
#     4  11  24  42  68  95 142 188 216 273 346 394
#     4  10  21  43  62  99 137 163 231 287 319 408
#     4  11  25  45  61 105 141 175 231 276 326 432
#     4  10  21  40  66 100 137 177 225 276 330 402
#     4  11  22  44  72  94 133 186 223 282 346 396
#     4   9  21  41  65 102 132 165 236 285 315 414
#
# _framework density 22.199310000000001
#
# number of rings (size 3 to 8) (size 9 to 14) (size 15 to 20)
#    1.000    0.667    3.333    1.000    2.333    2.667 
#    3.000    0.000    0.000    0.000    0.000    4.667 
#    0.000    0.000    0.000    0.000    0.000    0.000 
#
# Total GULP energy -267421.499287 kJ/mol
# GULP energy per Si atom -5571.281235 kJ/mol
# Density = 2.214878 g / cm^3
# Si number density = 22.199310 Si / 1000 Ang^3
#
#
#
# Elastic Constant Matrix: (Units=GPa)
#
#
# Indices 1 2 3 4 5 6 
#
# 1 68.9153 13.1535 25.0271 0.0000 0.0000 0.0000
# 2 13.1535 77.0887 19.1604 0.0000 0.0000 0.0000
# 3 25.0271 19.1604 111.0890 0.0000 0.0000 0.0000
# 4 0.0000 0.0000 0.0000 19.1907 0.0000 0.0000
# 5 0.0000 0.0000 0.0000 0.0000 -31.8990 0.0000
# 6 0.0000 0.0000 0.0000 0.0000 0.0000 -1.0052
#
#
#
# Elastic Compliance Matrix: (Units=1/GPa)
#
#
# Indices 1 2 3 4 5 6 
#
# 1 0.016072 -0.001925 -0.003289 0.000000 0.000000 0.000000
# 2 -0.001925 0.013784 -0.001944 0.000000 0.000000 0.000000
# 3 -0.003289 -0.001944 0.010078 0.000000 0.000000 0.000000
# 4 0.000000 0.000000 0.000000 0.052109 0.000000 0.000000
# 5 0.000000 0.000000 0.000000 0.000000 -0.031349 0.000000
# 6 0.000000 0.000000 0.000000 0.000000 0.000000 -0.994794
#
#
# Mechanical properties :
#
#
# Convention : Reuss Voigt Hill
#
# Bulk Modulus (GPa) = 39.03372 41.30834 40.17103
# Shear Modulus (GPa) = -5.48699 10.57408 2.54354
#
# Velocity S-wave (km/s) = -1.57387 2.18485 1.07157
# Velocity P-wave (km/s) = 3.78401 5.00131 4.43463
#
# Compressibility (1/GPa) = 0.02561887
#
# Stress axis : x y z
#
# Youngs Moduli (GPa) = 62.21865 72.54981 99.22610
#
# Poissons Ratio (x) = 0.13965 0.32635
# Poissons Ratio (y) = 0.11977 0.19287
# Poissons Ratio (z) = 0.20463 0.14102
#
# Static dielectric constant tensor:
#      x y z
#    x 1.882270 0.000000 0.000000 
#    y 0.000000 1.859490 0.000000 
#    z 0.000000 0.000000 1.847860 
# 
# From -- ./inp_files/34947.got.cif
#   From: 2010.05.17/outbox.cif.g08.bks.cpg/sg64_18_cif.got.tgz:34947.got - 2010.06.03 16:29:19.
