data_PCOD9480101
_publ_section_title
;
Structure prediction by ZEFSAII (Michael W. Deem and Ramdas Pophale) SiO2 
 PCOD9480101
Probable space group: C M C A
;
_chemical_formula_sum "Si O2"
_cell_formula_units_Z 96
_cell_length_a 16.699806
_cell_length_b 19.643492
_cell_length_c 15.559385
_cell_angle_alpha 90.000000
_cell_angle_beta 90.000000
_cell_angle_gamma 90.000000
_cell_volume 5104.139640
_symmetry_space_group_name_H-M "C M C A"
_symmetry_group_IT_number 64
_symmetry_cell_setting 'orthorhombic'
loop_
_space_group_symop_operation_xyz
x,y,z
-x,1/2-y,1/2+z
x,-y,-z
-x,1/2+y,1/2-z
-x,-y,-z
x,1/2+y,1/2-z
-x,y,z
x,1/2-y,1/2+z
1/2+x,1/2+y,z
1/2-x,-y,1/2+z
1/2+x,1/2-y,-z
1/2-x,y,1/2-z
1/2-x,1/2-y,-z
1/2+x,y,1/2-z
1/2-x,1/2+y,z
1/2+x,-y,1/2+z
loop_
_atom_site_type_symbol
_atom_site_label
_atom_site_fract_x
_atom_site_fract_y
_atom_site_fract_z
Si Si1 0.907726 0.085642 0.813480
Si Si2 0.762165 0.059889 0.937182
Si Si3 0.831976 0.972936 0.700150
Si Si4 0.679368 0.302932 0.487080
Si Si5 0.595564 0.827042 0.837756
Si Si6 0.594987 0.281152 0.304282
O O1 0.838738 0.087579 0.885198
O O2 0.894927 0.149062 0.749331
O O3 0.000000 0.088076 0.843967
O O4 0.890372 0.016280 0.761286
O O5 0.717866 0.121858 0.983153
O O6 0.697950 0.023620 0.874507
O O7 0.789981 0.000000 0.000000
O O8 0.750000 0.955818 0.750000
O O9 0.872019 0.903496 0.670623
O O10 0.750000 0.250000 0.500000
O O11 0.622677 0.298493 0.570048
O O12 0.637531 0.287577 0.395920
O O13 0.500000 0.827287 0.834229
O O14 0.624241 0.779651 0.758300
O O15 0.500000 0.271832 0.318869
#
# Coordination Sequence:
#
# PCOD9480101 Si02
#       6
#    16  16  16  16  16  16
#     4  10  21  39  64  89 122 171 212 255 316 378
#     4  11  22  40  60  93 129 162 211 263 312 378
#     4  10  21  38  63  89 125 161 210 258 312 377
#     4  12  25  39  64  95 125 172 213 258 319 382
#     4  11  24  41  63  95 127 164 214 268 321 377
#     4  10  23  43  64  90 128 167 211 264 318 380
#
# _framework density 18.808263
#
# number of rings (size 3 to 8) (size 9 to 14) (size 15 to 20)
#    0.000    1.333    3.333    2.000    2.333    1.667 
#    0.000    1.667    0.000    0.000    0.000    0.000 
#    0.000    0.000    0.000    0.000    0.000    0.000 
#
# Total GULP energy -268106.002859 kJ/mol
# GULP energy per Si atom -5585.541726 kJ/mol
# Density = 1.876545 g / cm^3
# Si number density = 18.808263 Si / 1000 Ang^3
#
#
#
# Elastic Constant Matrix: (Units=GPa)
#
#
# Indices 1 2 3 4 5 6 
#
# 1 57.7280 42.0541 21.0344 0.0000 0.0000 0.0000
# 2 42.0541 82.9901 33.1430 0.0000 0.0000 0.0000
# 3 21.0344 33.1430 63.8622 0.0000 0.0000 0.0000
# 4 0.0000 0.0000 0.0000 30.4174 0.0000 0.0000
# 5 0.0000 0.0000 0.0000 0.0000 31.6244 0.0000
# 6 0.0000 0.0000 0.0000 0.0000 0.0000 18.9231
#
#
#
# Elastic Compliance Matrix: (Units=1/GPa)
#
#
# Indices 1 2 3 4 5 6 
#
# 1 0.027730 -0.013124 -0.002322 0.000000 0.000000 0.000000
# 2 -0.013124 0.021412 -0.006789 0.000000 0.000000 0.000000
# 3 -0.002322 -0.006789 0.019947 0.000000 0.000000 0.000000
# 4 0.000000 0.000000 0.000000 0.032876 0.000000 0.000000
# 5 0.000000 0.000000 0.000000 0.000000 0.031621 0.000000
# 6 0.000000 0.000000 0.000000 0.000000 0.000000 0.052846
#
#
# Mechanical properties :
#
#
# Convention : Reuss Voigt Hill
#
# Bulk Modulus (GPa) = 40.62278 44.11593 42.36936
# Shear Modulus (GPa) = 20.91106 23.41621 22.16363
#
# Velocity S-wave (km/s) = 3.33799 3.53228 3.43651
# Velocity P-wave (km/s) = 6.04164 6.33581 6.19048
#
# Compressibility (1/GPa) = 0.02461673
#
# Stress axis : x y z
#
# Youngs Moduli (GPa) = 36.06259 46.70378 50.13257
#
# Poissons Ratio (x) = 0.61295 0.11642
# Poissons Ratio (y) = 0.47329 0.34037
# Poissons Ratio (z) = 0.08374 0.31709
#
# Static dielectric constant tensor:
#      x y z
#    x 1.635580 0.000000 0.000000 
#    y 0.000000 1.638010 0.000000 
#    z 0.000000 0.000000 1.663010 
# 
# From -- ./inp_files/23932.got.cif
#   From: 2010.05.17/outbox.cif.g08.bks.cpg/sg64_12_cif.got.tgz:23932.got - 2010.06.03 16:29:19.
