data_PCOD9480231
_publ_section_title
;
Structure prediction by ZEFSAII (Michael W. Deem and Ramdas Pophale) SiO2 
 PCOD9480231
Probable space group: C M C A
;
_chemical_formula_sum "Si O2"
_cell_formula_units_Z 96
_cell_length_a 19.597465
_cell_length_b 14.305348
_cell_length_c 14.101733
_cell_angle_alpha 90.000000
_cell_angle_beta 90.000000
_cell_angle_gamma 90.000000
_cell_volume 3953.400494
_symmetry_space_group_name_H-M "C M C A"
_symmetry_group_IT_number 64
_symmetry_cell_setting 'orthorhombic'
loop_
_space_group_symop_operation_xyz
x,y,z
-x,1/2-y,1/2+z
x,-y,-z
-x,1/2+y,1/2-z
-x,-y,-z
x,1/2+y,1/2-z
-x,y,z
x,1/2-y,1/2+z
1/2+x,1/2+y,z
1/2-x,-y,1/2+z
1/2+x,1/2-y,-z
1/2-x,y,1/2-z
1/2-x,1/2-y,-z
1/2+x,y,1/2-z
1/2-x,1/2+y,z
1/2+x,-y,1/2+z
loop_
_atom_site_type_symbol
_atom_site_label
_atom_site_fract_x
_atom_site_fract_y
_atom_site_fract_z
Si Si1 0.858975 0.266404 0.455991
Si Si2 0.280545 0.374694 0.651492
Si Si3 0.075407 0.606925 0.235170
Si Si4 0.421203 0.828841 0.260588
Si Si5 0.146398 0.062294 0.086994
Si Si6 0.919403 0.591825 0.942319
O O1 0.793269 0.208391 0.421794
O O2 0.882940 0.325101 0.362636
O O3 0.852384 0.333850 0.544552
O O4 0.908556 0.183489 0.492027
O O5 0.250000 0.335790 0.750000
O O6 0.356546 0.409872 0.674739
O O7 0.224773 0.450814 0.620656
O O8 0.077406 0.717050 0.260877
O O9 0.091849 0.551771 0.330587
O O10 0.000000 0.587083 0.196418
O O11 0.500000 0.857319 0.275682
O O12 0.394423 0.882394 0.165790
O O13 0.128208 0.000000 0.000000
O O14 0.000000 0.579427 0.931678
O O15 0.892947 0.500000 0.000000
#
# Coordination Sequence:
#
# PCOD9480231 Si02
#       6
#    16  16  16  16  16  16
#     4  11  21  39  67  94 130 183 237 290 351 420
#     4   9  21  42  65  91 125 178 233 283 348 420
#     4   9  18  38  68  94 128 176 231 291 350 420
#     4   9  18  36  61  93 135 179 226 285 353 418
#     4  11  23  40  63  99 139 182 228 286 358 433
#     4  10  21  39  63  98 142 188 237 295 363 434
#
# _framework density 24.282893000000001
#
# number of rings (size 3 to 8) (size 9 to 14) (size 15 to 20)
#    0.000    2.167    1.667    1.000    0.000    2.333 
#    9.000    2.500    0.000    0.500    0.000    0.000 
#    0.000    0.000    0.000    0.000    0.000    0.000 
#
# Total GULP energy -267847.422689 kJ/mol
# GULP energy per Si atom -5580.154639 kJ/mol
# Density = 2.422762 g / cm^3
# Si number density = 24.282893 Si / 1000 Ang^3
#
#
#
# Elastic Constant Matrix: (Units=GPa)
#
#
# Indices 1 2 3 4 5 6 
#
# 1 94.3323 11.8393 33.7290 0.0000 0.0000 0.0000
# 2 11.8393 80.8820 14.9196 0.0000 0.0000 0.0000
# 3 33.7290 14.9196 116.4476 0.0000 0.0000 0.0000
# 4 0.0000 0.0000 0.0000 60.2522 0.0000 0.0000
# 5 0.0000 0.0000 0.0000 0.0000 24.3586 0.0000
# 6 0.0000 0.0000 0.0000 0.0000 0.0000 13.1500
#
#
#
# Elastic Compliance Matrix: (Units=1/GPa)
#
#
# Indices 1 2 3 4 5 6 
#
# 1 0.011926 -0.001135 -0.003309 0.000000 0.000000 0.000000
# 2 -0.001135 0.012771 -0.001307 0.000000 0.000000 0.000000
# 3 -0.003309 -0.001307 0.009714 0.000000 0.000000 0.000000
# 4 0.000000 0.000000 0.000000 0.016597 0.000000 0.000000
# 5 0.000000 0.000000 0.000000 0.000000 0.041053 0.000000
# 6 0.000000 0.000000 0.000000 0.000000 0.000000 0.076046
#
#
# Mechanical properties :
#
#
# Convention : Reuss Voigt Hill
#
# Bulk Modulus (GPa) = 43.65396 45.84862 44.75129
# Shear Modulus (GPa) = 26.70275 34.96375 30.83325
#
# Velocity S-wave (km/s) = 3.31970 3.79865 3.56722
# Velocity P-wave (km/s) = 5.71928 6.17752 5.95281
#
# Compressibility (1/GPa) = 0.02290743
#
# Stress axis : x y z
#
# Youngs Moduli (GPa) = 83.84701 78.30207 102.94923
#
# Poissons Ratio (x) = 0.08890 0.34066
# Poissons Ratio (y) = 0.09520 0.13460
# Poissons Ratio (z) = 0.27745 0.10237
#
# Static dielectric constant tensor:
#      x y z
#    x 1.899370 0.000000 0.000000 
#    y 0.000000 1.984560 0.000000 
#    z 0.000000 0.000000 2.000790 
# 
# From -- ./inp_files/26318.got.cif
#   From: 2010.05.17/outbox.cif.g08.bks.cpg/sg64_14_cif.got.tgz:26318.got - 2010.06.03 16:29:19.
