data_PCOD9480165
_publ_section_title
;
Structure prediction by ZEFSAII (Michael W. Deem and Ramdas Pophale) SiO2 
 PCOD9480165
Probable space group: C M C A
;
_chemical_formula_sum "Si O2"
_cell_formula_units_Z 80
_cell_length_a 14.757517
_cell_length_b 21.334084
_cell_length_c 11.728799
_cell_angle_alpha 90.000000
_cell_angle_beta 90.000000
_cell_angle_gamma 90.000000
_cell_volume 3692.672878
_symmetry_space_group_name_H-M "C M C A"
_symmetry_group_IT_number 64
_symmetry_cell_setting 'orthorhombic'
loop_
_space_group_symop_operation_xyz
x,y,z
-x,1/2-y,1/2+z
x,-y,-z
-x,1/2+y,1/2-z
-x,-y,-z
x,1/2+y,1/2-z
-x,y,z
x,1/2-y,1/2+z
1/2+x,1/2+y,z
1/2-x,-y,1/2+z
1/2+x,1/2-y,-z
1/2-x,y,1/2-z
1/2-x,1/2-y,-z
1/2+x,y,1/2-z
1/2-x,1/2+y,z
1/2+x,-y,1/2+z
loop_
_atom_site_type_symbol
_atom_site_label
_atom_site_fract_x
_atom_site_fract_y
_atom_site_fract_z
Si Si1 0.802253 0.340495 0.091724
Si Si2 0.000000 0.878685 0.426693
Si Si3 0.800826 0.286357 0.850776
Si Si4 0.500000 0.190957 0.170798
Si Si5 0.000000 0.606007 0.385588
Si Si6 0.000000 0.975030 0.241296
Si Si7 0.149987 0.435213 0.435781
O O1 0.758316 0.275946 0.133258
O O2 0.735783 0.398028 0.111487
O O3 0.907036 0.349122 0.121414
O O4 0.798043 0.331934 0.956507
O O5 0.000000 0.859792 0.563304
O O6 0.000000 0.949161 0.371269
O O7 0.750000 0.321528 0.750000
O O8 0.906632 0.271050 0.838103
O O9 0.500000 0.163279 0.298646
O O10 0.000000 0.547875 0.295706
O O11 0.913186 0.601042 0.470253
O O12 0.086149 0.948998 0.171873
O O13 0.174512 0.500000 0.500000
#
# Coordination Sequence:
#
# PCOD9480165 Si02
#       7
#    16   8  16   8   8   8  16
#     4  10  22  40  58  86 122 157 203 252 296 364
#     4  10  23  39  56  85 124 157 197 241 307 358
#     4  10  22  38  59  85 120 159 202 245 305 356
#     4  10  21  39  60  87 119 161 202 245 298 363
#     4   9  18  38  64  89 120 152 197 248 303 364
#     4   9  20  36  60  91 120 154 195 246 302 362
#     4   9  19  38  64  89 114 155 204 247 300 363
#
# _framework density 21.664525000000001
#
# number of rings (size 3 to 8) (size 9 to 14) (size 15 to 20)
#    0.000    2.400    0.000    2.400    2.800    2.800 
#    7.200    5.000    0.000    0.000    0.000    0.000 
#    0.000    0.000    0.000    0.000    0.000    0.000 
#
# Total GULP energy -222874.925377 kJ/mol
# GULP energy per Si atom -5571.873134 kJ/mol
# Density = 2.161522 g / cm^3
# Si number density = 21.664525 Si / 1000 Ang^3
#
#
#
# Elastic Constant Matrix: (Units=GPa)
#
#
# Indices 1 2 3 4 5 6 
#
# 1 145.0220 20.9682 1.2354 0.0000 0.0000 0.0000
# 2 20.9682 21.0753 -6.3945 0.0000 0.0000 0.0000
# 3 1.2354 -6.3945 56.6027 0.0000 0.0000 0.0000
# 4 0.0000 0.0000 0.0000 69.3432 0.0000 0.0000
# 5 0.0000 0.0000 0.0000 0.0000 -19.6455 0.0000
# 6 0.0000 0.0000 0.0000 0.0000 0.0000 24.8740
#
#
#
# Elastic Compliance Matrix: (Units=1/GPa)
#
#
# Indices 1 2 3 4 5 6 
#
# 1 0.008123 -0.008425 -0.001129 0.000000 0.000000 0.000000
# 2 -0.008425 0.057870 0.006722 0.000000 0.000000 0.000000
# 3 -0.001129 0.006722 0.018451 0.000000 0.000000 0.000000
# 4 0.000000 0.000000 0.000000 0.014421 0.000000 0.000000
# 5 0.000000 0.000000 0.000000 0.000000 -0.050902 0.000000
# 6 0.000000 0.000000 0.000000 0.000000 0.000000 0.040203
#
#
# Mechanical properties :
#
#
# Convention : Reuss Voigt Hill
#
# Bulk Modulus (GPa) = 12.69352 28.25758 20.47555
# Shear Modulus (GPa) = 41.63556 28.70706 35.17131
#
# Velocity S-wave (km/s) = 4.38863 3.64410 4.03358
# Velocity P-wave (km/s) = 5.61711 5.54775 5.58254
#
# Compressibility (1/GPa) = 0.07878035
#
# Stress axis : x y z
#
# Youngs Moduli (GPa) = 123.10425 17.28008 54.19761
#
# Poissons Ratio (x) = 0.14558 0.06119
# Poissons Ratio (y) = 1.03709 -0.36429
# Poissons Ratio (z) = 0.13899 -0.11615
#
# Static dielectric constant tensor:
#      x y z
#    x 1.815920 0.000000 0.000000 
#    y 0.000000 1.789920 0.000000 
#    z 0.000000 0.000000 2.123980 
# 
# From -- ./inp_files/14546.got.cif
#   From: 2010.05.17/outbox.cif.g08.bks.cpg/sg64_8_cif.got.tgz:14546.got - 2010.06.03 16:29:19.
