data_PCOD9480000
_publ_section_title
;
Structure prediction by ZEFSAII (Michael W. Deem and Ramdas Pophale) SiO2 
 PCOD9480000
Probable space group: C M C A
;
_chemical_formula_sum "Si O2"
_cell_formula_units_Z 96
_cell_length_a 9.330784
_cell_length_b 29.780720
_cell_length_c 18.575390
_cell_angle_alpha 90.000000
_cell_angle_beta 90.000000
_cell_angle_gamma 90.000000
_cell_volume 5161.682297
_symmetry_space_group_name_H-M "C M C A"
_symmetry_group_IT_number 64
_symmetry_cell_setting 'orthorhombic'
loop_
_space_group_symop_operation_xyz
x,y,z
-x,1/2-y,1/2+z
x,-y,-z
-x,1/2+y,1/2-z
-x,-y,-z
x,1/2+y,1/2-z
-x,y,z
x,1/2-y,1/2+z
1/2+x,1/2+y,z
1/2-x,-y,1/2+z
1/2+x,1/2-y,-z
1/2-x,y,1/2-z
1/2-x,1/2-y,-z
1/2+x,y,1/2-z
1/2-x,1/2+y,z
1/2+x,-y,1/2+z
loop_
_atom_site_type_symbol
_atom_site_label
_atom_site_fract_x
_atom_site_fract_y
_atom_site_fract_z
Si Si1 0.170628 0.155408 0.916388
Si Si2 0.334479 0.611525 0.181721
Si Si3 0.829372 0.259534 0.324917
Si Si4 0.329025 0.035244 0.103167
Si Si5 0.832858 0.307288 0.570920
Si Si6 0.829333 0.436425 0.062464
O O1 0.196365 0.189325 0.850823
O O2 0.249045 0.107947 0.912483
O O3 0.000000 0.147741 0.922417
O O4 0.214291 0.181016 0.990105
O O5 0.500000 0.604330 0.200074
O O6 0.250000 0.630490 0.250000
O O7 0.258927 0.565705 0.157495
O O8 0.326857 0.646750 0.116611
O O9 0.750000 0.250455 0.250000
O O10 0.764710 0.227971 0.387133
O O11 0.000000 0.252360 0.318167
O O12 0.500000 0.038949 0.115856
O O13 0.289568 0.982672 0.102729
O O14 0.301990 0.053881 0.022268
O O15 0.000000 0.292314 0.569609
O O16 0.000000 0.430458 0.070165
#
# Coordination Sequence:
#
# PCOD9480000 Si02
#       6
#    16  16  16  16  16  16
#     4  10  21  38  59  87 116 145 188 238 281 335
#     4  11  22  35  54  81 115 153 189 233 286 339
#     4  11  24  40  59  82 113 151 189 232 284 339
#     4   9  18  34  54  81 114 146 185 227 274 333
#     4  10  21  38  59  85 114 144 188 237 284 340
#     4   9  18  33  57  85 112 144 182 229 278 328
#
# _framework density 18.598586999999998
#
# number of rings (size 3 to 8) (size 9 to 14) (size 15 to 20)
#    0.000    2.000    1.667    3.000    0.000    5.333 
#    0.000    2.500    0.000    2.000    0.000    0.000 
#    0.000    0.000    0.000    0.000    0.000    0.000 
#
# Total GULP energy -268039.175681 kJ/mol
# GULP energy per Si atom -5584.149493 kJ/mol
# Density = 1.855626 g / cm^3
# Si number density = 18.598587 Si / 1000 Ang^3
#
#
#
# Elastic Constant Matrix: (Units=GPa)
#
#
# Indices 1 2 3 4 5 6 
#
# 1 57.7388 44.6810 15.2894 0.0000 0.0000 0.0000
# 2 44.6810 99.8559 3.9418 0.0000 0.0000 0.0000
# 3 15.2894 3.9418 32.7553 0.0000 0.0000 0.0000
# 4 0.0000 0.0000 0.0000 8.4804 0.0000 0.0000
# 5 0.0000 0.0000 0.0000 0.0000 23.5142 0.0000
# 6 0.0000 0.0000 0.0000 0.0000 0.0000 34.7326
#
#
#
# Elastic Compliance Matrix: (Units=1/GPa)
#
#
# Indices 1 2 3 4 5 6 
#
# 1 0.031119 -0.013415 -0.012911 0.000000 0.000000 0.000000
# 2 -0.013415 0.015845 0.004355 0.000000 0.000000 0.000000
# 3 -0.012911 0.004355 0.036032 0.000000 0.000000 0.000000
# 4 0.000000 0.000000 0.000000 0.117919 0.000000 0.000000
# 5 0.000000 0.000000 0.000000 0.000000 0.042527 0.000000
# 6 0.000000 0.000000 0.000000 0.000000 0.000000 0.028791
#
#
# Mechanical properties :
#
#
# Convention : Reuss Voigt Hill
#
# Bulk Modulus (GPa) = 25.60572 35.35273 30.47923
# Shear Modulus (GPa) = 15.18858 21.77463 18.48161
#
# Velocity S-wave (km/s) = 2.86081 3.42536 3.15574
# Velocity P-wave (km/s) = 4.97089 5.89013 5.44993
#
# Compressibility (1/GPa) = 0.03905377
#
# Stress axis : x y z
#
# Youngs Moduli (GPa) = 32.13434 63.11124 27.75306
#
# Poissons Ratio (x) = 0.84663 0.35833
# Poissons Ratio (y) = 0.43108 -0.12086
# Poissons Ratio (z) = 0.41490 -0.27484
#
# Static dielectric constant tensor:
#      x y z
#    x 1.620030 0.000000 0.000000 
#    y 0.000000 1.635180 0.000000 
#    z 0.000000 0.000000 1.638690 
# 
# From -- ./inp_files/37052.got.cif
#   From: 2010.05.17/outbox.cif.g08.bks.cpg/sg64_19_cif.got.tgz:37052.got - 2010.06.03 16:29:19.
