data_PCOD9480093
_publ_section_title
;
Structure prediction by ZEFSAII (Michael W. Deem and Ramdas Pophale) SiO2 
 PCOD9480093
Probable space group: C M C A
;
_chemical_formula_sum "Si O2"
_cell_formula_units_Z 88
_cell_length_a 23.086422
_cell_length_b 15.818622
_cell_length_c 12.034705
_cell_angle_alpha 90.000000
_cell_angle_beta 90.000000
_cell_angle_gamma 90.000000
_cell_volume 4395.018701
_symmetry_space_group_name_H-M "C M C A"
_symmetry_group_IT_number 64
_symmetry_cell_setting 'orthorhombic'
loop_
_space_group_symop_operation_xyz
x,y,z
-x,1/2-y,1/2+z
x,-y,-z
-x,1/2+y,1/2-z
-x,-y,-z
x,1/2+y,1/2-z
-x,y,z
x,1/2-y,1/2+z
1/2+x,1/2+y,z
1/2-x,-y,1/2+z
1/2+x,1/2-y,-z
1/2-x,y,1/2-z
1/2-x,1/2-y,-z
1/2+x,y,1/2-z
1/2-x,1/2+y,z
1/2+x,-y,1/2+z
loop_
_atom_site_type_symbol
_atom_site_label
_atom_site_fract_x
_atom_site_fract_y
_atom_site_fract_z
Si Si1 0.660026 0.177535 0.474229
Si Si2 0.637879 0.069660 0.087618
Si Si3 0.780730 0.722676 0.140617
Si Si4 0.068260 0.315537 0.086398
Si Si5 0.109334 0.500000 0.500000
Si Si6 0.566391 0.459139 0.241861
O O1 0.722313 0.201375 0.426593
O O2 0.671912 0.209752 0.599216
O O3 0.608775 0.233113 0.420738
O O4 0.646762 0.080109 0.463764
O O5 0.684251 0.134616 0.137633
O O6 0.607153 0.021576 0.188376
O O7 0.592262 0.122916 0.011759
O O8 0.662433 0.000000 0.000000
O O9 0.750000 0.755158 0.250000
O O10 0.075447 0.366979 0.201884
O O11 0.000000 0.297270 0.071309
O O12 0.075609 0.468054 0.390090
O O13 0.500000 0.481788 0.267151
#
# Coordination Sequence:
#
# PCOD9480093 Si02
#       6
#    16  16  16  16   8  16
#     4  10  24  40  60  90 124 164 210 252 315 376
#     4   9  18  36  64  94 124 157 212 261 306 363
#     4  10  21  40  62  86 122 161 209 260 304 367
#     4   9  19  39  66  90 119 164 212 255 305 372
#     4  12  25  40  58  92 134 162 203 256 328 384
#     4  10  21  38  62  93 128 163 202 256 314 376
#
# _framework density 20.022669
#
# number of rings (size 3 to 8) (size 9 to 14) (size 15 to 20)
#    0.000    2.182    0.000    1.909    3.818    3.636 
#    0.000    0.909    0.000    0.000    0.000    0.000 
#    0.000    0.000    0.000    0.000    0.000    0.000 
#
# Total GULP energy -245105.912139 kJ/mol
# GULP energy per Si atom -5570.588912 kJ/mol
# Density = 1.997710 g / cm^3
# Si number density = 20.022669 Si / 1000 Ang^3
#
#
#
# Elastic Constant Matrix: (Units=GPa)
#
#
# Indices 1 2 3 4 5 6 
#
# 1 108.1993 42.7594 18.5053 0.0000 0.0000 0.0000
# 2 42.7594 91.7861 8.5215 0.0000 0.0000 0.0000
# 3 18.5053 8.5215 76.3605 0.0000 0.0000 0.0000
# 4 0.0000 0.0000 0.0000 10.1642 0.0000 0.0000
# 5 0.0000 0.0000 0.0000 0.0000 50.3416 0.0000
# 6 0.0000 0.0000 0.0000 0.0000 0.0000 10.3446
#
#
#
# Elastic Compliance Matrix: (Units=1/GPa)
#
#
# Indices 1 2 3 4 5 6 
#
# 1 0.011698 -0.005241 -0.002250 0.000000 0.000000 0.000000
# 2 -0.005241 0.013357 -0.000221 0.000000 0.000000 0.000000
# 3 -0.002250 -0.000221 0.013666 0.000000 0.000000 0.000000
# 4 0.000000 0.000000 0.000000 0.098384 0.000000 0.000000
# 5 0.000000 0.000000 0.000000 0.000000 0.019864 0.000000
# 6 0.000000 0.000000 0.000000 0.000000 0.000000 0.096669
#
#
# Mechanical properties :
#
#
# Convention : Reuss Voigt Hill
#
# Bulk Modulus (GPa) = 42.92235 46.21314 44.56774
# Shear Modulus (GPa) = 18.06184 27.94072 23.00128
#
# Velocity S-wave (km/s) = 3.00671 3.73963 3.39302
# Velocity P-wave (km/s) = 5.79112 6.46351 6.13653
#
# Compressibility (1/GPa) = 0.02329789
#
# Stress axis : x y z
#
# Youngs Moduli (GPa) = 85.48356 74.86799 73.17602
#
# Poissons Ratio (x) = 0.39237 0.16465
# Poissons Ratio (y) = 0.44800 0.01614
# Poissons Ratio (z) = 0.19235 0.01651
#
# Static dielectric constant tensor:
#      x y z
#    x 1.695560 0.000000 0.000000 
#    y 0.000000 1.660440 0.000000 
#    z 0.000000 0.000000 2.118340 
# 
# From -- ./inp_files/18187.got.cif
#   From: 2010.05.17/outbox.cif.g08.bks.cpg/sg64_10_cif.got.tgz:18187.got - 2010.06.03 16:29:19.
