data_PCOD9480982
_publ_section_title
;
Structure prediction by ZEFSAII (Michael W. Deem and Ramdas Pophale) SiO2 
 PCOD9480982
Probable space group: C M C A
;
_chemical_formula_sum "Si O2"
_cell_formula_units_Z 116
_cell_length_a 23.443358
_cell_length_b 29.622662
_cell_length_c 8.955008
_cell_angle_alpha 90.000000
_cell_angle_beta 90.000000
_cell_angle_gamma 90.000000
_cell_volume 6218.847127
_symmetry_space_group_name_H-M "C M C A"
_symmetry_group_IT_number 64
_symmetry_cell_setting 'orthorhombic'
loop_
_space_group_symop_operation_xyz
x,y,z
-x,1/2-y,1/2+z
x,-y,-z
-x,1/2+y,1/2-z
-x,-y,-z
x,1/2+y,1/2-z
-x,y,z
x,1/2-y,1/2+z
1/2+x,1/2+y,z
1/2-x,-y,1/2+z
1/2+x,1/2-y,-z
1/2-x,y,1/2-z
1/2-x,1/2-y,-z
1/2+x,y,1/2-z
1/2-x,1/2+y,z
1/2+x,-y,1/2+z
loop_
_atom_site_type_symbol
_atom_site_label
_atom_site_fract_x
_atom_site_fract_y
_atom_site_fract_z
Si Si1 0.620358 0.262275 0.083085
Si Si2 0.700279 0.967702 0.140821
Si Si3 0.500000 0.000000 0.500000
Si Si4 0.698344 0.784138 0.161969
Si Si5 0.158544 0.887603 0.797370
Si Si6 0.066622 0.810313 0.809358
Si Si7 0.266099 0.125707 0.003364
Si Si8 0.381841 0.511227 0.159778
O O1 0.650348 0.292256 0.211269
O O2 0.590978 0.222167 0.177949
O O3 0.669224 0.244079 0.970224
O O4 0.577355 0.286819 0.970499
O O5 0.750000 0.984650 0.250000
O O6 0.640623 0.973948 0.225802
O O7 0.715600 0.917406 0.092763
O O8 0.699084 0.000000 0.000000
O O9 0.551253 0.990510 0.623903
O O10 0.750000 0.759605 0.250000
O O11 0.723767 0.829133 0.090007
O O12 0.104212 0.855379 0.810111
O O13 0.201902 0.879741 0.935179
O O14 0.193424 0.874483 0.649056
O O15 0.139173 0.939523 0.790956
O O16 0.000000 0.818440 0.786509
O O17 0.353241 0.500000 0.000000
#
# Coordination Sequence:
#
# PCOD9480982 Si02
#       8
#    16  16   4  16  16  16  16  16
#     4  10  23  40  60  92 123 159 219 256 312 376
#     4  12  22  36  62  96 126 166 201 258 317 372
#     4   8  24  44  70  88 120 172 210 270 292 384
#     4  11  21  38  59  91 127 164 197 255 318 381
#     4  11  22  40  61  95 126 165 203 258 313 384
#     4  11  23  41  67  87 122 168 213 264 312 367
#     4  11  23  38  60  94 133 155 201 255 319 375
#     4  10  22  42  65  89 125 162 216 252 310 376
#
# _framework density 18.652974
#
# number of rings (size 3 to 8) (size 9 to 14) (size 15 to 20)
#    0.414    0.828    2.759    4.138    0.966    2.207 
#    0.000    0.345    1.517    0.000    0.000    0.000 
#    0.000    0.000    0.000    0.000    0.000    0.000 
#
# Total GULP energy -323324.211870 kJ/mol
# GULP energy per Si atom -5574.555377 kJ/mol
# Density = 1.861052 g / cm^3
# Si number density = 18.652974 Si / 1000 Ang^3
#
#
#
# Elastic Constant Matrix: (Units=GPa)
#
#
# Indices 1 2 3 4 5 6 
#
# 1 141.7264 38.8322 44.3183 0.0000 0.0000 0.0000
# 2 38.8322 51.7373 27.9956 0.0000 0.0000 0.0000
# 3 44.3183 27.9956 105.6536 0.0000 0.0000 0.0000
# 4 0.0000 0.0000 0.0000 28.8323 0.0000 0.0000
# 5 0.0000 0.0000 0.0000 0.0000 29.2807 0.0000
# 6 0.0000 0.0000 0.0000 0.0000 0.0000 11.5352
#
#
#
# Elastic Compliance Matrix: (Units=1/GPa)
#
#
# Indices 1 2 3 4 5 6 
#
# 1 0.009383 -0.005735 -0.002416 0.000000 0.000000 0.000000
# 2 -0.005735 0.026069 -0.004502 0.000000 0.000000 0.000000
# 3 -0.002416 -0.004502 0.011671 0.000000 0.000000 0.000000
# 4 0.000000 0.000000 0.000000 0.034683 0.000000 0.000000
# 5 0.000000 0.000000 0.000000 0.000000 0.034152 0.000000
# 6 0.000000 0.000000 0.000000 0.000000 0.000000 0.086691
#
#
# Mechanical properties :
#
#
# Convention : Reuss Voigt Hill
#
# Bulk Modulus (GPa) = 45.83621 57.93439 51.88530
# Shear Modulus (GPa) = 21.25596 26.46105 23.85851
#
# Velocity S-wave (km/s) = 3.37938 3.77051 3.58029
# Velocity P-wave (km/s) = 6.31296 7.07688 6.70580
#
# Compressibility (1/GPa) = 0.02181681
#
# Stress axis : x y z
#
# Youngs Moduli (GPa) = 106.57890 38.35981 85.68027
#
# Poissons Ratio (x) = 0.21999 0.20701
# Poissons Ratio (y) = 0.61122 0.38573
# Poissons Ratio (z) = 0.25751 0.17270
#
# Static dielectric constant tensor:
#      x y z
#    x 1.640470 0.000000 0.000000 
#    y 0.000000 1.638540 0.000000 
#    z 0.000000 0.000000 1.696190 
# 
# From -- ./inp_files/9800.got.cif
#   From: 2010.05.17/outbox.cif.g08.bks.cpg/sg64_5_cif.got.tgz:9800.got - 2010.06.03 16:29:19.
