data_PCOD9480566
_publ_section_title
;
Structure prediction by ZEFSAII (Michael W. Deem and Ramdas Pophale) SiO2 
 PCOD9480566
Probable space group: C M C A
;
_chemical_formula_sum "Si O2"
_cell_formula_units_Z 80
_cell_length_a 17.966461
_cell_length_b 24.805073
_cell_length_c 9.406535
_cell_angle_alpha 90.000000
_cell_angle_beta 90.000000
_cell_angle_gamma 90.000000
_cell_volume 4192.110525
_symmetry_space_group_name_H-M "C M C A"
_symmetry_group_IT_number 64
_symmetry_cell_setting 'orthorhombic'
loop_
_space_group_symop_operation_xyz
x,y,z
-x,1/2-y,1/2+z
x,-y,-z
-x,1/2+y,1/2-z
-x,-y,-z
x,1/2+y,1/2-z
-x,y,z
x,1/2-y,1/2+z
1/2+x,1/2+y,z
1/2-x,-y,1/2+z
1/2+x,1/2-y,-z
1/2-x,y,1/2-z
1/2-x,1/2-y,-z
1/2+x,y,1/2-z
1/2-x,1/2+y,z
1/2+x,-y,1/2+z
loop_
_atom_site_type_symbol
_atom_site_label
_atom_site_fract_x
_atom_site_fract_y
_atom_site_fract_z
Si Si1 0.855771 0.940924 0.842820
Si Si2 0.265945 0.195408 0.583081
Si Si3 0.918680 0.862673 0.067307
Si Si4 0.586164 0.452207 0.303574
Si Si5 0.301976 0.413435 0.540992
O O1 0.776767 0.942758 0.925794
O O2 0.840749 0.910285 0.694345
O O3 0.886952 0.998784 0.796674
O O4 0.909457 0.906109 0.941082
O O5 0.250000 0.201214 0.750000
O O6 0.250000 0.250000 0.500000
O O7 0.351518 0.178646 0.560362
O O8 0.218863 0.144837 0.522151
O O9 0.911419 0.897950 0.210332
O O10 0.000000 0.837430 0.061868
O O11 0.500000 0.461206 0.347521
O O12 0.643979 0.444075 0.431900
#
# Coordination Sequence:
#
# PCOD9480566 Si02
#       5
#    16  16  16  16  16
#     4  10  22  35  61  92 131 168 215 242 304 373
#     4  11  24  43  70  89 117 158 212 264 320 374
#     4  10  22  41  63  92 129 162 204 259 313 370
#     4  11  22  39  61  92 133 175 209 256 313 371
#     4  10  23  40  58  91 127 167 213 263 305 371
#
# _framework density 19.083466000000001
#
# number of rings (size 3 to 8) (size 9 to 14) (size 15 to 20)
#    0.000    1.600    2.000    1.800    5.600   15.200 
#    0.000    2.000    0.000    0.000    0.000    0.000 
#    0.000    0.000    0.000    0.000    0.000    0.000 
#
# Total GULP energy -223550.169867 kJ/mol
# GULP energy per Si atom -5588.754247 kJ/mol
# Density = 1.904003 g / cm^3
# Si number density = 19.083466 Si / 1000 Ang^3
#
#
#
# Elastic Constant Matrix: (Units=GPa)
#
#
# Indices 1 2 3 4 5 6 
#
# 1 149.8679 73.0353 52.8998 0.0000 0.0000 0.0000
# 2 73.0353 120.8389 54.9279 0.0000 0.0000 0.0000
# 3 52.8998 54.9279 86.3748 0.0000 0.0000 0.0000
# 4 0.0000 0.0000 0.0000 34.5494 0.0000 0.0000
# 5 0.0000 0.0000 0.0000 0.0000 21.8384 0.0000
# 6 0.0000 0.0000 0.0000 0.0000 0.0000 17.5651
#
#
#
# Elastic Compliance Matrix: (Units=1/GPa)
#
#
# Indices 1 2 3 4 5 6 
#
# 1 0.010060 -0.004613 -0.003228 0.000000 0.000000 0.000000
# 2 -0.004613 0.013756 -0.005922 0.000000 0.000000 0.000000
# 3 -0.003228 -0.005922 0.017320 0.000000 0.000000 0.000000
# 4 0.000000 0.000000 0.000000 0.028944 0.000000 0.000000
# 5 0.000000 0.000000 0.000000 0.000000 0.045791 0.000000
# 6 0.000000 0.000000 0.000000 0.000000 0.000000 0.056931
#
#
# Mechanical properties :
#
#
# Convention : Reuss Voigt Hill
#
# Bulk Modulus (GPa) = 73.47571 79.86752 76.67162
# Shear Modulus (GPa) = 24.40638 26.53848 25.47243
#
# Velocity S-wave (km/s) = 3.58009 3.73319 3.65744
# Velocity P-wave (km/s) = 7.46159 7.77977 7.62234
#
# Compressibility (1/GPa) = 0.01360994
#
# Stress axis : x y z
#
# Youngs Moduli (GPa) = 99.40444 72.69728 57.73585
#
# Poissons Ratio (x) = 0.33536 0.18634
# Poissons Ratio (y) = 0.45857 0.34193
# Poissons Ratio (z) = 0.32083 0.43053
#
# Static dielectric constant tensor:
#      x y z
#    x 1.678750 0.000000 0.000000 
#    y 0.000000 1.635980 0.000000 
#    z 0.000000 0.000000 1.668490 
# 
# From -- ./inp_files/7087.got.cif
#   From: 2010.05.17/outbox.cif.g08.bks.cpg/sg64_4_cif.got.tgz:7087.got - 2010.06.03 16:29:19.
