data_PCOD9480266
_publ_section_title
;
Structure prediction by ZEFSAII (Michael W. Deem and Ramdas Pophale) SiO2 
 PCOD9480266
Probable space group: C M C A
;
_chemical_formula_sum "Si O2"
_cell_formula_units_Z 112
_cell_length_a 24.384149
_cell_length_b 13.884223
_cell_length_c 14.127677
_cell_angle_alpha 90.000000
_cell_angle_beta 90.000000
_cell_angle_gamma 90.000000
_cell_volume 4782.995155
_symmetry_space_group_name_H-M "C M C A"
_symmetry_group_IT_number 64
_symmetry_cell_setting 'orthorhombic'
loop_
_space_group_symop_operation_xyz
x,y,z
-x,1/2-y,1/2+z
x,-y,-z
-x,1/2+y,1/2-z
-x,-y,-z
x,1/2+y,1/2-z
-x,y,z
x,1/2-y,1/2+z
1/2+x,1/2+y,z
1/2-x,-y,1/2+z
1/2+x,1/2-y,-z
1/2-x,y,1/2-z
1/2-x,1/2-y,-z
1/2+x,y,1/2-z
1/2-x,1/2+y,z
1/2+x,-y,1/2+z
loop_
_atom_site_type_symbol
_atom_site_label
_atom_site_fract_x
_atom_site_fract_y
_atom_site_fract_z
Si Si1 0.899250 0.482432 0.217456
Si Si2 0.779847 0.491180 0.150536
Si Si3 0.436650 0.221458 0.775165
Si Si4 0.434210 0.198369 0.557512
Si Si5 0.258536 0.638242 0.019382
Si Si6 0.934666 0.593759 0.050177
Si Si7 0.121420 0.611073 0.391677
O O1 0.839637 0.455339 0.178084
O O2 0.935839 0.390148 0.192682
O O3 0.923036 0.573200 0.159958
O O4 0.891795 0.520027 0.324749
O O5 0.750000 0.506962 0.250000
O O6 0.785121 0.590139 0.091055
O O7 0.748022 0.419130 0.079670
O O8 0.500000 0.256148 0.779416
O O9 0.417788 0.204345 0.666782
O O10 0.398193 0.295348 0.831061
O O11 0.500000 0.194114 0.556269
O O12 0.414590 0.302366 0.518316
O O13 0.411720 0.117194 0.489458
O O14 0.315793 0.618549 0.073802
O O15 0.250000 0.750000 0.000000
O O16 0.000000 0.595320 0.035958
O O17 0.910740 0.500000 0.000000
#
# Coordination Sequence:
#
# PCOD9480266 Si02
#       7
#    16  16  16  16  16  16  16
#     4  12  25  43  73 100 142 197 236 301 375 430
#     4  11  26  49  70 108 149 183 248 315 364 456
#     4  11  25  44  70 109 150 192 245 297 365 449
#     4  10  23  40  63 100 145 184 233 299 352 429
#     4  11  27  47  75 106 141 190 245 308 380 441
#     4  10  21  39  66 101 138 184 240 290 354 428
#     4  12  25  45  73 104 142 193 247 303 370 446
#
# _framework density 23.416291000000001
#
# number of rings (size 3 to 8) (size 9 to 14) (size 15 to 20)
#    0.000    1.000    2.857    2.571    6.000    4.000 
#    0.000    1.429    0.000    0.000    0.000    0.000 
#    0.000    0.000    0.000    0.000    0.000    0.000 
#
# Total GULP energy -313078.477931 kJ/mol
# GULP energy per Si atom -5590.687106 kJ/mol
# Density = 2.336299 g / cm^3
# Si number density = 23.416291 Si / 1000 Ang^3
#
#
#
# Elastic Constant Matrix: (Units=GPa)
#
#
# Indices 1 2 3 4 5 6 
#
# 1 50.8138 14.4568 22.6236 0.0000 0.0000 0.0000
# 2 14.4568 112.8750 43.6345 0.0000 0.0000 0.0000
# 3 22.6236 43.6345 145.9378 0.0000 0.0000 0.0000
# 4 0.0000 0.0000 0.0000 44.6849 0.0000 0.0000
# 5 0.0000 0.0000 0.0000 0.0000 42.7669 0.0000
# 6 0.0000 0.0000 0.0000 0.0000 0.0000 21.7174
#
#
#
# Elastic Compliance Matrix: (Units=1/GPa)
#
#
# Indices 1 2 3 4 5 6 
#
# 1 0.021407 -0.001650 -0.002825 0.000000 0.000000 0.000000
# 2 -0.001650 0.010144 -0.002777 0.000000 0.000000 0.000000
# 3 -0.002825 -0.002777 0.008121 0.000000 0.000000 0.000000
# 4 0.000000 0.000000 0.000000 0.022379 0.000000 0.000000
# 5 0.000000 0.000000 0.000000 0.000000 0.023383 0.000000
# 6 0.000000 0.000000 0.000000 0.000000 0.000000 0.046046
#
#
# Mechanical properties :
#
#
# Convention : Reuss Voigt Hill
#
# Bulk Modulus (GPa) = 39.73406 52.33961 46.03683
# Shear Modulus (GPa) = 32.38912 37.09464 34.74188
#
# Velocity S-wave (km/s) = 3.72316 3.98444 3.85601
# Velocity P-wave (km/s) = 5.95717 6.60061 6.28713
#
# Compressibility (1/GPa) = 0.02516733
#
# Stress axis : x y z
#
# Youngs Moduli (GPa) = 46.71390 98.57767 123.14305
#
# Poissons Ratio (x) = 0.16261 0.34792
# Poissons Ratio (y) = 0.07706 0.34201
# Poissons Ratio (z) = 0.13198 0.27379
#
# Static dielectric constant tensor:
#      x y z
#    x 1.886480 0.000000 0.000000 
#    y 0.000000 1.887060 0.000000 
#    z 0.000000 0.000000 1.960220 
# 
# From -- ./inp_files/27404.got.cif
#   From: 2010.05.17/outbox.cif.g08.bks.cpg/sg64_14_cif.got.tgz:27404.got - 2010.06.03 16:29:19.
