data_PCOD9480250
_publ_section_title
;
Structure prediction by ZEFSAII (Michael W. Deem and Ramdas Pophale) SiO2 
 PCOD9480250
Probable space group: C M C A
;
_chemical_formula_sum "Si O2"
_cell_formula_units_Z 88
_cell_length_a 30.232831
_cell_length_b 15.304663
_cell_length_c 8.738990
_cell_angle_alpha 90.000000
_cell_angle_beta 90.000000
_cell_angle_gamma 90.000000
_cell_volume 4043.559424
_symmetry_space_group_name_H-M "C M C A"
_symmetry_group_IT_number 64
_symmetry_cell_setting 'orthorhombic'
loop_
_space_group_symop_operation_xyz
x,y,z
-x,1/2-y,1/2+z
x,-y,-z
-x,1/2+y,1/2-z
-x,-y,-z
x,1/2+y,1/2-z
-x,y,z
x,1/2-y,1/2+z
1/2+x,1/2+y,z
1/2-x,-y,1/2+z
1/2+x,1/2-y,-z
1/2-x,y,1/2-z
1/2-x,1/2-y,-z
1/2+x,y,1/2-z
1/2-x,1/2+y,z
1/2+x,-y,1/2+z
loop_
_atom_site_type_symbol
_atom_site_label
_atom_site_fract_x
_atom_site_fract_y
_atom_site_fract_z
Si Si1 0.190905 0.136190 0.607865
Si Si2 0.123579 0.500000 0.000000
Si Si3 0.140657 0.813878 0.899517
Si Si4 0.048723 0.384018 0.123740
Si Si5 0.578618 0.767894 0.848874
Si Si6 0.716573 0.908736 0.444909
O O1 0.158995 0.080555 0.496396
O O2 0.167521 0.226966 0.644391
O O3 0.240296 0.152109 0.546318
O O4 0.198648 0.089034 0.771306
O O5 0.088135 0.544095 0.880415
O O6 0.105590 0.830043 0.766848
O O7 0.112863 0.785683 0.047099
O O8 0.176334 0.884838 0.944874
O O9 0.052220 0.330196 0.963898
O O10 0.000000 0.423542 0.140614
O O11 0.054934 0.307271 0.249681
O O12 0.735313 0.000000 0.500000
#
# Coordination Sequence:
#
# PCOD9480250 Si02
#       6
#    16   8  16  16  16  16
#     4  11  23  41  58  90 128 167 218 257 314 369
#     4  12  21  40  62  86 122 160 202 266 301 376
#     4  11  20  42  61  92 123 173 205 254 311 386
#     4  11  23  40  65  93 118 156 207 265 325 381
#     4  10  21  39  65  86 124 158 205 249 319 377
#     4  11  24  38  60  93 127 168 217 266 303 359
#
# _framework density 21.763003999999999
#
# number of rings (size 3 to 8) (size 9 to 14) (size 15 to 20)
#    0.000    1.091    6.364    1.364    2.545    0.000 
#    0.000    0.000    0.000    0.000    0.000    7.636 
#    0.000    0.000    0.000    0.000    0.000    0.000 
#
# Total GULP energy -245332.874644 kJ/mol
# GULP energy per Si atom -5575.747151 kJ/mol
# Density = 2.171347 g / cm^3
# Si number density = 21.763004 Si / 1000 Ang^3
#
#
#
# Elastic Constant Matrix: (Units=GPa)
#
#
# Indices 1 2 3 4 5 6 
#
# 1 117.1001 -1.8495 26.3961 0.0000 0.0000 0.0000
# 2 -1.8495 49.9861 9.4540 0.0000 0.0000 0.0000
# 3 26.3961 9.4540 80.3682 0.0000 0.0000 0.0000
# 4 0.0000 0.0000 0.0000 22.5284 0.0000 0.0000
# 5 0.0000 0.0000 0.0000 0.0000 4.1446 0.0000
# 6 0.0000 0.0000 0.0000 0.0000 0.0000 39.9271
#
#
#
# Elastic Compliance Matrix: (Units=1/GPa)
#
#
# Indices 1 2 3 4 5 6 
#
# 1 0.009265 0.000939 -0.003154 0.000000 0.000000 0.000000
# 2 0.000939 0.020556 -0.002727 0.000000 0.000000 0.000000
# 3 -0.003154 -0.002727 0.013799 0.000000 0.000000 0.000000
# 4 0.000000 0.000000 0.000000 0.044388 0.000000 0.000000
# 5 0.000000 0.000000 0.000000 0.000000 0.241277 0.000000
# 6 0.000000 0.000000 0.000000 0.000000 0.000000 0.025046
#
#
# Mechanical properties :
#
#
# Convention : Reuss Voigt Hill
#
# Bulk Modulus (GPa) = 29.63945 35.05062 32.34504
# Shear Modulus (GPa) = 13.31700 27.55027 20.43364
#
# Velocity S-wave (km/s) = 2.47636 3.56184 3.06750
# Velocity P-wave (km/s) = 4.67175 5.74945 5.23839
#
# Compressibility (1/GPa) = 0.03373882
#
# Stress axis : x y z
#
# Youngs Moduli (GPa) = 107.92824 48.64761 72.46767
#
# Poissons Ratio (x) = -0.04569 0.22854
# Poissons Ratio (y) = -0.10138 0.19759
# Poissons Ratio (z) = 0.34037 0.13264
#
# Static dielectric constant tensor:
#      x y z
#    x 1.790820 0.000000 0.000000 
#    y 0.000000 1.798030 0.000000 
#    z 0.000000 0.000000 1.843650 
# 
# From -- ./inp_files/11047.got.cif
#   From: 2010.05.17/outbox.cif.g08.bks.cpg/sg64_6_cif.got.tgz:11047.got - 2010.06.03 16:29:19.
