data_PCOD9480487
_publ_section_title
;
Structure prediction by ZEFSAII (Michael W. Deem and Ramdas Pophale) SiO2 
 PCOD9480487
Probable space group: C M C A
;
_chemical_formula_sum "Si O2"
_cell_formula_units_Z 68
_cell_length_a 14.793862
_cell_length_b 10.434536
_cell_length_c 19.828686
_cell_angle_alpha 90.000000
_cell_angle_beta 90.000000
_cell_angle_gamma 90.000000
_cell_volume 3060.896469
_symmetry_space_group_name_H-M "C M C A"
_symmetry_group_IT_number 64
_symmetry_cell_setting 'orthorhombic'
loop_
_space_group_symop_operation_xyz
x,y,z
-x,1/2-y,1/2+z
x,-y,-z
-x,1/2+y,1/2-z
-x,-y,-z
x,1/2+y,1/2-z
-x,y,z
x,1/2-y,1/2+z
1/2+x,1/2+y,z
1/2-x,-y,1/2+z
1/2+x,1/2-y,-z
1/2-x,y,1/2-z
1/2-x,1/2-y,-z
1/2+x,y,1/2-z
1/2-x,1/2+y,z
1/2+x,-y,1/2+z
loop_
_atom_site_type_symbol
_atom_site_label
_atom_site_fract_x
_atom_site_fract_y
_atom_site_fract_z
Si Si1 0.646534 0.658043 0.442469
Si Si2 0.859073 0.622571 0.457126
Si Si3 0.500000 0.000000 0.000000
Si Si4 0.394936 0.917360 0.698273
Si Si5 0.889642 0.705071 0.697991
O O1 0.749992 0.622727 0.455128
O O2 0.612401 0.750193 0.503080
O O3 0.579633 0.539150 0.445025
O O4 0.640023 0.738107 0.373809
O O5 0.889810 0.500000 0.500000
O O6 0.890249 0.616276 0.380543
O O7 0.500000 0.927398 0.717733
O O8 0.358343 0.802855 0.744127
O O9 0.355475 0.059796 0.707495
O O10 0.000000 0.700032 0.697000
#
# Coordination Sequence:
#
# PCOD9480487 Si02
#       5
#    16  16   4  16  16
#     4  11  24  41  67  99 134 172 217 282 334 399
#     4  11  23  43  66  98 133 168 225 276 332 398
#     4  12  24  40  66 104 130 180 210 272 342 398
#     4  10  23  41  67  95 129 175 219 276 332 403
#     4  10  21  42  64  93 129 170 223 271 326 400
#
# _framework density 22.215713000000001
#
# number of rings (size 3 to 8) (size 9 to 14) (size 15 to 20)
#    0.000    1.412    4.706    0.000    1.647    3.294 
#    4.235    2.353    0.000    0.000    0.000    0.000 
#    0.000    0.000    0.000    0.000    0.000    0.000 
#
# Total GULP energy -189597.419598 kJ/mol
# GULP energy per Si atom -5576.394694 kJ/mol
# Density = 2.216515 g / cm^3
# Si number density = 22.215713 Si / 1000 Ang^3
#
#
#
# Elastic Constant Matrix: (Units=GPa)
#
#
# Indices 1 2 3 4 5 6 
#
# 1 57.9983 -22.2732 -14.2589 0.0000 0.0000 0.0000
# 2 -22.2732 103.3761 87.9417 0.0000 0.0000 0.0000
# 3 -14.2589 87.9417 145.3005 0.0000 0.0000 0.0000
# 4 0.0000 0.0000 0.0000 47.2064 0.0000 0.0000
# 5 0.0000 0.0000 0.0000 0.0000 21.9945 0.0000
# 6 0.0000 0.0000 0.0000 0.0000 0.0000 9.0903
#
#
#
# Elastic Compliance Matrix: (Units=1/GPa)
#
#
# Indices 1 2 3 4 5 6 
#
# 1 0.018908 0.005144 -0.001258 0.000000 0.000000 0.000000
# 2 0.005144 0.021339 -0.012411 0.000000 0.000000 0.000000
# 3 -0.001258 -0.012411 0.014270 0.000000 0.000000 0.000000
# 4 0.000000 0.000000 0.000000 0.021184 0.000000 0.000000
# 5 0.000000 0.000000 0.000000 0.000000 0.045466 0.000000
# 6 0.000000 0.000000 0.000000 0.000000 0.000000 0.110008
#
#
# Mechanical properties :
#
#
# Convention : Reuss Voigt Hill
#
# Bulk Modulus (GPa) = 26.68902 45.49938 36.09420
# Shear Modulus (GPa) = 19.17813 32.67593 25.92703
#
# Velocity S-wave (km/s) = 2.94133 3.83932 3.41993
# Velocity P-wave (km/s) = 4.85540 6.33870 5.64597
#
# Compressibility (1/GPa) = 0.03746859
#
# Stress axis : x y z
#
# Youngs Moduli (GPa) = 52.88752 46.86158 70.07550
#
# Poissons Ratio (x) = -0.24105 0.08814
# Poissons Ratio (y) = -0.27204 0.86969
# Poissons Ratio (z) = 0.06652 0.58159
#
# Static dielectric constant tensor:
#      x y z
#    x 1.827240 0.000000 0.000000 
#    y 0.000000 1.905180 0.000000 
#    z 0.000000 0.000000 1.775670 
# 
# From -- ./inp_files/38884.got.cif
#   From: 2010.05.17/outbox.cif.g08.bks.cpg/sg64_20_cif.got.tgz:38884.got - 2010.06.03 16:29:19.
