data_PCOD9480505
_publ_section_title
;
Structure prediction by ZEFSAII (Michael W. Deem and Ramdas Pophale) SiO2 
 PCOD9480505
Probable space group: C M C A
;
_chemical_formula_sum "Si O2"
_cell_formula_units_Z 64
_cell_length_a 10.454916
_cell_length_b 16.968363
_cell_length_c 15.613216
_cell_angle_alpha 90.000000
_cell_angle_beta 90.000000
_cell_angle_gamma 90.000000
_cell_volume 2769.828389
_symmetry_space_group_name_H-M "C M C A"
_symmetry_group_IT_number 64
_symmetry_cell_setting 'orthorhombic'
loop_
_space_group_symop_operation_xyz
x,y,z
-x,1/2-y,1/2+z
x,-y,-z
-x,1/2+y,1/2-z
-x,-y,-z
x,1/2+y,1/2-z
-x,y,z
x,1/2-y,1/2+z
1/2+x,1/2+y,z
1/2-x,-y,1/2+z
1/2+x,1/2-y,-z
1/2-x,y,1/2-z
1/2-x,1/2-y,-z
1/2+x,y,1/2-z
1/2-x,1/2+y,z
1/2+x,-y,1/2+z
loop_
_atom_site_type_symbol
_atom_site_label
_atom_site_fract_x
_atom_site_fract_y
_atom_site_fract_z
Si Si1 0.000000 0.944655 0.381171
Si Si2 0.500000 0.977818 0.707906
Si Si3 0.300938 0.650881 0.155685
Si Si4 0.000000 0.224705 0.696641
Si Si5 0.500000 0.648684 0.875737
Si Si6 0.263540 0.586279 0.981036
O O1 0.000000 0.864271 0.329276
O O2 0.866954 0.937967 0.432389
O O3 0.000000 0.015292 0.311490
O O4 0.616928 0.928217 0.671601
O O5 0.500000 0.065064 0.672766
O O6 0.250000 0.662420 0.250000
O O7 0.384283 0.729747 0.150972
O O8 0.227934 0.632153 0.068677
O O9 0.000000 0.218021 0.802172
O O10 0.369157 0.640544 0.931823
O O11 0.325313 0.500000 0.000000
#
# Coordination Sequence:
#
# PCOD9480505 Si02
#       6
#     8   8  16   8   8  16
#     4  11  27  43  74 109 143 181 240 301 359 422
#     4  10  21  42  69 102 138 186 237 299 353 419
#     4  11  24  44  68  99 147 189 237 290 361 424
#     4  10  27  45  64 103 144 191 237 281 366 427
#     4  11  23  43  77  99 139 185 244 290 348 433
#     4  12  24  45  77 109 138 183 246 301 356 416
#
# _framework density 23.106124000000001
#
# number of rings (size 3 to 8) (size 9 to 14) (size 15 to 20)
#    0.000    1.000    2.500    3.750    3.500    5.000 
#    4.500    0.000    0.000    0.000    0.000    0.000 
#    0.000    0.000    0.000    0.000    0.000    0.000 
#
# Total GULP energy -178257.437933 kJ/mol
# GULP energy per Si atom -5570.544935 kJ/mol
# Density = 2.305353 g / cm^3
# Si number density = 23.106124 Si / 1000 Ang^3
#
#
#
# Elastic Constant Matrix: (Units=GPa)
#
#
# Indices 1 2 3 4 5 6 
#
# 1 68.8697 -12.0217 34.3892 0.0000 0.0000 0.0000
# 2 -12.0217 65.2338 11.2767 0.0000 0.0000 0.0000
# 3 34.3892 11.2767 115.3477 0.0000 0.0000 0.0000
# 4 0.0000 0.0000 0.0000 40.7893 0.0000 0.0000
# 5 0.0000 0.0000 0.0000 0.0000 45.9756 0.0000
# 6 0.0000 0.0000 0.0000 0.0000 0.0000 14.5296
#
#
#
# Elastic Compliance Matrix: (Units=1/GPa)
#
#
# Indices 1 2 3 4 5 6 
#
# 1 0.018206 0.004367 -0.005855 0.000000 0.000000 0.000000
# 2 0.004367 0.016641 -0.002929 0.000000 0.000000 0.000000
# 3 -0.005855 -0.002929 0.010701 0.000000 0.000000 0.000000
# 4 0.000000 0.000000 0.000000 0.024516 0.000000 0.000000
# 5 0.000000 0.000000 0.000000 0.000000 0.021751 0.000000
# 6 0.000000 0.000000 0.000000 0.000000 0.000000 0.068825
#
#
# Mechanical properties :
#
#
# Convention : Reuss Voigt Hill
#
# Bulk Modulus (GPa) = 27.23682 35.19329 31.21505
# Shear Modulus (GPa) = 27.51621 34.64604 31.08113
#
# Velocity S-wave (km/s) = 3.45463 3.87645 3.67160
# Velocity P-wave (km/s) = 5.26554 5.94138 5.61364
#
# Compressibility (1/GPa) = 0.03671501
#
# Stress axis : x y z
#
# Youngs Moduli (GPa) = 54.92697 60.09406 93.44676
#
# Poissons Ratio (x) = -0.26244 0.54711
# Poissons Ratio (y) = -0.23988 0.27369
# Poissons Ratio (z) = 0.32159 0.17601
#
# Static dielectric constant tensor:
#      x y z
#    x 1.695700 0.000000 0.000000 
#    y 0.000000 1.832080 0.000000 
#    z 0.000000 0.000000 2.060030 
# 
# From -- ./inp_files/22058.got.cif
#   From: 2010.05.17/outbox.cif.g08.bks.cpg/sg64_12_cif.got.tgz:22058.got - 2010.06.03 16:29:19.
