data_PCOD9480293
_publ_section_title
;
Structure prediction by ZEFSAII (Michael W. Deem and Ramdas Pophale) SiO2 
 PCOD9480293
Probable space group: C M C A
;
_chemical_formula_sum "Si O2"
_cell_formula_units_Z 88
_cell_length_a 15.074535
_cell_length_b 19.978651
_cell_length_c 14.661025
_cell_angle_alpha 90.000000
_cell_angle_beta 90.000000
_cell_angle_gamma 90.000000
_cell_volume 4415.444387
_symmetry_space_group_name_H-M "C M C A"
_symmetry_group_IT_number 64
_symmetry_cell_setting 'orthorhombic'
loop_
_space_group_symop_operation_xyz
x,y,z
-x,1/2-y,1/2+z
x,-y,-z
-x,1/2+y,1/2-z
-x,-y,-z
x,1/2+y,1/2-z
-x,y,z
x,1/2-y,1/2+z
1/2+x,1/2+y,z
1/2-x,-y,1/2+z
1/2+x,1/2-y,-z
1/2-x,y,1/2-z
1/2-x,1/2-y,-z
1/2+x,y,1/2-z
1/2-x,1/2+y,z
1/2+x,-y,1/2+z
loop_
_atom_site_type_symbol
_atom_site_label
_atom_site_fract_x
_atom_site_fract_y
_atom_site_fract_z
Si Si1 0.500000 0.171019 0.172137
Si Si2 0.198166 0.931493 0.439252
Si Si3 0.500000 0.080445 0.991158
Si Si4 0.250000 0.494509 0.250000
Si Si5 0.306830 0.312523 0.969645
Si Si6 0.500000 0.074887 0.468854
Si Si7 0.500000 0.703464 0.953000
Si Si8 0.862710 0.884290 0.813542
O O1 0.500000 0.119586 0.087176
O O2 0.500000 0.245279 0.130093
O O3 0.582345 0.154590 0.237677
O O4 0.223641 0.951667 0.337165
O O5 0.267305 0.876292 0.475550
O O6 0.096134 0.905099 0.445737
O O7 0.204270 0.000000 0.500000
O O8 0.500000 0.000000 0.000000
O O9 0.172582 0.547191 0.272608
O O10 0.408227 0.288822 0.991046
O O11 0.250000 0.250000 0.000000
O O12 0.295276 0.334083 0.863762
O O13 0.500000 0.122817 0.557540
O O14 0.580704 0.092313 0.401682
O O15 0.500000 0.000000 0.500000
#
# Coordination Sequence:
#
# PCOD9480293 Si02
#       8
#     8  16   8   8  16   8   8  16
#     4  11  22  45  67 100 134 179 240 289 355 437
#     4  11  23  44  70 102 141 183 236 293 352 427
#     4  10  21  39  70  99 139 179 223 292 357 409
#     4  12  24  38  68 106 134 176 234 286 348 414
#     4  11  24  45  68  95 135 186 229 288 369 424
#     4   9  21  41  65  89 125 180 226 270 350 406
#     4  10  24  39  67  94 128 176 226 287 348 413
#     4  10  23  39  67  96 129 176 229 285 345 423
#
# _framework density 19.930043000000001
#
# number of rings (size 3 to 8) (size 9 to 14) (size 15 to 20)
#    0.000    1.455    1.818    3.818    7.636    0.727 
#    3.273    0.909    0.000    0.000    0.000    0.000 
#    0.000    0.000    0.000    0.000    0.000    0.000 
#
# Total GULP energy -245239.893792 kJ/mol
# GULP energy per Si atom -5573.633950 kJ/mol
# Density = 1.988468 g / cm^3
# Si number density = 19.930043 Si / 1000 Ang^3
#
#
#
# Elastic Constant Matrix: (Units=GPa)
#
#
# Indices 1 2 3 4 5 6 
#
# 1 106.6660 35.4895 40.6168 0.0000 0.0000 0.0000
# 2 35.4895 131.7088 76.5979 0.0000 0.0000 0.0000
# 3 40.6168 76.5979 150.4587 0.0000 0.0000 0.0000
# 4 0.0000 0.0000 0.0000 34.3699 0.0000 0.0000
# 5 0.0000 0.0000 0.0000 0.0000 -0.3346 0.0000
# 6 0.0000 0.0000 0.0000 0.0000 0.0000 17.1953
#
#
#
# Elastic Compliance Matrix: (Units=1/GPa)
#
#
# Indices 1 2 3 4 5 6 
#
# 1 0.010714 -0.001712 -0.002021 0.000000 0.000000 0.000000
# 2 -0.001712 0.011059 -0.005168 0.000000 0.000000 0.000000
# 3 -0.002021 -0.005168 0.009823 0.000000 0.000000 0.000000
# 4 0.000000 0.000000 0.000000 0.029095 0.000000 0.000000
# 5 0.000000 0.000000 0.000000 0.000000 -2.988715 0.000000
# 6 0.000000 0.000000 0.000000 0.000000 0.000000 0.058155
#
#
# Mechanical properties :
#
#
# Convention : Reuss Voigt Hill
#
# Bulk Modulus (GPa) = 72.49045 77.13800 74.81423
# Shear Modulus (GPa) = -1.75595 25.98809 12.11607
#
# Velocity S-wave (km/s) = -0.93966 3.61496 2.46830
# Velocity P-wave (km/s) = 5.93920 7.49749 6.76337
#
# Compressibility (1/GPa) = 0.01379492
#
# Stress axis : x y z
#
# Youngs Moduli (GPa) = 93.33510 90.42075 101.80172
#
# Poissons Ratio (x) = 0.15477 0.20573
# Poissons Ratio (y) = 0.15976 0.52613
# Poissons Ratio (z) = 0.18862 0.46732
#
# Static dielectric constant tensor:
#      x y z
#    x 1.830340 0.000000 0.000000 
#    y 0.000000 1.721770 0.000000 
#    z 0.000000 0.000000 1.683560 
# 
# From -- ./inp_files/23823.got.cif
#   From: 2010.05.17/outbox.cif.g08.bks.cpg/sg64_12_cif.got.tgz:23823.got - 2010.06.03 16:29:19.
