data_PCOD9480649
_publ_section_title
;
Structure prediction by ZEFSAII (Michael W. Deem and Ramdas Pophale) SiO2 
 PCOD9480649
Probable space group: C M C A
;
_chemical_formula_sum "Si O2"
_cell_formula_units_Z 104
_cell_length_a 9.354583
_cell_length_b 22.916522
_cell_length_c 23.078655
_cell_angle_alpha 90.000000
_cell_angle_beta 90.000000
_cell_angle_gamma 90.000000
_cell_volume 4947.475291
_symmetry_space_group_name_H-M "C M C A"
_symmetry_group_IT_number 64
_symmetry_cell_setting 'orthorhombic'
loop_
_space_group_symop_operation_xyz
x,y,z
-x,1/2-y,1/2+z
x,-y,-z
-x,1/2+y,1/2-z
-x,-y,-z
x,1/2+y,1/2-z
-x,y,z
x,1/2-y,1/2+z
1/2+x,1/2+y,z
1/2-x,-y,1/2+z
1/2+x,1/2-y,-z
1/2-x,y,1/2-z
1/2-x,1/2-y,-z
1/2+x,y,1/2-z
1/2-x,1/2+y,z
1/2+x,-y,1/2+z
loop_
_atom_site_type_symbol
_atom_site_label
_atom_site_fract_x
_atom_site_fract_y
_atom_site_fract_z
Si Si1 0.668144 0.372721 0.493307
Si Si2 0.831208 0.212750 0.915636
Si Si3 0.839447 0.961970 0.384579
Si Si4 0.500000 0.214225 0.262966
Si Si5 0.328599 0.078036 0.395035
Si Si6 0.232938 0.689711 0.163104
Si Si7 0.169607 0.148749 0.689845
O O1 0.500000 0.364043 0.506786
O O2 0.741853 0.314157 0.468487
O O3 0.673477 0.419942 0.440555
O O4 0.758828 0.400180 0.545066
O O5 0.810639 0.280003 0.897586
O O6 0.762070 0.180464 0.859632
O O7 0.000000 0.200296 0.921805
O O8 0.828959 0.918892 0.329791
O O9 0.000000 0.987958 0.386240
O O10 0.723207 0.012333 0.384710
O O11 0.622665 0.216597 0.312978
O O12 0.619641 0.203605 0.212025
O O13 0.500000 0.082938 0.395758
O O14 0.263394 0.121555 0.347045
O O15 0.250000 0.158213 0.750000
O O16 0.000000 0.165326 0.694393
#
# Coordination Sequence:
#
# PCOD9480649 Si02
#       7
#    16  16  16   8  16  16  16
#     4  10  23  42  67  94 126 164 203 255 313 370
#     4  11  23  39  65  95 126 160 205 257 313 372
#     4   9  21  42  62  89 121 164 211 254 311 373
#     4  10  24  46  64  84 128 168 210 256 300 370
#     4  12  25  41  64  93 125 164 209 259 308 370
#     4  11  25  43  64  95 123 166 211 251 311 368
#     4  10  22  38  60  90 125 164 207 258 314 369
#
# _framework density 21.020823
#
# number of rings (size 3 to 8) (size 9 to 14) (size 15 to 20)
#    0.000    1.538    1.538    3.231    6.462    6.154 
#    2.769    0.000    0.000    0.000    0.000    0.000 
#    0.000    0.000    0.000    0.000    0.000    0.000 
#
# Total GULP energy -289602.910020 kJ/mol
# GULP energy per Si atom -5569.286731 kJ/mol
# Density = 2.097298 g / cm^3
# Si number density = 21.020823 Si / 1000 Ang^3
#
#
#
# Elastic Constant Matrix: (Units=GPa)
#
#
# Indices 1 2 3 4 5 6 
#
# 1 140.8263 12.2006 0.0029 0.0000 0.0000 0.0000
# 2 12.2006 65.9518 -8.2481 0.0000 0.0000 0.0000
# 3 0.0029 -8.2481 45.0563 0.0000 0.0000 0.0000
# 4 0.0000 0.0000 0.0000 -15.8056 0.0000 0.0000
# 5 0.0000 0.0000 0.0000 0.0000 42.0060 0.0000
# 6 0.0000 0.0000 0.0000 0.0000 0.0000 1469.2423
#
#
#
# Elastic Compliance Matrix: (Units=1/GPa)
#
#
# Indices 1 2 3 4 5 6 
#
# 1 0.007219 -0.001367 -0.000251 0.000000 0.000000 0.000000
# 2 -0.001367 0.015777 0.002888 0.000000 0.000000 0.000000
# 3 -0.000251 0.002888 0.022723 0.000000 0.000000 0.000000
# 4 0.000000 0.000000 0.000000 -0.063269 0.000000 0.000000
# 5 0.000000 0.000000 0.000000 0.000000 0.023806 0.000000
# 6 0.000000 0.000000 0.000000 0.000000 0.000000 0.000681
#
#
# Mechanical properties :
#
#
# Convention : Reuss Voigt Hill
#
# Bulk Modulus (GPa) = 20.72090 28.86058 24.79074
# Shear Modulus (GPa) = 244.10679 315.61381 279.86030
#
# Velocity S-wave (km/s) = 10.78788 12.26660 11.55092
# Velocity P-wave (km/s) = 12.84717 14.64190 13.77380
#
# Compressibility (1/GPa) = 0.04826046
#
# Stress axis : x y z
#
# Youngs Moduli (GPa) = 138.51625 63.38476 44.00793
#
# Poissons Ratio (x) = 0.08664 0.01103
# Poissons Ratio (y) = 0.18933 -0.12710
# Poissons Ratio (z) = 0.03473 -0.18307
#
# Static dielectric constant tensor:
#      x y z
#    x 1.411240 0.000000 0.000000 
#    y 0.000000 1.864790 0.000000 
#    z 0.000000 0.000000 1.757710 
# 
# From -- ./inp_files/48279.got.cif
#   From: 2010.05.17/outbox.cif.g08.bks.cpg/sg64_25_cif.got.tgz:48279.got - 2010.06.03 16:29:19.
