data_PCOD9480337
_publ_section_title
;
Structure prediction by ZEFSAII (Michael W. Deem and Ramdas Pophale) SiO2 
 PCOD9480337
Probable space group: C M C A
;
_chemical_formula_sum "Si O2"
_cell_formula_units_Z 104
_cell_length_a 9.963492
_cell_length_b 19.147089
_cell_length_c 26.714406
_cell_angle_alpha 90.000000
_cell_angle_beta 90.000000
_cell_angle_gamma 90.000000
_cell_volume 5096.357137
_symmetry_space_group_name_H-M "C M C A"
_symmetry_group_IT_number 64
_symmetry_cell_setting 'orthorhombic'
loop_
_space_group_symop_operation_xyz
x,y,z
-x,1/2-y,1/2+z
x,-y,-z
-x,1/2+y,1/2-z
-x,-y,-z
x,1/2+y,1/2-z
-x,y,z
x,1/2-y,1/2+z
1/2+x,1/2+y,z
1/2-x,-y,1/2+z
1/2+x,1/2-y,-z
1/2-x,y,1/2-z
1/2-x,1/2-y,-z
1/2+x,y,1/2-z
1/2-x,1/2+y,z
1/2+x,-y,1/2+z
loop_
_atom_site_type_symbol
_atom_site_label
_atom_site_fract_x
_atom_site_fract_y
_atom_site_fract_z
Si Si1 0.500000 0.018889 0.755909
Si Si2 0.650758 0.078809 0.018028
Si Si3 0.756424 0.546781 0.677103
Si Si4 0.157514 0.563944 0.393925
Si Si5 0.846171 0.845185 0.794401
Si Si6 0.155626 0.785270 0.458777
Si Si7 0.840506 0.801361 0.344942
O O1 0.380606 0.018477 0.798818
O O2 0.382027 0.028290 0.712390
O O3 0.500000 0.086150 0.039406
O O4 0.760759 0.093939 0.059792
O O5 0.659372 0.132806 0.972533
O O6 0.668239 0.000000 0.000000
O O7 0.784401 0.510328 0.623884
O O8 0.738743 0.630232 0.671871
O O9 0.174731 0.612959 0.345400
O O10 0.000000 0.559383 0.405267
O O11 0.750000 0.867227 0.750000
O O12 0.826261 0.763837 0.807606
O O13 0.000000 0.858682 0.778349
O O14 0.250000 0.750000 0.500000
O O15 0.196863 0.777119 0.401030
O O16 0.000000 0.761348 0.463507
O O17 0.000000 0.819059 0.346308
#
# Coordination Sequence:
#
# PCOD9480337 Si02
#       7
#     8  16  16  16  16  16  16
#     4  10  24  36  60  86 124 160 198 248 296 352
#     4  10  22  40  65  92 120 154 200 251 302 358
#     4  11  22  39  61  89 120 157 206 244 298 351
#     4  11  24  41  61  90 122 159 201 246 300 362
#     4  10  24  40  59  85 122 159 199 241 294 350
#     4  10  21  40  64  89 119 158 200 246 305 362
#     4  10  21  40  64  88 117 158 200 246 299 354
#
# _framework density 20.406732999999999
#
# number of rings (size 3 to 8) (size 9 to 14) (size 15 to 20)
#    0.000    1.692    1.538    1.846    5.385    4.000 
#    1.385    0.000    0.000    0.000    0.000    0.000 
#    0.000    0.000    0.000    0.000    0.000    0.000 
#
# Total GULP energy -289651.199948 kJ/mol
# GULP energy per Si atom -5570.215384 kJ/mol
# Density = 2.036029 g / cm^3
# Si number density = 20.406733 Si / 1000 Ang^3
#
#
#
# Elastic Constant Matrix: (Units=GPa)
#
#
# Indices 1 2 3 4 5 6 
#
# 1 127.9018 10.5037 56.8322 0.0000 0.0000 0.0000
# 2 10.5037 44.6448 -15.7467 0.0000 0.0000 0.0000
# 3 56.8322 -15.7467 70.0679 0.0000 0.0000 0.0000
# 4 0.0000 0.0000 0.0000 -14.6411 0.0000 0.0000
# 5 0.0000 0.0000 0.0000 0.0000 41.9371 0.0000
# 6 0.0000 0.0000 0.0000 0.0000 0.0000 18.6091
#
#
#
# Elastic Compliance Matrix: (Units=1/GPa)
#
#
# Indices 1 2 3 4 5 6 
#
# 1 0.014572 -0.008251 -0.013674 0.000000 0.000000 0.000000
# 2 -0.008251 0.029000 0.013210 0.000000 0.000000 0.000000
# 3 -0.013674 0.013210 0.028331 0.000000 0.000000 0.000000
# 4 0.000000 0.000000 0.000000 -0.068301 0.000000 0.000000
# 5 0.000000 0.000000 0.000000 0.000000 0.023845 0.000000
# 6 0.000000 0.000000 0.000000 0.000000 0.000000 0.053737
#
#
# Mechanical properties :
#
#
# Convention : Reuss Voigt Hill
#
# Bulk Modulus (GPa) = 18.35786 38.42145 28.38966
# Shear Modulus (GPa) = 42.81859 21.91605 32.36732
#
# Velocity S-wave (km/s) = 4.58564 3.28069 3.98692
# Velocity P-wave (km/s) = 6.08712 5.76362 5.92758
#
# Compressibility (1/GPa) = 0.05447257
#
# Stress axis : x y z
#
# Youngs Moduli (GPa) = 68.62530 34.48332 35.29669
#
# Poissons Ratio (x) = 0.28453 0.48263
# Poissons Ratio (y) = 0.56624 -0.46626
# Poissons Ratio (z) = 0.93836 -0.45552
#
# Static dielectric constant tensor:
#      x y z
#    x 1.692590 0.000000 0.000000 
#    y 0.000000 1.788060 0.000000 
#    z 0.000000 0.000000 1.691190 
# 
# From -- ./inp_files/48259.got.cif
#   From: 2010.05.17/outbox.cif.g08.bks.cpg/sg64_25_cif.got.tgz:48259.got - 2010.06.03 16:29:19.
