data_PCOD9480285
_publ_section_title
;
Structure prediction by ZEFSAII (Michael W. Deem and Ramdas Pophale) SiO2 
 PCOD9480285
Probable space group: C M C A
;
_chemical_formula_sum "Si O2"
_cell_formula_units_Z 80
_cell_length_a 26.624497
_cell_length_b 27.793154
_cell_length_c 4.951923
_cell_angle_alpha 90.000000
_cell_angle_beta 90.000000
_cell_angle_gamma 90.000000
_cell_volume 3664.317768
_symmetry_space_group_name_H-M "C M C A"
_symmetry_group_IT_number 64
_symmetry_cell_setting 'orthorhombic'
loop_
_space_group_symop_operation_xyz
x,y,z
-x,1/2-y,1/2+z
x,-y,-z
-x,1/2+y,1/2-z
-x,-y,-z
x,1/2+y,1/2-z
-x,y,z
x,1/2-y,1/2+z
1/2+x,1/2+y,z
1/2-x,-y,1/2+z
1/2+x,1/2-y,-z
1/2-x,y,1/2-z
1/2-x,1/2-y,-z
1/2+x,y,1/2-z
1/2-x,1/2+y,z
1/2+x,-y,1/2+z
loop_
_atom_site_type_symbol
_atom_site_label
_atom_site_fract_x
_atom_site_fract_y
_atom_site_fract_z
Si Si1 0.445629 0.947760 0.372369
Si Si2 0.056996 0.356016 0.777855
Si Si3 0.196869 0.124312 0.098724
Si Si4 0.639662 0.594759 0.578606
Si Si5 0.630399 0.282937 0.952208
O O1 0.500000 0.940479 0.228585
O O2 0.441829 0.904427 0.591821
O O3 0.396384 0.946075 0.189386
O O4 0.447395 0.000000 0.500000
O O5 0.079135 0.311814 0.607591
O O6 0.000000 0.347601 0.864331
O O7 0.096852 0.364390 0.020219
O O8 0.250000 0.125293 0.250000
O O9 0.164886 0.088774 0.290184
O O10 0.173459 0.177788 0.108832
O O11 0.182997 0.108272 0.793841
O O12 0.634346 0.238487 0.748531
#
# Coordination Sequence:
#
# PCOD9480285 Si02
#       5
#    16  16  16  16  16
#     4  10  21  39  68 104 133 166 212 258 317 387
#     4  10  22  40  63  93 135 175 210 256 316 383
#     4  11  24  42  68  94 122 168 218 276 328 374
#     4  11  20  42  64  96 129 167 207 258 324 382
#     4  11  23  39  61  92 127 163 217 262 312 381
#
# _framework density 21.832166999999998
#
# number of rings (size 3 to 8) (size 9 to 14) (size 15 to 20)
#    0.000    1.400    4.000    3.600    0.000    2.400 
#    0.000    3.000    0.000    2.400    0.000    0.000 
#    0.000    0.000    0.000    0.000    0.000    0.000 
#
# Total GULP energy -223145.427627 kJ/mol
# GULP energy per Si atom -5578.635691 kJ/mol
# Density = 2.178248 g / cm^3
# Si number density = 21.832167 Si / 1000 Ang^3
#
#
#
# Elastic Constant Matrix: (Units=GPa)
#
#
# Indices 1 2 3 4 5 6 
#
# 1 74.8090 0.4045 -7.2935 0.0000 0.0000 0.0000
# 2 0.4045 51.5803 -0.0243 0.0000 0.0000 0.0000
# 3 -7.2935 -0.0243 74.7932 0.0000 0.0000 0.0000
# 4 0.0000 0.0000 0.0000 18.7643 0.0000 0.0000
# 5 0.0000 0.0000 0.0000 0.0000 10.6935 0.0000
# 6 0.0000 0.0000 0.0000 0.0000 0.0000 -42.1188
#
#
#
# Elastic Compliance Matrix: (Units=1/GPa)
#
#
# Indices 1 2 3 4 5 6 
#
# 1 0.013496 -0.000105 0.001316 0.000000 0.000000 0.000000
# 2 -0.000105 0.019388 -0.000004 0.000000 0.000000 0.000000
# 3 0.001316 -0.000004 0.013499 0.000000 0.000000 0.000000
# 4 0.000000 0.000000 0.000000 0.053293 0.000000 0.000000
# 5 0.000000 0.000000 0.000000 0.000000 0.093514 0.000000
# 6 0.000000 0.000000 0.000000 0.000000 0.000000 -0.023742
#
#
# Mechanical properties :
#
#
# Convention : Reuss Voigt Hill
#
# Bulk Modulus (GPa) = 20.49322 20.81732 20.65527
# Shear Modulus (GPa) = 27.27779 11.34088 19.30933
#
# Velocity S-wave (km/s) = 3.53856 2.28163 2.97719
# Velocity P-wave (km/s) = 5.10904 4.06165 4.61516
#
# Compressibility (1/GPa) = 0.04879663
#
# Stress axis : x y z
#
# Youngs Moduli (GPa) = 74.09464 51.57814 74.08210
#
# Poissons Ratio (x) = 0.00543 -0.09750
# Poissons Ratio (y) = 0.00780 0.00029
# Poissons Ratio (z) = -0.09751 0.00020
#
# Static dielectric constant tensor:
#      x y z
#    x 1.853500 0.000000 0.000000 
#    y 0.000000 1.773660 0.000000 
#    z 0.000000 0.000000 1.861270 
# 
# From -- ./inp_files/2893.got.cif
#   From: 2010.05.17/outbox.cif.g08.bks.cpg/sg64_2_cif.got.tgz:2893.got - 2010.06.03 16:29:19.
