data_PCOD9480174
_publ_section_title
;
Structure prediction by ZEFSAII (Michael W. Deem and Ramdas Pophale) SiO2 
 PCOD9480174
Probable space group: C M C A
;
_chemical_formula_sum "Si O2"
_cell_formula_units_Z 80
_cell_length_a 27.233777
_cell_length_b 16.081612
_cell_length_c 8.897123
_cell_angle_alpha 90.000000
_cell_angle_beta 90.000000
_cell_angle_gamma 90.000000
_cell_volume 3896.610992
_symmetry_space_group_name_H-M "C M C A"
_symmetry_group_IT_number 64
_symmetry_cell_setting 'orthorhombic'
loop_
_space_group_symop_operation_xyz
x,y,z
-x,1/2-y,1/2+z
x,-y,-z
-x,1/2+y,1/2-z
-x,-y,-z
x,1/2+y,1/2-z
-x,y,z
x,1/2-y,1/2+z
1/2+x,1/2+y,z
1/2-x,-y,1/2+z
1/2+x,1/2-y,-z
1/2-x,y,1/2-z
1/2-x,1/2-y,-z
1/2+x,y,1/2-z
1/2-x,1/2+y,z
1/2+x,-y,1/2+z
loop_
_atom_site_type_symbol
_atom_site_label
_atom_site_fract_x
_atom_site_fract_y
_atom_site_fract_z
Si Si1 0.104822 0.840981 0.794947
Si Si2 0.500000 0.441846 0.221019
Si Si3 0.000000 0.366783 0.601162
Si Si4 0.199474 0.133567 0.712757
Si Si5 0.834957 0.743845 0.043357
Si Si6 0.894849 0.476123 0.174035
O O1 0.122031 0.799647 0.639597
O O2 0.049051 0.822676 0.841748
O O3 0.107593 0.939963 0.772108
O O4 0.140573 0.805773 0.923056
O O5 0.500000 0.538637 0.166779
O O6 0.551610 0.433808 0.307592
O O7 0.500000 0.381674 0.077375
O O8 0.250000 0.086589 0.750000
O O9 0.195489 0.175435 0.548909
O O10 0.196953 0.206021 0.837068
O O11 0.149592 0.081657 0.726001
O O12 0.888207 0.500000 0.000000
#
# Coordination Sequence:
#
# PCOD9480174 Si02
#       6
#    16   8   8  16  16  16
#     4  10  21  39  61  88 125 161 205 258 304 378
#     4   9  19  34  62  89 125 164 196 249 312 372
#     4   9  18  34  58  91 120 159 208 244 304 365
#     4  11  23  42  64  90 121 161 208 259 317 378
#     4  10  22  41  61  86 123 163 202 252 323 379
#     4  11  21  40  62  93 127 161 215 259 311 369
#
# _framework density 20.530662
#
# number of rings (size 3 to 8) (size 9 to 14) (size 15 to 20)
#    0.000    1.800    2.000    2.100    0.000    3.200 
#    3.600    5.000    0.000    0.000    0.000    0.000 
#    0.000    0.000    0.000    0.000    0.000    0.000 
#
# Total GULP energy -223371.234053 kJ/mol
# GULP energy per Si atom -5584.280851 kJ/mol
# Density = 2.048393 g / cm^3
# Si number density = 20.530662 Si / 1000 Ang^3
#
#
#
# Elastic Constant Matrix: (Units=GPa)
#
#
# Indices 1 2 3 4 5 6 
#
# 1 124.0963 25.1246 24.1870 0.0000 0.0000 0.0000
# 2 25.1246 32.5323 14.0331 0.0000 0.0000 0.0000
# 3 24.1870 14.0331 85.9903 0.0000 0.0000 0.0000
# 4 0.0000 0.0000 0.0000 20.7400 0.0000 0.0000
# 5 0.0000 0.0000 0.0000 0.0000 21.2671 0.0000
# 6 0.0000 0.0000 0.0000 0.0000 0.0000 24.9040
#
#
#
# Elastic Compliance Matrix: (Units=1/GPa)
#
#
# Indices 1 2 3 4 5 6 
#
# 1 0.009760 -0.006834 -0.001630 0.000000 0.000000 0.000000
# 2 -0.006834 0.037852 -0.004255 0.000000 0.000000 0.000000
# 3 -0.001630 -0.004255 0.012782 0.000000 0.000000 0.000000
# 4 0.000000 0.000000 0.000000 0.048216 0.000000 0.000000
# 5 0.000000 0.000000 0.000000 0.000000 0.047021 0.000000
# 6 0.000000 0.000000 0.000000 0.000000 0.000000 0.040154
#
#
# Mechanical properties :
#
#
# Convention : Reuss Voigt Hill
#
# Bulk Modulus (GPa) = 28.60762 41.03426 34.82094
# Shear Modulus (GPa) = 21.47075 25.33382 23.40229
#
# Velocity S-wave (km/s) = 3.23738 3.51657 3.37986
# Velocity P-wave (km/s) = 5.28569 6.04306 5.67702
#
# Compressibility (1/GPa) = 0.03495572
#
# Stress axis : x y z
#
# Youngs Moduli (GPa) = 102.46335 26.41861 78.23489
#
# Poissons Ratio (x) = 0.18055 0.12751
# Poissons Ratio (y) = 0.70026 0.33288
# Poissons Ratio (z) = 0.16700 0.11241
#
# Static dielectric constant tensor:
#      x y z
#    x 1.757760 0.000000 0.000000 
#    y 0.000000 1.740820 0.000000 
#    z 0.000000 0.000000 1.716590 
# 
# From -- ./inp_files/10263.got.cif
#   From: 2010.05.17/outbox.cif.g08.bks.cpg/sg64_6_cif.got.tgz:10263.got - 2010.06.03 16:29:19.
