data_PCOD9480340
_publ_section_title
;
Structure prediction by ZEFSAII (Michael W. Deem and Ramdas Pophale) SiO2 
 PCOD9480340
Probable space group: C M C A
;
_chemical_formula_sum "Si O2"
_cell_formula_units_Z 88
_cell_length_a 15.561505
_cell_length_b 8.613732
_cell_length_c 30.063322
_cell_angle_alpha 90.000000
_cell_angle_beta 90.000000
_cell_angle_gamma 90.000000
_cell_volume 4029.766855
_symmetry_space_group_name_H-M "C M C A"
_symmetry_group_IT_number 64
_symmetry_cell_setting 'orthorhombic'
loop_
_space_group_symop_operation_xyz
x,y,z
-x,1/2-y,1/2+z
x,-y,-z
-x,1/2+y,1/2-z
-x,-y,-z
x,1/2+y,1/2-z
-x,y,z
x,1/2-y,1/2+z
1/2+x,1/2+y,z
1/2-x,-y,1/2+z
1/2+x,1/2-y,-z
1/2-x,y,1/2-z
1/2-x,1/2-y,-z
1/2+x,y,1/2-z
1/2-x,1/2+y,z
1/2+x,-y,1/2+z
loop_
_atom_site_type_symbol
_atom_site_label
_atom_site_fract_x
_atom_site_fract_y
_atom_site_fract_z
Si Si1 0.153723 0.376212 0.233982
Si Si2 0.286596 0.790450 0.649811
Si Si3 0.732101 0.554889 0.912932
Si Si4 0.663926 0.500000 0.500000
Si Si5 0.902555 0.328481 0.476489
Si Si6 0.404810 0.182103 0.185204
O O1 0.250000 0.424082 0.250000
O O2 0.170069 0.242176 0.196939
O O3 0.104137 0.310989 0.276184
O O4 0.107231 0.517515 0.210055
O O5 0.299978 0.646107 0.617156
O O6 0.183106 0.800199 0.657177
O O7 0.312693 0.938279 0.621359
O O8 0.662020 0.663932 0.935495
O O9 0.779448 0.483229 0.955495
O O10 0.617247 0.331209 0.496400
O O11 0.894342 0.500000 0.500000
O O12 0.000000 0.316942 0.461499
O O13 0.500000 0.190554 0.164382
#
# Coordination Sequence:
#
# PCOD9480340 Si02
#       6
#    16  16  16   8  16  16
#     4  10  21  40  64  90 121 169 210 252 315 388
#     4  11  23  39  66  92 124 169 214 263 311 386
#     4  12  22  42  67  93 126 169 224 263 318 393
#     4  12  23  44  71  96 126 182 226 266 331 406
#     4  11  24  42  65  96 130 166 217 277 333 384
#     4  11  23  40  62  93 128 162 207 262 320 380
#
# _framework density 21.837492000000001
#
# number of rings (size 3 to 8) (size 9 to 14) (size 15 to 20)
#    0.000    0.909    4.545    4.091    2.545    0.727 
#    0.000    1.818    0.000    0.000    0.000    0.000 
#    0.000    0.000    0.000    0.000    0.000    0.000 
#
# Total GULP energy -245490.677357 kJ/mol
# GULP energy per Si atom -5579.333576 kJ/mol
# Density = 2.178779 g / cm^3
# Si number density = 21.837492 Si / 1000 Ang^3
#
#
#
# Elastic Constant Matrix: (Units=GPa)
#
#
# Indices 1 2 3 4 5 6 
#
# 1 67.1991 4.2703 7.2256 0.0000 0.0000 0.0000
# 2 4.2703 89.6072 6.8931 0.0000 0.0000 0.0000
# 3 7.2256 6.8931 65.1921 0.0000 0.0000 0.0000
# 4 0.0000 0.0000 0.0000 37.6243 0.0000 0.0000
# 5 0.0000 0.0000 0.0000 0.0000 -0.4609 0.0000
# 6 0.0000 0.0000 0.0000 0.0000 0.0000 2.6743
#
#
#
# Elastic Compliance Matrix: (Units=1/GPa)
#
#
# Indices 1 2 3 4 5 6 
#
# 1 0.015092 -0.000595 -0.001610 0.000000 0.000000 0.000000
# 2 -0.000595 0.011275 -0.001126 0.000000 0.000000 0.000000
# 3 -0.001610 -0.001126 0.015637 0.000000 0.000000 0.000000
# 4 0.000000 0.000000 0.000000 0.026579 0.000000 0.000000
# 5 0.000000 0.000000 0.000000 0.000000 -2.169580 0.000000
# 6 0.000000 0.000000 0.000000 0.000000 0.000000 0.373926
#
#
# Mechanical properties :
#
#
# Convention : Reuss Voigt Hill
#
# Bulk Modulus (GPa) = 28.29575 28.75295 28.52435
# Shear Modulus (GPa) = -2.92632 21.54150 9.30759
#
# Velocity S-wave (km/s) = -1.15886 3.14418 2.06675
# Velocity P-wave (km/s) = 3.34588 5.13581 4.33425
#
# Compressibility (1/GPa) = 0.03534100
#
# Stress axis : x y z
#
# Youngs Moduli (GPa) = 66.25989 88.69314 63.95181
#
# Poissons Ratio (x) = 0.05281 0.10295
# Poissons Ratio (y) = 0.03945 0.07202
# Poissons Ratio (z) = 0.10666 0.09988
#
# Static dielectric constant tensor:
#      x y z
#    x 1.813440 0.000000 0.000000 
#    y 0.000000 1.926880 0.000000 
#    z 0.000000 0.000000 1.808590 
# 
# From -- ./inp_files/53554.got.cif
#   From: 2010.05.17/outbox.cif.g08.bks.cpg/sg64_27_cif.got.tgz:53554.got - 2010.06.03 16:29:19.
