data_PCOD9480410
_publ_section_title
;
Structure prediction by ZEFSAII (Michael W. Deem and Ramdas Pophale) SiO2 
 PCOD9480410
Probable space group: C M C A
;
_chemical_formula_sum "Si O2"
_cell_formula_units_Z 112
_cell_length_a 13.970874
_cell_length_b 25.520888
_cell_length_c 14.929527
_cell_angle_alpha 90.000000
_cell_angle_beta 90.000000
_cell_angle_gamma 90.000000
_cell_volume 5323.109574
_symmetry_space_group_name_H-M "C M C A"
_symmetry_group_IT_number 64
_symmetry_cell_setting 'orthorhombic'
loop_
_space_group_symop_operation_xyz
x,y,z
-x,1/2-y,1/2+z
x,-y,-z
-x,1/2+y,1/2-z
-x,-y,-z
x,1/2+y,1/2-z
-x,y,z
x,1/2-y,1/2+z
1/2+x,1/2+y,z
1/2-x,-y,1/2+z
1/2+x,1/2-y,-z
1/2-x,y,1/2-z
1/2-x,1/2-y,-z
1/2+x,y,1/2-z
1/2-x,1/2+y,z
1/2+x,-y,1/2+z
loop_
_atom_site_type_symbol
_atom_site_label
_atom_site_fract_x
_atom_site_fract_y
_atom_site_fract_z
Si Si1 0.727242 0.809341 0.530810
Si Si2 0.388692 0.851675 0.865042
Si Si3 0.270072 0.993927 0.392745
Si Si4 0.108742 0.783130 0.800674
Si Si5 0.815336 0.124277 0.874171
Si Si6 0.106216 0.842003 0.309665
Si Si7 0.386124 0.462577 0.733489
O O1 0.750000 0.750000 0.500000
O O2 0.822900 0.842783 0.549435
O O3 0.674184 0.808147 0.624923
O O4 0.663795 0.839815 0.459136
O O5 0.500000 0.851287 0.889874
O O6 0.368690 0.803072 0.798453
O O7 0.370501 0.904805 0.809330
O O8 0.318814 0.937414 0.385502
O O9 0.255468 0.000000 0.500000
O O10 0.338845 0.031831 0.332417
O O11 0.171216 0.999064 0.335337
O O12 0.114500 0.720889 0.810242
O O13 0.000000 0.799990 0.817078
O O14 0.882109 0.140554 0.792752
O O15 0.703096 0.136401 0.853261
O O16 0.000000 0.856533 0.344134
O O17 0.500000 0.472498 0.736388
#
# Coordination Sequence:
#
# PCOD9480410 Si02
#       7
#    16  16  16  16  16  16  16
#     4  12  23  37  63  92 129 165 201 261 315 374
#     4  10  23  40  64  92 122 168 216 255 312 383
#     4  11  25  42  65  98 131 165 219 283 333 394
#     4  10  22  38  59  89 122 162 204 244 303 375
#     4  11  24  38  60  95 119 158 211 248 318 377
#     4  10  21  41  61  83 123 163 200 249 300 368
#     4  10  23  45  68  93 129 176 222 274 338 395
#
# _framework density 21.040334000000001
#
# number of rings (size 3 to 8) (size 9 to 14) (size 15 to 20)
#    0.000    1.429    1.429    3.857    8.000    4.571 
#    0.000    0.000    0.000    0.000    0.000    0.000 
#    0.000    0.000    0.000    0.000    0.000    0.000 
#
# Total GULP energy -312663.918384 kJ/mol
# GULP energy per Si atom -5583.284257 kJ/mol
# Density = 2.099245 g / cm^3
# Si number density = 21.040334 Si / 1000 Ang^3
#
#
#
# Elastic Constant Matrix: (Units=GPa)
#
#
# Indices 1 2 3 4 5 6 
#
# 1 70.0522 -4.6304 30.2574 0.0000 0.0000 0.0000
# 2 -4.6304 28.9010 -0.3896 0.0000 0.0000 0.0000
# 3 30.2574 -0.3896 82.1443 0.0000 0.0000 0.0000
# 4 0.0000 0.0000 0.0000 22.3545 0.0000 0.0000
# 5 0.0000 0.0000 0.0000 0.0000 15.0240 0.0000
# 6 0.0000 0.0000 0.0000 0.0000 0.0000 30.1703
#
#
#
# Elastic Compliance Matrix: (Units=1/GPa)
#
#
# Indices 1 2 3 4 5 6 
#
# 1 0.017179 0.002667 -0.006315 0.000000 0.000000 0.000000
# 2 0.002667 0.035017 -0.000816 0.000000 0.000000 0.000000
# 3 -0.006315 -0.000816 0.014496 0.000000 0.000000 0.000000
# 4 0.000000 0.000000 0.000000 0.044734 0.000000 0.000000
# 5 0.000000 0.000000 0.000000 0.000000 0.066560 0.000000
# 6 0.000000 0.000000 0.000000 0.000000 0.000000 0.033145
#
#
# Mechanical properties :
#
#
# Convention : Reuss Voigt Hill
#
# Bulk Modulus (GPa) = 17.31195 25.73027 21.52111
# Shear Modulus (GPa) = 20.89300 23.90043 22.39671
#
# Velocity S-wave (km/s) = 3.15460 3.37402 3.26615
# Velocity P-wave (km/s) = 4.63838 5.23777 4.94716
#
# Compressibility (1/GPa) = 0.05776358
#
# Stress axis : x y z
#
# Youngs Moduli (GPa) = 58.21039 28.55740 68.98468
#
# Poissons Ratio (x) = -0.07617 0.43565
# Poissons Ratio (y) = -0.15526 0.05632
# Poissons Ratio (z) = 0.36761 0.02331
#
# Static dielectric constant tensor:
#      x y z
#    x 1.789080 0.000000 0.000000 
#    y 0.000000 1.778210 0.000000 
#    z 0.000000 0.000000 1.745660 
# 
# From -- ./inp_files/24213.got.cif
#   From: 2010.05.17/outbox.cif.g08.bks.cpg/sg64_13_cif.got.tgz:24213.got - 2010.06.03 16:29:19.
