data_PCOD9480183
_publ_section_title
;
Structure prediction by ZEFSAII (Michael W. Deem and Ramdas Pophale) SiO2 
 PCOD9480183
Probable space group: C M C A
;
_chemical_formula_sum "Si O2"
_cell_formula_units_Z 56
_cell_length_a 17.106781
_cell_length_b 14.373221
_cell_length_c 10.824356
_cell_angle_alpha 90.000000
_cell_angle_beta 90.000000
_cell_angle_gamma 90.000000
_cell_volume 2661.487716
_symmetry_space_group_name_H-M "C M C A"
_symmetry_group_IT_number 64
_symmetry_cell_setting 'orthorhombic'
loop_
_space_group_symop_operation_xyz
x,y,z
-x,1/2-y,1/2+z
x,-y,-z
-x,1/2+y,1/2-z
-x,-y,-z
x,1/2+y,1/2-z
-x,y,z
x,1/2-y,1/2+z
1/2+x,1/2+y,z
1/2-x,-y,1/2+z
1/2+x,1/2-y,-z
1/2-x,y,1/2-z
1/2-x,1/2-y,-z
1/2+x,y,1/2-z
1/2-x,1/2+y,z
1/2+x,-y,1/2+z
loop_
_atom_site_type_symbol
_atom_site_label
_atom_site_fract_x
_atom_site_fract_y
_atom_site_fract_z
Si Si1 0.092681 0.639594 0.577765
Si Si2 0.844193 0.460257 0.668215
Si Si3 0.094447 0.354046 0.909473
Si Si4 0.698944 0.500000 0.500000
O O1 0.119297 0.596159 0.447857
O O2 0.123020 0.564953 0.676228
O O3 0.118274 0.745964 0.590728
O O4 0.000000 0.639854 0.582843
O O5 0.875421 0.401598 0.783486
O O6 0.755893 0.477713 0.616277
O O7 0.000000 0.361684 0.921423
O O8 0.141847 0.411642 0.013049
#
# Coordination Sequence:
#
# PCOD9480183 Si02
#       4
#    16  16  16   8
#     4   9  19  36  60  89 120 159 207 255 302 361
#     4  10  21  39  62  86 124 165 203 250 306 367
#     4  11  22  38  63  92 124 163 206 253 304 361
#     4  10  23  40  57  88 122 156 200 252 305 356
#
# _framework density 21.040863000000002
#
# number of rings (size 3 to 8) (size 9 to 14) (size 15 to 20)
#    0.000    2.286    0.000    4.714    0.000    6.857 
#    0.000    8.571    0.000    0.000    0.000    0.000 
#    0.000    0.000    0.000    0.000    0.000    0.000 
#
# Total GULP energy -156028.091968 kJ/mol
# GULP energy per Si atom -5572.431856 kJ/mol
# Density = 2.099297 g / cm^3
# Si number density = 21.040863 Si / 1000 Ang^3
#
#
#
# Elastic Constant Matrix: (Units=GPa)
#
#
# Indices 1 2 3 4 5 6 
#
# 1 92.9514 74.8818 7.5070 0.0000 0.0000 0.0000
# 2 74.8818 205.4196 -0.2047 0.0000 0.0000 0.0000
# 3 7.5070 -0.2047 14.3390 0.0000 0.0000 0.0000
# 4 0.0000 0.0000 0.0000 20.3093 0.0000 0.0000
# 5 0.0000 0.0000 0.0000 0.0000 7.8625 0.0000
# 6 0.0000 0.0000 0.0000 0.0000 0.0000 -74.4089
#
#
#
# Elastic Compliance Matrix: (Units=1/GPa)
#
#
# Indices 1 2 3 4 5 6 
#
# 1 0.016222 -0.005922 -0.008577 0.000000 0.000000 0.000000
# 2 -0.005922 0.007030 0.003201 0.000000 0.000000 0.000000
# 3 -0.008577 0.003201 0.074276 0.000000 0.000000 0.000000
# 4 0.000000 0.000000 0.000000 0.049239 0.000000 0.000000
# 5 0.000000 0.000000 0.000000 0.000000 0.127186 0.000000
# 6 0.000000 0.000000 0.000000 0.000000 0.000000 -0.013439
#
#
# Mechanical properties :
#
#
# Convention : Reuss Voigt Hill
#
# Bulk Modulus (GPa) = 13.34565 53.00869 33.17717
# Shear Modulus (GPa) = 16.22919 6.12097 11.17508
#
# Velocity S-wave (km/s) = 2.78027 1.70746 2.30709
# Velocity P-wave (km/s) = 4.08204 5.39769 4.78530
#
# Compressibility (1/GPa) = 0.07493079
#
# Stress axis : x y z
#
# Youngs Moduli (GPa) = 61.64583 142.24797 13.46332
#
# Poissons Ratio (x) = 0.84237 0.11548
# Poissons Ratio (y) = 0.36506 -0.04309
# Poissons Ratio (z) = 0.52875 -0.45529
#
# Static dielectric constant tensor:
#      x y z
#    x 1.795940 0.000000 0.000000 
#    y 0.000000 1.721790 0.000000 
#    z 0.000000 0.000000 11.097860 
# 
# From -- ./inp_files/13761.got.cif
#   From: 2010.05.17/outbox.cif.g08.bks.cpg/sg64_7_cif.got.tgz:13761.got - 2010.06.03 16:29:19.
