data_PCOD9480362
_publ_section_title
;
Structure prediction by ZEFSAII (Michael W. Deem and Ramdas Pophale) SiO2 
 PCOD9480362
Probable space group: C M C A
;
_chemical_formula_sum "Si O2"
_cell_formula_units_Z 72
_cell_length_a 17.942158
_cell_length_b 20.388844
_cell_length_c 9.749388
_cell_angle_alpha 90.000000
_cell_angle_beta 90.000000
_cell_angle_gamma 90.000000
_cell_volume 3566.519758
_symmetry_space_group_name_H-M "C M C A"
_symmetry_group_IT_number 64
_symmetry_cell_setting 'orthorhombic'
loop_
_space_group_symop_operation_xyz
x,y,z
-x,1/2-y,1/2+z
x,-y,-z
-x,1/2+y,1/2-z
-x,-y,-z
x,1/2+y,1/2-z
-x,y,z
x,1/2-y,1/2+z
1/2+x,1/2+y,z
1/2-x,-y,1/2+z
1/2+x,1/2-y,-z
1/2-x,y,1/2-z
1/2-x,1/2-y,-z
1/2+x,y,1/2-z
1/2-x,1/2+y,z
1/2+x,-y,1/2+z
loop_
_atom_site_type_symbol
_atom_site_label
_atom_site_fract_x
_atom_site_fract_y
_atom_site_fract_z
Si Si1 0.085451 0.783795 0.963222
Si Si2 0.081854 0.387228 0.298753
Si Si3 0.633320 0.500000 0.000000
Si Si4 0.200712 0.173763 0.624083
Si Si5 0.698687 0.121153 0.377594
O O1 0.143019 0.724439 0.944543
O O2 0.120771 0.840030 0.866355
O O3 0.000000 0.766777 0.930408
O O4 0.085470 0.819777 0.111583
O O5 0.090219 0.447346 0.405561
O O6 0.149431 0.382494 0.192657
O O7 0.000000 0.390912 0.234213
O O8 0.681985 0.545174 0.099412
O O9 0.250000 0.202462 0.750000
O O10 0.258046 0.147399 0.511779
O O11 0.750000 0.133502 0.250000
#
# Coordination Sequence:
#
# PCOD9480362 Si02
#       5
#    16  16   8  16  16
#     4  10  22  39  61  92 125 161 201 247 311 374
#     4  10  22  40  64  92 123 165 206 253 310 369
#     4  10  21  40  66  88 123 164 212 252 303 370
#     4  12  22  40  62  93 126 158 206 256 311 367
#     4  11  25  40  64  92 124 163 207 258 309 364
#
# _framework density 20.187746000000001
#
# number of rings (size 3 to 8) (size 9 to 14) (size 15 to 20)
#    0.000    1.333    4.444    2.333    6.222    0.889 
#    0.000    1.111    0.000    1.333    0.000    0.000 
#    0.000    0.000    0.000    0.000    0.000    0.000 
#
# Total GULP energy -200914.798380 kJ/mol
# GULP energy per Si atom -5580.966622 kJ/mol
# Density = 2.014180 g / cm^3
# Si number density = 20.187746 Si / 1000 Ang^3
#
#
#
# Elastic Constant Matrix: (Units=GPa)
#
#
# Indices 1 2 3 4 5 6 
#
# 1 135.9024 28.3546 24.9319 0.0000 0.0000 0.0000
# 2 28.3546 81.7624 9.1445 0.0000 0.0000 0.0000
# 3 24.9319 9.1445 61.4206 0.0000 0.0000 0.0000
# 4 0.0000 0.0000 0.0000 18.1976 0.0000 0.0000
# 5 0.0000 0.0000 0.0000 0.0000 22.0150 0.0000
# 6 0.0000 0.0000 0.0000 0.0000 0.0000 17.2885
#
#
#
# Elastic Compliance Matrix: (Units=1/GPa)
#
#
# Indices 1 2 3 4 5 6 
#
# 1 0.008458 -0.002592 -0.003047 0.000000 0.000000 0.000000
# 2 -0.002592 0.013232 -0.000918 0.000000 0.000000 0.000000
# 3 -0.003047 -0.000918 0.017655 0.000000 0.000000 0.000000
# 4 0.000000 0.000000 0.000000 0.054952 0.000000 0.000000
# 5 0.000000 0.000000 0.000000 0.000000 0.045424 0.000000
# 6 0.000000 0.000000 0.000000 0.000000 0.000000 0.057842
#
#
# Mechanical properties :
#
#
# Convention : Reuss Voigt Hill
#
# Bulk Modulus (GPa) = 38.12405 44.88303 41.50354
# Shear Modulus (GPa) = 22.78718 25.94383 24.36550
#
# Velocity S-wave (km/s) = 3.36335 3.58876 3.47788
# Velocity P-wave (km/s) = 5.83169 6.28119 6.06061
#
# Compressibility (1/GPa) = 0.02623016
#
# Stress axis : x y z
#
# Youngs Moduli (GPa) = 118.22913 75.57301 56.64175
#
# Poissons Ratio (x) = 0.19592 0.17261
# Poissons Ratio (y) = 0.30650 0.05198
# Poissons Ratio (z) = 0.36029 0.06936
#
# Static dielectric constant tensor:
#      x y z
#    x 1.725790 0.000000 0.000000 
#    y 0.000000 1.730500 0.000000 
#    z 0.000000 0.000000 1.722040 
# 
# From -- ./inp_files/6873.got.cif
#   From: 2010.05.17/outbox.cif.g08.bks.cpg/sg64_4_cif.got.tgz:6873.got - 2010.06.03 16:29:19.
