data_PCOD9480510
_publ_section_title
;
Structure prediction by ZEFSAII (Michael W. Deem and Ramdas Pophale) SiO2 
 PCOD9480510
Probable space group: C M C A
;
_chemical_formula_sum "Si O2"
_cell_formula_units_Z 68
_cell_length_a 16.975637
_cell_length_b 8.181678
_cell_length_c 22.768732
_cell_angle_alpha 90.000000
_cell_angle_beta 90.000000
_cell_angle_gamma 90.000000
_cell_volume 3162.330876
_symmetry_space_group_name_H-M "C M C A"
_symmetry_group_IT_number 64
_symmetry_cell_setting 'orthorhombic'
loop_
_space_group_symop_operation_xyz
x,y,z
-x,1/2-y,1/2+z
x,-y,-z
-x,1/2+y,1/2-z
-x,-y,-z
x,1/2+y,1/2-z
-x,y,z
x,1/2-y,1/2+z
1/2+x,1/2+y,z
1/2-x,-y,1/2+z
1/2+x,1/2-y,-z
1/2-x,y,1/2-z
1/2-x,1/2-y,-z
1/2+x,y,1/2-z
1/2-x,1/2+y,z
1/2+x,-y,1/2+z
loop_
_atom_site_type_symbol
_atom_site_label
_atom_site_fract_x
_atom_site_fract_y
_atom_site_fract_z
Si Si1 0.317018 0.913069 0.060172
Si Si2 0.907357 0.551832 0.171567
Si Si3 0.647065 0.039049 0.417636
Si Si4 0.500000 0.500000 0.000000
Si Si5 0.907469 0.566864 0.702569
O O1 0.339417 0.723923 0.061418
O O2 0.358120 0.999617 0.115330
O O3 0.223327 0.933598 0.066505
O O4 0.342303 0.000000 0.000000
O O5 0.879836 0.461957 0.231059
O O6 0.900818 0.744464 0.184255
O O7 0.000000 0.512412 0.161690
O O8 0.569272 0.975462 0.449682
O O9 0.635461 0.036156 0.347511
O O10 0.000000 0.519940 0.702370
#
# Coordination Sequence:
#
# PCOD9480510 Si02
#       5
#    16  16  16   4  16
#     4  12  27  44  69 101 144 179 229 289 343 411
#     4  10  23  41  68 104 139 186 231 286 348 409
#     4  12  26  46  72 102 141 182 231 284 349 409
#     4  12  28  44  78 100 138 188 228 272 352 416
#     4  10  21  42  70  99 141 181 236 286 340 411
#
# _framework density 21.503125000000001
#
# number of rings (size 3 to 8) (size 9 to 14) (size 15 to 20)
#    0.000    0.941    2.353    3.529    4.941    3.294 
#    0.000    4.706    0.000    0.000    0.000    0.000 
#    0.000    0.000    0.000    0.000    0.000    0.000 
#
# Total GULP energy -189886.822310 kJ/mol
# GULP energy per Si atom -5584.906539 kJ/mol
# Density = 2.145418 g / cm^3
# Si number density = 21.503125 Si / 1000 Ang^3
#
#
#
# Elastic Constant Matrix: (Units=GPa)
#
#
# Indices 1 2 3 4 5 6 
#
# 1 105.3759 36.7671 71.2212 0.0000 0.0000 0.0000
# 2 36.7671 48.8085 25.6511 0.0000 0.0000 0.0000
# 3 71.2212 25.6511 195.6007 0.0000 0.0000 0.0000
# 4 0.0000 0.0000 0.0000 41.2178 0.0000 0.0000
# 5 0.0000 0.0000 0.0000 0.0000 78.8292 0.0000
# 6 0.0000 0.0000 0.0000 0.0000 0.0000 235.1889
#
#
#
# Elastic Compliance Matrix: (Units=1/GPa)
#
#
# Indices 1 2 3 4 5 6 
#
# 1 0.015901 -0.009597 -0.004531 0.000000 0.000000 0.000000
# 2 -0.009597 0.027797 -0.000151 0.000000 0.000000 0.000000
# 3 -0.004531 -0.000151 0.006782 0.000000 0.000000 0.000000
# 4 0.000000 0.000000 0.000000 0.024261 0.000000 0.000000
# 5 0.000000 0.000000 0.000000 0.000000 0.012686 0.000000
# 6 0.000000 0.000000 0.000000 0.000000 0.000000 0.004252
#
#
# Mechanical properties :
#
#
# Convention : Reuss Voigt Hill
#
# Bulk Modulus (GPa) = 45.61638 68.56266 57.08952
# Shear Modulus (GPa) = 39.20235 85.45688 62.32962
#
# Velocity S-wave (km/s) = 4.27441 6.31093 5.38973
# Velocity P-wave (km/s) = 6.75431 9.22269 8.08328
#
# Compressibility (1/GPa) = 0.02192195
#
# Stress axis : x y z
#
# Youngs Moduli (GPa) = 62.89001 35.97560 147.44605
#
# Poissons Ratio (x) = 0.34524 0.66811
# Poissons Ratio (y) = 0.60353 0.02226
# Poissons Ratio (z) = 0.28497 0.00543
#
# Static dielectric constant tensor:
#      x y z
#    x 1.742070 0.000000 0.000000 
#    y 0.000000 1.775760 0.000000 
#    z 0.000000 0.000000 1.795710 
# 
# From -- ./inp_files/39861.got.cif
#   From: 2010.05.17/outbox.cif.g08.bks.cpg/sg64_20_cif.got.tgz:39861.got - 2010.06.03 16:29:19.
