data_PCOD9480991
_publ_section_title
;
Structure prediction by ZEFSAII (Michael W. Deem and Ramdas Pophale) SiO2 
 PCOD9480991
Probable space group: C M C A
;
_chemical_formula_sum "Si O2"
_cell_formula_units_Z 64
_cell_length_a 10.004022
_cell_length_b 23.440168
_cell_length_c 12.937355
_cell_angle_alpha 90.000000
_cell_angle_beta 90.000000
_cell_angle_gamma 90.000000
_cell_volume 3033.757433
_symmetry_space_group_name_H-M "C M C A"
_symmetry_group_IT_number 64
_symmetry_cell_setting 'orthorhombic'
loop_
_space_group_symop_operation_xyz
x,y,z
-x,1/2-y,1/2+z
x,-y,-z
-x,1/2+y,1/2-z
-x,-y,-z
x,1/2+y,1/2-z
-x,y,z
x,1/2-y,1/2+z
1/2+x,1/2+y,z
1/2-x,-y,1/2+z
1/2+x,1/2-y,-z
1/2-x,y,1/2-z
1/2-x,1/2-y,-z
1/2+x,y,1/2-z
1/2-x,1/2+y,z
1/2+x,-y,1/2+z
loop_
_atom_site_type_symbol
_atom_site_label
_atom_site_fract_x
_atom_site_fract_y
_atom_site_fract_z
Si Si1 0.500000 0.754800 0.871523
Si Si2 0.750000 0.002888 0.250000
Si Si3 0.000000 0.072689 0.701768
Si Si4 0.250000 0.699404 0.250000
Si Si5 0.500000 0.372372 0.515152
Si Si6 0.000000 0.374659 0.428109
Si Si7 0.287062 0.400398 0.905157
O O1 0.632547 0.764324 0.802284
O O2 0.500000 0.693664 0.924151
O O3 0.500000 0.805818 0.955086
O O4 0.685202 0.044624 0.335492
O O5 0.866343 0.965365 0.300428
O O6 0.000000 0.115586 0.605929
O O7 0.000000 0.103945 0.811592
O O8 0.311176 0.656107 0.164440
O O9 0.368816 0.399325 0.566313
O O10 0.873217 0.396898 0.492023
#
# Coordination Sequence:
#
# PCOD9480991 Si02
#       7
#     8   8   8   8   8   8  16
#     4  10  23  41  66  93 128 166 199 257 312 357
#     4  11  24  43  66  90 122 163 206 265 316 356
#     4  12  26  39  60  95 128 161 206 256 312 368
#     4   9  20  41  68  94 120 163 214 253 300 368
#     4  10  23  42  63  92 126 166 211 250 302 374
#     4  12  26  40  61  96 130 162 204 254 310 374
#     4  10  22  42  66  91 121 164 215 252 302 376
#
# _framework density 21.095952
#
# number of rings (size 3 to 8) (size 9 to 14) (size 15 to 20)
#    0.000    1.500    0.000    3.750    0.000   19.000 
#    0.000    0.000    0.000    0.000    0.000    0.000 
#    0.000    0.000    0.000    0.000    0.000    0.000 
#
# Total GULP energy -179117.160075 kJ/mol
# GULP energy per Si atom -5597.411252 kJ/mol
# Density = 2.104794 g / cm^3
# Si number density = 21.095952 Si / 1000 Ang^3
#
#
#
# Elastic Constant Matrix: (Units=GPa)
#
#
# Indices 1 2 3 4 5 6 
#
# 1 104.6399 40.9580 23.7289 0.0000 0.0000 0.0000
# 2 40.9580 77.1945 48.3204 0.0000 0.0000 0.0000
# 3 23.7289 48.3204 130.7534 0.0000 0.0000 0.0000
# 4 0.0000 0.0000 0.0000 18.7154 0.0000 0.0000
# 5 0.0000 0.0000 0.0000 0.0000 30.8334 0.0000
# 6 0.0000 0.0000 0.0000 0.0000 0.0000 -4.5643
#
#
#
# Elastic Compliance Matrix: (Units=1/GPa)
#
#
# Indices 1 2 3 4 5 6 
#
# 1 0.012067 -0.006546 0.000229 0.000000 0.000000 0.000000
# 2 -0.006546 0.020404 -0.006352 0.000000 0.000000 0.000000
# 3 0.000229 -0.006352 0.009954 0.000000 0.000000 0.000000
# 4 0.000000 0.000000 0.000000 0.053432 0.000000 0.000000
# 5 0.000000 0.000000 0.000000 0.000000 0.032432 0.000000
# 6 0.000000 0.000000 0.000000 0.000000 0.000000 -0.219091
#
#
# Mechanical properties :
#
#
# Convention : Reuss Voigt Hill
#
# Bulk Modulus (GPa) = 58.52619 59.84472 59.18545
# Shear Modulus (GPa) = -83.65503 22.30228 -30.67637
#
# Velocity S-wave (km/s) = -6.30402 3.25496 -3.81745
# Velocity P-wave (km/s) = 5.01841 6.52348 2.94715
#
# Compressibility (1/GPa) = 0.01708637
#
# Stress axis : x y z
#
# Youngs Moduli (GPa) = 82.87200 49.01075 100.46301
#
# Poissons Ratio (x) = 0.32082 -0.02303
# Poissons Ratio (y) = 0.54247 0.63817
# Poissons Ratio (z) = -0.01899 0.31133
#
# Static dielectric constant tensor:
#      x y z
#    x 1.764480 0.000000 0.000000 
#    y 0.000000 1.726820 0.000000 
#    z 0.000000 0.000000 1.734330 
# 
# From -- ./inp_files/12991.got.cif
#   From: 2010.05.17/outbox.cif.g08.bks.cpg/sg64_7_cif.got.tgz:12991.got - 2010.06.03 16:29:19.
