data_PCOD9480370
_publ_section_title
;
Structure prediction by ZEFSAII (Michael W. Deem and Ramdas Pophale) SiO2 
 PCOD9480370
Probable space group: C M C A
;
_chemical_formula_sum "Si O2"
_cell_formula_units_Z 64
_cell_length_a 18.897255
_cell_length_b 21.778399
_cell_length_c 7.201441
_cell_angle_alpha 90.000000
_cell_angle_beta 90.000000
_cell_angle_gamma 90.000000
_cell_volume 2963.767154
_symmetry_space_group_name_H-M "C M C A"
_symmetry_group_IT_number 64
_symmetry_cell_setting 'orthorhombic'
loop_
_space_group_symop_operation_xyz
x,y,z
-x,1/2-y,1/2+z
x,-y,-z
-x,1/2+y,1/2-z
-x,-y,-z
x,1/2+y,1/2-z
-x,y,z
x,1/2-y,1/2+z
1/2+x,1/2+y,z
1/2-x,-y,1/2+z
1/2+x,1/2-y,-z
1/2-x,y,1/2-z
1/2-x,1/2-y,-z
1/2+x,y,1/2-z
1/2-x,1/2+y,z
1/2+x,-y,1/2+z
loop_
_atom_site_type_symbol
_atom_site_label
_atom_site_fract_x
_atom_site_fract_y
_atom_site_fract_z
Si Si1 0.500000 0.728426 0.057607
Si Si2 0.738700 0.836289 0.044298
Si Si3 0.623024 0.572279 0.514286
Si Si4 0.000000 0.855704 0.307697
Si Si5 0.865533 0.327711 0.740016
O O1 0.500000 0.801893 0.036655
O O2 0.571133 0.713235 0.170158
O O3 0.500000 0.682661 0.882309
O O4 0.750000 0.811907 0.250000
O O5 0.701737 0.903292 0.061123
O O6 0.690997 0.662068 0.076931
O O7 0.678767 0.802458 0.918844
O O8 0.616790 0.500000 0.500000
O O9 0.568686 0.602467 0.660106
O O10 0.607574 0.606719 0.318480
#
# Coordination Sequence:
#
# PCOD9480370 Si02
#       5
#     8  16  16   8  16
#     4  12  24  45  68  95 135 182 234 284 347 399
#     4   9  19  38  67  99 136 172 224 273 345 406
#     4  10  21  40  66  99 139 174 226 281 343 407
#     4  12  25  41  69  95 132 187 232 286 344 407
#     4   9  21  40  64  99 135 173 224 281 334 411
#
# _framework density 21.594138999999998
#
# number of rings (size 3 to 8) (size 9 to 14) (size 15 to 20)
#    1.500    0.500    0.000    4.125    0.000    2.000 
#    0.000    6.250    5.500    0.000    0.000    0.000 
#    0.000    0.000    0.000    0.000    0.000    0.000 
#
# Total GULP energy -178609.962761 kJ/mol
# GULP energy per Si atom -5581.561336 kJ/mol
# Density = 2.154499 g / cm^3
# Si number density = 21.594139 Si / 1000 Ang^3
#
#
#
# Elastic Constant Matrix: (Units=GPa)
#
#
# Indices 1 2 3 4 5 6 
#
# 1 120.3329 44.4122 45.4148 0.0000 0.0000 0.0000
# 2 44.4122 159.6664 31.2205 0.0000 0.0000 0.0000
# 3 45.4148 31.2205 135.7865 0.0000 0.0000 0.0000
# 4 0.0000 0.0000 0.0000 23.7527 0.0000 0.0000
# 5 0.0000 0.0000 0.0000 0.0000 25.2902 0.0000
# 6 0.0000 0.0000 0.0000 0.0000 0.0000 17.3277
#
#
#
# Elastic Compliance Matrix: (Units=1/GPa)
#
#
# Indices 1 2 3 4 5 6 
#
# 1 0.010248 -0.002283 -0.002903 0.000000 0.000000 0.000000
# 2 -0.002283 0.007066 -0.000861 0.000000 0.000000 0.000000
# 3 -0.002903 -0.000861 0.008533 0.000000 0.000000 0.000000
# 4 0.000000 0.000000 0.000000 0.042100 0.000000 0.000000
# 5 0.000000 0.000000 0.000000 0.000000 0.039541 0.000000
# 6 0.000000 0.000000 0.000000 0.000000 0.000000 0.057711
#
#
# Mechanical properties :
#
#
# Convention : Reuss Voigt Hill
#
# Bulk Modulus (GPa) = 72.70436 73.09788 72.90112
# Shear Modulus (GPa) = 27.49073 32.92334 30.20703
#
# Velocity S-wave (km/s) = 3.57187 3.90890 3.74418
# Velocity P-wave (km/s) = 7.12409 7.36865 7.24740
#
# Compressibility (1/GPa) = 0.01375433
#
# Stress axis : x y z
#
# Youngs Moduli (GPa) = 97.57590 141.51286 117.18730
#
# Poissons Ratio (x) = 0.32308 0.34016
# Poissons Ratio (y) = 0.22277 0.10092
# Poissons Ratio (z) = 0.28324 0.12187
#
# Static dielectric constant tensor:
#      x y z
#    x 1.802140 0.000000 0.000000 
#    y 0.000000 1.756280 0.000000 
#    z 0.000000 0.000000 1.856750 
# 
# From -- ./inp_files/7975.got.cif
#   From: 2010.05.17/outbox.cif.g08.bks.cpg/sg64_4_cif.got.tgz:7975.got - 2010.06.03 16:29:19.
