data_PCOD9480519
_publ_section_title
;
Structure prediction by ZEFSAII (Michael W. Deem and Ramdas Pophale) SiO2 
 PCOD9480519
Probable space group: C M C A
;
_chemical_formula_sum "Si O2"
_cell_formula_units_Z 48
_cell_length_a 26.930497
_cell_length_b 13.944252
_cell_length_c 5.498467
_cell_angle_alpha 90.000000
_cell_angle_beta 90.000000
_cell_angle_gamma 90.000000
_cell_volume 2064.815321
_symmetry_space_group_name_H-M "C M C A"
_symmetry_group_IT_number 64
_symmetry_cell_setting 'orthorhombic'
loop_
_space_group_symop_operation_xyz
x,y,z
-x,1/2-y,1/2+z
x,-y,-z
-x,1/2+y,1/2-z
-x,-y,-z
x,1/2+y,1/2-z
-x,y,z
x,1/2-y,1/2+z
1/2+x,1/2+y,z
1/2-x,-y,1/2+z
1/2+x,1/2-y,-z
1/2-x,y,1/2-z
1/2-x,1/2-y,-z
1/2+x,y,1/2-z
1/2-x,1/2+y,z
1/2+x,-y,1/2+z
loop_
_atom_site_type_symbol
_atom_site_label
_atom_site_fract_x
_atom_site_fract_y
_atom_site_fract_z
Si Si1 0.000000 0.054501 0.249332
Si Si2 0.217795 0.500000 0.500000
Si Si3 0.814724 0.787655 0.102557
Si Si4 0.572457 0.286449 0.643366
O O1 0.948739 0.114951 0.255888
O O2 0.000000 0.000000 0.500000
O O3 0.000000 0.000000 0.000000
O O4 0.250000 0.488688 0.750000
O O5 0.187294 0.599292 0.538084
O O6 0.793441 0.770559 0.372479
O O7 0.869713 0.740061 0.126652
O O8 0.554080 0.281001 0.364956
#
# Coordination Sequence:
#
# PCOD9480519 Si02
#       4
#     8   8  16  16
#     4  12  24  40  66 107 139 185 247 294 334 409
#     4  12  26  44  74 109 136 181 242 296 366 444
#     4  10  23  45  68 102 143 186 227 293 359 428
#     4  10  21  43  66  93 142 186 226 284 350 409
#
# _framework density 23.246631000000001
#
# number of rings (size 3 to 8) (size 9 to 14) (size 15 to 20)
#    0.000    1.333    0.000    5.000    0.000    4.000 
#   36.000    0.000    0.000    0.000    0.000    0.000 
#    0.000    0.000    0.000    0.000    0.000    0.000 
#
# Total GULP energy -133663.063265 kJ/mol
# GULP energy per Si atom -5569.294303 kJ/mol
# Density = 2.319372 g / cm^3
# Si number density = 23.246631 Si / 1000 Ang^3
#
#
#
# Elastic Constant Matrix: (Units=GPa)
#
#
# Indices 1 2 3 4 5 6 
#
# 1 127.9838 47.0720 59.8076 0.0000 0.0000 0.0000
# 2 47.0720 158.3302 63.2063 0.0000 0.0000 0.0000
# 3 59.8076 63.2063 233.4298 0.0000 0.0000 0.0000
# 4 0.0000 0.0000 0.0000 62.6281 0.0000 0.0000
# 5 0.0000 0.0000 0.0000 0.0000 1519.4349 0.0000
# 6 0.0000 0.0000 0.0000 0.0000 0.0000 61.6600
#
#
#
# Elastic Compliance Matrix: (Units=1/GPa)
#
#
# Indices 1 2 3 4 5 6 
#
# 1 0.009442 -0.002065 -0.001860 0.000000 0.000000 0.000000
# 2 -0.002065 0.007533 -0.001511 0.000000 0.000000 0.000000
# 3 -0.001860 -0.001511 0.005170 0.000000 0.000000 0.000000
# 4 0.000000 0.000000 0.000000 0.015967 0.000000 0.000000
# 5 0.000000 0.000000 0.000000 0.000000 0.000658 0.000000
# 6 0.000000 0.000000 0.000000 0.000000 0.000000 0.016218
#
#
# Mechanical properties :
#
#
# Convention : Reuss Voigt Hill
#
# Bulk Modulus (GPa) = 88.70264 95.54619 92.12441
# Shear Modulus (GPa) = 71.82196 352.05513 211.93855
#
# Velocity S-wave (km/s) = 5.56441 12.31959 9.55863
# Velocity P-wave (km/s) = 8.91760 15.60620 12.70978
#
# Compressibility (1/GPa) = 0.01127362
#
# Stress axis : x y z
#
# Youngs Moduli (GPa) = 105.90875 132.75278 193.43890
#
# Poissons Ratio (x) = 0.27408 0.35983
# Poissons Ratio (y) = 0.21866 0.29223
# Poissons Ratio (z) = 0.19701 0.20055
#
# Static dielectric constant tensor:
#      x y z
#    x 2.157060 0.000000 0.000000 
#    y 0.000000 1.884000 0.000000 
#    z 0.000000 0.000000 1.940040 
# 
# From -- ./inp_files/3062.got.cif
#   From: 2010.05.17/outbox.cif.g08.bks.cpg/sg64_2_cif.got.tgz:3062.got - 2010.06.03 16:29:19.
