data_PCOD9480371
_publ_section_title
;
Structure prediction by ZEFSAII (Michael W. Deem and Ramdas Pophale) SiO2 
 PCOD9480371
Probable space group: C M C A
;
_chemical_formula_sum "Si O2"
_cell_formula_units_Z 80
_cell_length_a 19.879970
_cell_length_b 16.871503
_cell_length_c 10.124884
_cell_angle_alpha 90.000000
_cell_angle_beta 90.000000
_cell_angle_gamma 90.000000
_cell_volume 3395.936450
_symmetry_space_group_name_H-M "C M C A"
_symmetry_group_IT_number 64
_symmetry_cell_setting 'orthorhombic'
loop_
_space_group_symop_operation_xyz
x,y,z
-x,1/2-y,1/2+z
x,-y,-z
-x,1/2+y,1/2-z
-x,-y,-z
x,1/2+y,1/2-z
-x,y,z
x,1/2-y,1/2+z
1/2+x,1/2+y,z
1/2-x,-y,1/2+z
1/2+x,1/2-y,-z
1/2-x,y,1/2-z
1/2-x,1/2-y,-z
1/2+x,y,1/2-z
1/2-x,1/2+y,z
1/2+x,-y,1/2+z
loop_
_atom_site_type_symbol
_atom_site_label
_atom_site_fract_x
_atom_site_fract_y
_atom_site_fract_z
Si Si1 0.927907 0.658693 0.487799
Si Si2 0.074708 0.658095 0.954843
Si Si3 0.079078 0.935873 0.725446
Si Si4 0.829328 0.444923 0.371048
Si Si5 0.275071 0.310374 0.384951
O O1 0.932195 0.751715 0.503757
O O2 0.909684 0.632086 0.338184
O O3 0.879602 0.625643 0.596420
O O4 0.000000 0.620432 0.511237
O O5 0.084931 0.400048 0.920736
O O6 0.146042 0.668493 0.882199
O O7 0.000000 0.639238 0.894260
O O8 0.135729 0.001909 0.757276
O O9 0.000000 0.961420 0.739372
O O10 0.831660 0.500000 0.500000
O O11 0.759650 0.397356 0.381984
O O12 0.250000 0.270488 0.250000
O O13 0.250000 0.250000 0.500000
#
# Coordination Sequence:
#
# PCOD9480371 Si02
#       5
#    16  16  16  16  16
#     4   9  17  33  61 101 145 192 244 296 356 436
#     4  10  22  41  69 107 147 191 244 303 372 448
#     4   9  19  37  68 107 147 193 245 302 368 445
#     4  10  21  40  67 101 144 193 247 305 372 448
#     4  12  28  47  71 104 148 194 251 309 376 452
#
# _framework density 23.557566999999999
#
# number of rings (size 3 to 8) (size 9 to 14) (size 15 to 20)
#    0.000    2.000    2.000    0.600    2.800    4.000 
#    0.000    2.000    0.000    3.000    0.000    0.000 
#    0.000    1.600    0.000    0.000    0.000    0.000 
#
# Total GULP energy -222873.901346 kJ/mol
# GULP energy per Si atom -5571.847534 kJ/mol
# Density = 2.350395 g / cm^3
# Si number density = 23.557567 Si / 1000 Ang^3
#
#
#
# Elastic Constant Matrix: (Units=GPa)
#
#
# Indices 1 2 3 4 5 6 
#
# 1 193.6237 47.1828 63.7628 0.0000 0.0000 0.0000
# 2 47.1828 109.0066 35.0087 0.0000 0.0000 0.0000
# 3 63.7628 35.0087 109.5926 0.0000 0.0000 0.0000
# 4 0.0000 0.0000 0.0000 27.4710 0.0000 0.0000
# 5 0.0000 0.0000 0.0000 0.0000 24.5037 0.0000
# 6 0.0000 0.0000 0.0000 0.0000 0.0000 12.4509
#
#
#
# Elastic Compliance Matrix: (Units=1/GPa)
#
#
# Indices 1 2 3 4 5 6 
#
# 1 0.006704 -0.001837 -0.003313 0.000000 0.000000 0.000000
# 2 -0.001837 0.010726 -0.002357 0.000000 0.000000 0.000000
# 3 -0.003313 -0.002357 0.011805 0.000000 0.000000 0.000000
# 4 0.000000 0.000000 0.000000 0.036402 0.000000 0.000000
# 5 0.000000 0.000000 0.000000 0.000000 0.040810 0.000000
# 6 0.000000 0.000000 0.000000 0.000000 0.000000 0.080316
#
#
# Mechanical properties :
#
#
# Convention : Reuss Voigt Hill
#
# Bulk Modulus (GPa) = 70.32839 78.23684 74.28261
# Shear Modulus (GPa) = 24.21087 30.63636 27.42361
#
# Velocity S-wave (km/s) = 3.20930 3.61014 3.41561
# Velocity P-wave (km/s) = 6.60693 7.11762 6.86702
#
# Compressibility (1/GPa) = 0.01421901
#
# Stress axis : x y z
#
# Youngs Moduli (GPa) = 149.17545 93.22985 84.70674
#
# Poissons Ratio (x) = 0.17131 0.28065
# Poissons Ratio (y) = 0.27411 0.19968
# Poissons Ratio (z) = 0.49425 0.21977
#
# Static dielectric constant tensor:
#      x y z
#    x 2.985190 0.000000 0.000000 
#    y 0.000000 1.861720 0.000000 
#    z 0.000000 0.000000 1.960270 
# 
# From -- ./inp_files/18103.got.cif
#   From: 2010.05.17/outbox.cif.g08.bks.cpg/sg64_10_cif.got.tgz:18103.got - 2010.06.03 16:29:19.
