data_PCOD9480199
_publ_section_title
;
Structure prediction by ZEFSAII (Michael W. Deem and Ramdas Pophale) SiO2 
 PCOD9480199
Probable space group: C M C A
;
_chemical_formula_sum "Si O2"
_cell_formula_units_Z 88
_cell_length_a 18.783173
_cell_length_b 22.528864
_cell_length_c 9.706785
_cell_angle_alpha 90.000000
_cell_angle_beta 90.000000
_cell_angle_gamma 90.000000
_cell_volume 4107.557600
_symmetry_space_group_name_H-M "C M C A"
_symmetry_group_IT_number 64
_symmetry_cell_setting 'orthorhombic'
loop_
_space_group_symop_operation_xyz
x,y,z
-x,1/2-y,1/2+z
x,-y,-z
-x,1/2+y,1/2-z
-x,-y,-z
x,1/2+y,1/2-z
-x,y,z
x,1/2-y,1/2+z
1/2+x,1/2+y,z
1/2-x,-y,1/2+z
1/2+x,1/2-y,-z
1/2-x,y,1/2-z
1/2-x,1/2-y,-z
1/2+x,y,1/2-z
1/2-x,1/2+y,z
1/2+x,-y,1/2+z
loop_
_atom_site_type_symbol
_atom_site_label
_atom_site_fract_x
_atom_site_fract_y
_atom_site_fract_z
Si Si1 0.914453 0.269297 0.564968
Si Si2 0.419656 0.607747 0.204638
Si Si3 0.104685 0.000000 0.000000
Si Si4 0.583155 0.571517 0.504444
Si Si5 0.827135 0.778070 0.197224
Si Si6 0.673287 0.914212 0.278327
O O1 0.893264 0.335871 0.617457
O O2 0.888220 0.228136 0.688165
O O3 0.864522 0.251416 0.437236
O O4 0.000000 0.266722 0.537262
O O5 0.500000 0.626076 0.238312
O O6 0.387692 0.594443 0.356058
O O7 0.424647 0.548592 0.111097
O O8 0.140039 0.954638 0.105401
O O9 0.584014 0.500000 0.500000
O O10 0.500000 0.589405 0.522382
O O11 0.628107 0.588727 0.638094
O O12 0.750000 0.754414 0.250000
O O13 0.815997 0.847523 0.168846
O O14 0.750000 0.941286 0.250000
#
# Coordination Sequence:
#
# PCOD9480199 Si02
#       6
#    16  16   8  16  16  16
#     4  11  24  44  69 103 132 175 235 289 337 399
#     4  10  22  39  63  96 131 168 218 276 340 398
#     4  12  21  40  64  94 135 176 220 276 332 398
#     4  10  21  39  62  91 127 170 213 264 329 401
#     4  11  25  47  67  96 139 181 229 281 347 410
#     4  11  26  42  65  96 135 178 225 272 338 403
#
# _framework density 21.423924
#
# number of rings (size 3 to 8) (size 9 to 14) (size 15 to 20)
#    0.000    1.273    3.636    1.364    3.818    2.182 
#    0.000    0.909    0.000    0.000    0.000    0.000 
#    0.000    0.000    0.000    0.000    0.000    0.000 
#
# Total GULP energy -245088.911045 kJ/mol
# GULP energy per Si atom -5570.202524 kJ/mol
# Density = 2.137516 g / cm^3
# Si number density = 21.423924 Si / 1000 Ang^3
#
#
#
# Elastic Constant Matrix: (Units=GPa)
#
#
# Indices 1 2 3 4 5 6 
#
# 1 67.9385 6.1149 43.5079 0.0000 0.0000 0.0000
# 2 6.1149 46.4350 -4.5538 0.0000 0.0000 0.0000
# 3 43.5079 -4.5538 145.4316 0.0000 0.0000 0.0000
# 4 0.0000 0.0000 0.0000 31.6254 0.0000 0.0000
# 5 0.0000 0.0000 0.0000 0.0000 24.1201 0.0000
# 6 0.0000 0.0000 0.0000 0.0000 0.0000 67.0106
#
#
#
# Elastic Compliance Matrix: (Units=1/GPa)
#
#
# Indices 1 2 3 4 5 6 
#
# 1 0.018617 -0.003007 -0.005664 0.000000 0.000000 0.000000
# 2 -0.003007 0.022088 0.001591 0.000000 0.000000 0.000000
# 3 -0.005664 0.001591 0.008620 0.000000 0.000000 0.000000
# 4 0.000000 0.000000 0.000000 0.031620 0.000000 0.000000
# 5 0.000000 0.000000 0.000000 0.000000 0.041459 0.000000
# 6 0.000000 0.000000 0.000000 0.000000 0.000000 0.014923
#
#
# Mechanical properties :
#
#
# Convention : Reuss Voigt Hill
#
# Bulk Modulus (GPa) = 28.43681 38.88258 33.65970
# Shear Modulus (GPa) = 30.63578 38.86697 34.75137
#
# Velocity S-wave (km/s) = 3.78561 4.26395 4.03188
# Velocity P-wave (km/s) = 5.69298 6.51385 6.11720
#
# Compressibility (1/GPa) = 0.03516568
#
# Stress axis : x y z
#
# Youngs Moduli (GPa) = 53.71477 45.27441 116.00570
#
# Poissons Ratio (x) = 0.13614 0.65702
# Poissons Ratio (y) = 0.16152 -0.18459
# Poissons Ratio (z) = 0.30422 -0.07204
#
# Static dielectric constant tensor:
#      x y z
#    x 1.747480 0.000000 0.000000 
#    y 0.000000 1.813290 0.000000 
#    z 0.000000 0.000000 1.713120 
# 
# From -- ./inp_files/8232.got.cif
#   From: 2010.05.17/outbox.cif.g08.bks.cpg/sg64_5_cif.got.tgz:8232.got - 2010.06.03 16:29:19.
