data_PCOD9480078
_publ_section_title
;
Structure prediction by ZEFSAII (Michael W. Deem and Ramdas Pophale) SiO2 
 PCOD9480078
Probable space group: C M C A
;
_chemical_formula_sum "Si O2"
_cell_formula_units_Z 64
_cell_length_a 12.983765
_cell_length_b 12.906212
_cell_length_c 16.990087
_cell_angle_alpha 90.000000
_cell_angle_beta 90.000000
_cell_angle_gamma 90.000000
_cell_volume 2847.049668
_symmetry_space_group_name_H-M "C M C A"
_symmetry_group_IT_number 64
_symmetry_cell_setting 'orthorhombic'
loop_
_space_group_symop_operation_xyz
x,y,z
-x,1/2-y,1/2+z
x,-y,-z
-x,1/2+y,1/2-z
-x,-y,-z
x,1/2+y,1/2-z
-x,y,z
x,1/2-y,1/2+z
1/2+x,1/2+y,z
1/2-x,-y,1/2+z
1/2+x,1/2-y,-z
1/2-x,y,1/2-z
1/2-x,1/2-y,-z
1/2+x,y,1/2-z
1/2-x,1/2+y,z
1/2+x,-y,1/2+z
loop_
_atom_site_type_symbol
_atom_site_label
_atom_site_fract_x
_atom_site_fract_y
_atom_site_fract_z
Si Si1 0.386534 0.422794 0.815965
Si Si2 0.665859 0.715897 0.611663
Si Si3 0.334695 0.480861 0.637467
Si Si4 0.613278 0.269343 0.566730
O O1 0.500000 0.455565 0.842416
O O2 0.376098 0.298856 0.826816
O O3 0.370836 0.450166 0.724847
O O4 0.289908 0.470625 0.862566
O O5 0.633507 0.597998 0.622146
O O6 0.630488 0.753305 0.525303
O O7 0.790298 0.722129 0.613090
O O8 0.376791 0.393428 0.579179
O O9 0.500000 0.235710 0.592182
#
# Coordination Sequence:
#
# PCOD9480078 Si02
#       4
#    16  16  16  16
#     4  10  22  38  56  83 117 152 192 237 288 343
#     4  10  22  40  59  85 121 152 189 244 291 340
#     4  10  22  38  58  86 116 151 198 242 284 345
#     4  10  21  38  62  89 115 150 195 240 293 349
#
# _framework density 22.479412
#
# number of rings (size 3 to 8) (size 9 to 14) (size 15 to 20)
#    0.000    2.000    0.000    2.250    0.000   14.000 
#    0.000    0.000    0.000    9.000    0.000    0.000 
#    0.000    0.000    0.000    0.000    0.000    0.000 
#
# Total GULP energy -178934.685770 kJ/mol
# GULP energy per Si atom -5591.708930 kJ/mol
# Density = 2.242825 g / cm^3
# Si number density = 22.479412 Si / 1000 Ang^3
#
#
#
# Elastic Constant Matrix: (Units=GPa)
#
#
# Indices 1 2 3 4 5 6 
#
# 1 155.4517 -22.4221 -1.7713 0.0000 0.0000 0.0000
# 2 -22.4221 81.6648 -0.6391 0.0000 0.0000 0.0000
# 3 -1.7713 -0.6391 31.9071 0.0000 0.0000 0.0000
# 4 0.0000 0.0000 0.0000 15.2503 0.0000 0.0000
# 5 0.0000 0.0000 0.0000 0.0000 4.0760 0.0000
# 6 0.0000 0.0000 0.0000 0.0000 0.0000 -10.8771
#
#
#
# Elastic Compliance Matrix: (Units=1/GPa)
#
#
# Indices 1 2 3 4 5 6 
#
# 1 0.006703 0.001844 0.000409 0.000000 0.000000 0.000000
# 2 0.001844 0.012754 0.000358 0.000000 0.000000 0.000000
# 3 0.000409 0.000358 0.031371 0.000000 0.000000 0.000000
# 4 0.000000 0.000000 0.000000 0.065572 0.000000 0.000000
# 5 0.000000 0.000000 0.000000 0.000000 0.245340 0.000000
# 6 0.000000 0.000000 0.000000 0.000000 0.000000 -0.091936
#
#
# Mechanical properties :
#
#
# Convention : Reuss Voigt Hill
#
# Bulk Modulus (GPa) = 17.84130 24.37318 21.10724
# Shear Modulus (GPa) = 17.65118 21.28025 19.46572
#
# Velocity S-wave (km/s) = 2.80521 3.08011 2.94587
# Velocity P-wave (km/s) = 4.29491 4.84927 4.58048
#
# Compressibility (1/GPa) = 0.05604972
#
# Stress axis : x y z
#
# Youngs Moduli (GPa) = 149.17666 78.40563 31.87675
#
# Poissons Ratio (x) = -0.14456 -0.01304
# Poissons Ratio (y) = -0.27504 -0.01141
# Poissons Ratio (z) = -0.06102 -0.02806
#
# Static dielectric constant tensor:
#      x y z
#    x 1.882930 0.000000 0.000000 
#    y 0.000000 1.804650 0.000000 
#    z 0.000000 0.000000 1.790430 
# 
# From -- ./inp_files/31781.got.cif
#   From: 2010.05.17/outbox.cif.g08.bks.cpg/sg64_16_cif.got.tgz:31781.got - 2010.06.03 16:29:19.
