data_PCOD9480190
_publ_section_title
;
Structure prediction by ZEFSAII (Michael W. Deem and Ramdas Pophale) SiO2 
 PCOD9480190
Probable space group: C M C A
;
_chemical_formula_sum "Si O2"
_cell_formula_units_Z 80
_cell_length_a 15.663755
_cell_length_b 27.034465
_cell_length_c 8.198389
_cell_angle_alpha 90.000000
_cell_angle_beta 90.000000
_cell_angle_gamma 90.000000
_cell_volume 3471.699942
_symmetry_space_group_name_H-M "C M C A"
_symmetry_group_IT_number 64
_symmetry_cell_setting 'orthorhombic'
loop_
_space_group_symop_operation_xyz
x,y,z
-x,1/2-y,1/2+z
x,-y,-z
-x,1/2+y,1/2-z
-x,-y,-z
x,1/2+y,1/2-z
-x,y,z
x,1/2-y,1/2+z
1/2+x,1/2+y,z
1/2-x,-y,1/2+z
1/2+x,1/2-y,-z
1/2-x,y,1/2-z
1/2-x,1/2-y,-z
1/2+x,y,1/2-z
1/2-x,1/2+y,z
1/2+x,-y,1/2+z
loop_
_atom_site_type_symbol
_atom_site_label
_atom_site_fract_x
_atom_site_fract_y
_atom_site_fract_z
Si Si1 0.906278 0.089749 0.532445
Si Si2 0.268405 0.448502 0.942561
Si Si3 0.340912 0.681976 0.336659
Si Si4 0.902519 0.765000 0.974631
Si Si5 0.160110 0.138310 0.843252
O O1 0.824751 0.054348 0.527507
O O2 0.883834 0.131907 0.398431
O O3 0.902151 0.115230 0.709123
O O4 0.000000 0.068865 0.501535
O O5 0.250000 0.447314 0.750000
O O6 0.309579 0.500000 0.000000
O O7 0.320120 0.401415 0.012891
O O8 0.250000 0.673823 0.250000
O O9 0.393744 0.712915 0.205290
O O10 0.340014 0.719031 0.490850
O O11 0.000000 0.748913 0.999601
O O12 0.876507 0.811019 0.087918
O O13 0.250000 0.145713 0.750000
#
# Coordination Sequence:
#
# PCOD9480190 Si02
#       5
#    16  16  16  16  16
#     4  11  22  39  63  93 128 163 205 259 314 365
#     4  11  23  43  68  92 121 161 207 255 310 375
#     4  12  24  40  60  87 125 169 214 254 304 369
#     4  12  23  37  58  87 123 162 207 258 311 363
#     4  10  21  39  62  89 121 162 206 250 305 371
#
# _framework density 23.043465999999999
#
# number of rings (size 3 to 8) (size 9 to 14) (size 15 to 20)
#    0.000    0.800    0.000   10.800    0.000    0.400 
#    0.000    1.000    0.000    4.200    0.000    0.000 
#    0.000    0.000    0.000    0.000    0.000    0.000 
#
# Total GULP energy -223942.951382 kJ/mol
# GULP energy per Si atom -5598.573785 kJ/mol
# Density = 2.299102 g / cm^3
# Si number density = 23.043466 Si / 1000 Ang^3
#
#
#
# Elastic Constant Matrix: (Units=GPa)
#
#
# Indices 1 2 3 4 5 6 
#
# 1 92.5477 -7.4466 -2.4021 0.0000 0.0000 0.0000
# 2 -7.4466 81.1606 6.4997 0.0000 0.0000 0.0000
# 3 -2.4021 6.4997 102.4409 0.0000 0.0000 0.0000
# 4 0.0000 0.0000 0.0000 32.8635 0.0000 0.0000
# 5 0.0000 0.0000 0.0000 0.0000 25.6209 0.0000
# 6 0.0000 0.0000 0.0000 0.0000 0.0000 -17.2149
#
#
#
# Elastic Compliance Matrix: (Units=1/GPa)
#
#
# Indices 1 2 3 4 5 6 
#
# 1 0.010889 0.000984 0.000193 0.000000 0.000000 0.000000
# 2 0.000984 0.012473 -0.000768 0.000000 0.000000 0.000000
# 3 0.000193 -0.000768 0.009815 0.000000 0.000000 0.000000
# 4 0.000000 0.000000 0.000000 0.030429 0.000000 0.000000
# 5 0.000000 0.000000 0.000000 0.000000 0.039031 0.000000
# 6 0.000000 0.000000 0.000000 0.000000 0.000000 -0.058089
#
#
# Mechanical properties :
#
#
# Convention : Reuss Voigt Hill
#
# Bulk Modulus (GPa) = 29.41699 29.93903 29.67801
# Shear Modulus (GPa) = 90.80566 26.88711 58.84638
#
# Velocity S-wave (km/s) = 6.28425 3.41955 5.05891
# Velocity P-wave (km/s) = 8.09008 5.34899 6.85788
#
# Compressibility (1/GPa) = 0.03399396
#
# Stress axis : x y z
#
# Youngs Moduli (GPa) = 91.83246 80.17293 101.88492
#
# Poissons Ratio (x) = -0.07886 -0.01966
# Poissons Ratio (y) = -0.09033 0.07828
# Poissons Ratio (z) = -0.01772 0.06160
#
# Static dielectric constant tensor:
#      x y z
#    x 1.844270 0.000000 0.000000 
#    y 0.000000 1.848280 0.000000 
#    z 0.000000 0.000000 1.964110 
# 
# From -- ./inp_files/7030.got.cif
#   From: 2010.05.17/outbox.cif.g08.bks.cpg/sg64_4_cif.got.tgz:7030.got - 2010.06.03 16:29:19.
