data_PCOD9480645
_publ_section_title
;
Structure prediction by ZEFSAII (Michael W. Deem and Ramdas Pophale) SiO2 
 PCOD9480645
Probable space group: C M C A
;
_chemical_formula_sum "Si O2"
_cell_formula_units_Z 64
_cell_length_a 14.065243
_cell_length_b 9.922188
_cell_length_c 26.776908
_cell_angle_alpha 90.000000
_cell_angle_beta 90.000000
_cell_angle_gamma 90.000000
_cell_volume 3736.931333
_symmetry_space_group_name_H-M "C M C A"
_symmetry_group_IT_number 64
_symmetry_cell_setting 'orthorhombic'
loop_
_space_group_symop_operation_xyz
x,y,z
-x,1/2-y,1/2+z
x,-y,-z
-x,1/2+y,1/2-z
-x,-y,-z
x,1/2+y,1/2-z
-x,y,z
x,1/2-y,1/2+z
1/2+x,1/2+y,z
1/2-x,-y,1/2+z
1/2+x,1/2-y,-z
1/2-x,y,1/2-z
1/2-x,1/2-y,-z
1/2+x,y,1/2-z
1/2-x,1/2+y,z
1/2+x,-y,1/2+z
loop_
_atom_site_type_symbol
_atom_site_label
_atom_site_fract_x
_atom_site_fract_y
_atom_site_fract_z
Si Si1 0.342134 0.524635 0.120197
Si Si2 0.845759 0.703435 0.114091
Si Si3 0.500000 0.360154 0.529364
Si Si4 0.500000 0.487529 0.795499
Si Si5 0.000000 0.200199 0.300219
Si Si6 0.000000 0.389763 0.542654
O O1 0.246681 0.611335 0.119854
O O2 0.325427 0.364470 0.111405
O O3 0.406785 0.537431 0.170103
O O4 0.408677 0.583638 0.076734
O O5 0.910323 0.681975 0.163169
O O6 0.909237 0.662065 0.065944
O O7 0.500000 0.500000 0.500000
O O8 0.500000 0.250238 0.485727
O O9 0.500000 0.645314 0.782368
O O10 0.500000 0.397849 0.746488
O O11 0.000000 0.500000 0.500000
#
# Coordination Sequence:
#
# PCOD9480645 Si02
#       6
#    16  16   8   8   8   8
#     4  10  22  38  60  84 115 148 190 232 282 333
#     4  10  22  40  57  85 117 148 187 236 279 334
#     4  11  24  39  57  84 116 150 194 231 280 333
#     4   9  20  40  59  83 112 151 183 230 286 336
#     4   9  20  40  61  80 116 147 185 232 283 336
#     4  11  20  41  59  78 116 156 184 230 283 329
#
# _framework density 17.126352000000001
#
# number of rings (size 3 to 8) (size 9 to 14) (size 15 to 20)
#    0.000    2.000    2.500    1.500    3.500    5.000 
#    4.500    5.000    0.000    0.000    0.000    0.000 
#    0.000    0.000    0.000    0.000    0.000    0.000 
#
# Total GULP energy -178536.952497 kJ/mol
# GULP energy per Si atom -5579.279766 kJ/mol
# Density = 1.708737 g / cm^3
# Si number density = 17.126352 Si / 1000 Ang^3
#
#
#
# Elastic Constant Matrix: (Units=GPa)
#
#
# Indices 1 2 3 4 5 6 
#
# 1 164.4523 110.7252 69.2842 0.0000 0.0000 0.0000
# 2 110.7252 189.9701 116.5344 0.0000 0.0000 0.0000
# 3 69.2842 116.5344 140.6903 0.0000 0.0000 0.0000
# 4 0.0000 0.0000 0.0000 44.6238 0.0000 0.0000
# 5 0.0000 0.0000 0.0000 0.0000 1.1033 0.0000
# 6 0.0000 0.0000 0.0000 0.0000 0.0000 34.8319
#
#
#
# Elastic Compliance Matrix: (Units=1/GPa)
#
#
# Indices 1 2 3 4 5 6 
#
# 1 0.010011 -0.005714 -0.000197 0.000000 0.000000 0.000000
# 2 -0.005714 0.013963 -0.008752 0.000000 0.000000 0.000000
# 3 -0.000197 -0.008752 0.014454 0.000000 0.000000 0.000000
# 4 0.000000 0.000000 0.000000 0.022410 0.000000 0.000000
# 5 0.000000 0.000000 0.000000 0.000000 0.906370 0.000000
# 6 0.000000 0.000000 0.000000 0.000000 0.000000 0.028709
#
#
# Mechanical properties :
#
#
# Convention : Reuss Voigt Hill
#
# Bulk Modulus (GPa) = 109.86139 120.91115 115.38627
# Shear Modulus (GPa) = 4.86250 29.34973 17.10612
#
# Velocity S-wave (km/s) = 1.68682 4.14420 3.16384
# Velocity P-wave (km/s) = 8.25110 9.67739 8.99257
#
# Compressibility (1/GPa) = 0.00910238
#
# Stress axis : x y z
#
# Youngs Moduli (GPa) = 99.88870 71.61685 69.18538
#
# Poissons Ratio (x) = 0.40924 0.01363
# Poissons Ratio (y) = 0.57079 0.60549
# Poissons Ratio (z) = 0.01967 0.62677
#
# Static dielectric constant tensor:
#      x y z
#    x 1.625240 0.000000 0.000000 
#    y 0.000000 1.542520 0.000000 
#    z 0.000000 0.000000 1.551740 
# 
# From -- ./inp_files/44819.got.cif
#   From: 2010.05.17/outbox.cif.g08.bks.cpg/sg64_23_cif.got.tgz:44819.got - 2010.06.03 16:29:19.
