data_PCOD9480368
_publ_section_title
;
Structure prediction by ZEFSAII (Michael W. Deem and Ramdas Pophale) SiO2 
 PCOD9480368
Probable space group: C M C A
;
_chemical_formula_sum "Si O2"
_cell_formula_units_Z 96
_cell_length_a 10.949765
_cell_length_b 14.520683
_cell_length_c 28.155813
_cell_angle_alpha 90.000000
_cell_angle_beta 90.000000
_cell_angle_gamma 90.000000
_cell_volume 4476.719827
_symmetry_space_group_name_H-M "C M C A"
_symmetry_group_IT_number 64
_symmetry_cell_setting 'orthorhombic'
loop_
_space_group_symop_operation_xyz
x,y,z
-x,1/2-y,1/2+z
x,-y,-z
-x,1/2+y,1/2-z
-x,-y,-z
x,1/2+y,1/2-z
-x,y,z
x,1/2-y,1/2+z
1/2+x,1/2+y,z
1/2-x,-y,1/2+z
1/2+x,1/2-y,-z
1/2-x,y,1/2-z
1/2-x,1/2-y,-z
1/2+x,y,1/2-z
1/2-x,1/2+y,z
1/2+x,-y,1/2+z
loop_
_atom_site_type_symbol
_atom_site_label
_atom_site_fract_x
_atom_site_fract_y
_atom_site_fract_z
Si Si1 0.130239 0.955518 0.880818
Si Si2 0.371242 0.879366 0.725244
Si Si3 0.357863 0.100027 0.982007
Si Si4 0.860703 0.341891 0.215490
Si Si5 0.769738 0.650824 0.615659
Si Si6 0.360926 0.656365 0.415343
O O1 0.128112 0.917770 0.827602
O O2 0.253673 0.914349 0.902515
O O3 0.000000 0.927086 0.903747
O O4 0.139715 0.065134 0.880016
O O5 0.500000 0.904511 0.749206
O O6 0.250000 0.913165 0.750000
O O7 0.366104 0.768660 0.722739
O O8 0.500000 0.085767 0.970367
O O9 0.351594 0.166870 0.027589
O O10 0.310233 0.000000 0.000000
O O11 0.750000 0.374707 0.250000
O O12 0.820440 0.355917 0.160796
O O13 0.000000 0.375977 0.224697
O O14 0.704719 0.637282 0.564962
O O15 0.834339 0.749888 0.613005
O O16 0.500000 0.624299 0.405571
#
# Coordination Sequence:
#
# PCOD9480368 Si02
#       6
#    16  16  16  16  16  16
#     4  11  24  42  64  95 133 170 215 271 328 393
#     4   9  19  39  62  89 123 166 214 265 324 385
#     4  10  21  40  66  97 135 175 221 274 329 398
#     4  10  22  40  66  97 131 174 220 269 329 396
#     4  12  23  41  69 100 132 173 222 276 335 392
#     4  11  24  43  66  97 133 172 219 271 330 391
#
# _framework density 21.444272000000002
#
# number of rings (size 3 to 8) (size 9 to 14) (size 15 to 20)
#    0.000    1.500    3.333    1.500    0.000    4.000 
#    0.000    4.167    0.000    0.000    0.000    0.000 
#    0.000    0.000    0.000    0.000    0.000    0.000 
#
# Total GULP energy -267931.827775 kJ/mol
# GULP energy per Si atom -5581.913079 kJ/mol
# Density = 2.139546 g / cm^3
# Si number density = 21.444272 Si / 1000 Ang^3
#
#
#
# Elastic Constant Matrix: (Units=GPa)
#
#
# Indices 1 2 3 4 5 6 
#
# 1 201.3331 38.6017 66.8958 0.0000 0.0000 0.0000
# 2 38.6017 78.8267 0.1265 0.0000 0.0000 0.0000
# 3 66.8958 0.1265 71.9819 0.0000 0.0000 0.0000
# 4 0.0000 0.0000 0.0000 22.9364 0.0000 0.0000
# 5 0.0000 0.0000 0.0000 0.0000 117.9758 0.0000
# 6 0.0000 0.0000 0.0000 0.0000 0.0000 2.2016
#
#
#
# Elastic Compliance Matrix: (Units=1/GPa)
#
#
# Indices 1 2 3 4 5 6 
#
# 1 0.008307 -0.004056 -0.007713 0.000000 0.000000 0.000000
# 2 -0.004056 0.014666 0.003743 0.000000 0.000000 0.000000
# 3 -0.007713 0.003743 0.021054 0.000000 0.000000 0.000000
# 4 0.000000 0.000000 0.000000 0.043599 0.000000 0.000000
# 5 0.000000 0.000000 0.000000 0.000000 0.008476 0.000000
# 6 0.000000 0.000000 0.000000 0.000000 0.000000 0.454207
#
#
# Mechanical properties :
#
#
# Convention : Reuss Voigt Hill
#
# Bulk Modulus (GPa) = 35.74441 62.59887 49.17164
# Shear Modulus (GPa) = 8.68529 45.05728 26.87128
#
# Velocity S-wave (km/s) = 2.01469 4.58879 3.54372
# Velocity P-wave (km/s) = 4.70283 7.57171 6.30267
#
# Compressibility (1/GPa) = 0.02797640
#
# Stress axis : x y z
#
# Youngs Moduli (GPa) = 120.37548 68.18410 47.49680
#
# Poissons Ratio (x) = 0.27654 0.36635
# Poissons Ratio (y) = 0.48821 -0.17780
# Poissons Ratio (z) = 0.92848 -0.25524
#
# Static dielectric constant tensor:
#      x y z
#    x 1.824980 0.000000 0.000000 
#    y 0.000000 1.785460 0.000000 
#    z 0.000000 0.000000 1.757100 
# 
# From -- ./inp_files/38312.got.cif
#   From: 2010.05.17/outbox.cif.g08.bks.cpg/sg64_20_cif.got.tgz:38312.got - 2010.06.03 16:29:19.
