data_PCOD9480296
_publ_section_title
;
Structure prediction by ZEFSAII (Michael W. Deem and Ramdas Pophale) SiO2 
 PCOD9480296
Probable space group: C M C A
;
_chemical_formula_sum "Si O2"
_cell_formula_units_Z 96
_cell_length_a 19.394461
_cell_length_b 12.375625
_cell_length_c 21.491620
_cell_angle_alpha 90.000000
_cell_angle_beta 90.000000
_cell_angle_gamma 90.000000
_cell_volume 5158.388037
_symmetry_space_group_name_H-M "C M C A"
_symmetry_group_IT_number 64
_symmetry_cell_setting 'orthorhombic'
loop_
_space_group_symop_operation_xyz
x,y,z
-x,1/2-y,1/2+z
x,-y,-z
-x,1/2+y,1/2-z
-x,-y,-z
x,1/2+y,1/2-z
-x,y,z
x,1/2-y,1/2+z
1/2+x,1/2+y,z
1/2-x,-y,1/2+z
1/2+x,1/2-y,-z
1/2-x,y,1/2-z
1/2-x,1/2-y,-z
1/2+x,y,1/2-z
1/2-x,1/2+y,z
1/2+x,-y,1/2+z
loop_
_atom_site_type_symbol
_atom_site_label
_atom_site_fract_x
_atom_site_fract_y
_atom_site_fract_z
Si Si1 0.295832 0.296861 0.146786
Si Si2 0.000000 0.735621 0.360356
Si Si3 0.250000 0.451651 0.250000
Si Si4 0.500000 0.978284 0.356480
Si Si5 0.366320 0.893183 0.787816
Si Si6 0.359820 0.970825 0.428216
Si Si7 0.648848 0.185700 0.354796
Si Si8 0.000000 0.042280 0.716089
O O1 0.296506 0.378384 0.205476
O O2 0.348859 0.201165 0.163401
O O3 0.315186 0.365736 0.086642
O O4 0.217250 0.256764 0.143877
O O5 0.920535 0.736315 0.385891
O O6 0.000000 0.843133 0.318625
O O7 0.000000 0.607548 0.341913
O O8 0.300571 0.527807 0.288578
O O9 0.433844 0.950477 0.396836
O O10 0.500000 0.926700 0.288961
O O11 0.367440 0.841436 0.717967
O O12 0.433547 0.966766 0.797275
O O13 0.365157 0.000000 0.500000
O O14 0.333653 0.075163 0.390405
#
# Coordination Sequence:
#
# PCOD9480296 Si02
#       8
#    16   8   8   8  16  16  16   8
#     4  12  22  35  62  85 123 161 185 248 304 346
#     4  10  22  35  57  84 122 156 182 250 305 345
#     4  12  18  36  56  82 118 152 188 230 298 360
#     4  10  21  40  57  83 118 153 209 242 291 366
#     4  12  21  34  53  90 120 146 193 235 296 364
#     4  11  24  40  60  86 117 162 206 243 288 354
#     4  11  20  39  55  87 117 155 202 237 298 358
#     4  12  22  33  58  89 124 147 185 248 306 361
#
# _framework density 18.610465000000001
#
# number of rings (size 3 to 8) (size 9 to 14) (size 15 to 20)
#    0.000    0.667    8.333    1.250    2.333    1.333 
#    0.000    0.000    0.000    0.000    0.000    5.250 
#    0.000    0.000    0.000    0.000    0.000    0.000 
#
# Total GULP energy -267651.561106 kJ/mol
# GULP energy per Si atom -5576.074190 kJ/mol
# Density = 1.856811 g / cm^3
# Si number density = 18.610465 Si / 1000 Ang^3
#
#
#
# Elastic Constant Matrix: (Units=GPa)
#
#
# Indices 1 2 3 4 5 6 
#
# 1 94.1603 42.7002 20.3086 0.0000 0.0000 0.0000
# 2 42.7002 76.6258 16.3498 0.0000 0.0000 0.0000
# 3 20.3086 16.3498 27.1817 0.0000 0.0000 0.0000
# 4 0.0000 0.0000 0.0000 11.8851 0.0000 0.0000
# 5 0.0000 0.0000 0.0000 0.0000 -17.2101 0.0000
# 6 0.0000 0.0000 0.0000 0.0000 0.0000 20.8944
#
#
#
# Elastic Compliance Matrix: (Units=1/GPa)
#
#
# Indices 1 2 3 4 5 6 
#
# 1 0.015367 -0.007014 -0.007263 0.000000 0.000000 0.000000
# 2 -0.007014 0.018173 -0.005691 0.000000 0.000000 0.000000
# 3 -0.007263 -0.005691 0.045639 0.000000 0.000000 0.000000
# 4 0.000000 0.000000 0.000000 0.084139 0.000000 0.000000
# 5 0.000000 0.000000 0.000000 0.000000 -0.058105 0.000000
# 6 0.000000 0.000000 0.000000 0.000000 0.000000 0.047860
#
#
# Mechanical properties :
#
#
# Convention : Reuss Voigt Hill
#
# Bulk Modulus (GPa) = 25.48131 39.63166 32.55648
# Shear Modulus (GPa) = 24.26134 11.02114 17.64124
#
# Velocity S-wave (km/s) = 3.61451 2.43616 3.08217
# Velocity P-wave (km/s) = 5.58043 5.40877 5.49527
#
# Compressibility (1/GPa) = 0.03924445
#
# Stress axis : x y z
#
# Youngs Moduli (GPa) = 65.07325 55.02598 21.91123
#
# Poissons Ratio (x) = 0.38595 0.15913
# Poissons Ratio (y) = 0.45642 0.12469
# Poissons Ratio (z) = 0.47261 0.31314
#
# Static dielectric constant tensor:
#      x y z
#    x 1.697770 0.000000 0.000000 
#    y 0.000000 1.658270 0.000000 
#    z 0.000000 0.000000 1.625510 
# 
# From -- ./inp_files/40928.got.cif
#   From: 2010.05.17/outbox.cif.g08.bks.cpg/sg64_21_cif.got.tgz:40928.got - 2010.06.03 16:29:19.
