data_PCOD9480578
_publ_section_title
;
Structure prediction by ZEFSAII (Michael W. Deem and Ramdas Pophale) SiO2 
 PCOD9480578
Probable space group: C M C A
;
_chemical_formula_sum "Si O2"
_cell_formula_units_Z 88
_cell_length_a 15.014220
_cell_length_b 19.381045
_cell_length_c 15.611382
_cell_angle_alpha 90.000000
_cell_angle_beta 90.000000
_cell_angle_gamma 90.000000
_cell_volume 4542.775929
_symmetry_space_group_name_H-M "C M C A"
_symmetry_group_IT_number 64
_symmetry_cell_setting 'orthorhombic'
loop_
_space_group_symop_operation_xyz
x,y,z
-x,1/2-y,1/2+z
x,-y,-z
-x,1/2+y,1/2-z
-x,-y,-z
x,1/2+y,1/2-z
-x,y,z
x,1/2-y,1/2+z
1/2+x,1/2+y,z
1/2-x,-y,1/2+z
1/2+x,1/2-y,-z
1/2-x,y,1/2-z
1/2-x,1/2-y,-z
1/2+x,y,1/2-z
1/2-x,1/2+y,z
1/2+x,-y,1/2+z
loop_
_atom_site_type_symbol
_atom_site_label
_atom_site_fract_x
_atom_site_fract_y
_atom_site_fract_z
Si Si1 0.000000 0.303983 0.736782
Si Si2 0.308999 0.602263 0.835384
Si Si3 0.105132 0.029852 0.095731
Si Si4 0.500000 0.254554 0.456934
Si Si5 0.195419 0.787621 0.426333
Si Si6 0.675214 0.845731 0.686539
Si Si7 0.000000 0.676250 0.636623
O O1 0.089207 0.345257 0.747072
O O2 0.000000 0.282405 0.636054
O O3 0.000000 0.240810 0.800293
O O4 0.250000 0.609993 0.750000
O O5 0.334066 0.523008 0.851269
O O6 0.246708 0.642672 0.902921
O O7 0.407733 0.636921 0.842062
O O8 0.000000 0.031974 0.121211
O O9 0.149007 0.104776 0.108004
O O10 0.106367 0.000000 0.000000
O O11 0.592917 0.295980 0.455900
O O12 0.500000 0.201968 0.537521
O O13 0.250000 0.750000 0.500000
O O14 0.195072 0.731777 0.347757
O O15 0.750000 0.871282 0.750000
#
# Coordination Sequence:
#
# PCOD9480578 Si02
#       7
#     8  16  16   8  16  16   8
#     4  10  22  37  58  95 128 162 208 266 318 386
#     4  12  24  40  63  95 131 171 219 271 331 394
#     4  11  24  42  66  90 123 170 220 272 326 397
#     4  10  22  36  62  91 137 168 209 264 331 378
#     4  11  21  37  62  96 129 164 212 266 324 387
#     4  11  22  39  62  89 124 165 209 265 324 379
#     4  12  22  39  64  97 132 176 211 266 333 398
#
# _framework density 19.371414999999999
#
# number of rings (size 3 to 8) (size 9 to 14) (size 15 to 20)
#    0.000    0.909    3.636    5.455    2.545    0.000 
#    0.000    0.000    0.000    0.000    0.000    3.182 
#    0.000    0.000    0.000    0.000    0.000    0.000 
#
# Total GULP energy -245373.372555 kJ/mol
# GULP energy per Si atom -5576.667558 kJ/mol
# Density = 1.932732 g / cm^3
# Si number density = 19.371415 Si / 1000 Ang^3
#
#
#
# Elastic Constant Matrix: (Units=GPa)
#
#
# Indices 1 2 3 4 5 6 
#
# 1 166.0808 18.6954 24.2387 0.0000 0.0000 0.0000
# 2 18.6954 43.0705 -3.5214 0.0000 0.0000 0.0000
# 3 24.2387 -3.5214 51.5152 0.0000 0.0000 0.0000
# 4 0.0000 0.0000 0.0000 23.4155 0.0000 0.0000
# 5 0.0000 0.0000 0.0000 0.0000 45.8506 0.0000
# 6 0.0000 0.0000 0.0000 0.0000 0.0000 26.1986
#
#
#
# Elastic Compliance Matrix: (Units=1/GPa)
#
#
# Indices 1 2 3 4 5 6 
#
# 1 0.006896 -0.003277 -0.003469 0.000000 0.000000 0.000000
# 2 -0.003277 0.024905 0.003244 0.000000 0.000000 0.000000
# 3 -0.003469 0.003244 0.021266 0.000000 0.000000 0.000000
# 4 0.000000 0.000000 0.000000 0.042707 0.000000 0.000000
# 5 0.000000 0.000000 0.000000 0.000000 0.021810 0.000000
# 6 0.000000 0.000000 0.000000 0.000000 0.000000 0.038170
#
#
# Mechanical properties :
#
#
# Convention : Reuss Voigt Hill
#
# Bulk Modulus (GPa) = 21.70876 37.72134 29.71505
# Shear Modulus (GPa) = 28.07222 33.84320 30.95771
#
# Velocity S-wave (km/s) = 3.81091 4.18433 4.00198
# Velocity P-wave (km/s) = 5.53127 6.54674 6.06031
#
# Compressibility (1/GPa) = 0.04606434
#
# Stress axis : x y z
#
# Youngs Moduli (GPa) = 145.00493 40.15179 47.02420
#
# Poissons Ratio (x) = 0.13158 0.16312
# Poissons Ratio (y) = 0.47519 -0.15256
# Poissons Ratio (z) = 0.50300 -0.13027
#
# Static dielectric constant tensor:
#      x y z
#    x 1.704400 0.000000 0.000000 
#    y 0.000000 1.714260 0.000000 
#    z 0.000000 0.000000 1.762460 
# 
# From -- ./inp_files/23787.got.cif
#   From: 2010.05.17/outbox.cif.g08.bks.cpg/sg64_12_cif.got.tgz:23787.got - 2010.06.03 16:29:19.
