data_PCOD9480388
_publ_section_title
;
Structure prediction by ZEFSAII (Michael W. Deem and Ramdas Pophale) SiO2 
 PCOD9480388
Probable space group: C M C A
;
_chemical_formula_sum "Si O2"
_cell_formula_units_Z 88
_cell_length_a 23.794437
_cell_length_b 31.054558
_cell_length_c 5.546179
_cell_angle_alpha 90.000000
_cell_angle_beta 90.000000
_cell_angle_gamma 90.000000
_cell_volume 4098.214332
_symmetry_space_group_name_H-M "C M C A"
_symmetry_group_IT_number 64
_symmetry_cell_setting 'orthorhombic'
loop_
_space_group_symop_operation_xyz
x,y,z
-x,1/2-y,1/2+z
x,-y,-z
-x,1/2+y,1/2-z
-x,-y,-z
x,1/2+y,1/2-z
-x,y,z
x,1/2-y,1/2+z
1/2+x,1/2+y,z
1/2-x,-y,1/2+z
1/2+x,1/2-y,-z
1/2-x,y,1/2-z
1/2-x,1/2-y,-z
1/2+x,y,1/2-z
1/2-x,1/2+y,z
1/2+x,-y,1/2+z
loop_
_atom_site_type_symbol
_atom_site_label
_atom_site_fract_x
_atom_site_fract_y
_atom_site_fract_z
Si Si1 0.107809 0.000000 0.000000
Si Si2 0.250000 0.582157 0.250000
Si Si3 0.125625 0.277228 0.338447
Si Si4 0.500000 0.776509 0.328523
Si Si5 0.564293 0.917720 0.726400
Si Si6 0.343403 0.632241 0.966544
Si Si7 0.841770 0.944486 0.402273
O O1 0.069638 0.958471 0.952325
O O2 0.147008 0.016075 0.779694
O O3 0.204032 0.613869 0.360148
O O4 0.284812 0.554218 0.442618
O O5 0.132406 0.247211 0.579857
O O6 0.163258 0.319065 0.382310
O O7 0.061828 0.296683 0.330796
O O8 0.500000 0.749567 0.577133
O O9 0.500000 0.907696 0.784323
O O10 0.598148 0.878254 0.606568
O O11 0.601945 0.936161 0.943063
O O12 0.338397 0.599713 0.745855
#
# Coordination Sequence:
#
# PCOD9480388 Si02
#       7
#     8   8  16   8  16  16  16
#     4  10  21  40  68  96 134 164 217 270 336 398
#     4  10  22  44  70  86 128 178 220 282 332 394
#     4  10  22  39  64  98 135 174 224 280 336 407
#     4   8  16  34  54  86 130 169 200 261 332 386
#     4  10  22  39  65  99 134 174 215 267 328 405
#     4  10  23  41  67  90 132 175 225 272 339 390
#     4  10  22  41  68  93 131 174 220 274 336 401
#
# _framework density 21.472767999999999
#
# number of rings (size 3 to 8) (size 9 to 14) (size 15 to 20)
#    0.000    2.182    0.000    1.364    6.364    4.364 
#    0.000    0.909  144.000    0.000    0.000    0.000 
#    0.000    0.000    0.000    0.000    0.000    0.000 
#
# Total GULP energy -245270.556013 kJ/mol
# GULP energy per Si atom -5574.330818 kJ/mol
# Density = 2.142389 g / cm^3
# Si number density = 21.472768 Si / 1000 Ang^3
#
#
#
# Elastic Constant Matrix: (Units=GPa)
#
#
# Indices 1 2 3 4 5 6 
#
# 1 93.5493 9.6077 20.8855 0.0000 0.0000 0.0000
# 2 9.6077 62.7282 -0.3256 0.0000 0.0000 0.0000
# 3 20.8855 -0.3256 75.2860 0.0000 0.0000 0.0000
# 4 0.0000 0.0000 0.0000 -101.2530 0.0000 0.0000
# 5 0.0000 0.0000 0.0000 0.0000 11.2624 0.0000
# 6 0.0000 0.0000 0.0000 0.0000 0.0000 15.5670
#
#
#
# Elastic Compliance Matrix: (Units=1/GPa)
#
#
# Indices 1 2 3 4 5 6 
#
# 1 0.011593 -0.001792 -0.003224 0.000000 0.000000 0.000000
# 2 -0.001792 0.016219 0.000567 0.000000 0.000000 0.000000
# 3 -0.003224 0.000567 0.014179 0.000000 0.000000 0.000000
# 4 0.000000 0.000000 0.000000 -0.009876 0.000000 0.000000
# 5 0.000000 0.000000 0.000000 0.000000 0.088791 0.000000
# 6 0.000000 0.000000 0.000000 0.000000 0.000000 0.064238
#
#
# Mechanical properties :
#
#
# Convention : Reuss Voigt Hill
#
# Bulk Modulus (GPa) = 30.21674 32.43318 31.32496
# Shear Modulus (GPa) = 24.38138 -1.45833 11.46152
#
# Velocity S-wave (km/s) = 3.37331 -0.82500 2.31285
# Velocity P-wave (km/s) = 5.41063 3.77222 4.66393
#
# Compressibility (1/GPa) = 0.03309424
#
# Stress axis : x y z
#
# Youngs Moduli (GPa) = 86.25593 61.65504 70.52436
#
# Poissons Ratio (x) = 0.11051 0.22737
# Poissons Ratio (y) = 0.15461 -0.04002
# Poissons Ratio (z) = 0.27808 -0.03498
#
# Static dielectric constant tensor:
#      x y z
#    x 1.823060 0.000000 0.000000 
#    y 0.000000 1.735570 0.000000 
#    z 0.000000 0.000000 8.424810 
# 
# From -- ./inp_files/2468.got.cif
#   From: 2010.05.17/outbox.cif.g08.bks.cpg/sg64_2_cif.got.tgz:2468.got - 2010.06.03 16:29:19.
