data_PCOD9480017
_publ_section_title
;
Structure prediction by ZEFSAII (Michael W. Deem and Ramdas Pophale) SiO2 
 PCOD9480017
Probable space group: C M C A
;
_chemical_formula_sum "Si O2"
_cell_formula_units_Z 88
_cell_length_a 34.685120
_cell_length_b 14.729609
_cell_length_c 6.833488
_cell_angle_alpha 90.000000
_cell_angle_beta 90.000000
_cell_angle_gamma 90.000000
_cell_volume 3491.217100
_symmetry_space_group_name_H-M "C M C A"
_symmetry_group_IT_number 64
_symmetry_cell_setting 'orthorhombic'
loop_
_space_group_symop_operation_xyz
x,y,z
-x,1/2-y,1/2+z
x,-y,-z
-x,1/2+y,1/2-z
-x,-y,-z
x,1/2+y,1/2-z
-x,y,z
x,1/2-y,1/2+z
1/2+x,1/2+y,z
1/2-x,-y,1/2+z
1/2+x,1/2-y,-z
1/2-x,y,1/2-z
1/2-x,1/2-y,-z
1/2+x,y,1/2-z
1/2-x,1/2+y,z
1/2+x,-y,1/2+z
loop_
_atom_site_type_symbol
_atom_site_label
_atom_site_fract_x
_atom_site_fract_y
_atom_site_fract_z
Si Si1 0.458080 0.591305 0.870652
Si Si2 0.622331 0.328032 0.158092
Si Si3 0.429222 0.500000 0.500000
Si Si4 0.716494 0.867565 0.964839
Si Si5 0.796124 0.649814 0.578354
Si Si6 0.634433 0.119542 0.107872
O O1 0.500000 0.635401 0.903662
O O2 0.420000 0.649213 0.916675
O O3 0.453947 0.563623 0.641496
O O4 0.457389 0.500000 0.000000
O O5 0.658878 0.364848 0.034325
O O6 0.627668 0.220627 0.183796
O O7 0.628453 0.368306 0.373256
O O8 0.400548 0.447277 0.650514
O O9 0.762002 0.888998 0.942588
O O10 0.710654 0.879026 0.198398
O O11 0.710691 0.759425 0.924416
O O12 0.678741 0.911442 0.867521
#
# Coordination Sequence:
#
# PCOD9480017 Si02
#       6
#    16  16   8  16  16  16
#     4  10  22  40  60  81 107 142 183 228 284 339
#     4   9  18  32  52  80 105 139 186 226 274 329
#     4  10  21  38  60  82 116 148 178 222 285 340
#     4   8  13  23  41  70 100 135 175 212 259 309
#     4   8  13  23  42  68 100 135 171 219 260 306
#     4   9  18  31  53  81 108 144 182 223 273 328
#
# _framework density 25.206108
#
# number of rings (size 3 to 8) (size 9 to 14) (size 15 to 20)
#    0.000    3.091    0.000    0.273    2.545    0.000 
#    0.000    4.545    2.000    0.000    0.000    0.000 
#    0.000    0.000    0.000    0.000    0.000    0.000 
#
# Total GULP energy -245726.638295 kJ/mol
# GULP energy per Si atom -5584.696325 kJ/mol
# Density = 2.514874 g / cm^3
# Si number density = 25.206108 Si / 1000 Ang^3
#
#
#
# Elastic Constant Matrix: (Units=GPa)
#
#
# Indices 1 2 3 4 5 6 
#
# 1 273.3917 26.9976 20.3553 0.0000 0.0000 0.0000
# 2 26.9976 52.7500 -0.4103 0.0000 0.0000 0.0000
# 3 20.3553 -0.4103 66.5305 0.0000 0.0000 0.0000
# 4 0.0000 0.0000 0.0000 17.8369 0.0000 0.0000
# 5 0.0000 0.0000 0.0000 0.0000 23.8334 0.0000
# 6 0.0000 0.0000 0.0000 0.0000 0.0000 60.4970
#
#
#
# Elastic Compliance Matrix: (Units=1/GPa)
#
#
# Indices 1 2 3 4 5 6 
#
# 1 0.003949 -0.002031 -0.001221 0.000000 0.000000 0.000000
# 2 -0.002031 0.020002 0.000745 0.000000 0.000000 0.000000
# 3 -0.001221 0.000745 0.015409 0.000000 0.000000 0.000000
# 4 0.000000 0.000000 0.000000 0.056063 0.000000 0.000000
# 5 0.000000 0.000000 0.000000 0.000000 0.041958 0.000000
# 6 0.000000 0.000000 0.000000 0.000000 0.000000 0.016530
#
#
# Mechanical properties :
#
#
# Convention : Reuss Voigt Hill
#
# Bulk Modulus (GPa) = 29.11484 54.06194 41.58839
# Shear Modulus (GPa) = 29.34719 43.48211 36.41465
#
# Velocity S-wave (km/s) = 3.41587 4.15789 3.80501
# Velocity P-wave (km/s) = 5.20897 6.67423 5.98659
#
# Compressibility (1/GPa) = 0.03434675
#
# Stress axis : x y z
#
# Youngs Moduli (GPa) = 253.21707 49.99389 64.89799
#
# Poissons Ratio (x) = 0.10152 0.07923
# Poissons Ratio (y) = 0.51421 -0.04833
# Poissons Ratio (z) = 0.30913 -0.03723
#
# Static dielectric constant tensor:
#      x y z
#    x 2.073240 0.000000 0.000000 
#    y 0.000000 2.779470 0.000000 
#    z 0.000000 0.000000 2.098790 
# 
# From -- ./inp_files/11098.got.cif
#   From: 2010.05.17/outbox.cif.g08.bks.cpg/sg64_6_cif.got.tgz:11098.got - 2010.06.03 16:29:19.
