data_PCOD9480442
_publ_section_title
;
Structure prediction by ZEFSAII (Michael W. Deem and Ramdas Pophale) SiO2 
 PCOD9480442
Probable space group: C M C A
;
_chemical_formula_sum "Si O2"
_cell_formula_units_Z 96
_cell_length_a 18.076566
_cell_length_b 9.241469
_cell_length_c 29.844819
_cell_angle_alpha 90.000000
_cell_angle_beta 90.000000
_cell_angle_gamma 90.000000
_cell_volume 4985.697119
_symmetry_space_group_name_H-M "C M C A"
_symmetry_group_IT_number 64
_symmetry_cell_setting 'orthorhombic'
loop_
_space_group_symop_operation_xyz
x,y,z
-x,1/2-y,1/2+z
x,-y,-z
-x,1/2+y,1/2-z
-x,-y,-z
x,1/2+y,1/2-z
-x,y,z
x,1/2-y,1/2+z
1/2+x,1/2+y,z
1/2-x,-y,1/2+z
1/2+x,1/2-y,-z
1/2-x,y,1/2-z
1/2-x,1/2-y,-z
1/2+x,y,1/2-z
1/2-x,1/2+y,z
1/2+x,-y,1/2+z
loop_
_atom_site_type_symbol
_atom_site_label
_atom_site_fract_x
_atom_site_fract_y
_atom_site_fract_z
Si Si1 0.172744 0.947570 0.872761
Si Si2 0.415978 0.597851 0.037722
Si Si3 0.910364 0.210831 0.207838
Si Si4 0.830700 0.293465 0.881594
Si Si5 0.585254 0.133907 0.026714
Si Si6 0.588590 0.549722 0.300174
O O1 0.125204 0.903626 0.916010
O O2 0.131507 0.881908 0.829673
O O3 0.252082 0.873292 0.878956
O O4 0.176890 0.122167 0.871764
O O5 0.500000 0.542137 0.045498
O O6 0.377853 0.500000 0.000000
O O7 0.419834 0.748141 0.012322
O O8 0.889194 0.380662 0.204375
O O9 0.891389 0.141834 0.256000
O O10 0.000000 0.200436 0.202039
O O11 0.869119 0.315883 0.930099
O O12 0.879205 0.372188 0.843635
O O13 0.500000 0.099934 0.040848
O O14 0.619464 0.000000 0.000000
O O15 0.500000 0.550343 0.303196
#
# Coordination Sequence:
#
# PCOD9480442 Si02
#       6
#    16  16  16  16  16  16
#     4  12  26  41  62  91 128 170 208 255 311 371
#     4  10  21  41  65  91 121 161 210 258 309 364
#     4  10  22  42  69  98 125 160 204 255 309 367
#     4  12  26  42  61  91 129 168 210 255 311 371
#     4  10  23  41  65  92 122 162 209 260 310 364
#     4  10  22  42  69  97 126 159 204 256 308 368
#
# _framework density 19.25508
#
# number of rings (size 3 to 8) (size 9 to 14) (size 15 to 20)
#    0.000    1.333    1.667    3.000    4.667    5.333 
#    0.000    3.333    0.000    0.000    0.000    0.000 
#    0.000    0.000    0.000    0.000    0.000    0.000 
#
# Total GULP energy -268021.955218 kJ/mol
# GULP energy per Si atom -5583.790734 kJ/mol
# Density = 1.921126 g / cm^3
# Si number density = 19.255080 Si / 1000 Ang^3
#
#
#
# Elastic Constant Matrix: (Units=GPa)
#
#
# Indices 1 2 3 4 5 6 
#
# 1 44.0591 41.3027 46.5472 0.0000 0.0000 0.0000
# 2 41.3027 166.8122 74.3937 0.0000 0.0000 0.0000
# 3 46.5472 74.3937 130.6478 0.0000 0.0000 0.0000
# 4 0.0000 0.0000 0.0000 37.4772 0.0000 0.0000
# 5 0.0000 0.0000 0.0000 0.0000 192.8562 0.0000
# 6 0.0000 0.0000 0.0000 0.0000 0.0000 30.2923
#
#
#
# Elastic Compliance Matrix: (Units=1/GPa)
#
#
# Indices 1 2 3 4 5 6 
#
# 1 0.038887 -0.004624 -0.011222 0.000000 0.000000 0.000000
# 2 -0.004624 0.008585 -0.003241 0.000000 0.000000 0.000000
# 3 -0.011222 -0.003241 0.013498 0.000000 0.000000 0.000000
# 4 0.000000 0.000000 0.000000 0.026683 0.000000 0.000000
# 5 0.000000 0.000000 0.000000 0.000000 0.005185 0.000000
# 6 0.000000 0.000000 0.000000 0.000000 0.000000 0.033012
#
#
# Mechanical properties :
#
#
# Convention : Reuss Voigt Hill
#
# Bulk Modulus (GPa) = 43.86669 74.00069 58.93369
# Shear Modulus (GPa) = 29.13390 64.07683 46.60536
#
# Velocity S-wave (km/s) = 3.89401 5.77496 4.92511
# Velocity P-wave (km/s) = 6.56118 9.10945 7.93824
#
# Compressibility (1/GPa) = 0.02279634
#
# Stress axis : x y z
#
# Youngs Moduli (GPa) = 25.71576 116.48098 74.08606
#
# Poissons Ratio (x) = 0.53858 0.83137
# Poissons Ratio (y) = 0.11890 0.24013
# Poissons Ratio (z) = 0.28857 0.37754
#
# Static dielectric constant tensor:
#      x y z
#    x 1.674290 0.000000 0.000000 
#    y 0.000000 1.593470 0.000000 
#    z 0.000000 0.000000 1.653130 
# 
# From -- ./inp_files/50681.got.cif
#   From: 2010.05.17/outbox.cif.g08.bks.cpg/sg64_26_cif.got.tgz:50681.got - 2010.06.03 16:29:19.
