data_PCOD9480881
_publ_section_title
;
Structure prediction by ZEFSAII (Michael W. Deem and Ramdas Pophale) SiO2 
 PCOD9480881
Probable space group: C M C A
;
_chemical_formula_sum "Si O2"
_cell_formula_units_Z 88
_cell_length_a 9.945927
_cell_length_b 28.882615
_cell_length_c 14.919460
_cell_angle_alpha 90.000000
_cell_angle_beta 90.000000
_cell_angle_gamma 90.000000
_cell_volume 4285.829432
_symmetry_space_group_name_H-M "C M C A"
_symmetry_group_IT_number 64
_symmetry_cell_setting 'orthorhombic'
loop_
_space_group_symop_operation_xyz
x,y,z
-x,1/2-y,1/2+z
x,-y,-z
-x,1/2+y,1/2-z
-x,-y,-z
x,1/2+y,1/2-z
-x,y,z
x,1/2-y,1/2+z
1/2+x,1/2+y,z
1/2-x,-y,1/2+z
1/2+x,1/2-y,-z
1/2-x,y,1/2-z
1/2-x,1/2-y,-z
1/2+x,y,1/2-z
1/2-x,1/2+y,z
1/2+x,-y,1/2+z
loop_
_atom_site_type_symbol
_atom_site_label
_atom_site_fract_x
_atom_site_fract_y
_atom_site_fract_z
Si Si1 0.149051 0.680423 0.097064
Si Si2 0.161745 0.440745 0.402228
Si Si3 0.848201 0.141078 0.596879
Si Si4 0.341366 0.246357 0.837754
Si Si5 0.250000 0.383138 0.750000
Si Si6 0.658149 0.041381 0.390229
O O1 0.269353 0.717470 0.095817
O O2 0.160772 0.650216 0.187595
O O3 0.000000 0.702544 0.092763
O O4 0.160868 0.647739 0.010654
O O5 0.240732 0.395844 0.369228
O O6 0.209887 0.490305 0.363192
O O7 0.197545 0.445772 0.508380
O O8 0.000000 0.434755 0.392826
O O9 0.830150 0.193156 0.632613
O O10 0.000000 0.125799 0.619085
O O11 0.500000 0.256861 0.825693
O O12 0.250000 0.251496 0.750000
O O13 0.317512 0.417718 0.820876
O O14 0.500000 0.034131 0.397006
#
# Coordination Sequence:
#
# PCOD9480881 Si02
#       6
#    16  16  16  16   8  16
#     4  11  23  38  60  91 124 153 196 250 304 358
#     4   9  18  37  61  82 113 157 199 240 285 352
#     4  10  22  41  61  89 121 157 199 246 302 359
#     4  11  24  41  62  85 121 159 200 249 298 356
#     4  12  20  34  62  88 122 150 198 246 306 338
#     4   9  19  35  56  86 117 150 195 242 295 351
#
# _framework density 20.532782000000001
#
# number of rings (size 3 to 8) (size 9 to 14) (size 15 to 20)
#    0.000    1.818    2.727    2.727    0.000    2.909 
#    1.636    3.636    0.000    0.000    0.000    0.000 
#    0.000    0.000    0.000    0.000    0.000    0.000 
#
# Total GULP energy -245378.997464 kJ/mol
# GULP energy per Si atom -5576.795397 kJ/mol
# Density = 2.048605 g / cm^3
# Si number density = 20.532782 Si / 1000 Ang^3
#
#
#
# Elastic Constant Matrix: (Units=GPa)
#
#
# Indices 1 2 3 4 5 6 
#
# 1 117.7802 74.7349 5.6759 0.0000 0.0000 0.0000
# 2 74.7349 123.5549 4.5424 0.0000 0.0000 0.0000
# 3 5.6759 4.5424 35.6873 0.0000 0.0000 0.0000
# 4 0.0000 0.0000 0.0000 24.6839 0.0000 0.0000
# 5 0.0000 0.0000 0.0000 0.0000 12.6469 0.0000
# 6 0.0000 0.0000 0.0000 0.0000 0.0000 35.6370
#
#
#
# Elastic Compliance Matrix: (Units=1/GPa)
#
#
# Indices 1 2 3 4 5 6 
#
# 1 0.013825 -0.008320 -0.001140 0.000000 0.000000 0.000000
# 2 -0.008320 0.013139 -0.000349 0.000000 0.000000 0.000000
# 3 -0.001140 -0.000349 0.028247 0.000000 0.000000 0.000000
# 4 0.000000 0.000000 0.000000 0.040512 0.000000 0.000000
# 5 0.000000 0.000000 0.000000 0.000000 0.079071 0.000000
# 6 0.000000 0.000000 0.000000 0.000000 0.000000 0.028061
#
#
# Mechanical properties :
#
#
# Convention : Reuss Voigt Hill
#
# Bulk Modulus (GPa) = 28.09577 49.65876 38.87727
# Shear Modulus (GPa) = 21.33679 27.39816 24.36747
#
# Velocity S-wave (km/s) = 3.22709 3.65685 3.44867
# Velocity P-wave (km/s) = 5.25344 6.48596 5.90196
#
# Compressibility (1/GPa) = 0.03559254
#
# Stress axis : x y z
#
# Youngs Moduli (GPa) = 72.33369 76.10846 35.40210
#
# Poissons Ratio (x) = 0.63325 0.04035
# Poissons Ratio (y) = 0.60184 0.01236
# Poissons Ratio (z) = 0.08244 0.02657
#
# Static dielectric constant tensor:
#      x y z
#    x 1.710990 0.000000 0.000000 
#    y 0.000000 1.755040 0.000000 
#    z 0.000000 0.000000 1.839190 
# 
# From -- ./inp_files/30047.got.cif
#   From: 2010.05.17/outbox.cif.g08.bks.cpg/sg64_16_cif.got.tgz:30047.got - 2010.06.03 16:29:19.
