data_PCOD9480171
_publ_section_title
;
Structure prediction by ZEFSAII (Michael W. Deem and Ramdas Pophale) SiO2 
 PCOD9480171
Probable space group: C M C A
;
_chemical_formula_sum "Si O2"
_cell_formula_units_Z 80
_cell_length_a 16.610874
_cell_length_b 24.053325
_cell_length_c 8.177499
_cell_angle_alpha 90.000000
_cell_angle_beta 90.000000
_cell_angle_gamma 90.000000
_cell_volume 3267.293156
_symmetry_space_group_name_H-M "C M C A"
_symmetry_group_IT_number 64
_symmetry_cell_setting 'orthorhombic'
loop_
_space_group_symop_operation_xyz
x,y,z
-x,1/2-y,1/2+z
x,-y,-z
-x,1/2+y,1/2-z
-x,-y,-z
x,1/2+y,1/2-z
-x,y,z
x,1/2-y,1/2+z
1/2+x,1/2+y,z
1/2-x,-y,1/2+z
1/2+x,1/2-y,-z
1/2-x,y,1/2-z
1/2-x,1/2-y,-z
1/2+x,y,1/2-z
1/2-x,1/2+y,z
1/2+x,-y,1/2+z
loop_
_atom_site_type_symbol
_atom_site_label
_atom_site_fract_x
_atom_site_fract_y
_atom_site_fract_z
Si Si1 0.340115 0.729886 0.812491
Si Si2 0.091488 0.136833 0.996882
Si Si3 0.843048 0.422864 0.807990
Si Si4 0.906350 0.332567 0.002401
Si Si5 0.665217 0.965823 0.327201
O O1 0.250000 0.736823 0.750000
O O2 0.347057 0.687010 0.964083
O O3 0.378338 0.787367 0.868353
O O4 0.388848 0.697870 0.672433
O O5 0.000000 0.156828 0.980126
O O6 0.110818 0.086448 0.872099
O O7 0.105486 0.109919 0.172980
O O8 0.750000 0.420414 0.750000
O O9 0.856444 0.388967 0.973119
O O10 0.867908 0.487078 0.795204
O O11 0.000000 0.344829 0.987822
O O12 0.750000 0.947796 0.250000
O O13 0.678174 0.000000 0.500000
#
# Coordination Sequence:
#
# PCOD9480171 Si02
#       5
#    16  16  16  16  16
#     4  12  25  43  64  87 118 159 201 241 295 361
#     4  11  22  38  61  90 123 158 199 248 300 350
#     4  10  21  39  61  88 120 160 203 242 291 355
#     4  12  24  40  62  90 121 152 195 250 303 350
#     4   9  20  37  60  87 119 160 204 245 292 353
#
# _framework density 24.485099000000002
#
# number of rings (size 3 to 8) (size 9 to 14) (size 15 to 20)
#    0.000    1.200    0.000    6.600    0.000    7.600 
#    0.000    0.000    0.000    3.000    0.000    0.000 
#    0.000    0.000    0.000    0.000    0.000    0.000 
#
# Total GULP energy -224173.995620 kJ/mol
# GULP energy per Si atom -5604.349891 kJ/mol
# Density = 2.442937 g / cm^3
# Si number density = 24.485099 Si / 1000 Ang^3
#
#
#
# Elastic Constant Matrix: (Units=GPa)
#
#
# Indices 1 2 3 4 5 6 
#
# 1 81.6915 3.2986 -0.1867 0.0000 0.0000 0.0000
# 2 3.2986 108.4539 13.2483 0.0000 0.0000 0.0000
# 3 -0.1867 13.2483 65.5414 0.0000 0.0000 0.0000
# 4 0.0000 0.0000 0.0000 28.3644 0.0000 0.0000
# 5 0.0000 0.0000 0.0000 0.0000 38.9878 0.0000
# 6 0.0000 0.0000 0.0000 0.0000 0.0000 20.8044
#
#
#
# Elastic Compliance Matrix: (Units=1/GPa)
#
#
# Indices 1 2 3 4 5 6 
#
# 1 0.012257 -0.000387 0.000113 0.000000 0.000000 0.000000
# 2 -0.000387 0.009466 -0.001915 0.000000 0.000000 0.000000
# 3 0.000113 -0.001915 0.015645 0.000000 0.000000 0.000000
# 4 0.000000 0.000000 0.000000 0.035255 0.000000 0.000000
# 5 0.000000 0.000000 0.000000 0.000000 0.025649 0.000000
# 6 0.000000 0.000000 0.000000 0.000000 0.000000 0.048067
#
#
# Mechanical properties :
#
#
# Convention : Reuss Voigt Hill
#
# Bulk Modulus (GPa) = 30.31050 32.04523 31.17786
# Shear Modulus (GPa) = 30.91904 33.58644 32.25274
#
# Velocity S-wave (km/s) = 3.55740 3.70768 3.63332
# Velocity P-wave (km/s) = 5.41105 5.60760 5.51021
#
# Compressibility (1/GPa) = 0.03299187
#
# Stress axis : x y z
#
# Youngs Moduli (GPa) = 81.58571 105.63965 63.91877
#
# Poissons Ratio (x) = 0.04084 -0.00723
# Poissons Ratio (y) = 0.03154 0.12238
# Poissons Ratio (z) = -0.00922 0.20225
#
# Static dielectric constant tensor:
#      x y z
#    x 1.853730 0.000000 0.000000 
#    y 0.000000 1.916720 0.000000 
#    z 0.000000 0.000000 2.057120 
# 
# From -- ./inp_files/7059.got.cif
#   From: 2010.05.17/outbox.cif.g08.bks.cpg/sg64_4_cif.got.tgz:7059.got - 2010.06.03 16:29:19.
