data_PCOD9480528
_publ_section_title
;
Structure prediction by ZEFSAII (Michael W. Deem and Ramdas Pophale) SiO2 
 PCOD9480528
Probable space group: C M C A
;
_chemical_formula_sum "Si O2"
_cell_formula_units_Z 96
_cell_length_a 16.402412
_cell_length_b 10.944275
_cell_length_c 23.418895
_cell_angle_alpha 90.000000
_cell_angle_beta 90.000000
_cell_angle_gamma 90.000000
_cell_volume 4203.984566
_symmetry_space_group_name_H-M "C M C A"
_symmetry_group_IT_number 64
_symmetry_cell_setting 'orthorhombic'
loop_
_space_group_symop_operation_xyz
x,y,z
-x,1/2-y,1/2+z
x,-y,-z
-x,1/2+y,1/2-z
-x,-y,-z
x,1/2+y,1/2-z
-x,y,z
x,1/2-y,1/2+z
1/2+x,1/2+y,z
1/2-x,-y,1/2+z
1/2+x,1/2-y,-z
1/2-x,y,1/2-z
1/2-x,1/2-y,-z
1/2+x,y,1/2-z
1/2-x,1/2+y,z
1/2+x,-y,1/2+z
loop_
_atom_site_type_symbol
_atom_site_label
_atom_site_fract_x
_atom_site_fract_y
_atom_site_fract_z
Si Si1 0.408776 0.804582 0.989741
Si Si2 0.596298 0.315647 0.194135
Si Si3 0.098324 0.343499 0.176108
Si Si4 0.594930 0.943843 0.415927
Si Si5 0.677363 0.314555 0.914843
Si Si6 0.353587 0.408354 0.619929
O O1 0.500000 0.809861 0.015339
O O2 0.403293 0.680371 0.951969
O O3 0.398323 0.907774 0.941658
O O4 0.339336 0.788941 0.037369
O O5 0.500000 0.340125 0.196575
O O6 0.626379 0.328128 0.258402
O O7 0.629457 0.409587 0.146807
O O8 0.606508 0.182336 0.166346
O O9 0.124102 0.226487 0.139333
O O10 0.142837 0.458715 0.147234
O O11 0.000000 0.360388 0.174078
O O12 0.500000 0.979157 0.412366
O O13 0.642625 0.058873 0.439068
O O14 0.767579 0.345536 0.894950
#
# Coordination Sequence:
#
# PCOD9480528 Si02
#       6
#    16  16  16  16  16  16
#     4  10  21  43  71  93 128 178 226 271 322 398
#     4   9  21  43  69  90 123 173 223 267 320 395
#     4  11  25  44  68  97 130 176 227 272 326 400
#     4   9  19  39  67  94 123 170 226 272 317 385
#     4  12  25  39  63 101 137 170 216 274 334 393
#     4  11  25  43  64  98 138 173 212 276 347 388
#
# _framework density 22.835478999999999
#
# number of rings (size 3 to 8) (size 9 to 14) (size 15 to 20)
#    0.000    1.667    0.000    5.000    7.000    2.667 
#    3.000    1.667    0.000    0.000    0.000    0.000 
#    0.000    0.000    0.000    0.000    0.000    0.000 
#
# Total GULP energy -268289.849860 kJ/mol
# GULP energy per Si atom -5589.371872 kJ/mol
# Density = 2.278350 g / cm^3
# Si number density = 22.835479 Si / 1000 Ang^3
#
#
#
# Elastic Constant Matrix: (Units=GPa)
#
#
# Indices 1 2 3 4 5 6 
#
# 1 70.0387 -8.1295 20.5256 0.0000 0.0000 0.0000
# 2 -8.1295 47.0052 4.4847 0.0000 0.0000 0.0000
# 3 20.5256 4.4847 117.9169 0.0000 0.0000 0.0000
# 4 0.0000 0.0000 0.0000 28.2653 0.0000 0.0000
# 5 0.0000 0.0000 0.0000 0.0000 96.1264 0.0000
# 6 0.0000 0.0000 0.0000 0.0000 0.0000 29.5931
#
#
#
# Elastic Compliance Matrix: (Units=1/GPa)
#
#
# Indices 1 2 3 4 5 6 
#
# 1 0.015439 0.002937 -0.002799 0.000000 0.000000 0.000000
# 2 0.002937 0.021911 -0.001345 0.000000 0.000000 0.000000
# 3 -0.002799 -0.001345 0.009019 0.000000 0.000000 0.000000
# 4 0.000000 0.000000 0.000000 0.035379 0.000000 0.000000
# 5 0.000000 0.000000 0.000000 0.000000 0.010403 0.000000
# 6 0.000000 0.000000 0.000000 0.000000 0.000000 0.033792
#
#
# Mechanical properties :
#
#
# Convention : Reuss Voigt Hill
#
# Bulk Modulus (GPa) = 22.75031 29.85806 26.30418
# Shear Modulus (GPa) = 34.96331 45.33564 40.14947
#
# Velocity S-wave (km/s) = 3.91717 4.46052 4.19765
# Velocity P-wave (km/s) = 5.51754 6.29540 5.91926
#
# Compressibility (1/GPa) = 0.04395545
#
# Stress axis : x y z
#
# Youngs Moduli (GPa) = 64.77075 45.64019 110.87782
#
# Poissons Ratio (x) = -0.13406 0.31037
# Poissons Ratio (y) = -0.19025 0.14909
# Poissons Ratio (z) = 0.18130 0.06137
#
# Static dielectric constant tensor:
#      x y z
#    x 1.861340 0.000000 0.000000 
#    y 0.000000 1.834730 0.000000 
#    z 0.000000 0.000000 1.885490 
# 
# From -- ./inp_files/45715.got.cif
#   From: 2010.05.17/outbox.cif.g08.bks.cpg/sg64_23_cif.got.tgz:45715.got - 2010.06.03 16:29:19.
