data_PCOD9480005
_publ_section_title
;
Structure prediction by ZEFSAII (Michael W. Deem and Ramdas Pophale) SiO2 
 PCOD9480005
Probable space group: C M C A
;
_chemical_formula_sum "Si O2"
_cell_formula_units_Z 80
_cell_length_a 10.969451
_cell_length_b 23.155713
_cell_length_c 13.945729
_cell_angle_alpha 90.000000
_cell_angle_beta 90.000000
_cell_angle_gamma 90.000000
_cell_volume 3542.291297
_symmetry_space_group_name_H-M "C M C A"
_symmetry_group_IT_number 64
_symmetry_cell_setting 'orthorhombic'
loop_
_space_group_symop_operation_xyz
x,y,z
-x,1/2-y,1/2+z
x,-y,-z
-x,1/2+y,1/2-z
-x,-y,-z
x,1/2+y,1/2-z
-x,y,z
x,1/2-y,1/2+z
1/2+x,1/2+y,z
1/2-x,-y,1/2+z
1/2+x,1/2-y,-z
1/2-x,y,1/2-z
1/2-x,1/2-y,-z
1/2+x,y,1/2-z
1/2-x,1/2+y,z
1/2+x,-y,1/2+z
loop_
_atom_site_type_symbol
_atom_site_label
_atom_site_fract_x
_atom_site_fract_y
_atom_site_fract_z
Si Si1 0.633532 0.604806 0.687276
Si Si2 0.190977 0.624323 0.027552
Si Si3 0.134020 0.710224 0.526376
Si Si4 0.859373 0.034128 0.321839
Si Si5 0.128321 0.785727 0.691516
O O1 0.500000 0.617842 0.729310
O O2 0.750000 0.622217 0.750000
O O3 0.638333 0.628871 0.579080
O O4 0.642601 0.535152 0.675905
O O5 0.328550 0.647312 0.010714
O O6 0.171728 0.562447 0.075588
O O7 0.132371 0.667034 0.106259
O O8 0.250000 0.750000 0.500000
O O9 0.129000 0.723690 0.639324
O O10 0.000000 0.726679 0.489179
O O11 0.750000 0.053351 0.250000
O O12 0.000000 0.050733 0.295443
O O13 0.250000 0.793322 0.750000
O O14 0.000000 0.792303 0.744917
#
# Coordination Sequence:
#
# PCOD9480005 Si02
#       5
#    16  16  16  16  16
#     4  10  22  40  60  85 120 162 207 254 303 357
#     4  11  21  36  62  90 118 156 201 248 296 357
#     4   9  21  39  58  83 115 151 193 241 294 353
#     4  10  21  38  61  90 123 160 203 249 301 360
#     4  10  21  38  59  86 119 154 194 241 297 356
#
# _framework density 22.584251999999999
#
# number of rings (size 3 to 8) (size 9 to 14) (size 15 to 20)
#    0.000    2.000    0.000    3.000    0.000    8.800 
#    0.000    2.000    0.000    6.000    0.000    0.000 
#    0.000    0.000    0.000    0.000    0.000    0.000 
#
# Total GULP energy -222946.240271 kJ/mol
# GULP energy per Si atom -5573.656007 kJ/mol
# Density = 2.253285 g / cm^3
# Si number density = 22.584252 Si / 1000 Ang^3
#
#
#
# Elastic Constant Matrix: (Units=GPa)
#
#
# Indices 1 2 3 4 5 6 
#
# 1 253.6792 42.3075 84.5426 0.0000 0.0000 0.0000
# 2 42.3075 53.7546 23.1734 0.0000 0.0000 0.0000
# 3 84.5426 23.1734 100.9307 0.0000 0.0000 0.0000
# 4 0.0000 0.0000 0.0000 38.4566 0.0000 0.0000
# 5 0.0000 0.0000 0.0000 0.0000 23.1358 0.0000
# 6 0.0000 0.0000 0.0000 0.0000 0.0000 26.6448
#
#
#
# Elastic Compliance Matrix: (Units=1/GPa)
#
#
# Indices 1 2 3 4 5 6 
#
# 1 0.005813 -0.002748 -0.004238 0.000000 0.000000 0.000000
# 2 -0.002748 0.021946 -0.002737 0.000000 0.000000 0.000000
# 3 -0.004238 -0.002737 0.014086 0.000000 0.000000 0.000000
# 4 0.000000 0.000000 0.000000 0.026003 0.000000 0.000000
# 5 0.000000 0.000000 0.000000 0.000000 0.043223 0.000000
# 6 0.000000 0.000000 0.000000 0.000000 0.000000 0.037531
#
#
# Mechanical properties :
#
#
# Convention : Reuss Voigt Hill
#
# Bulk Modulus (GPa) = 44.64536 78.71240 61.67888
# Shear Modulus (GPa) = 28.48787 34.87017 31.67902
#
# Velocity S-wave (km/s) = 3.55548 3.93364 3.74933
# Velocity P-wave (km/s) = 6.05529 7.45385 6.79067
#
# Compressibility (1/GPa) = 0.02239875
#
# Stress axis : x y z
#
# Youngs Moduli (GPa) = 172.03965 45.56713 70.99247
#
# Poissons Ratio (x) = 0.12521 0.30086
# Poissons Ratio (y) = 0.47274 0.19431
# Poissons Ratio (z) = 0.72909 0.12472
#
# Static dielectric constant tensor:
#      x y z
#    x 1.904260 0.000000 0.000000 
#    y 0.000000 1.936470 0.000000 
#    z 0.000000 0.000000 1.850020 
# 
# From -- ./inp_files/22532.got.cif
#   From: 2010.05.17/outbox.cif.g08.bks.cpg/sg64_12_cif.got.tgz:22532.got - 2010.06.03 16:29:19.
