data_PCOD9480011
_publ_section_title
;
Structure prediction by ZEFSAII (Michael W. Deem and Ramdas Pophale) SiO2 
 PCOD9480011
Probable space group: C M C A
;
_chemical_formula_sum "Si O2"
_cell_formula_units_Z 56
_cell_length_a 21.673835
_cell_length_b 24.751872
_cell_length_c 5.279294
_cell_angle_alpha 90.000000
_cell_angle_beta 90.000000
_cell_angle_gamma 90.000000
_cell_volume 2832.172239
_symmetry_space_group_name_H-M "C M C A"
_symmetry_group_IT_number 64
_symmetry_cell_setting 'orthorhombic'
loop_
_space_group_symop_operation_xyz
x,y,z
-x,1/2-y,1/2+z
x,-y,-z
-x,1/2+y,1/2-z
-x,-y,-z
x,1/2+y,1/2-z
-x,y,z
x,1/2-y,1/2+z
1/2+x,1/2+y,z
1/2-x,-y,1/2+z
1/2+x,1/2-y,-z
1/2-x,y,1/2-z
1/2-x,1/2-y,-z
1/2+x,y,1/2-z
1/2-x,1/2+y,z
1/2+x,-y,1/2+z
loop_
_atom_site_type_symbol
_atom_site_label
_atom_site_fract_x
_atom_site_fract_y
_atom_site_fract_z
Si Si1 0.927378 0.564656 0.042345
Si Si2 0.640569 0.396508 0.052572
Si Si3 0.250000 0.970161 0.250000
Si Si4 0.679245 0.773658 0.495309
O O1 0.889950 0.585157 0.288312
O O2 0.000000 0.573358 0.086963
O O3 0.918961 0.500000 0.000000
O O4 0.905960 0.596197 0.788986
O O5 0.695965 0.435769 0.126616
O O6 0.671118 0.337332 0.031051
O O7 0.224261 0.000000 0.500000
O O8 0.649566 0.754654 0.754794
O O9 0.750000 0.750000 0.500000
#
# Coordination Sequence:
#
# PCOD9480011 Si02
#       4
#    16  16   8  16
#     4  11  24  43  66  93 127 169 216 259 307 375
#     4  12  23  40  65  92 126 167 210 259 318 380
#     4  12  24  36  56  92 134 162 194 252 324 392
#     4  10  21  38  59  87 119 157 205 250 304 368
#
# _framework density 19.772807
#
# number of rings (size 3 to 8) (size 9 to 14) (size 15 to 20)
#    0.000    0.857    0.000    9.429    0.000    6.857 
#    0.000    0.000    0.000   17.143    0.000    0.000 
#    0.000    0.000    0.000    0.000    0.000    0.000 
#
# Total GULP energy -156318.858530 kJ/mol
# GULP energy per Si atom -5582.816376 kJ/mol
# Density = 1.972780 g / cm^3
# Si number density = 19.772807 Si / 1000 Ang^3
#
#
#
# Elastic Constant Matrix: (Units=GPa)
#
#
# Indices 1 2 3 4 5 6 
#
# 1 103.8536 51.2116 40.7602 0.0000 0.0000 0.0000
# 2 51.2116 144.9875 73.8995 0.0000 0.0000 0.0000
# 3 40.7602 73.8995 203.7609 0.0000 0.0000 0.0000
# 4 0.0000 0.0000 0.0000 29.3913 0.0000 0.0000
# 5 0.0000 0.0000 0.0000 0.0000 19.8777 0.0000
# 6 0.0000 0.0000 0.0000 0.0000 0.0000 29.8841
#
#
#
# Elastic Compliance Matrix: (Units=1/GPa)
#
#
# Indices 1 2 3 4 5 6 
#
# 1 0.011838 -0.003649 -0.001045 0.000000 0.000000 0.000000
# 2 -0.003649 0.009586 -0.002747 0.000000 0.000000 0.000000
# 3 -0.001045 -0.002747 0.006113 0.000000 0.000000 0.000000
# 4 0.000000 0.000000 0.000000 0.034024 0.000000 0.000000
# 5 0.000000 0.000000 0.000000 0.000000 0.050308 0.000000
# 6 0.000000 0.000000 0.000000 0.000000 0.000000 0.033463
#
#
# Mechanical properties :
#
#
# Convention : Reuss Voigt Hill
#
# Bulk Modulus (GPa) = 79.01137 87.14939 83.08038
# Shear Modulus (GPa) = 30.40794 34.94599 32.67696
#
# Velocity S-wave (km/s) = 3.92582 4.20858 4.06965
# Velocity P-wave (km/s) = 7.78433 8.23330 8.01196
#
# Compressibility (1/GPa) = 0.01265641
#
# Stress axis : x y z
#
# Youngs Moduli (GPa) = 84.47140 104.31888 163.58946
#
# Poissons Ratio (x) = 0.38066 0.17091
# Poissons Ratio (y) = 0.30823 0.44933
# Poissons Ratio (z) = 0.08825 0.28653
#
# Static dielectric constant tensor:
#      x y z
#    x 1.674240 0.000000 0.000000 
#    y 0.000000 1.758230 0.000000 
#    z 0.000000 0.000000 1.818300 
# 
# From -- ./inp_files/1575.got.cif
#   From: 2010.05.17/outbox.cif.g08.bks.cpg/sg64_1_cif.got.tgz:1575.got - 2010.06.03 16:29:19.
