data_PCOD9480477
_publ_section_title
;
Structure prediction by ZEFSAII (Michael W. Deem and Ramdas Pophale) SiO2 
 PCOD9480477
Probable space group: C M C A
;
_chemical_formula_sum "Si O2"
_cell_formula_units_Z 64
_cell_length_a 10.745981
_cell_length_b 24.344797
_cell_length_c 12.672793
_cell_angle_alpha 90.000000
_cell_angle_beta 90.000000
_cell_angle_gamma 90.000000
_cell_volume 3315.313232
_symmetry_space_group_name_H-M "C M C A"
_symmetry_group_IT_number 64
_symmetry_cell_setting 'orthorhombic'
loop_
_space_group_symop_operation_xyz
x,y,z
-x,1/2-y,1/2+z
x,-y,-z
-x,1/2+y,1/2-z
-x,-y,-z
x,1/2+y,1/2-z
-x,y,z
x,1/2-y,1/2+z
1/2+x,1/2+y,z
1/2-x,-y,1/2+z
1/2+x,1/2-y,-z
1/2-x,y,1/2-z
1/2-x,1/2-y,-z
1/2+x,y,1/2-z
1/2-x,1/2+y,z
1/2+x,-y,1/2+z
loop_
_atom_site_type_symbol
_atom_site_label
_atom_site_fract_x
_atom_site_fract_y
_atom_site_fract_z
Si Si1 0.770251 0.062706 0.479028
Si Si2 0.250000 0.387978 0.750000
Si Si3 0.134640 0.907869 0.178505
Si Si4 0.000000 0.819352 0.706215
Si Si5 0.500000 0.141107 0.974978
Si Si6 0.500000 0.191138 0.745481
O O1 0.745952 0.075913 0.356679
O O2 0.657492 0.076261 0.558084
O O3 0.879953 0.102521 0.517509
O O4 0.805340 0.000000 0.500000
O O5 0.375130 0.350829 0.744294
O O6 0.250000 0.926035 0.250000
O O7 0.000000 0.930445 0.215349
O O8 0.115097 0.842053 0.192165
O O9 0.000000 0.822195 0.579251
O O10 0.000000 0.755729 0.735989
O O11 0.500000 0.174490 0.867695
#
# Coordination Sequence:
#
# PCOD9480477 Si02
#       6
#    16   8  16   8   8   8
#     4  11  23  41  65  90 128 173 205 269 317 371
#     4  10  26  42  58  94 132 156 216 256 322 388
#     4  10  22  39  63  98 125 153 223 260 302 380
#     4  10  24  41  62  89 128 167 196 266 332 368
#     4  10  21  42  60  94 126 164 221 249 312 406
#     4  10  22  39  70  87 124 163 211 262 313 373
#
# _framework density 19.304361
#
# number of rings (size 3 to 8) (size 9 to 14) (size 15 to 20)
#    0.750    1.000    2.500    0.375    5.250    2.500 
#    0.000    5.000    0.000    0.000    0.000    0.000 
#    0.000    0.000    0.000    0.000    0.000    0.000 
#
# Total GULP energy -178441.369569 kJ/mol
# GULP energy per Si atom -5576.292799 kJ/mol
# Density = 1.926042 g / cm^3
# Si number density = 19.304361 Si / 1000 Ang^3
#
#
#
# Elastic Constant Matrix: (Units=GPa)
#
#
# Indices 1 2 3 4 5 6 
#
# 1 106.2208 14.3433 32.4091 0.0000 0.0000 0.0000
# 2 14.3433 116.3091 75.0598 0.0000 0.0000 0.0000
# 3 32.4091 75.0598 133.3339 0.0000 0.0000 0.0000
# 4 0.0000 0.0000 0.0000 15.4346 0.0000 0.0000
# 5 0.0000 0.0000 0.0000 0.0000 48.5617 0.0000
# 6 0.0000 0.0000 0.0000 0.0000 0.0000 28.6542
#
#
#
# Elastic Compliance Matrix: (Units=1/GPa)
#
#
# Indices 1 2 3 4 5 6 
#
# 1 0.010190 0.000537 -0.002779 0.000000 0.000000 0.000000
# 2 0.000537 0.013532 -0.007748 0.000000 0.000000 0.000000
# 3 -0.002779 -0.007748 0.012537 0.000000 0.000000 0.000000
# 4 0.000000 0.000000 0.000000 0.064790 0.000000 0.000000
# 5 0.000000 0.000000 0.000000 0.000000 0.020592 0.000000
# 6 0.000000 0.000000 0.000000 0.000000 0.000000 0.034899
#
#
# Mechanical properties :
#
#
# Convention : Reuss Voigt Hill
#
# Bulk Modulus (GPa) = 61.43209 66.60980 64.02095
# Shear Modulus (GPa) = 27.48061 34.13354 30.80707
#
# Velocity S-wave (km/s) = 3.77708 4.20953 3.99916
# Velocity P-wave (km/s) = 7.13539 7.62934 7.38650
#
# Compressibility (1/GPa) = 0.01627814
#
# Stress axis : x y z
#
# Youngs Moduli (GPa) = 98.13775 73.89970 79.76227
#
# Poissons Ratio (x) = -0.03967 0.22166
# Poissons Ratio (y) = -0.05268 0.61801
# Poissons Ratio (z) = 0.27272 0.57259
#
# Static dielectric constant tensor:
#      x y z
#    x 1.705040 0.000000 0.000000 
#    y 0.000000 1.643760 0.000000 
#    z 0.000000 0.000000 1.677110 
# 
# From -- ./inp_files/12987.got.cif
#   From: 2010.05.17/outbox.cif.g08.bks.cpg/sg64_7_cif.got.tgz:12987.got - 2010.06.03 16:29:19.
