data_PCOD9480687
_publ_section_title
;
Structure prediction by ZEFSAII (Michael W. Deem and Ramdas Pophale) SiO2 
 PCOD9480687
Probable space group: C M C A
;
_chemical_formula_sum "Si O2"
_cell_formula_units_Z 68
_cell_length_a 20.204837
_cell_length_b 19.269249
_cell_length_c 7.663643
_cell_angle_alpha 90.000000
_cell_angle_beta 90.000000
_cell_angle_gamma 90.000000
_cell_volume 2983.701726
_symmetry_space_group_name_H-M "C M C A"
_symmetry_group_IT_number 64
_symmetry_cell_setting 'orthorhombic'
loop_
_space_group_symop_operation_xyz
x,y,z
-x,1/2-y,1/2+z
x,-y,-z
-x,1/2+y,1/2-z
-x,-y,-z
x,1/2+y,1/2-z
-x,y,z
x,1/2-y,1/2+z
1/2+x,1/2+y,z
1/2-x,-y,1/2+z
1/2+x,1/2-y,-z
1/2-x,y,1/2-z
1/2-x,1/2-y,-z
1/2+x,y,1/2-z
1/2-x,1/2+y,z
1/2+x,-y,1/2+z
loop_
_atom_site_type_symbol
_atom_site_label
_atom_site_fract_x
_atom_site_fract_y
_atom_site_fract_z
Si Si1 0.632545 0.420124 0.011236
Si Si2 0.000000 0.500000 0.000000
Si Si3 0.395549 0.620113 0.587642
Si Si4 0.000000 0.637527 0.383235
Si Si5 0.000000 0.778432 0.525461
Si Si6 0.754939 0.668704 0.959774
O O1 0.615164 0.401050 0.211227
O O2 0.565628 0.407874 0.902054
O O3 0.692791 0.370832 0.957448
O O4 0.652485 0.500000 0.000000
O O5 0.942294 0.560815 0.990212
O O6 0.435159 0.692467 0.571444
O O7 0.325053 0.633287 0.496350
O O8 0.000000 0.695955 0.533650
O O9 0.000000 0.684226 0.211735
O O10 0.750000 0.661619 0.750000
O O11 0.750000 0.750000 0.000000
#
# Coordination Sequence:
#
# PCOD9480687 Si02
#       6
#    16   4  16   8   8  16
#     4  11  25  42  66  96 137 178 216 281 342 405
#     4  10  22  38  68  90 134 170 216 270 326 388
#     4  10  23  42  65  94 135 169 227 270 336 399
#     4  12  24  41  66  95 133 172 230 271 345 391
#     4  11  24  41  67  98 125 179 226 286 323 401
#     4  10  23  45  67  96 132 174 223 280 336 406
#
# _framework density 22.790481
#
# number of rings (size 3 to 8) (size 9 to 14) (size 15 to 20)
#    0.000    1.412    0.000    4.588    8.235    5.647 
#    0.000    0.000    0.000    0.000    0.000    0.000 
#    0.000    0.000    0.000    0.000    0.000    0.000 
#
# Total GULP energy -189779.760920 kJ/mol
# GULP energy per Si atom -5581.757674 kJ/mol
# Density = 2.273861 g / cm^3
# Si number density = 22.790481 Si / 1000 Ang^3
#
#
#
# Elastic Constant Matrix: (Units=GPa)
#
#
# Indices 1 2 3 4 5 6 
#
# 1 203.5680 77.4649 13.8989 0.0000 0.0000 0.0000
# 2 77.4649 144.6991 -9.2453 0.0000 0.0000 0.0000
# 3 13.8989 -9.2453 62.4821 0.0000 0.0000 0.0000
# 4 0.0000 0.0000 0.0000 18.7905 0.0000 0.0000
# 5 0.0000 0.0000 0.0000 0.0000 0.8063 0.0000
# 6 0.0000 0.0000 0.0000 0.0000 0.0000 34.3839
#
#
#
# Elastic Compliance Matrix: (Units=1/GPa)
#
#
# Indices 1 2 3 4 5 6 
#
# 1 0.006396 -0.003548 -0.001948 0.000000 0.000000 0.000000
# 2 -0.003548 0.008946 0.002113 0.000000 0.000000 0.000000
# 3 -0.001948 0.002113 0.016751 0.000000 0.000000 0.000000
# 4 0.000000 0.000000 0.000000 0.053218 0.000000 0.000000
# 5 0.000000 0.000000 0.000000 0.000000 1.240223 0.000000
# 6 0.000000 0.000000 0.000000 0.000000 0.000000 0.029083
#
#
# Mechanical properties :
#
#
# Convention : Reuss Voigt Hill
#
# Bulk Modulus (GPa) = 39.48604 63.88736 51.68670
# Shear Modulus (GPa) = 3.65010 32.70484 18.17747
#
# Velocity S-wave (km/s) = 1.26691 3.79228 2.82723
# Velocity P-wave (km/s) = 4.41626 6.87521 5.77806
#
# Compressibility (1/GPa) = 0.02532541
#
# Stress axis : x y z
#
# Youngs Moduli (GPa) = 156.35691 111.78788 59.69969
#
# Poissons Ratio (x) = 0.39666 0.11628
# Poissons Ratio (y) = 0.55481 -0.12614
# Poissons Ratio (z) = 0.30454 -0.23620
#
# Static dielectric constant tensor:
#      x y z
#    x 1.838810 0.000000 0.000000 
#    y 0.000000 1.786960 0.000000 
#    z 0.000000 0.000000 1.925820 
# 
# From -- ./inp_files/6737.got.cif
#   From: 2010.05.17/outbox.cif.g08.bks.cpg/sg64_4_cif.got.tgz:6737.got - 2010.06.03 16:29:19.
