data_PCOD9480238
_publ_section_title
;
Structure prediction by ZEFSAII (Michael W. Deem and Ramdas Pophale) SiO2 
 PCOD9480238
Probable space group: C M C A
;
_chemical_formula_sum "Si O2"
_cell_formula_units_Z 80
_cell_length_a 24.995565
_cell_length_b 15.049434
_cell_length_c 9.020622
_cell_angle_alpha 90.000000
_cell_angle_beta 90.000000
_cell_angle_gamma 90.000000
_cell_volume 3393.279311
_symmetry_space_group_name_H-M "C M C A"
_symmetry_group_IT_number 64
_symmetry_cell_setting 'orthorhombic'
loop_
_space_group_symop_operation_xyz
x,y,z
-x,1/2-y,1/2+z
x,-y,-z
-x,1/2+y,1/2-z
-x,-y,-z
x,1/2+y,1/2-z
-x,y,z
x,1/2-y,1/2+z
1/2+x,1/2+y,z
1/2-x,-y,1/2+z
1/2+x,1/2-y,-z
1/2-x,y,1/2-z
1/2-x,1/2-y,-z
1/2+x,y,1/2-z
1/2-x,1/2+y,z
1/2+x,-y,1/2+z
loop_
_atom_site_type_symbol
_atom_site_label
_atom_site_fract_x
_atom_site_fract_y
_atom_site_fract_z
Si Si1 0.558998 0.123136 0.592994
Si Si2 0.658143 0.910196 0.912675
Si Si3 0.298894 0.297189 0.329895
Si Si4 0.829472 0.968246 0.153127
Si Si5 0.909270 0.294269 0.721410
O O1 0.500000 0.083793 0.610417
O O2 0.607426 0.055996 0.631268
O O3 0.564196 0.206820 0.706799
O O4 0.565273 0.160231 0.423668
O O5 0.605041 0.858498 0.859195
O O6 0.681838 0.953167 0.765797
O O7 0.696473 0.848372 0.012788
O O8 0.643044 0.000000 0.000000
O O9 0.250000 0.248199 0.250000
O O10 0.306652 0.376508 0.211416
O O11 0.350549 0.235811 0.332517
O O12 0.806067 0.000000 0.000000
#
# Coordination Sequence:
#
# PCOD9480238 Si02
#       5
#    16  16  16  16  16
#     4  11  23  40  65  96 129 178 231 273 337 401
#     4  10  21  41  63  89 135 167 210 276 333 391
#     4  10  23  41  65  95 125 172 223 270 339 408
#     4  10  21  39  64  90 132 173 211 278 333 387
#     4  11  21  42  65  91 132 172 218 290 329 393
#
# _framework density 23.576014000000001
#
# number of rings (size 3 to 8) (size 9 to 14) (size 15 to 20)
#    0.000    1.600    4.000    0.600    0.000    3.600 
#    0.000    4.000    0.000    5.400    0.000    0.000 
#    0.000    0.000    0.000    0.000    0.000    0.000 
#
# Total GULP energy -223385.742759 kJ/mol
# GULP energy per Si atom -5584.643569 kJ/mol
# Density = 2.352235 g / cm^3
# Si number density = 23.576014 Si / 1000 Ang^3
#
#
#
# Elastic Constant Matrix: (Units=GPa)
#
#
# Indices 1 2 3 4 5 6 
#
# 1 103.0650 5.4092 22.1629 0.0000 0.0000 0.0000
# 2 5.4092 68.5502 23.9256 0.0000 0.0000 0.0000
# 3 22.1629 23.9256 135.4411 0.0000 0.0000 0.0000
# 4 0.0000 0.0000 0.0000 22.6605 0.0000 0.0000
# 5 0.0000 0.0000 0.0000 0.0000 24.1024 0.0000
# 6 0.0000 0.0000 0.0000 0.0000 0.0000 3.1726
#
#
#
# Elastic Compliance Matrix: (Units=1/GPa)
#
#
# Indices 1 2 3 4 5 6 
#
# 1 0.010060 -0.000234 -0.001605 0.000000 0.000000 0.000000
# 2 -0.000234 0.015552 -0.002709 0.000000 0.000000 0.000000
# 3 -0.001605 -0.002709 0.008124 0.000000 0.000000 0.000000
# 4 0.000000 0.000000 0.000000 0.044130 0.000000 0.000000
# 5 0.000000 0.000000 0.000000 0.000000 0.041490 0.000000
# 6 0.000000 0.000000 0.000000 0.000000 0.000000 0.315199
#
#
# Mechanical properties :
#
#
# Convention : Reuss Voigt Hill
#
# Bulk Modulus (GPa) = 40.58258 45.56132 43.07195
# Shear Modulus (GPa) = 11.06530 27.02435 19.04483
#
# Velocity S-wave (km/s) = 2.16879 3.38933 2.84527
# Velocity P-wave (km/s) = 4.84999 5.88931 5.39474
#
# Compressibility (1/GPa) = 0.02464112
#
# Stress axis : x y z
#
# Youngs Moduli (GPa) = 99.40363 64.30135 123.08548
#
# Poissons Ratio (x) = 0.01503 0.19754
# Poissons Ratio (y) = 0.02323 0.33343
# Poissons Ratio (z) = 0.15953 0.17419
#
# Static dielectric constant tensor:
#      x y z
#    x 1.913170 0.000000 0.000000 
#    y 0.000000 1.917810 0.000000 
#    z 0.000000 0.000000 2.020170 
# 
# From -- ./inp_files/10191.got.cif
#   From: 2010.05.17/outbox.cif.g08.bks.cpg/sg64_6_cif.got.tgz:10191.got - 2010.06.03 16:29:19.
