data_PCOD9480273
_publ_section_title
;
Structure prediction by ZEFSAII (Michael W. Deem and Ramdas Pophale) SiO2 
 PCOD9480273
Probable space group: C M C A
;
_chemical_formula_sum "Si O2"
_cell_formula_units_Z 112
_cell_length_a 18.094567
_cell_length_b 10.680177
_cell_length_c 27.303366
_cell_angle_alpha 90.000000
_cell_angle_beta 90.000000
_cell_angle_gamma 90.000000
_cell_volume 5276.462258
_symmetry_space_group_name_H-M "C M C A"
_symmetry_group_IT_number 64
_symmetry_cell_setting 'orthorhombic'
loop_
_space_group_symop_operation_xyz
x,y,z
-x,1/2-y,1/2+z
x,-y,-z
-x,1/2+y,1/2-z
-x,-y,-z
x,1/2+y,1/2-z
-x,y,z
x,1/2-y,1/2+z
1/2+x,1/2+y,z
1/2-x,-y,1/2+z
1/2+x,1/2-y,-z
1/2-x,y,1/2-z
1/2-x,1/2-y,-z
1/2+x,y,1/2-z
1/2-x,1/2+y,z
1/2+x,-y,1/2+z
loop_
_atom_site_type_symbol
_atom_site_label
_atom_site_fract_x
_atom_site_fract_y
_atom_site_fract_z
Si Si1 0.230533 0.371506 0.468289
Si Si2 0.321200 0.594064 0.629999
Si Si3 0.079837 0.000521 0.766388
Si Si4 0.703643 0.180115 0.705845
Si Si5 0.918263 0.550262 0.555284
Si Si6 0.584712 0.842827 0.634560
Si Si7 0.414315 0.362840 0.663930
O O1 0.230145 0.500000 0.500000
O O2 0.250000 0.250000 0.500000
O O3 0.284604 0.395637 0.423140
O O4 0.147927 0.352345 0.446642
O O5 0.257308 0.597476 0.671452
O O6 0.365304 0.722416 0.637914
O O7 0.376652 0.477050 0.634392
O O8 0.147009 0.094189 0.764435
O O9 0.000000 0.068043 0.768277
O O10 0.087291 0.919950 0.815361
O O11 0.079864 0.913323 0.719480
O O12 0.750000 0.247524 0.750000
O O13 0.649457 0.257939 0.669840
O O14 0.925184 0.500000 0.500000
O O15 0.894703 0.436967 0.590754
O O16 0.000000 0.592943 0.571308
O O17 0.500000 0.803991 0.625757
O O18 0.500000 0.332630 0.648981
#
# Coordination Sequence:
#
# PCOD9480273 Si02
#       7
#    16  16  16  16  16  16  16
#     4  11  25  44  70 101 133 171 221 280 346 411
#     4  12  25  40  71  94 134 170 222 277 335 400
#     4  10  22  41  62  90 129 176 223 271 324 393
#     4  12  25  38  64  98 136 171 225 278 332 392
#     4   9  18  36  64  94 123 158 211 270 326 390
#     4  10  21  39  66  97 127 170 224 271 327 399
#     4  11  26  44  63  91 137 183 221 270 340 408
#
# _framework density 21.226344000000001
#
# number of rings (size 3 to 8) (size 9 to 14) (size 15 to 20)
#    0.000    1.286    1.429    4.286    8.000    0.000 
#    0.000    1.429    0.000    2.143    0.000    0.000 
#    0.000    0.000    0.000    0.000    0.000    0.000 
#
# Total GULP energy -312804.412966 kJ/mol
# GULP energy per Si atom -5585.793089 kJ/mol
# Density = 2.117803 g / cm^3
# Si number density = 21.226344 Si / 1000 Ang^3
#
#
#
# Elastic Constant Matrix: (Units=GPa)
#
#
# Indices 1 2 3 4 5 6 
#
# 1 121.4275 38.5208 5.5348 0.0000 0.0000 0.0000
# 2 38.5208 51.4303 6.7324 0.0000 0.0000 0.0000
# 3 5.5348 6.7324 75.5631 0.0000 0.0000 0.0000
# 4 0.0000 0.0000 0.0000 26.6220 0.0000 0.0000
# 5 0.0000 0.0000 0.0000 0.0000 23.7620 0.0000
# 6 0.0000 0.0000 0.0000 0.0000 0.0000 39.6480
#
#
#
# Elastic Compliance Matrix: (Units=1/GPa)
#
#
# Indices 1 2 3 4 5 6 
#
# 1 0.010802 -0.008082 -0.000071 0.000000 0.000000 0.000000
# 2 -0.008082 0.025719 -0.001700 0.000000 0.000000 0.000000
# 3 -0.000071 -0.001700 0.013391 0.000000 0.000000 0.000000
# 4 0.000000 0.000000 0.000000 0.037563 0.000000 0.000000
# 5 0.000000 0.000000 0.000000 0.000000 0.042084 0.000000
# 6 0.000000 0.000000 0.000000 0.000000 0.000000 0.025222
#
#
# Mechanical properties :
#
#
# Convention : Reuss Voigt Hill
#
# Bulk Modulus (GPa) = 33.10420 38.88855 35.99637
# Shear Modulus (GPa) = 27.09223 31.18194 29.13709
#
# Velocity S-wave (km/s) = 3.57648 3.83694 3.70900
# Velocity P-wave (km/s) = 5.71704 6.16361 5.94452
#
# Compressibility (1/GPa) = 0.03020765
#
# Stress axis : x y z
#
# Youngs Moduli (GPa) = 92.57251 38.88138 74.67919
#
# Poissons Ratio (x) = 0.31422 0.00532
# Poissons Ratio (y) = 0.74813 0.12692
# Poissons Ratio (z) = 0.00659 0.06608
#
# Static dielectric constant tensor:
#      x y z
#    x 1.848460 0.000000 0.000000 
#    y 0.000000 1.754580 0.000000 
#    z 0.000000 0.000000 2.394630 
# 
# From -- ./inp_files/53282.got.cif
#   From: 2010.05.17/outbox.cif.g08.bks.cpg/sg64_27_cif.got.tgz:53282.got - 2010.06.03 16:29:19.
