data_PCOD9480209
_publ_section_title
;
Structure prediction by ZEFSAII (Michael W. Deem and Ramdas Pophale) SiO2 
 PCOD9480209
Probable space group: C M C A
;
_chemical_formula_sum "Si O2"
_cell_formula_units_Z 48
_cell_length_a 26.714459
_cell_length_b 15.595786
_cell_length_c 5.234641
_cell_angle_alpha 90.000000
_cell_angle_beta 90.000000
_cell_angle_gamma 90.000000
_cell_volume 2180.924109
_symmetry_space_group_name_H-M "C M C A"
_symmetry_group_IT_number 64
_symmetry_cell_setting 'orthorhombic'
loop_
_space_group_symop_operation_xyz
x,y,z
-x,1/2-y,1/2+z
x,-y,-z
-x,1/2+y,1/2-z
-x,-y,-z
x,1/2+y,1/2-z
-x,y,z
x,1/2-y,1/2+z
1/2+x,1/2+y,z
1/2-x,-y,1/2+z
1/2+x,1/2-y,-z
1/2-x,y,1/2-z
1/2-x,1/2-y,-z
1/2+x,y,1/2-z
1/2-x,1/2+y,z
1/2+x,-y,1/2+z
loop_
_atom_site_type_symbol
_atom_site_label
_atom_site_fract_x
_atom_site_fract_y
_atom_site_fract_z
Si Si1 0.193996 0.715918 0.448391
Si Si2 0.942756 0.308996 0.817329
Si Si3 0.644969 0.055633 0.248374
O O1 0.170541 0.776615 0.229637
O O2 0.250000 0.750000 0.500000
O O3 0.188412 0.621983 0.333679
O O4 0.936933 0.253224 0.560123
O O5 0.902740 0.385132 0.816240
O O6 0.000000 0.342223 0.822922
O O7 0.634164 0.000000 0.500000
O O8 0.658159 0.000000 0.000000
#
# Coordination Sequence:
#
# PCOD9480209 Si02
#       3
#    16  16  16
#     4  10  21  41  65  85 113 162 208 248 306 382
#     4  10  21  39  63  89 123 173 221 253 299 380
#     4  12  24  38  61  95 130 160 203 268 328 372
#
# _framework density 22.00902
#
# number of rings (size 3 to 8) (size 9 to 14) (size 15 to 20)
#    0.000    1.333    0.000    6.000    0.000    1.333 
#    0.000   13.333    0.000    0.000    0.000    0.000 
#    0.000    0.000    0.000    0.000    0.000    0.000 
#
# Total GULP energy -134142.165613 kJ/mol
# GULP energy per Si atom -5589.256901 kJ/mol
# Density = 2.195893 g / cm^3
# Si number density = 22.009020 Si / 1000 Ang^3
#
#
#
# Elastic Constant Matrix: (Units=GPa)
#
#
# Indices 1 2 3 4 5 6 
#
# 1 121.3480 49.6838 25.1261 0.0000 0.0000 0.0000
# 2 49.6838 127.1814 63.9816 0.0000 0.0000 0.0000
# 3 25.1261 63.9816 210.9810 0.0000 0.0000 0.0000
# 4 0.0000 0.0000 0.0000 55.8651 0.0000 0.0000
# 5 0.0000 0.0000 0.0000 0.0000 26.7041 0.0000
# 6 0.0000 0.0000 0.0000 0.0000 0.0000 20.8377
#
#
#
# Elastic Compliance Matrix: (Units=1/GPa)
#
#
# Indices 1 2 3 4 5 6 
#
# 1 0.009810 -0.003829 -0.000007 0.000000 0.000000 0.000000
# 2 -0.003829 0.010773 -0.002811 0.000000 0.000000 0.000000
# 3 -0.000007 -0.002811 0.005593 0.000000 0.000000 0.000000
# 4 0.000000 0.000000 0.000000 0.017900 0.000000 0.000000
# 5 0.000000 0.000000 0.000000 0.000000 0.037447 0.000000
# 6 0.000000 0.000000 0.000000 0.000000 0.000000 0.047990
#
#
# Mechanical properties :
#
#
# Convention : Reuss Voigt Hill
#
# Bulk Modulus (GPa) = 77.62795 81.89926 79.76361
# Shear Modulus (GPa) = 33.99035 42.06262 38.02648
#
# Velocity S-wave (km/s) = 3.93413 4.37642 4.16115
# Velocity P-wave (km/s) = 7.48225 7.92653 7.70759
#
# Compressibility (1/GPa) = 0.01288196
#
# Stress axis : x y z
#
# Youngs Moduli (GPa) = 101.93876 92.82867 178.79333
#
# Poissons Ratio (x) = 0.35540 0.00129
# Poissons Ratio (y) = 0.39028 0.50257
# Poissons Ratio (z) = 0.00074 0.26093
#
# Static dielectric constant tensor:
#      x y z
#    x 1.965280 0.000000 0.000000 
#    y 0.000000 1.798000 0.000000 
#    z 0.000000 0.000000 1.910110 
# 
# From -- ./inp_files/2543.got.cif
#   From: 2010.05.17/outbox.cif.g08.bks.cpg/sg64_2_cif.got.tgz:2543.got - 2010.06.03 16:29:19.
