data_PCOD9480310
_publ_section_title
;
Structure prediction by ZEFSAII (Michael W. Deem and Ramdas Pophale) SiO2 
 PCOD9480310
Probable space group: C M C A
;
_chemical_formula_sum "Si O2"
_cell_formula_units_Z 72
_cell_length_a 20.571699
_cell_length_b 18.776806
_cell_length_c 7.138629
_cell_angle_alpha 90.000000
_cell_angle_beta 90.000000
_cell_angle_gamma 90.000000
_cell_volume 2757.443943
_symmetry_space_group_name_H-M "C M C A"
_symmetry_group_IT_number 64
_symmetry_cell_setting 'orthorhombic'
loop_
_space_group_symop_operation_xyz
x,y,z
-x,1/2-y,1/2+z
x,-y,-z
-x,1/2+y,1/2-z
-x,-y,-z
x,1/2+y,1/2-z
-x,y,z
x,1/2-y,1/2+z
1/2+x,1/2+y,z
1/2-x,-y,1/2+z
1/2+x,1/2-y,-z
1/2-x,y,1/2-z
1/2-x,1/2-y,-z
1/2+x,y,1/2-z
1/2-x,1/2+y,z
1/2+x,-y,1/2+z
loop_
_atom_site_type_symbol
_atom_site_label
_atom_site_fract_x
_atom_site_fract_y
_atom_site_fract_z
Si Si1 0.107265 0.186537 0.985192
Si Si2 0.429758 0.443714 0.751820
Si Si3 0.321273 0.500000 0.000000
Si Si4 0.245836 0.150444 0.966858
Si Si5 0.392596 0.156954 0.951470
O O1 0.183807 0.192599 0.045757
O O2 0.106257 0.157771 0.773107
O O3 0.079299 0.265868 0.991893
O O4 0.075722 0.127847 0.118576
O O5 0.500000 0.477709 0.781898
O O6 0.369448 0.490393 0.822896
O O7 0.424605 0.411776 0.544069
O O8 0.277246 0.569032 0.983319
O O9 0.250000 0.170608 0.750000
O O10 0.319115 0.155366 0.034842
#
# Coordination Sequence:
#
# PCOD9480310 Si02
#       5
#    16  16   8  16  16
#     4  10  21  40  61  97 133 164 208 263 325 389
#     4  11  25  43  65  90 129 179 223 265 311 382
#     4  10  23  42  64  92 125 170 216 276 324 378
#     4   9  21  36  62  95 129 162 207 268 327 389
#     4  11  21  40  65  99 130 167 208 262 333 388
#
# _framework density 26.111139000000001
#
# number of rings (size 3 to 8) (size 9 to 14) (size 15 to 20)
#    0.000    1.778    2.222    1.000    3.111    4.444 
#    0.000    0.000    0.000   13.333    0.000    0.000 
#    0.000    0.000    0.000    0.000    0.000    0.000 
#
# Total GULP energy -201642.510331 kJ/mol
# GULP energy per Si atom -5601.180843 kJ/mol
# Density = 2.605171 g / cm^3
# Si number density = 26.111139 Si / 1000 Ang^3
#
#
#
# Elastic Constant Matrix: (Units=GPa)
#
#
# Indices 1 2 3 4 5 6 
#
# 1 109.6610 8.5437 8.3030 0.0000 0.0000 0.0000
# 2 8.5437 126.3630 -5.4466 0.0000 0.0000 0.0000
# 3 8.3030 -5.4466 127.0147 0.0000 0.0000 0.0000
# 4 0.0000 0.0000 0.0000 35.1932 0.0000 0.0000
# 5 0.0000 0.0000 0.0000 0.0000 16.3271 0.0000
# 6 0.0000 0.0000 0.0000 0.0000 0.0000 -59.7993
#
#
#
# Elastic Compliance Matrix: (Units=1/GPa)
#
#
# Indices 1 2 3 4 5 6 
#
# 1 0.009217 -0.000650 -0.000630 0.000000 0.000000 0.000000
# 2 -0.000650 0.007974 0.000384 0.000000 0.000000 0.000000
# 3 -0.000630 0.000384 0.007931 0.000000 0.000000 0.000000
# 4 0.000000 0.000000 0.000000 0.028415 0.000000 0.000000
# 5 0.000000 0.000000 0.000000 0.000000 0.061248 0.000000
# 6 0.000000 0.000000 0.000000 0.000000 0.000000 -0.016723
#
#
# Mechanical properties :
#
#
# Convention : Reuss Voigt Hill
#
# Bulk Modulus (GPa) = 42.86371 42.87100 42.86735
# Shear Modulus (GPa) = 46.45476 21.78677 34.12077
#
# Velocity S-wave (km/s) = 4.22253 2.89171 3.61882
# Velocity P-wave (km/s) = 6.34228 5.25391 5.82358
#
# Compressibility (1/GPa) = 0.02332976
#
# Stress axis : x y z
#
# Youngs Moduli (GPa) = 108.49024 125.40356 126.09062
#
# Poissons Ratio (x) = 0.08156 0.07949
# Poissons Ratio (y) = 0.07056 -0.04848
# Poissons Ratio (z) = 0.06840 -0.04821
#
# Static dielectric constant tensor:
#      x y z
#    x 2.060390 0.000000 0.000000 
#    y 0.000000 2.046110 0.000000 
#    z 0.000000 0.000000 2.026860 
# 
# From -- ./inp_files/8039.got.cif
#   From: 2010.05.17/outbox.cif.g08.bks.cpg/sg64_5_cif.got.tgz:8039.got - 2010.06.03 16:29:19.
