data_PCOD9480703
_publ_section_title
;
Structure prediction by ZEFSAII (Michael W. Deem and Ramdas Pophale) SiO2 
 PCOD9480703
Probable space group: C M C A
;
_chemical_formula_sum "Si O2"
_cell_formula_units_Z 64
_cell_length_a 17.375137
_cell_length_b 12.933381
_cell_length_c 14.425588
_cell_angle_alpha 90.000000
_cell_angle_beta 90.000000
_cell_angle_gamma 90.000000
_cell_volume 3241.707558
_symmetry_space_group_name_H-M "C M C A"
_symmetry_group_IT_number 64
_symmetry_cell_setting 'orthorhombic'
loop_
_space_group_symop_operation_xyz
x,y,z
-x,1/2-y,1/2+z
x,-y,-z
-x,1/2+y,1/2-z
-x,-y,-z
x,1/2+y,1/2-z
-x,y,z
x,1/2-y,1/2+z
1/2+x,1/2+y,z
1/2-x,-y,1/2+z
1/2+x,1/2-y,-z
1/2-x,y,1/2-z
1/2-x,1/2-y,-z
1/2+x,y,1/2-z
1/2-x,1/2+y,z
1/2+x,-y,1/2+z
loop_
_atom_site_type_symbol
_atom_site_label
_atom_site_fract_x
_atom_site_fract_y
_atom_site_fract_z
Si Si1 0.838329 0.456317 0.277922
Si Si2 0.087792 0.906340 0.925076
Si Si3 0.092208 0.958442 0.597831
Si Si4 0.906798 0.723157 0.595349
O O1 0.750000 0.450374 0.250000
O O2 0.857789 0.555217 0.343260
O O3 0.884617 0.470610 0.183123
O O4 0.866852 0.357187 0.335604
O O5 0.000000 0.893012 0.889723
O O6 0.110261 0.809170 0.988541
O O7 0.085710 0.000000 0.000000
O O8 0.117333 0.840296 0.613514
O O9 0.000000 0.955545 0.591772
O O10 0.123023 0.000000 0.500000
O O11 0.000000 0.712764 0.605244
#
# Coordination Sequence:
#
# PCOD9480703 Si02
#       4
#    16  16  16  16
#     4  11  22  35  55  86 119 150 183 225 281 347
#     4   8  15  32  57  80 103 140 195 241 268 313
#     4  10  22  39  58  84 116 147 187 238 284 328
#     4   9  19  38  63  84 105 145 197 241 279 323
#
# _framework density 19.742681999999999
#
# number of rings (size 3 to 8) (size 9 to 14) (size 15 to 20)
#    0.000    2.500    0.000    3.750    0.000    6.000 
#    0.000    7.500    0.000    0.000    0.000    0.000 
#    0.000    0.000    0.000    0.000    0.000    0.000 
#
# Total GULP energy -178571.405524 kJ/mol
# GULP energy per Si atom -5580.356423 kJ/mol
# Density = 1.969775 g / cm^3
# Si number density = 19.742682 Si / 1000 Ang^3
#
#
#
# Elastic Constant Matrix: (Units=GPa)
#
#
# Indices 1 2 3 4 5 6 
#
# 1 49.2646 36.8322 44.4639 0.0000 0.0000 0.0000
# 2 36.8322 83.2389 50.2824 0.0000 0.0000 0.0000
# 3 44.4639 50.2824 130.0439 0.0000 0.0000 0.0000
# 4 0.0000 0.0000 0.0000 24.4083 0.0000 0.0000
# 5 0.0000 0.0000 0.0000 0.0000 -84.2026 0.0000
# 6 0.0000 0.0000 0.0000 0.0000 0.0000 0.5437
#
#
#
# Elastic Compliance Matrix: (Units=1/GPa)
#
#
# Indices 1 2 3 4 5 6 
#
# 1 0.035694 -0.010989 -0.007956 0.000000 0.000000 0.000000
# 2 -0.010989 0.019058 -0.003612 0.000000 0.000000 0.000000
# 3 -0.007956 -0.003612 0.011806 0.000000 0.000000 0.000000
# 4 0.000000 0.000000 0.000000 0.040970 0.000000 0.000000
# 5 0.000000 0.000000 0.000000 0.000000 -0.011876 0.000000
# 6 0.000000 0.000000 0.000000 0.000000 0.000000 1.839260
#
#
# Mechanical properties :
#
#
# Convention : Reuss Voigt Hill
#
# Bulk Modulus (GPa) = 46.62719 58.41160 52.51940
# Shear Modulus (GPa) = 2.51614 -3.11887 -0.30136
#
# Velocity S-wave (km/s) = 1.13015 -1.25825 -0.39112
# Velocity P-wave (km/s) = 5.03703 5.24784 5.14351
#
# Compressibility (1/GPa) = 0.02144671
#
# Stress axis : x y z
#
# Youngs Moduli (GPa) = 28.01560 52.47249 84.70043
#
# Poissons Ratio (x) = 0.57660 0.67385
# Poissons Ratio (y) = 0.30785 0.30591
# Poissons Ratio (z) = 0.22288 0.18951
#
# Static dielectric constant tensor:
#      x y z
#    x 1.693690 0.000000 0.000000 
#    y 0.000000 1.714350 0.000000 
#    z 0.000000 0.000000 1.697190 
# 
# From -- ./inp_files/15438.got.cif
#   From: 2010.05.17/outbox.cif.g08.bks.cpg/sg64_8_cif.got.tgz:15438.got - 2010.06.03 16:29:19.
