data_PCOD9480819
_publ_section_title
;
Structure prediction by ZEFSAII (Michael W. Deem and Ramdas Pophale) SiO2 
 PCOD9480819
Probable space group: C M C A
;
_chemical_formula_sum "Si O2"
_cell_formula_units_Z 104
_cell_length_a 28.021007
_cell_length_b 10.177940
_cell_length_c 19.458102
_cell_angle_alpha 90.000000
_cell_angle_beta 90.000000
_cell_angle_gamma 90.000000
_cell_volume 5549.375348
_symmetry_space_group_name_H-M "C M C A"
_symmetry_group_IT_number 64
_symmetry_cell_setting 'orthorhombic'
loop_
_space_group_symop_operation_xyz
x,y,z
-x,1/2-y,1/2+z
x,-y,-z
-x,1/2+y,1/2-z
-x,-y,-z
x,1/2+y,1/2-z
-x,y,z
x,1/2-y,1/2+z
1/2+x,1/2+y,z
1/2-x,-y,1/2+z
1/2+x,1/2-y,-z
1/2-x,y,1/2-z
1/2-x,1/2-y,-z
1/2+x,y,1/2-z
1/2-x,1/2+y,z
1/2+x,-y,1/2+z
loop_
_atom_site_type_symbol
_atom_site_label
_atom_site_fract_x
_atom_site_fract_y
_atom_site_fract_z
Si Si1 0.198243 0.000000 0.500000
Si Si2 0.943205 0.569900 0.787016
Si Si3 0.854149 0.307925 0.901469
Si Si4 0.220330 0.129966 0.179912
Si Si5 0.618221 0.330339 0.757579
Si Si6 0.053211 0.418473 0.930255
Si Si7 0.766996 0.864458 0.094433
O O1 0.167458 0.061935 0.438257
O O2 0.232869 0.110688 0.530163
O O3 0.916689 0.456250 0.743431
O O4 0.913564 0.703245 0.775637
O O5 0.939136 0.515908 0.865426
O O6 0.000000 0.583934 0.771917
O O7 0.859152 0.316974 0.819234
O O8 0.907965 0.304469 0.928002
O O9 0.819334 0.190713 0.921496
O O10 0.250000 0.110188 0.250000
O O11 0.164395 0.151252 0.194766
O O12 0.242366 0.256563 0.142830
O O13 0.228161 0.002293 0.133458
O O14 0.000000 0.365129 0.923752
O O15 0.057171 0.500000 0.000000
#
# Coordination Sequence:
#
# PCOD9480819 Si02
#       7
#     8  16  16  16  16  16  16
#     4  12  24  42  59  90 125 166 214 258 308 378
#     4  10  22  40  63  92 127 161 203 262 320 376
#     4  11  22  38  62  86 124 159 206 255 313 364
#     4  12  25  39  63  89 128 162 212 256 314 376
#     4  11  23  38  62  95 122 162 207 255 319 375
#     4   9  19  37  63  93 121 159 211 258 306 372
#     4  12  25  41  60  90 127 170 205 261 310 377
#
# _framework density 18.740848
#
# number of rings (size 3 to 8) (size 9 to 14) (size 15 to 20)
#    0.000    1.077    3.846    2.308    6.462    0.615 
#    0.000    0.000    0.000    0.000    0.000    0.538 
#    0.000    0.769    0.000    0.000    0.000    0.000 
#
# Total GULP energy -290385.203656 kJ/mol
# GULP energy per Si atom -5584.330840 kJ/mol
# Density = 1.869819 g / cm^3
# Si number density = 18.740848 Si / 1000 Ang^3
#
#
#
# Elastic Constant Matrix: (Units=GPa)
#
#
# Indices 1 2 3 4 5 6 
#
# 1 165.1717 56.3048 40.8829 0.0000 0.0000 0.0000
# 2 56.3048 80.2930 7.3351 0.0000 0.0000 0.0000
# 3 40.8829 7.3351 44.5087 0.0000 0.0000 0.0000
# 4 0.0000 0.0000 0.0000 19.9226 0.0000 0.0000
# 5 0.0000 0.0000 0.0000 0.0000 44.6243 0.0000
# 6 0.0000 0.0000 0.0000 0.0000 0.0000 27.6822
#
#
#
# Elastic Compliance Matrix: (Units=1/GPa)
#
#
# Indices 1 2 3 4 5 6 
#
# 1 0.010357 -0.006491 -0.008444 0.000000 0.000000 0.000000
# 2 -0.006491 0.016713 0.003208 0.000000 0.000000 0.000000
# 3 -0.008444 0.003208 0.029695 0.000000 0.000000 0.000000
# 4 0.000000 0.000000 0.000000 0.050194 0.000000 0.000000
# 5 0.000000 0.000000 0.000000 0.000000 0.022409 0.000000
# 6 0.000000 0.000000 0.000000 0.000000 0.000000 0.036124
#
#
# Mechanical properties :
#
#
# Convention : Reuss Voigt Hill
#
# Bulk Modulus (GPa) = 30.01971 55.44658 42.73314
# Shear Modulus (GPa) = 24.99373 30.80921 27.90147
#
# Velocity S-wave (km/s) = 3.65588 4.05898 3.86269
# Velocity P-wave (km/s) = 5.82011 7.18451 6.53800
#
# Compressibility (1/GPa) = 0.03331145
#
# Stress axis : x y z
#
# Youngs Moduli (GPa) = 96.55222 59.83232 33.67620
#
# Poissons Ratio (x) = 0.38840 0.28435
# Poissons Ratio (y) = 0.62676 -0.10804
# Poissons Ratio (z) = 0.81525 -0.19196
#
# Static dielectric constant tensor:
#      x y z
#    x 1.675730 0.000000 0.000000 
#    y 0.000000 1.632610 0.000000 
#    z 0.000000 0.000000 1.692660 
# 
# From -- ./inp_files/41880.got.cif
#   From: 2010.05.17/outbox.cif.g08.bks.cpg/sg64_21_cif.got.tgz:41880.got - 2010.06.03 16:29:19.
