data_PCOD9480269
_publ_section_title
;
Structure prediction by ZEFSAII (Michael W. Deem and Ramdas Pophale) SiO2 
 PCOD9480269
Probable space group: C M C A
;
_chemical_formula_sum "Si O2"
_cell_formula_units_Z 112
_cell_length_a 22.950071
_cell_length_b 13.998520
_cell_length_c 16.455028
_cell_angle_alpha 90.000000
_cell_angle_beta 90.000000
_cell_angle_gamma 90.000000
_cell_volume 5286.457939
_symmetry_space_group_name_H-M "C M C A"
_symmetry_group_IT_number 64
_symmetry_cell_setting 'orthorhombic'
loop_
_space_group_symop_operation_xyz
x,y,z
-x,1/2-y,1/2+z
x,-y,-z
-x,1/2+y,1/2-z
-x,-y,-z
x,1/2+y,1/2-z
-x,y,z
x,1/2-y,1/2+z
1/2+x,1/2+y,z
1/2-x,-y,1/2+z
1/2+x,1/2-y,-z
1/2-x,y,1/2-z
1/2-x,1/2-y,-z
1/2+x,y,1/2-z
1/2-x,1/2+y,z
1/2+x,-y,1/2+z
loop_
_atom_site_type_symbol
_atom_site_label
_atom_site_fract_x
_atom_site_fract_y
_atom_site_fract_z
Si Si1 0.137781 0.352370 0.189042
Si Si2 0.567672 0.303285 0.073715
Si Si3 0.566689 0.520283 0.802947
Si Si4 0.754282 0.611649 0.920834
Si Si5 0.235888 0.094499 0.110232
Si Si6 0.393764 0.828286 0.611919
Si Si7 0.824136 0.267539 0.841670
O O1 0.108107 0.442513 0.231435
O O2 0.182904 0.380313 0.119655
O O3 0.093611 0.274054 0.152313
O O4 0.170643 0.291452 0.258837
O O5 0.500000 0.274093 0.077178
O O6 0.573924 0.401534 0.124916
O O7 0.612330 0.229771 0.116811
O O8 0.586237 0.324623 0.981373
O O9 0.500000 0.525079 0.775524
O O10 0.579108 0.416111 0.838794
O O11 0.724520 0.518130 0.880856
O O12 0.715589 0.702715 0.900173
O O13 0.757660 0.602908 0.017242
O O14 0.175783 0.151883 0.116100
O O15 0.287811 0.135222 0.165646
#
# Coordination Sequence:
#
# PCOD9480269 Si02
#       7
#    16  16  16  16  16  16  16
#     4  11  25  39  60  90 129 165 201 253 320 379
#     4  10  21  39  66  93 122 159 208 264 311 364
#     4  10  24  43  63  91 127 163 209 266 311 366
#     4  11  22  39  59  90 123 165 199 256 313 370
#     4  11  23  36  64  89 125 164 206 255 313 376
#     4  12  22  38  65  95 121 164 214 259 316 373
#     4  11  21  41  59  90 129 159 201 253 312 380
#
# _framework density 21.186209000000002
#
# number of rings (size 3 to 8) (size 9 to 14) (size 15 to 20)
#    0.000    1.143    2.857    4.286    4.000    2.286 
#    0.000    0.000    0.000    0.000    0.000    3.000 
#    0.000    0.000    0.000    0.000    0.000    0.000 
#
# Total GULP energy -313169.505879 kJ/mol
# GULP energy per Si atom -5592.312605 kJ/mol
# Density = 2.113799 g / cm^3
# Si number density = 21.186209 Si / 1000 Ang^3
#
#
#
# Elastic Constant Matrix: (Units=GPa)
#
#
# Indices 1 2 3 4 5 6 
#
# 1 89.7017 10.2039 9.0529 0.0000 0.0000 0.0000
# 2 10.2039 38.9983 5.9789 0.0000 0.0000 0.0000
# 3 9.0529 5.9789 26.6869 0.0000 0.0000 0.0000
# 4 0.0000 0.0000 0.0000 17.5175 0.0000 0.0000
# 5 0.0000 0.0000 0.0000 0.0000 25.3190 0.0000
# 6 0.0000 0.0000 0.0000 0.0000 0.0000 31.1251
#
#
#
# Elastic Compliance Matrix: (Units=1/GPa)
#
#
# Indices 1 2 3 4 5 6 
#
# 1 0.011785 -0.002558 -0.003425 0.000000 0.000000 0.000000
# 2 -0.002558 0.027110 -0.005206 0.000000 0.000000 0.000000
# 3 -0.003425 -0.005206 0.039800 0.000000 0.000000 0.000000
# 4 0.000000 0.000000 0.000000 0.057086 0.000000 0.000000
# 5 0.000000 0.000000 0.000000 0.000000 0.039496 0.000000
# 6 0.000000 0.000000 0.000000 0.000000 0.000000 0.032128
#
#
# Mechanical properties :
#
#
# Convention : Reuss Voigt Hill
#
# Bulk Modulus (GPa) = 17.75676 22.87316 20.31496
# Shear Modulus (GPa) = 20.11638 23.46905 21.79272
#
# Velocity S-wave (km/s) = 3.08474 3.33190 3.21070
# Velocity P-wave (km/s) = 4.59206 5.06180 4.83264
#
# Compressibility (1/GPa) = 0.05631657
#
# Stress axis : x y z
#
# Youngs Moduli (GPa) = 84.85577 36.88720 25.12594
#
# Poissons Ratio (x) = 0.09437 0.08604
# Poissons Ratio (y) = 0.21710 0.13080
# Poissons Ratio (z) = 0.29059 0.19202
#
# Static dielectric constant tensor:
#      x y z
#    x 1.771630 0.000000 0.000000 
#    y 0.000000 1.792380 0.000000 
#    z 0.000000 0.000000 1.758020 
# 
# From -- ./inp_files/27414.got.cif
#   From: 2010.05.17/outbox.cif.g08.bks.cpg/sg64_14_cif.got.tgz:27414.got - 2010.06.03 16:29:19.
