data_PCOD9480148
_publ_section_title
;
Structure prediction by ZEFSAII (Michael W. Deem and Ramdas Pophale) SiO2 
 PCOD9480148
Probable space group: C M C A
;
_chemical_formula_sum "Si O2"
_cell_formula_units_Z 96
_cell_length_a 18.686906
_cell_length_b 29.108002
_cell_length_c 8.367768
_cell_angle_alpha 90.000000
_cell_angle_beta 90.000000
_cell_angle_gamma 90.000000
_cell_volume 4551.551151
_symmetry_space_group_name_H-M "C M C A"
_symmetry_group_IT_number 64
_symmetry_cell_setting 'orthorhombic'
loop_
_space_group_symop_operation_xyz
x,y,z
-x,1/2-y,1/2+z
x,-y,-z
-x,1/2+y,1/2-z
-x,-y,-z
x,1/2+y,1/2-z
-x,y,z
x,1/2-y,1/2+z
1/2+x,1/2+y,z
1/2-x,-y,1/2+z
1/2+x,1/2-y,-z
1/2-x,y,1/2-z
1/2-x,1/2-y,-z
1/2+x,y,1/2-z
1/2-x,1/2+y,z
1/2+x,-y,1/2+z
loop_
_atom_site_type_symbol
_atom_site_label
_atom_site_fract_x
_atom_site_fract_y
_atom_site_fract_z
Si Si1 0.918628 0.898050 0.200551
Si Si2 0.417238 0.159746 0.027361
Si Si3 0.812399 0.967638 0.356420
Si Si4 0.335009 0.266669 0.711365
Si Si5 0.280951 0.613006 0.419473
Si Si6 0.658018 0.177573 0.518706
O O1 0.917175 0.861922 0.349719
O O2 0.872838 0.942572 0.251282
O O3 0.886940 0.867810 0.057205
O O4 0.000000 0.911195 0.170684
O O5 0.500000 0.163358 0.077407
O O6 0.374151 0.206603 0.064690
O O7 0.364250 0.123711 0.112466
O O8 0.750000 0.990221 0.250000
O O9 0.774425 0.925418 0.447708
O O10 0.839621 0.000000 0.500000
O O11 0.250000 0.271150 0.750000
O O12 0.343606 0.213485 0.665112
O O13 0.367016 0.293189 0.864942
O O14 0.250000 0.600192 0.250000
O O15 0.237375 0.657259 0.484585
#
# Coordination Sequence:
#
# PCOD9480148 Si02
#       6
#    16  16  16  16  16  16
#     4  10  24  43  66  94 131 178 215 263 336 397
#     4  10  21  39  58  85 127 167 215 267 322 383
#     4  11  23  41  71 103 130 161 210 276 332 405
#     4  12  24  36  61  92 125 173 228 277 322 374
#     4  11  21  41  65  95 125 168 219 267 330 395
#     4  12  23  39  64  90 128 174 225 279 318 382
#
# _framework density 21.091711
#
# number of rings (size 3 to 8) (size 9 to 14) (size 15 to 20)
#    0.000    1.000    5.000    2.000    4.667    1.667 
#    0.000    0.000    0.000    0.500    0.000    0.000 
#    0.000    0.000    0.000    0.000    0.000    0.000 
#
# Total GULP energy -267407.691249 kJ/mol
# GULP energy per Si atom -5570.993568 kJ/mol
# Density = 2.104371 g / cm^3
# Si number density = 21.091711 Si / 1000 Ang^3
#
#
#
# Elastic Constant Matrix: (Units=GPa)
#
#
# Indices 1 2 3 4 5 6 
#
# 1 112.0715 22.7662 16.4739 0.0000 0.0000 0.0000
# 2 22.7662 86.0541 20.1461 0.0000 0.0000 0.0000
# 3 16.4739 20.1461 48.5243 0.0000 0.0000 0.0000
# 4 0.0000 0.0000 0.0000 41.3390 0.0000 0.0000
# 5 0.0000 0.0000 0.0000 0.0000 20.1538 0.0000
# 6 0.0000 0.0000 0.0000 0.0000 0.0000 13.3922
#
#
#
# Elastic Compliance Matrix: (Units=1/GPa)
#
#
# Indices 1 2 3 4 5 6 
#
# 1 0.009689 -0.001986 -0.002465 0.000000 0.000000 0.000000
# 2 -0.001986 0.013279 -0.004839 0.000000 0.000000 0.000000
# 3 -0.002465 -0.004839 0.023454 0.000000 0.000000 0.000000
# 4 0.000000 0.000000 0.000000 0.024190 0.000000 0.000000
# 5 0.000000 0.000000 0.000000 0.000000 0.049618 0.000000
# 6 0.000000 0.000000 0.000000 0.000000 0.000000 0.074671
#
#
# Mechanical properties :
#
#
# Convention : Reuss Voigt Hill
#
# Bulk Modulus (GPa) = 35.91670 40.60248 38.25959
# Shear Modulus (GPa) = 22.44564 27.46124 24.95344
#
# Velocity S-wave (km/s) = 3.26573 3.61223 3.44334
# Velocity P-wave (km/s) = 5.59337 6.05721 5.82991
#
# Compressibility (1/GPa) = 0.02784220
#
# Stress axis : x y z
#
# Youngs Moduli (GPa) = 103.21359 75.30774 42.63688
#
# Poissons Ratio (x) = 0.14958 0.10509
# Poissons Ratio (y) = 0.20500 0.20631
# Poissons Ratio (z) = 0.25439 0.36439
#
# Static dielectric constant tensor:
#      x y z
#    x 1.757000 0.000000 0.000000 
#    y 0.000000 1.792580 0.000000 
#    z 0.000000 0.000000 1.847240 
# 
# From -- ./inp_files/8411.got.cif
#   From: 2010.05.17/outbox.cif.g08.bks.cpg/sg64_5_cif.got.tgz:8411.got - 2010.06.03 16:29:19.
