data_PCOD9480492
_publ_section_title
;
Structure prediction by ZEFSAII (Michael W. Deem and Ramdas Pophale) SiO2 
 PCOD9480492
Probable space group: C M C A
;
_chemical_formula_sum "Si O2"
_cell_formula_units_Z 88
_cell_length_a 32.372302
_cell_length_b 13.309763
_cell_length_c 8.224141
_cell_angle_alpha 90.000000
_cell_angle_beta 90.000000
_cell_angle_gamma 90.000000
_cell_volume 3543.516449
_symmetry_space_group_name_H-M "C M C A"
_symmetry_group_IT_number 64
_symmetry_cell_setting 'orthorhombic'
loop_
_space_group_symop_operation_xyz
x,y,z
-x,1/2-y,1/2+z
x,-y,-z
-x,1/2+y,1/2-z
-x,-y,-z
x,1/2+y,1/2-z
-x,y,z
x,1/2-y,1/2+z
1/2+x,1/2+y,z
1/2-x,-y,1/2+z
1/2+x,1/2-y,-z
1/2-x,y,1/2-z
1/2-x,1/2-y,-z
1/2+x,y,1/2-z
1/2-x,1/2+y,z
1/2+x,-y,1/2+z
loop_
_atom_site_type_symbol
_atom_site_label
_atom_site_fract_x
_atom_site_fract_y
_atom_site_fract_z
Si Si1 0.909075 0.807140 0.181382
Si Si2 0.345821 0.355603 0.793810
Si Si3 0.152180 0.060248 0.664805
Si Si4 0.000000 0.085653 0.197473
Si Si5 0.072094 0.500000 0.500000
Si Si6 0.203677 0.213084 0.506292
Si Si7 0.000000 0.742205 0.603550
O O1 0.883958 0.702525 0.204998
O O2 0.887543 0.869718 0.323238
O O3 0.906714 0.890691 0.034183
O O4 0.957175 0.786432 0.189454
O O5 0.349632 0.475009 0.800711
O O6 0.328450 0.302903 0.955155
O O7 0.308539 0.335649 0.664628
O O8 0.192096 0.131571 0.646663
O O9 0.149601 0.000000 0.500000
O O10 0.000000 0.136558 0.374701
O O11 0.959315 0.021906 0.151088
O O12 0.000000 0.177411 0.062727
O O13 0.250000 0.250000 0.500000
#
# Coordination Sequence:
#
# PCOD9480492 Si02
#       7
#    16  16  16   8   8  16   8
#     4  10  22  38  60  91 126 163 222 254 320 370
#     4  10  22  39  64  94 125 164 207 256 313 381
#     4   9  21  40  60  90 130 160 201 266 314 374
#     4   9  20  38  56  84 119 155 221 266 316 363
#     4   9  20  36  58  82 122 166 204 266 310 384
#     4  10  21  42  65  91 125 162 199 254 314 377
#     4  10  22  38  59  92 117 173 216 266 313 372
#
# _framework density 24.834088999999999
#
# number of rings (size 3 to 8) (size 9 to 14) (size 15 to 20)
#    0.000    2.364    0.000    1.091    5.091    7.273 
#    0.000   20.455    0.000    0.000    0.000    0.000 
#    0.000    0.000    0.000    0.000    0.000    0.000 
#
# Total GULP energy -245455.337961 kJ/mol
# GULP energy per Si atom -5578.530408 kJ/mol
# Density = 2.477757 g / cm^3
# Si number density = 24.834089 Si / 1000 Ang^3
#
#
#
# Elastic Constant Matrix: (Units=GPa)
#
#
# Indices 1 2 3 4 5 6 
#
# 1 166.3567 43.2199 5.0244 0.0000 0.0000 0.0000
# 2 43.2199 121.5143 6.1104 0.0000 0.0000 0.0000
# 3 5.0244 6.1104 35.3955 0.0000 0.0000 0.0000
# 4 0.0000 0.0000 0.0000 54.6868 0.0000 0.0000
# 5 0.0000 0.0000 0.0000 0.0000 20.4854 0.0000
# 6 0.0000 0.0000 0.0000 0.0000 0.0000 40.0716
#
#
#
# Elastic Compliance Matrix: (Units=1/GPa)
#
#
# Indices 1 2 3 4 5 6 
#
# 1 0.006633 -0.002332 -0.000539 0.000000 0.000000 0.000000
# 2 -0.002332 0.009122 -0.001244 0.000000 0.000000 0.000000
# 3 -0.000539 -0.001244 0.028543 0.000000 0.000000 0.000000
# 4 0.000000 0.000000 0.000000 0.018286 0.000000 0.000000
# 5 0.000000 0.000000 0.000000 0.000000 0.048815 0.000000
# 6 0.000000 0.000000 0.000000 0.000000 0.000000 0.024955
#
#
# Mechanical properties :
#
#
# Convention : Reuss Voigt Hill
#
# Bulk Modulus (GPa) = 27.72495 47.99733 37.86114
# Shear Modulus (GPa) = 31.92696 40.97620 36.45158
#
# Velocity S-wave (km/s) = 3.58943 4.06642 3.83535
# Velocity P-wave (km/s) = 5.32607 6.43560 5.90694
#
# Compressibility (1/GPa) = 0.03606859
#
# Stress axis : x y z
#
# Youngs Moduli (GPa) = 150.75270 109.63061 35.03441
#
# Poissons Ratio (x) = 0.25568 0.01888
# Poissons Ratio (y) = 0.35159 0.04357
# Poissons Ratio (z) = 0.08126 0.13634
#
# Static dielectric constant tensor:
#      x y z
#    x 1.934080 0.000000 0.000000 
#    y 0.000000 2.100150 0.000000 
#    z 0.000000 0.000000 2.125290 
# 
# From -- ./inp_files/19735.got.cif
#   From: 2010.05.17/outbox.cif.g08.bks.cpg/sg64_10_cif.got.tgz:19735.got - 2010.06.03 16:29:19.
