data_PCOD9480527
_publ_section_title
;
Structure prediction by ZEFSAII (Michael W. Deem and Ramdas Pophale) SiO2 
 PCOD9480527
Probable space group: C M C A
;
_chemical_formula_sum "Si O2"
_cell_formula_units_Z 116
_cell_length_a 27.116328
_cell_length_b 9.034962
_cell_length_c 22.256142
_cell_angle_alpha 90.000000
_cell_angle_beta 90.000000
_cell_angle_gamma 90.000000
_cell_volume 5452.643355
_symmetry_space_group_name_H-M "C M C A"
_symmetry_group_IT_number 64
_symmetry_cell_setting 'orthorhombic'
loop_
_space_group_symop_operation_xyz
x,y,z
-x,1/2-y,1/2+z
x,-y,-z
-x,1/2+y,1/2-z
-x,-y,-z
x,1/2+y,1/2-z
-x,y,z
x,1/2-y,1/2+z
1/2+x,1/2+y,z
1/2-x,-y,1/2+z
1/2+x,1/2-y,-z
1/2-x,y,1/2-z
1/2-x,1/2-y,-z
1/2+x,y,1/2-z
1/2-x,1/2+y,z
1/2+x,-y,1/2+z
loop_
_atom_site_type_symbol
_atom_site_label
_atom_site_fract_x
_atom_site_fract_y
_atom_site_fract_z
Si Si1 0.758462 0.780341 0.615064
Si Si2 0.059671 0.435589 0.066381
Si Si3 0.077668 0.901239 0.900635
Si Si4 0.899332 0.987873 0.689034
Si Si5 0.289993 0.459513 0.303082
Si Si6 0.000000 0.000000 0.000000
Si Si7 0.680680 0.512384 0.932050
Si Si8 0.553746 0.279474 0.771393
O O1 0.722966 0.668317 0.650041
O O2 0.724678 0.893031 0.577336
O O3 0.797148 0.673973 0.581884
O O4 0.784476 0.883092 0.664158
O O5 0.076788 0.265022 0.071003
O O6 0.090768 0.519994 0.117734
O O7 0.000000 0.440501 0.077687
O O8 0.067726 0.500000 0.000000
O O9 0.042943 0.991365 0.946231
O O10 0.132499 0.967596 0.894650
O O11 0.058359 0.873337 0.833026
O O12 0.847215 0.052520 0.710391
O O13 0.938365 0.110143 0.710884
O O14 0.907816 0.835722 0.722762
O O15 0.250000 0.451892 0.250000
O O16 0.663924 0.500000 0.000000
O O17 0.500000 0.300488 0.744765
#
# Coordination Sequence:
#
# PCOD9480527 Si02
#       8
#    16  16  16  16  16   4  16  16
#     4  10  24  43  64  94 131 167 223 277 333 405
#     4  10  21  43  69  98 139 183 227 278 337 408
#     4  11  22  40  67  94 135 181 220 280 339 398
#     4  11  25  41  68  98 132 180 219 276 343 400
#     4  11  25  42  67  94 129 171 223 279 335 403
#     4  12  20  44  62 100 132 180 234 266 338 404
#     4  11  23  41  67  96 132 174 220 277 341 401
#     4  11  23  43  64  94 136 175 219 276 338 400
#
# _framework density 21.274084999999999
#
# number of rings (size 3 to 8) (size 9 to 14) (size 15 to 20)
#    0.000    1.241    2.069    4.552    7.724    1.103 
#    2.483    3.448    0.000    0.000    0.000    0.000 
#    0.000    0.000    0.000    0.000    0.000    0.000 
#
# Total GULP energy -323374.464129 kJ/mol
# GULP energy per Si atom -5575.421795 kJ/mol
# Density = 2.122566 g / cm^3
# Si number density = 21.274085 Si / 1000 Ang^3
#
#
#
# Elastic Constant Matrix: (Units=GPa)
#
#
# Indices 1 2 3 4 5 6 
#
# 1 82.5286 4.5789 1.0230 0.0000 0.0000 0.0000
# 2 4.5789 52.7787 12.0692 0.0000 0.0000 0.0000
# 3 1.0230 12.0692 62.9144 0.0000 0.0000 0.0000
# 4 0.0000 0.0000 0.0000 22.7579 0.0000 0.0000
# 5 0.0000 0.0000 0.0000 0.0000 26.8702 0.0000
# 6 0.0000 0.0000 0.0000 0.0000 0.0000 39.8670
#
#
#
# Elastic Compliance Matrix: (Units=1/GPa)
#
#
# Indices 1 2 3 4 5 6 
#
# 1 0.012176 -0.001057 0.000005 0.000000 0.000000 0.000000
# 2 -0.001057 0.019908 -0.003802 0.000000 0.000000 0.000000
# 3 0.000005 -0.003802 0.016624 0.000000 0.000000 0.000000
# 4 0.000000 0.000000 0.000000 0.043941 0.000000 0.000000
# 5 0.000000 0.000000 0.000000 0.000000 0.037216 0.000000
# 6 0.000000 0.000000 0.000000 0.000000 0.000000 0.025083
#
#
# Mechanical properties :
#
#
# Convention : Reuss Voigt Hill
#
# Bulk Modulus (GPa) = 25.64183 25.95153 25.79668
# Shear Modulus (GPa) = 28.14423 29.93573 29.03998
#
# Velocity S-wave (km/s) = 3.64116 3.75526 3.69865
# Velocity P-wave (km/s) = 5.45497 5.57026 5.51292
#
# Compressibility (1/GPa) = 0.03899878
#
# Stress axis : x y z
#
# Youngs Moduli (GPa) = 82.13133 50.23059 60.15441
#
# Poissons Ratio (x) = 0.05312 -0.00029
# Poissons Ratio (y) = 0.08685 0.22870
# Poissons Ratio (z) = -0.00040 0.19097
#
# Static dielectric constant tensor:
#      x y z
#    x 2.061340 0.000000 0.000000 
#    y 0.000000 1.773540 0.000000 
#    z 0.000000 0.000000 1.772640 
# 
# From -- ./inp_files/46939.got.cif
#   From: 2010.05.17/outbox.cif.g08.bks.cpg/sg64_24_cif.got.tgz:46939.got - 2010.06.03 16:29:19.
