data_PCOD9480608
_publ_section_title
;
Structure prediction by ZEFSAII (Michael W. Deem and Ramdas Pophale) SiO2 
 PCOD9480608
Probable space group: C M C A
;
_chemical_formula_sum "Si O2"
_cell_formula_units_Z 72
_cell_length_a 10.121335
_cell_length_b 22.984518
_cell_length_c 13.556752
_cell_angle_alpha 90.000000
_cell_angle_beta 90.000000
_cell_angle_gamma 90.000000
_cell_volume 3153.761533
_symmetry_space_group_name_H-M "C M C A"
_symmetry_group_IT_number 64
_symmetry_cell_setting 'orthorhombic'
loop_
_space_group_symop_operation_xyz
x,y,z
-x,1/2-y,1/2+z
x,-y,-z
-x,1/2+y,1/2-z
-x,-y,-z
x,1/2+y,1/2-z
-x,y,z
x,1/2-y,1/2+z
1/2+x,1/2+y,z
1/2-x,-y,1/2+z
1/2+x,1/2-y,-z
1/2-x,y,1/2-z
1/2-x,1/2-y,-z
1/2+x,y,1/2-z
1/2-x,1/2+y,z
1/2+x,-y,1/2+z
loop_
_atom_site_type_symbol
_atom_site_label
_atom_site_fract_x
_atom_site_fract_y
_atom_site_fract_z
Si Si1 0.500000 0.315214 0.972274
Si Si2 0.148687 0.407392 0.162266
Si Si3 0.226662 0.342963 0.867662
Si Si4 0.650777 0.966922 0.842282
Si Si5 0.000000 0.247119 0.847794
Si Si6 0.500000 0.695431 0.625215
O O1 0.366279 0.337572 0.922720
O O2 0.500000 0.247033 0.949292
O O3 0.500000 0.312883 0.090043
O O4 0.250000 0.400633 0.250000
O O5 0.170026 0.469220 0.108553
O O6 0.127693 0.346023 0.108047
O O7 0.000000 0.412447 0.205930
O O8 0.250000 0.347303 0.750000
O O9 0.170302 0.406197 0.898040
O O10 0.127240 0.288046 0.871714
O O11 0.500000 0.964284 0.806343
O O12 0.750000 0.968777 0.750000
O O13 0.000000 0.226023 0.733172
#
# Coordination Sequence:
#
# PCOD9480608 Si02
#       6
#     8  16  16  16   8   8
#     4  12  26  38  57  95 124 166 203 245 312 363
#     4   8  17  31  54  84 109 147 194 244 293 354
#     4  11  21  39  61  87 120 158 204 255 295 361
#     4   9  17  31  55  87 110 145 202 245 298 350
#     4  12  24  39  59  90 130 164 199 251 308 363
#     4  10  22  37  62  82 125 152 206 244 302 374
#
# _framework density 22.829879999999999
#
# number of rings (size 3 to 8) (size 9 to 14) (size 15 to 20)
#    0.667    1.333    3.333    0.667    7.778    0.000 
#    0.000    0.000    0.000    2.667    5.778   14.000 
#    0.000    0.000    0.000    0.000    0.000    0.000 
#
# Total GULP energy -200570.966468 kJ/mol
# GULP energy per Si atom -5571.415735 kJ/mol
# Density = 2.277792 g / cm^3
# Si number density = 22.829880 Si / 1000 Ang^3
#
#
#
# Elastic Constant Matrix: (Units=GPa)
#
#
# Indices 1 2 3 4 5 6 
#
# 1 105.9060 23.3378 12.0954 0.0000 0.0000 0.0000
# 2 23.3378 122.1109 2.1635 0.0000 0.0000 0.0000
# 3 12.0954 2.1635 64.7925 0.0000 0.0000 0.0000
# 4 0.0000 0.0000 0.0000 13.5382 0.0000 0.0000
# 5 0.0000 0.0000 0.0000 0.0000 -4.3298 0.0000
# 6 0.0000 0.0000 0.0000 0.0000 0.0000 54.1821
#
#
#
# Elastic Compliance Matrix: (Units=1/GPa)
#
#
# Indices 1 2 3 4 5 6 
#
# 1 0.010067 -0.001892 -0.001816 0.000000 0.000000 0.000000
# 2 -0.001892 0.008550 0.000068 0.000000 0.000000 0.000000
# 3 -0.001816 0.000068 0.015771 0.000000 0.000000 0.000000
# 4 0.000000 0.000000 0.000000 0.073865 0.000000 0.000000
# 5 0.000000 0.000000 0.000000 0.000000 -0.230958 0.000000
# 6 0.000000 0.000000 0.000000 0.000000 0.000000 0.018456
#
#
# Mechanical properties :
#
#
# Convention : Reuss Voigt Hill
#
# Bulk Modulus (GPa) = 36.89138 40.88920 38.89029
# Shear Modulus (GPa) = -56.86055 29.69229 -13.58413
#
# Velocity S-wave (km/s) = -4.99603 3.61028 -2.44194
# Velocity P-wave (km/s) = 4.13352 5.94374 3.02011
#
# Compressibility (1/GPa) = 0.02710661
#
# Stress axis : x y z
#
# Youngs Moduli (GPa) = 99.33822 116.96417 63.40895
#
# Poissons Ratio (x) = 0.22127 0.11515
# Poissons Ratio (y) = 0.18792 -0.00429
# Poissons Ratio (z) = 0.18040 -0.00791
#
# Static dielectric constant tensor:
#      x y z
#    x 2.153610 0.000000 0.000000 
#    y 0.000000 1.974230 0.000000 
#    z 0.000000 0.000000 1.869830 
# 
# From -- ./inp_files/21195.got.cif
#   From: 2010.05.17/outbox.cif.g08.bks.cpg/sg64_11_cif.got.tgz:21195.got - 2010.06.03 16:29:19.
