data_PCOD9480562
_publ_section_title
;
Structure prediction by ZEFSAII (Michael W. Deem and Ramdas Pophale) SiO2 
 PCOD9480562
Probable space group: C M C A
;
_chemical_formula_sum "Si O2"
_cell_formula_units_Z 96
_cell_length_a 21.354970
_cell_length_b 25.200976
_cell_length_c 9.202035
_cell_angle_alpha 90.000000
_cell_angle_beta 90.000000
_cell_angle_gamma 90.000000
_cell_volume 4952.223163
_symmetry_space_group_name_H-M "C M C A"
_symmetry_group_IT_number 64
_symmetry_cell_setting 'orthorhombic'
loop_
_space_group_symop_operation_xyz
x,y,z
-x,1/2-y,1/2+z
x,-y,-z
-x,1/2+y,1/2-z
-x,-y,-z
x,1/2+y,1/2-z
-x,y,z
x,1/2-y,1/2+z
1/2+x,1/2+y,z
1/2-x,-y,1/2+z
1/2+x,1/2-y,-z
1/2-x,y,1/2-z
1/2-x,1/2-y,-z
1/2+x,y,1/2-z
1/2-x,1/2+y,z
1/2+x,-y,1/2+z
loop_
_atom_site_type_symbol
_atom_site_label
_atom_site_fract_x
_atom_site_fract_y
_atom_site_fract_z
Si Si1 0.813600 0.216122 0.989028
Si Si2 0.742001 0.875867 0.902382
Si Si3 0.119559 0.361443 0.295579
Si Si4 0.500000 0.293338 0.715071
Si Si5 0.000000 0.818844 0.055454
Si Si6 0.613837 0.680759 0.483137
Si Si7 0.705711 0.956983 0.378723
O O1 0.798250 0.167509 0.094876
O O2 0.750000 0.250000 0.000000
O O3 0.829790 0.184927 0.839578
O O4 0.868450 0.257785 0.018746
O O5 0.750000 0.903936 0.750000
O O6 0.676743 0.846238 0.923480
O O7 0.751165 0.915368 0.033861
O O8 0.062130 0.351907 0.405036
O O9 0.150498 0.419091 0.317099
O O10 0.097746 0.348955 0.132530
O O11 0.500000 0.231985 0.663448
O O12 0.560440 0.318720 0.637292
O O13 0.500000 0.300822 0.887732
O O14 0.750000 0.977875 0.250000
O O15 0.685570 0.000000 0.500000
#
# Coordination Sequence:
#
# PCOD9480562 Si02
#       7
#    16  16  16   8   8  16  16
#     4   9  21  30  55  86 129 164 206 253 310 373
#     4  10  22  35  59  94 128 162 207 256 324 388
#     4  11  23  41  63  91 129 174 220 270 319 383
#     4  12  26  38  60  87 130 191 225 264 302 369
#     4  12  26  42  59  91 134 181 234 263 313 378
#     4  11  22  38  58  87 130 173 222 253 307 376
#     4  11  23  45  69  99 125 159 207 274 344 394
#
# _framework density 19.385234000000001
#
# number of rings (size 3 to 8) (size 9 to 14) (size 15 to 20)
#    0.000    1.333    3.333    2.000    9.333    0.000 
#    0.000    0.417    0.000    0.000    0.000    2.333 
#    0.000    0.000    0.000    0.000    0.000    0.000 
#
# Total GULP energy -267823.993032 kJ/mol
# GULP energy per Si atom -5579.666521 kJ/mol
# Density = 1.934111 g / cm^3
# Si number density = 19.385234 Si / 1000 Ang^3
#
#
#
# Elastic Constant Matrix: (Units=GPa)
#
#
# Indices 1 2 3 4 5 6 
#
# 1 84.4759 25.3332 38.4244 0.0000 0.0000 0.0000
# 2 25.3332 93.4814 38.3098 0.0000 0.0000 0.0000
# 3 38.4244 38.3098 130.6554 0.0000 0.0000 0.0000
# 4 0.0000 0.0000 0.0000 21.6482 0.0000 0.0000
# 5 0.0000 0.0000 0.0000 0.0000 31.3971 0.0000
# 6 0.0000 0.0000 0.0000 0.0000 0.0000 12.9529
#
#
#
# Elastic Compliance Matrix: (Units=1/GPa)
#
#
# Indices 1 2 3 4 5 6 
#
# 1 0.014130 -0.002417 -0.003447 0.000000 0.000000 0.000000
# 2 -0.002417 0.012572 -0.002975 0.000000 0.000000 0.000000
# 3 -0.003447 -0.002975 0.009540 0.000000 0.000000 0.000000
# 4 0.000000 0.000000 0.000000 0.046193 0.000000 0.000000
# 5 0.000000 0.000000 0.000000 0.000000 0.031850 0.000000
# 6 0.000000 0.000000 0.000000 0.000000 0.000000 0.077203
#
#
# Mechanical properties :
#
#
# Convention : Reuss Voigt Hill
#
# Bulk Modulus (GPa) = 53.86880 56.97195 55.42037
# Shear Modulus (GPa) = 23.21760 26.96933 25.09346
#
# Velocity S-wave (km/s) = 3.46453 3.73397 3.60177
# Velocity P-wave (km/s) = 6.62215 6.93132 6.77850
#
# Compressibility (1/GPa) = 0.01856362
#
# Stress axis : x y z
#
# Youngs Moduli (GPa) = 70.76986 79.54445 104.82312
#
# Poissons Ratio (x) = 0.19223 0.36132
# Poissons Ratio (y) = 0.17103 0.31189
# Poissons Ratio (z) = 0.24394 0.23668
#
# Static dielectric constant tensor:
#      x y z
#    x 1.703320 0.000000 0.000000 
#    y 0.000000 1.682220 0.000000 
#    z 0.000000 0.000000 1.729980 
# 
# From -- ./inp_files/9565.got.cif
#   From: 2010.05.17/outbox.cif.g08.bks.cpg/sg64_5_cif.got.tgz:9565.got - 2010.06.03 16:29:19.
