data_PCOD9480565
_publ_section_title
;
Structure prediction by ZEFSAII (Michael W. Deem and Ramdas Pophale) SiO2 
 PCOD9480565
Probable space group: C M C A
;
_chemical_formula_sum "Si O2"
_cell_formula_units_Z 112
_cell_length_a 13.841719
_cell_length_b 13.907148
_cell_length_c 26.550988
_cell_angle_alpha 90.000000
_cell_angle_beta 90.000000
_cell_angle_gamma 90.000000
_cell_volume 5111.034250
_symmetry_space_group_name_H-M "C M C A"
_symmetry_group_IT_number 64
_symmetry_cell_setting 'orthorhombic'
loop_
_space_group_symop_operation_xyz
x,y,z
-x,1/2-y,1/2+z
x,-y,-z
-x,1/2+y,1/2-z
-x,-y,-z
x,1/2+y,1/2-z
-x,y,z
x,1/2-y,1/2+z
1/2+x,1/2+y,z
1/2-x,-y,1/2+z
1/2+x,1/2-y,-z
1/2-x,y,1/2-z
1/2-x,1/2-y,-z
1/2+x,y,1/2-z
1/2-x,1/2+y,z
1/2+x,-y,1/2+z
loop_
_atom_site_type_symbol
_atom_site_label
_atom_site_fract_x
_atom_site_fract_y
_atom_site_fract_z
Si Si1 0.110391 0.850634 0.671595
Si Si2 0.607218 0.104868 0.976398
Si Si3 0.383691 0.103630 0.387903
Si Si4 0.612729 0.937964 0.726360
Si Si5 0.290848 0.800014 0.929865
Si Si6 0.320880 0.149336 0.706131
Si Si7 0.772034 0.592621 0.599654
O O1 0.162605 0.856473 0.617802
O O2 0.115396 0.738890 0.688654
O O3 0.000000 0.881103 0.663755
O O4 0.155376 0.906413 0.719630
O O5 0.500000 0.145883 0.968554
O O6 0.669519 0.086620 0.926866
O O7 0.670015 0.163185 0.017286
O O8 0.597050 0.000000 0.000000
O O9 0.500000 0.107565 0.393367
O O10 0.323274 0.182051 0.419616
O O11 0.359417 0.108713 0.327653
O O12 0.339921 0.000427 0.405417
O O13 0.500000 0.912359 0.730770
O O14 0.623644 0.052754 0.721613
O O15 0.318698 0.688856 0.923600
O O16 0.250000 0.181313 0.750000
O O17 0.259356 0.116064 0.658106
#
# Coordination Sequence:
#
# PCOD9480565 Si02
#       7
#    16  16  16  16  16  16  16
#     4  10  22  38  60  91 126 166 215 258 308 382
#     4  11  23  42  66  92 127 164 208 268 324 382
#     4  10  22  41  64  93 128 166 212 265 319 378
#     4   9  20  36  57  83 121 165 204 253 311 368
#     4  11  23  40  68  92 127 168 217 263 322 383
#     4  10  22  35  60  89 123 164 207 258 311 372
#     4  10  23  43  63  92 125 172 211 261 320 390
#
# _framework density 21.913371999999999
#
# number of rings (size 3 to 8) (size 9 to 14) (size 15 to 20)
#    0.000    1.857    1.429    1.286    8.000    4.571 
#    0.000    2.857    0.000    0.000    0.000    0.000 
#    0.000    0.000    0.000    0.000    0.000    0.000 
#
# Total GULP energy -312703.330501 kJ/mol
# GULP energy per Si atom -5583.988045 kJ/mol
# Density = 2.186350 g / cm^3
# Si number density = 21.913372 Si / 1000 Ang^3
#
#
#
# Elastic Constant Matrix: (Units=GPa)
#
#
# Indices 1 2 3 4 5 6 
#
# 1 114.1951 -9.3229 50.7128 0.0000 0.0000 0.0000
# 2 -9.3229 57.8320 15.6514 0.0000 0.0000 0.0000
# 3 50.7128 15.6514 82.4541 0.0000 0.0000 0.0000
# 4 0.0000 0.0000 0.0000 32.0779 0.0000 0.0000
# 5 0.0000 0.0000 0.0000 0.0000 3.6126 0.0000
# 6 0.0000 0.0000 0.0000 0.0000 0.0000 0.6063
#
#
#
# Elastic Compliance Matrix: (Units=1/GPa)
#
#
# Indices 1 2 3 4 5 6 
#
# 1 0.013079 0.004517 -0.008902 0.000000 0.000000 0.000000
# 2 0.004517 0.019788 -0.006535 0.000000 0.000000 0.000000
# 3 -0.008902 -0.006535 0.018843 0.000000 0.000000 0.000000
# 4 0.000000 0.000000 0.000000 0.031174 0.000000 0.000000
# 5 0.000000 0.000000 0.000000 0.000000 0.276812 0.000000
# 6 0.000000 0.000000 0.000000 0.000000 0.000000 1.649289
#
#
# Mechanical properties :
#
#
# Convention : Reuss Voigt Hill
#
# Bulk Modulus (GPa) = 33.47526 40.95155 37.21341
# Shear Modulus (GPa) = 2.45004 20.42201 11.43603
#
# Velocity S-wave (km/s) = 1.05853 3.05609 2.28694
# Velocity P-wave (km/s) = 4.09919 5.58403 4.89820
#
# Compressibility (1/GPa) = 0.02987281
#
# Stress axis : x y z
#
# Youngs Moduli (GPa) = 76.45949 50.53521 53.06963
#
# Poissons Ratio (x) = -0.22829 0.47240
# Poissons Ratio (y) = -0.34540 0.34679
# Poissons Ratio (z) = 0.68061 0.33023
#
# Static dielectric constant tensor:
#      x y z
#    x 1.825770 0.000000 0.000000 
#    y 0.000000 1.831370 0.000000 
#    z 0.000000 0.000000 1.802630 
# 
# From -- ./inp_files/45224.got.cif
#   From: 2010.05.17/outbox.cif.g08.bks.cpg/sg64_23_cif.got.tgz:45224.got - 2010.06.03 16:29:19.
