data_PCOD9480646
_publ_section_title
;
Structure prediction by ZEFSAII (Michael W. Deem and Ramdas Pophale) SiO2 
 PCOD9480646
Probable space group: C M C A
;
_chemical_formula_sum "Si O2"
_cell_formula_units_Z 56
_cell_length_a 23.430656
_cell_length_b 13.578602
_cell_length_c 8.426684
_cell_angle_alpha 90.000000
_cell_angle_beta 90.000000
_cell_angle_gamma 90.000000
_cell_volume 2680.996303
_symmetry_space_group_name_H-M "C M C A"
_symmetry_group_IT_number 64
_symmetry_cell_setting 'orthorhombic'
loop_
_space_group_symop_operation_xyz
x,y,z
-x,1/2-y,1/2+z
x,-y,-z
-x,1/2+y,1/2-z
-x,-y,-z
x,1/2+y,1/2-z
-x,y,z
x,1/2-y,1/2+z
1/2+x,1/2+y,z
1/2-x,-y,1/2+z
1/2+x,1/2-y,-z
1/2-x,y,1/2-z
1/2-x,1/2-y,-z
1/2+x,y,1/2-z
1/2-x,1/2+y,z
1/2+x,-y,1/2+z
loop_
_atom_site_type_symbol
_atom_site_label
_atom_site_fract_x
_atom_site_fract_y
_atom_site_fract_z
Si Si1 0.566226 0.476118 0.186251
Si Si2 0.842809 0.386069 0.863208
Si Si3 0.652673 0.826750 0.230646
Si Si4 0.250000 0.531538 0.750000
O O1 0.500000 0.481998 0.230456
O O2 0.604605 0.549568 0.293804
O O3 0.592534 0.367450 0.207472
O O4 0.572112 0.500000 0.000000
O O5 0.837443 0.287193 0.760998
O O6 0.787836 0.455423 0.849377
O O7 0.847355 0.351816 0.044377
O O8 0.701907 0.893079 0.315136
#
# Coordination Sequence:
#
# PCOD9480646 Si02
#       4
#    16  16  16   8
#     4  10  22  41  64  89 119 156 199 248 299 352
#     4  11  24  40  62  90 121 159 199 244 297 353
#     4  11  24  40  62  90 121 159 199 244 297 353
#     4  10  22  38  60  86 118 154 196 240 292 346
#
# _framework density 20.887757000000001
#
# number of rings (size 3 to 8) (size 9 to 14) (size 15 to 20)
#    0.000    1.429    0.000    6.000    0.000   19.429 
#    0.000    0.000    0.000    0.000    0.000    0.000 
#    0.000    0.000    0.000    0.000    0.000    0.000 
#
# Total GULP energy -156345.470325 kJ/mol
# GULP energy per Si atom -5583.766797 kJ/mol
# Density = 2.084022 g / cm^3
# Si number density = 20.887757 Si / 1000 Ang^3
#
#
#
# Elastic Constant Matrix: (Units=GPa)
#
#
# Indices 1 2 3 4 5 6 
#
# 1 143.5092 52.2925 60.7089 0.0000 0.0000 0.0000
# 2 52.2925 147.0765 29.4266 0.0000 0.0000 0.0000
# 3 60.7089 29.4266 64.1454 0.0000 0.0000 0.0000
# 4 0.0000 0.0000 0.0000 37.2335 0.0000 0.0000
# 5 0.0000 0.0000 0.0000 0.0000 14.2133 0.0000
# 6 0.0000 0.0000 0.0000 0.0000 0.0000 -963.0858
#
#
#
# Elastic Compliance Matrix: (Units=1/GPa)
#
#
# Indices 1 2 3 4 5 6 
#
# 1 0.012258 -0.002243 -0.010572 0.000000 0.000000 0.000000
# 2 -0.002243 0.007897 -0.001500 0.000000 0.000000 0.000000
# 3 -0.010572 -0.001500 0.026283 0.000000 0.000000 0.000000
# 4 0.000000 0.000000 0.000000 0.026858 0.000000 0.000000
# 5 0.000000 0.000000 0.000000 0.000000 0.070357 0.000000
# 6 0.000000 0.000000 0.000000 0.000000 0.000000 -0.001038
#
#
# Mechanical properties :
#
#
# Convention : Reuss Voigt Hill
#
# Bulk Modulus (GPa) = 56.15436 71.06523 63.60979
# Shear Modulus (GPa) = 28.21992 -168.17426 -69.97717
#
# Velocity S-wave (km/s) = 3.67962 -8.98266 -5.79433
# Velocity P-wave (km/s) = 6.70783 8.57251 3.77444
#
# Compressibility (1/GPa) = 0.01780806
#
# Stress axis : x y z
#
# Youngs Moduli (GPa) = 81.58015 126.63448 38.04683
#
# Poissons Ratio (x) = 0.28404 0.40224
# Poissons Ratio (y) = 0.18298 0.05706
# Poissons Ratio (z) = 0.86248 0.18992
#
# Static dielectric constant tensor:
#      x y z
#    x 1.752690 0.000000 0.000000 
#    y 0.000000 1.739220 0.000000 
#    z 0.000000 0.000000 1.800990 
# 
# From -- ./inp_files/8905.got.cif
#   From: 2010.05.17/outbox.cif.g08.bks.cpg/sg64_5_cif.got.tgz:8905.got - 2010.06.03 16:29:19.
