data_PCOD9480525
_publ_section_title
;
Structure prediction by ZEFSAII (Michael W. Deem and Ramdas Pophale) SiO2 
 PCOD9480525
Probable space group: C M C A
;
_chemical_formula_sum "Si O2"
_cell_formula_units_Z 104
_cell_length_a 19.872218
_cell_length_b 28.226669
_cell_length_c 9.802017
_cell_angle_alpha 90.000000
_cell_angle_beta 90.000000
_cell_angle_gamma 90.000000
_cell_volume 5498.211283
_symmetry_space_group_name_H-M "C M C A"
_symmetry_group_IT_number 64
_symmetry_cell_setting 'orthorhombic'
loop_
_space_group_symop_operation_xyz
x,y,z
-x,1/2-y,1/2+z
x,-y,-z
-x,1/2+y,1/2-z
-x,-y,-z
x,1/2+y,1/2-z
-x,y,z
x,1/2-y,1/2+z
1/2+x,1/2+y,z
1/2-x,-y,1/2+z
1/2+x,1/2-y,-z
1/2-x,y,1/2-z
1/2-x,1/2-y,-z
1/2+x,y,1/2-z
1/2-x,1/2+y,z
1/2+x,-y,1/2+z
loop_
_atom_site_type_symbol
_atom_site_label
_atom_site_fract_x
_atom_site_fract_y
_atom_site_fract_z
Si Si1 0.303411 0.802325 0.861181
Si Si2 0.290293 0.807512 0.376315
Si Si3 0.102662 0.056709 0.520556
Si Si4 0.619287 0.387563 0.026901
Si Si5 0.500000 0.582895 0.766172
Si Si6 0.752800 0.452666 0.411493
Si Si7 0.922878 0.370568 0.784550
O O1 0.250000 0.820669 0.750000
O O2 0.312010 0.745972 0.838225
O O3 0.371719 0.831262 0.843725
O O4 0.264813 0.806474 0.003841
O O5 0.250000 0.829720 0.250000
O O6 0.355295 0.836284 0.422247
O O7 0.058199 0.072451 0.648426
O O8 0.180669 0.068804 0.548256
O O9 0.081277 0.084298 0.384471
O O10 0.096815 0.000000 0.500000
O O11 0.599173 0.384320 0.868367
O O12 0.558861 0.406402 0.118879
O O13 0.685001 0.419700 0.050154
O O14 0.760208 0.500000 0.500000
O O15 0.750000 0.462926 0.250000
O O16 0.000000 0.353518 0.782299
#
# Coordination Sequence:
#
# PCOD9480525 Si02
#       7
#    16  16  16  16   8  16  16
#     4  10  21  43  68  98 129 172 223 270 325 396
#     4  10  22  39  72  99 127 170 227 275 326 383
#     4  11  26  47  70  92 133 178 227 269 328 396
#     4  12  25  43  67  99 136 173 221 278 329 391
#     4  12  25  44  65  98 132 172 218 270 327 400
#     4  11  25  43  67  99 131 170 225 281 327 382
#     4  12  26  43  64  99 136 179 215 266 342 400
#
# _framework density 18.915244000000001
#
# number of rings (size 3 to 8) (size 9 to 14) (size 15 to 20)
#    0.000    0.923    4.615    1.615    6.462    0.000 
#    1.385    1.154    0.000    0.000    0.000    0.000 
#    0.000    0.000    0.000    0.000    0.000    0.000 
#
# Total GULP energy -289514.053435 kJ/mol
# GULP energy per Si atom -5567.577951 kJ/mol
# Density = 1.887219 g / cm^3
# Si number density = 18.915244 Si / 1000 Ang^3
#
#
#
# Elastic Constant Matrix: (Units=GPa)
#
#
# Indices 1 2 3 4 5 6 
#
# 1 180.9019 57.8003 48.4554 0.0000 0.0000 0.0000
# 2 57.8003 68.8323 33.7465 0.0000 0.0000 0.0000
# 3 48.4554 33.7465 131.9370 0.0000 0.0000 0.0000
# 4 0.0000 0.0000 0.0000 -11.9234 0.0000 0.0000
# 5 0.0000 0.0000 0.0000 0.0000 143.7193 0.0000
# 6 0.0000 0.0000 0.0000 0.0000 0.0000 3.1733
#
#
#
# Elastic Compliance Matrix: (Units=1/GPa)
#
#
# Indices 1 2 3 4 5 6 
#
# 1 0.007760 -0.005853 -0.001353 0.000000 0.000000 0.000000
# 2 -0.005853 0.021026 -0.003228 0.000000 0.000000 0.000000
# 3 -0.001353 -0.003228 0.008902 0.000000 0.000000 0.000000
# 4 0.000000 0.000000 0.000000 -0.083869 0.000000 0.000000
# 5 0.000000 0.000000 0.000000 0.000000 0.006958 0.000000
# 6 0.000000 0.000000 0.000000 0.000000 0.000000 0.315127
#
#
# Mechanical properties :
#
#
# Convention : Reuss Voigt Hill
#
# Bulk Modulus (GPa) = 59.45554 73.51949 66.48751
# Shear Modulus (GPa) = 16.53548 43.10512 29.82030
#
# Velocity S-wave (km/s) = 2.95987 4.77892 3.97485
# Velocity P-wave (km/s) = 6.57130 8.33084 7.50283
#
# Compressibility (1/GPa) = 0.01681929
#
# Stress axis : x y z
#
# Youngs Moduli (GPa) = 128.85813 47.56020 112.33449
#
# Poissons Ratio (x) = 0.27839 0.15199
# Poissons Ratio (y) = 0.75425 0.36264
# Poissons Ratio (z) = 0.17434 0.15354
#
# Static dielectric constant tensor:
#      x y z
#    x 1.642780 0.000000 0.000000 
#    y 0.000000 1.691010 0.000000 
#    z 0.000000 0.000000 1.695630 
# 
# From -- ./inp_files/8521.got.cif
#   From: 2010.05.17/outbox.cif.g08.bks.cpg/sg64_5_cif.got.tgz:8521.got - 2010.06.03 16:29:19.
