data_PCOD9480857
_publ_section_title
;
Structure prediction by ZEFSAII (Michael W. Deem and Ramdas Pophale) SiO2 
 PCOD9480857
Probable space group: C M C A
;
_chemical_formula_sum "Si O2"
_cell_formula_units_Z 64
_cell_length_a 15.176121
_cell_length_b 9.505253
_cell_length_c 18.085508
_cell_angle_alpha 90.000000
_cell_angle_beta 90.000000
_cell_angle_gamma 90.000000
_cell_volume 2608.886428
_symmetry_space_group_name_H-M "C M C A"
_symmetry_group_IT_number 64
_symmetry_cell_setting 'orthorhombic'
loop_
_space_group_symop_operation_xyz
x,y,z
-x,1/2-y,1/2+z
x,-y,-z
-x,1/2+y,1/2-z
-x,-y,-z
x,1/2+y,1/2-z
-x,y,z
x,1/2-y,1/2+z
1/2+x,1/2+y,z
1/2-x,-y,1/2+z
1/2+x,1/2-y,-z
1/2-x,y,1/2-z
1/2-x,1/2-y,-z
1/2+x,y,1/2-z
1/2-x,1/2+y,z
1/2+x,-y,1/2+z
loop_
_atom_site_type_symbol
_atom_site_label
_atom_site_fract_x
_atom_site_fract_y
_atom_site_fract_z
Si Si1 0.805063 0.989757 0.182333
Si Si2 0.651688 0.000000 0.000000
Si Si3 0.500000 0.157494 0.071169
Si Si4 0.307159 0.734220 0.606447
Si Si5 0.000000 0.212235 0.092062
Si Si6 0.000000 0.571442 0.666212
O O1 0.750000 0.050008 0.250000
O O2 0.793342 0.098559 0.113822
O O3 0.739991 0.844288 0.340369
O O4 0.906646 0.963426 0.203333
O O5 0.586223 0.060761 0.063901
O O6 0.697515 0.861414 0.032795
O O7 0.500000 0.270136 0.136011
O O8 0.500000 0.243700 0.993485
O O9 0.410925 0.729487 0.628171
O O10 0.000000 0.043725 0.099571
#
# Coordination Sequence:
#
# PCOD9480857 Si02
#       6
#    16   8   8  16   8   8
#     4  11  25  45  65  96 134 178 233 284 338 405
#     4   9  20  38  66 103 140 178 220 277 344 409
#     4   9  17  36  65 100 135 179 214 263 335 407
#     4  10  22  42  66  96 137 176 224 281 336 403
#     4   8  18  40  63  96 140 174 212 270 335 404
#     4  10  22  40  66  96 130 175 223 280 333 397
#
# _framework density 24.53154
#
# number of rings (size 3 to 8) (size 9 to 14) (size 15 to 20)
#    0.000    2.250    0.000    1.875    3.500    2.000 
#    9.000    3.750    0.000    0.000    0.000    0.000 
#    0.000    0.000    0.000    0.000    0.000    0.000 
#
# Total GULP energy -178559.500398 kJ/mol
# GULP energy per Si atom -5579.984387 kJ/mol
# Density = 2.447571 g / cm^3
# Si number density = 24.531540 Si / 1000 Ang^3
#
#
#
# Elastic Constant Matrix: (Units=GPa)
#
#
# Indices 1 2 3 4 5 6 
#
# 1 165.6006 48.1987 37.9513 0.0000 0.0000 0.0000
# 2 48.1987 157.4047 12.7475 0.0000 0.0000 0.0000
# 3 37.9513 12.7475 29.0433 0.0000 0.0000 0.0000
# 4 0.0000 0.0000 0.0000 14.7119 0.0000 0.0000
# 5 0.0000 0.0000 0.0000 0.0000 16.6798 0.0000
# 6 0.0000 0.0000 0.0000 0.0000 0.0000 36.6514
#
#
#
# Elastic Compliance Matrix: (Units=1/GPa)
#
#
# Indices 1 2 3 4 5 6 
#
# 1 0.009136 -0.001898 -0.011105 0.000000 0.000000 0.000000
# 2 -0.001898 0.006982 -0.000584 0.000000 0.000000 0.000000
# 3 -0.011105 -0.000584 0.049199 0.000000 0.000000 0.000000
# 4 0.000000 0.000000 0.000000 0.067972 0.000000 0.000000
# 5 0.000000 0.000000 0.000000 0.000000 0.059953 0.000000
# 6 0.000000 0.000000 0.000000 0.000000 0.000000 0.027284
#
#
# Mechanical properties :
#
#
# Convention : Reuss Voigt Hill
#
# Bulk Modulus (GPa) = 26.21778 61.09373 43.65576
# Shear Modulus (GPa) = 19.20020 30.48536 24.84278
#
# Velocity S-wave (km/s) = 2.80067 3.52902 3.18573
# Velocity P-wave (km/s) = 4.60097 6.44698 5.60055
#
# Compressibility (1/GPa) = 0.03814205
#
# Stress axis : x y z
#
# Youngs Moduli (GPa) = 109.45584 143.23395 20.32568
#
# Poissons Ratio (x) = 0.27189 0.22572
# Poissons Ratio (y) = 0.20777 0.01187
# Poissons Ratio (z) = 1.21552 0.08364
#
# Static dielectric constant tensor:
#      x y z
#    x 1.979450 0.000000 0.000000 
#    y 0.000000 1.927680 0.000000 
#    z 0.000000 0.000000 2.002110 
# 
# From -- ./inp_files/33923.got.cif
#   From: 2010.05.17/outbox.cif.g08.bks.cpg/sg64_17_cif.got.tgz:33923.got - 2010.06.03 16:29:19.
