data_PCOD9480430
_publ_section_title
;
Structure prediction by ZEFSAII (Michael W. Deem and Ramdas Pophale) SiO2 
 PCOD9480430
Probable space group: C M C A
;
_chemical_formula_sum "Si O2"
_cell_formula_units_Z 112
_cell_length_a 19.304294
_cell_length_b 12.684130
_cell_length_c 22.167970
_cell_angle_alpha 90.000000
_cell_angle_beta 90.000000
_cell_angle_gamma 90.000000
_cell_volume 5428.008670
_symmetry_space_group_name_H-M "C M C A"
_symmetry_group_IT_number 64
_symmetry_cell_setting 'orthorhombic'
loop_
_space_group_symop_operation_xyz
x,y,z
-x,1/2-y,1/2+z
x,-y,-z
-x,1/2+y,1/2-z
-x,-y,-z
x,1/2+y,1/2-z
-x,y,z
x,1/2-y,1/2+z
1/2+x,1/2+y,z
1/2-x,-y,1/2+z
1/2+x,1/2-y,-z
1/2-x,y,1/2-z
1/2-x,1/2-y,-z
1/2+x,y,1/2-z
1/2-x,1/2+y,z
1/2+x,-y,1/2+z
loop_
_atom_site_type_symbol
_atom_site_label
_atom_site_fract_x
_atom_site_fract_y
_atom_site_fract_z
Si Si1 0.079080 0.079128 0.219884
Si Si2 0.862039 0.239362 0.025557
Si Si3 0.140963 0.478479 0.837688
Si Si4 0.263917 0.402983 0.044834
Si Si5 0.780470 0.458492 0.312425
Si Si6 0.925433 0.408817 0.950647
Si Si7 0.918548 0.287267 0.150638
O O1 0.091777 0.200582 0.202223
O O2 0.000000 0.051758 0.200579
O O3 0.086516 0.067838 0.291292
O O4 0.142157 0.003700 0.196963
O O5 0.798237 0.319531 0.037551
O O6 0.895882 0.224645 0.090523
O O7 0.831716 0.143639 0.987925
O O8 0.916505 0.300478 0.984594
O O9 0.218489 0.456022 0.815385
O O10 0.133059 0.427771 0.902367
O O11 0.123809 0.603840 0.842696
O O12 0.276201 0.416934 0.117442
O O13 0.245658 0.500000 0.000000
O O14 0.750000 0.399911 0.250000
O O15 0.000000 0.417814 0.920173
O O16 0.922305 0.500000 0.000000
O O17 0.000000 0.315169 0.146955
#
# Coordination Sequence:
#
# PCOD9480430 Si02
#       7
#    16  16  16  16  16  16  16
#     4  10  23  41  62  91 124 167 211 255 318 391
#     4  11  22  36  62  92 122 164 212 262 319 388
#     4  11  21  41  64  91 124 165 211 264 320 376
#     4  11  22  40  62  90 129 168 215 268 322 379
#     4  10  21  41  64  90 125 166 212 263 314 382
#     4  11  20  34  60  92 124 155 198 260 321 376
#     4  11  21  38  64  91 126 168 212 261 324 389
#
# _framework density 20.633718999999999
#
# number of rings (size 3 to 8) (size 9 to 14) (size 15 to 20)
#    0.000    1.286    2.857    3.857    0.000    1.143 
#    5.143    5.000    0.000    3.857    0.000    0.000 
#    0.000    0.000    0.000    0.000    0.000    0.000 
#
# Total GULP energy -311837.955188 kJ/mol
# GULP energy per Si atom -5568.534914 kJ/mol
# Density = 2.058676 g / cm^3
# Si number density = 20.633719 Si / 1000 Ang^3
#
#
#
# Elastic Constant Matrix: (Units=GPa)
#
#
# Indices 1 2 3 4 5 6 
#
# 1 91.4151 1.9869 12.2610 0.0000 0.0000 0.0000
# 2 1.9869 24.1387 19.5378 0.0000 0.0000 0.0000
# 3 12.2610 19.5378 125.2209 0.0000 0.0000 0.0000
# 4 0.0000 0.0000 0.0000 24.3605 0.0000 0.0000
# 5 0.0000 0.0000 0.0000 0.0000 36.7039 0.0000
# 6 0.0000 0.0000 0.0000 0.0000 0.0000 14.8715
#
#
#
# Elastic Compliance Matrix: (Units=1/GPa)
#
#
# Indices 1 2 3 4 5 6 
#
# 1 0.011085 -0.000039 -0.001079 0.000000 0.000000 0.000000
# 2 -0.000039 0.047415 -0.007394 0.000000 0.000000 0.000000
# 3 -0.001079 -0.007394 0.009245 0.000000 0.000000 0.000000
# 4 0.000000 0.000000 0.000000 0.041050 0.000000 0.000000
# 5 0.000000 0.000000 0.000000 0.000000 0.027245 0.000000
# 6 0.000000 0.000000 0.000000 0.000000 0.000000 0.067243
#
#
# Mechanical properties :
#
#
# Convention : Reuss Voigt Hill
#
# Bulk Modulus (GPa) = 19.71588 34.26068 26.98828
# Shear Modulus (GPa) = 21.07796 28.98646 25.03221
#
# Velocity S-wave (km/s) = 3.19961 3.75215 3.48684
# Velocity P-wave (km/s) = 4.81932 5.95078 5.41468
#
# Compressibility (1/GPa) = 0.05072053
#
# Stress axis : x y z
#
# Youngs Moduli (GPa) = 90.21435 21.09023 108.16343
#
# Poissons Ratio (x) = 0.00082 0.11674
# Poissons Ratio (y) = 0.00350 0.79979
# Poissons Ratio (z) = 0.09737 0.15595
#
# Static dielectric constant tensor:
#      x y z
#    x 1.775520 0.000000 0.000000 
#    y 0.000000 1.734340 0.000000 
#    z 0.000000 0.000000 1.778110 
# 
# From -- ./inp_files/46374.got.cif
#   From: 2010.05.17/outbox.cif.g08.bks.cpg/sg64_24_cif.got.tgz:46374.got - 2010.06.03 16:29:19.
