data_PCOD9480688
_publ_section_title
;
Structure prediction by ZEFSAII (Michael W. Deem and Ramdas Pophale) SiO2 
 PCOD9480688
Probable space group: C M C A
;
_chemical_formula_sum "Si O2"
_cell_formula_units_Z 88
_cell_length_a 23.427484
_cell_length_b 19.546123
_cell_length_c 9.125522
_cell_angle_alpha 90.000000
_cell_angle_beta 90.000000
_cell_angle_gamma 90.000000
_cell_volume 4178.726947
_symmetry_space_group_name_H-M "C M C A"
_symmetry_group_IT_number 64
_symmetry_cell_setting 'orthorhombic'
loop_
_space_group_symop_operation_xyz
x,y,z
-x,1/2-y,1/2+z
x,-y,-z
-x,1/2+y,1/2-z
-x,-y,-z
x,1/2+y,1/2-z
-x,y,z
x,1/2-y,1/2+z
1/2+x,1/2+y,z
1/2-x,-y,1/2+z
1/2+x,1/2-y,-z
1/2-x,y,1/2-z
1/2-x,1/2-y,-z
1/2+x,y,1/2-z
1/2-x,1/2+y,z
1/2+x,-y,1/2+z
loop_
_atom_site_type_symbol
_atom_site_label
_atom_site_fract_x
_atom_site_fract_y
_atom_site_fract_z
Si Si1 0.000000 0.648437 0.823887
Si Si2 0.000000 0.287928 0.847730
Si Si3 0.707802 0.000000 0.000000
Si Si4 0.690138 0.205042 0.670225
Si Si5 0.620447 0.345276 0.689258
Si Si6 0.876185 0.594639 0.862444
Si Si7 0.287956 0.622025 0.112492
O O1 0.943347 0.600676 0.822566
O O2 0.000000 0.707500 0.697671
O O3 0.000000 0.692815 0.977589
O O4 0.944231 0.324133 0.782678
O O5 0.751106 0.060517 0.044894
O O6 0.664687 0.972098 0.126434
O O7 0.750000 0.209898 0.750000
O O8 0.653905 0.273652 0.676707
O O9 0.654582 0.146757 0.753792
O O10 0.702959 0.180439 0.506441
O O11 0.625848 0.379995 0.531080
O O12 0.650066 0.389849 0.815768
O O13 0.250000 0.643526 0.250000
#
# Coordination Sequence:
#
# PCOD9480688 Si02
#       7
#     8   8   8  16  16  16  16
#     4  10  22  43  64 100 127 177 215 273 335 390
#     4  10  22  38  68  93 140 162 210 271 338 411
#     4  12  26  45  62  91 134 182 228 270 318 388
#     4  12  23  37  64  99 129 161 212 277 338 399
#     4  11  23  42  64  99 131 170 210 273 341 395
#     4  11  24  41  65  93 131 174 224 267 326 393
#     4  12  26  42  66  94 133 178 217 271 329 392
#
# _framework density 21.059045000000001
#
# number of rings (size 3 to 8) (size 9 to 14) (size 15 to 20)
#    0.000    0.727    5.455    1.636    5.091    2.545 
#    0.000    0.000    0.000    0.545    0.000    0.000 
#    0.000    0.000    0.000    0.000    0.000    0.000 
#
# Total GULP energy -245747.327345 kJ/mol
# GULP energy per Si atom -5585.166531 kJ/mol
# Density = 2.101111 g / cm^3
# Si number density = 21.059045 Si / 1000 Ang^3
#
#
#
# Elastic Constant Matrix: (Units=GPa)
#
#
# Indices 1 2 3 4 5 6 
#
# 1 180.7822 44.5431 33.4605 0.0000 0.0000 0.0000
# 2 44.5431 75.2113 10.3202 0.0000 0.0000 0.0000
# 3 33.4605 10.3202 58.1170 0.0000 0.0000 0.0000
# 4 0.0000 0.0000 0.0000 12.7488 0.0000 0.0000
# 5 0.0000 0.0000 0.0000 0.0000 23.0526 0.0000
# 6 0.0000 0.0000 0.0000 0.0000 0.0000 5.4162
#
#
#
# Elastic Compliance Matrix: (Units=1/GPa)
#
#
# Indices 1 2 3 4 5 6 
#
# 1 0.007082 -0.003725 -0.003416 0.000000 0.000000 0.000000
# 2 -0.003725 0.015588 -0.000623 0.000000 0.000000 0.000000
# 3 -0.003416 -0.000623 0.019284 0.000000 0.000000 0.000000
# 4 0.000000 0.000000 0.000000 0.078439 0.000000 0.000000
# 5 0.000000 0.000000 0.000000 0.000000 0.043379 0.000000
# 6 0.000000 0.000000 0.000000 0.000000 0.000000 0.184630
#
#
# Mechanical properties :
#
#
# Convention : Reuss Voigt Hill
#
# Bulk Modulus (GPa) = 37.84315 54.52866 46.18590
# Shear Modulus (GPa) = 13.41424 23.29596 18.35510
#
# Velocity S-wave (km/s) = 2.52659 3.32960 2.95549
# Velocity P-wave (km/s) = 5.14981 6.38209 5.79878
#
# Compressibility (1/GPa) = 0.02642486
#
# Stress axis : x y z
#
# Youngs Moduli (GPa) = 141.21110 64.15327 51.85677
#
# Poissons Ratio (x) = 0.23899 0.17712
# Poissons Ratio (y) = 0.52606 0.03232
# Poissons Ratio (z) = 0.48233 0.03998
#
# Static dielectric constant tensor:
#      x y z
#    x 1.806350 0.000000 0.000000 
#    y 0.000000 1.794450 0.000000 
#    z 0.000000 0.000000 1.766720 
# 
# From -- ./inp_files/9382.got.cif
#   From: 2010.05.17/outbox.cif.g08.bks.cpg/sg64_5_cif.got.tgz:9382.got - 2010.06.03 16:29:19.
