data_PCOD9480632
_publ_section_title
;
Structure prediction by ZEFSAII (Michael W. Deem and Ramdas Pophale) SiO2 
 PCOD9480632
Probable space group: C M C A
;
_chemical_formula_sum "Si O2"
_cell_formula_units_Z 80
_cell_length_a 30.816163
_cell_length_b 9.373319
_cell_length_c 10.907837
_cell_angle_alpha 90.000000
_cell_angle_beta 90.000000
_cell_angle_gamma 90.000000
_cell_volume 3150.725730
_symmetry_space_group_name_H-M "C M C A"
_symmetry_group_IT_number 64
_symmetry_cell_setting 'orthorhombic'
loop_
_space_group_symop_operation_xyz
x,y,z
-x,1/2-y,1/2+z
x,-y,-z
-x,1/2+y,1/2-z
-x,-y,-z
x,1/2+y,1/2-z
-x,y,z
x,1/2-y,1/2+z
1/2+x,1/2+y,z
1/2-x,-y,1/2+z
1/2+x,1/2-y,-z
1/2-x,y,1/2-z
1/2-x,1/2-y,-z
1/2+x,y,1/2-z
1/2-x,1/2+y,z
1/2+x,-y,1/2+z
loop_
_atom_site_type_symbol
_atom_site_label
_atom_site_fract_x
_atom_site_fract_y
_atom_site_fract_z
Si Si1 0.548992 0.832227 0.976263
Si Si2 0.620339 0.422201 0.700129
Si Si3 0.762848 0.912063 0.121673
Si Si4 0.047610 0.427624 0.631597
Si Si5 0.823680 0.188252 0.691283
O O1 0.500000 0.788563 0.930440
O O2 0.591842 0.822988 0.890955
O O3 0.555016 0.738079 0.098052
O O4 0.546926 0.000000 0.000000
O O5 0.582945 0.492447 0.781382
O O6 0.648898 0.329658 0.794523
O O7 0.649448 0.549984 0.647646
O O8 0.750000 0.996758 0.250000
O O9 0.806410 0.838047 0.168817
O O10 0.720929 0.808105 0.114300
O O11 0.767086 0.000000 0.000000
O O12 0.049158 0.500000 0.500000
O O13 0.000000 0.445793 0.685485
#
# Coordination Sequence:
#
# PCOD9480632 Si02
#       5
#    16  16  16  16  16
#     4  10  22  38  58  87 124 168 209 255 313 373
#     4  12  21  41  60  96 120 164 208 265 315 374
#     4   8  20  44  66  94 131 171 212 268 328 398
#     4  10  22  38  58  87 124 168 209 255 313 373
#     4   9  24  36  65  92 124 164 213 260 328 385
#
# _framework density 25.390972999999999
#
# number of rings (size 3 to 8) (size 9 to 14) (size 15 to 20)
#    1.200    0.800    0.000    3.000    0.000    8.000 
#    0.000   10.000    0.000    0.000    0.000    0.000 
#    0.000    0.000    0.000    0.000    0.000    0.000 
#
# Total GULP energy -223349.235940 kJ/mol
# GULP energy per Si atom -5583.730898 kJ/mol
# Density = 2.533318 g / cm^3
# Si number density = 25.390973 Si / 1000 Ang^3
#
#
#
# Elastic Constant Matrix: (Units=GPa)
#
#
# Indices 1 2 3 4 5 6 
#
# 1 129.3454 23.1507 15.3760 0.0000 0.0000 0.0000
# 2 23.1507 91.6314 -2.2909 0.0000 0.0000 0.0000
# 3 15.3760 -2.2909 55.3103 0.0000 0.0000 0.0000
# 4 0.0000 0.0000 0.0000 24.0839 0.0000 0.0000
# 5 0.0000 0.0000 0.0000 0.0000 33.3588 0.0000
# 6 0.0000 0.0000 0.0000 0.0000 0.0000 18.3293
#
#
#
# Elastic Compliance Matrix: (Units=1/GPa)
#
#
# Indices 1 2 3 4 5 6 
#
# 1 0.008411 -0.002186 -0.002429 0.000000 0.000000 0.000000
# 2 -0.002186 0.011493 0.001084 0.000000 0.000000 0.000000
# 3 -0.002429 0.001084 0.018800 0.000000 0.000000 0.000000
# 4 0.000000 0.000000 0.000000 0.041521 0.000000 0.000000
# 5 0.000000 0.000000 0.000000 0.000000 0.029977 0.000000
# 6 0.000000 0.000000 0.000000 0.000000 0.000000 0.054558
#
#
# Mechanical properties :
#
#
# Convention : Reuss Voigt Hill
#
# Bulk Modulus (GPa) = 31.60377 38.75098 35.17737
# Shear Modulus (GPa) = 27.41693 31.15781 29.28737
#
# Velocity S-wave (km/s) = 3.28958 3.50683 3.39994
# Velocity P-wave (km/s) = 5.18675 5.62956 5.41269
#
# Compressibility (1/GPa) = 0.03164180
#
# Stress axis : x y z
#
# Youngs Moduli (GPa) = 118.88931 87.01232 53.19175
#
# Poissons Ratio (x) = 0.19019 0.12919
# Poissons Ratio (y) = 0.25987 -0.05764
# Poissons Ratio (z) = 0.28876 -0.09429
#
# Static dielectric constant tensor:
#      x y z
#    x 2.032990 0.000000 0.000000 
#    y 0.000000 2.036070 0.000000 
#    z 0.000000 0.000000 2.051990 
# 
# From -- ./inp_files/19612.got.cif
#   From: 2010.05.17/outbox.cif.g08.bks.cpg/sg64_10_cif.got.tgz:19612.got - 2010.06.03 16:29:19.
