data_PCOD9480760
_publ_section_title
;
Structure prediction by ZEFSAII (Michael W. Deem and Ramdas Pophale) SiO2 
 PCOD9480760
Probable space group: C M C A
;
_chemical_formula_sum "Si O2"
_cell_formula_units_Z 104
_cell_length_a 25.565051
_cell_length_b 8.748682
_cell_length_c 20.528650
_cell_angle_alpha 90.000000
_cell_angle_beta 90.000000
_cell_angle_gamma 90.000000
_cell_volume 4591.448154
_symmetry_space_group_name_H-M "C M C A"
_symmetry_group_IT_number 64
_symmetry_cell_setting 'orthorhombic'
loop_
_space_group_symop_operation_xyz
x,y,z
-x,1/2-y,1/2+z
x,-y,-z
-x,1/2+y,1/2-z
-x,-y,-z
x,1/2+y,1/2-z
-x,y,z
x,1/2-y,1/2+z
1/2+x,1/2+y,z
1/2-x,-y,1/2+z
1/2+x,1/2-y,-z
1/2-x,y,1/2-z
1/2-x,1/2-y,-z
1/2+x,y,1/2-z
1/2-x,1/2+y,z
1/2+x,-y,1/2+z
loop_
_atom_site_type_symbol
_atom_site_label
_atom_site_fract_x
_atom_site_fract_y
_atom_site_fract_z
Si Si1 0.341959 0.823932 0.000798
Si Si2 0.586519 0.811265 0.680730
Si Si3 0.802805 0.325338 0.144654
Si Si4 0.416966 0.323597 0.184669
Si Si5 0.000000 0.345373 0.419530
Si Si6 0.192975 0.814900 0.644920
Si Si7 0.944559 0.339713 0.540668
O O1 0.307815 0.806971 0.065960
O O2 0.391549 0.713443 0.008360
O O3 0.312472 0.796348 0.933528
O O4 0.361126 0.000000 0.000000
O O5 0.647141 0.762661 0.672796
O O6 0.564630 0.735514 0.745252
O O7 0.558905 0.764853 0.612645
O O8 0.582266 0.993010 0.687347
O O9 0.807341 0.504788 0.159781
O O10 0.747418 0.259064 0.166302
O O11 0.453639 0.267038 0.126132
O O12 0.358101 0.264771 0.173846
O O13 0.954906 0.484815 0.441094
O O14 0.000000 0.282569 0.502270
#
# Coordination Sequence:
#
# PCOD9480760 Si02
#       7
#    16  16  16  16   8  16  16
#     4   9  18  35  59  95 138 175 218 275 333 396
#     4  11  26  45  65  99 135 180 220 280 327 408
#     4  10  22  39  67  98 137 175 225 268 346 385
#     4  12  26  44  70  96 139 176 230 269 340 388
#     4  10  24  43  73 102 128 181 220 282 327 402
#     4  11  20  41  66  99 135 178 220 281 323 412
#     4   9  20  42  63  98 131 172 224 277 329 387
#
# _framework density 22.650804999999998
#
# number of rings (size 3 to 8) (size 9 to 14) (size 15 to 20)
#    0.462    1.231    1.538    2.308    2.154    2.154 
#    0.000    4.615    0.000    0.000    0.000    0.000 
#    0.000    0.000    0.000    0.000    0.000    0.000 
#
# Total GULP energy -289890.970267 kJ/mol
# GULP energy per Si atom -5574.826351 kJ/mol
# Density = 2.259925 g / cm^3
# Si number density = 22.650805 Si / 1000 Ang^3
#
#
#
# Elastic Constant Matrix: (Units=GPa)
#
#
# Indices 1 2 3 4 5 6 
#
# 1 153.5928 47.4533 29.7428 0.0000 0.0000 0.0000
# 2 47.4533 73.4196 33.6290 0.0000 0.0000 0.0000
# 3 29.7428 33.6290 127.3382 0.0000 0.0000 0.0000
# 4 0.0000 0.0000 0.0000 30.9290 0.0000 0.0000
# 5 0.0000 0.0000 0.0000 0.0000 -17.6827 0.0000
# 6 0.0000 0.0000 0.0000 0.0000 0.0000 16.7530
#
#
#
# Elastic Compliance Matrix: (Units=1/GPa)
#
#
# Indices 1 2 3 4 5 6 
#
# 1 0.008173 -0.005015 -0.000585 0.000000 0.000000 0.000000
# 2 -0.005015 0.018572 -0.003733 0.000000 0.000000 0.000000
# 3 -0.000585 -0.003733 0.008976 0.000000 0.000000 0.000000
# 4 0.000000 0.000000 0.000000 0.032332 0.000000 0.000000
# 5 0.000000 0.000000 0.000000 0.000000 -0.056552 0.000000
# 6 0.000000 0.000000 0.000000 0.000000 0.000000 0.059691
#
#
# Mechanical properties :
#
#
# Convention : Reuss Voigt Hill
#
# Bulk Modulus (GPa) = 58.63429 64.00010 61.31720
# Shear Modulus (GPa) = 52.33321 22.23488 37.28405
#
# Velocity S-wave (km/s) = 4.81191 3.13651 4.06154
# Velocity P-wave (km/s) = 7.53758 6.43688 7.00887
#
# Compressibility (1/GPa) = 0.01705487
#
# Stress axis : x y z
#
# Youngs Moduli (GPa) = 122.34949 53.84572 111.41322
#
# Poissons Ratio (x) = 0.27003 0.06514
# Poissons Ratio (y) = 0.61356 0.41594
# Poissons Ratio (z) = 0.07154 0.20102
#
# Static dielectric constant tensor:
#      x y z
#    x 1.822830 0.000000 0.000000 
#    y 0.000000 1.789090 0.000000 
#    z 0.000000 0.000000 2.087410 
# 
# From -- ./inp_files/41867.got.cif
#   From: 2010.05.17/outbox.cif.g08.bks.cpg/sg64_21_cif.got.tgz:41867.got - 2010.06.03 16:29:19.
