data_PCOD9480480
_publ_section_title
;
Structure prediction by ZEFSAII (Michael W. Deem and Ramdas Pophale) SiO2 
 PCOD9480480
Probable space group: C M C A
;
_chemical_formula_sum "Si O2"
_cell_formula_units_Z 72
_cell_length_a 24.367981
_cell_length_b 11.428088
_cell_length_c 13.388621
_cell_angle_alpha 90.000000
_cell_angle_beta 90.000000
_cell_angle_gamma 90.000000
_cell_volume 3728.455561
_symmetry_space_group_name_H-M "C M C A"
_symmetry_group_IT_number 64
_symmetry_cell_setting 'orthorhombic'
loop_
_space_group_symop_operation_xyz
x,y,z
-x,1/2-y,1/2+z
x,-y,-z
-x,1/2+y,1/2-z
-x,-y,-z
x,1/2+y,1/2-z
-x,y,z
x,1/2-y,1/2+z
1/2+x,1/2+y,z
1/2-x,-y,1/2+z
1/2+x,1/2-y,-z
1/2-x,y,1/2-z
1/2-x,1/2-y,-z
1/2+x,y,1/2-z
1/2-x,1/2+y,z
1/2+x,-y,1/2+z
loop_
_atom_site_type_symbol
_atom_site_label
_atom_site_fract_x
_atom_site_fract_y
_atom_site_fract_z
Si Si1 0.779276 0.886360 0.142936
Si Si2 0.563748 0.159248 0.552893
Si Si3 0.698217 0.500000 0.500000
Si Si4 0.361576 0.165937 0.149720
Si Si5 0.119708 0.945200 0.862303
O O1 0.750000 0.899049 0.250000
O O2 0.815163 0.768063 0.146746
O O3 0.735251 0.901379 0.054733
O O4 0.821283 0.993622 0.126555
O O5 0.500000 0.157640 0.527037
O O6 0.584800 0.278784 0.599388
O O7 0.601279 0.132362 0.456192
O O8 0.577446 0.054520 0.630926
O O9 0.662095 0.440549 0.585686
O O10 0.376881 0.126006 0.260664
#
# Coordination Sequence:
#
# PCOD9480480 Si02
#       5
#    16  16   8  16  16
#     4  11  23  38  62  91 127 174 207 243 319 377
#     4  10  23  43  68  91 122 168 213 268 322 369
#     4  12  24  42  59  92 133 174 204 266 302 374
#     4  11  25  38  64  95 127 160 217 262 309 374
#     4  10  21  42  62  92 124 165 211 258 309 390
#
# _framework density 19.310945
#
# number of rings (size 3 to 8) (size 9 to 14) (size 15 to 20)
#    0.000    1.333    2.222    4.667    6.222    1.778 
#    0.000    0.556    0.000    0.000    0.000    0.000 
#    0.000    0.000    0.000    0.000    0.000    0.000 
#
# Total GULP energy -201053.325922 kJ/mol
# GULP energy per Si atom -5584.814609 kJ/mol
# Density = 1.926699 g / cm^3
# Si number density = 19.310945 Si / 1000 Ang^3
#
#
#
# Elastic Constant Matrix: (Units=GPa)
#
#
# Indices 1 2 3 4 5 6 
#
# 1 73.4499 30.6535 51.2161 0.0000 0.0000 0.0000
# 2 30.6535 72.6463 56.3042 0.0000 0.0000 0.0000
# 3 51.2161 56.3042 123.1604 0.0000 0.0000 0.0000
# 4 0.0000 0.0000 0.0000 36.2787 0.0000 0.0000
# 5 0.0000 0.0000 0.0000 0.0000 12.9616 0.0000
# 6 0.0000 0.0000 0.0000 0.0000 0.0000 7.4349
#
#
#
# Elastic Compliance Matrix: (Units=1/GPa)
#
#
# Indices 1 2 3 4 5 6 
#
# 1 0.019595 -0.003024 -0.006766 0.000000 0.000000 0.000000
# 2 -0.003024 0.021786 -0.008702 0.000000 0.000000 0.000000
# 3 -0.006766 -0.008702 0.014911 0.000000 0.000000 0.000000
# 4 0.000000 0.000000 0.000000 0.027564 0.000000 0.000000
# 5 0.000000 0.000000 0.000000 0.000000 0.077151 0.000000
# 6 0.000000 0.000000 0.000000 0.000000 0.000000 0.134501
#
#
# Mechanical properties :
#
#
# Convention : Reuss Voigt Hill
#
# Bulk Modulus (GPa) = 51.79309 60.62266 56.20788
# Shear Modulus (GPa) = 14.75237 20.07389 17.41313
#
# Velocity S-wave (km/s) = 2.76694 3.22764 3.00613
# Velocity P-wave (km/s) = 6.08989 6.73433 6.42020
#
# Compressibility (1/GPa) = 0.01930759
#
# Stress axis : x y z
#
# Youngs Moduli (GPa) = 51.03442 45.90121 67.06320
#
# Poissons Ratio (x) = 0.13882 0.45374
# Poissons Ratio (y) = 0.15434 0.58359
# Poissons Ratio (z) = 0.34529 0.39944
#
# Static dielectric constant tensor:
#      x y z
#    x 1.666820 0.000000 0.000000 
#    y 0.000000 1.683340 0.000000 
#    z 0.000000 0.000000 1.653090 
# 
# From -- ./inp_files/27006.got.cif
#   From: 2010.05.17/outbox.cif.g08.bks.cpg/sg64_14_cif.got.tgz:27006.got - 2010.06.03 16:29:19.
