data_PCOD9480903
_publ_section_title
;
Structure prediction by ZEFSAII (Michael W. Deem and Ramdas Pophale) SiO2 
 PCOD9480903
Probable space group: C M C A
;
_chemical_formula_sum "Si O2"
_cell_formula_units_Z 64
_cell_length_a 18.104092
_cell_length_b 21.325717
_cell_length_c 7.287624
_cell_angle_alpha 90.000000
_cell_angle_beta 90.000000
_cell_angle_gamma 90.000000
_cell_volume 2813.625860
_symmetry_space_group_name_H-M "C M C A"
_symmetry_group_IT_number 64
_symmetry_cell_setting 'orthorhombic'
loop_
_space_group_symop_operation_xyz
x,y,z
-x,1/2-y,1/2+z
x,-y,-z
-x,1/2+y,1/2-z
-x,-y,-z
x,1/2+y,1/2-z
-x,y,z
x,1/2-y,1/2+z
1/2+x,1/2+y,z
1/2-x,-y,1/2+z
1/2+x,1/2-y,-z
1/2-x,y,1/2-z
1/2-x,1/2-y,-z
1/2+x,y,1/2-z
1/2-x,1/2+y,z
1/2+x,-y,1/2+z
loop_
_atom_site_type_symbol
_atom_site_label
_atom_site_fract_x
_atom_site_fract_y
_atom_site_fract_z
Si Si1 0.764394 0.070428 0.961785
Si Si2 0.083104 0.220495 0.130604
Si Si3 0.860128 0.341220 0.993091
Si Si4 0.081717 0.107040 0.861229
O O1 0.750000 0.085389 0.750000
O O2 0.715107 0.123012 0.058807
O O3 0.852617 0.073345 0.971995
O O4 0.738319 0.000000 0.000000
O O5 0.097283 0.177942 0.308662
O O6 0.143752 0.274328 0.098165
O O7 0.000000 0.248407 0.142278
O O8 0.083091 0.175694 0.954098
O O9 0.900900 0.385128 0.144157
O O10 0.000000 0.080377 0.886614
#
# Coordination Sequence:
#
# PCOD9480903 Si02
#       4
#    16  16  16  16
#     4  10  25  45  65  91 127 172 217 268 311 375
#     4  11  21  36  65  96 130 166 203 259 326 387
#     4  11  22  39  65  96 131 167 205 263 321 381
#     4  10  22  41  63  93 127 165 212 264 321 379
#
# _framework density 22.746449999999999
#
# number of rings (size 3 to 8) (size 9 to 14) (size 15 to 20)
#    0.000    1.500    2.500    2.250    3.500    1.500 
#    4.500    0.000    0.000    7.500    0.000    0.000 
#    0.000    0.000    0.000    0.000    0.000    0.000 
#
# Total GULP energy -178510.952671 kJ/mol
# GULP energy per Si atom -5578.467271 kJ/mol
# Density = 2.269468 g / cm^3
# Si number density = 22.746450 Si / 1000 Ang^3
#
#
#
# Elastic Constant Matrix: (Units=GPa)
#
#
# Indices 1 2 3 4 5 6 
#
# 1 146.9378 58.6434 23.6800 0.0000 0.0000 0.0000
# 2 58.6434 84.1478 7.6884 0.0000 0.0000 0.0000
# 3 23.6800 7.6884 98.6763 0.0000 0.0000 0.0000
# 4 0.0000 0.0000 0.0000 22.3217 0.0000 0.0000
# 5 0.0000 0.0000 0.0000 0.0000 19.0545 0.0000
# 6 0.0000 0.0000 0.0000 0.0000 0.0000 28.1468
#
#
#
# Elastic Compliance Matrix: (Units=1/GPa)
#
#
# Indices 1 2 3 4 5 6 
#
# 1 0.009743 -0.006623 -0.001822 0.000000 0.000000 0.000000
# 2 -0.006623 0.016472 0.000306 0.000000 0.000000 0.000000
# 3 -0.001822 0.000306 0.010548 0.000000 0.000000 0.000000
# 4 0.000000 0.000000 0.000000 0.044799 0.000000 0.000000
# 5 0.000000 0.000000 0.000000 0.000000 0.052481 0.000000
# 6 0.000000 0.000000 0.000000 0.000000 0.000000 0.035528
#
#
# Mechanical properties :
#
#
# Convention : Reuss Voigt Hill
#
# Bulk Modulus (GPa) = 48.81980 56.64284 52.73132
# Shear Modulus (GPa) = 25.95027 29.88796 27.91912
#
# Velocity S-wave (km/s) = 3.38131 3.62879 3.50724
# Velocity P-wave (km/s) = 6.06247 6.52023 6.29551
#
# Compressibility (1/GPa) = 0.02048349
#
# Stress axis : x y z
#
# Youngs Moduli (GPa) = 102.64235 60.71030 94.80902
#
# Poissons Ratio (x) = 0.40210 0.17274
# Poissons Ratio (y) = 0.67982 -0.02901
# Poissons Ratio (z) = 0.18701 -0.01858
#
# Static dielectric constant tensor:
#      x y z
#    x 1.921070 0.000000 0.000000 
#    y 0.000000 1.809960 0.000000 
#    z 0.000000 0.000000 1.871780 
# 
# From -- ./inp_files/6583.got.cif
#   From: 2010.05.17/outbox.cif.g08.bks.cpg/sg64_4_cif.got.tgz:6583.got - 2010.06.03 16:29:19.
