data_PCOD9480803
_publ_section_title
;
Structure prediction by ZEFSAII (Michael W. Deem and Ramdas Pophale) SiO2 
 PCOD9480803
Probable space group: C M C A
;
_chemical_formula_sum "Si O2"
_cell_formula_units_Z 88
_cell_length_a 14.610275
_cell_length_b 33.795759
_cell_length_c 8.048342
_cell_angle_alpha 90.000000
_cell_angle_beta 90.000000
_cell_angle_gamma 90.000000
_cell_volume 3973.992266
_symmetry_space_group_name_H-M "C M C A"
_symmetry_group_IT_number 64
_symmetry_cell_setting 'orthorhombic'
loop_
_space_group_symop_operation_xyz
x,y,z
-x,1/2-y,1/2+z
x,-y,-z
-x,1/2+y,1/2-z
-x,-y,-z
x,1/2+y,1/2-z
-x,y,z
x,1/2-y,1/2+z
1/2+x,1/2+y,z
1/2-x,-y,1/2+z
1/2+x,1/2-y,-z
1/2-x,y,1/2-z
1/2-x,1/2-y,-z
1/2+x,y,1/2-z
1/2-x,1/2+y,z
1/2+x,-y,1/2+z
loop_
_atom_site_type_symbol
_atom_site_label
_atom_site_fract_x
_atom_site_fract_y
_atom_site_fract_z
Si Si1 0.897923 0.884097 0.289095
Si Si2 0.700635 0.038612 0.918412
Si Si3 0.609925 0.270680 0.801975
Si Si4 0.750000 0.415427 0.750000
Si Si5 0.389249 0.692070 0.841495
Si Si6 0.895285 0.649395 0.155622
O O1 0.855008 0.925321 0.339214
O O2 0.850656 0.852412 0.167543
O O3 0.900075 0.859526 0.460694
O O4 0.000000 0.892977 0.228626
O O5 0.750000 0.023589 0.750000
O O6 0.752186 0.058945 0.078016
O O7 0.653543 0.000000 0.000000
O O8 0.500000 0.267273 0.772823
O O9 0.644698 0.226149 0.782427
O O10 0.641924 0.306334 0.683740
O O11 0.625293 0.287866 0.982634
O O12 0.836110 0.385536 0.763719
O O13 0.500000 0.687096 0.818941
O O14 0.000000 0.648152 0.221536
#
# Coordination Sequence:
#
# PCOD9480803 Si02
#       6
#    16  16  16   8  16  16
#     4   9  19  35  57  84 113 146 191 244 292 345
#     4  11  23  41  64  84 112 151 189 234 301 369
#     4   9  16  26  47  76 112 156 196 233 276 332
#     4  10  22  40  62  88 120 152 194 246 296 354
#     4   9  16  27  46  77 112 150 194 235 280 334
#     4   9  18  34  57  83 115 154 195 239 289 341
#
# _framework density 22.143979999999999
#
# number of rings (size 3 to 8) (size 9 to 14) (size 15 to 20)
#    0.000    2.545    0.909    1.091    2.545    4.727 
#    0.000    0.000    2.000    4.364    0.000    0.000 
#    0.000    0.000    0.000    0.000    0.000    0.000 
#
# Total GULP energy -245152.521062 kJ/mol
# GULP energy per Si atom -5571.648206 kJ/mol
# Density = 2.209358 g / cm^3
# Si number density = 22.143980 Si / 1000 Ang^3
#
#
#
# Elastic Constant Matrix: (Units=GPa)
#
#
# Indices 1 2 3 4 5 6 
#
# 1 39.6625 5.8933 4.0205 0.0000 0.0000 0.0000
# 2 5.8933 159.8363 37.0971 0.0000 0.0000 0.0000
# 3 4.0205 37.0971 29.2642 0.0000 0.0000 0.0000
# 4 0.0000 0.0000 0.0000 47.3104 0.0000 0.0000
# 5 0.0000 0.0000 0.0000 0.0000 10.8573 0.0000
# 6 0.0000 0.0000 0.0000 0.0000 0.0000 14.1623
#
#
#
# Elastic Compliance Matrix: (Units=1/GPa)
#
#
# Indices 1 2 3 4 5 6 
#
# 1 0.025572 -0.000181 -0.003284 0.000000 0.000000 0.000000
# 2 -0.000181 0.008866 -0.011214 0.000000 0.000000 0.000000
# 3 -0.003284 -0.011214 0.048838 0.000000 0.000000 0.000000
# 4 0.000000 0.000000 0.000000 0.021137 0.000000 0.000000
# 5 0.000000 0.000000 0.000000 0.000000 0.092104 0.000000
# 6 0.000000 0.000000 0.000000 0.000000 0.000000 0.070610
#
#
# Mechanical properties :
#
#
# Convention : Reuss Voigt Hill
#
# Bulk Modulus (GPa) = 18.54648 35.86497 27.20572
# Shear Modulus (GPa) = 15.90033 26.58279 21.24156
#
# Velocity S-wave (km/s) = 2.68254 3.46851 3.10053
# Velocity P-wave (km/s) = 4.24126 5.68086 5.01301
#
# Compressibility (1/GPa) = 0.05391858
#
# Stress axis : x y z
#
# Youngs Moduli (GPa) = 39.10453 112.79339 20.47574
#
# Poissons Ratio (x) = 0.02037 0.06725
# Poissons Ratio (y) = 0.00706 0.22961
# Poissons Ratio (z) = 0.12843 1.26486
#
# Static dielectric constant tensor:
#      x y z
#    x 1.889190 0.000000 0.000000 
#    y 0.000000 1.863800 0.000000 
#    z 0.000000 0.000000 1.867380 
# 
# From -- ./inp_files/7312.got.cif
#   From: 2010.05.17/outbox.cif.g08.bks.cpg/sg64_4_cif.got.tgz:7312.got - 2010.06.03 16:29:19.
