data_PCOD9480349
_publ_section_title
;
Structure prediction by ZEFSAII (Michael W. Deem and Ramdas Pophale) SiO2 
 PCOD9480349
Probable space group: C M C A
;
_chemical_formula_sum "Si O2"
_cell_formula_units_Z 112
_cell_length_a 14.254918
_cell_length_b 11.265985
_cell_length_c 32.069894
_cell_angle_alpha 90.000000
_cell_angle_beta 90.000000
_cell_angle_gamma 90.000000
_cell_volume 5150.286831
_symmetry_space_group_name_H-M "C M C A"
_symmetry_group_IT_number 64
_symmetry_cell_setting 'orthorhombic'
loop_
_space_group_symop_operation_xyz
x,y,z
-x,1/2-y,1/2+z
x,-y,-z
-x,1/2+y,1/2-z
-x,-y,-z
x,1/2+y,1/2-z
-x,y,z
x,1/2-y,1/2+z
1/2+x,1/2+y,z
1/2-x,-y,1/2+z
1/2+x,1/2-y,-z
1/2-x,y,1/2-z
1/2-x,1/2-y,-z
1/2+x,y,1/2-z
1/2-x,1/2+y,z
1/2+x,-y,1/2+z
loop_
_atom_site_type_symbol
_atom_site_label
_atom_site_fract_x
_atom_site_fract_y
_atom_site_fract_z
Si Si1 0.399351 0.372064 0.584705
Si Si2 0.290906 0.048751 0.864949
Si Si3 0.842912 0.189561 0.982581
Si Si4 0.775968 0.866714 0.702821
Si Si5 0.893764 0.681383 0.659329
Si Si6 0.894482 0.462326 0.561117
Si Si7 0.109866 0.203917 0.141282
O O1 0.500000 0.435184 0.585230
O O2 0.317073 0.461566 0.597019
O O3 0.389955 0.296269 0.542874
O O4 0.398754 0.275620 0.621723
O O5 0.318894 0.976842 0.822930
O O6 0.183941 0.088110 0.855912
O O7 0.352416 0.166097 0.870531
O O8 0.832704 0.077234 0.951162
O O9 0.750000 0.250000 0.000000
O O10 0.891888 0.128250 0.022095
O O11 0.750000 0.893037 0.750000
O O12 0.846760 0.755304 0.697207
O O13 0.680452 0.835230 0.677864
O O14 0.000000 0.637585 0.667343
O O15 0.877976 0.381936 0.601516
O O16 0.000000 0.513169 0.565277
O O17 0.000000 0.204403 0.152571
#
# Coordination Sequence:
#
# PCOD9480349 Si02
#       7
#    16  16  16  16  16  16  16
#     4  10  21  40  64  94 132 177 224 279 342 404
#     4  10  22  39  68  97 135 171 226 276 344 410
#     4  11  24  37  65  98 133 172 225 281 341 402
#     4  10  23  41  63  96 139 178 222 279 344 408
#     4   9  21  40  66  94 129 177 227 272 331 408
#     4  10  23  45  67  94 131 178 229 284 338 399
#     4  10  23  43  70  97 132 180 230 281 340 406
#
# _framework density 21.746361
#
# number of rings (size 3 to 8) (size 9 to 14) (size 15 to 20)
#    0.000    2.000    0.000    2.143    8.000    5.143 
#    0.000    0.000    0.000    2.571    0.000    2.000 
#    0.000    0.000    0.000    0.000    0.000    0.000 
#
# Total GULP energy -312740.456469 kJ/mol
# GULP energy per Si atom -5584.651008 kJ/mol
# Density = 2.169687 g / cm^3
# Si number density = 21.746361 Si / 1000 Ang^3
#
#
#
# Elastic Constant Matrix: (Units=GPa)
#
#
# Indices 1 2 3 4 5 6 
#
# 1 129.4635 54.3576 27.5690 0.0000 0.0000 0.0000
# 2 54.3576 120.6827 35.8609 0.0000 0.0000 0.0000
# 3 27.5690 35.8609 93.8379 0.0000 0.0000 0.0000
# 4 0.0000 0.0000 0.0000 25.3287 0.0000 0.0000
# 5 0.0000 0.0000 0.0000 0.0000 15.7291 0.0000
# 6 0.0000 0.0000 0.0000 0.0000 0.0000 30.0165
#
#
#
# Elastic Compliance Matrix: (Units=1/GPa)
#
#
# Indices 1 2 3 4 5 6 
#
# 1 0.009670 -0.003961 -0.001327 0.000000 0.000000 0.000000
# 2 -0.003961 0.010970 -0.003029 0.000000 0.000000 0.000000
# 3 -0.001327 -0.003029 0.012204 0.000000 0.000000 0.000000
# 4 0.000000 0.000000 0.000000 0.039481 0.000000 0.000000
# 5 0.000000 0.000000 0.000000 0.000000 0.063577 0.000000
# 6 0.000000 0.000000 0.000000 0.000000 0.000000 0.033315
#
#
# Mechanical properties :
#
#
# Convention : Reuss Voigt Hill
#
# Bulk Modulus (GPa) = 61.68898 64.39546 63.04222
# Shear Modulus (GPa) = 26.14322 29.29463 27.71892
#
# Velocity S-wave (km/s) = 3.47102 3.67427 3.57409
# Velocity P-wave (km/s) = 6.67031 6.90483 6.78859
#
# Compressibility (1/GPa) = 0.01621035
#
# Stress axis : x y z
#
# Youngs Moduli (GPa) = 103.41290 91.15496 81.94026
#
# Poissons Ratio (x) = 0.36108 0.10875
# Poissons Ratio (y) = 0.40963 0.24817
# Poissons Ratio (z) = 0.13725 0.27608
#
# Static dielectric constant tensor:
#      x y z
#    x 1.883290 0.000000 0.000000 
#    y 0.000000 1.800150 0.000000 
#    z 0.000000 0.000000 1.791780 
# 
# From -- ./inp_files/53275.got.cif
#   From: 2010.05.17/outbox.cif.g08.bks.cpg/sg64_27_cif.got.tgz:53275.got - 2010.06.03 16:29:19.
