data_PCOD9480552
_publ_section_title
;
Structure prediction by ZEFSAII (Michael W. Deem and Ramdas Pophale) SiO2 
 PCOD9480552
Probable space group: C M C A
;
_chemical_formula_sum "Si O2"
_cell_formula_units_Z 56
_cell_length_a 18.040640
_cell_length_b 26.362875
_cell_length_c 5.193290
_cell_angle_alpha 90.000000
_cell_angle_beta 90.000000
_cell_angle_gamma 90.000000
_cell_volume 2469.945017
_symmetry_space_group_name_H-M "C M C A"
_symmetry_group_IT_number 64
_symmetry_cell_setting 'orthorhombic'
loop_
_space_group_symop_operation_xyz
x,y,z
-x,1/2-y,1/2+z
x,-y,-z
-x,1/2+y,1/2-z
-x,-y,-z
x,1/2+y,1/2-z
-x,y,z
x,1/2-y,1/2+z
1/2+x,1/2+y,z
1/2-x,-y,1/2+z
1/2+x,1/2-y,-z
1/2-x,y,1/2-z
1/2-x,1/2-y,-z
1/2+x,y,1/2-z
1/2-x,1/2+y,z
1/2+x,-y,1/2+z
loop_
_atom_site_type_symbol
_atom_site_label
_atom_site_fract_x
_atom_site_fract_y
_atom_site_fract_z
Si Si1 0.410153 0.277175 0.980470
Si Si2 0.698864 0.057265 0.996242
Si Si3 0.000000 0.966366 0.757268
Si Si4 0.583557 0.626785 0.355382
O O1 0.500000 0.275550 0.992452
O O2 0.385050 0.234917 0.770098
O O3 0.392700 0.330123 0.842043
O O4 0.750000 0.055245 0.750000
O O5 0.750000 0.064449 0.250000
O O6 0.645528 0.106221 0.955538
O O7 0.664140 0.000000 0.000000
O O8 0.932057 0.927111 0.780492
O O9 0.000000 0.000000 0.500000
O O10 0.000000 0.000000 0.000000
O O11 0.500000 0.640289 0.461349
#
# Coordination Sequence:
#
# PCOD9480552 Si02
#       4
#    16  16   8  16
#     4   9  18  33  54  82 113 145 190 241 292 344
#     4  10  22  39  58  82 117 159 195 232 291 362
#     4  10  22  34  52  86 120 144 186 240 286 336
#     4   9  21  39  60  90 114 158 193 249 292 341
#
# _framework density 22.672568999999999
#
# number of rings (size 3 to 8) (size 9 to 14) (size 15 to 20)
#    0.857    1.714    0.000    0.857    0.000   10.286 
#    0.000    0.000    0.000    5.143    0.000    0.000 
#    0.000    0.000    0.000    0.000    0.000    0.000 
#
# Total GULP energy -155901.419199 kJ/mol
# GULP energy per Si atom -5567.907829 kJ/mol
# Density = 2.262097 g / cm^3
# Si number density = 22.672569 Si / 1000 Ang^3
#
#
#
# Elastic Constant Matrix: (Units=GPa)
#
#
# Indices 1 2 3 4 5 6 
#
# 1 33.1601 -1.0647 0.9223 0.0000 0.0000 0.0000
# 2 -1.0647 73.9520 5.5325 0.0000 0.0000 0.0000
# 3 0.9223 5.5325 99.2553 0.0000 0.0000 0.0000
# 4 0.0000 0.0000 0.0000 25.8802 0.0000 0.0000
# 5 0.0000 0.0000 0.0000 0.0000 4.5220 0.0000
# 6 0.0000 0.0000 0.0000 0.0000 0.0000 10.0492
#
#
#
# Elastic Compliance Matrix: (Units=1/GPa)
#
#
# Indices 1 2 3 4 5 6 
#
# 1 0.030180 0.000457 -0.000306 0.000000 0.000000 0.000000
# 2 0.000457 0.013586 -0.000762 0.000000 0.000000 0.000000
# 3 -0.000306 -0.000762 0.010120 0.000000 0.000000 0.000000
# 4 0.000000 0.000000 0.000000 0.038640 0.000000 0.000000
# 5 0.000000 0.000000 0.000000 0.000000 0.221142 0.000000
# 6 0.000000 0.000000 0.000000 0.000000 0.000000 0.099511
#
#
# Mechanical properties :
#
#
# Convention : Reuss Voigt Hill
#
# Bulk Modulus (GPa) = 18.98761 24.12752 21.55757
# Shear Modulus (GPa) = 11.57530 21.48874 16.53202
#
# Velocity S-wave (km/s) = 2.26197 3.08195 2.70323
# Velocity P-wave (km/s) = 3.90063 4.83005 4.39001
#
# Compressibility (1/GPa) = 0.05266591
#
# Stress axis : x y z
#
# Youngs Moduli (GPa) = 33.13464 73.60600 98.81109
#
# Poissons Ratio (x) = -0.03367 0.03023
# Poissons Ratio (y) = -0.01516 0.07525
# Poissons Ratio (z) = 0.01014 0.05605
#
# Static dielectric constant tensor:
#      x y z
#    x 2.173860 0.000000 0.000000 
#    y 0.000000 1.881530 0.000000 
#    z 0.000000 0.000000 1.823210 
# 
# From -- ./inp_files/1217.got.cif
#   From: 2010.05.17/outbox.cif.g08.bks.cpg/sg64_1_cif.got.tgz:1217.got - 2010.06.03 16:29:19.
