data_PCOD9480332
_publ_section_title
;
Structure prediction by ZEFSAII (Michael W. Deem and Ramdas Pophale) SiO2 
 PCOD9480332
Probable space group: C M C A
;
_chemical_formula_sum "Si O2"
_cell_formula_units_Z 96
_cell_length_a 14.167827
_cell_length_b 19.940541
_cell_length_c 17.181899
_cell_angle_alpha 90.000000
_cell_angle_beta 90.000000
_cell_angle_gamma 90.000000
_cell_volume 4854.129337
_symmetry_space_group_name_H-M "C M C A"
_symmetry_group_IT_number 64
_symmetry_cell_setting 'orthorhombic'
loop_
_space_group_symop_operation_xyz
x,y,z
-x,1/2-y,1/2+z
x,-y,-z
-x,1/2+y,1/2-z
-x,-y,-z
x,1/2+y,1/2-z
-x,y,z
x,1/2-y,1/2+z
1/2+x,1/2+y,z
1/2-x,-y,1/2+z
1/2+x,1/2-y,-z
1/2-x,y,1/2-z
1/2-x,1/2-y,-z
1/2+x,y,1/2-z
1/2-x,1/2+y,z
1/2+x,-y,1/2+z
loop_
_atom_site_type_symbol
_atom_site_label
_atom_site_fract_x
_atom_site_fract_y
_atom_site_fract_z
Si Si1 0.794829 0.975620 0.331280
Si Si2 0.000000 0.065359 0.155423
Si Si3 0.699485 0.351809 0.088691
Si Si4 0.000000 0.319194 0.338802
Si Si5 0.205399 0.731407 0.334080
Si Si6 0.000000 0.056435 0.727591
Si Si7 0.703908 0.093667 0.414632
Si Si8 0.500000 0.708415 0.220653
O O1 0.750000 0.001159 0.250000
O O2 0.771459 0.031685 0.395089
O O3 0.738845 0.908455 0.353378
O O4 0.904304 0.958418 0.319367
O O5 0.096071 0.072720 0.106224
O O6 0.000000 0.127524 0.216822
O O7 0.000000 0.995345 0.200077
O O8 0.592712 0.334431 0.111715
O O9 0.759513 0.285026 0.103791
O O10 0.707310 0.380817 0.002514
O O11 0.000000 0.369423 0.264512
O O12 0.000000 0.243946 0.304445
O O13 0.250000 0.747494 0.250000
O O14 0.231445 0.656476 0.360176
O O15 0.093341 0.732079 0.323589
#
# Coordination Sequence:
#
# PCOD9480332 Si02
#       8
#    16   8  16   8  16   8  16   8
#     4  12  23  42  64  91 122 163 206 253 303 369
#     4  10  21  40  63  93 124 158 204 261 302 356
#     4  12  24  40  63  94 126 164 202 255 314 361
#     4  12  21  38  63  94 123 155 207 262 301 359
#     4  11  22  41  64  91 123 164 208 252 300 366
#     4  12  24  38  65  95 118 156 214 254 300 360
#     4  11  24  41  63  93 129 162 203 254 313 363
#     4  10  22  36  63  92 120 156 209 259 297 357
#
# _framework density 19.776976000000001
#
# number of rings (size 3 to 8) (size 9 to 14) (size 15 to 20)
#    0.000    0.667    5.000    3.500    2.333    0.000 
#    0.000    5.000    0.000    0.000    0.000    0.000 
#    0.000    0.000    0.000    0.000    0.000    0.000 
#
# Total GULP energy -268507.513725 kJ/mol
# GULP energy per Si atom -5593.906536 kJ/mol
# Density = 1.973196 g / cm^3
# Si number density = 19.776976 Si / 1000 Ang^3
#
#
#
# Elastic Constant Matrix: (Units=GPa)
#
#
# Indices 1 2 3 4 5 6 
#
# 1 64.1400 -2.8127 2.8028 0.0000 0.0000 0.0000
# 2 -2.8127 46.1896 -12.7051 0.0000 0.0000 0.0000
# 3 2.8028 -12.7051 47.2361 0.0000 0.0000 0.0000
# 4 0.0000 0.0000 0.0000 23.3882 0.0000 0.0000
# 5 0.0000 0.0000 0.0000 0.0000 16.9743 0.0000
# 6 0.0000 0.0000 0.0000 0.0000 0.0000 -73.1256
#
#
#
# Elastic Compliance Matrix: (Units=1/GPa)
#
#
# Indices 1 2 3 4 5 6 
#
# 1 0.015656 0.000754 -0.000726 0.000000 0.000000 0.000000
# 2 0.000754 0.023416 0.006253 0.000000 0.000000 0.000000
# 3 -0.000726 0.006253 0.022895 0.000000 0.000000 0.000000
# 4 0.000000 0.000000 0.000000 0.042757 0.000000 0.000000
# 5 0.000000 0.000000 0.000000 0.000000 0.058913 0.000000
# 6 0.000000 0.000000 0.000000 0.000000 0.000000 -0.013675
#
#
# Mechanical properties :
#
#
# Convention : Reuss Voigt Hill
#
# Bulk Modulus (GPa) = 13.41770 14.68176 14.04973
# Shear Modulus (GPa) = 30.81811 4.79942 17.80877
#
# Velocity S-wave (km/s) = 3.95179 1.55950 3.00406
# Velocity P-wave (km/s) = 5.25561 3.26841 4.37630
#
# Compressibility (1/GPa) = 0.07452842
#
# Stress axis : x y z
#
# Youngs Moduli (GPa) = 63.87463 42.70605 43.67701
#
# Poissons Ratio (x) = -0.03218 0.03172
# Poissons Ratio (y) = -0.04814 -0.27313
# Poissons Ratio (z) = 0.04639 -0.26706
#
# Static dielectric constant tensor:
#      x y z
#    x 1.677860 0.000000 0.000000 
#    y 0.000000 1.699630 0.000000 
#    z 0.000000 0.000000 1.694700 
# 
# From -- ./inp_files/24037.got.cif
#   From: 2010.05.17/outbox.cif.g08.bks.cpg/sg64_13_cif.got.tgz:24037.got - 2010.06.03 16:29:19.
