data_PCOD9480318
_publ_section_title
;
Structure prediction by ZEFSAII (Michael W. Deem and Ramdas Pophale) SiO2 
 PCOD9480318
Probable space group: C M C A
;
_chemical_formula_sum "Si O2"
_cell_formula_units_Z 80
_cell_length_a 22.857316
_cell_length_b 18.810479
_cell_length_c 9.876611
_cell_angle_alpha 90.000000
_cell_angle_beta 90.000000
_cell_angle_gamma 90.000000
_cell_volume 4246.518654
_symmetry_space_group_name_H-M "C M C A"
_symmetry_group_IT_number 64
_symmetry_cell_setting 'orthorhombic'
loop_
_space_group_symop_operation_xyz
x,y,z
-x,1/2-y,1/2+z
x,-y,-z
-x,1/2+y,1/2-z
-x,-y,-z
x,1/2+y,1/2-z
-x,y,z
x,1/2-y,1/2+z
1/2+x,1/2+y,z
1/2-x,-y,1/2+z
1/2+x,1/2-y,-z
1/2-x,y,1/2-z
1/2-x,1/2-y,-z
1/2+x,y,1/2-z
1/2-x,1/2+y,z
1/2+x,-y,1/2+z
loop_
_atom_site_type_symbol
_atom_site_label
_atom_site_fract_x
_atom_site_fract_y
_atom_site_fract_z
Si Si1 0.690681 0.794754 0.518987
Si Si2 0.872373 0.308547 0.230798
Si Si3 0.757729 0.933242 0.599150
Si Si4 0.000000 0.760113 0.311841
Si Si5 0.119101 0.584320 0.995544
Si Si6 0.000000 0.662757 0.080886
O O1 0.750000 0.750000 0.500000
O O2 0.652307 0.752009 0.628749
O O3 0.658561 0.802050 0.374865
O O4 0.710834 0.872193 0.568468
O O5 0.865147 0.383240 0.151805
O O6 0.941447 0.296880 0.242168
O O7 0.750000 0.959828 0.750000
O O8 0.822863 0.900336 0.582855
O O9 0.753277 0.000000 0.500000
O O10 0.000000 0.770780 0.474178
O O11 0.000000 0.684473 0.237710
O O12 0.110482 0.500000 0.000000
O O13 0.059702 0.621226 0.046177
#
# Coordination Sequence:
#
# PCOD9480318 Si02
#       6
#    16  16  16   8  16   8
#     4  12  24  38  64  91 128 161 209 250 318 375
#     4  11  23  41  63  93 122 168 206 267 308 377
#     4  11  26  41  63  92 127 166 208 255 314 375
#     4  10  22  38  62  88 122 152 208 256 316 350
#     4  10  22  39  65  87 124 162 215 251 315 371
#     4  10  21  40  62  92 117 164 204 266 307 380
#
# _framework density 18.838961000000001
#
# number of rings (size 3 to 8) (size 9 to 14) (size 15 to 20)
#    0.000    1.200    2.000    4.500    8.400    0.000 
#    0.000    0.000    0.000    0.000    0.000    6.300 
#    0.000    0.000    0.000    0.000    0.000    0.000 
#
# Total GULP energy -223355.831431 kJ/mol
# GULP energy per Si atom -5583.895786 kJ/mol
# Density = 1.879608 g / cm^3
# Si number density = 18.838961 Si / 1000 Ang^3
#
#
#
# Elastic Constant Matrix: (Units=GPa)
#
#
# Indices 1 2 3 4 5 6 
#
# 1 120.3136 34.9922 64.6588 0.0000 0.0000 0.0000
# 2 34.9922 107.7848 63.4930 0.0000 0.0000 0.0000
# 3 64.6588 63.4930 145.7023 0.0000 0.0000 0.0000
# 4 0.0000 0.0000 0.0000 31.0361 0.0000 0.0000
# 5 0.0000 0.0000 0.0000 0.0000 30.9823 0.0000
# 6 0.0000 0.0000 0.0000 0.0000 0.0000 15.0645
#
#
#
# Elastic Compliance Matrix: (Units=1/GPa)
#
#
# Indices 1 2 3 4 5 6 
#
# 1 0.010984 -0.000934 -0.004467 0.000000 0.000000 0.000000
# 2 -0.000934 0.012561 -0.005059 0.000000 0.000000 0.000000
# 3 -0.004467 -0.005059 0.011050 0.000000 0.000000 0.000000
# 4 0.000000 0.000000 0.000000 0.032221 0.000000 0.000000
# 5 0.000000 0.000000 0.000000 0.000000 0.032276 0.000000
# 6 0.000000 0.000000 0.000000 0.000000 0.000000 0.066381
#
#
# Mechanical properties :
#
#
# Convention : Reuss Voigt Hill
#
# Bulk Modulus (GPa) = 73.13099 77.78763 75.45931
# Shear Modulus (GPa) = 26.18432 29.46037 27.82234
#
# Velocity S-wave (km/s) = 3.73218 3.95878 3.84715
# Velocity P-wave (km/s) = 7.58126 7.89154 7.73796
#
# Compressibility (1/GPa) = 0.01367409
#
# Stress axis : x y z
#
# Youngs Moduli (GPa) = 91.03996 79.60933 90.49426
#
# Poissons Ratio (x) = 0.07439 0.40426
# Poissons Ratio (y) = 0.08507 0.45783
# Poissons Ratio (z) = 0.40670 0.40276
#
# Static dielectric constant tensor:
#      x y z
#    x 1.660800 0.000000 0.000000 
#    y 0.000000 1.661230 0.000000 
#    z 0.000000 0.000000 1.658400 
# 
# From -- ./inp_files/9261.got.cif
#   From: 2010.05.17/outbox.cif.g08.bks.cpg/sg64_5_cif.got.tgz:9261.got - 2010.06.03 16:29:19.
