data_PCOD9480655
_publ_section_title
;
Structure prediction by ZEFSAII (Michael W. Deem and Ramdas Pophale) SiO2 
 PCOD9480655
Probable space group: C M C A
;
_chemical_formula_sum "Si O2"
_cell_formula_units_Z 72
_cell_length_a 23.106107
_cell_length_b 13.491815
_cell_length_c 10.920678
_cell_angle_alpha 90.000000
_cell_angle_beta 90.000000
_cell_angle_gamma 90.000000
_cell_volume 3404.448427
_symmetry_space_group_name_H-M "C M C A"
_symmetry_group_IT_number 64
_symmetry_cell_setting 'orthorhombic'
loop_
_space_group_symop_operation_xyz
x,y,z
-x,1/2-y,1/2+z
x,-y,-z
-x,1/2+y,1/2-z
-x,-y,-z
x,1/2+y,1/2-z
-x,y,z
x,1/2-y,1/2+z
1/2+x,1/2+y,z
1/2-x,-y,1/2+z
1/2+x,1/2-y,-z
1/2-x,y,1/2-z
1/2-x,1/2-y,-z
1/2+x,y,1/2-z
1/2-x,1/2+y,z
1/2+x,-y,1/2+z
loop_
_atom_site_type_symbol
_atom_site_label
_atom_site_fract_x
_atom_site_fract_y
_atom_site_fract_z
Si Si1 0.500000 0.335133 0.023681
Si Si2 0.298415 0.267744 0.338068
Si Si3 0.903037 0.500000 0.500000
Si Si4 0.125459 0.101869 0.242926
Si Si5 0.216306 0.597537 0.054664
Si Si6 0.500000 0.170817 0.236245
O O1 0.444419 0.407305 0.034450
O O2 0.500000 0.296454 0.881394
O O3 0.500000 0.254831 0.131662
O O4 0.250000 0.316693 0.250000
O O5 0.353479 0.216280 0.277088
O O6 0.262455 0.173243 0.389605
O O7 0.313980 0.339965 0.447215
O O8 0.869745 0.462409 0.619707
O O9 0.169108 0.065352 0.346232
O O10 0.058324 0.106578 0.277813
O O11 0.244250 0.500000 0.000000
#
# Coordination Sequence:
#
# PCOD9480655 Si02
#       6
#     8  16   8  16  16   8
#     4   9  20  40  60  87 124 170 219 250 316 374
#     4   9  21  41  61  89 124 163 203 262 317 374
#     4   9  20  38  60  88 122 166 212 251 310 386
#     4  10  22  39  61  91 124 164 213 252 321 376
#     4  10  22  40  61  94 122 156 214 261 314 374
#     4  10  22  38  61  91 124 166 208 264 311 379
#
# _framework density 21.148800000000001
#
# number of rings (size 3 to 8) (size 9 to 14) (size 15 to 20)
#    0.000    2.444    0.000    0.667    7.778    4.444 
#    4.000    0.556    0.000    0.000    0.000    0.000 
#    0.000    0.000    0.000    0.000    0.000    0.000 
#
# Total GULP energy -200875.777352 kJ/mol
# GULP energy per Si atom -5579.882704 kJ/mol
# Density = 2.110066 g / cm^3
# Si number density = 21.148800 Si / 1000 Ang^3
#
#
#
# Elastic Constant Matrix: (Units=GPa)
#
#
# Indices 1 2 3 4 5 6 
#
# 1 88.3061 15.4955 30.6679 0.0000 0.0000 0.0000
# 2 15.4955 52.0511 47.7563 0.0000 0.0000 0.0000
# 3 30.6679 47.7563 121.6150 0.0000 0.0000 0.0000
# 4 0.0000 0.0000 0.0000 46.1221 0.0000 0.0000
# 5 0.0000 0.0000 0.0000 0.0000 52.2070 0.0000
# 6 0.0000 0.0000 0.0000 0.0000 0.0000 7.6380
#
#
#
# Elastic Compliance Matrix: (Units=1/GPa)
#
#
# Indices 1 2 3 4 5 6 
#
# 1 0.012467 -0.001293 -0.002636 0.000000 0.000000 0.000000
# 2 -0.001293 0.030166 -0.011520 0.000000 0.000000 0.000000
# 3 -0.002636 -0.011520 0.013411 0.000000 0.000000 0.000000
# 4 0.000000 0.000000 0.000000 0.021682 0.000000 0.000000
# 5 0.000000 0.000000 0.000000 0.000000 0.019155 0.000000
# 6 0.000000 0.000000 0.000000 0.000000 0.000000 0.130925
#
#
# Mechanical properties :
#
#
# Convention : Reuss Voigt Hill
#
# Bulk Modulus (GPa) = 39.76692 49.97908 44.87300
# Shear Modulus (GPa) = 18.72074 32.39692 25.55883
#
# Velocity S-wave (km/s) = 2.97844 3.91814 3.48015
# Velocity P-wave (km/s) = 5.53827 6.64474 6.11657
#
# Compressibility (1/GPa) = 0.02514653
#
# Stress axis : x y z
#
# Youngs Moduli (GPa) = 80.21446 33.15002 74.56556
#
# Poissons Ratio (x) = 0.04285 0.19656
# Poissons Ratio (y) = 0.10369 0.85897
# Poissons Ratio (z) = 0.21145 0.38188
#
# Static dielectric constant tensor:
#      x y z
#    x 1.762190 0.000000 0.000000 
#    y 0.000000 1.742470 0.000000 
#    z 0.000000 0.000000 1.799670 
# 
# From -- ./inp_files/18951.got.cif
#   From: 2010.05.17/outbox.cif.g08.bks.cpg/sg64_10_cif.got.tgz:18951.got - 2010.06.03 16:29:19.
