data_PCOD9480420
_publ_section_title
;
Structure prediction by ZEFSAII (Michael W. Deem and Ramdas Pophale) SiO2 
 PCOD9480420
Probable space group: C M C A
;
_chemical_formula_sum "Si O2"
_cell_formula_units_Z 112
_cell_length_a 27.505358
_cell_length_b 13.697540
_cell_length_c 14.054136
_cell_angle_alpha 90.000000
_cell_angle_beta 90.000000
_cell_angle_gamma 90.000000
_cell_volume 5294.976429
_symmetry_space_group_name_H-M "C M C A"
_symmetry_group_IT_number 64
_symmetry_cell_setting 'orthorhombic'
loop_
_space_group_symop_operation_xyz
x,y,z
-x,1/2-y,1/2+z
x,-y,-z
-x,1/2+y,1/2-z
-x,-y,-z
x,1/2+y,1/2-z
-x,y,z
x,1/2-y,1/2+z
1/2+x,1/2+y,z
1/2-x,-y,1/2+z
1/2+x,1/2-y,-z
1/2-x,y,1/2-z
1/2-x,1/2-y,-z
1/2+x,y,1/2-z
1/2-x,1/2+y,z
1/2+x,-y,1/2+z
loop_
_atom_site_type_symbol
_atom_site_label
_atom_site_fract_x
_atom_site_fract_y
_atom_site_fract_z
Si Si1 0.730106 0.578495 0.917497
Si Si2 0.863642 0.355989 0.344560
Si Si3 0.398028 0.977441 0.773500
Si Si4 0.200210 0.592047 0.282054
Si Si5 0.679231 0.212021 0.860873
Si Si6 0.445286 0.194230 0.131724
Si Si7 0.098345 0.096671 0.546029
O O1 0.678273 0.633497 0.923408
O O2 0.719006 0.506124 0.830019
O O3 0.772080 0.655867 0.893864
O O4 0.741662 0.500000 0.000000
O O5 0.889347 0.460315 0.321667
O O6 0.836639 0.323330 0.245754
O O7 0.905028 0.277993 0.366064
O O8 0.342629 0.936049 0.791262
O O9 0.431722 0.883593 0.785313
O O10 0.417476 0.054970 0.851431
O O11 0.250000 0.643331 0.250000
O O12 0.180056 0.671596 0.354710
O O13 0.637780 0.177121 0.931981
O O14 0.500000 0.229874 0.142533
O O15 0.439237 0.136285 0.031381
O O16 0.121815 0.000000 0.500000
#
# Coordination Sequence:
#
# PCOD9480420 Si02
#       7
#    16  16  16  16  16  16  16
#     4  11  24  38  58  94 129 165 205 244 301 377
#     4  10  21  41  63  88 131 167 206 258 314 379
#     4   9  20  39  62  90 123 164 204 258 315 378
#     4  11  21  36  62  88 127 168 201 244 300 374
#     4  11  21  38  63  89 124 168 204 245 304 379
#     4  11  23  40  65  94 121 158 217 276 329 372
#     4   9  20  37  60  87 126 158 201 260 319 368
#
# _framework density 21.152125999999999
#
# number of rings (size 3 to 8) (size 9 to 14) (size 15 to 20)
#    0.000    1.714    1.429    4.286    2.000    4.857 
#    0.000    2.143    0.000    0.429    0.000    0.000 
#    0.000    0.000    0.000    0.000    0.000    0.000 
#
# Total GULP energy -312115.853394 kJ/mol
# GULP energy per Si atom -5573.497382 kJ/mol
# Density = 2.110398 g / cm^3
# Si number density = 21.152126 Si / 1000 Ang^3
#
#
#
# Elastic Constant Matrix: (Units=GPa)
#
#
# Indices 1 2 3 4 5 6 
#
# 1 100.5508 35.4602 20.9646 0.0000 0.0000 0.0000
# 2 35.4602 85.3232 1.3920 0.0000 0.0000 0.0000
# 3 20.9646 1.3920 47.9267 0.0000 0.0000 0.0000
# 4 0.0000 0.0000 0.0000 30.0022 0.0000 0.0000
# 5 0.0000 0.0000 0.0000 0.0000 19.6232 0.0000
# 6 0.0000 0.0000 0.0000 0.0000 0.0000 14.6458
#
#
#
# Elastic Compliance Matrix: (Units=1/GPa)
#
#
# Indices 1 2 3 4 5 6 
#
# 1 0.012964 -0.005298 -0.005517 0.000000 0.000000 0.000000
# 2 -0.005298 0.013891 0.001914 0.000000 0.000000 0.000000
# 3 -0.005517 0.001914 0.023223 0.000000 0.000000 0.000000
# 4 0.000000 0.000000 0.000000 0.033331 0.000000 0.000000
# 5 0.000000 0.000000 0.000000 0.000000 0.050960 0.000000
# 6 0.000000 0.000000 0.000000 0.000000 0.000000 0.068279
#
#
# Mechanical properties :
#
#
# Convention : Reuss Voigt Hill
#
# Bulk Modulus (GPa) = 30.98281 38.82603 34.90442
# Shear Modulus (GPa) = 21.62564 24.58652 23.10608
#
# Velocity S-wave (km/s) = 3.20095 3.41305 3.30870
# Velocity P-wave (km/s) = 5.32361 5.82472 5.57979
#
# Compressibility (1/GPa) = 0.03227596
#
# Stress axis : x y z
#
# Youngs Moduli (GPa) = 77.13810 71.99098 43.06100
#
# Poissons Ratio (x) = 0.38139 0.23756
# Poissons Ratio (y) = 0.40866 -0.08242
# Poissons Ratio (z) = 0.42556 -0.13779
#
# Static dielectric constant tensor:
#      x y z
#    x 1.791310 0.000000 0.000000 
#    y 0.000000 1.809800 0.000000 
#    z 0.000000 0.000000 1.818320 
# 
# From -- ./inp_files/27424.got.cif
#   From: 2010.05.17/outbox.cif.g08.bks.cpg/sg64_14_cif.got.tgz:27424.got - 2010.06.03 16:29:19.
