data_PCOD9480010
_publ_section_title
;
Structure prediction by ZEFSAII (Michael W. Deem and Ramdas Pophale) SiO2 
 PCOD9480010
Probable space group: C M C A
;
_chemical_formula_sum "Si O2"
_cell_formula_units_Z 96
_cell_length_a 14.695873
_cell_length_b 9.632795
_cell_length_c 35.583108
_cell_angle_alpha 90.000000
_cell_angle_beta 90.000000
_cell_angle_gamma 90.000000
_cell_volume 5037.227747
_symmetry_space_group_name_H-M "C M C A"
_symmetry_group_IT_number 64
_symmetry_cell_setting 'orthorhombic'
loop_
_space_group_symop_operation_xyz
x,y,z
-x,1/2-y,1/2+z
x,-y,-z
-x,1/2+y,1/2-z
-x,-y,-z
x,1/2+y,1/2-z
-x,y,z
x,1/2-y,1/2+z
1/2+x,1/2+y,z
1/2-x,-y,1/2+z
1/2+x,1/2-y,-z
1/2-x,y,1/2-z
1/2-x,1/2-y,-z
1/2+x,y,1/2-z
1/2-x,1/2+y,z
1/2+x,-y,1/2+z
loop_
_atom_site_type_symbol
_atom_site_label
_atom_site_fract_x
_atom_site_fract_y
_atom_site_fract_z
Si Si1 0.198054 0.708886 0.211888
Si Si2 0.306045 0.802168 0.036163
Si Si3 0.000000 0.049310 0.941381
Si Si4 0.500000 0.758986 0.260399
Si Si5 0.500000 0.760516 0.510957
Si Si6 0.500000 0.047127 0.301337
Si Si7 0.802421 0.517803 0.668090
Si Si8 0.196217 0.476656 0.582751
O O1 0.250000 0.752732 0.250000
O O2 0.242406 0.568750 0.197341
O O3 0.091830 0.700428 0.221266
O O4 0.208934 0.822847 0.179474
O O5 0.409274 0.820023 0.022274
O O6 0.259210 0.934910 0.054659
O O7 0.305972 0.679229 0.067010
O O8 0.250000 0.750000 0.000000
O O9 0.094362 0.041094 0.919196
O O10 0.000000 0.907292 0.966161
O O11 0.000000 0.183737 0.968304
O O12 0.500000 0.924320 0.269346
O O13 0.500000 0.697826 0.218319
O O14 0.407783 0.024862 0.324745
O O15 0.773707 0.486658 0.625702
#
# Coordination Sequence:
#
# PCOD9480010 Si02
#       8
#    16  16   8   8   8   8  16  16
#     4  11  22  39  60  85 113 153 194 236 280 344
#     4  11  21  38  61  85 114 153 197 239 286 346
#     4   9  17  34  60  81 110 151 197 233 274 346
#     4  10  22  36  59  85 112 146 198 238 278 334
#     4   9  18  34  57  86 109 147 198 238 277 341
#     4  10  21  38  59  87 117 151 191 241 286 343
#     4  11  23  38  59  88 120 152 190 238 298 342
#     4  11  22  38  59  88 118 151 191 242 292 346
#
# _framework density 19.058102000000002
#
# number of rings (size 3 to 8) (size 9 to 14) (size 15 to 20)
#    0.000    1.500    3.333    2.500    2.333    0.000 
#    0.000    3.333    0.000    0.000    0.000    0.000 
#    0.000    0.000    0.000    0.000    0.000    0.000 
#
# Total GULP energy -268047.316788 kJ/mol
# GULP energy per Si atom -5584.319100 kJ/mol
# Density = 1.901472 g / cm^3
# Si number density = 19.058102 Si / 1000 Ang^3
#
#
#
# Elastic Constant Matrix: (Units=GPa)
#
#
# Indices 1 2 3 4 5 6 
#
# 1 108.7547 4.2431 -6.7373 0.0000 0.0000 0.0000
# 2 4.2431 27.3823 -9.7968 0.0000 0.0000 0.0000
# 3 -6.7373 -9.7968 63.3053 0.0000 0.0000 0.0000
# 4 0.0000 0.0000 0.0000 29.5988 0.0000 0.0000
# 5 0.0000 0.0000 0.0000 0.0000 15.9886 0.0000
# 6 0.0000 0.0000 0.0000 0.0000 0.0000 3.6793
#
#
#
# Elastic Compliance Matrix: (Units=1/GPa)
#
#
# Indices 1 2 3 4 5 6 
#
# 1 0.009290 -0.001149 0.000811 0.000000 0.000000 0.000000
# 2 -0.001149 0.038803 0.005883 0.000000 0.000000 0.000000
# 3 0.000811 0.005883 0.016793 0.000000 0.000000 0.000000
# 4 0.000000 0.000000 0.000000 0.033785 0.000000 0.000000
# 5 0.000000 0.000000 0.000000 0.000000 0.062545 0.000000
# 6 0.000000 0.000000 0.000000 0.000000 0.000000 0.271788
#
#
# Mechanical properties :
#
#
# Convention : Reuss Voigt Hill
#
# Bulk Modulus (GPa) = 13.16246 19.42892 16.29569
# Shear Modulus (GPa) = 11.17966 23.96891 17.57429
#
# Velocity S-wave (km/s) = 2.42463 3.55022 3.03997
# Velocity P-wave (km/s) = 3.84186 5.19828 4.57067
#
# Compressibility (1/GPa) = 0.07597365
#
# Stress axis : x y z
#
# Youngs Moduli (GPa) = 107.64167 25.77141 59.54827
#
# Poissons Ratio (x) = 0.02962 -0.04828
# Poissons Ratio (y) = 0.12373 -0.35030
# Poissons Ratio (z) = -0.08728 -0.15160
#
# Static dielectric constant tensor:
#      x y z
#    x 1.664260 0.000000 0.000000 
#    y 0.000000 1.636730 0.000000 
#    z 0.000000 0.000000 1.643870 
# 
# From -- ./inp_files/53226.got.cif
#   From: 2010.05.17/outbox.cif.g08.bks.cpg/sg64_27_cif.got.tgz:53226.got - 2010.06.03 16:29:19.
