data_PCOD9480142
_publ_section_title
;
Structure prediction by ZEFSAII (Michael W. Deem and Ramdas Pophale) SiO2 
 PCOD9480142
Probable space group: C M C A
;
_chemical_formula_sum "Si O2"
_cell_formula_units_Z 72
_cell_length_a 20.110728
_cell_length_b 13.754141
_cell_length_c 9.986825
_cell_angle_alpha 90.000000
_cell_angle_beta 90.000000
_cell_angle_gamma 90.000000
_cell_volume 2762.413604
_symmetry_space_group_name_H-M "C M C A"
_symmetry_group_IT_number 64
_symmetry_cell_setting 'orthorhombic'
loop_
_space_group_symop_operation_xyz
x,y,z
-x,1/2-y,1/2+z
x,-y,-z
-x,1/2+y,1/2-z
-x,-y,-z
x,1/2+y,1/2-z
-x,y,z
x,1/2-y,1/2+z
1/2+x,1/2+y,z
1/2-x,-y,1/2+z
1/2+x,1/2-y,-z
1/2-x,y,1/2-z
1/2-x,1/2-y,-z
1/2+x,y,1/2-z
1/2-x,1/2+y,z
1/2+x,-y,1/2+z
loop_
_atom_site_type_symbol
_atom_site_label
_atom_site_fract_x
_atom_site_fract_y
_atom_site_fract_z
Si Si1 0.174308 0.000000 0.500000
Si Si2 0.500000 0.755178 0.922106
Si Si3 0.603329 0.400271 0.980639
Si Si4 0.651252 0.884622 0.252012
Si Si5 0.173162 0.845944 0.717853
Si Si6 0.500000 0.859684 0.173020
O O1 0.191528 0.943302 0.359690
O O2 0.153080 0.898053 0.578992
O O3 0.500000 0.742303 0.761685
O O4 0.562558 0.693628 0.975553
O O5 0.500000 0.850527 0.012269
O O6 0.627827 0.390871 0.832266
O O7 0.565102 0.500000 0.000000
O O8 0.660769 0.411640 0.092305
O O9 0.664464 0.769469 0.257774
O O10 0.572040 0.902646 0.214725
O O11 0.250000 0.865561 0.750000
#
# Coordination Sequence:
#
# PCOD9480142 Si02
#       6
#     8   8  16  16  16   8
#     4  12  28  47  76 106 138 191 246 294 366 424
#     4  10  21  38  70  99 138 187 229 286 368 422
#     4  11  22  44  68  99 143 183 232 294 360 429
#     4  11  25  47  72 108 143 186 236 295 359 433
#     4  12  28  47  74 101 142 191 245 300 355 424
#     4  10  22  39  68 107 142 182 228 290 358 431
#
# _framework density 26.064164000000002
#
# number of rings (size 3 to 8) (size 9 to 14) (size 15 to 20)
#    0.000    0.889    4.444    1.667    4.667    4.889 
#    0.000    1.111    0.000    0.000    0.000    0.000 
#    0.000    0.000    0.000    0.000    0.000    0.000 
#
# Total GULP energy -200406.758967 kJ/mol
# GULP energy per Si atom -5566.854416 kJ/mol
# Density = 2.600484 g / cm^3
# Si number density = 26.064164 Si / 1000 Ang^3
#
#
#
# Elastic Constant Matrix: (Units=GPa)
#
#
# Indices 1 2 3 4 5 6 
#
# 1 129.2629 3.8261 14.2212 0.0000 0.0000 0.0000
# 2 3.8261 139.8105 19.3962 0.0000 0.0000 0.0000
# 3 14.2212 19.3962 171.6784 0.0000 0.0000 0.0000
# 4 0.0000 0.0000 0.0000 53.3206 0.0000 0.0000
# 5 0.0000 0.0000 0.0000 0.0000 -10.5932 0.0000
# 6 0.0000 0.0000 0.0000 0.0000 0.0000 21.7721
#
#
#
# Elastic Compliance Matrix: (Units=1/GPa)
#
#
# Indices 1 2 3 4 5 6 
#
# 1 0.007810 -0.000126 -0.000633 0.000000 0.000000 0.000000
# 2 -0.000126 0.007268 -0.000811 0.000000 0.000000 0.000000
# 3 -0.000633 -0.000811 0.005969 0.000000 0.000000 0.000000
# 4 0.000000 0.000000 0.000000 0.018754 0.000000 0.000000
# 5 0.000000 0.000000 0.000000 0.000000 -0.094400 0.000000
# 6 0.000000 0.000000 0.000000 0.000000 0.000000 0.045930
#
#
# Mechanical properties :
#
#
# Convention : Reuss Voigt Hill
#
# Bulk Modulus (GPa) = 55.84078 57.29319 56.56698
# Shear Modulus (GPa) = 11377.32476 39.78714 5708.55595
#
# Velocity S-wave (km/s) = 66.14074 3.91129 46.85027
# Velocity P-wave (km/s) = 76.51319 6.51360 54.29869
#
# Compressibility (1/GPa) = 0.01790806
#
# Stress axis : x y z
#
# Youngs Moduli (GPa) = 128.04910 137.58066 167.53640
#
# Poissons Ratio (x) = 0.01733 0.10600
# Poissons Ratio (y) = 0.01613 0.13583
# Poissons Ratio (z) = 0.08101 0.11154
#
# Static dielectric constant tensor:
#      x y z
#    x 2.160720 0.000000 0.000000 
#    y 0.000000 2.189860 0.000000 
#    z 0.000000 0.000000 2.032400 
# 
# From -- ./inp_files/10063.got.cif
#   From: 2010.05.17/outbox.cif.g08.bks.cpg/sg64_6_cif.got.tgz:10063.got - 2010.06.03 16:29:19.
