data_PCOD9480098
_publ_section_title
;
Structure prediction by ZEFSAII (Michael W. Deem and Ramdas Pophale) SiO2 
 PCOD9480098
Probable space group: C M C A
;
_chemical_formula_sum "Si O2"
_cell_formula_units_Z 96
_cell_length_a 13.616737
_cell_length_b 16.716266
_cell_length_c 23.204309
_cell_angle_alpha 90.000000
_cell_angle_beta 90.000000
_cell_angle_gamma 90.000000
_cell_volume 5281.787967
_symmetry_space_group_name_H-M "C M C A"
_symmetry_group_IT_number 64
_symmetry_cell_setting 'orthorhombic'
loop_
_space_group_symop_operation_xyz
x,y,z
-x,1/2-y,1/2+z
x,-y,-z
-x,1/2+y,1/2-z
-x,-y,-z
x,1/2+y,1/2-z
-x,y,z
x,1/2-y,1/2+z
1/2+x,1/2+y,z
1/2-x,-y,1/2+z
1/2+x,1/2-y,-z
1/2-x,y,1/2-z
1/2-x,1/2-y,-z
1/2+x,y,1/2-z
1/2-x,1/2+y,z
1/2+x,-y,1/2+z
loop_
_atom_site_type_symbol
_atom_site_label
_atom_site_fract_x
_atom_site_fract_y
_atom_site_fract_z
Si Si1 0.389215 0.466650 0.332891
Si Si2 0.385132 0.242192 0.651017
Si Si3 0.611552 0.891586 0.925302
Si Si4 0.250000 0.190759 0.250000
Si Si5 0.248891 0.000000 0.000000
Si Si6 0.615289 0.950378 0.711116
Si Si7 0.810453 0.072504 0.882952
O O1 0.500000 0.432550 0.335251
O O2 0.389310 0.547470 0.371109
O O3 0.367320 0.494759 0.267985
O O4 0.302106 0.415192 0.360523
O O5 0.500000 0.255648 0.666039
O O6 0.359965 0.306328 0.601079
O O7 0.315527 0.258917 0.705611
O O8 0.369181 0.153175 0.628135
O O9 0.500000 0.887299 0.948005
O O10 0.682807 0.931752 0.971288
O O11 0.322451 0.130204 0.283568
O O12 0.190602 0.041772 0.948292
O O13 0.500000 0.932361 0.710147
O O14 0.647213 0.001858 0.656587
#
# Coordination Sequence:
#
# PCOD9480098 Si02
#       7
#    16  16  16   8   8  16  16
#     4   9  17  33  59  87 115 150 195 240 282 340
#     4  11  24  39  57  88 123 154 187 242 308 354
#     4   9  17  35  60  88 115 145 192 245 294 343
#     4  12  20  36  62  86 120 150 190 236 292 358
#     4  10  21  38  63  82 106 158 210 246 282 344
#     4  11  20  36  60  87 116 154 197 235 283 351
#     4  11  22  38  57  86 120 155 198 241 292 345
#
# _framework density 18.175663
#
# number of rings (size 3 to 8) (size 9 to 14) (size 15 to 20)
#    0.000    1.667    3.333    2.250    2.333    1.333 
#    0.000    2.500    0.000    2.000    0.000    0.000 
#    0.000    0.000    0.000    0.000    0.000    0.000 
#
# Total GULP energy -267979.099620 kJ/mol
# GULP energy per Si atom -5582.897909 kJ/mol
# Density = 1.813429 g / cm^3
# Si number density = 18.175663 Si / 1000 Ang^3
#
#
#
# Elastic Constant Matrix: (Units=GPa)
#
#
# Indices 1 2 3 4 5 6 
#
# 1 80.4765 25.3372 34.6830 0.0000 0.0000 0.0000
# 2 25.3372 71.5072 43.5705 0.0000 0.0000 0.0000
# 3 34.6830 43.5705 125.6645 0.0000 0.0000 0.0000
# 4 0.0000 0.0000 0.0000 13.2641 0.0000 0.0000
# 5 0.0000 0.0000 0.0000 0.0000 19.4205 0.0000
# 6 0.0000 0.0000 0.0000 0.0000 0.0000 26.2215
#
#
#
# Elastic Compliance Matrix: (Units=1/GPa)
#
#
# Indices 1 2 3 4 5 6 
#
# 1 0.014758 -0.003483 -0.002865 0.000000 0.000000 0.000000
# 2 -0.003483 0.018552 -0.005471 0.000000 0.000000 0.000000
# 3 -0.002865 -0.005471 0.010646 0.000000 0.000000 0.000000
# 4 0.000000 0.000000 0.000000 0.075391 0.000000 0.000000
# 5 0.000000 0.000000 0.000000 0.000000 0.051492 0.000000
# 6 0.000000 0.000000 0.000000 0.000000 0.000000 0.038137
#
#
# Mechanical properties :
#
#
# Convention : Reuss Voigt Hill
#
# Bulk Modulus (GPa) = 49.22201 53.86995 51.54598
# Shear Modulus (GPa) = 20.88670 23.38506 22.13588
#
# Velocity S-wave (km/s) = 3.39360 3.59083 3.49361
# Velocity P-wave (km/s) = 6.51885 6.84799 6.68545
#
# Compressibility (1/GPa) = 0.02031612
#
# Stress axis : x y z
#
# Youngs Moduli (GPa) = 67.76215 53.90118 93.93639
#
# Poissons Ratio (x) = 0.18775 0.26916
# Poissons Ratio (y) = 0.23603 0.51394
# Poissons Ratio (z) = 0.19416 0.29490
#
# Static dielectric constant tensor:
#      x y z
#    x 1.663190 0.000000 0.000000 
#    y 0.000000 1.597090 0.000000 
#    z 0.000000 0.000000 1.613100 
# 
# From -- ./inp_files/39270.got.cif
#   From: 2010.05.17/outbox.cif.g08.bks.cpg/sg64_20_cif.got.tgz:39270.got - 2010.06.03 16:29:19.
