data_PCOD9480406
_publ_section_title
;
Structure prediction by ZEFSAII (Michael W. Deem and Ramdas Pophale) SiO2 
 PCOD9480406
Probable space group: C M C A
;
_chemical_formula_sum "Si O2"
_cell_formula_units_Z 96
_cell_length_a 29.450978
_cell_length_b 5.384188
_cell_length_c 29.095795
_cell_angle_alpha 90.000000
_cell_angle_beta 90.000000
_cell_angle_gamma 90.000000
_cell_volume 4613.708643
_symmetry_space_group_name_H-M "C M C A"
_symmetry_group_IT_number 64
_symmetry_cell_setting 'orthorhombic'
loop_
_space_group_symop_operation_xyz
x,y,z
-x,1/2-y,1/2+z
x,-y,-z
-x,1/2+y,1/2-z
-x,-y,-z
x,1/2+y,1/2-z
-x,y,z
x,1/2-y,1/2+z
1/2+x,1/2+y,z
1/2-x,-y,1/2+z
1/2+x,1/2-y,-z
1/2-x,y,1/2-z
1/2-x,1/2-y,-z
1/2+x,y,1/2-z
1/2-x,1/2+y,z
1/2+x,-y,1/2+z
loop_
_atom_site_type_symbol
_atom_site_label
_atom_site_fract_x
_atom_site_fract_y
_atom_site_fract_z
Si Si1 0.651756 0.917274 0.131723
Si Si2 0.500000 0.455113 0.301444
Si Si3 0.721666 0.466799 0.551451
Si Si4 0.908349 0.041712 0.760919
Si Si5 0.595642 0.077390 0.632493
Si Si6 0.500000 0.543671 0.862996
Si Si7 0.230598 0.667225 0.802989
O O1 0.628422 0.652138 0.121366
O O2 0.680100 0.898194 0.179615
O O3 0.686602 0.980780 0.091550
O O4 0.617004 0.148595 0.132012
O O5 0.454756 0.450059 0.269414
O O6 0.500000 0.708764 0.330501
O O7 0.500000 0.217476 0.334822
O O8 0.701961 0.500000 0.500000
O O9 0.758976 0.687479 0.555102
O O10 0.882576 0.295506 0.752753
O O11 0.917170 0.028059 0.814318
O O12 0.546756 0.059638 0.608585
O O13 0.250000 0.685667 0.750000
O O14 0.259836 0.439668 0.822970
#
# Coordination Sequence:
#
# PCOD9480406 Si02
#       7
#    16   8  16  16  16   8  16
#     4  12  24  41  60  90 127 154 202 254 304 365
#     4  12  19  36  54  70  96 155 210 293 312 334
#     4  10  21  41  74 104 125 153 188 241 320 389
#     4  12  20  35  49  73 103 148 215 260 318 336
#     4  12  25  38  55  86 115 169 205 263 309 351
#     4  12  23  40  56  76 117 159 222 265 327 350
#     4  10  21  41  55  76 111 162 197 228 278 345
#
# _framework density 20.807556000000002
#
# number of rings (size 3 to 8) (size 9 to 14) (size 15 to 20)
#    0.000    0.667    3.333    6.000    0.000    0.000 
#   18.000    0.000    0.000    0.000    0.000    3.500 
#    0.000    0.000    0.000    0.000    0.000    0.000 
#
# Total GULP energy -267877.859043 kJ/mol
# GULP energy per Si atom -5580.788730 kJ/mol
# Density = 2.076020 g / cm^3
# Si number density = 20.807556 Si / 1000 Ang^3
#
#
#
# Elastic Constant Matrix: (Units=GPa)
#
#
# Indices 1 2 3 4 5 6 
#
# 1 52.8891 -22.1577 23.7709 0.0000 0.0000 0.0000
# 2 -22.1577 99.9761 -11.6012 0.0000 0.0000 0.0000
# 3 23.7709 -11.6012 44.3047 0.0000 0.0000 0.0000
# 4 0.0000 0.0000 0.0000 16.9791 0.0000 0.0000
# 5 0.0000 0.0000 0.0000 0.0000 17.6436 0.0000
# 6 0.0000 0.0000 0.0000 0.0000 0.0000 34.0845
#
#
#
# Elastic Compliance Matrix: (Units=1/GPa)
#
#
# Indices 1 2 3 4 5 6 
#
# 1 0.026655 0.004381 -0.013154 0.000000 0.000000 0.000000
# 2 0.004381 0.011036 0.000539 0.000000 0.000000 0.000000
# 3 -0.013154 0.000539 0.029770 0.000000 0.000000 0.000000
# 4 0.000000 0.000000 0.000000 0.058896 0.000000 0.000000
# 5 0.000000 0.000000 0.000000 0.000000 0.056678 0.000000
# 6 0.000000 0.000000 0.000000 0.000000 0.000000 0.029339
#
#
# Mechanical properties :
#
#
# Convention : Reuss Voigt Hill
#
# Bulk Modulus (GPa) = 19.61046 19.68819 19.64932
# Shear Modulus (GPa) = 20.33855 27.55196 23.94526
#
# Velocity S-wave (km/s) = 3.12983 3.64281 3.39602
# Velocity P-wave (km/s) = 4.74407 5.21306 4.98409
#
# Compressibility (1/GPa) = 0.05099320
#
# Stress axis : x y z
#
# Youngs Moduli (GPa) = 37.51635 90.61292 33.59114
#
# Poissons Ratio (x) = -0.39699 0.44186
# Poissons Ratio (y) = -0.16437 -0.01811
# Poissons Ratio (z) = 0.49349 -0.04885
#
# Static dielectric constant tensor:
#      x y z
#    x 1.878560 0.000000 0.000000 
#    y 0.000000 1.838600 0.000000 
#    z 0.000000 0.000000 1.515470 
# 
# From -- ./inp_files/54059.got.cif
#   From: 2010.05.17/outbox.cif.g08.bks.cpg/sg64_28_cif.got.tgz:54059.got - 2010.06.03 16:29:19.
