data_PCOD9480529
_publ_section_title
;
Structure prediction by ZEFSAII (Michael W. Deem and Ramdas Pophale) SiO2 
 PCOD9480529
Probable space group: C M C A
;
_chemical_formula_sum "Si O2"
_cell_formula_units_Z 112
_cell_length_a 15.970823
_cell_length_b 11.474022
_cell_length_c 27.917847
_cell_angle_alpha 90.000000
_cell_angle_beta 90.000000
_cell_angle_gamma 90.000000
_cell_volume 5115.933583
_symmetry_space_group_name_H-M "C M C A"
_symmetry_group_IT_number 64
_symmetry_cell_setting 'orthorhombic'
loop_
_space_group_symop_operation_xyz
x,y,z
-x,1/2-y,1/2+z
x,-y,-z
-x,1/2+y,1/2-z
-x,-y,-z
x,1/2+y,1/2-z
-x,y,z
x,1/2-y,1/2+z
1/2+x,1/2+y,z
1/2-x,-y,1/2+z
1/2+x,1/2-y,-z
1/2-x,y,1/2-z
1/2-x,1/2-y,-z
1/2+x,y,1/2-z
1/2-x,1/2+y,z
1/2+x,-y,1/2+z
loop_
_atom_site_type_symbol
_atom_site_label
_atom_site_fract_x
_atom_site_fract_y
_atom_site_fract_z
Si Si1 0.174450 0.106535 0.339577
Si Si2 0.908017 0.801171 0.916881
Si Si3 0.098105 0.315149 0.745193
Si Si4 0.600199 0.193636 0.601921
Si Si5 0.302140 0.370073 0.006035
Si Si6 0.099544 0.857587 0.338820
Si Si7 0.634583 0.976984 0.663292
O O1 0.156471 0.177551 0.291098
O O2 0.144471 0.185148 0.383739
O O3 0.268547 0.059506 0.342159
O O4 0.118110 0.991907 0.335371
O O5 0.863739 0.694739 0.888511
O O6 0.912511 0.896142 0.874955
O O7 0.000000 0.763324 0.932843
O O8 0.863766 0.858924 0.961142
O O9 0.127159 0.216658 0.707279
O O10 0.105518 0.436521 0.715595
O O11 0.000000 0.296567 0.757958
O O12 0.500000 0.206305 0.594812
O O13 0.646423 0.140473 0.555568
O O14 0.616224 0.106709 0.646578
O O15 0.261644 0.500000 0.000000
O O16 0.250000 0.250000 0.000000
O O17 0.000000 0.837982 0.341324
#
# Coordination Sequence:
#
# PCOD9480529 Si02
#       7
#    16  16  16  16  16  16  16
#     4  12  26  42  67 100 145 181 232 295 361 421
#     4  10  21  43  71  95 127 176 227 279 345 423
#     4  10  22  43  68  94 132 185 234 280 347 429
#     4  12  27  45  71 106 143 185 239 296 356 434
#     4  12  27  45  74 106 144 186 238 301 367 432
#     4   9  21  41  68  95 133 179 229 283 352 427
#     4  11  24  41  67  99 134 175 229 294 348 413
#
# _framework density 21.892385999999998
#
# number of rings (size 3 to 8) (size 9 to 14) (size 15 to 20)
#    0.000    1.143    1.429    5.143    8.000    0.571 
#    0.000    0.000    0.000    3.429    0.000    0.000 
#    0.000    0.000    0.000    0.000    0.000    0.000 
#
# Total GULP energy -312904.062120 kJ/mol
# GULP energy per Si atom -5587.572538 kJ/mol
# Density = 2.184256 g / cm^3
# Si number density = 21.892386 Si / 1000 Ang^3
#
#
#
# Elastic Constant Matrix: (Units=GPa)
#
#
# Indices 1 2 3 4 5 6 
#
# 1 68.6659 10.6351 3.4010 0.0000 0.0000 0.0000
# 2 10.6351 115.4812 22.0646 0.0000 0.0000 0.0000
# 3 3.4010 22.0646 79.7414 0.0000 0.0000 0.0000
# 4 0.0000 0.0000 0.0000 27.1170 0.0000 0.0000
# 5 0.0000 0.0000 0.0000 0.0000 16.4325 0.0000
# 6 0.0000 0.0000 0.0000 0.0000 0.0000 22.6276
#
#
#
# Elastic Compliance Matrix: (Units=1/GPa)
#
#
# Indices 1 2 3 4 5 6 
#
# 1 0.014779 -0.001310 -0.000268 0.000000 0.000000 0.000000
# 2 -0.001310 0.009259 -0.002506 0.000000 0.000000 0.000000
# 3 -0.000268 -0.002506 0.013245 0.000000 0.000000 0.000000
# 4 0.000000 0.000000 0.000000 0.036877 0.000000 0.000000
# 5 0.000000 0.000000 0.000000 0.000000 0.060855 0.000000
# 6 0.000000 0.000000 0.000000 0.000000 0.000000 0.044194
#
#
# Mechanical properties :
#
#
# Convention : Reuss Voigt Hill
#
# Bulk Modulus (GPa) = 34.34544 37.34332 35.84438
# Shear Modulus (GPa) = 25.37003 28.42127 26.89565
#
# Velocity S-wave (km/s) = 3.40788 3.60700 3.50885
# Velocity P-wave (km/s) = 5.58635 5.86873 5.72928
#
# Compressibility (1/GPa) = 0.02911595
#
# Stress axis : x y z
#
# Youngs Moduli (GPa) = 67.66163 108.00442 75.49793
#
# Poissons Ratio (x) = 0.14148 0.02022
# Poissons Ratio (y) = 0.08863 0.18920
# Poissons Ratio (z) = 0.01813 0.27067
#
# Static dielectric constant tensor:
#      x y z
#    x 1.901120 0.000000 0.000000 
#    y 0.000000 1.851690 0.000000 
#    z 0.000000 0.000000 1.809740 
# 
# From -- ./inp_files/53286.got.cif
#   From: 2010.05.17/outbox.cif.g08.bks.cpg/sg64_27_cif.got.tgz:53286.got - 2010.06.03 16:29:19.
