data_PCOD9480554
_publ_section_title
;
Structure prediction by ZEFSAII (Michael W. Deem and Ramdas Pophale) SiO2 
 PCOD9480554
Probable space group: C M C A
;
_chemical_formula_sum "Si O2"
_cell_formula_units_Z 88
_cell_length_a 28.236442
_cell_length_b 11.256803
_cell_length_c 15.669864
_cell_angle_alpha 90.000000
_cell_angle_beta 90.000000
_cell_angle_gamma 90.000000
_cell_volume 4980.698631
_symmetry_space_group_name_H-M "C M C A"
_symmetry_group_IT_number 64
_symmetry_cell_setting 'orthorhombic'
loop_
_space_group_symop_operation_xyz
x,y,z
-x,1/2-y,1/2+z
x,-y,-z
-x,1/2+y,1/2-z
-x,-y,-z
x,1/2+y,1/2-z
-x,y,z
x,1/2-y,1/2+z
1/2+x,1/2+y,z
1/2-x,-y,1/2+z
1/2+x,1/2-y,-z
1/2-x,y,1/2-z
1/2-x,1/2-y,-z
1/2+x,y,1/2-z
1/2-x,1/2+y,z
1/2+x,-y,1/2+z
loop_
_atom_site_type_symbol
_atom_site_label
_atom_site_fract_x
_atom_site_fract_y
_atom_site_fract_z
Si Si1 0.760691 0.000000 0.000000
Si Si2 0.648174 0.863321 0.499232
Si Si3 0.553704 0.005152 0.101951
Si Si4 0.370381 0.195039 0.161195
Si Si5 0.791687 0.495512 0.178292
Si Si6 0.624821 0.805445 0.159063
O O1 0.731143 0.008656 0.914834
O O2 0.795731 0.112373 0.006319
O O3 0.638708 0.795234 0.410630
O O4 0.633199 0.784714 0.580365
O O5 0.628342 0.000000 0.500000
O O6 0.500000 0.014612 0.134608
O O7 0.581480 0.890050 0.134468
O O8 0.587665 0.113145 0.126340
O O9 0.551863 0.000000 0.000000
O O10 0.323741 0.114610 0.179552
O O11 0.385844 0.242535 0.252454
O O12 0.750000 0.492167 0.250000
O O13 0.828717 0.386075 0.179837
#
# Coordination Sequence:
#
# PCOD9480554 Si02
#       6
#     8  16  16  16  16  16
#     4  10  22  34  56  80 124 162 208 240 296 342
#     4  10  23  39  56  88 121 169 203 245 300 360
#     4  10  22  43  69  93 115 152 205 259 319 375
#     4  11  23  39  65  88 124 161 203 255 307 365
#     4  11  23  37  57  93 120 163 213 255 297 350
#     4  11  23  39  65  88 124 161 203 255 307 365
#
# _framework density 17.668205
#
# number of rings (size 3 to 8) (size 9 to 14) (size 15 to 20)
#    0.545    0.909    1.818    3.273    7.636    7.273 
#    0.000    0.000    0.000    1.091    0.000    0.000 
#    0.000    0.000    0.000    0.000    0.000    0.000 
#
# Total GULP energy -245382.589117 kJ/mol
# GULP energy per Si atom -5576.877025 kJ/mol
# Density = 1.762799 g / cm^3
# Si number density = 17.668205 Si / 1000 Ang^3
#
#
#
# Elastic Constant Matrix: (Units=GPa)
#
#
# Indices 1 2 3 4 5 6 
#
# 1 76.6069 -2.8135 -10.3899 0.0000 0.0000 0.0000
# 2 -2.8135 54.5486 -10.6203 0.0000 0.0000 0.0000
# 3 -10.3899 -10.6203 66.5669 0.0000 0.0000 0.0000
# 4 0.0000 0.0000 0.0000 110.6074 0.0000 0.0000
# 5 0.0000 0.0000 0.0000 0.0000 20.3678 0.0000
# 6 0.0000 0.0000 0.0000 0.0000 0.0000 16.9532
#
#
#
# Elastic Compliance Matrix: (Units=1/GPa)
#
#
# Indices 1 2 3 4 5 6 
#
# 1 0.013404 0.001134 0.002273 0.000000 0.000000 0.000000
# 2 0.001134 0.019016 0.003211 0.000000 0.000000 0.000000
# 3 0.002273 0.003211 0.015890 0.000000 0.000000 0.000000
# 4 0.000000 0.000000 0.000000 0.009041 0.000000 0.000000
# 5 0.000000 0.000000 0.000000 0.000000 0.049097 0.000000
# 6 0.000000 0.000000 0.000000 0.000000 0.000000 0.058986
#
#
# Mechanical properties :
#
#
# Convention : Reuss Voigt Hill
#
# Bulk Modulus (GPa) = 16.24849 16.67502 16.46176
# Shear Modulus (GPa) = 28.94985 44.35541 36.65263
#
# Velocity S-wave (km/s) = 4.05226 5.01589 4.55961
# Velocity P-wave (km/s) = 5.57771 6.55774 6.08748
#
# Compressibility (1/GPa) = 0.06154418
#
# Stress axis : x y z
#
# Youngs Moduli (GPa) = 74.60698 52.58764 62.93462
#
# Poissons Ratio (x) = -0.05963 -0.14305
# Poissons Ratio (y) = -0.08459 -0.20207
# Poissons Ratio (z) = -0.16958 -0.16885
#
# Static dielectric constant tensor:
#      x y z
#    x 1.584810 0.000000 0.000000 
#    y 0.000000 -2.202430 0.000000 
#    z 0.000000 0.000000 1.567120 
# 
# From -- ./inp_files/27979.got.cif
#   From: 2010.05.17/outbox.cif.g08.bks.cpg/sg64_14_cif.got.tgz:27979.got - 2010.06.03 16:29:19.
