data_PCOD9480008
_publ_section_title
;
Structure prediction by ZEFSAII (Michael W. Deem and Ramdas Pophale) SiO2 
 PCOD9480008
Probable space group: C M C A
;
_chemical_formula_sum "Si O2"
_cell_formula_units_Z 112
_cell_length_a 22.702805
_cell_length_b 13.882139
_cell_length_c 15.775106
_cell_angle_alpha 90.000000
_cell_angle_beta 90.000000
_cell_angle_gamma 90.000000
_cell_volume 4971.737536
_symmetry_space_group_name_H-M "C M C A"
_symmetry_group_IT_number 64
_symmetry_cell_setting 'orthorhombic'
loop_
_space_group_symop_operation_xyz
x,y,z
-x,1/2-y,1/2+z
x,-y,-z
-x,1/2+y,1/2-z
-x,-y,-z
x,1/2+y,1/2-z
-x,y,z
x,1/2-y,1/2+z
1/2+x,1/2+y,z
1/2-x,-y,1/2+z
1/2+x,1/2-y,-z
1/2-x,y,1/2-z
1/2-x,1/2-y,-z
1/2+x,y,1/2-z
1/2-x,1/2+y,z
1/2+x,-y,1/2+z
loop_
_atom_site_type_symbol
_atom_site_label
_atom_site_fract_x
_atom_site_fract_y
_atom_site_fract_z
Si Si1 0.067727 0.415513 0.750193
Si Si2 0.862908 0.401740 0.460589
Si Si3 0.371307 0.275475 0.321193
Si Si4 0.381262 0.461496 0.406760
Si Si5 0.934665 0.621922 0.680145
Si Si6 0.251053 0.487349 0.146758
Si Si7 0.719971 0.196933 0.420724
O O1 0.101441 0.327185 0.706720
O O2 0.094817 0.462891 0.835979
O O3 0.067940 0.506782 0.687211
O O4 0.000000 0.388293 0.766725
O O5 0.885054 0.500000 0.500000
O O6 0.915046 0.349399 0.412377
O O7 0.806429 0.433416 0.400238
O O8 0.840551 0.336527 0.536035
O O9 0.400881 0.350558 0.388601
O O10 0.383319 0.337468 0.237922
O O11 0.302881 0.261164 0.343806
O O12 0.395083 0.500000 0.500000
O O13 0.310905 0.455500 0.392990
O O14 0.000000 0.652610 0.705951
O O15 0.250000 0.480909 0.250000
O O16 0.252993 0.599913 0.117175
O O17 0.750000 0.250000 0.500000
#
# Coordination Sequence:
#
# PCOD9480008 Si02
#       7
#    16  16  16  16  16  16  16
#     4  10  22  42  65  89 123 168 220 274 329 399
#     4  10  21  38  59  86 122 159 204 264 325 386
#     4  11  22  41  64  91 126 171 220 269 330 396
#     4  11  23  41  66  97 135 175 221 282 345 402
#     4  10  22  41  64  89 121 166 219 270 323 391
#     4  11  21  38  61  90 130 174 218 267 331 403
#     4  11  23  37  58  92 130 167 211 267 330 399
#
# _framework density 22.527335999999998
#
# number of rings (size 3 to 8) (size 9 to 14) (size 15 to 20)
#    0.000    1.429    0.000    7.714    0.000    4.571 
#    0.000    5.000    0.000    0.000    0.000    0.000 
#    0.000    0.000    0.000    0.000    0.000    0.000 
#
# Total GULP energy -312180.787250 kJ/mol
# GULP energy per Si atom -5574.656915 kJ/mol
# Density = 2.247606 g / cm^3
# Si number density = 22.527336 Si / 1000 Ang^3
#
#
#
# Elastic Constant Matrix: (Units=GPa)
#
#
# Indices 1 2 3 4 5 6 
#
# 1 62.9635 25.1772 26.0006 0.0000 0.0000 0.0000
# 2 25.1772 110.0454 6.7393 0.0000 0.0000 0.0000
# 3 26.0006 6.7393 84.7921 0.0000 0.0000 0.0000
# 4 0.0000 0.0000 0.0000 17.7712 0.0000 0.0000
# 5 0.0000 0.0000 0.0000 0.0000 15.6475 0.0000
# 6 0.0000 0.0000 0.0000 0.0000 0.0000 12.8493
#
#
#
# Elastic Compliance Matrix: (Units=1/GPa)
#
#
# Indices 1 2 3 4 5 6 
#
# 1 0.019955 -0.004211 -0.005784 0.000000 0.000000 0.000000
# 2 -0.004211 0.010020 0.000495 0.000000 0.000000 0.000000
# 3 -0.005784 0.000495 0.013528 0.000000 0.000000 0.000000
# 4 0.000000 0.000000 0.000000 0.056271 0.000000 0.000000
# 5 0.000000 0.000000 0.000000 0.000000 0.063908 0.000000
# 6 0.000000 0.000000 0.000000 0.000000 0.000000 0.077825
#
#
# Mechanical properties :
#
#
# Convention : Reuss Voigt Hill
#
# Bulk Modulus (GPa) = 40.81308 41.51501 41.16405
# Shear Modulus (GPa) = 18.60984 22.57921 20.59452
#
# Velocity S-wave (km/s) = 2.87731 3.16935 3.02686
# Velocity P-wave (km/s) = 5.40324 5.64462 5.52525
#
# Compressibility (1/GPa) = 0.02450195
#
# Stress axis : x y z
#
# Youngs Moduli (GPa) = 50.11351 99.79719 73.92142
#
# Poissons Ratio (x) = 0.42026 0.42758
# Poissons Ratio (y) = 0.21104 -0.03658
# Poissons Ratio (z) = 0.28987 -0.04939
#
# Static dielectric constant tensor:
#      x y z
#    x 1.920620 0.000000 0.000000 
#    y 0.000000 1.894460 0.000000 
#    z 0.000000 0.000000 1.880420 
# 
# From -- ./inp_files/27426.got.cif
#   From: 2010.05.17/outbox.cif.g08.bks.cpg/sg64_14_cif.got.tgz:27426.got - 2010.06.03 16:29:19.
