data_PCOD9480160
_publ_section_title
;
Structure prediction by ZEFSAII (Michael W. Deem and Ramdas Pophale) SiO2 
 PCOD9480160
Probable space group: C M C A
;
_chemical_formula_sum "Si O2"
_cell_formula_units_Z 80
_cell_length_a 29.909953
_cell_length_b 9.382002
_cell_length_c 13.904991
_cell_angle_alpha 90.000000
_cell_angle_beta 90.000000
_cell_angle_gamma 90.000000
_cell_volume 3901.952371
_symmetry_space_group_name_H-M "C M C A"
_symmetry_group_IT_number 64
_symmetry_cell_setting 'orthorhombic'
loop_
_space_group_symop_operation_xyz
x,y,z
-x,1/2-y,1/2+z
x,-y,-z
-x,1/2+y,1/2-z
-x,-y,-z
x,1/2+y,1/2-z
-x,y,z
x,1/2-y,1/2+z
1/2+x,1/2+y,z
1/2-x,-y,1/2+z
1/2+x,1/2-y,-z
1/2-x,y,1/2-z
1/2-x,1/2-y,-z
1/2+x,y,1/2-z
1/2-x,1/2+y,z
1/2+x,-y,1/2+z
loop_
_atom_site_type_symbol
_atom_site_label
_atom_site_fract_x
_atom_site_fract_y
_atom_site_fract_z
Si Si1 0.287499 0.116354 0.418426
Si Si2 0.923759 0.306194 0.302205
Si Si3 0.000000 0.302235 0.927388
Si Si4 0.138865 0.551556 0.260760
Si Si5 0.000000 0.624596 0.850967
Si Si6 0.718204 0.406862 0.340658
O O1 0.281408 0.286987 0.423659
O O2 0.300388 0.000000 0.500000
O O3 0.325418 0.108732 0.336562
O O4 0.242257 0.049124 0.376672
O O5 0.955987 0.276713 0.391002
O O6 0.896480 0.450478 0.312475
O O7 0.956742 0.326260 0.210056
O O8 0.888738 0.177599 0.288793
O O9 0.000000 0.454017 0.869990
O O10 0.000000 0.316844 0.041241
O O11 0.168692 0.451383 0.191205
O O12 0.750000 0.358269 0.250000
#
# Coordination Sequence:
#
# PCOD9480160 Si02
#       6
#    16  16   8  16   8  16
#     4  11  23  38  58  88 124 157 206 256 303 353
#     4  11  22  41  64  92 122 162 199 258 306 366
#     4  10  22  41  64  93 120 167 199 246 312 374
#     4  11  22  39  63  86 122 160 207 245 306 365
#     4  10  22  41  66  89 128 159 202 245 310 382
#     4  10  21  39  60  83 119 167 201 245 306 372
#
# _framework density 20.502555999999998
#
# number of rings (size 3 to 8) (size 9 to 14) (size 15 to 20)
#    0.000    1.400    4.000    2.400    2.800    1.600 
#    0.000    1.000    0.000    0.000    0.000    0.000 
#    0.000    0.000    0.000    0.000    0.000    0.000 
#
# Total GULP energy -223230.072941 kJ/mol
# GULP energy per Si atom -5580.751824 kJ/mol
# Density = 2.045589 g / cm^3
# Si number density = 20.502556 Si / 1000 Ang^3
#
#
#
# Elastic Constant Matrix: (Units=GPa)
#
#
# Indices 1 2 3 4 5 6 
#
# 1 78.7394 7.6143 4.8897 0.0000 0.0000 0.0000
# 2 7.6143 63.9349 -8.5698 0.0000 0.0000 0.0000
# 3 4.8897 -8.5698 39.2744 0.0000 0.0000 0.0000
# 4 0.0000 0.0000 0.0000 26.9842 0.0000 0.0000
# 5 0.0000 0.0000 0.0000 0.0000 0.2771 0.0000
# 6 0.0000 0.0000 0.0000 0.0000 0.0000 7.0849
#
#
#
# Elastic Compliance Matrix: (Units=1/GPa)
#
#
# Indices 1 2 3 4 5 6 
#
# 1 0.013001 -0.001819 -0.002015 0.000000 0.000000 0.000000
# 2 -0.001819 0.016367 0.003798 0.000000 0.000000 0.000000
# 3 -0.002015 0.003798 0.026541 0.000000 0.000000 0.000000
# 4 0.000000 0.000000 0.000000 0.037059 0.000000 0.000000
# 5 0.000000 0.000000 0.000000 0.000000 3.608535 0.000000
# 6 0.000000 0.000000 0.000000 0.000000 0.000000 0.141146
#
#
# Mechanical properties :
#
#
# Convention : Reuss Voigt Hill
#
# Bulk Modulus (GPa) = 17.90944 21.09078 19.50011
# Shear Modulus (GPa) = 1.29489 18.73686 10.01588
#
# Velocity S-wave (km/s) = 0.79558 3.02632 2.21264
# Velocity P-wave (km/s) = 3.09808 4.74560 4.00742
#
# Compressibility (1/GPa) = 0.05583648
#
# Stress axis : x y z
#
# Youngs Moduli (GPa) = 76.91638 61.10034 37.67687
#
# Poissons Ratio (x) = 0.11111 0.07594
# Poissons Ratio (y) = 0.13987 -0.14308
# Poissons Ratio (z) = 0.15502 -0.23204
#
# Static dielectric constant tensor:
#      x y z
#    x 1.697290 0.000000 0.000000 
#    y 0.000000 1.738170 0.000000 
#    z 0.000000 0.000000 1.754170 
# 
# From -- ./inp_files/35410.got.cif
#   From: 2010.05.17/outbox.cif.g08.bks.cpg/sg64_18_cif.got.tgz:35410.got - 2010.06.03 16:29:19.
