data_PCOD9480883
_publ_section_title
;
Structure prediction by ZEFSAII (Michael W. Deem and Ramdas Pophale) SiO2 
 PCOD9480883
Probable space group: C M C A
;
_chemical_formula_sum "Si O2"
_cell_formula_units_Z 112
_cell_length_a 22.677946
_cell_length_b 14.121558
_cell_length_c 16.834029
_cell_angle_alpha 90.000000
_cell_angle_beta 90.000000
_cell_angle_gamma 90.000000
_cell_volume 5391.062937
_symmetry_space_group_name_H-M "C M C A"
_symmetry_group_IT_number 64
_symmetry_cell_setting 'orthorhombic'
loop_
_space_group_symop_operation_xyz
x,y,z
-x,1/2-y,1/2+z
x,-y,-z
-x,1/2+y,1/2-z
-x,-y,-z
x,1/2+y,1/2-z
-x,y,z
x,1/2-y,1/2+z
1/2+x,1/2+y,z
1/2-x,-y,1/2+z
1/2+x,1/2-y,-z
1/2-x,y,1/2-z
1/2-x,1/2-y,-z
1/2+x,y,1/2-z
1/2-x,1/2+y,z
1/2+x,-y,1/2+z
loop_
_atom_site_type_symbol
_atom_site_label
_atom_site_fract_x
_atom_site_fract_y
_atom_site_fract_z
Si Si1 0.656580 0.694963 0.185846
Si Si2 0.752083 0.330048 0.124889
Si Si3 0.654877 0.102980 0.986579
Si Si4 0.931998 0.397889 0.331015
Si Si5 0.865985 0.289774 0.860940
Si Si6 0.931120 0.349736 0.149155
Si Si7 0.178061 0.994056 0.904039
O O1 0.703199 0.782352 0.187630
O O2 0.643589 0.662335 0.275318
O O3 0.597231 0.744399 0.153724
O O4 0.681157 0.612198 0.130174
O O5 0.694119 0.267232 0.120921
O O6 0.727911 0.437016 0.133954
O O7 0.792693 0.331649 0.046335
O O8 0.626076 0.140625 0.066479
O O9 0.606174 0.098288 0.917913
O O10 0.680675 0.000000 0.000000
O O11 0.916432 0.289671 0.354942
O O12 0.922977 0.397341 0.235623
O O13 0.884863 0.464403 0.374344
O O14 0.000000 0.420705 0.348285
O O15 0.000000 0.346320 0.131792
O O16 0.180655 0.000000 0.000000
#
# Coordination Sequence:
#
# PCOD9480883 Si02
#       7
#    16  16  16  16  16  16  16
#     4  10  23  42  65  92 125 165 217 259 313 379
#     4  10  23  42  60  88 129 166 206 256 315 371
#     4  11  24  37  64  93 126 169 210 258 314 373
#     4   9  21  43  66  90 126 165 208 264 317 372
#     4  10  22  41  61  92 123 167 214 259 315 370
#     4   9  21  43  66  89 126 169 209 261 318 371
#     4  11  25  39  66  98 127 166 209 261 319 378
#
# _framework density 20.775124000000002
#
# number of rings (size 3 to 8) (size 9 to 14) (size 15 to 20)
#    0.000    2.000    0.000    1.286   14.000    2.857 
#    0.000    0.000    0.000    0.000    0.000    0.000 
#    0.000    0.000    0.000    0.000    0.000    0.000 
#
# Total GULP energy -312645.273913 kJ/mol
# GULP energy per Si atom -5582.951320 kJ/mol
# Density = 2.072784 g / cm^3
# Si number density = 20.775124 Si / 1000 Ang^3
#
#
#
# Elastic Constant Matrix: (Units=GPa)
#
#
# Indices 1 2 3 4 5 6 
#
# 1 110.9303 20.8546 27.6562 0.0000 0.0000 0.0000
# 2 20.8546 51.7836 28.6846 0.0000 0.0000 0.0000
# 3 27.6562 28.6846 89.0145 0.0000 0.0000 0.0000
# 4 0.0000 0.0000 0.0000 20.7217 0.0000 0.0000
# 5 0.0000 0.0000 0.0000 0.0000 20.1255 0.0000
# 6 0.0000 0.0000 0.0000 0.0000 0.0000 16.7965
#
#
#
# Elastic Compliance Matrix: (Units=1/GPa)
#
#
# Indices 1 2 3 4 5 6 
#
# 1 0.010103 -0.002836 -0.002225 0.000000 0.000000 0.000000
# 2 -0.002836 0.024303 -0.006951 0.000000 0.000000 0.000000
# 3 -0.002225 -0.006951 0.014165 0.000000 0.000000 0.000000
# 4 0.000000 0.000000 0.000000 0.048259 0.000000 0.000000
# 5 0.000000 0.000000 0.000000 0.000000 0.049688 0.000000
# 6 0.000000 0.000000 0.000000 0.000000 0.000000 0.059536
#
#
# Mechanical properties :
#
#
# Convention : Reuss Voigt Hill
#
# Bulk Modulus (GPa) = 40.73635 45.12436 42.93036
# Shear Modulus (GPa) = 20.98547 23.16426 22.07486
#
# Velocity S-wave (km/s) = 3.18169 3.34278 3.26323
# Velocity P-wave (km/s) = 5.75746 6.05528 5.90825
#
# Compressibility (1/GPa) = 0.02454810
#
# Stress axis : x y z
#
# Youngs Moduli (GPa) = 98.98501 41.14640 70.59579
#
# Poissons Ratio (x) = 0.11670 0.15707
# Poissons Ratio (y) = 0.28074 0.49068
# Poissons Ratio (z) = 0.22023 0.28599
#
# Static dielectric constant tensor:
#      x y z
#    x 1.725250 0.000000 0.000000 
#    y 0.000000 1.767450 0.000000 
#    z 0.000000 0.000000 1.764770 
# 
# From -- ./inp_files/27420.got.cif
#   From: 2010.05.17/outbox.cif.g08.bks.cpg/sg64_14_cif.got.tgz:27420.got - 2010.06.03 16:29:19.
