data_PCOD9480715
_publ_section_title
;
Structure prediction by ZEFSAII (Michael W. Deem and Ramdas Pophale) SiO2 
 PCOD9480715
Probable space group: C M C A
;
_chemical_formula_sum "Si O2"
_cell_formula_units_Z 64
_cell_length_a 29.568612
_cell_length_b 5.380142
_cell_length_c 18.586364
_cell_angle_alpha 90.000000
_cell_angle_beta 90.000000
_cell_angle_gamma 90.000000
_cell_volume 2956.780702
_symmetry_space_group_name_H-M "C M C A"
_symmetry_group_IT_number 64
_symmetry_cell_setting 'orthorhombic'
loop_
_space_group_symop_operation_xyz
x,y,z
-x,1/2-y,1/2+z
x,-y,-z
-x,1/2+y,1/2-z
-x,-y,-z
x,1/2+y,1/2-z
-x,y,z
x,1/2-y,1/2+z
1/2+x,1/2+y,z
1/2-x,-y,1/2+z
1/2+x,1/2-y,-z
1/2-x,y,1/2-z
1/2-x,1/2-y,-z
1/2+x,y,1/2-z
1/2-x,1/2+y,z
1/2+x,-y,1/2+z
loop_
_atom_site_type_symbol
_atom_site_label
_atom_site_fract_x
_atom_site_fract_y
_atom_site_fract_z
Si Si1 0.548929 0.251616 0.451720
Si Si2 0.143064 0.377425 0.273886
Si Si3 0.146632 0.124540 0.077739
Si Si4 0.720740 0.876484 0.154569
O O1 0.550637 0.500000 0.500000
O O2 0.500000 0.255597 0.413079
O O3 0.596576 0.236562 0.411563
O O4 0.548767 0.000000 0.500000
O O5 0.118973 0.619627 0.241888
O O6 0.152207 0.426423 0.357391
O O7 0.189090 0.366103 0.225753
O O8 0.184836 0.330963 0.090639
O O9 0.150392 0.000000 0.000000
O O10 0.753085 0.635544 0.151969
#
# Coordination Sequence:
#
# PCOD9480715 Si02
#       4
#    16  16  16  16
#     4   9  19  37  62  92 127 165 201 247 319 393
#     4  10  22  39  60  82 116 164 210 246 304 381
#     4  10  23  40  65  97 128 159 213 278 320 363
#     4  11  24  41  59  82 119 169 212 247 307 387
#
# _framework density 21.645164999999999
#
# number of rings (size 3 to 8) (size 9 to 14) (size 15 to 20)
#    0.000    2.000    0.000    3.000    0.000   25.000 
#    0.000    0.000    0.000    6.000    0.000    0.000 
#    0.000    0.000    0.000    0.000    0.000    0.000 
#
# Total GULP energy -178583.920628 kJ/mol
# GULP energy per Si atom -5580.747520 kJ/mol
# Density = 2.159590 g / cm^3
# Si number density = 21.645165 Si / 1000 Ang^3
#
#
#
# Elastic Constant Matrix: (Units=GPa)
#
#
# Indices 1 2 3 4 5 6 
#
# 1 138.7655 19.1749 28.9681 0.0000 0.0000 0.0000
# 2 19.1749 156.2956 31.0633 0.0000 0.0000 0.0000
# 3 28.9681 31.0633 116.1273 0.0000 0.0000 0.0000
# 4 0.0000 0.0000 0.0000 30.0789 0.0000 0.0000
# 5 0.0000 0.0000 0.0000 0.0000 -7.8528 0.0000
# 6 0.0000 0.0000 0.0000 0.0000 0.0000 27.7641
#
#
#
# Elastic Compliance Matrix: (Units=1/GPa)
#
#
# Indices 1 2 3 4 5 6 
#
# 1 0.007654 -0.000591 -0.001751 0.000000 0.000000 0.000000
# 2 -0.000591 0.006803 -0.001672 0.000000 0.000000 0.000000
# 3 -0.001751 -0.001672 0.009495 0.000000 0.000000 0.000000
# 4 0.000000 0.000000 0.000000 0.033246 0.000000 0.000000
# 5 0.000000 0.000000 0.000000 0.000000 -0.127343 0.000000
# 6 0.000000 0.000000 0.000000 0.000000 0.000000 0.036018
#
#
# Mechanical properties :
#
#
# Convention : Reuss Voigt Hill
#
# Bulk Modulus (GPa) = 62.80149 63.28899 63.04524
# Shear Modulus (GPa) = -240.49261 32.13018 -104.18122
#
# Velocity S-wave (km/s) = -10.55216 3.85698 -6.94521
# Velocity P-wave (km/s) = 10.92644 7.00984 5.92660
#
# Compressibility (1/GPa) = 0.01592319
#
# Stress axis : x y z
#
# Youngs Moduli (GPa) = 130.65712 146.99384 105.31412
#
# Poissons Ratio (x) = 0.08686 0.18442
# Poissons Ratio (y) = 0.07721 0.17612
# Poissons Ratio (z) = 0.22880 0.24582
#
# Static dielectric constant tensor:
#      x y z
#    x 1.847100 0.000000 0.000000 
#    y 0.000000 1.911560 0.000000 
#    z 0.000000 0.000000 1.800030 
# 
# From -- ./inp_files/35620.got.cif
#   From: 2010.05.17/outbox.cif.g08.bks.cpg/sg64_18_cif.got.tgz:35620.got - 2010.06.03 16:29:19.
