data_PCOD9480746
_publ_section_title
;
Structure prediction by ZEFSAII (Michael W. Deem and Ramdas Pophale) SiO2 
 PCOD9480746
Probable space group: C M C A
;
_chemical_formula_sum "Si O2"
_cell_formula_units_Z 96
_cell_length_a 22.306469
_cell_length_b 14.012172
_cell_length_c 14.478616
_cell_angle_alpha 90.000000
_cell_angle_beta 90.000000
_cell_angle_gamma 90.000000
_cell_volume 4525.466337
_symmetry_space_group_name_H-M "C M C A"
_symmetry_group_IT_number 64
_symmetry_cell_setting 'orthorhombic'
loop_
_space_group_symop_operation_xyz
x,y,z
-x,1/2-y,1/2+z
x,-y,-z
-x,1/2+y,1/2-z
-x,-y,-z
x,1/2+y,1/2-z
-x,y,z
x,1/2-y,1/2+z
1/2+x,1/2+y,z
1/2-x,-y,1/2+z
1/2+x,1/2-y,-z
1/2-x,y,1/2-z
1/2-x,1/2-y,-z
1/2+x,y,1/2-z
1/2-x,1/2+y,z
1/2+x,-y,1/2+z
loop_
_atom_site_type_symbol
_atom_site_label
_atom_site_fract_x
_atom_site_fract_y
_atom_site_fract_z
Si Si1 0.066191 0.312963 0.273020
Si Si2 0.279692 0.550301 0.902332
Si Si3 0.392734 0.978142 0.709033
Si Si4 0.430877 0.205070 0.409125
Si Si5 0.659097 0.756077 0.422931
Si Si6 0.345286 0.541530 0.405687
O O1 0.069821 0.424537 0.296557
O O2 0.076257 0.290266 0.165322
O O3 0.117457 0.264466 0.332659
O O4 0.000000 0.275226 0.295708
O O5 0.327072 0.506286 0.830470
O O6 0.290837 0.663092 0.911822
O O7 0.211482 0.524406 0.880806
O O8 0.293571 0.500000 0.000000
O O9 0.418260 0.891990 0.648127
O O10 0.387299 0.953536 0.816979
O O11 0.500000 0.204372 0.442191
O O12 0.383616 0.217343 0.491024
O O13 0.679501 0.647185 0.428330
O O14 0.373052 0.500000 0.500000
#
# Coordination Sequence:
#
# PCOD9480746 Si02
#       6
#    16  16  16  16  16  16
#     4  10  22  39  63  93 125 165 210 261 320 381
#     4  10  22  40  62  91 124 167 213 256 306 376
#     4  11  21  42  61  91 129 164 210 261 315 374
#     4  11  22  39  67  95 123 164 211 261 322 382
#     4  11  22  42  64  92 130 163 209 269 314 373
#     4  11  24  41  63  93 129 171 210 257 318 377
#
# _framework density 21.213283000000001
#
# number of rings (size 3 to 8) (size 9 to 14) (size 15 to 20)
#    0.000    1.333    3.333    2.500    0.000    2.667 
#    3.000    4.167    0.000    4.000    0.000    0.000 
#    0.000    0.000    0.000    0.000    0.000    0.000 
#
# Total GULP energy -268292.699583 kJ/mol
# GULP energy per Si atom -5589.431241 kJ/mol
# Density = 2.116500 g / cm^3
# Si number density = 21.213283 Si / 1000 Ang^3
#
#
#
# Elastic Constant Matrix: (Units=GPa)
#
#
# Indices 1 2 3 4 5 6 
#
# 1 54.6393 1.7022 11.2104 0.0000 0.0000 0.0000
# 2 1.7022 78.0330 -4.2194 0.0000 0.0000 0.0000
# 3 11.2104 -4.2194 58.9544 0.0000 0.0000 0.0000
# 4 0.0000 0.0000 0.0000 28.4804 0.0000 0.0000
# 5 0.0000 0.0000 0.0000 0.0000 10.1976 0.0000
# 6 0.0000 0.0000 0.0000 0.0000 0.0000 17.9563
#
#
#
# Elastic Compliance Matrix: (Units=1/GPa)
#
#
# Indices 1 2 3 4 5 6 
#
# 1 0.019074 -0.000615 -0.003671 0.000000 0.000000 0.000000
# 2 -0.000615 0.012885 0.001039 0.000000 0.000000 0.000000
# 3 -0.003671 0.001039 0.017735 0.000000 0.000000 0.000000
# 4 0.000000 0.000000 0.000000 0.035112 0.000000 0.000000
# 5 0.000000 0.000000 0.000000 0.000000 0.098062 0.000000
# 6 0.000000 0.000000 0.000000 0.000000 0.000000 0.055691
#
#
# Mechanical properties :
#
#
# Convention : Reuss Voigt Hill
#
# Bulk Modulus (GPa) = 23.14793 23.22368 23.18580
# Shear Modulus (GPa) = 19.27140 23.52241 21.39690
#
# Velocity S-wave (km/s) = 3.01734 3.33356 3.17938
# Velocity P-wave (km/s) = 4.80362 5.07822 4.94283
#
# Compressibility (1/GPa) = 0.04320041
#
# Stress axis : x y z
#
# Youngs Moduli (GPa) = 52.42683 77.61149 56.38664
#
# Poissons Ratio (x) = 0.04770 0.20700
# Poissons Ratio (y) = 0.03222 -0.05859
# Poissons Ratio (z) = 0.19246 -0.08064
#
# Static dielectric constant tensor:
#      x y z
#    x 1.746700 0.000000 0.000000 
#    y 0.000000 1.769740 0.000000 
#    z 0.000000 0.000000 1.762780 
# 
# From -- ./inp_files/34962.got.cif
#   From: 2010.05.17/outbox.cif.g08.bks.cpg/sg64_18_cif.got.tgz:34962.got - 2010.06.03 16:29:19.
