data_PCOD9480845
_publ_section_title
;
Structure prediction by ZEFSAII (Michael W. Deem and Ramdas Pophale) SiO2 
 PCOD9480845
Probable space group: C M C A
;
_chemical_formula_sum "Si O2"
_cell_formula_units_Z 96
_cell_length_a 16.059074
_cell_length_b 19.935714
_cell_length_c 15.381789
_cell_angle_alpha 90.000000
_cell_angle_beta 90.000000
_cell_angle_gamma 90.000000
_cell_volume 4924.466003
_symmetry_space_group_name_H-M "C M C A"
_symmetry_group_IT_number 64
_symmetry_cell_setting 'orthorhombic'
loop_
_space_group_symop_operation_xyz
x,y,z
-x,1/2-y,1/2+z
x,-y,-z
-x,1/2+y,1/2-z
-x,-y,-z
x,1/2+y,1/2-z
-x,y,z
x,1/2-y,1/2+z
1/2+x,1/2+y,z
1/2-x,-y,1/2+z
1/2+x,1/2-y,-z
1/2-x,y,1/2-z
1/2-x,1/2-y,-z
1/2+x,y,1/2-z
1/2-x,1/2+y,z
1/2+x,-y,1/2+z
loop_
_atom_site_type_symbol
_atom_site_label
_atom_site_fract_x
_atom_site_fract_y
_atom_site_fract_z
Si Si1 0.843748 0.792415 0.722604
Si Si2 0.404258 0.482899 0.338403
Si Si3 0.909192 0.418397 0.680874
Si Si4 0.597134 0.674142 0.659168
Si Si5 0.748428 0.943505 0.934856
Si Si6 0.322719 0.302141 0.519977
O O1 0.750000 0.812641 0.750000
O O2 0.901189 0.851025 0.761388
O O3 0.858743 0.722341 0.771574
O O4 0.853735 0.789163 0.618460
O O5 0.500000 0.487951 0.374655
O O6 0.407383 0.517666 0.244547
O O7 0.380690 0.404579 0.334656
O O8 0.332681 0.523866 0.388502
O O9 0.826526 0.423161 0.623864
O O10 0.000000 0.416983 0.635980
O O11 0.500000 0.678855 0.677671
O O12 0.614780 0.699720 0.561202
O O13 0.715589 0.876493 0.979683
O O14 0.779380 0.000000 0.000000
O O15 0.250000 0.250000 0.500000
#
# Coordination Sequence:
#
# PCOD9480845 Si02
#       6
#    16  16  16  16  16  16
#     4  12  22  41  69  92 129 180 227 271 341 404
#     4  10  22  40  65  95 128 169 224 280 333 392
#     4  11  23  41  65  94 131 175 228 277 330 408
#     4  11  25  42  63 100 137 168 218 287 341 397
#     4  12  23  40  66  97 131 176 222 272 345 404
#     4  12  24  41  65 100 131 176 226 277 334 408
#
# _framework density 19.494499999999999
#
# number of rings (size 3 to 8) (size 9 to 14) (size 15 to 20)
#    0.000    0.667    6.667    1.000    0.000    5.333 
#    0.000    0.000    0.000    4.000    0.000    0.000 
#    0.000    0.000    0.000    0.000    0.000    0.000 
#
# Total GULP energy -267965.923925 kJ/mol
# GULP energy per Si atom -5582.623415 kJ/mol
# Density = 1.945013 g / cm^3
# Si number density = 19.494500 Si / 1000 Ang^3
#
#
#
# Elastic Constant Matrix: (Units=GPa)
#
#
# Indices 1 2 3 4 5 6 
#
# 1 81.5350 32.5613 11.7033 0.0000 0.0000 0.0000
# 2 32.5613 96.2973 33.7693 0.0000 0.0000 0.0000
# 3 11.7033 33.7693 61.3638 0.0000 0.0000 0.0000
# 4 0.0000 0.0000 0.0000 35.2157 0.0000 0.0000
# 5 0.0000 0.0000 0.0000 0.0000 403.4603 0.0000
# 6 0.0000 0.0000 0.0000 0.0000 0.0000 31.6311
#
#
#
# Elastic Compliance Matrix: (Units=1/GPa)
#
#
# Indices 1 2 3 4 5 6 
#
# 1 0.014180 -0.004766 -0.000082 0.000000 0.000000 0.000000
# 2 -0.004766 0.014470 -0.007054 0.000000 0.000000 0.000000
# 3 -0.000082 -0.007054 0.020194 0.000000 0.000000 0.000000
# 4 0.000000 0.000000 0.000000 0.028396 0.000000 0.000000
# 5 0.000000 0.000000 0.000000 0.000000 0.002479 0.000000
# 6 0.000000 0.000000 0.000000 0.000000 0.000000 0.031614
#
#
# Mechanical properties :
#
#
# Convention : Reuss Voigt Hill
#
# Bulk Modulus (GPa) = 39.93587 43.91820 41.92704
# Shear Modulus (GPa) = 34.84754 104.80557 69.82656
#
# Velocity S-wave (km/s) = 4.23254 7.34019 5.99136
# Velocity P-wave (km/s) = 6.66453 9.71675 8.33160
#
# Compressibility (1/GPa) = 0.02504015
#
# Stress axis : x y z
#
# Youngs Moduli (GPa) = 70.52336 69.10994 49.52046
#
# Poissons Ratio (x) = 0.32938 0.00404
# Poissons Ratio (y) = 0.33612 0.34931
# Poissons Ratio (z) = 0.00575 0.48749
#
# Static dielectric constant tensor:
#      x y z
#    x 1.706250 0.000000 0.000000 
#    y 0.000000 1.688970 0.000000 
#    z 0.000000 0.000000 1.993520 
# 
# From -- ./inp_files/23924.got.cif
#   From: 2010.05.17/outbox.cif.g08.bks.cpg/sg64_12_cif.got.tgz:23924.got - 2010.06.03 16:29:19.
