data_PCOD9480979
_publ_section_title
;
Structure prediction by ZEFSAII (Michael W. Deem and Ramdas Pophale) SiO2 
 PCOD9480979
Probable space group: C M C A
;
_chemical_formula_sum "Si O2"
_cell_formula_units_Z 64
_cell_length_a 10.072512
_cell_length_b 16.198429
_cell_length_c 16.257079
_cell_angle_alpha 90.000000
_cell_angle_beta 90.000000
_cell_angle_gamma 90.000000
_cell_volume 2652.486647
_symmetry_space_group_name_H-M "C M C A"
_symmetry_group_IT_number 64
_symmetry_cell_setting 'orthorhombic'
loop_
_space_group_symop_operation_xyz
x,y,z
-x,1/2-y,1/2+z
x,-y,-z
-x,1/2+y,1/2-z
-x,-y,-z
x,1/2+y,1/2-z
-x,y,z
x,1/2-y,1/2+z
1/2+x,1/2+y,z
1/2-x,-y,1/2+z
1/2+x,1/2-y,-z
1/2-x,y,1/2-z
1/2-x,1/2-y,-z
1/2+x,y,1/2-z
1/2-x,1/2+y,z
1/2+x,-y,1/2+z
loop_
_atom_site_type_symbol
_atom_site_label
_atom_site_fract_x
_atom_site_fract_y
_atom_site_fract_z
Si Si1 0.000000 0.764744 0.668941
Si Si2 0.000000 0.911318 0.110808
Si Si3 0.000000 0.764728 0.367526
Si Si4 0.785465 0.500000 0.500000
Si Si5 0.750000 0.462898 0.750000
Si Si6 0.763851 0.852128 0.889243
Si Si7 0.000000 0.058845 0.695459
O O1 0.000000 0.747837 0.767397
O O2 0.867401 0.812988 0.647599
O O3 0.000000 0.687039 0.605962
O O4 0.122605 0.956333 0.068653
O O5 0.000000 0.917878 0.208357
O O6 0.128622 0.719496 0.406359
O O7 0.000000 0.864737 0.367900
O O8 0.723712 0.418537 0.541367
O O9 0.826913 0.406024 0.684906
O O10 0.859056 0.511368 0.804722
#
# Coordination Sequence:
#
# PCOD9480979 Si02
#       7
#     8   8   8   8   8  16   8
#     4  11  24  40  67  98 135 168 222 286 332 381
#     4  10  22  42  64  95 131 183 221 264 331 415
#     4  11  23  40  65 100 128 174 220 275 330 395
#     4  11  24  43  68  94 134 190 226 260 338 416
#     4  12  22  42  64 104 130 172 222 276 328 392
#     4  12  24  43  69  97 136 179 220 276 339 398
#     4  11  25  38  70  99 134 167 223 280 325 389
#
# _framework density 24.128302000000001
#
# number of rings (size 3 to 8) (size 9 to 14) (size 15 to 20)
#    0.000    0.750    5.000    3.000    7.000    1.500 
#    0.000    2.500    0.000    0.000    0.000    0.000 
#    0.000    0.000    0.000    0.000    0.000    0.000 
#
# Total GULP energy -178576.343949 kJ/mol
# GULP energy per Si atom -5580.510748 kJ/mol
# Density = 2.407339 g / cm^3
# Si number density = 24.128302 Si / 1000 Ang^3
#
#
#
# Elastic Constant Matrix: (Units=GPa)
#
#
# Indices 1 2 3 4 5 6 
#
# 1 107.1528 27.9452 -5.7770 0.0000 0.0000 0.0000
# 2 27.9452 125.5420 13.5780 0.0000 0.0000 0.0000
# 3 -5.7770 13.5780 49.0499 0.0000 0.0000 0.0000
# 4 0.0000 0.0000 0.0000 40.2706 0.0000 0.0000
# 5 0.0000 0.0000 0.0000 0.0000 9.7923 0.0000
# 6 0.0000 0.0000 0.0000 0.0000 0.0000 51.0837
#
#
#
# Elastic Compliance Matrix: (Units=1/GPa)
#
#
# Indices 1 2 3 4 5 6 
#
# 1 0.010070 -0.002443 0.001862 0.000000 0.000000 0.000000
# 2 -0.002443 0.008804 -0.002725 0.000000 0.000000 0.000000
# 3 0.001862 -0.002725 0.021361 0.000000 0.000000 0.000000
# 4 0.000000 0.000000 0.000000 0.024832 0.000000 0.000000
# 5 0.000000 0.000000 0.000000 0.000000 0.102121 0.000000
# 6 0.000000 0.000000 0.000000 0.000000 0.000000 0.019576
#
#
# Mechanical properties :
#
#
# Convention : Reuss Voigt Hill
#
# Bulk Modulus (GPa) = 29.74072 39.24857 34.49464
# Shear Modulus (GPa) = 24.44002 36.62923 30.53462
#
# Velocity S-wave (km/s) = 3.18609 3.90051 3.56126
# Velocity P-wave (km/s) = 5.08800 6.04874 5.58905
#
# Compressibility (1/GPa) = 0.03362393
#
# Stress axis : x y z
#
# Youngs Moduli (GPa) = 99.30506 113.58523 46.81424
#
# Poissons Ratio (x) = 0.27748 -0.08718
# Poissons Ratio (y) = 0.24260 0.12756
# Poissons Ratio (z) = -0.18493 0.30950
#
# Static dielectric constant tensor:
#      x y z
#    x 1.694080 0.000000 0.000000 
#    y 0.000000 2.041870 0.000000 
#    z 0.000000 0.000000 1.944250 
# 
# From -- ./inp_files/30538.got.cif
#   From: 2010.05.17/outbox.cif.g08.bks.cpg/sg64_16_cif.got.tgz:30538.got - 2010.06.03 16:29:19.
