data_PCOD9480123
_publ_section_title
;
Structure prediction by ZEFSAII (Michael W. Deem and Ramdas Pophale) SiO2 
 PCOD9480123
Probable space group: C M C A
;
_chemical_formula_sum "Si O2"
_cell_formula_units_Z 72
_cell_length_a 20.397194
_cell_length_b 15.485055
_cell_length_c 11.559761
_cell_angle_alpha 90.000000
_cell_angle_beta 90.000000
_cell_angle_gamma 90.000000
_cell_volume 3651.169827
_symmetry_space_group_name_H-M "C M C A"
_symmetry_group_IT_number 64
_symmetry_cell_setting 'orthorhombic'
loop_
_space_group_symop_operation_xyz
x,y,z
-x,1/2-y,1/2+z
x,-y,-z
-x,1/2+y,1/2-z
-x,-y,-z
x,1/2+y,1/2-z
-x,y,z
x,1/2-y,1/2+z
1/2+x,1/2+y,z
1/2-x,-y,1/2+z
1/2+x,1/2-y,-z
1/2-x,y,1/2-z
1/2-x,1/2-y,-z
1/2+x,y,1/2-z
1/2-x,1/2+y,z
1/2+x,-y,1/2+z
loop_
_atom_site_type_symbol
_atom_site_label
_atom_site_fract_x
_atom_site_fract_y
_atom_site_fract_z
Si Si1 0.750000 0.201092 0.750000
Si Si2 0.500000 0.311868 0.549484
Si Si3 0.768252 0.602849 0.517509
Si Si4 0.500000 0.771980 0.699804
Si Si5 0.135085 0.585451 0.078170
Si Si6 0.356261 0.654347 0.186456
O O1 0.771084 0.139450 0.854860
O O2 0.688303 0.263809 0.776161
O O3 0.500000 0.287888 0.413899
O O4 0.500000 0.246210 0.662001
O O5 0.433165 0.365132 0.566979
O O6 0.764546 0.500000 0.500000
O O7 0.698119 0.636977 0.469799
O O8 0.827943 0.630787 0.437571
O O9 0.567450 0.823789 0.683684
O O10 0.151204 0.579757 0.215292
O O11 0.129183 0.500000 0.000000
#
# Coordination Sequence:
#
# PCOD9480123 Si02
#       6
#     8   8  16   8  16  16
#     4  12  24  38  70  92 124 172 210 260 322 378
#     4  10  21  40  58  96 121 175 209 272 312 392
#     4  11  25  40  63  95 130 164 209 263 324 381
#     4  10  24  38  65  88 133 161 221 264 328 366
#     4  10  21  38  65  88 129 164 214 260 322 379
#     4  11  23  43  63  96 126 168 215 270 313 388
#
# _framework density 19.719708000000001
#
# number of rings (size 3 to 8) (size 9 to 14) (size 15 to 20)
#    0.000    1.333    2.222    2.333   12.444    0.000 
#    0.000    0.556    0.000    0.000    0.000    0.000 
#    0.000    0.000    0.000    0.000    0.000    0.000 
#
# Total GULP energy -200529.790281 kJ/mol
# GULP energy per Si atom -5570.271952 kJ/mol
# Density = 1.967482 g / cm^3
# Si number density = 19.719708 Si / 1000 Ang^3
#
#
#
# Elastic Constant Matrix: (Units=GPa)
#
#
# Indices 1 2 3 4 5 6 
#
# 1 132.4151 24.5716 23.0645 0.0000 0.0000 0.0000
# 2 24.5716 61.5707 59.2864 0.0000 0.0000 0.0000
# 3 23.0645 59.2864 154.5478 0.0000 0.0000 0.0000
# 4 0.0000 0.0000 0.0000 29.7254 0.0000 0.0000
# 5 0.0000 0.0000 0.0000 0.0000 30.9721 0.0000
# 6 0.0000 0.0000 0.0000 0.0000 0.0000 13.4347
#
#
#
# Elastic Compliance Matrix: (Units=1/GPa)
#
#
# Indices 1 2 3 4 5 6 
#
# 1 0.008156 -0.003303 0.000050 0.000000 0.000000 0.000000
# 2 -0.003303 0.027092 -0.009900 0.000000 0.000000 0.000000
# 3 0.000050 -0.009900 0.010261 0.000000 0.000000 0.000000
# 4 0.000000 0.000000 0.000000 0.033641 0.000000 0.000000
# 5 0.000000 0.000000 0.000000 0.000000 0.032287 0.000000
# 6 0.000000 0.000000 0.000000 0.000000 0.000000 0.074434
#
#
# Mechanical properties :
#
#
# Convention : Reuss Voigt Hill
#
# Bulk Modulus (GPa) = 52.07492 62.48652 57.28072
# Shear Modulus (GPa) = 22.87502 30.93387 26.90445
#
# Velocity S-wave (km/s) = 3.40958 3.96495 3.69771
# Velocity P-wave (km/s) = 6.47806 7.26066 6.88050
#
# Compressibility (1/GPa) = 0.01920310
#
# Stress axis : x y z
#
# Youngs Moduli (GPa) = 122.60548 36.91076 97.45804
#
# Poissons Ratio (x) = 0.12192 -0.00486
# Poissons Ratio (y) = 0.40496 0.96484
# Poissons Ratio (z) = -0.00611 0.36542
#
# Static dielectric constant tensor:
#      x y z
#    x 1.682840 0.000000 0.000000 
#    y 0.000000 1.722120 0.000000 
#    z 0.000000 0.000000 1.825230 
# 
# From -- ./inp_files/15820.got.cif
#   From: 2010.05.17/outbox.cif.g08.bks.cpg/sg64_8_cif.got.tgz:15820.got - 2010.06.03 16:29:19.
