data_PCOD9480411
_publ_section_title
;
Structure prediction by ZEFSAII (Michael W. Deem and Ramdas Pophale) SiO2 
 PCOD9480411
Probable space group: C M C A
;
_chemical_formula_sum "Si O2"
_cell_formula_units_Z 104
_cell_length_a 21.649289
_cell_length_b 30.096363
_cell_length_c 7.990235
_cell_angle_alpha 90.000000
_cell_angle_beta 90.000000
_cell_angle_gamma 90.000000
_cell_volume 5206.156353
_symmetry_space_group_name_H-M "C M C A"
_symmetry_group_IT_number 64
_symmetry_cell_setting 'orthorhombic'
loop_
_space_group_symop_operation_xyz
x,y,z
-x,1/2-y,1/2+z
x,-y,-z
-x,1/2+y,1/2-z
-x,-y,-z
x,1/2+y,1/2-z
-x,y,z
x,1/2-y,1/2+z
1/2+x,1/2+y,z
1/2-x,-y,1/2+z
1/2+x,1/2-y,-z
1/2-x,y,1/2-z
1/2-x,1/2-y,-z
1/2+x,y,1/2-z
1/2-x,1/2+y,z
1/2+x,-y,1/2+z
loop_
_atom_site_type_symbol
_atom_site_label
_atom_site_fract_x
_atom_site_fract_y
_atom_site_fract_z
Si Si1 0.928513 0.810158 0.235602
Si Si2 0.715807 0.958641 0.084359
Si Si3 0.104387 0.402147 0.154476
Si Si4 0.388602 0.625357 0.275205
Si Si5 0.750000 0.912614 0.750000
Si Si6 0.427694 0.782543 0.875071
Si Si7 0.000000 0.433024 0.642877
Si Si8 0.000000 0.468201 0.265065
O O1 0.901449 0.859503 0.225973
O O2 0.901604 0.767201 0.143137
O O3 0.925578 0.796142 0.430905
O O4 0.000000 0.815092 0.185155
O O5 0.750000 0.974960 0.250000
O O6 0.672949 0.920199 0.152918
O O7 0.753256 0.939508 0.926143
O O8 0.679964 0.000000 0.000000
O O9 0.059379 0.442805 0.193140
O O10 0.091492 0.386602 0.965480
O O11 0.316418 0.612585 0.255788
O O12 0.397473 0.678479 0.265068
O O13 0.438506 0.596881 0.170061
O O14 0.500000 0.780757 0.824428
O O15 0.000000 0.453428 0.458554
O O16 0.000000 0.478427 0.755196
#
# Coordination Sequence:
#
# PCOD9480411 Si02
#       8
#    16  16  16  16   8  16   8   8
#     4   9  17  33  54  84 117 148 192 247 298 370
#     4  11  24  42  64  88 117 163 213 259 304 369
#     4  10  22  39  60  85 119 158 200 246 310 371
#     4  10  21  41  62  87 118 161 203 254 305 376
#     4  10  24  42  64  88 124 164 206 258 314 362
#     4   9  17  32  57  84 114 151 194 245 308 361
#     4  11  25  37  56  87 126 153 200 257 309 365
#     4  11  25  37  54  89 122 157 192 253 315 369
#
# _framework density 19.97635
#
# number of rings (size 3 to 8) (size 9 to 14) (size 15 to 20)
#    0.000    2.000    2.308    0.462    6.462    1.846 
#    0.000    0.000    1.692    2.769    0.000    0.000 
#    0.000    0.000    0.000    0.000    0.000    0.000 
#
# Total GULP energy -289689.336702 kJ/mol
# GULP energy per Si atom -5570.948783 kJ/mol
# Density = 1.993088 g / cm^3
# Si number density = 19.976350 Si / 1000 Ang^3
#
#
#
# Elastic Constant Matrix: (Units=GPa)
#
#
# Indices 1 2 3 4 5 6 
#
# 1 51.4065 26.6600 27.4825 0.0000 0.0000 0.0000
# 2 26.6600 105.8121 20.2343 0.0000 0.0000 0.0000
# 3 27.4825 20.2343 40.6687 0.0000 0.0000 0.0000
# 4 0.0000 0.0000 0.0000 32.5357 0.0000 0.0000
# 5 0.0000 0.0000 0.0000 0.0000 48.5119 0.0000
# 6 0.0000 0.0000 0.0000 0.0000 0.0000 40.2451
#
#
#
# Elastic Compliance Matrix: (Units=1/GPa)
#
#
# Indices 1 2 3 4 5 6 
#
# 1 0.032182 -0.004365 -0.019576 0.000000 0.000000 0.000000
# 2 -0.004365 0.011036 -0.002541 0.000000 0.000000 0.000000
# 3 -0.019576 -0.002541 0.039082 0.000000 0.000000 0.000000
# 4 0.000000 0.000000 0.000000 0.030735 0.000000 0.000000
# 5 0.000000 0.000000 0.000000 0.000000 0.020614 0.000000
# 6 0.000000 0.000000 0.000000 0.000000 0.000000 0.024848
#
#
# Mechanical properties :
#
#
# Convention : Reuss Voigt Hill
#
# Bulk Modulus (GPa) = 34.08752 38.51566 36.30159
# Shear Modulus (GPa) = 22.59990 32.49256 27.54623
#
# Velocity S-wave (km/s) = 3.36718 4.03743 3.71744
# Velocity P-wave (km/s) = 5.67610 6.40757 6.05290
#
# Compressibility (1/GPa) = 0.02933625
#
# Stress axis : x y z
#
# Youngs Moduli (GPa) = 31.07333 90.60854 25.58728
#
# Poissons Ratio (x) = 0.39551 0.50089
# Poissons Ratio (y) = 0.13564 0.06503
# Poissons Ratio (z) = 0.60828 0.23027
#
# Static dielectric constant tensor:
#      x y z
#    x 1.707130 0.000000 0.000000 
#    y 0.000000 1.779710 0.000000 
#    z 0.000000 0.000000 1.769350 
# 
# From -- ./inp_files/9702.got.cif
#   From: 2010.05.17/outbox.cif.g08.bks.cpg/sg64_5_cif.got.tgz:9702.got - 2010.06.03 16:29:19.
