data_PCOD9480158
_publ_section_title
;
Structure prediction by ZEFSAII (Michael W. Deem and Ramdas Pophale) SiO2 
 PCOD9480158
Probable space group: C M C A
;
_chemical_formula_sum "Si O2"
_cell_formula_units_Z 80
_cell_length_a 8.733550
_cell_length_b 27.974661
_cell_length_c 18.578890
_cell_angle_alpha 90.000000
_cell_angle_beta 90.000000
_cell_angle_gamma 90.000000
_cell_volume 4539.159116
_symmetry_space_group_name_H-M "C M C A"
_symmetry_group_IT_number 64
_symmetry_cell_setting 'orthorhombic'
loop_
_space_group_symop_operation_xyz
x,y,z
-x,1/2-y,1/2+z
x,-y,-z
-x,1/2+y,1/2-z
-x,-y,-z
x,1/2+y,1/2-z
-x,y,z
x,1/2-y,1/2+z
1/2+x,1/2+y,z
1/2-x,-y,1/2+z
1/2+x,1/2-y,-z
1/2-x,y,1/2-z
1/2-x,1/2-y,-z
1/2+x,y,1/2-z
1/2-x,1/2+y,z
1/2+x,-y,1/2+z
loop_
_atom_site_type_symbol
_atom_site_label
_atom_site_fract_x
_atom_site_fract_y
_atom_site_fract_z
Si Si1 0.316036 0.955692 0.830204
Si Si2 0.816895 0.153636 0.672976
Si Si3 0.815417 0.556136 0.904584
Si Si4 0.684316 0.699557 0.524477
Si Si5 0.682753 0.103924 0.456336
O O1 0.500000 0.952662 0.828122
O O2 0.250000 0.954145 0.750000
O O3 0.248392 0.914587 0.880998
O O4 0.274455 0.006092 0.868397
O O5 0.750000 0.165899 0.750000
O O6 0.772324 0.100061 0.647933
O O7 0.771598 0.187987 0.607239
O O8 0.000000 0.154369 0.677871
O O9 0.000000 0.557450 0.915008
O O10 0.738780 0.567516 0.980997
O O11 0.500000 0.699038 0.519774
O O12 0.750000 0.750000 0.500000
O O13 0.750016 0.655491 0.478250
O O14 0.500000 0.105631 0.455039
#
# Coordination Sequence:
#
# PCOD9480158 Si02
#       5
#    16  16  16  16  16
#     4  11  22  36  54  78 112 150 186 226 271 319
#     4   9  18  32  52  80 111 138 170 215 266 319
#     4   9  19  35  54  78 110 146 181 222 270 317
#     4  10  21  39  60  82 107 138 179 226 276 328
#     4  11  22  36  56  81 108 142 184 225 269 325
#
# _framework density 17.624409
#
# number of rings (size 3 to 8) (size 9 to 14) (size 15 to 20)
#    0.000    2.000    0.000    5.400    0.000    8.000 
#    0.000    1.000    0.000    2.400    0.000    0.000 
#    0.000    0.000    0.000    0.000    0.000    0.000 
#
# Total GULP energy -223406.129152 kJ/mol
# GULP energy per Si atom -5585.153229 kJ/mol
# Density = 1.758430 g / cm^3
# Si number density = 17.624409 Si / 1000 Ang^3
#
#
#
# Elastic Constant Matrix: (Units=GPa)
#
#
# Indices 1 2 3 4 5 6 
#
# 1 68.7476 52.3795 59.5123 0.0000 0.0000 0.0000
# 2 52.3795 119.1307 97.2727 0.0000 0.0000 0.0000
# 3 59.5123 97.2727 147.8255 0.0000 0.0000 0.0000
# 4 0.0000 0.0000 0.0000 15.5627 0.0000 0.0000
# 5 0.0000 0.0000 0.0000 0.0000 36.2076 0.0000
# 6 0.0000 0.0000 0.0000 0.0000 0.0000 25.0376
#
#
#
# Elastic Compliance Matrix: (Units=1/GPa)
#
#
# Indices 1 2 3 4 5 6 
#
# 1 0.024028 -0.005762 -0.005882 0.000000 0.000000 0.000000
# 2 -0.005762 0.019523 -0.010527 0.000000 0.000000 0.000000
# 3 -0.005882 -0.010527 0.016060 0.000000 0.000000 0.000000
# 4 0.000000 0.000000 0.000000 0.064256 0.000000 0.000000
# 5 0.000000 0.000000 0.000000 0.000000 0.027619 0.000000
# 6 0.000000 0.000000 0.000000 0.000000 0.000000 0.039940
#
#
# Mechanical properties :
#
#
# Convention : Reuss Voigt Hill
#
# Bulk Modulus (GPa) = 65.49181 83.78144 74.63662
# Shear Modulus (GPa) = 20.75933 23.79753 22.27843
#
# Velocity S-wave (km/s) = 3.43574 3.67857 3.55923
# Velocity P-wave (km/s) = 7.27870 8.10450 7.70267
#
# Compressibility (1/GPa) = 0.01526908
#
# Stress axis : x y z
#
# Youngs Moduli (GPa) = 41.61882 51.22141 62.26820
#
# Poissons Ratio (x) = 0.29514 0.36624
# Poissons Ratio (y) = 0.23981 0.65549
# Poissons Ratio (z) = 0.24478 0.53921
#
# Static dielectric constant tensor:
#      x y z
#    x 1.591080 0.000000 0.000000 
#    y 0.000000 1.585130 0.000000 
#    z 0.000000 0.000000 1.586800 
# 
# From -- ./inp_files/29701.got.cif
#   From: 2010.05.17/outbox.cif.g08.bks.cpg/sg64_15_cif.got.tgz:29701.got - 2010.06.03 16:29:19.
