data_PCOD9480110
_publ_section_title
;
Structure prediction by ZEFSAII (Michael W. Deem and Ramdas Pophale) SiO2 
 PCOD9480110
Probable space group: C M C A
;
_chemical_formula_sum "Si O2"
_cell_formula_units_Z 96
_cell_length_a 13.794812
_cell_length_b 19.774244
_cell_length_c 16.796511
_cell_angle_alpha 90.000000
_cell_angle_beta 90.000000
_cell_angle_gamma 90.000000
_cell_volume 4581.785501
_symmetry_space_group_name_H-M "C M C A"
_symmetry_group_IT_number 64
_symmetry_cell_setting 'orthorhombic'
loop_
_space_group_symop_operation_xyz
x,y,z
-x,1/2-y,1/2+z
x,-y,-z
-x,1/2+y,1/2-z
-x,-y,-z
x,1/2+y,1/2-z
-x,y,z
x,1/2-y,1/2+z
1/2+x,1/2+y,z
1/2-x,-y,1/2+z
1/2+x,1/2-y,-z
1/2-x,y,1/2-z
1/2-x,1/2-y,-z
1/2+x,y,1/2-z
1/2-x,1/2+y,z
1/2+x,-y,1/2+z
loop_
_atom_site_type_symbol
_atom_site_label
_atom_site_fract_x
_atom_site_fract_y
_atom_site_fract_z
Si Si1 0.708330 0.219830 0.418992
Si Si2 0.789310 0.965958 0.413647
Si Si3 0.794351 0.843122 0.167946
Si Si4 0.295167 0.100558 0.167940
Si Si5 0.000000 0.435317 0.156513
Si Si6 0.000000 0.815081 0.858345
Si Si7 0.500000 0.072382 0.234663
Si Si8 0.500000 0.194172 0.735131
O O1 0.750000 0.250000 0.500000
O O2 0.731851 0.277374 0.354052
O O3 0.767789 0.152491 0.399706
O O4 0.595766 0.200734 0.409481
O O5 0.758844 0.025709 0.353093
O O6 0.901299 0.946559 0.393413
O O7 0.784028 0.000000 0.500000
O O8 0.723326 0.900513 0.398121
O O9 0.750000 0.871989 0.250000
O O10 0.903769 0.819458 0.183447
O O11 0.250000 0.125829 0.250000
O O12 0.407706 0.095679 0.184910
O O13 0.000000 0.490870 0.228269
O O14 0.000000 0.361688 0.194789
O O15 0.000000 0.890571 0.820056
O O16 0.000000 0.765975 0.780385
#
# Coordination Sequence:
#
# PCOD9480110 Si02
#       8
#    16  16  16  16   8   8   8   8
#     4  12  26  42  65  95 130 167 206 264 325 379
#     4  11  23  40  63  95 133 167 208 263 324 374
#     4  12  23  43  66  96 125 169 218 260 314 377
#     4  11  22  40  63  93 122 166 217 260 310 374
#     4  10  21  38  63  96 123 166 214 265 310 369
#     4  12  22  42  65  92 126 167 211 260 314 380
#     4  10  22  36  65  92 121 161 217 267 303 371
#     4  12  24  38  70  96 124 164 224 266 304 378
#
# _framework density 20.952528999999998
#
# number of rings (size 3 to 8) (size 9 to 14) (size 15 to 20)
#    0.000    0.667    5.000    3.250    2.333    1.333 
#    0.000    2.083    0.000    0.000    0.000    0.000 
#    0.000    0.000    0.000    0.000    0.000    0.000 
#
# Total GULP energy -268383.666521 kJ/mol
# GULP energy per Si atom -5591.326386 kJ/mol
# Density = 2.090484 g / cm^3
# Si number density = 20.952529 Si / 1000 Ang^3
#
#
#
# Elastic Constant Matrix: (Units=GPa)
#
#
# Indices 1 2 3 4 5 6 
#
# 1 50.0984 -16.6625 1.8017 0.0000 0.0000 0.0000
# 2 -16.6625 58.7895 -8.8991 0.0000 0.0000 0.0000
# 3 1.8017 -8.8991 50.0747 0.0000 0.0000 0.0000
# 4 0.0000 0.0000 0.0000 27.9884 0.0000 0.0000
# 5 0.0000 0.0000 0.0000 0.0000 22.0761 0.0000
# 6 0.0000 0.0000 0.0000 0.0000 0.0000 27.9734
#
#
#
# Elastic Compliance Matrix: (Units=1/GPa)
#
#
# Indices 1 2 3 4 5 6 
#
# 1 0.022043 0.006297 0.000326 0.000000 0.000000 0.000000
# 2 0.006297 0.019279 0.003200 0.000000 0.000000 0.000000
# 3 0.000326 0.003200 0.020527 0.000000 0.000000 0.000000
# 4 0.000000 0.000000 0.000000 0.035729 0.000000 0.000000
# 5 0.000000 0.000000 0.000000 0.000000 0.045298 0.000000
# 6 0.000000 0.000000 0.000000 0.000000 0.000000 0.035748
#
#
# Mechanical properties :
#
#
# Convention : Reuss Voigt Hill
#
# Bulk Modulus (GPa) = 12.27079 12.38256 12.32668
# Shear Modulus (GPa) = 26.86089 27.78908 27.32499
#
# Velocity S-wave (km/s) = 3.58437 3.64577 3.61520
# Velocity P-wave (km/s) = 4.79578 4.86260 4.82930
#
# Compressibility (1/GPa) = 0.08149433
#
# Stress axis : x y z
#
# Youngs Moduli (GPa) = 45.36520 51.87018 48.71623
#
# Poissons Ratio (x) = -0.32663 -0.01588
# Poissons Ratio (y) = -0.28566 -0.15587
# Poissons Ratio (z) = -0.01479 -0.16596
#
# Static dielectric constant tensor:
#      x y z
#    x 1.725310 0.000000 0.000000 
#    y 0.000000 1.765600 0.000000 
#    z 0.000000 0.000000 1.799230 
# 
# From -- ./inp_files/24009.got.cif
#   From: 2010.05.17/outbox.cif.g08.bks.cpg/sg64_13_cif.got.tgz:24009.got - 2010.06.03 16:29:19.
