data_PCOD9480686
_publ_section_title
;
Structure prediction by ZEFSAII (Michael W. Deem and Ramdas Pophale) SiO2 
 PCOD9480686
Probable space group: C M C A
;
_chemical_formula_sum "Si O2"
_cell_formula_units_Z 72
_cell_length_a 24.754217
_cell_length_b 9.986850
_cell_length_c 13.502426
_cell_angle_alpha 90.000000
_cell_angle_beta 90.000000
_cell_angle_gamma 90.000000
_cell_volume 3338.024550
_symmetry_space_group_name_H-M "C M C A"
_symmetry_group_IT_number 64
_symmetry_cell_setting 'orthorhombic'
loop_
_space_group_symop_operation_xyz
x,y,z
-x,1/2-y,1/2+z
x,-y,-z
-x,1/2+y,1/2-z
-x,-y,-z
x,1/2+y,1/2-z
-x,y,z
x,1/2-y,1/2+z
1/2+x,1/2+y,z
1/2-x,-y,1/2+z
1/2+x,1/2-y,-z
1/2-x,y,1/2-z
1/2-x,1/2-y,-z
1/2+x,y,1/2-z
1/2-x,1/2+y,z
1/2+x,-y,1/2+z
loop_
_atom_site_type_symbol
_atom_site_label
_atom_site_fract_x
_atom_site_fract_y
_atom_site_fract_z
Si Si1 0.500000 0.277904 0.646567
Si Si2 0.700524 0.849701 0.990054
Si Si3 0.500000 0.416291 0.332698
Si Si4 0.610184 0.500000 0.000000
Si Si5 0.120039 0.233115 0.857626
Si Si6 0.600853 0.259511 0.377608
O O1 0.500000 0.164040 0.730116
O O2 0.500000 0.427747 0.687899
O O3 0.440517 0.262093 0.599860
O O4 0.655020 0.809937 0.070028
O O5 0.750000 0.750000 0.000000
O O6 0.666299 0.835487 0.889089
O O7 0.720037 0.000000 0.000000
O O8 0.552811 0.366268 0.389608
O O9 0.636778 0.404141 0.084691
O O10 0.585164 0.614423 0.074455
O O11 0.112691 0.241082 0.740096
#
# Coordination Sequence:
#
# PCOD9480686 Si02
#       6
#     8  16   8   8  16  16
#     4  10  22  38  67 107 143 182 235 281 352 435
#     4  11  26  45  68  98 136 179 242 294 343 421
#     4  10  22  38  67 107 143 182 235 281 352 435
#     4  10  24  41  68 108 142 178 240 279 350 424
#     4  10  24  43  72 100 143 181 229 287 359 415
#     4  10  24  43  72 100 143 181 229 287 359 415
#
# _framework density 21.569644
#
# number of rings (size 3 to 8) (size 9 to 14) (size 15 to 20)
#    0.000    1.778    0.000    1.333   21.778    5.333 
#    0.000    7.778    0.000    0.000    0.000    0.000 
#    0.000    0.000    0.000    0.000    0.000    0.000 
#
# Total GULP energy -200446.019598 kJ/mol
# GULP energy per Si atom -5567.944989 kJ/mol
# Density = 2.152055 g / cm^3
# Si number density = 21.569644 Si / 1000 Ang^3
#
#
#
# Elastic Constant Matrix: (Units=GPa)
#
#
# Indices 1 2 3 4 5 6 
#
# 1 153.8670 41.2506 19.1097 0.0000 0.0000 0.0000
# 2 41.2506 161.4616 26.3574 0.0000 0.0000 0.0000
# 3 19.1097 26.3574 125.6355 0.0000 0.0000 0.0000
# 4 0.0000 0.0000 0.0000 28.2261 0.0000 0.0000
# 5 0.0000 0.0000 0.0000 0.0000 53.8456 0.0000
# 6 0.0000 0.0000 0.0000 0.0000 0.0000 24.5559
#
#
#
# Elastic Compliance Matrix: (Units=1/GPa)
#
#
# Indices 1 2 3 4 5 6 
#
# 1 0.007039 -0.001681 -0.000718 0.000000 0.000000 0.000000
# 2 -0.001681 0.006815 -0.001174 0.000000 0.000000 0.000000
# 3 -0.000718 -0.001174 0.008315 0.000000 0.000000 0.000000
# 4 0.000000 0.000000 0.000000 0.035428 0.000000 0.000000
# 5 0.000000 0.000000 0.000000 0.000000 0.018572 0.000000
# 6 0.000000 0.000000 0.000000 0.000000 0.000000 0.040723
#
#
# Mechanical properties :
#
#
# Convention : Reuss Voigt Hill
#
# Bulk Modulus (GPa) = 66.56687 68.26661 67.41674
# Shear Modulus (GPa) = 38.74603 44.94193 41.84398
#
# Velocity S-wave (km/s) = 4.24290 4.56957 4.40926
# Velocity P-wave (km/s) = 7.41157 7.71747 7.56607
#
# Compressibility (1/GPa) = 0.01502249
#
# Stress axis : x y z
#
# Youngs Moduli (GPa) = 142.06592 146.74466 120.26424
#
# Poissons Ratio (x) = 0.24670 0.08635
# Poissons Ratio (y) = 0.23883 0.14118
# Poissons Ratio (z) = 0.10200 0.17227
#
# Static dielectric constant tensor:
#      x y z
#    x 1.811540 0.000000 0.000000 
#    y 0.000000 1.810480 0.000000 
#    z 0.000000 0.000000 1.834950 
# 
# From -- ./inp_files/27856.got.cif
#   From: 2010.05.17/outbox.cif.g08.bks.cpg/sg64_14_cif.got.tgz:27856.got - 2010.06.03 16:29:19.
