data_PCOD9480460
_publ_section_title
;
Structure prediction by ZEFSAII (Michael W. Deem and Ramdas Pophale) SiO2 
 PCOD9480460
Probable space group: C M C A
;
_chemical_formula_sum "Si O2"
_cell_formula_units_Z 80
_cell_length_a 13.879837
_cell_length_b 15.661764
_cell_length_c 18.685878
_cell_angle_alpha 90.000000
_cell_angle_beta 90.000000
_cell_angle_gamma 90.000000
_cell_volume 4061.987199
_symmetry_space_group_name_H-M "C M C A"
_symmetry_group_IT_number 64
_symmetry_cell_setting 'orthorhombic'
loop_
_space_group_symop_operation_xyz
x,y,z
-x,1/2-y,1/2+z
x,-y,-z
-x,1/2+y,1/2-z
-x,-y,-z
x,1/2+y,1/2-z
-x,y,z
x,1/2-y,1/2+z
1/2+x,1/2+y,z
1/2-x,-y,1/2+z
1/2+x,1/2-y,-z
1/2-x,y,1/2-z
1/2-x,1/2-y,-z
1/2+x,y,1/2-z
1/2-x,1/2+y,z
1/2+x,-y,1/2+z
loop_
_atom_site_type_symbol
_atom_site_label
_atom_site_fract_x
_atom_site_fract_y
_atom_site_fract_z
Si Si1 0.616590 0.496338 0.270746
Si Si2 0.113771 0.672372 0.308196
Si Si3 0.883590 0.954716 0.573313
Si Si4 0.226749 0.721805 0.079691
Si Si5 0.385783 0.676733 0.807814
O O1 0.500000 0.495345 0.273562
O O2 0.642134 0.583184 0.229235
O O3 0.648655 0.498992 0.353383
O O4 0.644378 0.412205 0.227702
O O5 0.179004 0.693111 0.376173
O O6 0.126986 0.747528 0.250118
O O7 0.000000 0.668812 0.326033
O O8 0.844469 0.859030 0.577591
O O9 0.000000 0.953182 0.572759
O O10 0.851302 0.000000 0.500000
O O11 0.175515 0.797044 0.123781
O O12 0.250000 0.750000 0.000000
O O13 0.500000 0.672804 0.824820
#
# Coordination Sequence:
#
# PCOD9480460 Si02
#       5
#    16  16  16  16  16
#     4   9  19  39  68  93 118 165 216 261 316 370
#     4  10  22  43  65  90 124 164 216 266 310 371
#     4  10  22  41  64  93 131 169 210 264 321 383
#     4  12  26  40  59  96 135 169 208 259 325 383
#     4  10  21  41  68  94 123 162 211 264 318 378
#
# _framework density 19.694794000000002
#
# number of rings (size 3 to 8) (size 9 to 14) (size 15 to 20)
#    0.000    1.800    2.000    1.200    2.800    3.200 
#    3.600    0.000    0.000    4.200    0.000    0.000 
#    0.000    0.000    0.000    0.000    0.000    0.000 
#
# Total GULP energy -223696.691442 kJ/mol
# GULP energy per Si atom -5592.417286 kJ/mol
# Density = 1.964997 g / cm^3
# Si number density = 19.694794 Si / 1000 Ang^3
#
#
#
# Elastic Constant Matrix: (Units=GPa)
#
#
# Indices 1 2 3 4 5 6 
#
# 1 84.5227 31.1504 63.9113 0.0000 0.0000 0.0000
# 2 31.1504 150.6446 92.6927 0.0000 0.0000 0.0000
# 3 63.9113 92.6927 206.1744 0.0000 0.0000 0.0000
# 4 0.0000 0.0000 0.0000 33.1567 0.0000 0.0000
# 5 0.0000 0.0000 0.0000 0.0000 25.3147 0.0000
# 6 0.0000 0.0000 0.0000 0.0000 0.0000 -4.2699
#
#
#
# Elastic Compliance Matrix: (Units=1/GPa)
#
#
# Indices 1 2 3 4 5 6 
#
# 1 0.015466 -0.000343 -0.004640 0.000000 0.000000 0.000000
# 2 -0.000343 0.009184 -0.004023 0.000000 0.000000 0.000000
# 3 -0.004640 -0.004023 0.008097 0.000000 0.000000 0.000000
# 4 0.000000 0.000000 0.000000 0.030160 0.000000 0.000000
# 5 0.000000 0.000000 0.000000 0.000000 0.039503 0.000000
# 6 0.000000 0.000000 0.000000 0.000000 0.000000 -0.234195
#
#
# Mechanical properties :
#
#
# Convention : Reuss Voigt Hill
#
# Bulk Modulus (GPa) = 67.86161 90.76116 79.31139
# Shear Modulus (GPa) = -45.93003 27.74612 -9.09196
#
# Velocity S-wave (km/s) = -4.83441 3.75748 -2.15092
# Velocity P-wave (km/s) = 1.83559 8.06280 5.84714
#
# Compressibility (1/GPa) = 0.01473587
#
# Stress axis : x y z
#
# Youngs Moduli (GPa) = 64.65748 108.88113 123.49936
#
# Poissons Ratio (x) = 0.03735 0.57305
# Poissons Ratio (y) = 0.02218 0.49681
# Poissons Ratio (z) = 0.30002 0.43801
#
# Static dielectric constant tensor:
#      x y z
#    x 1.720220 0.000000 0.000000 
#    y 0.000000 1.667020 0.000000 
#    z 0.000000 0.000000 1.655940 
# 
# From -- ./inp_files/32974.got.cif
#   From: 2010.05.17/outbox.cif.g08.bks.cpg/sg64_17_cif.got.tgz:32974.got - 2010.06.03 16:29:19.
