data_PCOD9480892
_publ_section_title
;
Structure prediction by ZEFSAII (Michael W. Deem and Ramdas Pophale) SiO2 
 PCOD9480892
Probable space group: C M C A
;
_chemical_formula_sum "Si O2"
_cell_formula_units_Z 112
_cell_length_a 17.700958
_cell_length_b 22.675876
_cell_length_c 11.874920
_cell_angle_alpha 90.000000
_cell_angle_beta 90.000000
_cell_angle_gamma 90.000000
_cell_volume 4766.411542
_symmetry_space_group_name_H-M "C M C A"
_symmetry_group_IT_number 64
_symmetry_cell_setting 'orthorhombic'
loop_
_space_group_symop_operation_xyz
x,y,z
-x,1/2-y,1/2+z
x,-y,-z
-x,1/2+y,1/2-z
-x,-y,-z
x,1/2+y,1/2-z
-x,y,z
x,1/2-y,1/2+z
1/2+x,1/2+y,z
1/2-x,-y,1/2+z
1/2+x,1/2-y,-z
1/2-x,y,1/2-z
1/2-x,1/2-y,-z
1/2+x,y,1/2-z
1/2-x,1/2+y,z
1/2+x,-y,1/2+z
loop_
_atom_site_type_symbol
_atom_site_label
_atom_site_fract_x
_atom_site_fract_y
_atom_site_fract_z
Si Si1 0.673087 0.321940 0.311101
Si Si2 0.586005 0.773755 0.387030
Si Si3 0.088888 0.978074 0.626693
Si Si4 0.145962 0.351175 0.932433
Si Si5 0.185974 0.808175 0.902037
Si Si6 0.911774 0.090096 0.063973
Si Si7 0.088504 0.958928 0.164591
O O1 0.750000 0.345671 0.250000
O O2 0.605235 0.312665 0.222468
O O3 0.645360 0.350108 0.429281
O O4 0.689996 0.253373 0.339385
O O5 0.500000 0.784800 0.422728
O O6 0.596404 0.702755 0.382388
O O7 0.649201 0.791282 0.478007
O O8 0.125317 0.913673 0.621110
O O9 0.120501 0.028765 0.711134
O O10 0.000000 0.970753 0.656436
O O11 0.093439 0.000000 0.500000
O O12 0.231898 0.335005 0.906581
O O13 0.130904 0.860613 0.865576
O O14 0.000000 0.104343 0.058492
O O15 0.880076 0.081726 0.935902
O O16 0.906710 0.025568 0.116876
O O17 0.000000 0.942231 0.173764
#
# Coordination Sequence:
#
# PCOD9480892 Si02
#       7
#    16  16  16  16  16  16  16
#     4  11  21  41  62  88 128 178 208 257 332 388
#     4  11  23  39  62  93 124 162 215 261 309 385
#     4  10  22  41  63  88 121 166 215 262 318 383
#     4  11  23  41  63  88 129 168 209 262 324 394
#     4  11  22  37  62  90 129 164 203 258 323 384
#     4   9  18  34  59  90 121 159 209 264 319 371
#     4   8  17  36  58  84 120 156 201 265 320 367
#
# _framework density 23.497762000000002
#
# number of rings (size 3 to 8) (size 9 to 14) (size 15 to 20)
#    0.000    1.857    2.857    2.571    2.000    4.571 
#    2.571    1.429    0.000    0.000    0.000    0.000 
#    0.000    0.000    0.000    0.000    0.000    0.000 
#
# Total GULP energy -312653.095527 kJ/mol
# GULP energy per Si atom -5583.090992 kJ/mol
# Density = 2.344428 g / cm^3
# Si number density = 23.497762 Si / 1000 Ang^3
#
#
#
# Elastic Constant Matrix: (Units=GPa)
#
#
# Indices 1 2 3 4 5 6 
#
# 1 51.2351 5.5092 -3.2942 0.0000 0.0000 0.0000
# 2 5.5092 54.0650 -1.0391 0.0000 0.0000 0.0000
# 3 -3.2942 -1.0391 104.1995 0.0000 0.0000 0.0000
# 4 0.0000 0.0000 0.0000 21.7882 0.0000 0.0000
# 5 0.0000 0.0000 0.0000 0.0000 21.6862 0.0000
# 6 0.0000 0.0000 0.0000 0.0000 0.0000 28.7757
#
#
#
# Elastic Compliance Matrix: (Units=1/GPa)
#
#
# Indices 1 2 3 4 5 6 
#
# 1 0.019772 -0.002003 0.000605 0.000000 0.000000 0.000000
# 2 -0.002003 0.018703 0.000123 0.000000 0.000000 0.000000
# 3 0.000605 0.000123 0.009617 0.000000 0.000000 0.000000
# 4 0.000000 0.000000 0.000000 0.045896 0.000000 0.000000
# 5 0.000000 0.000000 0.000000 0.000000 0.046112 0.000000
# 6 0.000000 0.000000 0.000000 0.000000 0.000000 0.034752
#
#
# Mechanical properties :
#
#
# Convention : Reuss Voigt Hill
#
# Bulk Modulus (GPa) = 21.95751 23.53906 22.74828
# Shear Modulus (GPa) = 25.96285 28.33828 27.15056
#
# Velocity S-wave (km/s) = 3.32762 3.47652 3.40288
# Velocity P-wave (km/s) = 4.91211 5.11412 5.01413
#
# Compressibility (1/GPa) = 0.04554251
#
# Stress axis : x y z
#
# Youngs Moduli (GPa) = 50.57618 53.46806 103.97898
#
# Poissons Ratio (x) = 0.10710 -0.06292
# Poissons Ratio (y) = 0.10131 -0.01281
# Poissons Ratio (z) = -0.03060 -0.00659
#
# Static dielectric constant tensor:
#      x y z
#    x 1.849790 0.000000 0.000000 
#    y 0.000000 1.917680 0.000000 
#    z 0.000000 0.000000 2.025860 
# 
# From -- ./inp_files/17570.got.cif
#   From: 2010.05.17/outbox.cif.g08.bks.cpg/sg64_9_cif.got.tgz:17570.got - 2010.06.03 16:29:19.
