data_PCOD9480073
_publ_section_title
;
Structure prediction by ZEFSAII (Michael W. Deem and Ramdas Pophale) SiO2 
 PCOD9480073
Probable space group: C M C A
;
_chemical_formula_sum "Si O2"
_cell_formula_units_Z 64
_cell_length_a 20.133848
_cell_length_b 16.011604
_cell_length_c 9.119219
_cell_angle_alpha 90.000000
_cell_angle_beta 90.000000
_cell_angle_gamma 90.000000
_cell_volume 2939.810060
_symmetry_space_group_name_H-M "C M C A"
_symmetry_group_IT_number 64
_symmetry_cell_setting 'orthorhombic'
loop_
_space_group_symop_operation_xyz
x,y,z
-x,1/2-y,1/2+z
x,-y,-z
-x,1/2+y,1/2-z
-x,-y,-z
x,1/2+y,1/2-z
-x,y,z
x,1/2-y,1/2+z
1/2+x,1/2+y,z
1/2-x,-y,1/2+z
1/2+x,1/2-y,-z
1/2-x,y,1/2-z
1/2-x,1/2-y,-z
1/2+x,y,1/2-z
1/2-x,1/2+y,z
1/2+x,-y,1/2+z
loop_
_atom_site_type_symbol
_atom_site_label
_atom_site_fract_x
_atom_site_fract_y
_atom_site_fract_z
Si Si1 0.077517 0.926164 0.603709
Si Si2 0.880679 0.083961 0.076808
Si Si3 0.288463 0.184196 0.604409
Si Si4 0.427979 0.739826 0.920673
O O1 0.120086 0.925682 0.750628
O O2 0.078251 0.835348 0.528204
O O3 0.000000 0.942166 0.644948
O O4 0.099645 0.000000 0.500000
O O5 0.924210 0.166645 0.041408
O O6 0.811480 0.108002 0.998603
O O7 0.906771 0.000000 0.000000
O O8 0.250000 0.160641 0.750000
O O9 0.250000 0.250000 0.500000
O O10 0.358936 0.222517 0.661725
O O11 0.500000 0.732691 0.845042
#
# Coordination Sequence:
#
# PCOD9480073 Si02
#       4
#    16  16  16  16
#     4  10  21  38  62 101 145 187 235 295 359 425
#     4  10  23  40  67 101 136 186 237 295 365 439
#     4  10  22  42  66  93 135 181 236 300 360 430
#     4   9  21  39  67  99 137 185 236 292 355 427
#
# _framework density 21.770114
#
# number of rings (size 3 to 8) (size 9 to 14) (size 15 to 20)
#    1.500    0.750    0.000    2.250    0.000    6.000 
#    0.000   10.000    0.000    0.000    0.000    0.000 
#    0.000    1.000    0.000    0.000    0.000    2.500 
#
# Total GULP energy -178215.475625 kJ/mol
# GULP energy per Si atom -5569.233613 kJ/mol
# Density = 2.172056 g / cm^3
# Si number density = 21.770114 Si / 1000 Ang^3
#
#
#
# Elastic Constant Matrix: (Units=GPa)
#
#
# Indices 1 2 3 4 5 6 
#
# 1 109.4917 24.8355 50.6340 0.0000 0.0000 0.0000
# 2 24.8355 161.2917 84.5995 0.0000 0.0000 0.0000
# 3 50.6340 84.5995 138.3215 0.0000 0.0000 0.0000
# 4 0.0000 0.0000 0.0000 29.9534 0.0000 0.0000
# 5 0.0000 0.0000 0.0000 0.0000 21.4237 0.0000
# 6 0.0000 0.0000 0.0000 0.0000 0.0000 19.7068
#
#
#
# Elastic Compliance Matrix: (Units=1/GPa)
#
#
# Indices 1 2 3 4 5 6 
#
# 1 0.011036 0.000618 -0.004418 0.000000 0.000000 0.000000
# 2 0.000618 0.009163 -0.005830 0.000000 0.000000 0.000000
# 3 -0.004418 -0.005830 0.012413 0.000000 0.000000 0.000000
# 4 0.000000 0.000000 0.000000 0.033385 0.000000 0.000000
# 5 0.000000 0.000000 0.000000 0.000000 0.046677 0.000000
# 6 0.000000 0.000000 0.000000 0.000000 0.000000 0.050744
#
#
# Mechanical properties :
#
#
# Convention : Reuss Voigt Hill
#
# Bulk Modulus (GPa) = 74.90053 81.02697 77.96375
# Shear Modulus (GPa) = 26.71960 30.81917 28.76939
#
# Velocity S-wave (km/s) = 3.50716 3.76661 3.63920
# Velocity P-wave (km/s) = 7.13303 7.49778 7.31768
#
# Compressibility (1/GPa) = 0.01335104
#
# Stress axis : x y z
#
# Youngs Moduli (GPa) = 90.61327 109.13588 80.56339
#
# Poissons Ratio (x) = -0.06743 0.35590
# Poissons Ratio (y) = -0.05598 0.46971
# Poissons Ratio (z) = 0.40030 0.63630
#
# Static dielectric constant tensor:
#      x y z
#    x 1.858710 0.000000 0.000000 
#    y 0.000000 1.801130 0.000000 
#    z 0.000000 0.000000 1.775790 
# 
# From -- ./inp_files/7762.got.cif
#   From: 2010.05.17/outbox.cif.g08.bks.cpg/sg64_4_cif.got.tgz:7762.got - 2010.06.03 16:29:19.
