data_PCOD9480662
_publ_section_title
;
Structure prediction by ZEFSAII (Michael W. Deem and Ramdas Pophale) SiO2 
 PCOD9480662
Probable space group: C M C A
;
_chemical_formula_sum "Si O2"
_cell_formula_units_Z 80
_cell_length_a 13.271026
_cell_length_b 14.073085
_cell_length_c 19.432282
_cell_angle_alpha 90.000000
_cell_angle_beta 90.000000
_cell_angle_gamma 90.000000
_cell_volume 3629.256097
_symmetry_space_group_name_H-M "C M C A"
_symmetry_group_IT_number 64
_symmetry_cell_setting 'orthorhombic'
loop_
_space_group_symop_operation_xyz
x,y,z
-x,1/2-y,1/2+z
x,-y,-z
-x,1/2+y,1/2-z
-x,-y,-z
x,1/2+y,1/2-z
-x,y,z
x,1/2-y,1/2+z
1/2+x,1/2+y,z
1/2-x,-y,1/2+z
1/2+x,1/2-y,-z
1/2-x,y,1/2-z
1/2-x,1/2-y,-z
1/2+x,y,1/2-z
1/2-x,1/2+y,z
1/2+x,-y,1/2+z
loop_
_atom_site_type_symbol
_atom_site_label
_atom_site_fract_x
_atom_site_fract_y
_atom_site_fract_z
Si Si1 0.000000 0.545174 0.232868
Si Si2 0.500000 0.212980 0.406917
Si Si3 0.321716 0.370015 0.810346
Si Si4 0.500000 0.791606 0.882630
Si Si5 0.670261 0.914829 0.925945
Si Si6 0.500000 0.395580 0.058272
Si Si7 0.169587 0.500000 0.500000
Si Si8 0.500000 0.935188 0.100533
O O1 0.898378 0.555557 0.275766
O O2 0.000000 0.455873 0.182258
O O3 0.000000 0.641673 0.184606
O O4 0.600024 0.188467 0.360148
O O5 0.500000 0.156942 0.481445
O O6 0.500000 0.326090 0.418769
O O7 0.250000 0.323015 0.750000
O O8 0.237348 0.417203 0.857729
O O9 0.598828 0.824453 0.923603
O O10 0.500000 0.679573 0.880961
O O11 0.596450 0.005533 0.926099
O O12 0.754939 0.915275 0.983421
O O13 0.596233 0.463528 0.058941
#
# Coordination Sequence:
#
# PCOD9480662 Si02
#       8
#     8   8  16   8  16   8   8   8
#     4   9  20  39  66  89 122 165 207 261 312 368
#     4  11  25  39  61  96 127 162 202 262 310 364
#     4  11  19  42  68  84 124 169 205 252 312 377
#     4  10  22  38  62  93 119 160 211 255 307 366
#     4  10  22  40  66  88 121 169 206 249 315 372
#     4  11  25  42  61  90 130 160 207 263 311 373
#     4  11  24  43  60  92 122 167 206 251 318 376
#     4  10  22  40  57  95 124 152 210 256 307 361
#
# _framework density 22.043084
#
# number of rings (size 3 to 8) (size 9 to 14) (size 15 to 20)
#    0.000    1.800    6.000    0.000    2.800    3.200 
#    3.600    2.000    0.000    0.000    0.000    0.000 
#    0.000    0.000    0.000    0.000    0.000    0.000 
#
# Total GULP energy -222877.289361 kJ/mol
# GULP energy per Si atom -5571.932234 kJ/mol
# Density = 2.199291 g / cm^3
# Si number density = 22.043084 Si / 1000 Ang^3
#
#
#
# Elastic Constant Matrix: (Units=GPa)
#
#
# Indices 1 2 3 4 5 6 
#
# 1 167.2181 19.3381 29.4228 0.0000 0.0000 0.0000
# 2 19.3381 61.3767 -1.5162 0.0000 0.0000 0.0000
# 3 29.4228 -1.5162 57.7552 0.0000 0.0000 0.0000
# 4 0.0000 0.0000 0.0000 20.0573 0.0000 0.0000
# 5 0.0000 0.0000 0.0000 0.0000 -26.2235 0.0000
# 6 0.0000 0.0000 0.0000 0.0000 0.0000 2.5211
#
#
#
# Elastic Compliance Matrix: (Units=1/GPa)
#
#
# Indices 1 2 3 4 5 6 
#
# 1 0.006866 -0.002251 -0.003557 0.000000 0.000000 0.000000
# 2 -0.002251 0.017042 0.001594 0.000000 0.000000 0.000000
# 3 -0.003557 0.001594 0.019168 0.000000 0.000000 0.000000
# 4 0.000000 0.000000 0.000000 0.049857 0.000000 0.000000
# 5 0.000000 0.000000 0.000000 0.000000 -0.038134 0.000000
# 6 0.000000 0.000000 0.000000 0.000000 0.000000 0.396660
#
#
# Mechanical properties :
#
#
# Convention : Reuss Voigt Hill
#
# Bulk Modulus (GPa) = 28.86158 42.31550 35.58854
# Shear Modulus (GPa) = 10.60586 15.21132 12.90859
#
# Velocity S-wave (km/s) = 2.19588 2.62977 2.42256
# Velocity P-wave (km/s) = 4.42163 5.33473 4.89950
#
# Compressibility (1/GPa) = 0.03464813
#
# Stress axis : x y z
#
# Youngs Moduli (GPa) = 145.63528 58.68011 52.16897
#
# Poissons Ratio (x) = 0.13211 0.18557
# Poissons Ratio (y) = 0.32787 -0.08317
# Poissons Ratio (z) = 0.51805 -0.09355
#
# Static dielectric constant tensor:
#      x y z
#    x 1.793070 0.000000 0.000000 
#    y 0.000000 1.763770 0.000000 
#    z 0.000000 0.000000 1.947460 
# 
# From -- ./inp_files/44036.got.cif
#   From: 2010.05.17/outbox.cif.g08.bks.cpg/sg64_23_cif.got.tgz:44036.got - 2010.06.03 16:29:19.
