data_PCOD9480998
_publ_section_title
;
Structure prediction by ZEFSAII (Michael W. Deem and Ramdas Pophale) SiO2 
 PCOD9480998
Probable space group: C M C A
;
_chemical_formula_sum "Si O2"
_cell_formula_units_Z 80
_cell_length_a 7.890730
_cell_length_b 16.963602
_cell_length_c 28.230898
_cell_angle_alpha 90.000000
_cell_angle_beta 90.000000
_cell_angle_gamma 90.000000
_cell_volume 3778.852589
_symmetry_space_group_name_H-M "C M C A"
_symmetry_group_IT_number 64
_symmetry_cell_setting 'orthorhombic'
loop_
_space_group_symop_operation_xyz
x,y,z
-x,1/2-y,1/2+z
x,-y,-z
-x,1/2+y,1/2-z
-x,-y,-z
x,1/2+y,1/2-z
-x,y,z
x,1/2-y,1/2+z
1/2+x,1/2+y,z
1/2-x,-y,1/2+z
1/2+x,1/2-y,-z
1/2-x,y,1/2-z
1/2-x,1/2-y,-z
1/2+x,y,1/2-z
1/2-x,1/2+y,z
1/2+x,-y,1/2+z
loop_
_atom_site_type_symbol
_atom_site_label
_atom_site_fract_x
_atom_site_fract_y
_atom_site_fract_z
Si Si1 0.702945 0.568357 0.195107
Si Si2 0.297072 0.736465 0.153178
Si Si3 0.802554 0.403592 0.355926
Si Si4 0.198869 0.697502 0.455054
Si Si5 0.000000 0.067841 0.577708
Si Si6 0.000000 0.081612 0.463553
O O1 0.500000 0.571729 0.189767
O O2 0.750000 0.566311 0.250000
O O3 0.765891 0.652242 0.173568
O O4 0.749340 0.483640 0.171898
O O5 0.500000 0.740825 0.161155
O O6 0.218904 0.819391 0.170770
O O7 0.267442 0.733900 0.096553
O O8 0.668571 0.399009 0.398963
O O9 0.000000 0.410972 0.370083
O O10 0.250000 0.750000 0.500000
O O11 0.321599 0.624243 0.457846
O O12 0.000000 0.679419 0.457669
O O13 0.000000 0.068990 0.520811
O O14 0.000000 0.974686 0.582118
#
# Coordination Sequence:
#
# PCOD9480998 Si02
#       6
#    16  16  16  16   8   8
#     4  10  24  44  67  98 132 169 219 277 338 401
#     4  10  22  42  66  95 133 177 221 270 333 395
#     4  11  24  43  68  95 131 175 218 269 334 397
#     4  11  22  38  61  93 135 174 222 275 326 393
#     4  11  24  42  62  90 133 171 221 277 327 391
#     4  11  24  38  60  94 125 177 227 269 333 390
#
# _framework density 21.170446999999999
#
# number of rings (size 3 to 8) (size 9 to 14) (size 15 to 20)
#    0.000    1.400    2.000    2.400    2.800    6.400 
#    0.000    6.000    0.000    0.000    0.000    0.000 
#    0.000    0.000    0.000    0.000    0.000    0.000 
#
# Total GULP energy -222868.888067 kJ/mol
# GULP energy per Si atom -5571.722202 kJ/mol
# Density = 2.112226 g / cm^3
# Si number density = 21.170447 Si / 1000 Ang^3
#
#
#
# Elastic Constant Matrix: (Units=GPa)
#
#
# Indices 1 2 3 4 5 6 
#
# 1 85.5767 127.0203 33.2224 0.0000 0.0000 0.0000
# 2 127.0203 419.8874 46.6225 0.0000 0.0000 0.0000
# 3 33.2224 46.6225 89.2770 0.0000 0.0000 0.0000
# 4 0.0000 0.0000 0.0000 38.5048 0.0000 0.0000
# 5 0.0000 0.0000 0.0000 0.0000 11.7776 0.0000
# 6 0.0000 0.0000 0.0000 0.0000 0.0000 31.2438
#
#
#
# Elastic Compliance Matrix: (Units=1/GPa)
#
#
# Indices 1 2 3 4 5 6 
#
# 1 0.023362 -0.006477 -0.005311 0.000000 0.000000 0.000000
# 2 -0.006477 0.004324 0.000152 0.000000 0.000000 0.000000
# 3 -0.005311 0.000152 0.013098 0.000000 0.000000 0.000000
# 4 0.000000 0.000000 0.000000 0.025971 0.000000 0.000000
# 5 0.000000 0.000000 0.000000 0.000000 0.084907 0.000000
# 6 0.000000 0.000000 0.000000 0.000000 0.000000 0.032006
#
#
# Mechanical properties :
#
#
# Convention : Reuss Voigt Hill
#
# Bulk Modulus (GPa) = 57.10498 112.05241 84.57870
# Shear Modulus (GPa) = 23.49879 42.16364 32.83121
#
# Velocity S-wave (km/s) = 3.33525 4.46761 3.94230
# Velocity P-wave (km/s) = 6.47027 8.92504 7.79489
#
# Compressibility (1/GPa) = 0.01751161
#
# Stress axis : x y z
#
# Youngs Moduli (GPa) = 42.80545 231.25820 76.34822
#
# Poissons Ratio (x) = 1.49795 0.40547
# Poissons Ratio (y) = 0.27727 -0.01162
# Poissons Ratio (z) = 0.22733 -0.03521
#
# Static dielectric constant tensor:
#      x y z
#    x 1.949660 0.000000 0.000000 
#    y 0.000000 1.748710 0.000000 
#    z 0.000000 0.000000 1.749730 
# 
# From -- ./inp_files/47912.got.cif
#   From: 2010.05.17/outbox.cif.g08.bks.cpg/sg64_24_cif.got.tgz:47912.got - 2010.06.03 16:29:19.
