data_PCOD9480379
_publ_section_title
;
Structure prediction by ZEFSAII (Michael W. Deem and Ramdas Pophale) SiO2 
 PCOD9480379
Probable space group: C M C A
;
_chemical_formula_sum "Si O2"
_cell_formula_units_Z 64
_cell_length_a 24.239202
_cell_length_b 18.073717
_cell_length_c 7.340727
_cell_angle_alpha 90.000000
_cell_angle_beta 90.000000
_cell_angle_gamma 90.000000
_cell_volume 3215.917276
_symmetry_space_group_name_H-M "C M C A"
_symmetry_group_IT_number 64
_symmetry_cell_setting 'orthorhombic'
loop_
_space_group_symop_operation_xyz
x,y,z
-x,1/2-y,1/2+z
x,-y,-z
-x,1/2+y,1/2-z
-x,-y,-z
x,1/2+y,1/2-z
-x,y,z
x,1/2-y,1/2+z
1/2+x,1/2+y,z
1/2-x,-y,1/2+z
1/2+x,1/2-y,-z
1/2-x,y,1/2-z
1/2-x,1/2-y,-z
1/2+x,y,1/2-z
1/2-x,1/2+y,z
1/2+x,-y,1/2+z
loop_
_atom_site_type_symbol
_atom_site_label
_atom_site_fract_x
_atom_site_fract_y
_atom_site_fract_z
Si Si1 0.093275 0.348676 0.548544
Si Si2 0.435394 0.817995 0.139158
Si Si3 0.805720 0.062160 0.150878
Si Si4 0.091673 0.939428 0.629723
O O1 0.081967 0.267366 0.626809
O O2 0.073373 0.348595 0.342030
O O3 0.157706 0.371811 0.563589
O O4 0.065497 0.409436 0.682480
O O5 0.500000 0.822924 0.090279
O O6 0.402187 0.867056 0.995240
O O7 0.750000 0.085244 0.250000
O O8 0.849410 0.030753 0.299557
O O9 0.794761 0.000000 0.000000
O O10 0.064499 0.000000 0.500000
#
# Coordination Sequence:
#
# PCOD9480379 Si02
#       4
#    16  16  16  16
#     4  10  23  38  63  97 127 168 226 270 315 392
#     4  12  23  43  68  90 134 185 218 265 334 385
#     4  10  21  40  67  97 127 172 212 264 338 396
#     4  10  23  41  64  96 133 166 224 277 318 383
#
# _framework density 19.901008000000001
#
# number of rings (size 3 to 8) (size 9 to 14) (size 15 to 20)
#    1.500    0.000    2.500    3.000    0.000    1.500 
#    0.000    6.250    0.000    0.000    0.000    0.000 
#    0.000    0.000    0.000    0.000    0.000    0.000 
#
# Total GULP energy -178228.168659 kJ/mol
# GULP energy per Si atom -5569.630271 kJ/mol
# Density = 1.985571 g / cm^3
# Si number density = 19.901008 Si / 1000 Ang^3
#
#
#
# Elastic Constant Matrix: (Units=GPa)
#
#
# Indices 1 2 3 4 5 6 
#
# 1 86.3288 10.5699 3.9620 0.0000 0.0000 0.0000
# 2 10.5699 35.8230 -1.4805 0.0000 0.0000 0.0000
# 3 3.9620 -1.4805 86.6527 0.0000 0.0000 0.0000
# 4 0.0000 0.0000 0.0000 27.4011 0.0000 0.0000
# 5 0.0000 0.0000 0.0000 0.0000 52.4105 0.0000
# 6 0.0000 0.0000 0.0000 0.0000 0.0000 29.3924
#
#
#
# Elastic Compliance Matrix: (Units=1/GPa)
#
#
# Indices 1 2 3 4 5 6 
#
# 1 0.012050 -0.003581 -0.000612 0.000000 0.000000 0.000000
# 2 -0.003581 0.028999 0.000659 0.000000 0.000000 0.000000
# 3 -0.000612 0.000659 0.011580 0.000000 0.000000 0.000000
# 4 0.000000 0.000000 0.000000 0.036495 0.000000 0.000000
# 5 0.000000 0.000000 0.000000 0.000000 0.019080 0.000000
# 6 0.000000 0.000000 0.000000 0.000000 0.000000 0.034022
#
#
# Mechanical properties :
#
#
# Convention : Reuss Voigt Hill
#
# Bulk Modulus (GPa) = 21.94860 26.10081 24.02470
# Shear Modulus (GPa) = 30.39873 34.89100 32.64487
#
# Velocity S-wave (km/s) = 3.91256 4.19170 4.05453
# Velocity P-wave (km/s) = 5.60925 6.04739 5.83243
#
# Compressibility (1/GPa) = 0.04556100
#
# Stress axis : x y z
#
# Youngs Moduli (GPa) = 82.98656 34.48416 86.35899
#
# Poissons Ratio (x) = 0.12348 0.05286
# Poissons Ratio (y) = 0.29716 -0.05693
# Poissons Ratio (z) = 0.05080 -0.02273
#
# Static dielectric constant tensor:
#      x y z
#    x 1.715040 0.000000 0.000000 
#    y 0.000000 1.704340 0.000000 
#    z 0.000000 0.000000 1.721000 
# 
# From -- ./inp_files/7753.got.cif
#   From: 2010.05.17/outbox.cif.g08.bks.cpg/sg64_4_cif.got.tgz:7753.got - 2010.06.03 16:29:19.
