data_PCOD9480223
_publ_section_title
;
Structure prediction by ZEFSAII (Michael W. Deem and Ramdas Pophale) SiO2 
 PCOD9480223
Probable space group: C M C A
;
_chemical_formula_sum "Si O2"
_cell_formula_units_Z 72
_cell_length_a 9.755291
_cell_length_b 14.738157
_cell_length_c 24.164852
_cell_angle_alpha 90.000000
_cell_angle_beta 90.000000
_cell_angle_gamma 90.000000
_cell_volume 3474.301846
_symmetry_space_group_name_H-M "C M C A"
_symmetry_group_IT_number 64
_symmetry_cell_setting 'orthorhombic'
loop_
_space_group_symop_operation_xyz
x,y,z
-x,1/2-y,1/2+z
x,-y,-z
-x,1/2+y,1/2-z
-x,-y,-z
x,1/2+y,1/2-z
-x,y,z
x,1/2-y,1/2+z
1/2+x,1/2+y,z
1/2-x,-y,1/2+z
1/2+x,1/2-y,-z
1/2-x,y,1/2-z
1/2-x,1/2-y,-z
1/2+x,y,1/2-z
1/2-x,1/2+y,z
1/2+x,-y,1/2+z
loop_
_atom_site_type_symbol
_atom_site_label
_atom_site_fract_x
_atom_site_fract_y
_atom_site_fract_z
Si Si1 0.845896 0.809645 0.961342
Si Si2 0.756654 0.000000 0.000000
Si Si3 0.345216 0.339491 0.640843
Si Si4 0.340830 0.343159 0.197430
Si Si5 0.153838 0.956026 0.378901
O O1 0.772328 0.814843 0.902401
O O2 0.000000 0.774410 0.958549
O O3 0.750000 0.750000 0.000000
O O4 0.842979 0.911400 0.985196
O O5 0.672119 0.976713 0.055732
O O6 0.500000 0.328069 0.616246
O O7 0.336700 0.265796 0.689107
O O8 0.332447 0.446499 0.651965
O O9 0.500000 0.369930 0.202556
O O10 0.250000 0.369216 0.250000
O O11 0.269900 0.389830 0.144313
O O12 0.000000 0.920682 0.368933
#
# Coordination Sequence:
#
# PCOD9480223 Si02
#       5
#    16   8  16  16  16
#     4  11  22  35  55  83 117 156 196 238 286 343
#     4  10  22  38  60  90 126 164 200 242 296 362
#     4   9  21  40  59  82 114 150 191 239 292 349
#     4  11  24  42  63  87 117 155 199 250 304 360
#     4  10  21  39  63  92 124 159 200 247 300 359
#
# _framework density 20.723587999999999
#
# number of rings (size 3 to 8) (size 9 to 14) (size 15 to 20)
#    0.000    1.778    0.000    3.333    0.000   13.333 
#    0.000    2.222    0.000    0.000    0.000    0.000 
#    0.000    0.000    0.000    0.000    0.000    0.000 
#
# Total GULP energy -201011.457676 kJ/mol
# GULP energy per Si atom -5583.651602 kJ/mol
# Density = 2.067642 g / cm^3
# Si number density = 20.723588 Si / 1000 Ang^3
#
#
#
# Elastic Constant Matrix: (Units=GPa)
#
#
# Indices 1 2 3 4 5 6 
#
# 1 167.6096 38.2944 33.6177 0.0000 0.0000 0.0000
# 2 38.2944 70.4118 21.6920 0.0000 0.0000 0.0000
# 3 33.6177 21.6920 54.9007 0.0000 0.0000 0.0000
# 4 0.0000 0.0000 0.0000 24.7349 0.0000 0.0000
# 5 0.0000 0.0000 0.0000 0.0000 20.3317 0.0000
# 6 0.0000 0.0000 0.0000 0.0000 0.0000 17.8039
#
#
#
# Elastic Compliance Matrix: (Units=1/GPa)
#
#
# Indices 1 2 3 4 5 6 
#
# 1 0.007304 -0.002954 -0.003305 0.000000 0.000000 0.000000
# 2 -0.002954 0.017365 -0.005052 0.000000 0.000000 0.000000
# 3 -0.003305 -0.005052 0.022235 0.000000 0.000000 0.000000
# 4 0.000000 0.000000 0.000000 0.040429 0.000000 0.000000
# 5 0.000000 0.000000 0.000000 0.000000 0.049184 0.000000
# 6 0.000000 0.000000 0.000000 0.000000 0.000000 0.056168
#
#
# Mechanical properties :
#
#
# Convention : Reuss Voigt Hill
#
# Bulk Modulus (GPa) = 41.18501 53.34783 47.26642
# Shear Modulus (GPa) = 22.38118 25.86199 24.12158
#
# Velocity S-wave (km/s) = 3.28988 3.53647 3.41540
# Velocity P-wave (km/s) = 5.86069 6.51720 6.19764
#
# Compressibility (1/GPa) = 0.02428068
#
# Stress axis : x y z
#
# Youngs Moduli (GPa) = 136.90837 57.58608 44.97431
#
# Poissons Ratio (x) = 0.17012 0.14866
# Poissons Ratio (y) = 0.40445 0.22722
# Poissons Ratio (z) = 0.45253 0.29094
#
# Static dielectric constant tensor:
#      x y z
#    x 1.721110 0.000000 0.000000 
#    y 0.000000 1.768100 0.000000 
#    z 0.000000 0.000000 1.761980 
# 
# From -- ./inp_files/47621.got.cif
#   From: 2010.05.17/outbox.cif.g08.bks.cpg/sg64_24_cif.got.tgz:47621.got - 2010.06.03 16:29:19.
