data_PCOD9480536
_publ_section_title
;
Structure prediction by ZEFSAII (Michael W. Deem and Ramdas Pophale) SiO2 
 PCOD9480536
Probable space group: C M C A
;
_chemical_formula_sum "Si O2"
_cell_formula_units_Z 104
_cell_length_a 9.578108
_cell_length_b 27.040380
_cell_length_c 20.759063
_cell_angle_alpha 90.000000
_cell_angle_beta 90.000000
_cell_angle_gamma 90.000000
_cell_volume 5376.507638
_symmetry_space_group_name_H-M "C M C A"
_symmetry_group_IT_number 64
_symmetry_cell_setting 'orthorhombic'
loop_
_space_group_symop_operation_xyz
x,y,z
-x,1/2-y,1/2+z
x,-y,-z
-x,1/2+y,1/2-z
-x,-y,-z
x,1/2+y,1/2-z
-x,y,z
x,1/2-y,1/2+z
1/2+x,1/2+y,z
1/2-x,-y,1/2+z
1/2+x,1/2-y,-z
1/2-x,y,1/2-z
1/2-x,1/2-y,-z
1/2+x,y,1/2-z
1/2-x,1/2+y,z
1/2+x,-y,1/2+z
loop_
_atom_site_type_symbol
_atom_site_label
_atom_site_fract_x
_atom_site_fract_y
_atom_site_fract_z
Si Si1 0.335440 0.888432 0.565020
Si Si2 0.500000 0.827095 0.266660
Si Si3 0.337977 0.075834 0.187798
Si Si4 0.842147 0.543358 0.809621
Si Si5 0.335980 0.269870 0.939229
Si Si6 0.773335 0.313008 0.152180
Si Si7 0.836181 0.598421 0.938852
O O1 0.500000 0.901452 0.569149
O O2 0.246696 0.908414 0.624940
O O3 0.323866 0.828922 0.564880
O O4 0.262956 0.907702 0.499821
O O5 0.377593 0.827446 0.322256
O O6 0.380649 0.821473 0.209713
O O7 0.500000 0.092690 0.188150
O O8 0.250000 0.092901 0.250000
O O9 0.341900 0.015936 0.190250
O O10 0.750000 0.561186 0.750000
O O11 0.798205 0.562543 0.879287
O O12 0.000000 0.561911 0.798254
O O13 0.500000 0.257862 0.946551
O O14 0.281098 0.242667 0.875077
O O15 0.250000 0.250000 0.000000
O O16 0.816853 0.347531 0.092080
O O17 0.000000 0.590622 0.955341
#
# Coordination Sequence:
#
# PCOD9480536 Si02
#       7
#    16   8  16  16  16  16  16
#     4  11  25  41  61  90 122 160 208 251 301 357
#     4  10  24  38  60  86 122 168 196 254 300 360
#     4  10  21  44  67  89 120 157 199 254 307 362
#     4   9  21  37  62  92 121 157 201 246 303 364
#     4  11  23  40  61  86 117 158 203 251 298 358
#     4  11  22  41  59  88 126 160 202 248 305 361
#     4  11  22  37  60  91 124 162 201 247 301 366
#
# _framework density 19.343411
#
# number of rings (size 3 to 8) (size 9 to 14) (size 15 to 20)
#    0.000    1.538    3.077    0.923    4.308    2.462 
#    2.769    3.077    0.000    0.000    0.000    0.000 
#    0.000    0.000    0.000    0.000    0.000    0.000 
#
# Total GULP energy -289480.794749 kJ/mol
# GULP energy per Si atom -5566.938361 kJ/mol
# Density = 1.929938 g / cm^3
# Si number density = 19.343411 Si / 1000 Ang^3
#
#
#
# Elastic Constant Matrix: (Units=GPa)
#
#
# Indices 1 2 3 4 5 6 
#
# 1 175.3292 28.5733 89.5231 0.0000 0.0000 0.0000
# 2 28.5733 18.4944 21.4515 0.0000 0.0000 0.0000
# 3 89.5231 21.4515 147.6782 0.0000 0.0000 0.0000
# 4 0.0000 0.0000 0.0000 -7.3074 0.0000 0.0000
# 5 0.0000 0.0000 0.0000 0.0000 49.3233 0.0000
# 6 0.0000 0.0000 0.0000 0.0000 0.0000 17.2552
#
#
#
# Elastic Compliance Matrix: (Units=1/GPa)
#
#
# Indices 1 2 3 4 5 6 
#
# 1 0.009497 -0.009615 -0.004360 0.000000 0.000000 0.000000
# 2 -0.009615 0.074760 -0.005031 0.000000 0.000000 0.000000
# 3 -0.004360 -0.005031 0.010146 0.000000 0.000000 0.000000
# 4 0.000000 0.000000 0.000000 -0.136847 0.000000 0.000000
# 5 0.000000 0.000000 0.000000 0.000000 0.020274 0.000000
# 6 0.000000 0.000000 0.000000 0.000000 0.000000 0.057953
#
#
# Mechanical properties :
#
#
# Convention : Reuss Voigt Hill
#
# Bulk Modulus (GPa) = 17.73351 68.95527 43.34439
# Shear Modulus (GPa) = 53.99948 25.31781 39.65865
#
# Velocity S-wave (km/s) = 5.28931 3.62174 4.53287
# Velocity P-wave (km/s) = 6.81836 7.29484 7.06062
#
# Compressibility (1/GPa) = 0.05639042
#
# Stress axis : x y z
#
# Youngs Moduli (GPa) = 105.29732 13.37605 98.56491
#
# Poissons Ratio (x) = 0.12861 0.42979
# Poissons Ratio (y) = 1.01241 0.49588
# Poissons Ratio (z) = 0.45914 0.06730
#
# Static dielectric constant tensor:
#      x y z
#    x 1.666330 0.000000 0.000000 
#    y 0.000000 1.725270 0.000000 
#    z 0.000000 0.000000 1.651210 
# 
# From -- ./inp_files/37210.got.cif
#   From: 2010.05.17/outbox.cif.g08.bks.cpg/sg64_19_cif.got.tgz:37210.got - 2010.06.03 16:29:19.
