data_PCOD9480926
_publ_section_title
;
Structure prediction by ZEFSAII (Michael W. Deem and Ramdas Pophale) SiO2 
 PCOD9480926
Probable space group: C M C A
;
_chemical_formula_sum "Si O2"
_cell_formula_units_Z 56
_cell_length_a 20.331072
_cell_length_b 18.949050
_cell_length_c 7.523573
_cell_angle_alpha 90.000000
_cell_angle_beta 90.000000
_cell_angle_gamma 90.000000
_cell_volume 2898.490353
_symmetry_space_group_name_H-M "C M C A"
_symmetry_group_IT_number 64
_symmetry_cell_setting 'orthorhombic'
loop_
_space_group_symop_operation_xyz
x,y,z
-x,1/2-y,1/2+z
x,-y,-z
-x,1/2+y,1/2-z
-x,-y,-z
x,1/2+y,1/2-z
-x,y,z
x,1/2-y,1/2+z
1/2+x,1/2+y,z
1/2-x,-y,1/2+z
1/2+x,1/2-y,-z
1/2-x,y,1/2-z
1/2-x,1/2-y,-z
1/2+x,y,1/2-z
1/2-x,1/2+y,z
1/2+x,-y,1/2+z
loop_
_atom_site_type_symbol
_atom_site_label
_atom_site_fract_x
_atom_site_fract_y
_atom_site_fract_z
Si Si1 0.250000 0.646429 0.750000
Si Si2 0.144143 0.582708 0.983782
Si Si3 0.926757 0.161388 0.217731
Si Si4 0.391194 0.318778 0.182264
O O1 0.216825 0.599725 0.905609
O O2 0.311609 0.690445 0.822786
O O3 0.099404 0.622812 0.835696
O O4 0.133424 0.500000 0.000000
O O5 0.127133 0.620003 0.168434
O O6 0.921560 0.244175 0.265991
O O7 0.000000 0.135902 0.263668
O O8 0.915344 0.155896 0.007849
#
# Coordination Sequence:
#
# PCOD9480926 Si02
#       4
#     8  16  16  16
#     4   8  22  42  62  96 124 168 208 270 320 386
#     4  10  24  44  65  98 132 169 213 270 332 378
#     4  12  24  40  68  96 133 174 216 269 315 386
#     4  10  22  41  65  99 124 172 217 262 327 377
#
# _framework density 19.320402000000001
#
# number of rings (size 3 to 8) (size 9 to 14) (size 15 to 20)
#    1.714    0.000    2.857    0.857    0.000   10.857 
#    0.000    1.429    0.000    0.000    0.000    0.000 
#    0.000    0.000    0.000    0.000    0.000    0.000 
#
# Total GULP energy -155991.281327 kJ/mol
# GULP energy per Si atom -5571.117190 kJ/mol
# Density = 1.927643 g / cm^3
# Si number density = 19.320402 Si / 1000 Ang^3
#
#
#
# Elastic Constant Matrix: (Units=GPa)
#
#
# Indices 1 2 3 4 5 6 
#
# 1 59.0857 0.9333 -12.6076 0.0000 0.0000 0.0000
# 2 0.9333 41.7988 -10.5726 0.0000 0.0000 0.0000
# 3 -12.6076 -10.5726 63.6071 0.0000 0.0000 0.0000
# 4 0.0000 0.0000 0.0000 26.3455 0.0000 0.0000
# 5 0.0000 0.0000 0.0000 0.0000 -9.4117 0.0000
# 6 0.0000 0.0000 0.0000 0.0000 0.0000 2.5251
#
#
#
# Elastic Compliance Matrix: (Units=1/GPa)
#
#
# Indices 1 2 3 4 5 6 
#
# 1 0.017683 0.000513 0.003590 0.000000 0.000000 0.000000
# 2 0.000513 0.024989 0.004255 0.000000 0.000000 0.000000
# 3 0.003590 0.004255 0.017140 0.000000 0.000000 0.000000
# 4 0.000000 0.000000 0.000000 0.037957 0.000000 0.000000
# 5 0.000000 0.000000 0.000000 0.000000 -0.106251 0.000000
# 6 0.000000 0.000000 0.000000 0.000000 0.000000 0.396028
#
#
# Mechanical properties :
#
#
# Convention : Reuss Voigt Hill
#
# Bulk Modulus (GPa) = 13.06685 13.33310 13.19998
# Shear Modulus (GPa) = 12.61546 16.34101 14.47823
#
# Velocity S-wave (km/s) = 2.55808 2.91140 2.74044
# Velocity P-wave (km/s) = 3.93738 4.26822 4.10613
#
# Compressibility (1/GPa) = 0.07652952
#
# Stress axis : x y z
#
# Youngs Moduli (GPa) = 56.55303 40.01754 58.34161
#
# Poissons Ratio (x) = -0.02054 -0.20946
# Poissons Ratio (y) = -0.02903 -0.24826
# Poissons Ratio (z) = -0.20303 -0.17029
#
# Static dielectric constant tensor:
#      x y z
#    x 1.722450 0.000000 0.000000 
#    y 0.000000 1.624290 0.000000 
#    z 0.000000 0.000000 1.668190 
# 
# From -- ./inp_files/7724.got.cif
#   From: 2010.05.17/outbox.cif.g08.bks.cpg/sg64_4_cif.got.tgz:7724.got - 2010.06.03 16:29:19.
