data_PCOD9480611
_publ_section_title
;
Structure prediction by ZEFSAII (Michael W. Deem and Ramdas Pophale) SiO2 
 PCOD9480611
Probable space group: C M C A
;
_chemical_formula_sum "Si O2"
_cell_formula_units_Z 80
_cell_length_a 22.422035
_cell_length_b 5.143528
_cell_length_c 31.629508
_cell_angle_alpha 90.000000
_cell_angle_beta 90.000000
_cell_angle_gamma 90.000000
_cell_volume 3647.779438
_symmetry_space_group_name_H-M "C M C A"
_symmetry_group_IT_number 64
_symmetry_cell_setting 'orthorhombic'
loop_
_space_group_symop_operation_xyz
x,y,z
-x,1/2-y,1/2+z
x,-y,-z
-x,1/2+y,1/2-z
-x,-y,-z
x,1/2+y,1/2-z
-x,y,z
x,1/2-y,1/2+z
1/2+x,1/2+y,z
1/2-x,-y,1/2+z
1/2+x,1/2-y,-z
1/2-x,y,1/2-z
1/2-x,1/2-y,-z
1/2+x,y,1/2-z
1/2-x,1/2+y,z
1/2+x,-y,1/2+z
loop_
_atom_site_type_symbol
_atom_site_label
_atom_site_fract_x
_atom_site_fract_y
_atom_site_fract_z
Si Si1 0.287669 0.438357 0.804058
Si Si2 0.931610 0.193481 0.367690
Si Si3 0.915017 0.577707 0.725981
Si Si4 0.817412 0.749996 0.480676
Si Si5 0.356635 0.173392 0.387917
O O1 0.236465 0.649487 0.797331
O O2 0.344017 0.534593 0.777484
O O3 0.311367 0.428831 0.852229
O O4 0.932004 0.305397 0.319492
O O5 0.901953 0.431314 0.393718
O O6 0.000000 0.140003 0.379757
O O7 0.891969 0.931116 0.371848
O O8 0.934309 0.288355 0.739159
O O9 0.847823 0.500000 0.500000
O O10 0.750000 0.750000 0.500000
O O11 0.821233 0.741440 0.430513
O O12 0.847824 0.000000 0.500000
#
# Coordination Sequence:
#
# PCOD9480611 Si02
#       5
#    16  16  16  16  16
#     4  11  23  36  59  89 126 179 209 247 315 397
#     4  11  24  44  68  93 122 176 226 271 335 379
#     4  11  23  40  60  90 127 160 217 277 319 372
#     4  10  22  37  62  98 132 169 198 258 327 385
#     4  11  23  41  65  94 137 165 217 271 316 393
#
# _framework density 21.931151
#
# number of rings (size 3 to 8) (size 9 to 14) (size 15 to 20)
#    0.000    1.200    0.000    7.800    5.600    3.200 
#    0.000    0.000    0.000   12.000    0.000    0.000 
#    0.000    0.000    0.000    0.000    0.000    0.000 
#
# Total GULP energy -223421.866311 kJ/mol
# GULP energy per Si atom -5585.546658 kJ/mol
# Density = 2.188123 g / cm^3
# Si number density = 21.931151 Si / 1000 Ang^3
#
#
#
# Elastic Constant Matrix: (Units=GPa)
#
#
# Indices 1 2 3 4 5 6 
#
# 1 95.6546 16.4984 49.6996 0.0000 0.0000 0.0000
# 2 16.4984 164.3288 38.9167 0.0000 0.0000 0.0000
# 3 49.6996 38.9167 112.7054 0.0000 0.0000 0.0000
# 4 0.0000 0.0000 0.0000 33.0509 0.0000 0.0000
# 5 0.0000 0.0000 0.0000 0.0000 3.7375 0.0000
# 6 0.0000 0.0000 0.0000 0.0000 0.0000 -9.0547
#
#
#
# Elastic Compliance Matrix: (Units=1/GPa)
#
#
# Indices 1 2 3 4 5 6 
#
# 1 0.013562 0.000060 -0.006001 0.000000 0.000000 0.000000
# 2 0.000060 0.006628 -0.002315 0.000000 0.000000 0.000000
# 3 -0.006001 -0.002315 0.012318 0.000000 0.000000 0.000000
# 4 0.000000 0.000000 0.000000 0.030256 0.000000 0.000000
# 5 0.000000 0.000000 0.000000 0.000000 0.267560 0.000000
# 6 0.000000 0.000000 0.000000 0.000000 0.000000 -0.110440
#
#
# Mechanical properties :
#
#
# Convention : Reuss Voigt Hill
#
# Bulk Modulus (GPa) = 62.51786 64.76869 63.64328
# Shear Modulus (GPa) = 20.68437 23.38500 22.03469
#
# Velocity S-wave (km/s) = 3.07441 3.26895 3.17317
# Velocity P-wave (km/s) = 6.41646 6.62155 6.51981
#
# Compressibility (1/GPa) = 0.01599543
#
# Stress axis : x y z
#
# Youngs Moduli (GPa) = 73.73573 150.88507 81.18072
#
# Poissons Ratio (x) = -0.00899 0.48716
# Poissons Ratio (y) = -0.00439 0.18791
# Poissons Ratio (z) = 0.44249 0.34926
#
# Static dielectric constant tensor:
#      x y z
#    x 1.819090 0.000000 0.000000 
#    y 0.000000 1.816500 0.000000 
#    z 0.000000 0.000000 1.825200 
# 
# From -- ./inp_files/53847.got.cif
#   From: 2010.05.17/outbox.cif.g08.bks.cpg/sg64_27_cif.got.tgz:53847.got - 2010.06.03 16:29:19.
