data_PCOD9480651
_publ_section_title
;
Structure prediction by ZEFSAII (Michael W. Deem and Ramdas Pophale) SiO2 
 PCOD9480651
Probable space group: C M C A
;
_chemical_formula_sum "Si O2"
_cell_formula_units_Z 64
_cell_length_a 22.779851
_cell_length_b 14.526973
_cell_length_c 9.289340
_cell_angle_alpha 90.000000
_cell_angle_beta 90.000000
_cell_angle_gamma 90.000000
_cell_volume 3074.049576
_symmetry_space_group_name_H-M "C M C A"
_symmetry_group_IT_number 64
_symmetry_cell_setting 'orthorhombic'
loop_
_space_group_symop_operation_xyz
x,y,z
-x,1/2-y,1/2+z
x,-y,-z
-x,1/2+y,1/2-z
-x,-y,-z
x,1/2+y,1/2-z
-x,y,z
x,1/2-y,1/2+z
1/2+x,1/2+y,z
1/2-x,-y,1/2+z
1/2+x,1/2-y,-z
1/2-x,y,1/2-z
1/2-x,1/2-y,-z
1/2+x,y,1/2-z
1/2-x,1/2+y,z
1/2+x,-y,1/2+z
loop_
_atom_site_type_symbol
_atom_site_label
_atom_site_fract_x
_atom_site_fract_y
_atom_site_fract_z
Si Si1 0.156674 0.464482 0.289440
Si Si2 0.565051 0.432455 0.637419
Si Si3 0.831247 0.662796 0.981044
Si Si4 0.800642 0.357265 0.568647
O O1 0.090882 0.504014 0.265692
O O2 0.190474 0.557638 0.326330
O O3 0.172659 0.394604 0.416837
O O4 0.172621 0.416624 0.139463
O O5 0.560664 0.500000 0.500000
O O6 0.500000 0.395534 0.668264
O O7 0.614170 0.359143 0.585394
O O8 0.768462 0.663103 0.058938
O O9 0.834187 0.761806 0.902944
#
# Coordination Sequence:
#
# PCOD9480651 Si02
#       4
#    16  16  16  16
#     4  10  22  38  61  88 127 157 197 258 309 362
#     4   9  20  39  63  86 117 166 208 240 295 368
#     4  10  22  38  61  90 127 160 206 250 306 379
#     4  10  23  37  59  99 121 158 201 256 321 362
#
# _framework density 20.819443
#
# number of rings (size 3 to 8) (size 9 to 14) (size 15 to 20)
#    0.000    2.250    0.000    0.750   17.500    0.000 
#    0.000    5.000    0.000    0.000    0.000    0.000 
#    0.000    0.000    0.000    0.000    0.000    0.000 
#
# Total GULP energy -178486.566428 kJ/mol
# GULP energy per Si atom -5577.705201 kJ/mol
# Density = 2.077206 g / cm^3
# Si number density = 20.819443 Si / 1000 Ang^3
#
#
#
# Elastic Constant Matrix: (Units=GPa)
#
#
# Indices 1 2 3 4 5 6 
#
# 1 139.8426 32.6958 19.1092 0.0000 0.0000 0.0000
# 2 32.6958 99.7448 -1.5898 0.0000 0.0000 0.0000
# 3 19.1092 -1.5898 27.5467 0.0000 0.0000 0.0000
# 4 0.0000 0.0000 0.0000 28.8829 0.0000 0.0000
# 5 0.0000 0.0000 0.0000 0.0000 11.9222 0.0000
# 6 0.0000 0.0000 0.0000 0.0000 0.0000 20.5613
#
#
#
# Elastic Compliance Matrix: (Units=1/GPa)
#
#
# Indices 1 2 3 4 5 6 
#
# 1 0.008686 -0.002946 -0.006196 0.000000 0.000000 0.000000
# 2 -0.002946 0.011034 0.002681 0.000000 0.000000 0.000000
# 3 -0.006196 0.002681 0.040755 0.000000 0.000000 0.000000
# 4 0.000000 0.000000 0.000000 0.034623 0.000000 0.000000
# 5 0.000000 0.000000 0.000000 0.000000 0.083877 0.000000
# 6 0.000000 0.000000 0.000000 0.000000 0.000000 0.048635
#
#
# Mechanical properties :
#
#
# Convention : Reuss Voigt Hill
#
# Bulk Modulus (GPa) = 21.02942 40.84048 30.93495
# Shear Modulus (GPa) = 19.50207 26.73456 23.11832
#
# Velocity S-wave (km/s) = 3.06392 3.58734 3.33591
# Velocity P-wave (km/s) = 4.75810 6.06777 5.45240
#
# Compressibility (1/GPa) = 0.04755243
#
# Stress axis : x y z
#
# Youngs Moduli (GPa) = 115.12330 90.62880 24.53705
#
# Poissons Ratio (x) = 0.26700 0.15203
# Poissons Ratio (y) = 0.33916 -0.06577
# Poissons Ratio (z) = 0.71328 -0.24293
#
# Static dielectric constant tensor:
#      x y z
#    x 1.773500 0.000000 0.000000 
#    y 0.000000 1.738960 0.000000 
#    z 0.000000 0.000000 1.817010 
# 
# From -- ./inp_files/8929.got.cif
#   From: 2010.05.17/outbox.cif.g08.bks.cpg/sg64_5_cif.got.tgz:8929.got - 2010.06.03 16:29:19.
