data_PCOD9480491
_publ_section_title
;
Structure prediction by ZEFSAII (Michael W. Deem and Ramdas Pophale) SiO2 
 PCOD9480491
Probable space group: C M C A
;
_chemical_formula_sum "Si O2"
_cell_formula_units_Z 112
_cell_length_a 14.589009
_cell_length_b 21.599942
_cell_length_c 14.930761
_cell_angle_alpha 90.000000
_cell_angle_beta 90.000000
_cell_angle_gamma 90.000000
_cell_volume 4705.007509
_symmetry_space_group_name_H-M "C M C A"
_symmetry_group_IT_number 64
_symmetry_cell_setting 'orthorhombic'
loop_
_space_group_symop_operation_xyz
x,y,z
-x,1/2-y,1/2+z
x,-y,-z
-x,1/2+y,1/2-z
-x,-y,-z
x,1/2+y,1/2-z
-x,y,z
x,1/2-y,1/2+z
1/2+x,1/2+y,z
1/2-x,-y,1/2+z
1/2+x,1/2-y,-z
1/2-x,y,1/2-z
1/2-x,1/2-y,-z
1/2+x,y,1/2-z
1/2-x,1/2+y,z
1/2+x,-y,1/2+z
loop_
_atom_site_type_symbol
_atom_site_label
_atom_site_fract_x
_atom_site_fract_y
_atom_site_fract_z
Si Si1 0.096427 0.545002 0.917595
Si Si2 0.601311 0.107162 0.373133
Si Si3 0.895334 0.660281 0.716834
Si Si4 0.857431 0.483467 0.268633
Si Si5 0.714409 0.135345 0.015957
Si Si6 0.737181 0.781394 0.130244
Si Si7 0.670460 0.847065 0.801695
O O1 0.103155 0.503892 0.829478
O O2 0.000000 0.581867 0.911388
O O3 0.092899 0.500000 0.000000
O O4 0.183632 0.587810 0.938544
O O5 0.500000 0.113482 0.413905
O O6 0.685135 0.123118 0.440564
O O7 0.602425 0.150973 0.282192
O O8 0.614582 0.036312 0.338259
O O9 0.892415 0.586165 0.715043
O O10 0.832060 0.680554 0.634628
O O11 0.838037 0.690992 0.799746
O O12 0.000000 0.681996 0.715469
O O13 0.750000 0.478391 0.250000
O O14 0.646184 0.127202 0.101285
O O15 0.699964 0.201408 0.967585
O O16 0.774032 0.714602 0.163908
O O17 0.750000 0.885803 0.750000
#
# Coordination Sequence:
#
# PCOD9480491 Si02
#       7
#    16  16  16  16  16  16  16
#     4  11  22  36  60  95 131 171 222 279 336 402
#     4  11  25  43  67  99 138 182 229 276 342 420
#     4  11  22  39  67  98 131 175 226 273 335 405
#     4  12  21  41  67  94 131 176 219 275 342 407
#     4  11  23  40  65  98 135 174 222 288 345 395
#     4  11  22  43  65  94 133 178 226 282 336 397
#     4  10  21  42  65  90 127 178 227 273 333 399
#
# _framework density 23.804424999999998
#
# number of rings (size 3 to 8) (size 9 to 14) (size 15 to 20)
#    0.000    1.000    4.286    4.714    0.000    2.857 
#    0.000    0.000    0.000    8.143    0.000    0.000 
#    0.000    0.000    0.000    0.000    0.000    0.000 
#
# Total GULP energy -311764.361573 kJ/mol
# GULP energy per Si atom -5567.220742 kJ/mol
# Density = 2.375024 g / cm^3
# Si number density = 23.804425 Si / 1000 Ang^3
#
#
#
# Elastic Constant Matrix: (Units=GPa)
#
#
# Indices 1 2 3 4 5 6 
#
# 1 151.8074 4.9080 11.4695 0.0000 0.0000 0.0000
# 2 4.9080 90.2671 -3.5644 0.0000 0.0000 0.0000
# 3 11.4695 -3.5644 70.9217 0.0000 0.0000 0.0000
# 4 0.0000 0.0000 0.0000 28.0768 0.0000 0.0000
# 5 0.0000 0.0000 0.0000 0.0000 4.9512 0.0000
# 6 0.0000 0.0000 0.0000 0.0000 0.0000 9.2177
#
#
#
# Elastic Compliance Matrix: (Units=1/GPa)
#
#
# Indices 1 2 3 4 5 6 
#
# 1 0.006684 -0.000407 -0.001101 0.000000 0.000000 0.000000
# 2 -0.000407 0.011125 0.000625 0.000000 0.000000 0.000000
# 3 -0.001101 0.000625 0.014310 0.000000 0.000000 0.000000
# 4 0.000000 0.000000 0.000000 0.035617 0.000000 0.000000
# 5 0.000000 0.000000 0.000000 0.000000 0.201972 0.000000
# 6 0.000000 0.000000 0.000000 0.000000 0.000000 0.108487
#
#
# Mechanical properties :
#
#
# Convention : Reuss Voigt Hill
#
# Bulk Modulus (GPa) = 32.94713 37.62471 35.28592
# Shear Modulus (GPa) = 12.81798 28.46134 20.63966
#
# Velocity S-wave (km/s) = 2.32301 3.46154 2.94777
# Velocity P-wave (km/s) = 4.58977 5.64061 5.14210
#
# Compressibility (1/GPa) = 0.03035166
#
# Stress axis : x y z
#
# Youngs Moduli (GPa) = 149.61864 89.88734 69.88328
#
# Poissons Ratio (x) = 0.03657 0.07696
# Poissons Ratio (y) = 0.06088 -0.04367
# Poissons Ratio (z) = 0.16478 -0.05617
#
# Static dielectric constant tensor:
#      x y z
#    x 2.065710 0.000000 0.000000 
#    y 0.000000 2.031740 0.000000 
#    z 0.000000 0.000000 2.018950 
# 
# From -- ./inp_files/24287.got.cif
#   From: 2010.05.17/outbox.cif.g08.bks.cpg/sg64_13_cif.got.tgz:24287.got - 2010.06.03 16:29:19.
