data_PCOD9480958
_publ_section_title
;
Structure prediction by ZEFSAII (Michael W. Deem and Ramdas Pophale) SiO2 
 PCOD9480958
Probable space group: C M C A
;
_chemical_formula_sum "Si O2"
_cell_formula_units_Z 116
_cell_length_a 16.757212
_cell_length_b 11.169089
_cell_length_c 27.830390
_cell_angle_alpha 90.000000
_cell_angle_beta 90.000000
_cell_angle_gamma 90.000000
_cell_volume 5208.813501
_symmetry_space_group_name_H-M "C M C A"
_symmetry_group_IT_number 64
_symmetry_cell_setting 'orthorhombic'
loop_
_space_group_symop_operation_xyz
x,y,z
-x,1/2-y,1/2+z
x,-y,-z
-x,1/2+y,1/2-z
-x,-y,-z
x,1/2+y,1/2-z
-x,y,z
x,1/2-y,1/2+z
1/2+x,1/2+y,z
1/2-x,-y,1/2+z
1/2+x,1/2-y,-z
1/2-x,y,1/2-z
1/2-x,1/2-y,-z
1/2+x,y,1/2-z
1/2-x,1/2+y,z
1/2+x,-y,1/2+z
loop_
_atom_site_type_symbol
_atom_site_label
_atom_site_fract_x
_atom_site_fract_y
_atom_site_fract_z
Si Si1 0.413301 0.250745 0.166661
Si Si2 0.403802 0.351038 0.394204
Si Si3 0.500000 0.500000 0.000000
Si Si4 0.867130 0.103121 0.155121
Si Si5 0.882984 0.408834 0.421284
Si Si6 0.220728 0.371495 0.027513
Si Si7 0.687462 0.027543 0.172379
Si Si8 0.587534 0.967425 0.258693
O O1 0.500000 0.193150 0.173037
O O2 0.406419 0.298899 0.112590
O O3 0.343855 0.161367 0.178192
O O4 0.408129 0.361166 0.202912
O O5 0.500000 0.353097 0.395316
O O6 0.373151 0.238405 0.362560
O O7 0.362606 0.341861 0.446332
O O8 0.363813 0.466959 0.369788
O O9 0.569121 0.425746 0.029987
O O10 0.780225 0.042809 0.162233
O O11 0.907624 0.083734 0.206822
O O12 0.903142 0.024904 0.111475
O O13 0.790086 0.395915 0.433459
O O14 0.214171 0.500000 0.000000
O O15 0.250000 0.250000 0.000000
O O16 0.658790 0.962890 0.220930
O O17 0.500000 0.960734 0.234973
#
# Coordination Sequence:
#
# PCOD9480958 Si02
#       8
#    16  16   4  16  16  16  16  16
#     4  10  22  41  69  99 144 186 236 302 363 433
#     4  12  28  47  75 108 149 197 243 310 385 453
#     4  12  24  40  80 108 132 180 260 308 366 456
#     4  11  25  46  71 101 147 189 240 301 368 444
#     4  11  23  44  71 107 137 186 242 306 373 443
#     4  12  27  48  74 104 149 193 249 318 388 466
#     4  12  25  45  71 104 146 193 242 300 372 446
#     4  10  23  43  70 104 140 190 243 295 353 443
#
# _framework density 22.269946999999998
#
# number of rings (size 3 to 8) (size 9 to 14) (size 15 to 20)
#    0.000    0.828    2.759    3.724    7.724    0.276 
#    0.000    0.000    0.000    0.000    0.000    0.000 
#    0.000    0.000    0.000    0.000    0.000    0.000 
#
# Total GULP energy -323614.193206 kJ/mol
# GULP energy per Si atom -5579.555055 kJ/mol
# Density = 2.221926 g / cm^3
# Si number density = 22.269947 Si / 1000 Ang^3
#
#
#
# Elastic Constant Matrix: (Units=GPa)
#
#
# Indices 1 2 3 4 5 6 
#
# 1 159.2209 17.0525 38.2366 0.0000 0.0000 0.0000
# 2 17.0525 66.8718 21.0888 0.0000 0.0000 0.0000
# 3 38.2366 21.0888 73.6348 0.0000 0.0000 0.0000
# 4 0.0000 0.0000 0.0000 24.4837 0.0000 0.0000
# 5 0.0000 0.0000 0.0000 0.0000 28.6070 0.0000
# 6 0.0000 0.0000 0.0000 0.0000 0.0000 27.7116
#
#
#
# Elastic Compliance Matrix: (Units=1/GPa)
#
#
# Indices 1 2 3 4 5 6 
#
# 1 0.007207 -0.000723 -0.003535 0.000000 0.000000 0.000000
# 2 -0.000723 0.016511 -0.004353 0.000000 0.000000 0.000000
# 3 -0.003535 -0.004353 0.016663 0.000000 0.000000 0.000000
# 4 0.000000 0.000000 0.000000 0.040844 0.000000 0.000000
# 5 0.000000 0.000000 0.000000 0.000000 0.034956 0.000000
# 6 0.000000 0.000000 0.000000 0.000000 0.000000 0.036086
#
#
# Mechanical properties :
#
#
# Convention : Reuss Voigt Hill
#
# Bulk Modulus (GPa) = 43.18147 50.27594 46.72870
# Shear Modulus (GPa) = 28.21508 31.05041 29.63274
#
# Velocity S-wave (km/s) = 3.56330 3.73805 3.65172
# Velocity P-wave (km/s) = 6.03005 6.42303 6.22964
#
# Compressibility (1/GPa) = 0.02315808
#
# Stress axis : x y z
#
# Youngs Moduli (GPa) = 138.75363 60.56484 60.01259
#
# Poissons Ratio (x) = 0.04378 0.21217
# Poissons Ratio (y) = 0.10030 0.26126
# Poissons Ratio (z) = 0.49055 0.26366
#
# Static dielectric constant tensor:
#      x y z
#    x 1.881810 0.000000 0.000000 
#    y 0.000000 1.839880 0.000000 
#    z 0.000000 0.000000 1.846050 
# 
# From -- ./inp_files/50487.got.cif
#   From: 2010.05.17/outbox.cif.g08.bks.cpg/sg64_26_cif.got.tgz:50487.got - 2010.06.03 16:29:19.
