data_PCOD9480937
_publ_section_title
;
Structure prediction by ZEFSAII (Michael W. Deem and Ramdas Pophale) SiO2 
 PCOD9480937
Probable space group: C M C A
;
_chemical_formula_sum "Si O2"
_cell_formula_units_Z 72
_cell_length_a 15.290778
_cell_length_b 11.679148
_cell_length_c 17.248413
_cell_angle_alpha 90.000000
_cell_angle_beta 90.000000
_cell_angle_gamma 90.000000
_cell_volume 3080.277811
_symmetry_space_group_name_H-M "C M C A"
_symmetry_group_IT_number 64
_symmetry_cell_setting 'orthorhombic'
loop_
_space_group_symop_operation_xyz
x,y,z
-x,1/2-y,1/2+z
x,-y,-z
-x,1/2+y,1/2-z
-x,-y,-z
x,1/2+y,1/2-z
-x,y,z
x,1/2-y,1/2+z
1/2+x,1/2+y,z
1/2-x,-y,1/2+z
1/2+x,1/2-y,-z
1/2-x,y,1/2-z
1/2-x,1/2-y,-z
1/2+x,y,1/2-z
1/2-x,1/2+y,z
1/2+x,-y,1/2+z
loop_
_atom_site_type_symbol
_atom_site_label
_atom_site_fract_x
_atom_site_fract_y
_atom_site_fract_z
Si Si1 0.848028 0.112566 0.157228
Si Si2 0.400605 0.158138 0.898784
Si Si3 0.643001 0.080939 0.170216
Si Si4 0.635810 0.500000 0.000000
Si Si5 0.101733 0.226719 0.942060
O O1 0.845461 0.250220 0.149662
O O2 0.747317 0.073961 0.158317
O O3 0.884031 0.075000 0.240031
O O4 0.895119 0.062029 0.080666
O O5 0.500000 0.194659 0.883950
O O6 0.392734 0.027384 0.875813
O O7 0.383439 0.182391 0.989074
O O8 0.614184 0.202614 0.135652
O O9 0.665333 0.380744 0.041460
O O10 0.000000 0.184742 0.946507
#
# Coordination Sequence:
#
# PCOD9480937 Si02
#       5
#    16  16  16   8  16
#     4  10  26  41  63  97 134 172 220 272 327 389
#     4  10  23  43  65  95 131 166 220 273 324 397
#     4  11  24  40  67  97 131 170 223 272 324 391
#     4  10  23  42  66  92 135 176 214 268 333 396
#     4  10  22  41  66  96 129 168 215 271 331 395
#
# _framework density 23.374514000000001
#
# number of rings (size 3 to 8) (size 9 to 14) (size 15 to 20)
#    0.000    1.778    0.000    1.667    9.333    8.000 
#    0.000    0.000    0.000    0.000    0.000    0.000 
#    0.000    0.000    0.000    0.000    0.000    0.000 
#
# Total GULP energy -200594.487495 kJ/mol
# GULP energy per Si atom -5572.069097 kJ/mol
# Density = 2.332131 g / cm^3
# Si number density = 23.374514 Si / 1000 Ang^3
#
#
#
# Elastic Constant Matrix: (Units=GPa)
#
#
# Indices 1 2 3 4 5 6 
#
# 1 54.2069 -1.5090 13.8955 0.0000 0.0000 0.0000
# 2 -1.5090 129.6539 58.7476 0.0000 0.0000 0.0000
# 3 13.8955 58.7476 117.3288 0.0000 0.0000 0.0000
# 4 0.0000 0.0000 0.0000 19.4566 0.0000 0.0000
# 5 0.0000 0.0000 0.0000 0.0000 9.9805 0.0000
# 6 0.0000 0.0000 0.0000 0.0000 0.0000 27.5273
#
#
#
# Elastic Compliance Matrix: (Units=1/GPa)
#
#
# Indices 1 2 3 4 5 6 
#
# 1 0.019288 0.001629 -0.003100 0.000000 0.000000 0.000000
# 2 0.001629 0.010114 -0.005257 0.000000 0.000000 0.000000
# 3 -0.003100 -0.005257 0.011522 0.000000 0.000000 0.000000
# 4 0.000000 0.000000 0.000000 0.051396 0.000000 0.000000
# 5 0.000000 0.000000 0.000000 0.000000 0.100195 0.000000
# 6 0.000000 0.000000 0.000000 0.000000 0.000000 0.036328
#
#
# Mechanical properties :
#
#
# Convention : Reuss Voigt Hill
#
# Bulk Modulus (GPa) = 36.40560 49.27308 42.83934
# Shear Modulus (GPa) = 19.88426 26.72993 23.30709
#
# Velocity S-wave (km/s) = 2.91981 3.38531 3.16114
# Velocity P-wave (km/s) = 5.19382 6.03374 5.62947
#
# Compressibility (1/GPa) = 0.02746830
#
# Stress axis : x y z
#
# Youngs Moduli (GPa) = 51.84607 98.87470 86.78719
#
# Poissons Ratio (x) = -0.16108 0.26904
# Poissons Ratio (y) = -0.08446 0.45624
# Poissons Ratio (z) = 0.16072 0.51979
#
# Static dielectric constant tensor:
#      x y z
#    x 1.938560 0.000000 0.000000 
#    y 0.000000 1.844670 0.000000 
#    z 0.000000 0.000000 1.875690 
# 
# From -- ./inp_files/32837.got.cif
#   From: 2010.05.17/outbox.cif.g08.bks.cpg/sg64_17_cif.got.tgz:32837.got - 2010.06.03 16:29:19.
