data_PCOD9480927
_publ_section_title
;
Structure prediction by ZEFSAII (Michael W. Deem and Ramdas Pophale) SiO2 
 PCOD9480927
Probable space group: C M C A
;
_chemical_formula_sum "Si O2"
_cell_formula_units_Z 104
_cell_length_a 18.503052
_cell_length_b 17.486805
_cell_length_c 14.113408
_cell_angle_alpha 90.000000
_cell_angle_beta 90.000000
_cell_angle_gamma 90.000000
_cell_volume 4566.523880
_symmetry_space_group_name_H-M "C M C A"
_symmetry_group_IT_number 64
_symmetry_cell_setting 'orthorhombic'
loop_
_space_group_symop_operation_xyz
x,y,z
-x,1/2-y,1/2+z
x,-y,-z
-x,1/2+y,1/2-z
-x,-y,-z
x,1/2+y,1/2-z
-x,y,z
x,1/2-y,1/2+z
1/2+x,1/2+y,z
1/2-x,-y,1/2+z
1/2+x,1/2-y,-z
1/2-x,y,1/2-z
1/2-x,1/2-y,-z
1/2+x,y,1/2-z
1/2-x,1/2+y,z
1/2+x,-y,1/2+z
loop_
_atom_site_type_symbol
_atom_site_label
_atom_site_fract_x
_atom_site_fract_y
_atom_site_fract_z
Si Si1 0.915411 0.008462 0.301145
Si Si2 0.775321 0.370372 0.539046
Si Si3 0.335746 0.860135 0.237275
Si Si4 0.080642 0.208530 0.569978
Si Si5 0.332090 0.757284 0.894111
Si Si6 0.165357 0.000000 0.500000
Si Si7 0.419026 0.385476 0.866630
O O1 0.875145 0.940511 0.243542
O O2 0.000000 0.990929 0.307451
O O3 0.881318 0.010506 0.405283
O O4 0.908350 0.086863 0.241276
O O5 0.731009 0.320264 0.617260
O O6 0.799039 0.309698 0.460215
O O7 0.719773 0.429319 0.496061
O O8 0.847116 0.410923 0.578161
O O9 0.250000 0.868408 0.250000
O O10 0.362902 0.836567 0.133604
O O11 0.357892 0.788290 0.302848
O O12 0.105279 0.208903 0.460862
O O13 0.080264 0.295111 0.610521
O O14 0.000000 0.176965 0.579573
O O15 0.500000 0.413897 0.894751
#
# Coordination Sequence:
#
# PCOD9480927 Si02
#       7
#    16  16  16  16  16   8  16
#     4  11  26  45  64  95 136 174 220 271 331 401
#     4  10  22  41  66 101 132 170 223 273 332 398
#     4  12  24  39  69 100 133 174 221 281 332 390
#     4  10  22  43  67  97 134 173 220 270 327 397
#     4  10  22  43  66  98 137 173 222 278 330 391
#     4  12  25  40  71  98 132 178 218 278 339 408
#     4   9  21  42  65  91 130 172 215 267 323 393
#
# _framework density 22.774435
#
# number of rings (size 3 to 8) (size 9 to 14) (size 15 to 20)
#    0.000    1.538    0.000    5.308    6.462    1.231 
#    2.769    1.154    0.000    0.923    0.000    0.000 
#    0.000    0.000    0.000    0.000    0.000    0.000 
#
# Total GULP energy -290624.428189 kJ/mol
# GULP energy per Si atom -5588.931311 kJ/mol
# Density = 2.272260 g / cm^3
# Si number density = 22.774435 Si / 1000 Ang^3
#
#
#
# Elastic Constant Matrix: (Units=GPa)
#
#
# Indices 1 2 3 4 5 6 
#
# 1 183.8736 32.9727 67.5132 0.0000 0.0000 0.0000
# 2 32.9727 47.4959 19.1492 0.0000 0.0000 0.0000
# 3 67.5132 19.1492 86.6981 0.0000 0.0000 0.0000
# 4 0.0000 0.0000 0.0000 29.1696 0.0000 0.0000
# 5 0.0000 0.0000 0.0000 0.0000 19.9370 0.0000
# 6 0.0000 0.0000 0.0000 0.0000 0.0000 11.4729
#
#
#
# Elastic Compliance Matrix: (Units=1/GPa)
#
#
# Indices 1 2 3 4 5 6 
#
# 1 0.008080 -0.003373 -0.005547 0.000000 0.000000 0.000000
# 2 -0.003373 0.024521 -0.002789 0.000000 0.000000 0.000000
# 3 -0.005547 -0.002789 0.016470 0.000000 0.000000 0.000000
# 4 0.000000 0.000000 0.000000 0.034282 0.000000 0.000000
# 5 0.000000 0.000000 0.000000 0.000000 0.050158 0.000000
# 6 0.000000 0.000000 0.000000 0.000000 0.000000 0.087162
#
#
# Mechanical properties :
#
#
# Convention : Reuss Voigt Hill
#
# Bulk Modulus (GPa) = 38.98348 61.92641 50.45495
# Shear Modulus (GPa) = 19.79083 25.34474 22.56778
#
# Velocity S-wave (km/s) = 2.95107 3.33957 3.15131
# Velocity P-wave (km/s) = 5.36340 6.49004 5.95343
#
# Compressibility (1/GPa) = 0.02565189
#
# Stress axis : x y z
#
# Youngs Moduli (GPa) = 123.76086 40.78201 60.71649
#
# Poissons Ratio (x) = 0.13755 0.33680
# Poissons Ratio (y) = 0.41744 0.16936
# Poissons Ratio (z) = 0.68652 0.11376
#
# Static dielectric constant tensor:
#      x y z
#    x 1.845750 0.000000 0.000000 
#    y 0.000000 1.885990 0.000000 
#    z 0.000000 0.000000 1.883520 
# 
# From -- ./inp_files/25631.got.cif
#   From: 2010.05.17/outbox.cif.g08.bks.cpg/sg64_13_cif.got.tgz:25631.got - 2010.06.03 16:29:19.
