data_PCOD9480046
_publ_section_title
;
Structure prediction by ZEFSAII (Michael W. Deem and Ramdas Pophale) SiO2 
 PCOD9480046
Probable space group: C M C A
;
_chemical_formula_sum "Si O2"
_cell_formula_units_Z 112
_cell_length_a 19.858052
_cell_length_b 11.242947
_cell_length_c 23.744109
_cell_angle_alpha 90.000000
_cell_angle_beta 90.000000
_cell_angle_gamma 90.000000
_cell_volume 5301.181629
_symmetry_space_group_name_H-M "C M C A"
_symmetry_group_IT_number 64
_symmetry_cell_setting 'orthorhombic'
loop_
_space_group_symop_operation_xyz
x,y,z
-x,1/2-y,1/2+z
x,-y,-z
-x,1/2+y,1/2-z
-x,-y,-z
x,1/2+y,1/2-z
-x,y,z
x,1/2-y,1/2+z
1/2+x,1/2+y,z
1/2-x,-y,1/2+z
1/2+x,1/2-y,-z
1/2-x,y,1/2-z
1/2-x,1/2-y,-z
1/2+x,y,1/2-z
1/2-x,1/2+y,z
1/2+x,-y,1/2+z
loop_
_atom_site_type_symbol
_atom_site_label
_atom_site_fract_x
_atom_site_fract_y
_atom_site_fract_z
Si Si1 0.304687 0.859718 0.506968
Si Si2 0.421786 0.810698 0.416239
Si Si3 0.131461 0.902039 0.638665
Si Si4 0.218039 0.848785 0.870652
Si Si5 0.349502 0.149613 0.810802
Si Si6 0.361356 0.949910 0.309128
Si Si7 0.426957 0.344802 0.754159
O O1 0.250000 0.750000 0.500000
O O2 0.368576 0.840237 0.465905
O O3 0.324661 0.849830 0.572413
O O4 0.281105 0.000000 0.500000
O O5 0.500000 0.845334 0.425698
O O6 0.418337 0.670013 0.401240
O O7 0.389783 0.872977 0.360423
O O8 0.205112 0.873729 0.615556
O O9 0.124307 0.850817 0.702258
O O10 0.126336 0.042066 0.650108
O O11 0.209772 0.722953 0.840094
O O12 0.192455 0.955003 0.831491
O O13 0.332742 0.109096 0.747463
O O14 0.407777 0.245648 0.799125
O O15 0.422471 0.029171 0.284680
O O16 0.500000 0.321869 0.729534
#
# Coordination Sequence:
#
# PCOD9480046 Si02
#       7
#    16  16  16  16  16  16  16
#     4  12  27  49  77 106 138 187 243 301 359 420
#     4  12  25  45  71 102 138 180 237 294 352 420
#     4  11  24  38  64 100 135 181 226 290 348 421
#     4  11  25  44  68 100 138 179 236 289 356 418
#     4  10  24  39  64  99 140 182 222 284 348 427
#     4  10  22  42  64 100 135 180 225 283 345 416
#     4  10  21  38  60  93 139 187 226 271 341 422
#
# _framework density 21.127365000000001
#
# number of rings (size 3 to 8) (size 9 to 14) (size 15 to 20)
#    0.000    1.143    4.286    0.857    4.000    9.429 
#    0.000    0.714    0.000    3.000    0.000    0.000 
#    0.000    0.000    0.000    0.000    0.000    0.000 
#
# Total GULP energy -312370.279603 kJ/mol
# GULP energy per Si atom -5578.040707 kJ/mol
# Density = 2.107928 g / cm^3
# Si number density = 21.127365 Si / 1000 Ang^3
#
#
#
# Elastic Constant Matrix: (Units=GPa)
#
#
# Indices 1 2 3 4 5 6 
#
# 1 72.5182 24.0366 20.3199 0.0000 0.0000 0.0000
# 2 24.0366 121.0710 38.4530 0.0000 0.0000 0.0000
# 3 20.3199 38.4530 113.0893 0.0000 0.0000 0.0000
# 4 0.0000 0.0000 0.0000 25.5980 0.0000 0.0000
# 5 0.0000 0.0000 0.0000 0.0000 22.3448 0.0000
# 6 0.0000 0.0000 0.0000 0.0000 0.0000 3.2805
#
#
#
# Elastic Compliance Matrix: (Units=1/GPa)
#
#
# Indices 1 2 3 4 5 6 
#
# 1 0.015117 -0.002397 -0.001901 0.000000 0.000000 0.000000
# 2 -0.002397 0.009640 -0.002847 0.000000 0.000000 0.000000
# 3 -0.001901 -0.002847 0.010152 0.000000 0.000000 0.000000
# 4 0.000000 0.000000 0.000000 0.039066 0.000000 0.000000
# 5 0.000000 0.000000 0.000000 0.000000 0.044753 0.000000
# 6 0.000000 0.000000 0.000000 0.000000 0.000000 0.304832
#
#
# Mechanical properties :
#
#
# Convention : Reuss Voigt Hill
#
# Bulk Modulus (GPa) = 48.50119 52.47748 50.48934
# Shear Modulus (GPa) = 11.24294 25.16925 18.20610
#
# Velocity S-wave (km/s) = 2.30934 3.45528 2.93871
# Velocity P-wave (km/s) = 5.48791 6.38836 5.95518
#
# Compressibility (1/GPa) = 0.02061805
#
# Stress axis : x y z
#
# Youngs Moduli (GPa) = 66.15088 103.73650 98.50093
#
# Poissons Ratio (x) = 0.24870 0.18725
# Poissons Ratio (y) = 0.15859 0.28043
# Poissons Ratio (z) = 0.12576 0.29534
#
# Static dielectric constant tensor:
#      x y z
#    x 1.773660 0.000000 0.000000 
#    y 0.000000 1.863540 0.000000 
#    z 0.000000 0.000000 1.756950 
# 
# From -- ./inp_files/46327.got.cif
#   From: 2010.05.17/outbox.cif.g08.bks.cpg/sg64_24_cif.got.tgz:46327.got - 2010.06.03 16:29:19.
