data_PCOD9480517
_publ_section_title
;
Structure prediction by ZEFSAII (Michael W. Deem and Ramdas Pophale) SiO2 
 PCOD9480517
Probable space group: C M C A
;
_chemical_formula_sum "Si O2"
_cell_formula_units_Z 88
_cell_length_a 29.297698
_cell_length_b 17.841502
_cell_length_c 8.971365
_cell_angle_alpha 90.000000
_cell_angle_beta 90.000000
_cell_angle_gamma 90.000000
_cell_volume 4689.466495
_symmetry_space_group_name_H-M "C M C A"
_symmetry_group_IT_number 64
_symmetry_cell_setting 'orthorhombic'
loop_
_space_group_symop_operation_xyz
x,y,z
-x,1/2-y,1/2+z
x,-y,-z
-x,1/2+y,1/2-z
-x,-y,-z
x,1/2+y,1/2-z
-x,y,z
x,1/2-y,1/2+z
1/2+x,1/2+y,z
1/2-x,-y,1/2+z
1/2+x,1/2-y,-z
1/2-x,y,1/2-z
1/2-x,1/2-y,-z
1/2+x,y,1/2-z
1/2-x,1/2+y,z
1/2+x,-y,1/2+z
loop_
_atom_site_type_symbol
_atom_site_label
_atom_site_fract_x
_atom_site_fract_y
_atom_site_fract_z
Si Si1 0.717394 0.843482 0.960667
Si Si2 0.099836 0.373557 0.541916
Si Si3 0.312226 0.712925 0.142333
Si Si4 0.899804 0.974955 0.243679
Si Si5 0.000000 0.623067 0.447685
Si Si6 0.000000 0.020013 0.753534
Si Si7 0.172670 0.000000 0.500000
O O1 0.695019 0.804353 0.815652
O O2 0.771445 0.831192 0.943278
O O3 0.697780 0.798913 0.101993
O O4 0.703511 0.929190 0.960516
O O5 0.139405 0.317103 0.587430
O O6 0.100458 0.446316 0.651726
O O7 0.106496 0.409283 0.378034
O O8 0.049093 0.337808 0.551421
O O9 0.950414 0.965691 0.315982
O O10 0.860251 0.978207 0.363741
O O11 0.000000 0.565753 0.309184
O O12 0.000000 0.570402 0.595391
#
# Coordination Sequence:
#
# PCOD9480517 Si02
#       7
#    16  16  16  16   8   8   8
#     4  10  24  40  59  83 115 149 192 231 276 344
#     4   9  16  33  56  81 107 151 188 228 279 342
#     4  10  21  43  59  79 111 155 188 224 292 339
#     4   9  18  29  53  82 116 146 186 232 283 328
#     4   7  12  24  52  80 104 136 193 230 265 330
#     4   7  12  27  44  76 112 149 181 221 276 343
#     4  12  22  37  52  92 118 139 188 250 270 324
#
# _framework density 18.765460999999998
#
# number of rings (size 3 to 8) (size 9 to 14) (size 15 to 20)
#    0.000    2.727    1.818    2.182    2.545    1.818 
#    0.000    0.000    0.000    3.273    0.000    0.000 
#    0.000    0.000    0.000    0.000    0.000    0.000 
#
# Total GULP energy -245237.061170 kJ/mol
# GULP energy per Si atom -5573.569572 kJ/mol
# Density = 1.872275 g / cm^3
# Si number density = 18.765461 Si / 1000 Ang^3
#
#
#
# Elastic Constant Matrix: (Units=GPa)
#
#
# Indices 1 2 3 4 5 6 
#
# 1 124.9326 20.1145 8.2652 0.0000 0.0000 0.0000
# 2 20.1145 38.2377 12.7772 0.0000 0.0000 0.0000
# 3 8.2652 12.7772 45.7068 0.0000 0.0000 0.0000
# 4 0.0000 0.0000 0.0000 12.3496 0.0000 0.0000
# 5 0.0000 0.0000 0.0000 0.0000 10.7031 0.0000
# 6 0.0000 0.0000 0.0000 0.0000 0.0000 19.6880
#
#
#
# Elastic Compliance Matrix: (Units=1/GPa)
#
#
# Indices 1 2 3 4 5 6 
#
# 1 0.008749 -0.004494 -0.000326 0.000000 0.000000 0.000000
# 2 -0.004494 0.031155 -0.007897 0.000000 0.000000 0.000000
# 3 -0.000326 -0.007897 0.024145 0.000000 0.000000 0.000000
# 4 0.000000 0.000000 0.000000 0.080975 0.000000 0.000000
# 5 0.000000 0.000000 0.000000 0.000000 0.093431 0.000000
# 6 0.000000 0.000000 0.000000 0.000000 0.000000 0.050792
#
#
# Mechanical properties :
#
#
# Convention : Reuss Voigt Hill
#
# Bulk Modulus (GPa) = 25.89556 32.35455 29.12505
# Shear Modulus (GPa) = 15.26478 19.72948 17.49713
#
# Velocity S-wave (km/s) = 2.85520 3.24600 3.05685
# Velocity P-wave (km/s) = 4.96982 5.59711 5.29277
#
# Compressibility (1/GPa) = 0.03861666
#
# Stress axis : x y z
#
# Youngs Moduli (GPa) = 114.29413 32.09790 41.41638
#
# Poissons Ratio (x) = 0.14423 0.01350
# Poissons Ratio (y) = 0.51359 0.32705
# Poissons Ratio (z) = 0.03726 0.25347
#
# Static dielectric constant tensor:
#      x y z
#    x 1.673840 0.000000 0.000000 
#    y 0.000000 1.611830 0.000000 
#    z 0.000000 0.000000 1.669520 
# 
# From -- ./inp_files/11113.got.cif
#   From: 2010.05.17/outbox.cif.g08.bks.cpg/sg64_6_cif.got.tgz:11113.got - 2010.06.03 16:29:19.
