data_PCOD9480696
_publ_section_title
;
Structure prediction by ZEFSAII (Michael W. Deem and Ramdas Pophale) SiO2 
 PCOD9480696
Probable space group: C M C A
;
_chemical_formula_sum "Si O2"
_cell_formula_units_Z 96
_cell_length_a 27.831152
_cell_length_b 7.467362
_cell_length_c 20.247829
_cell_angle_alpha 90.000000
_cell_angle_beta 90.000000
_cell_angle_gamma 90.000000
_cell_volume 4208.010870
_symmetry_space_group_name_H-M "C M C A"
_symmetry_group_IT_number 64
_symmetry_cell_setting 'orthorhombic'
loop_
_space_group_symop_operation_xyz
x,y,z
-x,1/2-y,1/2+z
x,-y,-z
-x,1/2+y,1/2-z
-x,-y,-z
x,1/2+y,1/2-z
-x,y,z
x,1/2-y,1/2+z
1/2+x,1/2+y,z
1/2-x,-y,1/2+z
1/2+x,1/2-y,-z
1/2-x,y,1/2-z
1/2-x,1/2-y,-z
1/2+x,y,1/2-z
1/2-x,1/2+y,z
1/2+x,-y,1/2+z
loop_
_atom_site_type_symbol
_atom_site_label
_atom_site_fract_x
_atom_site_fract_y
_atom_site_fract_z
Si Si1 0.345513 0.483481 0.073707
Si Si2 0.192465 0.227838 0.677173
Si Si3 0.444607 0.347769 0.205798
Si Si4 0.941470 0.525312 0.844870
Si Si5 0.445049 0.122925 0.406412
Si Si6 0.693461 0.310997 0.671675
O O1 0.331678 0.643397 0.123833
O O2 0.402732 0.503353 0.065027
O O3 0.329113 0.309318 0.114118
O O4 0.323859 0.500000 0.000000
O O5 0.184862 0.020386 0.661079
O O6 0.249399 0.270980 0.672711
O O7 0.177576 0.263832 0.753311
O O8 0.500000 0.298623 0.219512
O O9 0.422680 0.388635 0.276602
O O10 0.446371 0.533526 0.166500
O O11 0.426259 0.181726 0.161714
O O12 0.929944 0.668360 0.901829
O O13 0.000000 0.526879 0.846284
O O14 0.500000 0.108764 0.432050
#
# Coordination Sequence:
#
# PCOD9480696 Si02
#       6
#    16  16  16  16  16  16
#     4  12  28  44  65 106 144 181 236 288 348 415
#     4  11  21  45  78 108 142 182 226 278 345 423
#     4   9  15  27  49  78 112 151 205 273 334 383
#     4   9  15  27  49  78 112 151 205 273 334 383
#     4  10  22  39  57  80 123 181 231 277 332 399
#     4  11  21  45  78 108 142 182 226 278 345 423
#
# _framework density 22.813631000000001
#
# number of rings (size 3 to 8) (size 9 to 14) (size 15 to 20)
#    0.000    1.667    5.000    1.000    0.000    4.333 
#    0.000    0.000    0.000    0.000    0.000    7.000 
#    0.000    0.000    0.000    0.000    0.000    0.000 
#
# Total GULP energy -267854.780021 kJ/mol
# GULP energy per Si atom -5580.307917 kJ/mol
# Density = 2.276171 g / cm^3
# Si number density = 22.813631 Si / 1000 Ang^3
#
#
#
# Elastic Constant Matrix: (Units=GPa)
#
#
# Indices 1 2 3 4 5 6 
#
# 1 92.1035 18.3045 38.5133 0.0000 0.0000 0.0000
# 2 18.3045 193.9248 61.4048 0.0000 0.0000 0.0000
# 3 38.5133 61.4048 143.4417 0.0000 0.0000 0.0000
# 4 0.0000 0.0000 0.0000 -7.4305 0.0000 0.0000
# 5 0.0000 0.0000 0.0000 0.0000 -6.5431 0.0000
# 6 0.0000 0.0000 0.0000 0.0000 0.0000 24.8150
#
#
#
# Elastic Compliance Matrix: (Units=1/GPa)
#
#
# Indices 1 2 3 4 5 6 
#
# 1 0.012233 -0.000133 -0.003228 0.000000 0.000000 0.000000
# 2 -0.000133 0.005967 -0.002519 0.000000 0.000000 0.000000
# 3 -0.003228 -0.002519 0.008916 0.000000 0.000000 0.000000
# 4 0.000000 0.000000 0.000000 -0.134581 0.000000 0.000000
# 5 0.000000 0.000000 0.000000 0.000000 -0.152834 0.000000
# 6 0.000000 0.000000 0.000000 0.000000 0.000000 0.040298
#
#
# Mechanical properties :
#
#
# Convention : Reuss Voigt Hill
#
# Bulk Modulus (GPa) = 65.11164 73.99060 69.55112
# Shear Modulus (GPa) = -24.61572 22.91810 -0.84881
#
# Velocity S-wave (km/s) = -3.28836 3.17295 -0.61063
# Velocity P-wave (km/s) = 3.76628 6.77691 5.48231
#
# Compressibility (1/GPa) = 0.01535824
#
# Stress axis : x y z
#
# Youngs Moduli (GPa) = 81.74314 167.59806 112.15418
#
# Poissons Ratio (x) = 0.02223 0.36201
# Poissons Ratio (y) = 0.01084 0.28247
# Poissons Ratio (z) = 0.26385 0.42211
#
# Static dielectric constant tensor:
#      x y z
#    x 1.936300 0.000000 0.000000 
#    y 0.000000 1.844950 0.000000 
#    z 0.000000 0.000000 1.839000 
# 
# From -- ./inp_files/18381.got.cif
#   From: 2010.05.17/outbox.cif.g08.bks.cpg/sg64_10_cif.got.tgz:18381.got - 2010.06.03 16:29:19.
