data_PCOD9480634
_publ_section_title
;
Structure prediction by ZEFSAII (Michael W. Deem and Ramdas Pophale) SiO2 
 PCOD9480634
Probable space group: C M C A
;
_chemical_formula_sum "Si O2"
_cell_formula_units_Z 88
_cell_length_a 14.333113
_cell_length_b 22.724126
_cell_length_c 13.905206
_cell_angle_alpha 90.000000
_cell_angle_beta 90.000000
_cell_angle_gamma 90.000000
_cell_volume 4529.029407
_symmetry_space_group_name_H-M "C M C A"
_symmetry_group_IT_number 64
_symmetry_cell_setting 'orthorhombic'
loop_
_space_group_symop_operation_xyz
x,y,z
-x,1/2-y,1/2+z
x,-y,-z
-x,1/2+y,1/2-z
-x,-y,-z
x,1/2+y,1/2-z
-x,y,z
x,1/2-y,1/2+z
1/2+x,1/2+y,z
1/2-x,-y,1/2+z
1/2+x,1/2-y,-z
1/2-x,y,1/2-z
1/2-x,1/2-y,-z
1/2+x,y,1/2-z
1/2-x,1/2+y,z
1/2+x,-y,1/2+z
loop_
_atom_site_type_symbol
_atom_site_label
_atom_site_fract_x
_atom_site_fract_y
_atom_site_fract_z
Si Si1 0.112635 0.019126 0.389088
Si Si2 0.390492 0.649327 0.817267
Si Si3 0.392820 0.259663 0.792578
Si Si4 0.606422 0.151862 0.139178
Si Si5 0.750000 0.445500 0.250000
Si Si6 0.640785 0.259522 0.010474
O O1 0.144262 0.087523 0.381642
O O2 0.000000 0.012370 0.367209
O O3 0.123334 0.000000 0.500000
O O4 0.179836 0.982534 0.318212
O O5 0.500000 0.632041 0.805295
O O6 0.358875 0.694156 0.731605
O O7 0.319364 0.595433 0.813417
O O8 0.382502 0.689868 0.912731
O O9 0.500000 0.255665 0.759517
O O10 0.349459 0.309423 0.724616
O O11 0.391915 0.274001 0.903817
O O12 0.500000 0.139337 0.167697
O O13 0.604952 0.196862 0.049874
O O14 0.750000 0.250000 0.000000
#
# Coordination Sequence:
#
# PCOD9480634 Si02
#       6
#    16  16  16  16   8  16
#     4  10  24  44  68  92 120 169 221 265 311 363
#     4  10  22  38  58  91 127 159 200 253 316 380
#     4   9  18  35  59  83 115 155 189 237 309 371
#     4   9  20  39  59  85 115 151 204 253 300 366
#     4  12  24  42  64  88 124 162 216 264 312 370
#     4  11  21  32  57  92 124 155 195 247 314 377
#
# _framework density 19.430211
#
# number of rings (size 3 to 8) (size 9 to 14) (size 15 to 20)
#    0.000    2.000    0.000    4.364    5.091    3.636 
#    0.000    0.000    0.000    1.091    0.000    0.000 
#    0.000    0.000    0.000    0.000    0.000    0.000 
#
# Total GULP energy -245209.556014 kJ/mol
# GULP energy per Si atom -5572.944455 kJ/mol
# Density = 1.938599 g / cm^3
# Si number density = 19.430211 Si / 1000 Ang^3
#
#
#
# Elastic Constant Matrix: (Units=GPa)
#
#
# Indices 1 2 3 4 5 6 
#
# 1 113.1102 35.6255 14.1907 0.0000 0.0000 0.0000
# 2 35.6255 133.8942 45.4619 0.0000 0.0000 0.0000
# 3 14.1907 45.4619 100.5595 0.0000 0.0000 0.0000
# 4 0.0000 0.0000 0.0000 9.5066 0.0000 0.0000
# 5 0.0000 0.0000 0.0000 0.0000 39.8403 0.0000
# 6 0.0000 0.0000 0.0000 0.0000 0.0000 19.6954
#
#
#
# Elastic Compliance Matrix: (Units=1/GPa)
#
#
# Indices 1 2 3 4 5 6 
#
# 1 0.009654 -0.002488 -0.000238 0.000000 0.000000 0.000000
# 2 -0.002488 0.009464 -0.003928 0.000000 0.000000 0.000000
# 3 -0.000238 -0.003928 0.011753 0.000000 0.000000 0.000000
# 4 0.000000 0.000000 0.000000 0.105190 0.000000 0.000000
# 5 0.000000 0.000000 0.000000 0.000000 0.025100 0.000000
# 6 0.000000 0.000000 0.000000 0.000000 0.000000 0.050773
#
#
# Mechanical properties :
#
#
# Convention : Reuss Voigt Hill
#
# Bulk Modulus (GPa) = 56.92932 59.79112 58.36022
# Shear Modulus (GPa) = 21.63593 30.62751 26.13172
#
# Velocity S-wave (km/s) = 3.34056 3.97455 3.67127
# Velocity P-wave (km/s) = 6.65148 7.20429 6.93340
#
# Compressibility (1/GPa) = 0.01756564
#
# Stress axis : x y z
#
# Youngs Moduli (GPa) = 103.57974 105.66215 85.08119
#
# Poissons Ratio (x) = 0.26290 0.02021
# Poissons Ratio (y) = 0.25772 0.33416
# Poissons Ratio (z) = 0.02461 0.41499
#
# Static dielectric constant tensor:
#      x y z
#    x 1.731520 0.000000 0.000000 
#    y 0.000000 1.710970 0.000000 
#    z 0.000000 0.000000 1.713690 
# 
# From -- ./inp_files/23780.got.cif
#   From: 2010.05.17/outbox.cif.g08.bks.cpg/sg64_12_cif.got.tgz:23780.got - 2010.06.03 16:29:19.
