data_PCOD9480083
_publ_section_title
;
Structure prediction by ZEFSAII (Michael W. Deem and Ramdas Pophale) SiO2 
 PCOD9480083
Probable space group: C M C A
;
_chemical_formula_sum "Si O2"
_cell_formula_units_Z 80
_cell_length_a 8.677914
_cell_length_b 18.556243
_cell_length_c 26.093816
_cell_angle_alpha 90.000000
_cell_angle_beta 90.000000
_cell_angle_gamma 90.000000
_cell_volume 4201.873646
_symmetry_space_group_name_H-M "C M C A"
_symmetry_group_IT_number 64
_symmetry_cell_setting 'orthorhombic'
loop_
_space_group_symop_operation_xyz
x,y,z
-x,1/2-y,1/2+z
x,-y,-z
-x,1/2+y,1/2-z
-x,-y,-z
x,1/2+y,1/2-z
-x,y,z
x,1/2-y,1/2+z
1/2+x,1/2+y,z
1/2-x,-y,1/2+z
1/2+x,1/2-y,-z
1/2-x,y,1/2-z
1/2-x,1/2-y,-z
1/2+x,y,1/2-z
1/2-x,1/2+y,z
1/2+x,-y,1/2+z
loop_
_atom_site_type_symbol
_atom_site_label
_atom_site_fract_x
_atom_site_fract_y
_atom_site_fract_z
Si Si1 0.815616 0.327160 0.904188
Si Si2 0.184561 0.421965 0.804993
Si Si3 0.315160 0.084796 0.499835
Si Si4 0.815673 0.918392 0.194129
Si Si5 0.183883 0.167113 0.598375
O O1 0.780400 0.366900 0.850570
O O2 0.736574 0.249588 0.906739
O O3 0.000000 0.318457 0.907958
O O4 0.756702 0.376545 0.950518
O O5 0.250000 0.397959 0.750000
O O6 0.258241 0.500020 0.816266
O O7 0.000000 0.430581 0.801318
O O8 0.500000 0.092558 0.498619
O O9 0.250161 0.122361 0.550598
O O10 0.277824 0.000000 0.500000
O O11 0.750000 0.898516 0.250000
O O12 0.751768 0.866686 0.150271
O O13 0.000000 0.916955 0.195011
O O14 0.000000 0.162173 0.598816
#
# Coordination Sequence:
#
# PCOD9480083 Si02
#       5
#    16  16  16  16  16
#     4  11  24  41  61  88 123 160 200 247 300 357
#     4  10  21  38  62  90 121 158 200 246 295 350
#     4  11  24  42  65  91 119 155 199 246 298 357
#     4  11  22  39  63  90 122 158 201 248 295 352
#     4  12  25  41  62  88 122 160 199 246 300 356
#
# _framework density 19.039124999999999
#
# number of rings (size 3 to 8) (size 9 to 14) (size 15 to 20)
#    0.000    1.000    0.000    8.400    0.000    8.800 
#    0.000    2.000    0.000    0.000    0.000    0.000 
#    0.000    0.000    0.000    0.000    0.000    0.000 
#
# Total GULP energy -223877.821252 kJ/mol
# GULP energy per Si atom -5596.945531 kJ/mol
# Density = 1.899579 g / cm^3
# Si number density = 19.039125 Si / 1000 Ang^3
#
#
#
# Elastic Constant Matrix: (Units=GPa)
#
#
# Indices 1 2 3 4 5 6 
#
# 1 69.0471 28.9006 32.4540 0.0000 0.0000 0.0000
# 2 28.9006 94.3237 69.9747 0.0000 0.0000 0.0000
# 3 32.4540 69.9747 113.8554 0.0000 0.0000 0.0000
# 4 0.0000 0.0000 0.0000 153.1534 0.0000 0.0000
# 5 0.0000 0.0000 0.0000 0.0000 162.0689 0.0000
# 6 0.0000 0.0000 0.0000 0.0000 0.0000 37.9115
#
#
#
# Elastic Compliance Matrix: (Units=1/GPa)
#
#
# Indices 1 2 3 4 5 6 
#
# 1 0.017172 -0.002996 -0.003053 0.000000 0.000000 0.000000
# 2 -0.002996 0.020009 -0.011443 0.000000 0.000000 0.000000
# 3 -0.003053 -0.011443 0.016686 0.000000 0.000000 0.000000
# 4 0.000000 0.000000 0.000000 0.006529 0.000000 0.000000
# 5 0.000000 0.000000 0.000000 0.000000 0.006170 0.000000
# 6 0.000000 0.000000 0.000000 0.000000 0.000000 0.026377
#
#
# Mechanical properties :
#
#
# Convention : Reuss Voigt Hill
#
# Bulk Modulus (GPa) = 52.96155 59.98720 56.47438
# Shear Modulus (GPa) = 37.25090 80.35323 58.80207
#
# Velocity S-wave (km/s) = 4.42808 6.50353 5.56344
# Velocity P-wave (km/s) = 7.34993 9.37925 8.42591
#
# Compressibility (1/GPa) = 0.01888162
#
# Stress axis : x y z
#
# Youngs Moduli (GPa) = 58.23369 49.97675 59.92883
#
# Poissons Ratio (x) = 0.14975 0.18298
# Poissons Ratio (y) = 0.17449 0.68579
# Poissons Ratio (z) = 0.17780 0.57191
#
# Static dielectric constant tensor:
#      x y z
#    x 1.635850 0.000000 0.000000 
#    y 0.000000 1.626580 0.000000 
#    z 0.000000 0.000000 1.634670 
# 
# From -- ./inp_files/47900.got.cif
#   From: 2010.05.17/outbox.cif.g08.bks.cpg/sg64_24_cif.got.tgz:47900.got - 2010.06.03 16:29:19.
