data_PCOD9480968
_publ_section_title
;
Structure prediction by ZEFSAII (Michael W. Deem and Ramdas Pophale) SiO2 
 PCOD9480968
Probable space group: C M C A
;
_chemical_formula_sum "Si O2"
_cell_formula_units_Z 88
_cell_length_a 20.865707
_cell_length_b 21.308365
_cell_length_c 9.677364
_cell_angle_alpha 90.000000
_cell_angle_beta 90.000000
_cell_angle_gamma 90.000000
_cell_volume 4302.692492
_symmetry_space_group_name_H-M "C M C A"
_symmetry_group_IT_number 64
_symmetry_cell_setting 'orthorhombic'
loop_
_space_group_symop_operation_xyz
x,y,z
-x,1/2-y,1/2+z
x,-y,-z
-x,1/2+y,1/2-z
-x,-y,-z
x,1/2+y,1/2-z
-x,y,z
x,1/2-y,1/2+z
1/2+x,1/2+y,z
1/2-x,-y,1/2+z
1/2+x,1/2-y,-z
1/2-x,y,1/2-z
1/2-x,1/2-y,-z
1/2+x,y,1/2-z
1/2-x,1/2+y,z
1/2+x,-y,1/2+z
loop_
_atom_site_type_symbol
_atom_site_label
_atom_site_fract_x
_atom_site_fract_y
_atom_site_fract_z
Si Si1 0.250000 0.102518 0.750000
Si Si2 0.622071 0.448882 0.111092
Si Si3 0.391484 0.698062 0.352721
Si Si4 0.500000 0.482718 0.284743
Si Si5 0.739913 0.823260 0.975708
Si Si6 0.615062 0.176122 0.461764
Si Si7 0.500000 0.891219 0.964556
O O1 0.313894 0.067357 0.698071
O O2 0.226427 0.144726 0.622142
O O3 0.565056 0.478573 0.198995
O O4 0.642469 0.500000 0.000000
O O5 0.591832 0.386991 0.036841
O O6 0.319736 0.671168 0.374627
O O7 0.409294 0.697271 0.189663
O O8 0.391545 0.766227 0.429016
O O9 0.439303 0.652382 0.433118
O O10 0.500000 0.548409 0.365140
O O11 0.500000 0.422462 0.385662
O O12 0.810732 0.843562 0.934040
O O13 0.750000 0.750000 0.000000
#
# Coordination Sequence:
#
# PCOD9480968 Si02
#       7
#     8  16  16   8  16  16   8
#     4  10  22  42  62 104 134 176 236 278 348 396
#     4  11  24  46  69  97 137 183 234 280 346 412
#     4  11  23  40  63  98 137 168 229 278 336 407
#     4  11  25  47  73  92 134 184 230 279 346 416
#     4   9  20  34  66  90 135 169 218 274 342 402
#     4  10  24  39  68  99 131 177 223 281 347 397
#     4  11  26  43  67 100 130 177 228 272 348 401
#
# _framework density 20.452310000000001
#
# number of rings (size 3 to 8) (size 9 to 14) (size 15 to 20)
#    0.000    1.636    0.000    3.000   17.818    2.182 
#   16.364    0.000    0.000    0.000    0.000    0.000 
#    0.000    0.000    0.000    0.000    0.000    0.000 
#
# Total GULP energy -245441.369408 kJ/mol
# GULP energy per Si atom -5578.212941 kJ/mol
# Density = 2.040576 g / cm^3
# Si number density = 20.452310 Si / 1000 Ang^3
#
#
#
# Elastic Constant Matrix: (Units=GPa)
#
#
# Indices 1 2 3 4 5 6 
#
# 1 72.6293 16.6272 12.9312 0.0000 0.0000 0.0000
# 2 16.6272 81.4593 33.0288 0.0000 0.0000 0.0000
# 3 12.9312 33.0288 104.0124 0.0000 0.0000 0.0000
# 4 0.0000 0.0000 0.0000 34.2190 0.0000 0.0000
# 5 0.0000 0.0000 0.0000 0.0000 28.2100 0.0000
# 6 0.0000 0.0000 0.0000 0.0000 0.0000 36.4203
#
#
#
# Elastic Compliance Matrix: (Units=1/GPa)
#
#
# Indices 1 2 3 4 5 6 
#
# 1 0.014532 -0.002564 -0.000993 0.000000 0.000000 0.000000
# 2 -0.002564 0.014543 -0.004299 0.000000 0.000000 0.000000
# 3 -0.000993 -0.004299 0.011103 0.000000 0.000000 0.000000
# 4 0.000000 0.000000 0.000000 0.029224 0.000000 0.000000
# 5 0.000000 0.000000 0.000000 0.000000 0.035448 0.000000
# 6 0.000000 0.000000 0.000000 0.000000 0.000000 0.027457
#
#
# Mechanical properties :
#
#
# Convention : Reuss Voigt Hill
#
# Bulk Modulus (GPa) = 40.87231 42.58615 41.72923
# Shear Modulus (GPa) = 32.01571 32.80413 32.40992
#
# Velocity S-wave (km/s) = 3.96079 4.00926 3.98509
# Velocity P-wave (km/s) = 6.39880 6.50381 6.45152
#
# Compressibility (1/GPa) = 0.02446644
#
# Stress axis : x y z
#
# Youngs Moduli (GPa) = 68.81266 68.76373 90.06708
#
# Poissons Ratio (x) = 0.17630 0.08940
# Poissons Ratio (y) = 0.17642 0.38722
# Poissons Ratio (z) = 0.06830 0.29563
#
# Static dielectric constant tensor:
#      x y z
#    x 1.793790 0.000000 0.000000 
#    y 0.000000 1.703270 0.000000 
#    z 0.000000 0.000000 1.719360 
# 
# From -- ./inp_files/8273.got.cif
#   From: 2010.05.17/outbox.cif.g08.bks.cpg/sg64_5_cif.got.tgz:8273.got - 2010.06.03 16:29:19.
