data_PCOD9480764
_publ_section_title
;
Structure prediction by ZEFSAII (Michael W. Deem and Ramdas Pophale) SiO2 
 PCOD9480764
Probable space group: C M C A
;
_chemical_formula_sum "Si O2"
_cell_formula_units_Z 88
_cell_length_a 14.052708
_cell_length_b 14.819505
_cell_length_c 22.220899
_cell_angle_alpha 90.000000
_cell_angle_beta 90.000000
_cell_angle_gamma 90.000000
_cell_volume 4627.595022
_symmetry_space_group_name_H-M "C M C A"
_symmetry_group_IT_number 64
_symmetry_cell_setting 'orthorhombic'
loop_
_space_group_symop_operation_xyz
x,y,z
-x,1/2-y,1/2+z
x,-y,-z
-x,1/2+y,1/2-z
-x,-y,-z
x,1/2+y,1/2-z
-x,y,z
x,1/2-y,1/2+z
1/2+x,1/2+y,z
1/2-x,-y,1/2+z
1/2+x,1/2-y,-z
1/2-x,y,1/2-z
1/2-x,1/2-y,-z
1/2+x,y,1/2-z
1/2-x,1/2+y,z
1/2+x,-y,1/2+z
loop_
_atom_site_type_symbol
_atom_site_label
_atom_site_fract_x
_atom_site_fract_y
_atom_site_fract_z
Si Si1 0.390285 0.392864 0.987969
Si Si2 0.819838 0.166007 0.142644
Si Si3 0.500000 0.044665 0.790396
Si Si4 0.289145 0.507632 0.686168
Si Si5 0.500000 0.650957 0.825637
Si Si6 0.300275 0.340383 0.106701
Si Si7 0.500000 0.248427 0.292383
O O1 0.500000 0.363914 0.997887
O O2 0.319253 0.347300 0.035659
O O3 0.386011 0.500000 0.000000
O O4 0.362174 0.371017 0.919939
O O5 0.751727 0.249687 0.127076
O O6 0.906236 0.199395 0.184292
O O7 0.761877 0.086577 0.174252
O O8 0.597579 0.998588 0.808946
O O9 0.500000 0.063570 0.718452
O O10 0.500000 0.147565 0.816201
O O11 0.250000 0.545701 0.750000
O O12 0.260390 0.576781 0.633628
O O13 0.404691 0.651724 0.863844
O O14 0.500000 0.734829 0.779103
#
# Coordination Sequence:
#
# PCOD9480764 Si02
#       7
#    16  16   8  16   8  16   8
#     4  11  23  43  68  95 126 174 234 284 337 400
#     4  12  26  41  69  97 134 183 227 276 342 407
#     4  10  22  44  65  94 141 178 215 266 338 414
#     4  12  25  40  69 100 134 176 221 271 342 402
#     4  10  22  39  70  97 132 180 218 274 337 403
#     4  12  23  44  67  96 136 176 223 286 335 400
#     4  10  22  41  67  94 137 177 224 264 334 411
#
# _framework density 19.016356999999999
#
# number of rings (size 3 to 8) (size 9 to 14) (size 15 to 20)
#    0.545    0.182    7.273    0.545    2.545    2.182 
#    0.000    0.000    0.000    1.091    0.000    0.000 
#    0.000    0.000    0.000    0.000    0.000    0.000 
#
# Total GULP energy -245934.564206 kJ/mol
# GULP energy per Si atom -5589.421914 kJ/mol
# Density = 1.897308 g / cm^3
# Si number density = 19.016357 Si / 1000 Ang^3
#
#
#
# Elastic Constant Matrix: (Units=GPa)
#
#
# Indices 1 2 3 4 5 6 
#
# 1 109.3154 2.6978 12.7985 0.0000 0.0000 0.0000
# 2 2.6978 46.1515 -10.6240 0.0000 0.0000 0.0000
# 3 12.7985 -10.6240 64.5714 0.0000 0.0000 0.0000
# 4 0.0000 0.0000 0.0000 26.9281 0.0000 0.0000
# 5 0.0000 0.0000 0.0000 0.0000 27.3663 0.0000
# 6 0.0000 0.0000 0.0000 0.0000 0.0000 35.7596
#
#
#
# Elastic Compliance Matrix: (Units=1/GPa)
#
#
# Indices 1 2 3 4 5 6 
#
# 1 0.009411 -0.001018 -0.002033 0.000000 0.000000 0.000000
# 2 -0.001018 0.022631 0.003925 0.000000 0.000000 0.000000
# 3 -0.002033 0.003925 0.016535 0.000000 0.000000 0.000000
# 4 0.000000 0.000000 0.000000 0.037136 0.000000 0.000000
# 5 0.000000 0.000000 0.000000 0.000000 0.036541 0.000000
# 6 0.000000 0.000000 0.000000 0.000000 0.000000 0.027965
#
#
# Mechanical properties :
#
#
# Convention : Reuss Voigt Hill
#
# Bulk Modulus (GPa) = 19.87039 25.53142 22.70091
# Shear Modulus (GPa) = 30.25795 32.35518 31.30656
#
# Velocity S-wave (km/s) = 3.99325 4.12933 4.06186
# Velocity P-wave (km/s) = 5.63323 6.01584 5.82767
#
# Compressibility (1/GPa) = 0.05032613
#
# Stress axis : x y z
#
# Youngs Moduli (GPa) = 106.25897 44.18738 60.47601
#
# Poissons Ratio (x) = 0.04499 0.12294
# Poissons Ratio (y) = 0.10818 -0.23739
# Poissons Ratio (z) = 0.21601 -0.17345
#
# Static dielectric constant tensor:
#      x y z
#    x 1.626520 0.000000 0.000000 
#    y 0.000000 1.651930 0.000000 
#    z 0.000000 0.000000 1.655730 
# 
# From -- ./inp_files/45116.got.cif
#   From: 2010.05.17/outbox.cif.g08.bks.cpg/sg64_23_cif.got.tgz:45116.got - 2010.06.03 16:29:19.
