data_PCOD9480365
_publ_section_title
;
Structure prediction by ZEFSAII (Michael W. Deem and Ramdas Pophale) SiO2 
 PCOD9480365
Probable space group: C M C A
;
_chemical_formula_sum "Si O2"
_cell_formula_units_Z 112
_cell_length_a 16.318396
_cell_length_b 30.120313
_cell_length_c 11.040565
_cell_angle_alpha 90.000000
_cell_angle_beta 90.000000
_cell_angle_gamma 90.000000
_cell_volume 5426.605461
_symmetry_space_group_name_H-M "C M C A"
_symmetry_group_IT_number 64
_symmetry_cell_setting 'orthorhombic'
loop_
_space_group_symop_operation_xyz
x,y,z
-x,1/2-y,1/2+z
x,-y,-z
-x,1/2+y,1/2-z
-x,-y,-z
x,1/2+y,1/2-z
-x,y,z
x,1/2-y,1/2+z
1/2+x,1/2+y,z
1/2-x,-y,1/2+z
1/2+x,1/2-y,-z
1/2-x,y,1/2-z
1/2-x,1/2-y,-z
1/2+x,y,1/2-z
1/2-x,1/2+y,z
1/2+x,-y,1/2+z
loop_
_atom_site_type_symbol
_atom_site_label
_atom_site_fract_x
_atom_site_fract_y
_atom_site_fract_z
Si Si1 0.697419 0.798460 0.374664
Si Si2 0.827022 0.898875 0.651426
Si Si3 0.907295 0.449620 0.044676
Si Si4 0.697914 0.700683 0.374885
Si Si5 0.659801 0.967757 0.302406
Si Si6 0.091754 0.439902 0.646355
Si Si7 0.596565 0.383579 0.063981
O O1 0.750000 0.802657 0.250000
O O2 0.656578 0.749341 0.376193
O O3 0.751551 0.801179 0.498335
O O4 0.635134 0.838972 0.385910
O O5 0.750000 0.904351 0.750000
O O6 0.833420 0.921137 0.517820
O O7 0.845018 0.846952 0.635187
O O8 0.898647 0.926537 0.715090
O O9 0.000000 0.432139 0.022618
O O10 0.900761 0.500000 0.000000
O O11 0.896764 0.455805 0.188115
O O12 0.750000 0.702263 0.250000
O O13 0.750000 0.969251 0.250000
O O14 0.642603 0.926922 0.388726
O O15 0.642695 0.015096 0.364240
O O16 0.109925 0.393303 0.578574
O O17 0.000000 0.452092 0.610484
O O18 0.500000 0.384761 0.089961
#
# Coordination Sequence:
#
# PCOD9480365 Si02
#       7
#    16  16  16  16  16  16  16
#     4  10  21  40  66  93 125 165 210 260 324 379
#     4  11  22  37  64  94 120 160 216 265 309 382
#     4  11  24  41  60  86 129 170 204 258 325 377
#     4   9  20  39  65  95 125 159 208 269 317 374
#     4  12  26  39  62  90 123 165 216 263 306 380
#     4  11  23  42  62  85 124 167 206 255 315 375
#     4  11  24  40  62  90 128 166 204 255 320 387
#
# _framework density 20.639054000000002
#
# number of rings (size 3 to 8) (size 9 to 14) (size 15 to 20)
#    0.000    1.286    1.429    4.714    6.000    1.143 
#    0.000    1.429    0.000    7.714    0.000    0.000 
#    0.000    0.000    0.000    0.000    0.000    0.000 
#
# Total GULP energy -311826.359610 kJ/mol
# GULP energy per Si atom -5568.327850 kJ/mol
# Density = 2.059208 g / cm^3
# Si number density = 20.639054 Si / 1000 Ang^3
#
#
#
# Elastic Constant Matrix: (Units=GPa)
#
#
# Indices 1 2 3 4 5 6 
#
# 1 83.9385 47.7685 12.9179 0.0000 0.0000 0.0000
# 2 47.7685 168.0758 8.5613 0.0000 0.0000 0.0000
# 3 12.9179 8.5613 76.8135 0.0000 0.0000 0.0000
# 4 0.0000 0.0000 0.0000 41.4397 0.0000 0.0000
# 5 0.0000 0.0000 0.0000 0.0000 41.1893 0.0000
# 6 0.0000 0.0000 0.0000 0.0000 0.0000 32.0830
#
#
#
# Elastic Compliance Matrix: (Units=1/GPa)
#
#
# Indices 1 2 3 4 5 6 
#
# 1 0.014509 -0.004022 -0.001992 0.000000 0.000000 0.000000
# 2 -0.004022 0.007099 -0.000115 0.000000 0.000000 0.000000
# 3 -0.001992 -0.000115 0.013366 0.000000 0.000000 0.000000
# 4 0.000000 0.000000 0.000000 0.024131 0.000000 0.000000
# 5 0.000000 0.000000 0.000000 0.000000 0.024278 0.000000
# 6 0.000000 0.000000 0.000000 0.000000 0.000000 0.031169
#
#
# Mechanical properties :
#
#
# Convention : Reuss Voigt Hill
#
# Bulk Modulus (GPa) = 44.02048 51.92479 47.97264
# Shear Modulus (GPa) = 37.20733 40.24773 38.72753
#
# Velocity S-wave (km/s) = 4.25050 4.42076 4.33647
# Velocity P-wave (km/s) = 6.74270 7.16035 6.95466
#
# Compressibility (1/GPa) = 0.02271670
#
# Stress axis : x y z
#
# Youngs Moduli (GPa) = 68.92302 140.87169 74.81505
#
# Poissons Ratio (x) = 0.56660 0.14901
# Poissons Ratio (y) = 0.27722 0.00859
# Poissons Ratio (z) = 0.13728 0.01617
#
# Static dielectric constant tensor:
#      x y z
#    x 1.710560 0.000000 0.000000 
#    y 0.000000 1.718490 0.000000 
#    z 0.000000 0.000000 2.011330 
# 
# From -- ./inp_files/15007.got.cif
#   From: 2010.05.17/outbox.cif.g08.bks.cpg/sg64_8_cif.got.tgz:15007.got - 2010.06.03 16:29:19.
