data_PCOD9480601
_publ_section_title
;
Structure prediction by ZEFSAII (Michael W. Deem and Ramdas Pophale) SiO2 
 PCOD9480601
Probable space group: C M C A
;
_chemical_formula_sum "Si O2"
_cell_formula_units_Z 112
_cell_length_a 13.326469
_cell_length_b 13.937893
_cell_length_c 24.153146
_cell_angle_alpha 90.000000
_cell_angle_beta 90.000000
_cell_angle_gamma 90.000000
_cell_volume 4486.275358
_symmetry_space_group_name_H-M "C M C A"
_symmetry_group_IT_number 64
_symmetry_cell_setting 'orthorhombic'
loop_
_space_group_symop_operation_xyz
x,y,z
-x,1/2-y,1/2+z
x,-y,-z
-x,1/2+y,1/2-z
-x,-y,-z
x,1/2+y,1/2-z
-x,y,z
x,1/2-y,1/2+z
1/2+x,1/2+y,z
1/2-x,-y,1/2+z
1/2+x,1/2-y,-z
1/2-x,y,1/2-z
1/2-x,1/2-y,-z
1/2+x,y,1/2-z
1/2-x,1/2+y,z
1/2+x,-y,1/2+z
loop_
_atom_site_type_symbol
_atom_site_label
_atom_site_fract_x
_atom_site_fract_y
_atom_site_fract_z
Si Si1 0.388193 0.903908 0.171174
Si Si2 0.123346 0.556820 0.389490
Si Si3 0.893751 0.609295 0.018654
Si Si4 0.180573 0.308758 0.878794
Si Si5 0.110917 0.512684 0.270964
Si Si6 0.735136 0.617027 0.930670
Si Si7 0.366593 0.228812 0.245913
O O1 0.500000 0.931327 0.152264
O O2 0.318315 0.890480 0.118486
O O3 0.398817 0.811511 0.211821
O O4 0.337961 0.980003 0.214222
O O5 0.203593 0.646223 0.380211
O O6 0.136240 0.492193 0.333726
O O7 0.170319 0.481319 0.433562
O O8 0.000000 0.576644 0.395252
O O9 0.796018 0.643119 0.985967
O O10 0.000000 0.657213 0.003401
O O11 0.899266 0.500000 0.000000
O O12 0.878574 0.615177 0.084241
O O13 0.173658 0.210252 0.912911
O O14 0.125886 0.284060 0.820624
O O15 0.104610 0.626584 0.269431
O O16 0.000000 0.470960 0.263746
O O17 0.250000 0.241390 0.250000
#
# Coordination Sequence:
#
# PCOD9480601 Si02
#       7
#    16  16  16  16  16  16  16
#     4  11  24  40  66 102 138 181 233 285 349 420
#     4  11  24  43  67 102 143 184 234 291 354 428
#     4  11  26  48  72  99 133 176 236 296 349 416
#     4  12  25  44  71 100 139 188 229 288 356 422
#     4  10  22  37  59  91 133 180 224 273 342 414
#     4  12  24  45  73  97 139 184 235 291 355 414
#     4  12  22  38  64  99 139 176 223 281 341 412
#
# _framework density 24.965031
#
# number of rings (size 3 to 8) (size 9 to 14) (size 15 to 20)
#    0.000    0.714    4.286    3.000    0.000    4.000 
#    0.000    1.429    0.000    0.857    0.000    0.000 
#    0.000    0.000    0.000    0.000    0.000    0.000 
#
# Total GULP energy -312059.130474 kJ/mol
# GULP energy per Si atom -5572.484473 kJ/mol
# Density = 2.490821 g / cm^3
# Si number density = 24.965031 Si / 1000 Ang^3
#
#
#
# Elastic Constant Matrix: (Units=GPa)
#
#
# Indices 1 2 3 4 5 6 
#
# 1 99.3968 -7.1764 12.8642 0.0000 0.0000 0.0000
# 2 -7.1764 86.7036 -0.7028 0.0000 0.0000 0.0000
# 3 12.8642 -0.7028 101.6025 0.0000 0.0000 0.0000
# 4 0.0000 0.0000 0.0000 30.0175 0.0000 0.0000
# 5 0.0000 0.0000 0.0000 0.0000 -17.3673 0.0000
# 6 0.0000 0.0000 0.0000 0.0000 0.0000 8.0336
#
#
#
# Elastic Compliance Matrix: (Units=1/GPa)
#
#
# Indices 1 2 3 4 5 6 
#
# 1 0.010289 0.000841 -0.001297 0.000000 0.000000 0.000000
# 2 0.000841 0.011603 -0.000026 0.000000 0.000000 0.000000
# 3 -0.001297 -0.000026 0.010006 0.000000 0.000000 0.000000
# 4 0.000000 0.000000 0.000000 0.033314 0.000000 0.000000
# 5 0.000000 0.000000 0.000000 0.000000 -0.057580 0.000000
# 6 0.000000 0.000000 0.000000 0.000000 0.000000 0.124478
#
#
# Mechanical properties :
#
#
# Convention : Reuss Voigt Hill
#
# Bulk Modulus (GPa) = 32.32645 33.07477 32.70061
# Shear Modulus (GPa) = 34.87092 22.98461 28.92777
#
# Velocity S-wave (km/s) = 3.74142 3.03755 3.40771
# Velocity P-wave (km/s) = 5.62504 5.05762 5.34886
#
# Compressibility (1/GPa) = 0.03093442
#
# Stress axis : x y z
#
# Youngs Moduli (GPa) = 97.18861 86.18495 99.93703
#
# Poissons Ratio (x) = -0.07249 0.12961
# Poissons Ratio (y) = -0.08175 0.00262
# Poissons Ratio (z) = 0.12605 0.00226
#
# Static dielectric constant tensor:
#      x y z
#    x 2.002180 0.000000 0.000000 
#    y 0.000000 2.020360 0.000000 
#    z 0.000000 0.000000 2.087000 
# 
# From -- ./inp_files/45284.got.cif
#   From: 2010.05.17/outbox.cif.g08.bks.cpg/sg64_23_cif.got.tgz:45284.got - 2010.06.03 16:29:19.
