data_PCOD9480454
_publ_section_title
;
Structure prediction by ZEFSAII (Michael W. Deem and Ramdas Pophale) SiO2 
 PCOD9480454
Probable space group: C M C A
;
_chemical_formula_sum "Si O2"
_cell_formula_units_Z 68
_cell_length_a 7.865671
_cell_length_b 20.548237
_cell_length_c 19.699541
_cell_angle_alpha 90.000000
_cell_angle_beta 90.000000
_cell_angle_gamma 90.000000
_cell_volume 3183.951550
_symmetry_space_group_name_H-M "C M C A"
_symmetry_group_IT_number 64
_symmetry_cell_setting 'orthorhombic'
loop_
_space_group_symop_operation_xyz
x,y,z
-x,1/2-y,1/2+z
x,-y,-z
-x,1/2+y,1/2-z
-x,-y,-z
x,1/2+y,1/2-z
-x,y,z
x,1/2-y,1/2+z
1/2+x,1/2+y,z
1/2-x,-y,1/2+z
1/2+x,1/2-y,-z
1/2-x,y,1/2-z
1/2-x,1/2-y,-z
1/2+x,y,1/2-z
1/2-x,1/2+y,z
1/2+x,-y,1/2+z
loop_
_atom_site_type_symbol
_atom_site_label
_atom_site_fract_x
_atom_site_fract_y
_atom_site_fract_z
Si Si1 0.303419 0.782618 0.570314
Si Si2 0.297298 0.170515 0.671738
Si Si3 0.794454 0.523235 0.670830
Si Si4 0.000000 0.000000 0.000000
Si Si5 0.687814 0.924510 0.943646
O O1 0.500000 0.799873 0.568343
O O2 0.250000 0.750000 0.500000
O O3 0.275194 0.728143 0.627047
O O4 0.205049 0.849927 0.579408
O O5 0.500000 0.170958 0.664577
O O6 0.250000 0.180296 0.750000
O O7 0.239915 0.097091 0.653648
O O8 0.750000 0.512547 0.750000
O O9 0.709370 0.471324 0.621662
O O10 0.000000 0.518167 0.659890
O O11 0.153017 0.944777 0.990608
O O12 0.500000 0.932353 0.974390
#
# Coordination Sequence:
#
# PCOD9480454 Si02
#       5
#    16  16  16   4  16
#     4  12  26  45  66  98 138 176 225 280 336 405
#     4  10  22  41  67  97 133 177 223 273 336 399
#     4  10  21  41  67 100 136 174 226 281 331 399
#     4  12  26  48  68  98 136 172 224 278 328 414
#     4  12  26  45  69 100 133 178 225 276 341 397
#
# _framework density 21.357109000000001
#
# number of rings (size 3 to 8) (size 9 to 14) (size 15 to 20)
#    0.000    0.941    2.353    3.882    3.294    3.765 
#    0.000    4.706    0.000    0.000    0.000    0.000 
#    0.000    0.000    0.000    0.000    0.000    0.000 
#
# Total GULP energy -189743.977821 kJ/mol
# GULP energy per Si atom -5580.705230 kJ/mol
# Density = 2.130850 g / cm^3
# Si number density = 21.357109 Si / 1000 Ang^3
#
#
#
# Elastic Constant Matrix: (Units=GPa)
#
#
# Indices 1 2 3 4 5 6 
#
# 1 151.2982 34.3118 11.6098 0.0000 0.0000 0.0000
# 2 34.3118 178.3573 71.0536 0.0000 0.0000 0.0000
# 3 11.6098 71.0536 68.2404 0.0000 0.0000 0.0000
# 4 0.0000 0.0000 0.0000 42.4992 0.0000 0.0000
# 5 0.0000 0.0000 0.0000 0.0000 28.2671 0.0000
# 6 0.0000 0.0000 0.0000 0.0000 0.0000 31.2460
#
#
#
# Elastic Compliance Matrix: (Units=1/GPa)
#
#
# Indices 1 2 3 4 5 6 
#
# 1 0.006916 -0.001473 0.000357 0.000000 0.000000 0.000000
# 2 -0.001473 0.009894 -0.010052 0.000000 0.000000 0.000000
# 3 0.000357 -0.010052 0.025060 0.000000 0.000000 0.000000
# 4 0.000000 0.000000 0.000000 0.023530 0.000000 0.000000
# 5 0.000000 0.000000 0.000000 0.000000 0.035377 0.000000
# 6 0.000000 0.000000 0.000000 0.000000 0.000000 0.032004
#
#
# Mechanical properties :
#
#
# Convention : Reuss Voigt Hill
#
# Bulk Modulus (GPa) = 51.19114 70.20514 60.69814
# Shear Modulus (GPa) = 30.93527 39.13051 35.03289
#
# Velocity S-wave (km/s) = 3.81001 4.28507 4.05450
# Velocity P-wave (km/s) = 6.58605 7.57798 7.09936
#
# Compressibility (1/GPa) = 0.01953463
#
# Stress axis : x y z
#
# Youngs Moduli (GPa) = 144.59123 101.06703 39.90488
#
# Poissons Ratio (x) = 0.14883 -0.01423
# Poissons Ratio (y) = 0.21292 0.40112
# Poissons Ratio (z) = -0.05157 1.01591
#
# Static dielectric constant tensor:
#      x y z
#    x 1.778760 0.000000 0.000000 
#    y 0.000000 1.744490 0.000000 
#    z 0.000000 0.000000 1.877330 
# 
# From -- ./inp_files/36387.got.cif
#   From: 2010.05.17/outbox.cif.g08.bks.cpg/sg64_19_cif.got.tgz:36387.got - 2010.06.03 16:29:19.
