data_PCOD9480262
_publ_section_title
;
Structure prediction by ZEFSAII (Michael W. Deem and Ramdas Pophale) SiO2 
 PCOD9480262
Probable space group: C M C A
;
_chemical_formula_sum "Si O2"
_cell_formula_units_Z 64
_cell_length_a 17.265270
_cell_length_b 9.789819
_cell_length_c 14.498543
_cell_angle_alpha 90.000000
_cell_angle_beta 90.000000
_cell_angle_gamma 90.000000
_cell_volume 2450.599822
_symmetry_space_group_name_H-M "C M C A"
_symmetry_group_IT_number 64
_symmetry_cell_setting 'orthorhombic'
loop_
_space_group_symop_operation_xyz
x,y,z
-x,1/2-y,1/2+z
x,-y,-z
-x,1/2+y,1/2-z
-x,-y,-z
x,1/2+y,1/2-z
-x,y,z
x,1/2-y,1/2+z
1/2+x,1/2+y,z
1/2-x,-y,1/2+z
1/2+x,1/2-y,-z
1/2-x,y,1/2-z
1/2-x,1/2-y,-z
1/2+x,y,1/2-z
1/2-x,1/2+y,z
1/2+x,-y,1/2+z
loop_
_atom_site_type_symbol
_atom_site_label
_atom_site_fract_x
_atom_site_fract_y
_atom_site_fract_z
Si Si1 0.587587 0.739749 0.351328
Si Si2 0.622024 0.536641 0.102845
Si Si3 0.584323 0.173507 0.929391
Si Si4 0.789886 0.980217 0.659034
O O1 0.500000 0.705666 0.323061
O O2 0.593115 0.706842 0.461943
O O3 0.657120 0.648404 0.312149
O O4 0.600228 0.902425 0.339045
O O5 0.586411 0.682842 0.123911
O O6 0.714650 0.558919 0.100158
O O7 0.594755 0.500000 0.000000
O O8 0.500000 0.107990 0.915097
O O9 0.653867 0.081664 0.894131
O O10 0.750000 0.041044 0.750000
#
# Coordination Sequence:
#
# PCOD9480262 Si02
#       4
#    16  16  16  16
#     4  10  21  41  69  96 123 161 213 269 320 373
#     4  10  21  39  65  96 126 160 209 268 324 377
#     4  10  21  41  69  96 123 161 213 269 320 373
#     4  12  25  39  57  91 132 174 217 256 309 378
#
# _framework density 26.116054999999999
#
# number of rings (size 3 to 8) (size 9 to 14) (size 15 to 20)
#    0.000    1.500    0.000    5.250    0.000   13.000 
#    0.000    7.500    0.000    0.000    0.000    0.000 
#    0.000    0.000    0.000    0.000    0.000    0.000 
#
# Total GULP energy -179315.116664 kJ/mol
# GULP energy per Si atom -5603.597396 kJ/mol
# Density = 2.605661 g / cm^3
# Si number density = 26.116055 Si / 1000 Ang^3
#
#
#
# Elastic Constant Matrix: (Units=GPa)
#
#
# Indices 1 2 3 4 5 6 
#
# 1 205.0304 55.7584 21.9156 0.0000 0.0000 0.0000
# 2 55.7584 134.3465 -9.9838 0.0000 0.0000 0.0000
# 3 21.9156 -9.9838 67.3798 0.0000 0.0000 0.0000
# 4 0.0000 0.0000 0.0000 13.9815 0.0000 0.0000
# 5 0.0000 0.0000 0.0000 0.0000 20.7135 0.0000
# 6 0.0000 0.0000 0.0000 0.0000 0.0000 96.6328
#
#
#
# Elastic Compliance Matrix: (Units=1/GPa)
#
#
# Indices 1 2 3 4 5 6 
#
# 1 0.005824 -0.002586 -0.002278 0.000000 0.000000 0.000000
# 2 -0.002586 0.008675 0.002127 0.000000 0.000000 0.000000
# 3 -0.002278 0.002127 0.015897 0.000000 0.000000 0.000000
# 4 0.000000 0.000000 0.000000 0.071523 0.000000 0.000000
# 5 0.000000 0.000000 0.000000 0.000000 0.048278 0.000000
# 6 0.000000 0.000000 0.000000 0.000000 0.000000 0.010348
#
#
# Mechanical properties :
#
#
# Convention : Reuss Voigt Hill
#
# Bulk Modulus (GPa) = 40.12607 60.23745 50.18176
# Shear Modulus (GPa) = 28.68168 48.87000 38.77584
#
# Velocity S-wave (km/s) = 3.31756 4.33050 3.85743
# Velocity P-wave (km/s) = 5.48387 6.93684 6.25270
#
# Compressibility (1/GPa) = 0.02492145
#
# Stress axis : x y z
#
# Youngs Moduli (GPa) = 171.69806 115.27428 62.90434
#
# Poissons Ratio (x) = 0.29816 0.14327
# Poissons Ratio (y) = 0.44410 -0.13378
# Poissons Ratio (z) = 0.39106 -0.24515
#
# Static dielectric constant tensor:
#      x y z
#    x 1.980260 0.000000 0.000000 
#    y 0.000000 2.046150 0.000000 
#    z 0.000000 0.000000 2.147860 
# 
# From -- ./inp_files/33866.got.cif
#   From: 2010.05.17/outbox.cif.g08.bks.cpg/sg64_17_cif.got.tgz:33866.got - 2010.06.03 16:29:19.
