data_PCOD9480359
_publ_section_title
;
Structure prediction by ZEFSAII (Michael W. Deem and Ramdas Pophale) SiO2 
 PCOD9480359
Probable space group: C M C A
;
_chemical_formula_sum "Si O2"
_cell_formula_units_Z 72
_cell_length_a 11.006612
_cell_length_b 24.118280
_cell_length_c 13.108619
_cell_angle_alpha 90.000000
_cell_angle_beta 90.000000
_cell_angle_gamma 90.000000
_cell_volume 3479.821210
_symmetry_space_group_name_H-M "C M C A"
_symmetry_group_IT_number 64
_symmetry_cell_setting 'orthorhombic'
loop_
_space_group_symop_operation_xyz
x,y,z
-x,1/2-y,1/2+z
x,-y,-z
-x,1/2+y,1/2-z
-x,-y,-z
x,1/2+y,1/2-z
-x,y,z
x,1/2-y,1/2+z
1/2+x,1/2+y,z
1/2-x,-y,1/2+z
1/2+x,1/2-y,-z
1/2-x,y,1/2-z
1/2-x,1/2-y,-z
1/2+x,y,1/2-z
1/2-x,1/2+y,z
1/2+x,-y,1/2+z
loop_
_atom_site_type_symbol
_atom_site_label
_atom_site_fract_x
_atom_site_fract_y
_atom_site_fract_z
Si Si1 0.866458 0.685591 0.553254
Si Si2 0.693484 0.697500 0.360599
Si Si3 0.642755 0.923239 0.329058
Si Si4 0.864686 0.927221 0.672938
Si Si5 0.745542 0.000000 0.500000
O O1 0.788145 0.687791 0.451831
O O2 0.869958 0.745916 0.604703
O O3 0.826724 0.639109 0.633382
O O4 0.000000 0.668034 0.520698
O O5 0.750000 0.708467 0.250000
O O6 0.628605 0.638416 0.350372
O O7 0.500000 0.925075 0.295052
O O8 0.750000 0.938629 0.250000
O O9 0.663050 0.962693 0.426159
O O10 0.750000 0.933795 0.750000
O O11 0.828546 0.961102 0.571823
O O12 0.000000 0.944578 0.710494
#
# Coordination Sequence:
#
# PCOD9480359 Si02
#       5
#    16  16  16  16   8
#     4  10  21  40  65  95 131 170 213 264 327 392
#     4  10  21  40  65  96 130 167 215 265 327 386
#     4  11  25  45  68  98 132 173 218 270 327 389
#     4  11  25  43  67  97 132 170 218 269 325 384
#     4  12  24  44  66  96 128 176 222 278 312 382
#
# _framework density 20.690718
#
# number of rings (size 3 to 8) (size 9 to 14) (size 15 to 20)
#    0.000    1.333    2.222    2.667    0.000    9.778 
#    0.000    3.333    0.000    0.000    0.000    0.000 
#    0.000    0.000    0.000    0.000    0.000    0.000 
#
# Total GULP energy -200837.698118 kJ/mol
# GULP energy per Si atom -5578.824948 kJ/mol
# Density = 2.064362 g / cm^3
# Si number density = 20.690718 Si / 1000 Ang^3
#
#
#
# Elastic Constant Matrix: (Units=GPa)
#
#
# Indices 1 2 3 4 5 6 
#
# 1 129.5370 24.6395 81.5285 0.0000 0.0000 0.0000
# 2 24.6395 106.3302 47.0967 0.0000 0.0000 0.0000
# 3 81.5285 47.0967 112.0045 0.0000 0.0000 0.0000
# 4 0.0000 0.0000 0.0000 56.1549 0.0000 0.0000
# 5 0.0000 0.0000 0.0000 0.0000 -19.3579 0.0000
# 6 0.0000 0.0000 0.0000 0.0000 0.0000 -44.0375
#
#
#
# Elastic Compliance Matrix: (Units=1/GPa)
#
#
# Indices 1 2 3 4 5 6 
#
# 1 0.014468 0.001612 -0.011209 0.000000 0.000000 0.000000
# 2 0.001612 0.011737 -0.006109 0.000000 0.000000 0.000000
# 3 -0.011209 -0.006109 0.019656 0.000000 0.000000 0.000000
# 4 0.000000 0.000000 0.000000 0.017808 0.000000 0.000000
# 5 0.000000 0.000000 0.000000 0.000000 -0.051658 0.000000
# 6 0.000000 0.000000 0.000000 0.000000 0.000000 -0.022708
#
#
# Mechanical properties :
#
#
# Convention : Reuss Voigt Hill
#
# Bulk Modulus (GPa) = 69.20682 72.71125 70.95904
# Shear Modulus (GPa) = 195.84133 11.52568 103.68351
#
# Velocity S-wave (km/s) = 9.73947 2.36274 7.08660
# Velocity P-wave (km/s) = 12.64900 6.53159 10.06625
#
# Compressibility (1/GPa) = 0.01444944
#
# Stress axis : x y z
#
# Youngs Moduli (GPa) = 69.11760 85.20198 50.87446
#
# Poissons Ratio (x) = -0.13737 0.57027
# Poissons Ratio (y) = -0.11144 0.31078
# Poissons Ratio (z) = 0.77476 0.52048
#
# Static dielectric constant tensor:
#      x y z
#    x 1.761930 0.000000 0.000000 
#    y 0.000000 1.766920 0.000000 
#    z 0.000000 0.000000 1.927470 
# 
# From -- ./inp_files/13096.got.cif
#   From: 2010.05.17/outbox.cif.g08.bks.cpg/sg64_7_cif.got.tgz:13096.got - 2010.06.03 16:29:19.
