data_PCOD9480985
_publ_section_title
;
Structure prediction by ZEFSAII (Michael W. Deem and Ramdas Pophale) SiO2 
 PCOD9480985
Probable space group: C M C A
;
_chemical_formula_sum "Si O2"
_cell_formula_units_Z 116
_cell_length_a 21.780779
_cell_length_b 8.330895
_cell_length_c 25.605348
_cell_angle_alpha 90.000000
_cell_angle_beta 90.000000
_cell_angle_gamma 90.000000
_cell_volume 4646.177014
_symmetry_space_group_name_H-M "C M C A"
_symmetry_group_IT_number 64
_symmetry_cell_setting 'orthorhombic'
loop_
_space_group_symop_operation_xyz
x,y,z
-x,1/2-y,1/2+z
x,-y,-z
-x,1/2+y,1/2-z
-x,-y,-z
x,1/2+y,1/2-z
-x,y,z
x,1/2-y,1/2+z
1/2+x,1/2+y,z
1/2-x,-y,1/2+z
1/2+x,1/2-y,-z
1/2-x,y,1/2-z
1/2-x,1/2-y,-z
1/2+x,y,1/2-z
1/2-x,1/2+y,z
1/2+x,-y,1/2+z
loop_
_atom_site_type_symbol
_atom_site_label
_atom_site_fract_x
_atom_site_fract_y
_atom_site_fract_z
Si Si1 0.929093 0.480399 0.582581
Si Si2 0.366473 0.093668 0.680580
Si Si3 0.111453 0.187410 0.454800
Si Si4 0.500000 0.500000 0.500000
Si Si5 0.759569 0.203935 0.632362
Si Si6 0.136544 0.727349 0.792197
Si Si7 0.740676 0.547058 0.447141
Si Si8 0.572412 0.620456 0.608272
O O1 0.921538 0.555522 0.641002
O O2 0.895512 0.622362 0.551925
O O3 0.906500 0.295253 0.584923
O O4 0.000000 0.476290 0.567733
O O5 0.310805 0.177262 0.648927
O O6 0.377853 0.193391 0.732586
O O7 0.351372 0.916009 0.701235
O O8 0.182247 0.149217 0.466611
O O9 0.055629 0.133919 0.491645
O O10 0.099258 0.053444 0.408256
O O11 0.800919 0.158314 0.681812
O O12 0.767782 0.379026 0.606567
O O13 0.781643 0.113557 0.580467
O O14 0.084745 0.655506 0.830666
O O15 0.775484 0.500000 0.500000
O O16 0.500000 0.601644 0.594728
#
# Coordination Sequence:
#
# PCOD9480985 Si02
#       8
#    16  16  16   4  16  16  16  16
#     4  10  22  42  65  94 135 179 216 269 339 401
#     4  11  25  40  64  97 130 172 224 271 335 409
#     4  12  22  42  71  97 132 174 217 279 341 393
#     4  12  24  40  74 112 124 166 244 280 332 416
#     4  12  24  44  66  92 134 174 214 280 336 396
#     4  11  25  40  64  97 130 172 224 271 335 409
#     4  12  26  44  70  97 128 175 229 279 338 402
#     4  10  22  42  65  94 135 179 216 269 339 401
#
# _framework density 24.966763
#
# number of rings (size 3 to 8) (size 9 to 14) (size 15 to 20)
#    0.000    0.828    6.207    0.828    3.862    1.655 
#    0.000    1.379    0.000    0.000    0.000    0.000 
#    0.000    0.000    0.000    0.000    0.000    0.000 
#
# Total GULP energy -323012.805429 kJ/mol
# GULP energy per Si atom -5569.186300 kJ/mol
# Density = 2.490994 g / cm^3
# Si number density = 24.966763 Si / 1000 Ang^3
#
#
#
# Elastic Constant Matrix: (Units=GPa)
#
#
# Indices 1 2 3 4 5 6 
#
# 1 69.1950 15.3613 16.9405 0.0000 0.0000 0.0000
# 2 15.3613 110.0296 39.6641 0.0000 0.0000 0.0000
# 3 16.9405 39.6641 91.2479 0.0000 0.0000 0.0000
# 4 0.0000 0.0000 0.0000 47.2367 0.0000 0.0000
# 5 0.0000 0.0000 0.0000 0.0000 34.3869 0.0000
# 6 0.0000 0.0000 0.0000 0.0000 0.0000 39.2501
#
#
#
# Elastic Compliance Matrix: (Units=1/GPa)
#
#
# Indices 1 2 3 4 5 6 
#
# 1 0.015300 -0.001319 -0.002267 0.000000 0.000000 0.000000
# 2 -0.001319 0.010891 -0.004489 0.000000 0.000000 0.000000
# 3 -0.002267 -0.004489 0.013331 0.000000 0.000000 0.000000
# 4 0.000000 0.000000 0.000000 0.021170 0.000000 0.000000
# 5 0.000000 0.000000 0.000000 0.000000 0.029081 0.000000
# 6 0.000000 0.000000 0.000000 0.000000 0.000000 0.025478
#
#
# Mechanical properties :
#
#
# Convention : Reuss Voigt Hill
#
# Bulk Modulus (GPa) = 42.78681 46.04492 44.41587
# Shear Modulus (GPa) = 35.92172 37.40852 36.66512
#
# Velocity S-wave (km/s) = 3.79724 3.87503 3.83633
# Velocity P-wave (km/s) = 6.03325 6.20513 6.11979
#
# Compressibility (1/GPa) = 0.02337169
#
# Stress axis : x y z
#
# Youngs Moduli (GPa) = 65.36064 91.81985 75.01033
#
# Poissons Ratio (x) = 0.12108 0.17007
# Poissons Ratio (y) = 0.08619 0.33674
# Poissons Ratio (z) = 0.14819 0.41221
#
# Static dielectric constant tensor:
#      x y z
#    x 1.973630 0.000000 0.000000 
#    y 0.000000 2.039350 0.000000 
#    z 0.000000 0.000000 1.827890 
# 
# From -- ./inp_files/46932.got.cif
#   From: 2010.05.17/outbox.cif.g08.bks.cpg/sg64_24_cif.got.tgz:46932.got - 2010.06.03 16:29:19.
