data_PCOD9480756
_publ_section_title
;
Structure prediction by ZEFSAII (Michael W. Deem and Ramdas Pophale) SiO2 
 PCOD9480756
Probable space group: C M C A
;
_chemical_formula_sum "Si O2"
_cell_formula_units_Z 64
_cell_length_a 23.119713
_cell_length_b 10.316185
_cell_length_c 10.733607
_cell_angle_alpha 90.000000
_cell_angle_beta 90.000000
_cell_angle_gamma 90.000000
_cell_volume 2560.042943
_symmetry_space_group_name_H-M "C M C A"
_symmetry_group_IT_number 64
_symmetry_cell_setting 'orthorhombic'
loop_
_space_group_symop_operation_xyz
x,y,z
-x,1/2-y,1/2+z
x,-y,-z
-x,1/2+y,1/2-z
-x,-y,-z
x,1/2+y,1/2-z
-x,y,z
x,1/2-y,1/2+z
1/2+x,1/2+y,z
1/2-x,-y,1/2+z
1/2+x,1/2-y,-z
1/2-x,y,1/2-z
1/2-x,1/2-y,-z
1/2+x,y,1/2-z
1/2-x,1/2+y,z
1/2+x,-y,1/2+z
loop_
_atom_site_type_symbol
_atom_site_label
_atom_site_fract_x
_atom_site_fract_y
_atom_site_fract_z
Si Si1 0.326960 0.090011 0.621202
Si Si2 0.000000 0.896205 0.372543
Si Si3 0.194704 0.600319 0.887554
Si Si4 0.904213 0.767266 0.970281
Si Si5 0.500000 0.372138 0.811718
O O1 0.261524 0.144578 0.613997
O O2 0.325140 0.031671 0.759164
O O3 0.380094 0.188665 0.603278
O O4 0.332357 0.000000 0.500000
O O5 0.054830 0.858466 0.457610
O O6 0.000000 0.778759 0.270149
O O7 0.000000 0.973680 0.703022
O O8 0.187554 0.500000 0.000000
O O9 0.154163 0.724747 0.901188
O O10 0.943230 0.874698 0.900213
#
# Coordination Sequence:
#
# PCOD9480756 Si02
#       5
#    16   8  16  16   8
#     4  10  22  39  66 107 146 193 251 311 389 457
#     4   8  20  40  68 107 146 199 254 299 382 459
#     4  10  22  41  67 102 146 197 250 312 382 465
#     4   9  21  40  71  98 148 192 247 312 381 455
#     4   8  20  40  68 107 146 201 250 304 380 461
#
# _framework density 24.999580999999999
#
# number of rings (size 3 to 8) (size 9 to 14) (size 15 to 20)
#    1.500    1.000    0.000    0.750    3.500    2.000 
#    0.000   15.000    0.000    0.000    0.000    0.000 
#    0.000    0.000    0.000    0.000    0.000    0.000 
#
# Total GULP energy -178439.005296 kJ/mol
# GULP energy per Si atom -5576.218915 kJ/mol
# Density = 2.494268 g / cm^3
# Si number density = 24.999581 Si / 1000 Ang^3
#
#
#
# Elastic Constant Matrix: (Units=GPa)
#
#
# Indices 1 2 3 4 5 6 
#
# 1 170.0816 45.5744 74.7016 0.0000 0.0000 0.0000
# 2 45.5744 92.7589 61.6978 0.0000 0.0000 0.0000
# 3 74.7016 61.6978 177.5021 0.0000 0.0000 0.0000
# 4 0.0000 0.0000 0.0000 41.5540 0.0000 0.0000
# 5 0.0000 0.0000 0.0000 0.0000 36.2886 0.0000
# 6 0.0000 0.0000 0.0000 0.0000 0.0000 20.3379
#
#
#
# Elastic Compliance Matrix: (Units=1/GPa)
#
#
# Indices 1 2 3 4 5 6 
#
# 1 0.007505 -0.002064 -0.002441 0.000000 0.000000 0.000000
# 2 -0.002064 0.014590 -0.004203 0.000000 0.000000 0.000000
# 3 -0.002441 -0.004203 0.008122 0.000000 0.000000 0.000000
# 4 0.000000 0.000000 0.000000 0.024065 0.000000 0.000000
# 5 0.000000 0.000000 0.000000 0.000000 0.027557 0.000000
# 6 0.000000 0.000000 0.000000 0.000000 0.000000 0.049169
#
#
# Mechanical properties :
#
#
# Convention : Reuss Voigt Hill
#
# Bulk Modulus (GPa) = 78.11519 89.36557 83.74038
# Shear Modulus (GPa) = 32.74609 36.86068 34.80339
#
# Velocity S-wave (km/s) = 3.62313 3.84403 3.73521
# Velocity P-wave (km/s) = 6.98693 7.45161 7.22301
#
# Compressibility (1/GPa) = 0.01280161
#
# Stress axis : x y z
#
# Youngs Moduli (GPa) = 133.25163 68.54005 123.12349
#
# Poissons Ratio (x) = 0.14143 0.30055
# Poissons Ratio (y) = 0.27497 0.51747
# Poissons Ratio (z) = 0.32527 0.28807
#
# Static dielectric constant tensor:
#      x y z
#    x 1.980520 0.000000 0.000000 
#    y 0.000000 2.097940 0.000000 
#    z 0.000000 0.000000 1.997400 
# 
# From -- ./inp_files/10900.got.cif
#   From: 2010.05.17/outbox.cif.g08.bks.cpg/sg64_6_cif.got.tgz:10900.got - 2010.06.03 16:29:19.
