data_PCOD9480079
_publ_section_title
;
Structure prediction by ZEFSAII (Michael W. Deem and Ramdas Pophale) SiO2 
 PCOD9480079
Probable space group: C M C A
;
_chemical_formula_sum "Si O2"
_cell_formula_units_Z 80
_cell_length_a 8.925572
_cell_length_b 25.234605
_cell_length_c 18.605663
_cell_angle_alpha 90.000000
_cell_angle_beta 90.000000
_cell_angle_gamma 90.000000
_cell_volume 4190.614575
_symmetry_space_group_name_H-M "C M C A"
_symmetry_group_IT_number 64
_symmetry_cell_setting 'orthorhombic'
loop_
_space_group_symop_operation_xyz
x,y,z
-x,1/2-y,1/2+z
x,-y,-z
-x,1/2+y,1/2-z
-x,-y,-z
x,1/2+y,1/2-z
-x,y,z
x,1/2-y,1/2+z
1/2+x,1/2+y,z
1/2-x,-y,1/2+z
1/2+x,1/2-y,-z
1/2-x,y,1/2-z
1/2-x,1/2-y,-z
1/2+x,y,1/2-z
1/2-x,1/2+y,z
1/2+x,-y,1/2+z
loop_
_atom_site_type_symbol
_atom_site_label
_atom_site_fract_x
_atom_site_fract_y
_atom_site_fract_z
Si Si1 0.822188 0.896082 0.826339
Si Si2 0.322375 0.806003 0.913372
Si Si3 0.821816 0.817934 0.068071
Si Si4 0.678228 0.595065 0.671354
Si Si5 0.822160 0.987375 0.582249
O O1 0.750000 0.910384 0.750000
O O2 0.759586 0.839626 0.852597
O O3 0.769131 0.939020 0.884691
O O4 0.000000 0.895147 0.820501
O O5 0.500000 0.816196 0.911215
O O6 0.297719 0.742937 0.907450
O O7 0.257000 0.823314 0.990669
O O8 0.752449 0.858774 0.124113
O O9 0.000000 0.826243 0.060389
O O10 0.500000 0.603821 0.676583
O O11 0.750000 0.593273 0.750000
O O12 0.702345 0.539513 0.630312
O O13 0.000000 0.974383 0.584052
O O14 0.781914 0.000000 0.500000
#
# Coordination Sequence:
#
# PCOD9480079 Si02
#       5
#    16  16  16  16  16
#     4  12  25  40  61  88 120 157 197 244 296 350
#     4  10  21  39  62  88 120 156 195 241 292 348
#     4  10  21  38  62  90 119 154 197 243 291 347
#     4  11  23  38  59  86 120 159 196 241 294 349
#     4  10  22  41  64  89 118 153 193 239 293 351
#
# _framework density 19.09028
#
# number of rings (size 3 to 8) (size 9 to 14) (size 15 to 20)
#    0.000    1.400    0.000    5.400    0.000    8.400 
#    0.000    0.000    0.000    0.000    0.000    0.000 
#    0.000    0.000    0.000    0.000    0.000    0.000 
#
# Total GULP energy -223772.515344 kJ/mol
# GULP energy per Si atom -5594.312884 kJ/mol
# Density = 1.904683 g / cm^3
# Si number density = 19.090280 Si / 1000 Ang^3
#
#
#
# Elastic Constant Matrix: (Units=GPa)
#
#
# Indices 1 2 3 4 5 6 
#
# 1 104.7378 49.3647 28.9462 0.0000 0.0000 0.0000
# 2 49.3647 51.2451 16.3115 0.0000 0.0000 0.0000
# 3 28.9462 16.3115 45.3748 0.0000 0.0000 0.0000
# 4 0.0000 0.0000 0.0000 -10.2289 0.0000 0.0000
# 5 0.0000 0.0000 0.0000 0.0000 36.1964 0.0000
# 6 0.0000 0.0000 0.0000 0.0000 0.0000 27.8618
#
#
#
# Elastic Compliance Matrix: (Units=1/GPa)
#
#
# Indices 1 2 3 4 5 6 
#
# 1 0.018930 -0.016251 -0.006234 0.000000 0.000000 0.000000
# 2 -0.016251 0.035987 -0.002570 0.000000 0.000000 0.000000
# 3 -0.006234 -0.002570 0.026939 0.000000 0.000000 0.000000
# 4 0.000000 0.000000 0.000000 -0.097762 0.000000 0.000000
# 5 0.000000 0.000000 0.000000 0.000000 0.027627 0.000000
# 6 0.000000 0.000000 0.000000 0.000000 0.000000 0.035891
#
#
# Mechanical properties :
#
#
# Convention : Reuss Voigt Hill
#
# Bulk Modulus (GPa) = 31.49943 43.40030 37.44986
# Shear Modulus (GPa) = 46.16645 17.88154 32.02400
#
# Velocity S-wave (km/s) = 4.92298 3.06385 4.10018
# Velocity P-wave (km/s) = 6.98930 5.94136 6.48653
#
# Compressibility (1/GPa) = 0.03174661
#
# Stress axis : x y z
#
# Youngs Moduli (GPa) = 52.82648 27.78814 37.12043
#
# Poissons Ratio (x) = 0.45158 0.23141
# Poissons Ratio (y) = 0.85848 0.09538
# Poissons Ratio (z) = 0.32933 0.07140
#
# Static dielectric constant tensor:
#      x y z
#    x 1.634140 0.000000 0.000000 
#    y 0.000000 1.648700 0.000000 
#    z 0.000000 0.000000 1.637670 
# 
# From -- ./inp_files/29731.got.cif
#   From: 2010.05.17/outbox.cif.g08.bks.cpg/sg64_15_cif.got.tgz:29731.got - 2010.06.03 16:29:19.
