data_PCOD9480629
_publ_section_title
;
Structure prediction by ZEFSAII (Michael W. Deem and Ramdas Pophale) SiO2 
 PCOD9480629
Probable space group: C M C A
;
_chemical_formula_sum "Si O2"
_cell_formula_units_Z 72
_cell_length_a 20.458104
_cell_length_b 26.308275
_cell_length_c 7.552852
_cell_angle_alpha 90.000000
_cell_angle_beta 90.000000
_cell_angle_gamma 90.000000
_cell_volume 4065.076562
_symmetry_space_group_name_H-M "C M C A"
_symmetry_group_IT_number 64
_symmetry_cell_setting 'orthorhombic'
loop_
_space_group_symop_operation_xyz
x,y,z
-x,1/2-y,1/2+z
x,-y,-z
-x,1/2+y,1/2-z
-x,-y,-z
x,1/2+y,1/2-z
-x,y,z
x,1/2-y,1/2+z
1/2+x,1/2+y,z
1/2-x,-y,1/2+z
1/2+x,1/2-y,-z
1/2-x,y,1/2-z
1/2-x,1/2-y,-z
1/2+x,y,1/2-z
1/2-x,1/2+y,z
1/2+x,-y,1/2+z
loop_
_atom_site_type_symbol
_atom_site_label
_atom_site_fract_x
_atom_site_fract_y
_atom_site_fract_z
Si Si1 0.075040 0.619764 0.407232
Si Si2 0.615985 0.814630 0.263010
Si Si3 0.750000 0.372761 0.250000
Si Si4 0.925496 0.708441 0.124664
Si Si5 0.794087 0.442879 0.573589
O O1 0.081530 0.648577 0.595329
O O2 0.088541 0.662886 0.259466
O O3 0.132382 0.578244 0.394844
O O4 0.000000 0.601666 0.384707
O O5 0.686895 0.837747 0.228599
O O6 0.618290 0.757940 0.343389
O O7 0.580615 0.810356 0.075209
O O8 0.762103 0.407591 0.421883
O O9 0.000000 0.725485 0.159239
O O10 0.796623 0.500000 0.500000
O O11 0.750000 0.440577 0.750000
#
# Coordination Sequence:
#
# PCOD9480629 Si02
#       5
#    16  16   8  16  16
#     4  10  22  38  58  87 116 149 193 236 278 331
#     4  11  21  35  55  82 116 155 190 225 274 334
#     4  10  24  40  56  84 112 146 192 236 280 336
#     4  11  20  34  55  81 118 155 186 223 272 331
#     4  11  22  42  66  83 110 149 190 238 294 347
#
# _framework density 17.711843999999999
#
# number of rings (size 3 to 8) (size 9 to 14) (size 15 to 20)
#    0.000    1.333    3.333    3.333    0.000    1.333 
#    2.000    0.000    0.000    0.667    0.000    0.000 
#    0.000    0.000    0.000    0.000    0.000    0.000 
#
# Total GULP energy -201038.022229 kJ/mol
# GULP energy per Si atom -5584.389506 kJ/mol
# Density = 1.767153 g / cm^3
# Si number density = 17.711844 Si / 1000 Ang^3
#
#
#
# Elastic Constant Matrix: (Units=GPa)
#
#
# Indices 1 2 3 4 5 6 
#
# 1 111.8731 75.7711 53.5251 0.0000 0.0000 0.0000
# 2 75.7711 107.3360 54.7547 0.0000 0.0000 0.0000
# 3 53.5251 54.7547 105.5454 0.0000 0.0000 0.0000
# 4 0.0000 0.0000 0.0000 18.6115 0.0000 0.0000
# 5 0.0000 0.0000 0.0000 0.0000 25.7407 0.0000
# 6 0.0000 0.0000 0.0000 0.0000 0.0000 25.3393
#
#
#
# Elastic Compliance Matrix: (Units=1/GPa)
#
#
# Indices 1 2 3 4 5 6 
#
# 1 0.018007 -0.010951 -0.003450 0.000000 0.000000 0.000000
# 2 -0.010951 0.019330 -0.004474 0.000000 0.000000 0.000000
# 3 -0.003450 -0.004474 0.013546 0.000000 0.000000 0.000000
# 4 0.000000 0.000000 0.000000 0.053730 0.000000 0.000000
# 5 0.000000 0.000000 0.000000 0.000000 0.038849 0.000000
# 6 0.000000 0.000000 0.000000 0.000000 0.000000 0.039464
#
#
# Mechanical properties :
#
#
# Convention : Reuss Voigt Hill
#
# Bulk Modulus (GPa) = 76.16002 76.98401 76.57202
# Shear Modulus (GPa) = 22.21690 23.31855 22.76772
#
# Velocity S-wave (km/s) = 3.54553 3.63237 3.58921
# Velocity P-wave (km/s) = 7.73653 7.81992 7.77834
#
# Compressibility (1/GPa) = 0.01313025
#
# Stress axis : x y z
#
# Youngs Moduli (GPa) = 55.53460 51.73395 73.82520
#
# Poissons Ratio (x) = 0.56655 0.25473
# Poissons Ratio (y) = 0.60817 0.33030
# Poissons Ratio (z) = 0.19162 0.23146
#
# Static dielectric constant tensor:
#      x y z
#    x 1.601250 0.000000 0.000000 
#    y 0.000000 1.575800 0.000000 
#    z 0.000000 0.000000 1.599520 
# 
# From -- ./inp_files/1840.got.cif
#   From: 2010.05.17/outbox.cif.g08.bks.cpg/sg64_1_cif.got.tgz:1840.got - 2010.06.03 16:29:19.
