data_PCOD9480227
_publ_section_title
;
Structure prediction by ZEFSAII (Michael W. Deem and Ramdas Pophale) SiO2 
 PCOD9480227
Probable space group: C M C A
;
_chemical_formula_sum "Si O2"
_cell_formula_units_Z 96
_cell_length_a 15.372637
_cell_length_b 17.889843
_cell_length_c 18.966841
_cell_angle_alpha 90.000000
_cell_angle_beta 90.000000
_cell_angle_gamma 90.000000
_cell_volume 5216.147995
_symmetry_space_group_name_H-M "C M C A"
_symmetry_group_IT_number 64
_symmetry_cell_setting 'orthorhombic'
loop_
_space_group_symop_operation_xyz
x,y,z
-x,1/2-y,1/2+z
x,-y,-z
-x,1/2+y,1/2-z
-x,-y,-z
x,1/2+y,1/2-z
-x,y,z
x,1/2-y,1/2+z
1/2+x,1/2+y,z
1/2-x,-y,1/2+z
1/2+x,1/2-y,-z
1/2-x,y,1/2-z
1/2-x,1/2-y,-z
1/2+x,y,1/2-z
1/2-x,1/2+y,z
1/2+x,-y,1/2+z
loop_
_atom_site_type_symbol
_atom_site_label
_atom_site_fract_x
_atom_site_fract_y
_atom_site_fract_z
Si Si1 0.500000 0.222780 0.799772
Si Si2 0.000000 0.376906 0.435374
Si Si3 0.835510 0.529206 0.297799
Si Si4 0.000000 0.769629 0.466413
Si Si5 0.831357 0.702687 0.301629
Si Si6 0.189720 0.442329 0.441366
Si Si7 0.806357 0.296702 0.055331
Si Si8 0.000000 0.429500 0.271529
O O1 0.500000 0.249767 0.881867
O O2 0.586830 0.255970 0.766883
O O3 0.500000 0.134245 0.788061
O O4 0.908949 0.414897 0.458391
O O5 0.000000 0.297253 0.476080
O O6 0.000000 0.387167 0.349055
O O7 0.750000 0.526682 0.250000
O O8 0.855719 0.616081 0.313197
O O9 0.814855 0.487612 0.369689
O O10 0.916280 0.482994 0.266442
O O11 0.094551 0.808767 0.472094
O O12 0.750000 0.705662 0.250000
O O13 0.810924 0.747463 0.373328
O O14 0.220316 0.500000 0.500000
O O15 0.254339 0.372977 0.433331
O O16 0.750000 0.250000 0.000000
#
# Coordination Sequence:
#
# PCOD9480227 Si02
#       8
#     8   8  16   8  16  16  16   8
#     4  10  23  35  63  89 126 158 199 246 313 376
#     4  10  21  39  63  94 116 153 203 271 301 356
#     4  10  23  40  60  87 125 157 204 254 308 367
#     4  10  22  38  57  90 121 159 206 243 313 360
#     4  10  23  40  62  89 120 163 204 252 305 368
#     4  11  23  38  63  93 123 157 204 259 313 363
#     4  11  22  38  63  87 122 160 204 254 304 373
#     4  10  23  38  62  94 121 157 205 258 311 361
#
# _framework density 18.404385999999999
#
# number of rings (size 3 to 8) (size 9 to 14) (size 15 to 20)
#    0.000    1.667    1.667    1.750   11.667    0.000 
#    0.000    0.417    0.000    4.000    0.000    0.000 
#    0.000    0.000    0.000    0.000    0.000    0.000 
#
# Total GULP energy -267645.784826 kJ/mol
# GULP energy per Si atom -5575.953851 kJ/mol
# Density = 1.836250 g / cm^3
# Si number density = 18.404386 Si / 1000 Ang^3
#
#
#
# Elastic Constant Matrix: (Units=GPa)
#
#
# Indices 1 2 3 4 5 6 
#
# 1 138.3080 78.0385 29.8051 0.0000 0.0000 0.0000
# 2 78.0385 148.5353 40.0398 0.0000 0.0000 0.0000
# 3 29.8051 40.0398 40.5589 0.0000 0.0000 0.0000
# 4 0.0000 0.0000 0.0000 33.3818 0.0000 0.0000
# 5 0.0000 0.0000 0.0000 0.0000 19.0037 0.0000
# 6 0.0000 0.0000 0.0000 0.0000 0.0000 24.1143
#
#
#
# Elastic Compliance Matrix: (Units=1/GPa)
#
#
# Indices 1 2 3 4 5 6 
#
# 1 0.010557 -0.004708 -0.003110 0.000000 0.000000 0.000000
# 2 -0.004708 0.011273 -0.007669 0.000000 0.000000 0.000000
# 3 -0.003110 -0.007669 0.034512 0.000000 0.000000 0.000000
# 4 0.000000 0.000000 0.000000 0.029956 0.000000 0.000000
# 5 0.000000 0.000000 0.000000 0.000000 0.052621 0.000000
# 6 0.000000 0.000000 0.000000 0.000000 0.000000 0.041469
#
#
# Mechanical properties :
#
#
# Convention : Reuss Voigt Hill
#
# Bulk Modulus (GPa) = 39.42049 69.24101 54.33075
# Shear Modulus (GPa) = 22.74589 27.26787 25.00688
#
# Velocity S-wave (km/s) = 3.51934 3.85333 3.69012
# Velocity P-wave (km/s) = 6.16279 7.58295 6.90946
#
# Compressibility (1/GPa) = 0.02536752
#
# Stress axis : x y z
#
# Youngs Moduli (GPa) = 94.72445 88.70477 28.97545
#
# Poissons Ratio (x) = 0.41763 0.09011
# Poissons Ratio (y) = 0.44598 0.22222
# Poissons Ratio (z) = 0.29459 0.68030
#
# Static dielectric constant tensor:
#      x y z
#    x 1.629930 0.000000 0.000000 
#    y 0.000000 1.645980 0.000000 
#    z 0.000000 0.000000 1.539640 
# 
# From -- ./inp_files/39298.got.cif
#   From: 2010.05.17/outbox.cif.g08.bks.cpg/sg64_20_cif.got.tgz:39298.got - 2010.06.03 16:29:19.
