data_PCOD9480951
_publ_section_title
;
Structure prediction by ZEFSAII (Michael W. Deem and Ramdas Pophale) SiO2 
 PCOD9480951
Probable space group: C M C A
;
_chemical_formula_sum "Si O2"
_cell_formula_units_Z 80
_cell_length_a 24.231230
_cell_length_b 17.354227
_cell_length_c 8.581275
_cell_angle_alpha 90.000000
_cell_angle_beta 90.000000
_cell_angle_gamma 90.000000
_cell_volume 3608.548557
_symmetry_space_group_name_H-M "C M C A"
_symmetry_group_IT_number 64
_symmetry_cell_setting 'orthorhombic'
loop_
_space_group_symop_operation_xyz
x,y,z
-x,1/2-y,1/2+z
x,-y,-z
-x,1/2+y,1/2-z
-x,-y,-z
x,1/2+y,1/2-z
-x,y,z
x,1/2-y,1/2+z
1/2+x,1/2+y,z
1/2-x,-y,1/2+z
1/2+x,1/2-y,-z
1/2-x,y,1/2-z
1/2-x,1/2-y,-z
1/2+x,y,1/2-z
1/2-x,1/2+y,z
1/2+x,-y,1/2+z
loop_
_atom_site_type_symbol
_atom_site_label
_atom_site_fract_x
_atom_site_fract_y
_atom_site_fract_z
Si Si1 0.684924 0.667778 0.420628
Si Si2 0.500000 0.334534 0.769549
Si Si3 0.600954 0.055422 0.629080
Si Si4 0.311222 0.839293 0.545487
Si Si5 0.000000 0.838844 0.144088
Si Si6 0.407671 0.439533 0.614350
O O1 0.681332 0.664368 0.232222
O O2 0.675910 0.754673 0.477583
O O3 0.746073 0.644890 0.476655
O O4 0.637791 0.610194 0.475994
O O5 0.500000 0.246696 0.712174
O O6 0.447908 0.380734 0.700981
O O7 0.500000 0.334634 0.956017
O O8 0.649765 0.100998 0.543298
O O9 0.554816 0.114227 0.690375
O O10 0.572875 0.000000 0.500000
O O11 0.620496 0.995530 0.759003
O O12 0.436663 0.500000 0.500000
#
# Coordination Sequence:
#
# PCOD9480951 Si02
#       6
#    16   8  16  16   8  16
#     4  10  22  43  64  96 128 172 224 269 325 397
#     4  12  26  46  68  99 131 175 225 269 329 408
#     4  12  23  44  67  95 133 178 214 275 334 396
#     4  10  22  41  68  92 130 174 221 271 327 391
#     4  12  26  43  72  97 131 178 223 267 333 404
#     4  12  27  43  65  99 137 171 222 278 334 393
#
# _framework density 22.169578000000001
#
# number of rings (size 3 to 8) (size 9 to 14) (size 15 to 20)
#    0.000    0.800    4.000    2.400    5.600    0.800 
#    0.000    0.000    0.000    0.000    0.000    0.000 
#    0.000    0.000    0.000    0.000    0.000    0.000 
#
# Total GULP energy -223778.877147 kJ/mol
# GULP energy per Si atom -5594.471929 kJ/mol
# Density = 2.211912 g / cm^3
# Si number density = 22.169578 Si / 1000 Ang^3
#
#
#
# Elastic Constant Matrix: (Units=GPa)
#
#
# Indices 1 2 3 4 5 6 
#
# 1 117.0340 94.1921 23.9945 0.0000 0.0000 0.0000
# 2 94.1921 152.3667 32.7409 0.0000 0.0000 0.0000
# 3 23.9945 32.7409 28.5407 0.0000 0.0000 0.0000
# 4 0.0000 0.0000 0.0000 52.8465 0.0000 0.0000
# 5 0.0000 0.0000 0.0000 0.0000 12.1077 0.0000
# 6 0.0000 0.0000 0.0000 0.0000 0.0000 79.9859
#
#
#
# Elastic Compliance Matrix: (Units=1/GPa)
#
#
# Indices 1 2 3 4 5 6 
#
# 1 0.017197 -0.009986 -0.003002 0.000000 0.000000 0.000000
# 2 -0.009986 0.014509 -0.008249 0.000000 0.000000 0.000000
# 3 -0.003002 -0.008249 0.047024 0.000000 0.000000 0.000000
# 4 0.000000 0.000000 0.000000 0.018923 0.000000 0.000000
# 5 0.000000 0.000000 0.000000 0.000000 0.082592 0.000000
# 6 0.000000 0.000000 0.000000 0.000000 0.000000 0.012502
#
#
# Mechanical properties :
#
#
# Convention : Reuss Voigt Hill
#
# Bulk Modulus (GPa) = 27.58129 66.64403 47.11266
# Shear Modulus (GPa) = 20.21782 38.78896 29.50339
#
# Velocity S-wave (km/s) = 3.02315 4.18742 3.65198
# Velocity P-wave (km/s) = 4.96528 7.31475 6.25138
#
# Compressibility (1/GPa) = 0.03625646
#
# Stress axis : x y z
#
# Youngs Moduli (GPa) = 58.14964 68.92322 21.26556
#
# Poissons Ratio (x) = 0.68827 0.06384
# Poissons Ratio (y) = 0.58068 0.17542
# Poissons Ratio (z) = 0.17457 0.56853
#
# Static dielectric constant tensor:
#      x y z
#    x 1.812300 0.000000 0.000000 
#    y 0.000000 1.765110 0.000000 
#    z 0.000000 0.000000 1.852910 
# 
# From -- ./inp_files/10247.got.cif
#   From: 2010.05.17/outbox.cif.g08.bks.cpg/sg64_6_cif.got.tgz:10247.got - 2010.06.03 16:29:19.
