data_PCOD9480462
_publ_section_title
;
Structure prediction by ZEFSAII (Michael W. Deem and Ramdas Pophale) SiO2 
 PCOD9480462
Probable space group: C M C A
;
_chemical_formula_sum "Si O2"
_cell_formula_units_Z 68
_cell_length_a 15.327871
_cell_length_b 22.861524
_cell_length_c 8.903895
_cell_angle_alpha 90.000000
_cell_angle_beta 90.000000
_cell_angle_gamma 90.000000
_cell_volume 3120.089448
_symmetry_space_group_name_H-M "C M C A"
_symmetry_group_IT_number 64
_symmetry_cell_setting 'orthorhombic'
loop_
_space_group_symop_operation_xyz
x,y,z
-x,1/2-y,1/2+z
x,-y,-z
-x,1/2+y,1/2-z
-x,-y,-z
x,1/2+y,1/2-z
-x,y,z
x,1/2-y,1/2+z
1/2+x,1/2+y,z
1/2-x,-y,1/2+z
1/2+x,1/2-y,-z
1/2-x,y,1/2-z
1/2-x,1/2-y,-z
1/2+x,y,1/2-z
1/2-x,1/2+y,z
1/2+x,-y,1/2+z
loop_
_atom_site_type_symbol
_atom_site_label
_atom_site_fract_x
_atom_site_fract_y
_atom_site_fract_z
Si Si1 0.500000 0.000000 0.500000
Si Si2 0.894632 0.323399 0.122125
Si Si3 0.156761 0.563579 0.056434
Si Si4 0.358485 0.587774 0.106506
Si Si5 0.393994 0.792704 0.457885
O O1 0.575700 0.948821 0.505042
O O2 0.864641 0.309007 0.290457
O O3 0.000000 0.322950 0.123578
O O4 0.865920 0.385869 0.060832
O O5 0.864978 0.271061 0.012660
O O6 0.260788 0.565580 0.079642
O O7 0.116583 0.576921 0.219799
O O8 0.128996 0.500000 0.000000
O O9 0.363504 0.656133 0.068467
O O10 0.500000 0.792682 0.459505
#
# Coordination Sequence:
#
# PCOD9480462 Si02
#       5
#     4  16  16  16  16
#     4  12  24  44  74  96 126 184 220 260 332 400
#     4  10  23  40  66  97 132 175 219 271 331 389
#     4  11  26  43  62  98 139 169 215 275 331 388
#     4  11  25  42  69  95 131 171 222 272 326 390
#     4  10  21  41  68  96 129 172 227 271 320 393
#
# _framework density 21.794248
#
# number of rings (size 3 to 8) (size 9 to 14) (size 15 to 20)
#    0.000    1.412    2.353    1.412    4.941    4.235 
#    0.000    0.000    0.000    0.000    0.000    0.000 
#    0.000    0.000    0.000    0.000    0.000    0.000 
#
# Total GULP energy -189759.093934 kJ/mol
# GULP energy per Si atom -5581.149822 kJ/mol
# Density = 2.174464 g / cm^3
# Si number density = 21.794248 Si / 1000 Ang^3
#
#
#
# Elastic Constant Matrix: (Units=GPa)
#
#
# Indices 1 2 3 4 5 6 
#
# 1 32.9423 2.0417 -5.8656 0.0000 0.0000 0.0000
# 2 2.0417 214.4085 87.7585 0.0000 0.0000 0.0000
# 3 -5.8656 87.7585 133.0496 0.0000 0.0000 0.0000
# 4 0.0000 0.0000 0.0000 28.0799 0.0000 0.0000
# 5 0.0000 0.0000 0.0000 0.0000 16.5195 0.0000
# 6 0.0000 0.0000 0.0000 0.0000 0.0000 29.2930
#
#
#
# Elastic Compliance Matrix: (Units=1/GPa)
#
#
# Indices 1 2 3 4 5 6 
#
# 1 0.030807 -0.001163 0.002125 0.000000 0.000000 0.000000
# 2 -0.001163 0.006433 -0.004294 0.000000 0.000000 0.000000
# 3 0.002125 -0.004294 0.010442 0.000000 0.000000 0.000000
# 4 0.000000 0.000000 0.000000 0.035613 0.000000 0.000000
# 5 0.000000 0.000000 0.000000 0.000000 0.060534 0.000000
# 6 0.000000 0.000000 0.000000 0.000000 0.000000 0.034138
#
#
# Mechanical properties :
#
#
# Convention : Reuss Voigt Hill
#
# Bulk Modulus (GPa) = 24.37999 60.91886 42.64943
# Shear Modulus (GPa) = 25.21391 34.54286 29.87839
#
# Velocity S-wave (km/s) = 3.40502 3.98547 3.70662
# Velocity P-wave (km/s) = 5.16426 7.01363 6.15876
#
# Compressibility (1/GPa) = 0.04101724
#
# Stress axis : x y z
#
# Youngs Moduli (GPa) = 32.46056 155.45472 95.76557
#
# Poissons Ratio (x) = 0.18084 -0.20354
# Poissons Ratio (y) = 0.03776 0.41124
# Poissons Ratio (z) = -0.06899 0.66757
#
# Static dielectric constant tensor:
#      x y z
#    x 1.800010 0.000000 0.000000 
#    y 0.000000 1.762480 0.000000 
#    z 0.000000 0.000000 1.807410 
# 
# From -- ./inp_files/5762.got.cif
#   From: 2010.05.17/outbox.cif.g08.bks.cpg/sg64_3_cif.got.tgz:5762.got - 2010.06.03 16:29:19.
