data_PCOD9480009
_publ_section_title
;
Structure prediction by ZEFSAII (Michael W. Deem and Ramdas Pophale) SiO2 
 PCOD9480009
Probable space group: C M C A
;
_chemical_formula_sum "Si O2"
_cell_formula_units_Z 96
_cell_length_a 16.458006
_cell_length_b 11.388089
_cell_length_c 25.789516
_cell_angle_alpha 90.000000
_cell_angle_beta 90.000000
_cell_angle_gamma 90.000000
_cell_volume 4833.606151
_symmetry_space_group_name_H-M "C M C A"
_symmetry_group_IT_number 64
_symmetry_cell_setting 'orthorhombic'
loop_
_space_group_symop_operation_xyz
x,y,z
-x,1/2-y,1/2+z
x,-y,-z
-x,1/2+y,1/2-z
-x,-y,-z
x,1/2+y,1/2-z
-x,y,z
x,1/2-y,1/2+z
1/2+x,1/2+y,z
1/2-x,-y,1/2+z
1/2+x,1/2-y,-z
1/2-x,y,1/2-z
1/2-x,1/2-y,-z
1/2+x,y,1/2-z
1/2-x,1/2+y,z
1/2+x,-y,1/2+z
loop_
_atom_site_type_symbol
_atom_site_label
_atom_site_fract_x
_atom_site_fract_y
_atom_site_fract_z
Si Si1 0.405021 0.031211 0.791599
Si Si2 0.089363 0.447520 0.585851
Si Si3 0.592402 0.882060 0.319852
Si Si4 0.768404 0.010586 0.558930
Si Si5 0.694466 0.836887 0.849757
Si Si6 0.849610 0.286129 0.125472
O O1 0.500000 0.993985 0.786639
O O2 0.345762 0.927016 0.809559
O O3 0.376553 0.083538 0.736795
O O4 0.398684 0.130806 0.835804
O O5 0.092112 0.505650 0.642981
O O6 0.170359 0.498001 0.559383
O O7 0.099607 0.308092 0.592984
O O8 0.000000 0.475941 0.563932
O O9 0.500000 0.841227 0.312823
O O10 0.641170 0.779702 0.347668
O O11 0.801389 0.905239 0.595421
O O12 0.797204 0.000000 0.500000
O O13 0.798807 0.129254 0.586807
O O14 0.785685 0.791149 0.841201
#
# Coordination Sequence:
#
# PCOD9480009 Si02
#       6
#    16  16  16  16  16  16
#     4  10  22  38  60  85 120 165 201 235 291 360
#     4  10  21  38  59  86 123 155 197 249 300 362
#     4  10  21  38  59  87 124 164 197 239 299 359
#     4  10  22  42  67  86 117 159 205 253 314 359
#     4  10  21  39  59  91 121 155 201 253 293 356
#     4  10  21  40  59  91 119 158 199 253 299 352
#
# _framework density 19.860948
#
# number of rings (size 3 to 8) (size 9 to 14) (size 15 to 20)
#    0.000    2.000    1.667    1.000    2.333    3.667 
#    3.000    0.000    0.000   17.000    0.000    0.000 
#    0.000    0.000    0.000    0.000    0.000    0.000 
#
# Total GULP energy -267786.836748 kJ/mol
# GULP energy per Si atom -5578.892432 kJ/mol
# Density = 1.981574 g / cm^3
# Si number density = 19.860948 Si / 1000 Ang^3
#
#
#
# Elastic Constant Matrix: (Units=GPa)
#
#
# Indices 1 2 3 4 5 6 
#
# 1 85.1775 40.9767 36.8165 0.0000 0.0000 0.0000
# 2 40.9767 85.1415 25.5991 0.0000 0.0000 0.0000
# 3 36.8165 25.5991 88.0474 0.0000 0.0000 0.0000
# 4 0.0000 0.0000 0.0000 8.1683 0.0000 0.0000
# 5 0.0000 0.0000 0.0000 0.0000 10.5074 0.0000
# 6 0.0000 0.0000 0.0000 0.0000 0.0000 11.8812
#
#
#
# Elastic Compliance Matrix: (Units=1/GPa)
#
#
# Indices 1 2 3 4 5 6 
#
# 1 0.017245 -0.006719 -0.005257 0.000000 0.000000 0.000000
# 2 -0.006719 0.015488 -0.001694 0.000000 0.000000 0.000000
# 3 -0.005257 -0.001694 0.014048 0.000000 0.000000 0.000000
# 4 0.000000 0.000000 0.000000 0.122425 0.000000 0.000000
# 5 0.000000 0.000000 0.000000 0.000000 0.095171 0.000000
# 6 0.000000 0.000000 0.000000 0.000000 0.000000 0.084166
#
#
# Mechanical properties :
#
#
# Convention : Reuss Voigt Hill
#
# Bulk Modulus (GPa) = 51.43633 51.68342 51.55988
# Shear Modulus (GPa) = 13.07657 16.44299 14.75978
#
# Velocity S-wave (km/s) = 2.56873 2.88046 2.72905
# Velocity P-wave (km/s) = 5.89510 6.09441 5.99559
#
# Compressibility (1/GPa) = 0.01944151
#
# Stress axis : x y z
#
# Youngs Moduli (GPa) = 57.98829 64.56619 71.18318
#
# Poissons Ratio (x) = 0.43381 0.37424
# Poissons Ratio (y) = 0.38961 0.12055
# Poissons Ratio (z) = 0.30487 0.10935
#
# Static dielectric constant tensor:
#      x y z
#    x 1.798270 0.000000 0.000000 
#    y 0.000000 1.699570 0.000000 
#    z 0.000000 0.000000 1.671640 
# 
# From -- ./inp_files/45760.got.cif
#   From: 2010.05.17/outbox.cif.g08.bks.cpg/sg64_23_cif.got.tgz:45760.got - 2010.06.03 16:29:19.
