data_PCOD9480522
_publ_section_title
;
Structure prediction by ZEFSAII (Michael W. Deem and Ramdas Pophale) SiO2 
 PCOD9480522
Probable space group: C M C A
;
_chemical_formula_sum "Si O2"
_cell_formula_units_Z 88
_cell_length_a 7.532019
_cell_length_b 19.742733
_cell_length_c 24.483547
_cell_angle_alpha 90.000000
_cell_angle_beta 90.000000
_cell_angle_gamma 90.000000
_cell_volume 3640.768077
_symmetry_space_group_name_H-M "C M C A"
_symmetry_group_IT_number 64
_symmetry_cell_setting 'orthorhombic'
loop_
_space_group_symop_operation_xyz
x,y,z
-x,1/2-y,1/2+z
x,-y,-z
-x,1/2+y,1/2-z
-x,-y,-z
x,1/2+y,1/2-z
-x,y,z
x,1/2-y,1/2+z
1/2+x,1/2+y,z
1/2-x,-y,1/2+z
1/2+x,1/2-y,-z
1/2-x,y,1/2-z
1/2-x,1/2-y,-z
1/2+x,y,1/2-z
1/2-x,1/2+y,z
1/2+x,-y,1/2+z
loop_
_atom_site_type_symbol
_atom_site_label
_atom_site_fract_x
_atom_site_fract_y
_atom_site_fract_z
Si Si1 0.500000 0.145238 0.176712
Si Si2 0.290590 0.804379 0.546602
Si Si3 0.285110 0.396939 0.358509
Si Si4 0.785920 0.252842 0.666904
Si Si5 0.205434 0.430273 0.021086
Si Si6 0.701341 0.043618 0.313912
O O1 0.343663 0.197495 0.198472
O O2 0.655477 0.090702 0.157543
O O3 0.500000 0.814006 0.550085
O O4 0.250000 0.750000 0.500000
O O5 0.232657 0.775026 0.604533
O O6 0.211496 0.874454 0.525933
O O7 0.500000 0.397388 0.357316
O O8 0.236333 0.326456 0.329626
O O9 0.223396 0.400035 0.421936
O O10 0.218359 0.465557 0.331089
O O11 0.000000 0.260132 0.673169
O O12 0.000000 0.445242 0.033797
O O13 0.288966 0.500000 0.000000
O O14 0.500000 0.067006 0.322635
O O15 0.750000 0.048271 0.250000
#
# Coordination Sequence:
#
# PCOD9480522 Si02
#       6
#     8  16  16  16  16  16
#     4  12  26  46  76 105 139 184 229 302 353 426
#     4  11  22  37  59  90 136 189 237 283 335 402
#     4  10  21  43  68 103 145 190 237 292 351 426
#     4  10  24  42  67 105 147 191 245 291 357 425
#     4  10  22  36  60  95 137 182 234 287 336 402
#     4  12  26  49  80 106 137 179 231 286 368 443
#
# _framework density 24.170724
#
# number of rings (size 3 to 8) (size 9 to 14) (size 15 to 20)
#    0.000    1.273    3.636    1.091    6.364    1.091 
#    0.000    0.909    4.000    0.000    0.000    0.000 
#    0.000    0.000    0.000    0.000    0.000    0.000 
#
# Total GULP energy -245170.456333 kJ/mol
# GULP energy per Si atom -5572.055826 kJ/mol
# Density = 2.411571 g / cm^3
# Si number density = 24.170724 Si / 1000 Ang^3
#
#
#
# Elastic Constant Matrix: (Units=GPa)
#
#
# Indices 1 2 3 4 5 6 
#
# 1 147.8848 51.8102 10.4638 0.0000 0.0000 0.0000
# 2 51.8102 184.8113 3.1793 0.0000 0.0000 0.0000
# 3 10.4638 3.1793 61.4268 0.0000 0.0000 0.0000
# 4 0.0000 0.0000 0.0000 24.3646 0.0000 0.0000
# 5 0.0000 0.0000 0.0000 0.0000 3.6974 0.0000
# 6 0.0000 0.0000 0.0000 0.0000 0.0000 -781.7783
#
#
#
# Elastic Compliance Matrix: (Units=1/GPa)
#
#
# Indices 1 2 3 4 5 6 
#
# 1 0.007583 -0.002106 -0.001183 0.000000 0.000000 0.000000
# 2 -0.002106 0.006000 0.000048 0.000000 0.000000 0.000000
# 3 -0.001183 0.000048 0.016479 0.000000 0.000000 0.000000
# 4 0.000000 0.000000 0.000000 0.041043 0.000000 0.000000
# 5 0.000000 0.000000 0.000000 0.000000 0.270463 0.000000
# 6 0.000000 0.000000 0.000000 0.000000 0.000000 -0.001279
#
#
# Mechanical properties :
#
#
# Convention : Reuss Voigt Hill
#
# Bulk Modulus (GPa) = 42.40571 58.33660 50.37116
# Shear Modulus (GPa) = 14.09916 -128.83197 -57.36640
#
# Velocity S-wave (km/s) = 2.41781 -7.30866 -4.87702
# Velocity P-wave (km/s) = 5.03754 6.85817 3.29072
#
# Compressibility (1/GPa) = 0.02358173
#
# Stress axis : x y z
#
# Youngs Moduli (GPa) = 131.86717 166.65613 60.68500
#
# Poissons Ratio (x) = 0.35091 0.07178
# Poissons Ratio (y) = 0.27766 -0.00292
# Poissons Ratio (z) = 0.15597 -0.00802
#
# Static dielectric constant tensor:
#      x y z
#    x 1.882430 0.000000 0.000000 
#    y 0.000000 1.913910 0.000000 
#    z 0.000000 0.000000 1.983030 
# 
# From -- ./inp_files/51894.got.cif
#   From: 2010.05.17/outbox.cif.g08.bks.cpg/sg64_26_cif.got.tgz:51894.got - 2010.06.03 16:29:19.
