data_PCOD9480742
_publ_section_title
;
Structure prediction by ZEFSAII (Michael W. Deem and Ramdas Pophale) SiO2 
 PCOD9480742
Probable space group: C M C A
;
_chemical_formula_sum "Si O2"
_cell_formula_units_Z 96
_cell_length_a 26.863591
_cell_length_b 22.214323
_cell_length_c 7.093314
_cell_angle_alpha 90.000000
_cell_angle_beta 90.000000
_cell_angle_gamma 90.000000
_cell_volume 4232.981147
_symmetry_space_group_name_H-M "C M C A"
_symmetry_group_IT_number 64
_symmetry_cell_setting 'orthorhombic'
loop_
_space_group_symop_operation_xyz
x,y,z
-x,1/2-y,1/2+z
x,-y,-z
-x,1/2+y,1/2-z
-x,-y,-z
x,1/2+y,1/2-z
-x,y,z
x,1/2-y,1/2+z
1/2+x,1/2+y,z
1/2-x,-y,1/2+z
1/2+x,1/2-y,-z
1/2-x,y,1/2-z
1/2-x,1/2-y,-z
1/2+x,y,1/2-z
1/2-x,1/2+y,z
1/2+x,-y,1/2+z
loop_
_atom_site_type_symbol
_atom_site_label
_atom_site_fract_x
_atom_site_fract_y
_atom_site_fract_z
Si Si1 0.943406 0.832598 0.054924
Si Si2 0.796473 0.072982 0.140725
Si Si3 0.637333 0.891818 0.965952
Si Si4 0.377054 0.944084 0.377283
Si Si5 0.055899 0.698919 0.993584
Si Si6 0.760823 0.320190 0.033746
O O1 0.904595 0.885956 0.035948
O O2 0.947003 0.823292 0.279981
O O3 0.000000 0.845279 0.987759
O O4 0.925476 0.767520 0.983730
O O5 0.750000 0.043481 0.250000
O O6 0.841050 0.070347 0.292212
O O7 0.819305 0.055108 0.940136
O O8 0.776790 0.140067 0.091261
O O9 0.623230 0.931859 0.150773
O O10 0.591147 0.849479 0.908639
O O11 0.683059 0.845380 0.006305
O O12 0.399094 0.000000 0.500000
O O13 0.000000 0.701876 0.074114
O O14 0.750000 0.332517 0.250000
O O15 0.750000 0.250000 0.000000
#
# Coordination Sequence:
#
# PCOD9480742 Si02
#       6
#    16  16  16  16  16  16
#     4   9  20  37  61  92 125 160 205 261 325 389
#     4  10  23  41  59  89 119 163 216 256 322 375
#     4  10  22  39  63  89 128 164 208 273 318 386
#     4  11  24  42  62  88 125 172 220 262 315 383
#     4   9  19  35  59  93 125 159 200 257 330 392
#     4  11  21  36  59  94 131 165 208 257 331 399
#
# _framework density 22.679051999999999
#
# number of rings (size 3 to 8) (size 9 to 14) (size 15 to 20)
#    0.000    2.000    1.667    1.500    4.667    2.333 
#    6.000    0.000    0.000    0.000    0.000    5.833 
#    0.000    0.000    0.000    0.000    0.000    0.000 
#
# Total GULP energy -267570.715607 kJ/mol
# GULP energy per Si atom -5574.389908 kJ/mol
# Density = 2.262743 g / cm^3
# Si number density = 22.679052 Si / 1000 Ang^3
#
#
#
# Elastic Constant Matrix: (Units=GPa)
#
#
# Indices 1 2 3 4 5 6 
#
# 1 58.2457 35.3611 12.8002 0.0000 0.0000 0.0000
# 2 35.3611 95.5939 18.1598 0.0000 0.0000 0.0000
# 3 12.8002 18.1598 102.2027 0.0000 0.0000 0.0000
# 4 0.0000 0.0000 0.0000 25.7513 0.0000 0.0000
# 5 0.0000 0.0000 0.0000 0.0000 23.3928 0.0000
# 6 0.0000 0.0000 0.0000 0.0000 0.0000 7.9742
#
#
#
# Elastic Compliance Matrix: (Units=1/GPa)
#
#
# Indices 1 2 3 4 5 6 
#
# 1 0.022326 -0.007997 -0.001375 0.000000 0.000000 0.000000
# 2 -0.007997 0.013691 -0.001431 0.000000 0.000000 0.000000
# 3 -0.001375 -0.001431 0.010211 0.000000 0.000000 0.000000
# 4 0.000000 0.000000 0.000000 0.038833 0.000000 0.000000
# 5 0.000000 0.000000 0.000000 0.000000 0.042748 0.000000
# 6 0.000000 0.000000 0.000000 0.000000 0.000000 0.125405
#
#
# Mechanical properties :
#
#
# Convention : Reuss Voigt Hill
#
# Bulk Modulus (GPa) = 40.61595 43.18718 41.90157
# Shear Modulus (GPa) = 17.66608 24.07174 20.86891
#
# Velocity S-wave (km/s) = 2.79401 3.26146 3.03675
# Velocity P-wave (km/s) = 5.32509 5.76775 5.55083
#
# Compressibility (1/GPa) = 0.02462087
#
# Stress axis : x y z
#
# Youngs Moduli (GPa) = 44.79060 73.04020 97.93371
#
# Poissons Ratio (x) = 0.58413 0.13468
# Poissons Ratio (y) = 0.35821 0.14015
# Poissons Ratio (z) = 0.06160 0.10452
#
# Static dielectric constant tensor:
#      x y z
#    x 1.859530 0.000000 0.000000 
#    y 0.000000 1.925430 0.000000 
#    z 0.000000 0.000000 1.903800 
# 
# From -- ./inp_files/10369.got.cif
#   From: 2010.05.17/outbox.cif.g08.bks.cpg/sg64_6_cif.got.tgz:10369.got - 2010.06.03 16:29:19.
