data_PCOD9480193
_publ_section_title
;
Structure prediction by ZEFSAII (Michael W. Deem and Ramdas Pophale) SiO2 
 PCOD9480193
Probable space group: C M C A
;
_chemical_formula_sum "Si O2"
_cell_formula_units_Z 116
_cell_length_a 9.516443
_cell_length_b 24.400813
_cell_length_c 25.799839
_cell_angle_alpha 90.000000
_cell_angle_beta 90.000000
_cell_angle_gamma 90.000000
_cell_volume 5990.953423
_symmetry_space_group_name_H-M "C M C A"
_symmetry_group_IT_number 64
_symmetry_cell_setting 'orthorhombic'
loop_
_space_group_symop_operation_xyz
x,y,z
-x,1/2-y,1/2+z
x,-y,-z
-x,1/2+y,1/2-z
-x,-y,-z
x,1/2+y,1/2-z
-x,y,z
x,1/2-y,1/2+z
1/2+x,1/2+y,z
1/2-x,-y,1/2+z
1/2+x,1/2-y,-z
1/2-x,y,1/2-z
1/2-x,1/2-y,-z
1/2+x,y,1/2-z
1/2-x,1/2+y,z
1/2+x,-y,1/2+z
loop_
_atom_site_type_symbol
_atom_site_label
_atom_site_fract_x
_atom_site_fract_y
_atom_site_fract_z
Si Si1 0.500000 0.500000 0.000000
Si Si2 0.337437 0.281993 0.956668
Si Si3 0.168194 0.884805 0.698144
Si Si4 0.662313 0.960366 0.894152
Si Si5 0.332603 0.850875 0.303584
Si Si6 0.231810 0.096850 0.006931
Si Si7 0.832353 0.585732 0.893856
Si Si8 0.336347 0.231785 0.147729
O O1 0.619529 0.548782 0.999327
O O2 0.500000 0.265099 0.956334
O O3 0.327945 0.346443 0.970685
O O4 0.264677 0.270207 0.901656
O O5 0.250000 0.250000 0.000000
O O6 0.250000 0.898319 0.750000
O O7 0.223067 0.922644 0.651166
O O8 0.190933 0.821867 0.681992
O O9 0.000000 0.891874 0.704797
O O10 0.500000 0.967046 0.881268
O O11 0.671152 0.928789 0.948300
O O12 0.717597 0.022108 0.895530
O O13 0.500000 0.863461 0.299450
O O14 0.250000 0.861339 0.250000
O O15 0.258092 0.883849 0.350219
O O16 0.319496 0.786996 0.319418
O O17 0.304205 0.108009 0.951708
O O18 0.000000 0.589332 0.883088
O O19 0.500000 0.229128 0.130040
#
# Coordination Sequence:
#
# PCOD9480193 Si02
#       8
#     4  16  16  16  16  16  16  16
#     4  12  24  40  66  96 140 176 226 278 332 398
#     4  12  26  40  61  95 134 173 217 266 328 394
#     4  10  21  39  62  90 122 158 202 259 314 375
#     4  10  21  40  65  91 125 166 216 268 324 385
#     4  11  25  44  68  93 126 170 218 270 327 390
#     4  12  23  41  66  95 133 174 222 271 331 397
#     4  11  24  40  65  96 127 168 219 269 326 389
#     4  10  22  42  66  90 122 164 210 265 322 383
#
# _framework density 19.362527
#
# number of rings (size 3 to 8) (size 9 to 14) (size 15 to 20)
#    0.000    1.103    3.448    2.483    0.966    7.172 
#    1.241    1.379    0.000    0.000    0.000    0.000 
#    0.000    0.000    0.000    0.000    0.000    0.000 
#
# Total GULP energy -323355.817387 kJ/mol
# GULP energy per Si atom -5575.100300 kJ/mol
# Density = 1.931846 g / cm^3
# Si number density = 19.362527 Si / 1000 Ang^3
#
#
#
# Elastic Constant Matrix: (Units=GPa)
#
#
# Indices 1 2 3 4 5 6 
#
# 1 78.3187 16.9423 50.9347 0.0000 0.0000 0.0000
# 2 16.9423 41.9460 22.2307 0.0000 0.0000 0.0000
# 3 50.9347 22.2307 147.9635 0.0000 0.0000 0.0000
# 4 0.0000 0.0000 0.0000 3.7355 0.0000 0.0000
# 5 0.0000 0.0000 0.0000 0.0000 156.5568 0.0000
# 6 0.0000 0.0000 0.0000 0.0000 0.0000 -65.9950
#
#
#
# Elastic Compliance Matrix: (Units=1/GPa)
#
#
# Indices 1 2 3 4 5 6 
#
# 1 0.017080 -0.004110 -0.005262 0.000000 0.000000 0.000000
# 2 -0.004110 0.026892 -0.002626 0.000000 0.000000 0.000000
# 3 -0.005262 -0.002626 0.008964 0.000000 0.000000 0.000000
# 4 0.000000 0.000000 0.000000 0.267700 0.000000 0.000000
# 5 0.000000 0.000000 0.000000 0.000000 0.006387 0.000000
# 6 0.000000 0.000000 0.000000 0.000000 0.000000 -0.015153
#
#
# Mechanical properties :
#
#
# Convention : Reuss Voigt Hill
#
# Bulk Modulus (GPa) = 34.55332 49.82707 42.19020
# Shear Modulus (GPa) = 14.47130 30.73417 22.60274
#
# Velocity S-wave (km/s) = 2.73680 3.98842 3.42035
# Velocity P-wave (km/s) = 5.27930 6.85563 6.11844
#
# Compressibility (1/GPa) = 0.02894078
#
# Stress axis : x y z
#
# Youngs Moduli (GPa) = 58.54972 37.18627 111.55412
#
# Poissons Ratio (x) = 0.15283 0.58699
# Poissons Ratio (y) = 0.24063 0.29289
# Poissons Ratio (z) = 0.30809 0.09763
#
# Static dielectric constant tensor:
#      x y z
#    x 1.663400 0.000000 0.000000 
#    y 0.000000 1.686210 0.000000 
#    z 0.000000 0.000000 1.660090 
# 
# From -- ./inp_files/43413.got.cif
#   From: 2010.05.17/outbox.cif.g08.bks.cpg/sg64_22_cif.got.tgz:43413.got - 2010.06.03 16:29:19.
