data_PCOD9480820
_publ_section_title
;
Structure prediction by ZEFSAII (Michael W. Deem and Ramdas Pophale) SiO2 
 PCOD9480820
Probable space group: C M C A
;
_chemical_formula_sum "Si O2"
_cell_formula_units_Z 56
_cell_length_a 18.577299
_cell_length_b 26.167800
_cell_length_c 5.132698
_cell_angle_alpha 90.000000
_cell_angle_beta 90.000000
_cell_angle_gamma 90.000000
_cell_volume 2495.143310
_symmetry_space_group_name_H-M "C M C A"
_symmetry_group_IT_number 64
_symmetry_cell_setting 'orthorhombic'
loop_
_space_group_symop_operation_xyz
x,y,z
-x,1/2-y,1/2+z
x,-y,-z
-x,1/2+y,1/2-z
-x,-y,-z
x,1/2+y,1/2-z
-x,y,z
x,1/2-y,1/2+z
1/2+x,1/2+y,z
1/2-x,-y,1/2+z
1/2+x,1/2-y,-z
1/2-x,y,1/2-z
1/2-x,1/2-y,-z
1/2+x,y,1/2-z
1/2-x,1/2+y,z
1/2+x,-y,1/2+z
loop_
_atom_site_type_symbol
_atom_site_label
_atom_site_fract_x
_atom_site_fract_y
_atom_site_fract_z
Si Si1 0.800678 0.943097 0.504966
Si Si2 0.500000 0.964789 0.257402
Si Si3 0.920018 0.874036 0.404485
Si Si4 0.669525 0.716061 0.809295
O O1 0.750000 0.946559 0.750000
O O2 0.855013 0.896629 0.569739
O O3 0.835829 0.000000 0.500000
O O4 0.750000 0.934533 0.250000
O O5 0.565867 0.924631 0.269605
O O6 0.500000 0.000000 0.500000
O O7 0.500000 0.000000 0.000000
O O8 0.890989 0.825323 0.253956
O O9 0.000000 0.865015 0.522531
O O10 0.663176 0.762340 0.600436
O O11 0.750000 0.695178 0.750000
#
# Coordination Sequence:
#
# PCOD9480820 Si02
#       4
#    16   8  16  16
#     4  10  22  40  63  92 128 174 226 275 326 398
#     4  10  24  42  62  96 140 178 218 268 336 402
#     4  10  24  43  67 100 132 183 218 284 336 412
#     4  10  23  44  68  95 130 172 225 285 338 394
#
# _framework density 22.443601999999998
#
# number of rings (size 3 to 8) (size 9 to 14) (size 15 to 20)
#    0.857    1.143    0.000    1.714    0.000   14.857 
#    0.000    0.000    0.000    0.000    0.000    0.000 
#    0.000    0.000    0.000    0.000    0.000    0.000 
#
# Total GULP energy -156081.446426 kJ/mol
# GULP energy per Si atom -5574.337372 kJ/mol
# Density = 2.239252 g / cm^3
# Si number density = 22.443602 Si / 1000 Ang^3
#
#
#
# Elastic Constant Matrix: (Units=GPa)
#
#
# Indices 1 2 3 4 5 6 
#
# 1 99.6218 39.3649 -3.0577 0.0000 0.0000 0.0000
# 2 39.3649 72.5670 -0.4889 0.0000 0.0000 0.0000
# 3 -3.0577 -0.4889 73.0492 0.0000 0.0000 0.0000
# 4 0.0000 0.0000 0.0000 12.2083 0.0000 0.0000
# 5 0.0000 0.0000 0.0000 0.0000 8.2864 0.0000
# 6 0.0000 0.0000 0.0000 0.0000 0.0000 59.8398
#
#
#
# Elastic Compliance Matrix: (Units=1/GPa)
#
#
# Indices 1 2 3 4 5 6 
#
# 1 0.012794 -0.006937 0.000489 0.000000 0.000000 0.000000
# 2 -0.006937 0.017542 -0.000173 0.000000 0.000000 0.000000
# 3 0.000489 -0.000173 0.013709 0.000000 0.000000 0.000000
# 4 0.000000 0.000000 0.000000 0.081912 0.000000 0.000000
# 5 0.000000 0.000000 0.000000 0.000000 0.120680 0.000000
# 6 0.000000 0.000000 0.000000 0.000000 0.000000 0.016711
#
#
# Mechanical properties :
#
#
# Convention : Reuss Voigt Hill
#
# Bulk Modulus (GPa) = 32.46400 35.20828 33.83614
# Shear Modulus (GPa) = 17.43023 30.02820 23.72921
#
# Velocity S-wave (km/s) = 2.78982 3.66175 3.25511
# Velocity P-wave (km/s) = 4.98734 5.79650 5.40708
#
# Compressibility (1/GPa) = 0.03080335
#
# Stress axis : x y z
#
# Youngs Moduli (GPa) = 78.16102 57.00509 72.94624
#
# Poissons Ratio (x) = 0.39545 -0.03568
# Poissons Ratio (y) = 0.54221 0.01262
# Poissons Ratio (z) = -0.03823 0.00986
#
# Static dielectric constant tensor:
#      x y z
#    x 2.020580 0.000000 0.000000 
#    y 0.000000 1.834490 0.000000 
#    z 0.000000 0.000000 1.802690 
# 
# From -- ./inp_files/1223.got.cif
#   From: 2010.05.17/outbox.cif.g08.bks.cpg/sg64_1_cif.got.tgz:1223.got - 2010.06.03 16:29:19.
