data_PCOD9480738
_publ_section_title
;
Structure prediction by ZEFSAII (Michael W. Deem and Ramdas Pophale) SiO2 
 PCOD9480738
Probable space group: C M C A
;
_chemical_formula_sum "Si O2"
_cell_formula_units_Z 48
_cell_length_a 22.619913
_cell_length_b 17.896778
_cell_length_c 4.753783
_cell_angle_alpha 90.000000
_cell_angle_beta 90.000000
_cell_angle_gamma 90.000000
_cell_volume 1924.443364
_symmetry_space_group_name_H-M "C M C A"
_symmetry_group_IT_number 64
_symmetry_cell_setting 'orthorhombic'
loop_
_space_group_symop_operation_xyz
x,y,z
-x,1/2-y,1/2+z
x,-y,-z
-x,1/2+y,1/2-z
-x,-y,-z
x,1/2+y,1/2-z
-x,y,z
x,1/2-y,1/2+z
1/2+x,1/2+y,z
1/2-x,-y,1/2+z
1/2+x,1/2-y,-z
1/2-x,y,1/2-z
1/2-x,1/2-y,-z
1/2+x,y,1/2-z
1/2-x,1/2+y,z
1/2+x,-y,1/2+z
loop_
_atom_site_type_symbol
_atom_site_label
_atom_site_fract_x
_atom_site_fract_y
_atom_site_fract_z
Si Si1 0.190765 0.585258 0.598650
Si Si2 0.937191 0.917565 0.130627
Si Si3 0.878419 0.195473 0.237876
O O1 0.199311 0.500000 0.500000
O O2 0.250000 0.608874 0.750000
O O3 0.128079 0.584261 0.771686
O O4 0.176768 0.643379 0.348821
O O5 0.000000 0.905403 0.281200
O O6 0.930820 0.857095 0.879355
O O7 0.939040 0.000000 0.000000
O O8 0.879480 0.230607 0.542689
#
# Coordination Sequence:
#
# PCOD9480738 Si02
#       3
#    16  16  16
#     4   9  20  38  60  89 118 166 206 256 302 370
#     4   8  17  39  62  88 122 164 211 254 303 366
#     4  10  22  39  62  93 129 163 204 256 314 372
#
# _framework density 24.942278000000002
#
# number of rings (size 3 to 8) (size 9 to 14) (size 15 to 20)
#    2.000    1.000    0.000    0.000    0.000    5.333 
#    0.000    1.667    0.000    5.000    0.000    0.000 
#    0.000    0.000    0.000    0.000    0.000    0.000 
#
# Total GULP energy -133729.746855 kJ/mol
# GULP energy per Si atom -5572.072786 kJ/mol
# Density = 2.488551 g / cm^3
# Si number density = 24.942278 Si / 1000 Ang^3
#
#
#
# Elastic Constant Matrix: (Units=GPa)
#
#
# Indices 1 2 3 4 5 6 
#
# 1 218.3753 -15.4657 34.0491 0.0000 0.0000 0.0000
# 2 -15.4657 162.2976 19.3282 0.0000 0.0000 0.0000
# 3 34.0491 19.3282 48.4390 0.0000 0.0000 0.0000
# 4 0.0000 0.0000 0.0000 29.2107 0.0000 0.0000
# 5 0.0000 0.0000 0.0000 0.0000 28.9856 0.0000
# 6 0.0000 0.0000 0.0000 0.0000 0.0000 -29.6938
#
#
#
# Elastic Compliance Matrix: (Units=1/GPa)
#
#
# Indices 1 2 3 4 5 6 
#
# 1 0.005292 0.000994 -0.004116 0.000000 0.000000 0.000000
# 2 0.000994 0.006656 -0.003355 0.000000 0.000000 0.000000
# 3 -0.004116 -0.003355 0.024877 0.000000 0.000000 0.000000
# 4 0.000000 0.000000 0.000000 0.034234 0.000000 0.000000
# 5 0.000000 0.000000 0.000000 0.000000 0.034500 0.000000
# 6 0.000000 0.000000 0.000000 0.000000 0.000000 -0.033677
#
#
# Mechanical properties :
#
#
# Convention : Reuss Voigt Hill
#
# Bulk Modulus (GPa) = 41.89267 56.10390 48.99829
# Shear Modulus (GPa) = 53.88438 31.78052 42.83245
#
# Velocity S-wave (km/s) = 4.65301 3.57341 4.14848
# Velocity P-wave (km/s) = 6.76015 6.29031 6.52946
#
# Compressibility (1/GPa) = 0.02387052
#
# Stress axis : x y z
#
# Youngs Moduli (GPa) = 188.98135 150.24450 40.19826
#
# Poissons Ratio (x) = -0.14941 0.16547
# Poissons Ratio (y) = -0.18794 0.13486
# Poissons Ratio (z) = 0.77792 0.50405
#
# Static dielectric constant tensor:
#      x y z
#    x 2.025010 0.000000 0.000000 
#    y 0.000000 1.917520 0.000000 
#    z 0.000000 0.000000 2.039710 
# 
# From -- ./inp_files/2051.got.cif
#   From: 2010.05.17/outbox.cif.g08.bks.cpg/sg64_2_cif.got.tgz:2051.got - 2010.06.03 16:29:19.
