data_PCOD9480910
_publ_section_title
;
Structure prediction by ZEFSAII (Michael W. Deem and Ramdas Pophale) SiO2 
 PCOD9480910
Probable space group: C M C A
;
_chemical_formula_sum "Si O2"
_cell_formula_units_Z 112
_cell_length_a 15.165811
_cell_length_b 28.470840
_cell_length_c 12.805712
_cell_angle_alpha 90.000000
_cell_angle_beta 90.000000
_cell_angle_gamma 90.000000
_cell_volume 5529.293591
_symmetry_space_group_name_H-M "C M C A"
_symmetry_group_IT_number 64
_symmetry_cell_setting 'orthorhombic'
loop_
_space_group_symop_operation_xyz
x,y,z
-x,1/2-y,1/2+z
x,-y,-z
-x,1/2+y,1/2-z
-x,-y,-z
x,1/2+y,1/2-z
-x,y,z
x,1/2-y,1/2+z
1/2+x,1/2+y,z
1/2-x,-y,1/2+z
1/2+x,1/2-y,-z
1/2-x,y,1/2-z
1/2-x,1/2-y,-z
1/2+x,y,1/2-z
1/2-x,1/2+y,z
1/2+x,-y,1/2+z
loop_
_atom_site_type_symbol
_atom_site_label
_atom_site_fract_x
_atom_site_fract_y
_atom_site_fract_z
Si Si1 0.392833 0.734464 0.227930
Si Si2 0.893682 0.449569 0.774569
Si Si3 0.263864 0.227053 0.610587
Si Si4 0.397227 0.445480 0.263522
Si Si5 0.176025 0.878894 0.085202
Si Si6 0.671679 0.445488 0.493287
Si Si7 0.101979 0.366206 0.634315
O O1 0.500000 0.740272 0.229701
O O2 0.342422 0.741897 0.337150
O O3 0.333253 0.770966 0.162792
O O4 0.367389 0.684308 0.176317
O O5 0.861087 0.501734 0.744296
O O6 0.857467 0.410048 0.696650
O O7 0.000000 0.452721 0.766261
O O8 0.872844 0.437171 0.894627
O O9 0.250000 0.250000 0.500000
O O10 0.293514 0.173333 0.611801
O O11 0.500000 0.443830 0.236580
O O12 0.351903 0.407341 0.188708
O O13 0.387456 0.439828 0.388718
O O14 0.251028 0.909419 0.029145
O O15 0.107720 0.872339 0.989860
O O16 0.701266 0.500000 0.500000
O O17 0.000000 0.366457 0.664462
#
# Coordination Sequence:
#
# PCOD9480910 Si02
#       7
#    16  16  16  16  16  16  16
#     4  10  24  45  70  97 131 174 221 275 335 401
#     4   9  20  40  65  92 124 166 217 269 321 389
#     4  11  25  45  67  97 134 173 224 283 340 401
#     4  10  22  41  64  90 128 172 214 266 326 390
#     4  12  25  40  62  96 134 171 212 271 336 397
#     4  10  23  39  61  92 126 167 215 266 322 392
#     4  10  22  41  66  96 127 167 219 265 324 399
#
# _framework density 20.255752000000001
#
# number of rings (size 3 to 8) (size 9 to 14) (size 15 to 20)
#    0.000    1.714    1.429    1.286    8.000    4.000 
#    0.000    2.857    0.000    0.000    0.000    0.000 
#    0.000    0.000    0.000    0.000    0.000    0.000 
#
# Total GULP energy -312106.092413 kJ/mol
# GULP energy per Si atom -5573.323079 kJ/mol
# Density = 2.020965 g / cm^3
# Si number density = 20.255752 Si / 1000 Ang^3
#
#
#
# Elastic Constant Matrix: (Units=GPa)
#
#
# Indices 1 2 3 4 5 6 
#
# 1 70.7018 32.9659 16.5416 0.0000 0.0000 0.0000
# 2 32.9659 126.7659 73.5984 0.0000 0.0000 0.0000
# 3 16.5416 73.5984 125.2711 0.0000 0.0000 0.0000
# 4 0.0000 0.0000 0.0000 36.1509 0.0000 0.0000
# 5 0.0000 0.0000 0.0000 0.0000 37.7346 0.0000
# 6 0.0000 0.0000 0.0000 0.0000 0.0000 23.1499
#
#
#
# Elastic Compliance Matrix: (Units=1/GPa)
#
#
# Indices 1 2 3 4 5 6 
#
# 1 0.016117 -0.004486 0.000507 0.000000 0.000000 0.000000
# 2 -0.004486 0.013221 -0.007175 0.000000 0.000000 0.000000
# 3 0.000507 -0.007175 0.012131 0.000000 0.000000 0.000000
# 4 0.000000 0.000000 0.000000 0.027662 0.000000 0.000000
# 5 0.000000 0.000000 0.000000 0.000000 0.026501 0.000000
# 6 0.000000 0.000000 0.000000 0.000000 0.000000 0.043197
#
#
# Mechanical properties :
#
#
# Convention : Reuss Voigt Hill
#
# Bulk Modulus (GPa) = 52.18756 63.21675 57.70216
# Shear Modulus (GPa) = 29.84672 32.71593 31.28132
#
# Velocity S-wave (km/s) = 3.84278 4.02324 3.93404
# Velocity P-wave (km/s) = 6.74607 7.27042 7.01315
#
# Compressibility (1/GPa) = 0.01916165
#
# Stress axis : x y z
#
# Youngs Moduli (GPa) = 62.04717 75.63820 82.43234
#
# Poissons Ratio (x) = 0.33929 -0.04181
# Poissons Ratio (y) = 0.27833 0.59146
# Poissons Ratio (z) = -0.03147 0.54271
#
# Static dielectric constant tensor:
#      x y z
#    x 1.734200 0.000000 0.000000 
#    y 0.000000 1.745730 0.000000 
#    z 0.000000 0.000000 1.778400 
# 
# From -- ./inp_files/15003.got.cif
#   From: 2010.05.17/outbox.cif.g08.bks.cpg/sg64_8_cif.got.tgz:15003.got - 2010.06.03 16:29:19.
