data_PCOD9480060
_publ_section_title
;
Structure prediction by ZEFSAII (Michael W. Deem and Ramdas Pophale) SiO2 
 PCOD9480060
Probable space group: C M C A
;
_chemical_formula_sum "Si O2"
_cell_formula_units_Z 56
_cell_length_a 20.544110
_cell_length_b 27.016482
_cell_length_c 5.124172
_cell_angle_alpha 90.000000
_cell_angle_beta 90.000000
_cell_angle_gamma 90.000000
_cell_volume 2844.067023
_symmetry_space_group_name_H-M "C M C A"
_symmetry_group_IT_number 64
_symmetry_cell_setting 'orthorhombic'
loop_
_space_group_symop_operation_xyz
x,y,z
-x,1/2-y,1/2+z
x,-y,-z
-x,1/2+y,1/2-z
-x,-y,-z
x,1/2+y,1/2-z
-x,y,z
x,1/2-y,1/2+z
1/2+x,1/2+y,z
1/2-x,-y,1/2+z
1/2+x,1/2-y,-z
1/2-x,y,1/2-z
1/2-x,1/2-y,-z
1/2+x,y,1/2-z
1/2-x,1/2+y,z
1/2+x,-y,1/2+z
loop_
_atom_site_type_symbol
_atom_site_label
_atom_site_fract_x
_atom_site_fract_y
_atom_site_fract_z
Si Si1 0.427135 0.946569 0.375787
Si Si2 0.000000 0.280637 0.821313
Si Si3 0.114797 0.648144 0.351052
Si Si4 0.677671 0.881188 0.155435
O O1 0.500000 0.944899 0.259971
O O2 0.422089 0.903921 0.596584
O O3 0.369605 0.929005 0.184690
O O4 0.416611 0.000000 0.500000
O O5 0.063475 0.312211 0.747089
O O6 0.000000 0.233967 0.624515
O O7 0.147102 0.657244 0.633253
O O8 0.169306 0.639273 0.133089
O O9 0.750000 0.892564 0.250000
#
# Coordination Sequence:
#
# PCOD9480060 Si02
#       4
#    16   8  16  16
#     4   9  20  37  61  92 125 164 205 250 298 350
#     4  12  24  40  69  95 117 151 204 262 308 362
#     4  10  21  39  60  89 121 154 203 249 300 358
#     4  10  21  38  61  87 128 168 197 241 297 364
#
# _framework density 19.690114000000001
#
# number of rings (size 3 to 8) (size 9 to 14) (size 15 to 20)
#    1.714    0.286    1.429    2.571    2.000    1.143 
#    5.143    2.857    0.000   17.143    0.000    0.000 
#    0.000    0.000    0.000    0.000    0.000    0.000 
#
# Total GULP energy -155900.124191 kJ/mol
# GULP energy per Si atom -5567.861578 kJ/mol
# Density = 1.964530 g / cm^3
# Si number density = 19.690114 Si / 1000 Ang^3
#
#
#
# Elastic Constant Matrix: (Units=GPa)
#
#
# Indices 1 2 3 4 5 6 
#
# 1 87.6957 8.3316 -8.6045 0.0000 0.0000 0.0000
# 2 8.3316 34.4065 -9.0292 0.0000 0.0000 0.0000
# 3 -8.6045 -9.0292 49.9699 0.0000 0.0000 0.0000
# 4 0.0000 0.0000 0.0000 13.2084 0.0000 0.0000
# 5 0.0000 0.0000 0.0000 0.0000 26.3931 0.0000
# 6 0.0000 0.0000 0.0000 0.0000 0.0000 -51.1963
#
#
#
# Elastic Compliance Matrix: (Units=1/GPa)
#
#
# Indices 1 2 3 4 5 6 
#
# 1 0.011791 -0.002438 0.001590 0.000000 0.000000 0.000000
# 2 -0.002438 0.031015 0.005184 0.000000 0.000000 0.000000
# 3 0.001590 0.005184 0.021223 0.000000 0.000000 0.000000
# 4 0.000000 0.000000 0.000000 0.075710 0.000000 0.000000
# 5 0.000000 0.000000 0.000000 0.000000 0.037889 0.000000
# 6 0.000000 0.000000 0.000000 0.000000 0.000000 -0.019533
#
#
# Mechanical properties :
#
#
# Convention : Reuss Voigt Hill
#
# Bulk Modulus (GPa) = 13.75498 17.05197 15.40348
# Shear Modulus (GPa) = 28.79272 9.77267 19.28269
#
# Velocity S-wave (km/s) = 3.82814 2.23025 3.13279
# Velocity P-wave (km/s) = 5.15174 3.91293 4.57446
#
# Compressibility (1/GPa) = 0.07270094
#
# Stress axis : x y z
#
# Youngs Moduli (GPa) = 84.81284 32.24233 47.11960
#
# Poissons Ratio (x) = 0.07860 -0.07491
# Poissons Ratio (y) = 0.20677 -0.24429
# Poissons Ratio (z) = -0.13483 -0.16716
#
# Static dielectric constant tensor:
#      x y z
#    x 1.688020 0.000000 0.000000 
#    y 0.000000 1.676730 0.000000 
#    z 0.000000 0.000000 1.709530 
# 
# From -- ./inp_files/1640.got.cif
#   From: 2010.05.17/outbox.cif.g08.bks.cpg/sg64_1_cif.got.tgz:1640.got - 2010.06.03 16:29:19.
