data_PCOD9480953
_publ_section_title
;
Structure prediction by ZEFSAII (Michael W. Deem and Ramdas Pophale) SiO2 
 PCOD9480953
Probable space group: C M C A
;
_chemical_formula_sum "Si O2"
_cell_formula_units_Z 112
_cell_length_a 28.028899
_cell_length_b 15.270540
_cell_length_c 11.563646
_cell_angle_alpha 90.000000
_cell_angle_beta 90.000000
_cell_angle_gamma 90.000000
_cell_volume 4949.430402
_symmetry_space_group_name_H-M "C M C A"
_symmetry_group_IT_number 64
_symmetry_cell_setting 'orthorhombic'
loop_
_space_group_symop_operation_xyz
x,y,z
-x,1/2-y,1/2+z
x,-y,-z
-x,1/2+y,1/2-z
-x,-y,-z
x,1/2+y,1/2-z
-x,y,z
x,1/2-y,1/2+z
1/2+x,1/2+y,z
1/2-x,-y,1/2+z
1/2+x,1/2-y,-z
1/2-x,y,1/2-z
1/2-x,1/2-y,-z
1/2+x,y,1/2-z
1/2-x,1/2+y,z
1/2+x,-y,1/2+z
loop_
_atom_site_type_symbol
_atom_site_label
_atom_site_fract_x
_atom_site_fract_y
_atom_site_fract_z
Si Si1 0.358770 0.396661 0.012680
Si Si2 0.584048 0.927265 0.862611
Si Si3 0.554110 0.618838 0.614664
Si Si4 0.058268 0.317654 0.633488
Si Si5 0.802344 0.859191 0.789843
Si Si6 0.191032 0.332557 0.254942
Si Si7 0.181366 0.505187 0.882914
O O1 0.408989 0.353221 0.972026
O O2 0.318797 0.367879 0.919998
O O3 0.365862 0.500000 0.000000
O O4 0.336083 0.371262 0.134331
O O5 0.573729 0.870954 0.749102
O O6 0.637713 0.937962 0.910324
O O7 0.574915 0.029440 0.833947
O O8 0.555929 0.894166 0.974892
O O9 0.500000 0.617656 0.653722
O O10 0.571402 0.715203 0.645487
O O11 0.000000 0.325226 0.617753
O O12 0.750000 0.836203 0.750000
O O13 0.826384 0.768170 0.749702
O O14 0.805466 0.955942 0.734659
O O15 0.250000 0.341602 0.250000
O O16 0.174665 0.393949 0.148601
O O17 0.212426 0.500000 0.000000
#
# Coordination Sequence:
#
# PCOD9480953 Si02
#       7
#    16  16  16  16  16  16  16
#     4  12  26  48  71 102 149 186 231 293 355 423
#     4  11  21  42  67 100 136 180 235 294 349 419
#     4  10  22  41  68  97 132 182 237 296 350 415
#     4  11  25  44  70 103 140 187 236 292 360 421
#     4  11  27  45  71 104 139 187 233 289 355 420
#     4  11  28  46  71 103 139 188 231 288 354 419
#     4  12  25  42  70 105 136 181 235 285 351 422
#
# _framework density 22.628867
#
# number of rings (size 3 to 8) (size 9 to 14) (size 15 to 20)
#    0.000    0.857    4.286    2.143    8.000    1.429 
#    2.571    0.000    0.000    0.000    0.000    0.000 
#    0.000    0.000    0.000    0.000    0.000    0.000 
#
# Total GULP energy -311785.084751 kJ/mol
# GULP energy per Si atom -5567.590799 kJ/mol
# Density = 2.257736 g / cm^3
# Si number density = 22.628867 Si / 1000 Ang^3
#
#
#
# Elastic Constant Matrix: (Units=GPa)
#
#
# Indices 1 2 3 4 5 6 
#
# 1 82.4186 19.5270 20.9654 0.0000 0.0000 0.0000
# 2 19.5270 163.6929 35.3668 0.0000 0.0000 0.0000
# 3 20.9654 35.3668 90.1749 0.0000 0.0000 0.0000
# 4 0.0000 0.0000 0.0000 33.4239 0.0000 0.0000
# 5 0.0000 0.0000 0.0000 0.0000 -31.4008 0.0000
# 6 0.0000 0.0000 0.0000 0.0000 0.0000 21.5308
#
#
#
# Elastic Compliance Matrix: (Units=1/GPa)
#
#
# Indices 1 2 3 4 5 6 
#
# 1 0.013039 -0.000984 -0.002646 0.000000 0.000000 0.000000
# 2 -0.000984 0.006749 -0.002418 0.000000 0.000000 0.000000
# 3 -0.002646 -0.002418 0.012653 0.000000 0.000000 0.000000
# 4 0.000000 0.000000 0.000000 0.029919 0.000000 0.000000
# 5 0.000000 0.000000 0.000000 0.000000 -0.031846 0.000000
# 6 0.000000 0.000000 0.000000 0.000000 0.000000 0.046445
#
#
# Mechanical properties :
#
#
# Convention : Reuss Voigt Hill
#
# Bulk Modulus (GPa) = 49.15034 54.22277 51.68656
# Shear Modulus (GPa) = 52.17239 22.07258 37.12248
#
# Velocity S-wave (km/s) = 4.80684 3.12655 4.05469
# Velocity P-wave (km/s) = 7.25086 6.08667 6.69412
#
# Compressibility (1/GPa) = 0.02034574
#
# Stress axis : x y z
#
# Youngs Moduli (GPa) = 76.69129 148.17402 79.03201
#
# Poissons Ratio (x) = 0.14578 0.20910
# Poissons Ratio (y) = 0.07545 0.19111
# Poissons Ratio (z) = 0.20290 0.35831
#
# Static dielectric constant tensor:
#      x y z
#    x 1.927080 0.000000 0.000000 
#    y 0.000000 1.834410 0.000000 
#    z 0.000000 0.000000 2.242390 
# 
# From -- ./inp_files/19850.got.cif
#   From: 2010.05.17/outbox.cif.g08.bks.cpg/sg64_10_cif.got.tgz:19850.got - 2010.06.03 16:29:19.
