data_PCOD9480610
_publ_section_title
;
Structure prediction by ZEFSAII (Michael W. Deem and Ramdas Pophale) SiO2 
 PCOD9480610
Probable space group: C M C A
;
_chemical_formula_sum "Si O2"
_cell_formula_units_Z 72
_cell_length_a 9.196304
_cell_length_b 17.615030
_cell_length_c 20.558513
_cell_angle_alpha 90.000000
_cell_angle_beta 90.000000
_cell_angle_gamma 90.000000
_cell_volume 3330.338709
_symmetry_space_group_name_H-M "C M C A"
_symmetry_group_IT_number 64
_symmetry_cell_setting 'orthorhombic'
loop_
_space_group_symop_operation_xyz
x,y,z
-x,1/2-y,1/2+z
x,-y,-z
-x,1/2+y,1/2-z
-x,-y,-z
x,1/2+y,1/2-z
-x,y,z
x,1/2-y,1/2+z
1/2+x,1/2+y,z
1/2-x,-y,1/2+z
1/2+x,1/2-y,-z
1/2-x,y,1/2-z
1/2-x,1/2-y,-z
1/2+x,y,1/2-z
1/2-x,1/2+y,z
1/2+x,-y,1/2+z
loop_
_atom_site_type_symbol
_atom_site_label
_atom_site_fract_x
_atom_site_fract_y
_atom_site_fract_z
Si Si1 0.000000 0.344556 0.207335
Si Si2 0.500000 0.519986 0.603742
Si Si3 0.745177 0.000000 0.000000
Si Si4 0.000000 0.400982 0.487346
Si Si5 0.000000 0.229883 0.524251
Si Si6 0.243803 0.268875 0.134995
Si Si7 0.000000 0.154477 0.387988
Si Si8 0.000000 0.884946 0.147640
O O1 0.000000 0.410352 0.153066
O O2 0.136004 0.288585 0.194554
O O3 0.000000 0.390597 0.274802
O O4 0.358537 0.524646 0.558350
O O5 0.500000 0.433759 0.630379
O O6 0.852218 0.931201 0.981227
O O7 0.000000 0.310842 0.488411
O O8 0.000000 0.439349 0.414718
O O9 0.859746 0.229500 0.571452
O O10 0.000000 0.167263 0.467054
O O11 0.352902 0.196944 0.136467
O O12 0.354606 0.338181 0.133873
#
# Coordination Sequence:
#
# PCOD9480610 Si02
#       8
#     8   8   8   8   8  16   8   8
#     4  11  24  42  64  93 123 172 231 262 305 385
#     4  11  24  37  62  91 133 164 214 266 328 373
#     4  10  24  36  58  92 136 164 206 266 334 386
#     4  11  21  39  62  95 130 171 204 265 340 391
#     4  11  21  34  64  96 134 158 211 261 336 392
#     4  10  22  37  62  95 126 169 212 264 317 381
#     4  11  22  36  62  95 132 162 204 264 336 383
#     4  11  22  38  65  89 123 166 230 264 300 381
#
# _framework density 21.619423000000001
#
# number of rings (size 3 to 8) (size 9 to 14) (size 15 to 20)
#    0.000    1.333    2.222    4.000    9.333    0.000 
#    0.000    0.000    0.000   37.333    0.000    0.000 
#    0.000    0.000    0.000    0.000    0.000    0.000 
#
# Total GULP energy -200912.418709 kJ/mol
# GULP energy per Si atom -5580.900520 kJ/mol
# Density = 2.157022 g / cm^3
# Si number density = 21.619423 Si / 1000 Ang^3
#
#
#
# Elastic Constant Matrix: (Units=GPa)
#
#
# Indices 1 2 3 4 5 6 
#
# 1 163.9114 31.1862 39.8137 0.0000 0.0000 0.0000
# 2 31.1862 84.6319 25.2847 0.0000 0.0000 0.0000
# 3 39.8137 25.2847 107.7462 0.0000 0.0000 0.0000
# 4 0.0000 0.0000 0.0000 14.4380 0.0000 0.0000
# 5 0.0000 0.0000 0.0000 0.0000 122.0687 0.0000
# 6 0.0000 0.0000 0.0000 0.0000 0.0000 17.3817
#
#
#
# Elastic Compliance Matrix: (Units=1/GPa)
#
#
# Indices 1 2 3 4 5 6 
#
# 1 0.006986 -0.001939 -0.002126 0.000000 0.000000 0.000000
# 2 -0.001939 0.013245 -0.002392 0.000000 0.000000 0.000000
# 3 -0.002126 -0.002392 0.010628 0.000000 0.000000 0.000000
# 4 0.000000 0.000000 0.000000 0.069262 0.000000 0.000000
# 5 0.000000 0.000000 0.000000 0.000000 0.008192 0.000000
# 6 0.000000 0.000000 0.000000 0.000000 0.000000 0.057532
#
#
# Mechanical properties :
#
#
# Convention : Reuss Voigt Hill
#
# Bulk Modulus (GPa) = 55.72624 60.98429 58.35526
# Shear Modulus (GPa) = 27.06494 48.11134 37.58814
#
# Velocity S-wave (km/s) = 3.54203 4.72251 4.17421
# Velocity P-wave (km/s) = 6.52380 7.61613 7.09103
#
# Compressibility (1/GPa) = 0.01794487
#
# Stress axis : x y z
#
# Youngs Moduli (GPa) = 143.13697 75.50052 94.09026
#
# Poissons Ratio (x) = 0.14640 0.20008
# Poissons Ratio (y) = 0.27755 0.22503
# Poissons Ratio (z) = 0.30438 0.18057
#
# Static dielectric constant tensor:
#      x y z
#    x 1.848480 0.000000 0.000000 
#    y 0.000000 1.798440 0.000000 
#    z 0.000000 0.000000 1.906780 
# 
# From -- ./inp_files/36606.got.cif
#   From: 2010.05.17/outbox.cif.g08.bks.cpg/sg64_19_cif.got.tgz:36606.got - 2010.06.03 16:29:19.
