data_PCOD9480541
_publ_section_title
;
Structure prediction by ZEFSAII (Michael W. Deem and Ramdas Pophale) SiO2 
 PCOD9480541
Probable space group: C M C A
;
_chemical_formula_sum "Si O2"
_cell_formula_units_Z 96
_cell_length_a 19.416643
_cell_length_b 14.251611
_cell_length_c 15.751651
_cell_angle_alpha 90.000000
_cell_angle_beta 90.000000
_cell_angle_gamma 90.000000
_cell_volume 4358.772339
_symmetry_space_group_name_H-M "C M C A"
_symmetry_group_IT_number 64
_symmetry_cell_setting 'orthorhombic'
loop_
_space_group_symop_operation_xyz
x,y,z
-x,1/2-y,1/2+z
x,-y,-z
-x,1/2+y,1/2-z
-x,-y,-z
x,1/2+y,1/2-z
-x,y,z
x,1/2-y,1/2+z
1/2+x,1/2+y,z
1/2-x,-y,1/2+z
1/2+x,1/2-y,-z
1/2-x,y,1/2-z
1/2-x,1/2-y,-z
1/2+x,y,1/2-z
1/2-x,1/2+y,z
1/2+x,-y,1/2+z
loop_
_atom_site_type_symbol
_atom_site_label
_atom_site_fract_x
_atom_site_fract_y
_atom_site_fract_z
Si Si1 0.175000 0.099700 0.993698
Si Si2 0.580642 0.278755 0.537852
Si Si3 0.920100 0.616379 0.203512
Si Si4 0.705048 0.369891 0.824198
Si Si5 0.274749 0.152261 0.839361
Si Si6 0.422594 0.088712 0.881454
O O1 0.127094 0.192458 0.994363
O O2 0.228928 0.113938 0.916957
O O3 0.215107 0.091551 0.082415
O O4 0.135007 0.000000 0.000000
O O5 0.500000 0.251753 0.537742
O O6 0.600660 0.305457 0.633996
O O7 0.584311 0.372493 0.478528
O O8 0.871793 0.621218 0.285880
O O9 0.916982 0.518995 0.149633
O O10 0.000000 0.629956 0.226767
O O11 0.750000 0.413543 0.750000
O O12 0.730528 0.264022 0.836577
O O13 0.250000 0.114322 0.750000
O O14 0.355981 0.134995 0.841962
O O15 0.500000 0.119034 0.855293
#
# Coordination Sequence:
#
# PCOD9480541 Si02
#       6
#    16  16  16  16  16  16
#     4  12  28  44  67 101 137 185 233 289 349 410
#     4  10  21  44  70  98 137 183 235 288 350 412
#     4  10  23  42  71 106 137 175 230 291 344 409
#     4  11  25  44  67  96 137 178 225 276 346 411
#     4  11  25  45  70  99 137 177 229 284 347 415
#     4  10  22  40  71 104 136 177 228 285 343 408
#
# _framework density 22.024550000000001
#
# number of rings (size 3 to 8) (size 9 to 14) (size 15 to 20)
#    0.000    1.333    1.667    3.000    7.000    3.667 
#    0.000    0.833    0.000    0.000    0.000    0.000 
#    0.000    0.000    0.000    0.000    0.000    0.000 
#
# Total GULP energy -267639.760407 kJ/mol
# GULP energy per Si atom -5575.828342 kJ/mol
# Density = 2.197442 g / cm^3
# Si number density = 22.024550 Si / 1000 Ang^3
#
#
#
# Elastic Constant Matrix: (Units=GPa)
#
#
# Indices 1 2 3 4 5 6 
#
# 1 93.0997 8.2145 54.3510 0.0000 0.0000 0.0000
# 2 8.2145 105.4008 23.2925 0.0000 0.0000 0.0000
# 3 54.3510 23.2925 151.9239 0.0000 0.0000 0.0000
# 4 0.0000 0.0000 0.0000 -36.3379 0.0000 0.0000
# 5 0.0000 0.0000 0.0000 0.0000 29.4226 0.0000
# 6 0.0000 0.0000 0.0000 0.0000 0.0000 32.2715
#
#
#
# Elastic Compliance Matrix: (Units=1/GPa)
#
#
# Indices 1 2 3 4 5 6 
#
# 1 0.013577 0.000016 -0.004860 0.000000 0.000000 0.000000
# 2 0.000016 0.009820 -0.001511 0.000000 0.000000 0.000000
# 3 -0.004860 -0.001511 0.008552 0.000000 0.000000 0.000000
# 4 0.000000 0.000000 0.000000 -0.027519 0.000000 0.000000
# 5 0.000000 0.000000 0.000000 0.000000 0.033987 0.000000
# 6 0.000000 0.000000 0.000000 0.000000 0.000000 0.030987
#
#
# Mechanical properties :
#
#
# Convention : Reuss Voigt Hill
#
# Bulk Modulus (GPa) = 51.97635 58.01560 54.99598
# Shear Modulus (GPa) = 56.47945 22.70900 39.59422
#
# Velocity S-wave (km/s) = 5.06947 3.21452 4.24457
# Velocity P-wave (km/s) = 7.61029 6.33846 7.00331
#
# Compressibility (1/GPa) = 0.01923952
#
# Stress axis : x y z
#
# Youngs Moduli (GPa) = 73.65539 101.82946 116.92563
#
# Poissons Ratio (x) = -0.00161 0.56820
# Poissons Ratio (y) = -0.00116 0.17671
# Poissons Ratio (z) = 0.35793 0.15389
#
# Static dielectric constant tensor:
#      x y z
#    x 1.540080 0.000000 0.000000 
#    y 0.000000 1.851850 0.000000 
#    z 0.000000 0.000000 1.848750 
# 
# From -- ./inp_files/26299.got.cif
#   From: 2010.05.17/outbox.cif.g08.bks.cpg/sg64_14_cif.got.tgz:26299.got - 2010.06.03 16:29:19.
