data_PCOD9480222
_publ_section_title
;
Structure prediction by ZEFSAII (Michael W. Deem and Ramdas Pophale) SiO2 
 PCOD9480222
Probable space group: C M C A
;
_chemical_formula_sum "Si O2"
_cell_formula_units_Z 64
_cell_length_a 23.461473
_cell_length_b 14.344122
_cell_length_c 7.031257
_cell_angle_alpha 90.000000
_cell_angle_beta 90.000000
_cell_angle_gamma 90.000000
_cell_volume 2366.258668
_symmetry_space_group_name_H-M "C M C A"
_symmetry_group_IT_number 64
_symmetry_cell_setting 'orthorhombic'
loop_
_space_group_symop_operation_xyz
x,y,z
-x,1/2-y,1/2+z
x,-y,-z
-x,1/2+y,1/2-z
-x,-y,-z
x,1/2+y,1/2-z
-x,y,z
x,1/2-y,1/2+z
1/2+x,1/2+y,z
1/2-x,-y,1/2+z
1/2+x,1/2-y,-z
1/2-x,y,1/2-z
1/2-x,1/2-y,-z
1/2+x,y,1/2-z
1/2-x,1/2+y,z
1/2+x,-y,1/2+z
loop_
_atom_site_type_symbol
_atom_site_label
_atom_site_fract_x
_atom_site_fract_y
_atom_site_fract_z
Si Si1 0.500000 0.302529 0.337660
Si Si2 0.500000 0.403154 0.745542
Si Si3 0.710464 0.500000 0.000000
Si Si4 0.377999 0.592940 0.249735
Si Si5 0.250000 0.349215 0.250000
Si Si6 0.126614 0.794849 0.355738
O O1 0.500000 0.359300 0.534053
O O2 0.500000 0.190485 0.371992
O O3 0.564591 0.317445 0.260332
O O4 0.440240 0.453956 0.767725
O O5 0.670475 0.475675 0.821154
O O6 0.746742 0.587777 0.938677
O O7 0.376749 0.683343 0.113200
O O8 0.372149 0.639034 0.458077
O O9 0.188747 0.300894 0.241726
#
# Coordination Sequence:
#
# PCOD9480222 Si02
#       6
#     8   8   8  16   8  16
#     4   8  16  34  61  90 116 150 198 250 291 342
#     4   8  16  33  59  89 120 153 194 243 297 353
#     4  12  26  41  58  85 124 160 198 252 306 354
#     4  10  21  39  63  92 123 158 200 248 300 357
#     4  12  26  42  62  88 120 162 204 250 300 354
#     4  10  21  40  66  91 119 158 205 247 294 357
#
# _framework density 27.046917000000001
#
# number of rings (size 3 to 8) (size 9 to 14) (size 15 to 20)
#    0.000    2.000    0.000    3.000    0.000    7.500 
#    0.000    1.250    0.000    5.250    0.000    0.000 
#    0.000    0.000    0.000    0.000    0.000    0.000 
#
# Total GULP energy -178742.426369 kJ/mol
# GULP energy per Si atom -5585.700824 kJ/mol
# Density = 2.698536 g / cm^3
# Si number density = 27.046917 Si / 1000 Ang^3
#
#
#
# Elastic Constant Matrix: (Units=GPa)
#
#
# Indices 1 2 3 4 5 6 
#
# 1 268.6436 33.4993 45.9713 0.0000 0.0000 0.0000
# 2 33.4993 51.2238 -6.4538 0.0000 0.0000 0.0000
# 3 45.9713 -6.4538 73.4273 0.0000 0.0000 0.0000
# 4 0.0000 0.0000 0.0000 16.4177 0.0000 0.0000
# 5 0.0000 0.0000 0.0000 0.0000 48.0011 0.0000
# 6 0.0000 0.0000 0.0000 0.0000 0.0000 -2.2741
#
#
#
# Elastic Compliance Matrix: (Units=1/GPa)
#
#
# Indices 1 2 3 4 5 6 
#
# 1 0.004716 -0.003495 -0.003260 0.000000 0.000000 0.000000
# 2 -0.003495 0.022331 0.004151 0.000000 0.000000 0.000000
# 3 -0.003260 0.004151 0.016025 0.000000 0.000000 0.000000
# 4 0.000000 0.000000 0.000000 0.060910 0.000000 0.000000
# 5 0.000000 0.000000 0.000000 0.000000 0.020833 0.000000
# 6 0.000000 0.000000 0.000000 0.000000 0.000000 -0.439728
#
#
# Mechanical properties :
#
#
# Convention : Reuss Voigt Hill
#
# Bulk Modulus (GPa) = 26.41055 59.92537 43.16796
# Shear Modulus (GPa) = -16.83020 33.78080 8.47530
#
# Velocity S-wave (km/s) = -2.49722 3.53791 1.77211
# Velocity P-wave (km/s) = 1.21289 6.23645 4.49246
#
# Compressibility (1/GPa) = 0.03786366
#
# Stress axis : x y z
#
# Youngs Moduli (GPa) = 212.04229 44.78133 62.40393
#
# Poissons Ratio (x) = 0.15651 0.20342
# Poissons Ratio (y) = 0.74107 -0.25903
# Poissons Ratio (z) = 0.69121 -0.18588
#
# Static dielectric constant tensor:
#      x y z
#    x 2.057890 0.000000 0.000000 
#    y 0.000000 2.024350 0.000000 
#    z 0.000000 0.000000 2.197620 
# 
# From -- ./inp_files/7837.got.cif
#   From: 2010.05.17/outbox.cif.g08.bks.cpg/sg64_4_cif.got.tgz:7837.got - 2010.06.03 16:29:19.
