data_PCOD9480675
_publ_section_title
;
Structure prediction by ZEFSAII (Michael W. Deem and Ramdas Pophale) SiO2 
 PCOD9480675
Probable space group: C M C A
;
_chemical_formula_sum "Si O2"
_cell_formula_units_Z 88
_cell_length_a 25.880044
_cell_length_b 34.243354
_cell_length_c 5.157047
_cell_angle_alpha 90.000000
_cell_angle_beta 90.000000
_cell_angle_gamma 90.000000
_cell_volume 4570.275656
_symmetry_space_group_name_H-M "C M C A"
_symmetry_group_IT_number 64
_symmetry_cell_setting 'orthorhombic'
loop_
_space_group_symop_operation_xyz
x,y,z
-x,1/2-y,1/2+z
x,-y,-z
-x,1/2+y,1/2-z
-x,-y,-z
x,1/2+y,1/2-z
-x,y,z
x,1/2-y,1/2+z
1/2+x,1/2+y,z
1/2-x,-y,1/2+z
1/2+x,1/2-y,-z
1/2-x,y,1/2-z
1/2-x,1/2-y,-z
1/2+x,y,1/2-z
1/2-x,1/2+y,z
1/2+x,-y,1/2+z
loop_
_atom_site_type_symbol
_atom_site_label
_atom_site_fract_x
_atom_site_fract_y
_atom_site_fract_z
Si Si1 0.500000 0.118320 0.112831
Si Si2 0.848799 0.355299 0.298470
Si Si3 0.304761 0.959833 0.882867
Si Si4 0.750000 0.101622 0.750000
Si Si5 0.500000 0.326889 0.114222
Si Si6 0.612448 0.398352 0.720263
Si Si7 0.896352 0.223983 0.871946
O O1 0.500000 0.152121 0.334324
O O2 0.447065 0.094239 0.147903
O O3 0.500000 0.140266 0.837509
O O4 0.792121 0.370635 0.380461
O O5 0.885912 0.374356 0.513334
O O6 0.853870 0.309100 0.315645
O O7 0.864759 0.371452 0.014430
O O8 0.250000 0.970823 0.750000
O O9 0.350673 0.936283 0.741602
O O10 0.284268 0.927625 0.082727
O O11 0.325385 0.000000 0.000000
O O12 0.450279 0.299336 0.149126
O O13 0.893082 0.257329 0.655372
#
# Coordination Sequence:
#
# PCOD9480675 Si02
#       7
#     8  16  16   8   8  16  16
#     4  12  20  39  61  88 122 163 212 245 290 368
#     4  11  22  40  60  88 118 160 209 246 306 363
#     4  11  21  37  63  97 125 153 197 255 312 350
#     4  10  22  38  64  88 118 158 202 254 294 366
#     4  12  22  37  60  86 117 155 208 261 303 352
#     4  11  22  38  61  89 124 165 201 247 297 366
#     4  12  23  38  56  86 122 154 201 262 311 356
#
# _framework density 19.254854999999999
#
# number of rings (size 3 to 8) (size 9 to 14) (size 15 to 20)
#    0.000    0.727    6.364    2.727    0.000    0.000 
#    0.000    1.364    0.000    0.000    0.000    5.727 
#    0.000    0.000    0.000    0.000    0.000    0.000 
#
# Total GULP energy -245465.464782 kJ/mol
# GULP energy per Si atom -5578.760563 kJ/mol
# Density = 1.921103 g / cm^3
# Si number density = 19.254855 Si / 1000 Ang^3
#
#
#
# Elastic Constant Matrix: (Units=GPa)
#
#
# Indices 1 2 3 4 5 6 
#
# 1 63.2272 36.2424 -19.3879 0.0000 0.0000 0.0000
# 2 36.2424 66.7557 -0.1129 0.0000 0.0000 0.0000
# 3 -19.3879 -0.1129 58.2495 0.0000 0.0000 0.0000
# 4 0.0000 0.0000 0.0000 25.8103 0.0000 0.0000
# 5 0.0000 0.0000 0.0000 0.0000 28.4557 0.0000
# 6 0.0000 0.0000 0.0000 0.0000 0.0000 29.6585
#
#
#
# Elastic Compliance Matrix: (Units=1/GPa)
#
#
# Indices 1 2 3 4 5 6 
#
# 1 0.026926 -0.014603 0.008934 0.000000 0.000000 0.000000
# 2 -0.014603 0.022900 -0.004816 0.000000 0.000000 0.000000
# 3 0.008934 -0.004816 0.020132 0.000000 0.000000 0.000000
# 4 0.000000 0.000000 0.000000 0.038744 0.000000 0.000000
# 5 0.000000 0.000000 0.000000 0.000000 0.035142 0.000000
# 6 0.000000 0.000000 0.000000 0.000000 0.000000 0.033717
#
#
# Mechanical properties :
#
#
# Convention : Reuss Voigt Hill
#
# Bulk Modulus (GPa) = 20.41372 24.63506 22.52439
# Shear Modulus (GPa) = 23.27069 28.21762 25.74415
#
# Velocity S-wave (km/s) = 3.48021 3.83231 3.66050
# Velocity P-wave (km/s) = 5.17436 5.69246 5.43958
#
# Compressibility (1/GPa) = 0.04898666
#
# Stress axis : x y z
#
# Youngs Moduli (GPa) = 37.13842 43.66775 49.67272
#
# Poissons Ratio (x) = 0.63770 -0.44377
# Poissons Ratio (y) = 0.54235 0.23924
# Poissons Ratio (z) = -0.33179 0.21032
#
# Static dielectric constant tensor:
#      x y z
#    x 1.747800 0.000000 0.000000 
#    y 0.000000 1.769260 0.000000 
#    z 0.000000 0.000000 1.737130 
# 
# From -- ./inp_files/2998.got.cif
#   From: 2010.05.17/outbox.cif.g08.bks.cpg/sg64_2_cif.got.tgz:2998.got - 2010.06.03 16:29:19.
