data_PCOD9480993
_publ_section_title
;
Structure prediction by ZEFSAII (Michael W. Deem and Ramdas Pophale) SiO2 
 PCOD9480993
Probable space group: C M C A
;
_chemical_formula_sum "Si O2"
_cell_formula_units_Z 56
_cell_length_a 26.670816
_cell_length_b 6.905748
_cell_length_c 11.918322
_cell_angle_alpha 90.000000
_cell_angle_beta 90.000000
_cell_angle_gamma 90.000000
_cell_volume 2195.139599
_symmetry_space_group_name_H-M "C M C A"
_symmetry_group_IT_number 64
_symmetry_cell_setting 'orthorhombic'
loop_
_space_group_symop_operation_xyz
x,y,z
-x,1/2-y,1/2+z
x,-y,-z
-x,1/2+y,1/2-z
-x,-y,-z
x,1/2+y,1/2-z
-x,y,z
x,1/2-y,1/2+z
1/2+x,1/2+y,z
1/2-x,-y,1/2+z
1/2+x,1/2-y,-z
1/2-x,y,1/2-z
1/2-x,1/2-y,-z
1/2+x,y,1/2-z
1/2-x,1/2+y,z
1/2+x,-y,1/2+z
loop_
_atom_site_type_symbol
_atom_site_label
_atom_site_fract_x
_atom_site_fract_y
_atom_site_fract_z
Si Si1 0.500000 0.056397 0.308958
Si Si2 0.069392 0.631888 0.888945
Si Si3 0.794929 0.863870 0.101263
Si Si4 0.182047 0.937151 0.351299
O O1 0.456883 0.159857 0.387958
O O2 0.543147 0.970004 0.219939
O O3 0.128431 0.653267 0.872848
O O4 0.059969 0.500000 0.000000
O O5 0.818750 0.652615 0.098326
O O6 0.810913 0.958618 0.218156
O O7 0.734339 0.841863 0.109130
O O8 0.809088 0.000000 0.000000
#
# Coordination Sequence:
#
# PCOD9480993 Si02
#       4
#     8  16  16  16
#     4  10  22  42  66  92 120 160 222 272 326 394
#     4  11  24  45  68  95 133 174 214 277 339 389
#     4  11  23  40  63  97 138 182 222 268 320 386
#     4  11  23  40  64  97 137 180 225 266 322 401
#
# _framework density 25.510905999999999
#
# number of rings (size 3 to 8) (size 9 to 14) (size 15 to 20)
#    0.000    1.143    0.000    8.571    0.000    4.571 
#    0.000   14.286    0.000    0.000    0.000    0.000 
#    0.000    0.000    0.000    0.000    0.000    0.000 
#
# Total GULP energy -155950.257210 kJ/mol
# GULP energy per Si atom -5569.652043 kJ/mol
# Density = 2.545284 g / cm^3
# Si number density = 25.510906 Si / 1000 Ang^3
#
#
#
# Elastic Constant Matrix: (Units=GPa)
#
#
# Indices 1 2 3 4 5 6 
#
# 1 215.1943 40.9571 39.6004 0.0000 0.0000 0.0000
# 2 40.9571 70.5796 14.4883 0.0000 0.0000 0.0000
# 3 39.6004 14.4883 96.6684 0.0000 0.0000 0.0000
# 4 0.0000 0.0000 0.0000 37.0121 0.0000 0.0000
# 5 0.0000 0.0000 0.0000 0.0000 36.8356 0.0000
# 6 0.0000 0.0000 0.0000 0.0000 0.0000 73.0591
#
#
#
# Elastic Compliance Matrix: (Units=1/GPa)
#
#
# Indices 1 2 3 4 5 6 
#
# 1 0.005524 -0.002828 -0.001839 0.000000 0.000000 0.000000
# 2 -0.002828 0.016066 -0.001249 0.000000 0.000000 0.000000
# 3 -0.001839 -0.001249 0.011285 0.000000 0.000000 0.000000
# 4 0.000000 0.000000 0.000000 0.027018 0.000000 0.000000
# 5 0.000000 0.000000 0.000000 0.000000 0.027148 0.000000
# 6 0.000000 0.000000 0.000000 0.000000 0.000000 0.013688
#
#
# Mechanical properties :
#
#
# Convention : Reuss Voigt Hill
#
# Bulk Modulus (GPa) = 47.52345 63.61488 55.56917
# Shear Modulus (GPa) = 41.81491 48.54112 45.17801
#
# Velocity S-wave (km/s) = 4.05297 4.36680 4.21281
# Velocity P-wave (km/s) = 6.36955 7.10040 6.74488
#
# Compressibility (1/GPa) = 0.02104224
#
# Stress axis : x y z
#
# Youngs Moduli (GPa) = 181.04218 62.24381 88.61146
#
# Poissons Ratio (x) = 0.17601 0.16295
# Poissons Ratio (y) = 0.51196 0.11072
# Poissons Ratio (z) = 0.33292 0.07777
#
# Static dielectric constant tensor:
#      x y z
#    x 1.920650 0.000000 0.000000 
#    y 0.000000 2.115100 0.000000 
#    z 0.000000 0.000000 2.198970 
# 
# From -- ./inp_files/18830.got.cif
#   From: 2010.05.17/outbox.cif.g08.bks.cpg/sg64_10_cif.got.tgz:18830.got - 2010.06.03 16:29:19.
