data_PCOD9480139
_publ_section_title
;
Structure prediction by ZEFSAII (Michael W. Deem and Ramdas Pophale) SiO2 
 PCOD9480139
Probable space group: C M C A
;
_chemical_formula_sum "Si O2"
_cell_formula_units_Z 88
_cell_length_a 21.342001
_cell_length_b 11.961359
_cell_length_c 15.265457
_cell_angle_alpha 90.000000
_cell_angle_beta 90.000000
_cell_angle_gamma 90.000000
_cell_volume 3896.955723
_symmetry_space_group_name_H-M "C M C A"
_symmetry_group_IT_number 64
_symmetry_cell_setting 'orthorhombic'
loop_
_space_group_symop_operation_xyz
x,y,z
-x,1/2-y,1/2+z
x,-y,-z
-x,1/2+y,1/2-z
-x,-y,-z
x,1/2+y,1/2-z
-x,y,z
x,1/2-y,1/2+z
1/2+x,1/2+y,z
1/2-x,-y,1/2+z
1/2+x,1/2-y,-z
1/2-x,y,1/2-z
1/2-x,1/2-y,-z
1/2+x,y,1/2-z
1/2-x,1/2+y,z
1/2+x,-y,1/2+z
loop_
_atom_site_type_symbol
_atom_site_label
_atom_site_fract_x
_atom_site_fract_y
_atom_site_fract_z
Si Si1 0.127908 0.668193 0.375823
Si Si2 0.316825 0.951499 0.297048
Si Si3 0.069362 0.182094 0.759626
Si Si4 0.152971 0.500000 0.000000
Si Si5 0.764375 0.181469 0.587318
Si Si6 0.427034 0.784045 0.954180
O O1 0.152183 0.544709 0.358836
O O2 0.078764 0.713331 0.305216
O O3 0.190005 0.740813 0.358314
O O4 0.102858 0.702855 0.471530
O O5 0.250000 0.983677 0.250000
O O6 0.375900 0.907782 0.241087
O O7 0.295712 0.848818 0.357725
O O8 0.074090 0.227777 0.858772
O O9 0.000000 0.133456 0.746958
O O10 0.199470 0.432597 0.063875
O O11 0.110796 0.598639 0.041569
O O12 0.750000 0.250000 0.500000
O O13 0.500000 0.804036 0.976916
#
# Coordination Sequence:
#
# PCOD9480139 Si02
#       6
#    16  16  16   8  16  16
#     4  11  25  43  70 101 144 187 240 301 361 431
#     4  12  26  43  73 104 144 188 240 301 366 437
#     4  11  26  47  70 102 143 190 241 299 360 434
#     4  10  21  38  68  98 135 186 230 294 346 430
#     4  11  23  42  67 103 143 178 236 291 366 428
#     4  10  23  43  69 102 145 190 242 296 358 433
#
# _framework density 22.581727999999998
#
# number of rings (size 3 to 8) (size 9 to 14) (size 15 to 20)
#    0.000    1.091    1.818    4.091    5.091    3.636 
#    0.000    5.455    0.000    0.000    0.000    0.000 
#    0.000    0.000    0.000    0.000    0.000    0.000 
#
# Total GULP energy -245803.483624 kJ/mol
# GULP energy per Si atom -5586.442810 kJ/mol
# Density = 2.253033 g / cm^3
# Si number density = 22.581728 Si / 1000 Ang^3
#
#
#
# Elastic Constant Matrix: (Units=GPa)
#
#
# Indices 1 2 3 4 5 6 
#
# 1 147.7999 12.1275 18.5711 0.0000 0.0000 0.0000
# 2 12.1275 26.7340 12.7080 0.0000 0.0000 0.0000
# 3 18.5711 12.7080 99.1070 0.0000 0.0000 0.0000
# 4 0.0000 0.0000 0.0000 29.7275 0.0000 0.0000
# 5 0.0000 0.0000 0.0000 0.0000 29.6309 0.0000
# 6 0.0000 0.0000 0.0000 0.0000 0.0000 30.9434
#
#
#
# Elastic Compliance Matrix: (Units=1/GPa)
#
#
# Indices 1 2 3 4 5 6 
#
# 1 0.007116 -0.002762 -0.000979 0.000000 0.000000 0.000000
# 2 -0.002762 0.040906 -0.004728 0.000000 0.000000 0.000000
# 3 -0.000979 -0.004728 0.010880 0.000000 0.000000 0.000000
# 4 0.000000 0.000000 0.000000 0.033639 0.000000 0.000000
# 5 0.000000 0.000000 0.000000 0.000000 0.033749 0.000000
# 6 0.000000 0.000000 0.000000 0.000000 0.000000 0.032317
#
#
# Mechanical properties :
#
#
# Convention : Reuss Voigt Hill
#
# Bulk Modulus (GPa) = 23.83047 40.05047 31.94047
# Shear Modulus (GPa) = 26.38078 33.40930 29.89504
#
# Velocity S-wave (km/s) = 3.42165 3.85058 3.64244
# Velocity P-wave (km/s) = 5.11724 6.12728 5.64490
#
# Compressibility (1/GPa) = 0.04196309
#
# Stress axis : x y z
#
# Youngs Moduli (GPa) = 140.53621 24.44628 91.91374
#
# Poissons Ratio (x) = 0.06753 0.09000
# Poissons Ratio (y) = 0.38823 0.43453
# Poissons Ratio (z) = 0.13760 0.11557
#
# Static dielectric constant tensor:
#      x y z
#    x 1.871680 0.000000 0.000000 
#    y 0.000000 1.833500 0.000000 
#    z 0.000000 0.000000 1.879570 
# 
# From -- ./inp_files/27166.got.cif
#   From: 2010.05.17/outbox.cif.g08.bks.cpg/sg64_14_cif.got.tgz:27166.got - 2010.06.03 16:29:19.
