data_PCOD9480700
_publ_section_title
;
Structure prediction by ZEFSAII (Michael W. Deem and Ramdas Pophale) SiO2 
 PCOD9480700
Probable space group: C M C A
;
_chemical_formula_sum "Si O2"
_cell_formula_units_Z 64
_cell_length_a 17.644625
_cell_length_b 14.755451
_cell_length_c 12.640790
_cell_angle_alpha 90.000000
_cell_angle_beta 90.000000
_cell_angle_gamma 90.000000
_cell_volume 3291.085291
_symmetry_space_group_name_H-M "C M C A"
_symmetry_group_IT_number 64
_symmetry_cell_setting 'orthorhombic'
loop_
_space_group_symop_operation_xyz
x,y,z
-x,1/2-y,1/2+z
x,-y,-z
-x,1/2+y,1/2-z
-x,-y,-z
x,1/2+y,1/2-z
-x,y,z
x,1/2-y,1/2+z
1/2+x,1/2+y,z
1/2-x,-y,1/2+z
1/2+x,1/2-y,-z
1/2-x,y,1/2-z
1/2-x,1/2-y,-z
1/2+x,y,1/2-z
1/2-x,1/2+y,z
1/2+x,-y,1/2+z
loop_
_atom_site_type_symbol
_atom_site_label
_atom_site_fract_x
_atom_site_fract_y
_atom_site_fract_z
Si Si1 0.091223 0.596892 0.540944
Si Si2 0.913715 0.439236 0.892814
Si Si3 0.408340 0.286164 0.454125
Si Si4 0.338818 0.906717 0.230806
O O1 0.119843 0.500000 0.500000
O O2 0.113912 0.682035 0.468789
O O3 0.118946 0.611051 0.659638
O O4 0.000000 0.595097 0.540646
O O5 0.861643 0.493216 0.811849
O O6 0.000000 0.435628 0.850907
O O7 0.915435 0.500000 0.000000
O O8 0.891087 0.341139 0.937139
O O9 0.500000 0.293383 0.439711
O O10 0.367704 0.336472 0.357946
O O11 0.250000 0.900028 0.250000
#
# Coordination Sequence:
#
# PCOD9480700 Si02
#       4
#    16  16  16  16
#     4  10  22  39  58  82 112 146 190 243 286 323
#     4   8  15  32  58  81 102 136 186 231 263 318
#     4   9  19  38  62  83 107 148 197 234 271 333
#     4  11  22  35  55  84 117 150 180 227 290 345
#
# _framework density 19.446472
#
# number of rings (size 3 to 8) (size 9 to 14) (size 15 to 20)
#    0.000    2.500    0.000    3.750    0.000    6.000 
#    0.000   10.000    0.000    0.000    0.000    0.000 
#    0.000    0.000    0.000    0.000    0.000    0.000 
#
# Total GULP energy -178572.787191 kJ/mol
# GULP energy per Si atom -5580.399600 kJ/mol
# Density = 1.940221 g / cm^3
# Si number density = 19.446472 Si / 1000 Ang^3
#
#
#
# Elastic Constant Matrix: (Units=GPa)
#
#
# Indices 1 2 3 4 5 6 
#
# 1 38.7363 51.8237 41.1508 0.0000 0.0000 0.0000
# 2 51.8237 160.2029 57.3773 0.0000 0.0000 0.0000
# 3 41.1508 57.3773 91.0512 0.0000 0.0000 0.0000
# 4 0.0000 0.0000 0.0000 25.4679 0.0000 0.0000
# 5 0.0000 0.0000 0.0000 0.0000 292.4775 0.0000
# 6 0.0000 0.0000 0.0000 0.0000 0.0000 -1.4463
#
#
#
# Elastic Compliance Matrix: (Units=1/GPa)
#
#
# Indices 1 2 3 4 5 6 
#
# 1 0.067872 -0.014167 -0.021747 0.000000 0.000000 0.000000
# 2 -0.014167 0.011019 -0.000541 0.000000 0.000000 0.000000
# 3 -0.021747 -0.000541 0.021152 0.000000 0.000000 0.000000
# 4 0.000000 0.000000 0.000000 0.039265 0.000000 0.000000
# 5 0.000000 0.000000 0.000000 0.000000 0.003419 0.000000
# 6 0.000000 0.000000 0.000000 0.000000 0.000000 -0.691423
#
#
# Mechanical properties :
#
#
# Convention : Reuss Voigt Hill
#
# Bulk Modulus (GPa) = 36.85588 65.63268 51.24428
# Shear Modulus (GPa) = -10.71255 72.60906 30.94825
#
# Velocity S-wave (km/s) = -2.34962 6.11710 3.99364
# Velocity P-wave (km/s) = 3.41067 9.14963 6.90465
#
# Compressibility (1/GPa) = 0.02713271
#
# Stress axis : x y z
#
# Youngs Moduli (GPa) = 14.73372 90.75605 47.27595
#
# Poissons Ratio (x) = 1.28572 1.02813
# Poissons Ratio (y) = 0.20873 0.02557
# Poissons Ratio (z) = 0.32042 0.04908
#
# Static dielectric constant tensor:
#      x y z
#    x 1.649370 0.000000 0.000000 
#    y 0.000000 1.733200 0.000000 
#    z 0.000000 0.000000 1.657210 
# 
# From -- ./inp_files/15456.got.cif
#   From: 2010.05.17/outbox.cif.g08.bks.cpg/sg64_8_cif.got.tgz:15456.got - 2010.06.03 16:29:19.
