data_PCOD9480263
_publ_section_title
;
Structure prediction by ZEFSAII (Michael W. Deem and Ramdas Pophale) SiO2 
 PCOD9480263
Probable space group: C M C A
;
_chemical_formula_sum "Si O2"
_cell_formula_units_Z 116
_cell_length_a 11.426620
_cell_length_b 28.260481
_cell_length_c 17.217967
_cell_angle_alpha 90.000000
_cell_angle_beta 90.000000
_cell_angle_gamma 90.000000
_cell_volume 5560.056507
_symmetry_space_group_name_H-M "C M C A"
_symmetry_group_IT_number 64
_symmetry_cell_setting 'orthorhombic'
loop_
_space_group_symop_operation_xyz
x,y,z
-x,1/2-y,1/2+z
x,-y,-z
-x,1/2+y,1/2-z
-x,-y,-z
x,1/2+y,1/2-z
-x,y,z
x,1/2-y,1/2+z
1/2+x,1/2+y,z
1/2-x,-y,1/2+z
1/2+x,1/2-y,-z
1/2-x,y,1/2-z
1/2-x,1/2-y,-z
1/2+x,y,1/2-z
1/2-x,1/2+y,z
1/2+x,-y,1/2+z
loop_
_atom_site_type_symbol
_atom_site_label
_atom_site_fract_x
_atom_site_fract_y
_atom_site_fract_z
Si Si1 0.127994 0.363722 0.202062
Si Si2 0.753413 0.820102 0.436945
Si Si3 0.633668 0.362418 0.699957
Si Si4 0.296187 0.466865 0.333790
Si Si5 0.500000 0.000000 0.000000
Si Si6 0.636432 0.277207 0.591746
Si Si7 0.637137 0.078714 0.537757
Si Si8 0.326100 0.942029 0.923175
O O1 0.250000 0.355822 0.250000
O O2 0.144919 0.334936 0.122545
O O3 0.130959 0.419393 0.181119
O O4 0.000000 0.352985 0.238332
O O5 0.685883 0.775447 0.401232
O O6 0.798945 0.803255 0.520548
O O7 0.674935 0.866910 0.447463
O O8 0.500000 0.367150 0.733487
O O9 0.750000 0.374561 0.750000
O O10 0.648878 0.309154 0.668334
O O11 0.637713 0.396122 0.624072
O O12 0.250000 0.481611 0.250000
O O13 0.192289 0.451349 0.391776
O O14 0.355515 0.513186 0.368890
O O15 0.400344 0.957468 0.997496
O O16 0.500000 0.274894 0.572444
O O17 0.500000 0.073466 0.535502
O O18 0.696481 0.063134 0.456570
#
# Coordination Sequence:
#
# PCOD9480263 Si02
#       8
#    16  16  16  16   4  16  16  16
#     4  10  23  40  63  93 129 170 214 268 329 395
#     4  10  21  39  65  96 126 167 217 266 333 392
#     4  11  25  45  68  97 133 176 223 273 334 400
#     4  10  23  39  59  89 127 171 213 263 326 390
#     4  12  24  40  70  96 124 164 238 274 312 400
#     4  10  21  40  65  94 126 166 218 275 326 395
#     4  11  23  41  64  98 133 167 214 275 336 396
#     4  12  23  42  66  94 124 174 220 275 323 392
#
# _framework density 20.863095999999999
#
# number of rings (size 3 to 8) (size 9 to 14) (size 15 to 20)
#    0.000    1.379    3.448    1.241    0.966    7.724 
#    0.000    2.759    0.000    0.000    0.000    0.000 
#    0.000    0.000    0.000    0.000    0.000    0.000 
#
# Total GULP energy -323107.008272 kJ/mol
# GULP energy per Si atom -5570.810487 kJ/mol
# Density = 2.081561 g / cm^3
# Si number density = 20.863096 Si / 1000 Ang^3
#
#
#
# Elastic Constant Matrix: (Units=GPa)
#
#
# Indices 1 2 3 4 5 6 
#
# 1 154.5485 5.0516 19.9059 0.0000 0.0000 0.0000
# 2 5.0516 69.9968 4.2805 0.0000 0.0000 0.0000
# 3 19.9059 4.2805 43.1480 0.0000 0.0000 0.0000
# 4 0.0000 0.0000 0.0000 24.5243 0.0000 0.0000
# 5 0.0000 0.0000 0.0000 0.0000 8.2215 0.0000
# 6 0.0000 0.0000 0.0000 0.0000 0.0000 5.7975
#
#
#
# Elastic Compliance Matrix: (Units=1/GPa)
#
#
# Indices 1 2 3 4 5 6 
#
# 1 0.006886 -0.000305 -0.003146 0.000000 0.000000 0.000000
# 2 -0.000305 0.014387 -0.001287 0.000000 0.000000 0.000000
# 3 -0.003146 -0.001287 0.024755 0.000000 0.000000 0.000000
# 4 0.000000 0.000000 0.000000 0.040776 0.000000 0.000000
# 5 0.000000 0.000000 0.000000 0.000000 0.121633 0.000000
# 6 0.000000 0.000000 0.000000 0.000000 0.000000 0.172488
#
#
# Mechanical properties :
#
#
# Convention : Reuss Voigt Hill
#
# Bulk Modulus (GPa) = 27.35789 36.24103 31.79946
# Shear Modulus (GPa) = 12.41976 23.60569 18.01272
#
# Velocity S-wave (km/s) = 2.44252 3.36736 2.94152
# Velocity P-wave (km/s) = 4.59304 5.70328 5.17801
#
# Compressibility (1/GPa) = 0.03655253
#
# Stress axis : x y z
#
# Youngs Moduli (GPa) = 145.22906 69.50701 40.39542
#
# Poissons Ratio (x) = 0.02117 0.12710
# Poissons Ratio (y) = 0.04422 0.05198
# Poissons Ratio (z) = 0.45695 0.08944
#
# Static dielectric constant tensor:
#      x y z
#    x 1.759710 0.000000 0.000000 
#    y 0.000000 1.730550 0.000000 
#    z 0.000000 0.000000 1.872390 
# 
# From -- ./inp_files/31293.got.cif
#   From: 2010.05.17/outbox.cif.g08.bks.cpg/sg64_16_cif.got.tgz:31293.got - 2010.06.03 16:29:19.
