data_PCOD9480660
_publ_section_title
;
Structure prediction by ZEFSAII (Michael W. Deem and Ramdas Pophale) SiO2 
 PCOD9480660
Probable space group: C M C A
;
_chemical_formula_sum "Si O2"
_cell_formula_units_Z 72
_cell_length_a 15.991627
_cell_length_b 11.688620
_cell_length_c 20.653404
_cell_angle_alpha 90.000000
_cell_angle_beta 90.000000
_cell_angle_gamma 90.000000
_cell_volume 3860.535333
_symmetry_space_group_name_H-M "C M C A"
_symmetry_group_IT_number 64
_symmetry_cell_setting 'orthorhombic'
loop_
_space_group_symop_operation_xyz
x,y,z
-x,1/2-y,1/2+z
x,-y,-z
-x,1/2+y,1/2-z
-x,-y,-z
x,1/2+y,1/2-z
-x,y,z
x,1/2-y,1/2+z
1/2+x,1/2+y,z
1/2-x,-y,1/2+z
1/2+x,1/2-y,-z
1/2-x,y,1/2-z
1/2-x,1/2-y,-z
1/2+x,y,1/2-z
1/2-x,1/2+y,z
1/2+x,-y,1/2+z
loop_
_atom_site_type_symbol
_atom_site_label
_atom_site_fract_x
_atom_site_fract_y
_atom_site_fract_z
Si Si1 0.500000 0.042462 0.630500
Si Si2 0.500000 0.814005 0.873088
Si Si3 0.408115 0.773594 0.112024
Si Si4 0.830470 0.560199 0.431140
Si Si5 0.000000 0.652453 0.279640
Si Si6 0.143006 0.478279 0.922297
O O1 0.500000 0.177360 0.620812
O O2 0.414173 0.992692 0.600410
O O3 0.500000 0.981399 0.700837
O O4 0.500000 0.835088 0.796106
O O5 0.581184 0.875290 0.903844
O O6 0.500000 0.761508 0.080556
O O7 0.345454 0.696379 0.070993
O O8 0.422851 0.716491 0.183004
O O9 0.386616 0.905585 0.112348
O O10 0.826443 0.500000 0.500000
O O11 0.738934 0.541126 0.401579
O O12 0.138621 0.500000 0.000000
#
# Coordination Sequence:
#
# PCOD9480660 Si02
#       6
#     8   8  16  16   8  16
#     4  10  23  39  63  90 116 156 218 240 301 363
#     4  12  24  38  67  84 124 155 211 252 302 357
#     4   9  20  41  62  78 127 157 201 244 303 350
#     4  10  22  38  62  90 123 162 197 245 305 367
#     4   8  21  43  63  82 111 175 197 249 299 350
#     4  11  25  37  61  97 125 159 197 251 315 359
#
# _framework density 18.650264
#
# number of rings (size 3 to 8) (size 9 to 14) (size 15 to 20)
#    0.667    1.333    2.222    0.667    9.333    1.778 
#    0.000    4.444    0.000    0.000    0.000    0.000 
#    0.000    0.000    0.000    0.000    0.000    0.000 
#
# Total GULP energy -200406.958743 kJ/mol
# GULP energy per Si atom -5566.859965 kJ/mol
# Density = 1.860781 g / cm^3
# Si number density = 18.650264 Si / 1000 Ang^3
#
#
#
# Elastic Constant Matrix: (Units=GPa)
#
#
# Indices 1 2 3 4 5 6 
#
# 1 129.0486 48.7183 25.9219 0.0000 0.0000 0.0000
# 2 48.7183 131.1159 4.5079 0.0000 0.0000 0.0000
# 3 25.9219 4.5079 29.6696 0.0000 0.0000 0.0000
# 4 0.0000 0.0000 0.0000 9.3615 0.0000 0.0000
# 5 0.0000 0.0000 0.0000 0.0000 105.4114 0.0000
# 6 0.0000 0.0000 0.0000 0.0000 0.0000 166.2206
#
#
#
# Elastic Compliance Matrix: (Units=1/GPa)
#
#
# Indices 1 2 3 4 5 6 
#
# 1 0.010986 -0.003772 -0.009025 0.000000 0.000000 0.000000
# 2 -0.003772 0.008962 0.001934 0.000000 0.000000 0.000000
# 3 -0.009025 0.001934 0.041296 0.000000 0.000000 0.000000
# 4 0.000000 0.000000 0.000000 0.106820 0.000000 0.000000
# 5 0.000000 0.000000 0.000000 0.000000 0.009487 0.000000
# 6 0.000000 0.000000 0.000000 0.000000 0.000000 0.006016
#
#
# Mechanical properties :
#
#
# Convention : Reuss Voigt Hill
#
# Bulk Modulus (GPa) = 25.30543 49.79224 37.54883
# Shear Modulus (GPa) = 22.88697 70.24445 46.56571
#
# Velocity S-wave (km/s) = 3.50689 6.14376 5.00221
# Velocity P-wave (km/s) = 5.47682 8.77973 7.31708
#
# Compressibility (1/GPa) = 0.03951721
#
# Stress axis : x y z
#
# Youngs Moduli (GPa) = 91.02709 111.58503 24.21553
#
# Poissons Ratio (x) = 0.42086 0.21855
# Poissons Ratio (y) = 0.34332 -0.04682
# Poissons Ratio (z) = 0.82152 -0.21576
#
# Static dielectric constant tensor:
#      x y z
#    x 1.686640 0.000000 0.000000 
#    y 0.000000 1.680020 0.000000 
#    z 0.000000 0.000000 1.649980 
# 
# From -- ./inp_files/39965.got.cif
#   From: 2010.05.17/outbox.cif.g08.bks.cpg/sg64_20_cif.got.tgz:39965.got - 2010.06.03 16:29:19.
