data_PCOD9480981
_publ_section_title
;
Structure prediction by ZEFSAII (Michael W. Deem and Ramdas Pophale) SiO2 
 PCOD9480981
Probable space group: C M C A
;
_chemical_formula_sum "Si O2"
_cell_formula_units_Z 112
_cell_length_a 15.917366
_cell_length_b 12.103367
_cell_length_c 28.886634
_cell_angle_alpha 90.000000
_cell_angle_beta 90.000000
_cell_angle_gamma 90.000000
_cell_volume 5565.117567
_symmetry_space_group_name_H-M "C M C A"
_symmetry_group_IT_number 64
_symmetry_cell_setting 'orthorhombic'
loop_
_space_group_symop_operation_xyz
x,y,z
-x,1/2-y,1/2+z
x,-y,-z
-x,1/2+y,1/2-z
-x,-y,-z
x,1/2+y,1/2-z
-x,y,z
x,1/2-y,1/2+z
1/2+x,1/2+y,z
1/2-x,-y,1/2+z
1/2+x,1/2-y,-z
1/2-x,y,1/2-z
1/2-x,1/2-y,-z
1/2+x,y,1/2-z
1/2-x,1/2+y,z
1/2+x,-y,1/2+z
loop_
_atom_site_type_symbol
_atom_site_label
_atom_site_fract_x
_atom_site_fract_y
_atom_site_fract_z
Si Si1 0.172950 0.107155 0.330576
Si Si2 0.901987 0.777557 0.917369
Si Si3 0.903664 0.308071 0.738467
Si Si4 0.600443 0.194195 0.613792
Si Si5 0.397278 0.374541 0.010641
Si Si6 0.100135 0.867923 0.335440
Si Si7 0.635210 0.961134 0.655986
O O1 0.155016 0.162538 0.281089
O O2 0.145669 0.196779 0.368182
O O3 0.267303 0.067651 0.338276
O O4 0.118500 0.995856 0.332440
O O5 0.864101 0.686796 0.882520
O O6 0.898146 0.891542 0.888125
O O7 0.000000 0.748554 0.923988
O O8 0.866357 0.798324 0.968256
O O9 0.870975 0.203636 0.708683
O O10 0.905584 0.409381 0.701945
O O11 0.000000 0.287924 0.754565
O O12 0.500000 0.211690 0.614127
O O13 0.627362 0.163511 0.561658
O O14 0.619622 0.089208 0.646577
O O15 0.500000 0.374023 0.009609
O O16 0.371093 0.500000 0.000000
O O17 0.000000 0.849086 0.336051
#
# Coordination Sequence:
#
# PCOD9480981 Si02
#       7
#    16  16  16  16  16  16  16
#     4  12  26  40  59  90 132 161 199 257 318 367
#     4   9  17  36  65  89 115 158 209 257 304 365
#     4  10  22  42  65  85 114 163 212 249 300 373
#     4  11  23  40  66  95 126 164 213 262 305 364
#     4   9  16  32  62  95 119 153 213 267 299 349
#     4   9  20  39  63  86 119 161 206 249 308 378
#     4  11  23  38  61  91 125 158 202 255 316 366
#
# _framework density 20.125361000000002
#
# number of rings (size 3 to 8) (size 9 to 14) (size 15 to 20)
#    0.000    1.857    1.429    3.857    6.000    0.000 
#    0.000    1.429    3.143    3.429    0.000    0.000 
#    0.000    0.000    0.000    0.000    0.000    0.000 
#
# Total GULP energy -312808.997014 kJ/mol
# GULP energy per Si atom -5585.874947 kJ/mol
# Density = 2.007956 g / cm^3
# Si number density = 20.125361 Si / 1000 Ang^3
#
#
#
# Elastic Constant Matrix: (Units=GPa)
#
#
# Indices 1 2 3 4 5 6 
#
# 1 36.2497 -5.1995 10.2503 0.0000 0.0000 0.0000
# 2 -5.1995 107.6477 43.7569 0.0000 0.0000 0.0000
# 3 10.2503 43.7569 115.7216 0.0000 0.0000 0.0000
# 4 0.0000 0.0000 0.0000 18.5372 0.0000 0.0000
# 5 0.0000 0.0000 0.0000 0.0000 5.0473 0.0000
# 6 0.0000 0.0000 0.0000 0.0000 0.0000 -10.0118
#
#
#
# Elastic Compliance Matrix: (Units=1/GPa)
#
#
# Indices 1 2 3 4 5 6 
#
# 1 0.029038 0.002893 -0.003666 0.000000 0.000000 0.000000
# 2 0.002893 0.011265 -0.004516 0.000000 0.000000 0.000000
# 3 -0.003666 -0.004516 0.010674 0.000000 0.000000 0.000000
# 4 0.000000 0.000000 0.000000 0.053945 0.000000 0.000000
# 5 0.000000 0.000000 0.000000 0.000000 0.198124 0.000000
# 6 0.000000 0.000000 0.000000 0.000000 0.000000 -0.099882
#
#
# Mechanical properties :
#
#
# Convention : Reuss Voigt Hill
#
# Bulk Modulus (GPa) = 24.75333 39.69270 32.22302
# Shear Modulus (GPa) = 22.00623 16.76863 19.38743
#
# Velocity S-wave (km/s) = 3.31033 2.88967 3.10713
# Velocity P-wave (km/s) = 5.19012 5.55870 5.37757
#
# Compressibility (1/GPa) = 0.04039861
#
# Stress axis : x y z
#
# Youngs Moduli (GPa) = 34.43767 88.77172 93.68874
#
# Poissons Ratio (x) = -0.25679 0.34345
# Poissons Ratio (y) = -0.09962 0.42307
# Poissons Ratio (z) = 0.12625 0.40087
#
# Static dielectric constant tensor:
#      x y z
#    x 1.745240 0.000000 0.000000 
#    y 0.000000 1.687620 0.000000 
#    z 0.000000 0.000000 1.722690 
# 
# From -- ./inp_files/53287.got.cif
#   From: 2010.05.17/outbox.cif.g08.bks.cpg/sg64_27_cif.got.tgz:53287.got - 2010.06.03 16:29:19.
