data_PCOD9480054
_publ_section_title
;
Structure prediction by ZEFSAII (Michael W. Deem and Ramdas Pophale) SiO2 
 PCOD9480054
Probable space group: C M C A
;
_chemical_formula_sum "Si O2"
_cell_formula_units_Z 96
_cell_length_a 8.911010
_cell_length_b 23.906814
_cell_length_c 25.799521
_cell_angle_alpha 90.000000
_cell_angle_beta 90.000000
_cell_angle_gamma 90.000000
_cell_volume 5496.171509
_symmetry_space_group_name_H-M "C M C A"
_symmetry_group_IT_number 64
_symmetry_cell_setting 'orthorhombic'
loop_
_space_group_symop_operation_xyz
x,y,z
-x,1/2-y,1/2+z
x,-y,-z
-x,1/2+y,1/2-z
-x,-y,-z
x,1/2+y,1/2-z
-x,y,z
x,1/2-y,1/2+z
1/2+x,1/2+y,z
1/2-x,-y,1/2+z
1/2+x,1/2-y,-z
1/2-x,y,1/2-z
1/2-x,1/2-y,-z
1/2+x,y,1/2-z
1/2-x,1/2+y,z
1/2+x,-y,1/2+z
loop_
_atom_site_type_symbol
_atom_site_label
_atom_site_fract_x
_atom_site_fract_y
_atom_site_fract_z
Si Si1 0.819946 0.503969 0.939363
Si Si2 0.320763 0.811240 0.503043
Si Si3 0.321558 0.117279 0.600603
Si Si4 0.679152 0.814179 0.193772
Si Si5 0.820366 0.683755 0.306308
Si Si6 0.320189 0.379828 0.597915
O O1 0.741217 0.556001 0.912069
O O2 0.786003 0.445023 0.912108
O O3 0.000000 0.512555 0.938228
O O4 0.775072 0.500000 0.000000
O O5 0.500000 0.807533 0.510361
O O6 0.250000 0.750000 0.500000
O O7 0.290791 0.844458 0.449846
O O8 0.247919 0.844972 0.550288
O O9 0.500000 0.115166 0.608254
O O10 0.245129 0.145666 0.650082
O O11 0.500000 0.819885 0.196563
O O12 0.750000 0.825639 0.250000
O O13 0.713361 0.749008 0.180770
O O14 0.750000 0.672585 0.250000
O O15 0.749767 0.644192 0.349609
O O16 0.000000 0.677518 0.304520
O O17 0.500000 0.373227 0.598545
#
# Coordination Sequence:
#
# PCOD9480054 Si02
#       6
#    16  16  16  16  16  16
#     4  10  21  39  60  82 112 155 198 238 288 343
#     4  11  23  36  54  83 117 151 188 235 289 345
#     4  11  23  37  57  85 116 150 192 239 286 340
#     4  10  21  38  61  86 116 152 190 234 286 344
#     4  10  21  38  61  88 118 154 192 236 289 345
#     4  11  22  37  59  85 115 151 193 239 287 343
#
# _framework density 17.466702999999999
#
# number of rings (size 3 to 8) (size 9 to 14) (size 15 to 20)
#    0.000    1.500    1.667    3.500    0.000    8.333 
#    0.000    0.833    0.000    4.000    0.000    0.000 
#    0.000    0.000    0.000    0.000    0.000    0.000 
#
# Total GULP energy -268306.331290 kJ/mol
# GULP energy per Si atom -5589.715235 kJ/mol
# Density = 1.742695 g / cm^3
# Si number density = 17.466703 Si / 1000 Ang^3
#
#
#
# Elastic Constant Matrix: (Units=GPa)
#
#
# Indices 1 2 3 4 5 6 
#
# 1 80.5070 91.6698 83.3185 0.0000 0.0000 0.0000
# 2 91.6698 166.5286 111.0196 0.0000 0.0000 0.0000
# 3 83.3185 111.0196 154.4814 0.0000 0.0000 0.0000
# 4 0.0000 0.0000 0.0000 1.6653 0.0000 0.0000
# 5 0.0000 0.0000 0.0000 0.0000 36.4097 0.0000
# 6 0.0000 0.0000 0.0000 0.0000 0.0000 31.2755
#
#
#
# Elastic Compliance Matrix: (Units=1/GPa)
#
#
# Indices 1 2 3 4 5 6 
#
# 1 0.041810 -0.015324 -0.011537 0.000000 0.000000 0.000000
# 2 -0.015324 0.017145 -0.004056 0.000000 0.000000 0.000000
# 3 -0.011537 -0.004056 0.015611 0.000000 0.000000 0.000000
# 4 0.000000 0.000000 0.000000 0.600498 0.000000 0.000000
# 5 0.000000 0.000000 0.000000 0.000000 0.027465 0.000000
# 6 0.000000 0.000000 0.000000 0.000000 0.000000 0.031974
#
#
# Mechanical properties :
#
#
# Convention : Reuss Voigt Hill
#
# Bulk Modulus (GPa) = 78.55056 108.17032 93.36044
# Shear Modulus (GPa) = 6.24546 21.57071 13.90809
#
# Velocity S-wave (km/s) = 1.89299 3.51801 2.82487
# Velocity P-wave (km/s) = 7.06025 8.86373 8.01289
#
# Compressibility (1/GPa) = 0.01273065
#
# Stress axis : x y z
#
# Youngs Moduli (GPa) = 23.91759 58.32747 64.05718
#
# Poissons Ratio (x) = 0.89380 0.73906
# Poissons Ratio (y) = 0.36651 0.25984
# Poissons Ratio (z) = 0.27595 0.23660
#
# Static dielectric constant tensor:
#      x y z
#    x 1.581380 0.000000 0.000000 
#    y 0.000000 1.567090 0.000000 
#    z 0.000000 0.000000 1.562720 
# 
# From -- ./inp_files/43028.got.cif
#   From: 2010.05.17/outbox.cif.g08.bks.cpg/sg64_22_cif.got.tgz:43028.got - 2010.06.03 16:29:19.
