data_PCOD9480852
_publ_section_title
;
Structure prediction by ZEFSAII (Michael W. Deem and Ramdas Pophale) SiO2 
 PCOD9480852
Probable space group: C M C A
;
_chemical_formula_sum "Si O2"
_cell_formula_units_Z 112
_cell_length_a 17.884424
_cell_length_b 12.846223
_cell_length_c 24.042057
_cell_angle_alpha 90.000000
_cell_angle_beta 90.000000
_cell_angle_gamma 90.000000
_cell_volume 5523.597656
_symmetry_space_group_name_H-M "C M C A"
_symmetry_group_IT_number 64
_symmetry_cell_setting 'orthorhombic'
loop_
_space_group_symop_operation_xyz
x,y,z
-x,1/2-y,1/2+z
x,-y,-z
-x,1/2+y,1/2-z
-x,-y,-z
x,1/2+y,1/2-z
-x,y,z
x,1/2-y,1/2+z
1/2+x,1/2+y,z
1/2-x,-y,1/2+z
1/2+x,1/2-y,-z
1/2-x,y,1/2-z
1/2-x,1/2-y,-z
1/2+x,y,1/2-z
1/2-x,1/2+y,z
1/2+x,-y,1/2+z
loop_
_atom_site_type_symbol
_atom_site_label
_atom_site_fract_x
_atom_site_fract_y
_atom_site_fract_z
Si Si1 0.088591 0.222810 0.556381
Si Si2 0.161301 0.668281 0.058486
Si Si3 0.664839 0.872645 0.368077
Si Si4 0.174104 0.931359 0.944429
Si Si5 0.415268 0.270384 0.228797
Si Si6 0.333218 0.851438 0.169467
Si Si7 0.086081 0.557932 0.160156
O O1 0.128466 0.169847 0.503347
O O2 0.109881 0.344858 0.554044
O O3 0.124604 0.180110 0.612910
O O4 0.000000 0.206775 0.554634
O O5 0.155102 0.784655 0.084107
O O6 0.246950 0.629852 0.059239
O O7 0.114880 0.593987 0.099653
O O8 0.604991 0.852151 0.319806
O O9 0.745580 0.850288 0.341349
O O10 0.664636 0.986847 0.394388
O O11 0.174947 0.000000 0.000000
O O12 0.500000 0.286828 0.248645
O O13 0.359195 0.280236 0.279892
O O14 0.409759 0.158698 0.199315
O O15 0.361569 0.967303 0.182582
O O16 0.000000 0.523344 0.157182
#
# Coordination Sequence:
#
# PCOD9480852 Si02
#       7
#    16  16  16  16  16  16  16
#     4  12  26  40  64  98 135 174 214 270 330 390
#     4  11  22  43  64  93 133 167 217 266 319 390
#     4  11  23  43  69  95 126 176 219 265 325 390
#     4  12  23  41  65  95 130 170 216 266 323 385
#     4  10  24  44  66  93 130 169 214 272 324 381
#     4  12  23  44  67  96 133 166 222 272 322 387
#     4  10  22  40  66  93 125 170 214 265 326 382
#
# _framework density 20.27664
#
# number of rings (size 3 to 8) (size 9 to 14) (size 15 to 20)
#    0.000    0.857    4.286    3.429    0.000    2.571 
#    0.000    2.857    0.000    0.000    0.000    0.000 
#    0.000    0.000    0.000    0.000    0.000    0.000 
#
# Total GULP energy -313354.052424 kJ/mol
# GULP energy per Si atom -5595.608079 kJ/mol
# Density = 2.023049 g / cm^3
# Si number density = 20.276640 Si / 1000 Ang^3
#
#
#
# Elastic Constant Matrix: (Units=GPa)
#
#
# Indices 1 2 3 4 5 6 
#
# 1 40.9551 -8.0401 -4.7530 0.0000 0.0000 0.0000
# 2 -8.0401 33.2473 -1.6151 0.0000 0.0000 0.0000
# 3 -4.7530 -1.6151 66.7365 0.0000 0.0000 0.0000
# 4 0.0000 0.0000 0.0000 17.8550 0.0000 0.0000
# 5 0.0000 0.0000 0.0000 0.0000 12.3827 0.0000
# 6 0.0000 0.0000 0.0000 0.0000 0.0000 11.2045
#
#
#
# Elastic Compliance Matrix: (Units=1/GPa)
#
#
# Indices 1 2 3 4 5 6 
#
# 1 0.025897 0.006360 0.001998 0.000000 0.000000 0.000000
# 2 0.006360 0.031675 0.001220 0.000000 0.000000 0.000000
# 3 0.001998 0.001220 0.015156 0.000000 0.000000 0.000000
# 4 0.000000 0.000000 0.000000 0.056007 0.000000 0.000000
# 5 0.000000 0.000000 0.000000 0.000000 0.080758 0.000000
# 6 0.000000 0.000000 0.000000 0.000000 0.000000 0.089249
#
#
# Mechanical properties :
#
#
# Convention : Reuss Voigt Hill
#
# Bulk Modulus (GPa) = 10.88333 12.45805 11.67069
# Shear Modulus (GPa) = 16.11785 18.64492 17.38139
#
# Velocity S-wave (km/s) = 2.82245 3.03566 2.93100
# Velocity P-wave (km/s) = 4.00009 4.29469 4.15000
#
# Compressibility (1/GPa) = 0.09188364
#
# Stress axis : x y z
#
# Youngs Moduli (GPa) = 38.61388 31.57080 65.97982
#
# Poissons Ratio (x) = -0.20078 -0.13185
# Poissons Ratio (y) = -0.24557 -0.08046
# Poissons Ratio (z) = -0.07716 -0.03850
#
# Static dielectric constant tensor:
#      x y z
#    x 1.683370 0.000000 0.000000 
#    y 0.000000 1.718800 0.000000 
#    z 0.000000 0.000000 1.701960 
# 
# From -- ./inp_files/46351.got.cif
#   From: 2010.05.17/outbox.cif.g08.bks.cpg/sg64_24_cif.got.tgz:46351.got - 2010.06.03 16:29:19.
