data_PCOD9480625
_publ_section_title
;
Structure prediction by ZEFSAII (Michael W. Deem and Ramdas Pophale) SiO2 
 PCOD9480625
Probable space group: C M C A
;
_chemical_formula_sum "Si O2"
_cell_formula_units_Z 72
_cell_length_a 13.824213
_cell_length_b 9.158721
_cell_length_c 23.206588
_cell_angle_alpha 90.000000
_cell_angle_beta 90.000000
_cell_angle_gamma 90.000000
_cell_volume 2938.235071
_symmetry_space_group_name_H-M "C M C A"
_symmetry_group_IT_number 64
_symmetry_cell_setting 'orthorhombic'
loop_
_space_group_symop_operation_xyz
x,y,z
-x,1/2-y,1/2+z
x,-y,-z
-x,1/2+y,1/2-z
-x,-y,-z
x,1/2+y,1/2-z
-x,y,z
x,1/2-y,1/2+z
1/2+x,1/2+y,z
1/2-x,-y,1/2+z
1/2+x,1/2-y,-z
1/2-x,y,1/2-z
1/2-x,1/2-y,-z
1/2+x,y,1/2-z
1/2-x,1/2+y,z
1/2+x,-y,1/2+z
loop_
_atom_site_type_symbol
_atom_site_label
_atom_site_fract_x
_atom_site_fract_y
_atom_site_fract_z
Si Si1 0.892465 0.480069 0.903973
Si Si2 0.729902 0.688851 0.317272
Si Si3 0.603206 0.316643 0.022343
Si Si4 0.764814 0.500000 0.000000
Si Si5 0.387403 0.522779 0.855824
O O1 0.849041 0.422541 0.844736
O O2 0.894453 0.340781 0.947755
O O3 0.000000 0.538553 0.898115
O O4 0.819680 0.566676 0.944226
O O5 0.750000 0.672757 0.250000
O O6 0.681553 0.848788 0.327957
O O7 0.829931 0.630024 0.346730
O O8 0.500000 0.328240 0.991932
O O9 0.691288 0.369915 0.984443
O O10 0.604244 0.420517 0.078769
O O11 0.500000 0.519337 0.834015
#
# Coordination Sequence:
#
# PCOD9480625 Si02
#       5
#    16  16  16   8  16
#     4  10  22  38  57  86 125 165 208 267 331 390
#     4  11  22  42  68  92 126 172 218 269 332 393
#     4   9  19  35  56  83 120 162 202 258 326 382
#     4  12  18  34  62  88 118 162 216 262 324 398
#     4  10  22  42  65  94 131 169 212 268 330 388
#
# _framework density 24.504505999999999
#
# number of rings (size 3 to 8) (size 9 to 14) (size 15 to 20)
#    0.000    1.778    2.222    4.000    0.000    1.778 
#    0.000    2.222    0.000    0.000    0.000    0.000 
#    0.000    0.000    0.000    0.000    0.000    0.000 
#
# Total GULP energy -200636.007101 kJ/mol
# GULP energy per Si atom -5573.222419 kJ/mol
# Density = 2.444873 g / cm^3
# Si number density = 24.504506 Si / 1000 Ang^3
#
#
#
# Elastic Constant Matrix: (Units=GPa)
#
#
# Indices 1 2 3 4 5 6 
#
# 1 184.8115 34.3875 22.5769 0.0000 0.0000 0.0000
# 2 34.3875 79.1781 7.1455 0.0000 0.0000 0.0000
# 3 22.5769 7.1455 89.1439 0.0000 0.0000 0.0000
# 4 0.0000 0.0000 0.0000 17.8393 0.0000 0.0000
# 5 0.0000 0.0000 0.0000 0.0000 27.2911 0.0000
# 6 0.0000 0.0000 0.0000 0.0000 0.0000 16.7507
#
#
#
# Elastic Compliance Matrix: (Units=1/GPa)
#
#
# Indices 1 2 3 4 5 6 
#
# 1 0.006039 -0.002503 -0.001329 0.000000 0.000000 0.000000
# 2 -0.002503 0.013759 -0.000469 0.000000 0.000000 0.000000
# 3 -0.001329 -0.000469 0.011592 0.000000 0.000000 0.000000
# 4 0.000000 0.000000 0.000000 0.056056 0.000000 0.000000
# 5 0.000000 0.000000 0.000000 0.000000 0.036642 0.000000
# 6 0.000000 0.000000 0.000000 0.000000 0.000000 0.059699
#
#
# Mechanical properties :
#
#
# Convention : Reuss Voigt Hill
#
# Bulk Modulus (GPa) = 43.88150 53.48372 48.68261
# Shear Modulus (GPa) = 25.00190 31.64445 28.32317
#
# Velocity S-wave (km/s) = 3.19768 3.59747 3.40345
# Velocity P-wave (km/s) = 5.61960 6.25533 5.94597
#
# Compressibility (1/GPa) = 0.02278864
#
# Stress axis : x y z
#
# Youngs Moduli (GPa) = 165.59179 72.67928 86.26677
#
# Poissons Ratio (x) = 0.18190 0.11463
# Poissons Ratio (y) = 0.41445 0.04046
# Poissons Ratio (z) = 0.22004 0.03409
#
# Static dielectric constant tensor:
#      x y z
#    x 2.275860 0.000000 0.000000 
#    y 0.000000 2.157690 0.000000 
#    z 0.000000 0.000000 1.905790 
# 
# From -- ./inp_files/49066.got.cif
#   From: 2010.05.17/outbox.cif.g08.bks.cpg/sg64_25_cif.got.tgz:49066.got - 2010.06.03 16:29:19.
