data_PCOD9480380
_publ_section_title
;
Structure prediction by ZEFSAII (Michael W. Deem and Ramdas Pophale) SiO2 
 PCOD9480380
Probable space group: C M C A
;
_chemical_formula_sum "Si O2"
_cell_formula_units_Z 112
_cell_length_a 14.860365
_cell_length_b 12.665939
_cell_length_c 29.277035
_cell_angle_alpha 90.000000
_cell_angle_beta 90.000000
_cell_angle_gamma 90.000000
_cell_volume 5510.537481
_symmetry_space_group_name_H-M "C M C A"
_symmetry_group_IT_number 64
_symmetry_cell_setting 'orthorhombic'
loop_
_space_group_symop_operation_xyz
x,y,z
-x,1/2-y,1/2+z
x,-y,-z
-x,1/2+y,1/2-z
-x,-y,-z
x,1/2+y,1/2-z
-x,y,z
x,1/2-y,1/2+z
1/2+x,1/2+y,z
1/2-x,-y,1/2+z
1/2+x,1/2-y,-z
1/2-x,y,1/2-z
1/2-x,1/2-y,-z
1/2+x,y,1/2-z
1/2-x,1/2+y,z
1/2+x,-y,1/2+z
loop_
_atom_site_type_symbol
_atom_site_label
_atom_site_fract_x
_atom_site_fract_y
_atom_site_fract_z
Si Si1 0.838870 0.930135 0.866128
Si Si2 0.803966 0.013675 0.703288
Si Si3 0.396186 0.167180 0.630310
Si Si4 0.274091 0.601977 0.031231
Si Si5 0.609737 0.752297 0.968847
Si Si6 0.894262 0.725072 0.814615
Si Si7 0.606128 0.801271 0.784342
O O1 0.759796 0.950641 0.830621
O O2 0.802960 0.919354 0.917147
O O3 0.884003 0.821311 0.849920
O O4 0.891879 0.041375 0.862802
O O5 0.750000 0.038297 0.750000
O O6 0.879790 0.926674 0.713576
O O7 0.840953 0.116834 0.677977
O O8 0.500000 0.199440 0.628839
O O9 0.363217 0.198066 0.579795
O O10 0.355456 0.233698 0.672785
O O11 0.171034 0.643018 0.030202
O O12 0.280920 0.500000 0.000000
O O13 0.346022 0.683689 0.009360
O O14 0.500000 0.761588 0.972189
O O15 0.860129 0.764188 0.764957
O O16 0.000000 0.699501 0.811720
O O17 0.500000 0.779426 0.783714
#
# Coordination Sequence:
#
# PCOD9480380 Si02
#       7
#    16  16  16  16  16  16  16
#     4  12  25  40  68  96 135 173 221 277 335 394
#     4  12  25  39  65  93 132 172 224 270 332 393
#     4  10  21  40  67  97 130 176 226 272 332 401
#     4  11  24  44  68 100 137 174 223 280 338 399
#     4  10  23  43  70 100 135 175 223 276 335 403
#     4  11  26  44  63  92 133 176 222 272 332 398
#     4  10  22  41  63  91 131 176 222 271 326 399
#
# _framework density 20.324695999999999
#
# number of rings (size 3 to 8) (size 9 to 14) (size 15 to 20)
#    0.000    1.143    2.857    2.571    6.000    1.714 
#    0.000    0.714    0.000    0.000    0.000    0.000 
#    0.000    0.000    0.000    0.000    0.000    0.000 
#
# Total GULP energy -312461.239384 kJ/mol
# GULP energy per Si atom -5579.664989 kJ/mol
# Density = 2.027844 g / cm^3
# Si number density = 20.324696 Si / 1000 Ang^3
#
#
#
# Elastic Constant Matrix: (Units=GPa)
#
#
# Indices 1 2 3 4 5 6 
#
# 1 72.0337 22.2190 26.0583 0.0000 0.0000 0.0000
# 2 22.2190 85.6920 16.5943 0.0000 0.0000 0.0000
# 3 26.0583 16.5943 101.7732 0.0000 0.0000 0.0000
# 4 0.0000 0.0000 0.0000 27.9613 0.0000 0.0000
# 5 0.0000 0.0000 0.0000 0.0000 26.8285 0.0000
# 6 0.0000 0.0000 0.0000 0.0000 0.0000 45.3801
#
#
#
# Elastic Compliance Matrix: (Units=1/GPa)
#
#
# Indices 1 2 3 4 5 6 
#
# 1 0.016268 -0.003523 -0.003591 0.000000 0.000000 0.000000
# 2 -0.003523 0.012813 -0.001187 0.000000 0.000000 0.000000
# 3 -0.003591 -0.001187 0.010939 0.000000 0.000000 0.000000
# 4 0.000000 0.000000 0.000000 0.035764 0.000000 0.000000
# 5 0.000000 0.000000 0.000000 0.000000 0.037274 0.000000
# 6 0.000000 0.000000 0.000000 0.000000 0.000000 0.022036
#
#
# Mechanical properties :
#
#
# Convention : Reuss Voigt Hill
#
# Bulk Modulus (GPa) = 42.70209 43.24913 42.97561
# Shear Modulus (GPa) = 31.34772 33.00913 32.17843
#
# Velocity S-wave (km/s) = 3.93153 4.03437 3.98328
# Velocity P-wave (km/s) = 6.45483 6.55948 6.50737
#
# Compressibility (1/GPa) = 0.02341806
#
# Stress axis : x y z
#
# Youngs Moduli (GPa) = 61.47035 78.04569 91.41797
#
# Poissons Ratio (x) = 0.27493 0.32827
# Poissons Ratio (y) = 0.21654 0.10853
# Poissons Ratio (z) = 0.22073 0.09266
#
# Static dielectric constant tensor:
#      x y z
#    x 1.774390 0.000000 0.000000 
#    y 0.000000 1.726540 0.000000 
#    z 0.000000 0.000000 1.724640 
# 
# From -- ./inp_files/53270.got.cif
#   From: 2010.05.17/outbox.cif.g08.bks.cpg/sg64_27_cif.got.tgz:53270.got - 2010.06.03 16:29:19.
