data_PCOD9480443
_publ_section_title
;
Structure prediction by ZEFSAII (Michael W. Deem and Ramdas Pophale) SiO2 
 PCOD9480443
Probable space group: C M C A
;
_chemical_formula_sum "Si O2"
_cell_formula_units_Z 88
_cell_length_a 11.095710
_cell_length_b 27.198108
_cell_length_c 14.018347
_cell_angle_alpha 90.000000
_cell_angle_beta 90.000000
_cell_angle_gamma 90.000000
_cell_volume 4230.489265
_symmetry_space_group_name_H-M "C M C A"
_symmetry_group_IT_number 64
_symmetry_cell_setting 'orthorhombic'
loop_
_space_group_symop_operation_xyz
x,y,z
-x,1/2-y,1/2+z
x,-y,-z
-x,1/2+y,1/2-z
-x,-y,-z
x,1/2+y,1/2-z
-x,y,z
x,1/2-y,1/2+z
1/2+x,1/2+y,z
1/2-x,-y,1/2+z
1/2+x,1/2-y,-z
1/2-x,y,1/2-z
1/2-x,1/2-y,-z
1/2+x,y,1/2-z
1/2-x,1/2+y,z
1/2+x,-y,1/2+z
loop_
_atom_site_type_symbol
_atom_site_label
_atom_site_fract_x
_atom_site_fract_y
_atom_site_fract_z
Si Si1 0.000000 0.087684 0.278278
Si Si2 0.500000 0.014324 0.383478
Si Si3 0.810785 0.332441 0.848913
Si Si4 0.000000 0.985842 0.388401
Si Si5 0.737033 0.964417 0.407870
Si Si6 0.135673 0.725328 0.678599
Si Si7 0.640856 0.859927 0.477545
O O1 0.891208 0.121147 0.317435
O O2 0.000000 0.068569 0.167335
O O3 0.000000 0.036721 0.333016
O O4 0.500000 0.000000 0.500000
O O5 0.626758 0.990124 0.351141
O O6 0.750000 0.319966 0.750000
O O7 0.866631 0.279113 0.872252
O O8 0.718431 0.347148 0.930088
O O9 0.872264 0.959724 0.367263
O O10 0.000000 0.000000 0.500000
O O11 0.689574 0.911314 0.437636
O O12 0.750608 0.000000 0.500000
O O13 0.250000 0.720490 0.750000
O O14 0.151778 0.683039 0.600188
O O15 0.000000 0.719711 0.722933
O O16 0.500000 0.864621 0.499552
#
# Coordination Sequence:
#
# PCOD9480443 Si02
#       7
#     8   8  16   8  16  16  16
#     4  12  26  42  67 100 141 183 229 299 368 434
#     4  10  24  40  65  94 139 180 232 278 345 430
#     4  11  25  39  70 105 137 179 241 302 374 437
#     4  10  22  40  60  90 140 173 230 287 344 418
#     4  10  21  41  65  92 132 180 231 280 343 425
#     4  10  23  49  70 105 143 186 244 305 366 453
#     4  11  24  44  74  99 143 195 241 304 373 439
#
# _framework density 20.801376000000001
#
# number of rings (size 3 to 8) (size 9 to 14) (size 15 to 20)
#    0.000    1.455    1.818    2.727    8.909    0.727 
#    6.545    0.000    0.000    0.000    0.000    0.000 
#    0.000    0.000    0.000    0.000    0.000    0.000 
#
# Total GULP energy -245102.764564 kJ/mol
# GULP energy per Si atom -5570.517376 kJ/mol
# Density = 2.075403 g / cm^3
# Si number density = 20.801376 Si / 1000 Ang^3
#
#
#
# Elastic Constant Matrix: (Units=GPa)
#
#
# Indices 1 2 3 4 5 6 
#
# 1 217.3892 81.0727 62.1270 0.0000 0.0000 0.0000
# 2 81.0727 174.2424 65.8369 0.0000 0.0000 0.0000
# 3 62.1270 65.8369 94.9224 0.0000 0.0000 0.0000
# 4 0.0000 0.0000 0.0000 34.2432 0.0000 0.0000
# 5 0.0000 0.0000 0.0000 0.0000 44.0001 0.0000
# 6 0.0000 0.0000 0.0000 0.0000 0.0000-3277.6891
#
#
#
# Elastic Compliance Matrix: (Units=1/GPa)
#
#
# Indices 1 2 3 4 5 6 
#
# 1 0.006042 -0.001785 -0.002717 0.000000 0.000000 0.000000
# 2 -0.001785 0.008305 -0.004592 0.000000 0.000000 0.000000
# 3 -0.002717 -0.004592 0.015498 0.000000 0.000000 0.000000
# 4 0.000000 0.000000 0.000000 0.029203 0.000000 0.000000
# 5 0.000000 0.000000 0.000000 0.000000 0.022727 0.000000
# 6 0.000000 0.000000 0.000000 0.000000 0.000000 -0.000305
#
#
# Mechanical properties :
#
#
# Convention : Reuss Voigt Hill
#
# Bulk Modulus (GPa) = 85.77833 100.51412 93.14622
# Shear Modulus (GPa) = 48.28975 -621.38798 -286.54912
#
# Velocity S-wave (km/s) = 4.82339 -17.30240 -11.74964
# Velocity P-wave (km/s) = 8.50567 18.72800 11.79813
#
# Compressibility (1/GPa) = 0.01165796
#
# Stress axis : x y z
#
# Youngs Moduli (GPa) = 165.50693 120.41571 64.52561
#
# Poissons Ratio (x) = 0.21492 0.17529
# Poissons Ratio (y) = 0.29540 0.29629
# Poissons Ratio (z) = 0.44962 0.55292
#
# Static dielectric constant tensor:
#      x y z
#    x 1.806480 0.000000 0.000000 
#    y 0.000000 1.711670 0.000000 
#    z 0.000000 0.000000 1.758410 
# 
# From -- ./inp_files/22477.got.cif
#   From: 2010.05.17/outbox.cif.g08.bks.cpg/sg64_12_cif.got.tgz:22477.got - 2010.06.03 16:29:19.
