data_PCOD9480324
_publ_section_title
;
Structure prediction by ZEFSAII (Michael W. Deem and Ramdas Pophale) SiO2 
 PCOD9480324
Probable space group: C M C A
;
_chemical_formula_sum "Si O2"
_cell_formula_units_Z 64
_cell_length_a 11.846357
_cell_length_b 13.462089
_cell_length_c 16.917859
_cell_angle_alpha 90.000000
_cell_angle_beta 90.000000
_cell_angle_gamma 90.000000
_cell_volume 2698.004532
_symmetry_space_group_name_H-M "C M C A"
_symmetry_group_IT_number 64
_symmetry_cell_setting 'orthorhombic'
loop_
_space_group_symop_operation_xyz
x,y,z
-x,1/2-y,1/2+z
x,-y,-z
-x,1/2+y,1/2-z
-x,-y,-z
x,1/2+y,1/2-z
-x,y,z
x,1/2-y,1/2+z
1/2+x,1/2+y,z
1/2-x,-y,1/2+z
1/2+x,1/2-y,-z
1/2-x,y,1/2-z
1/2-x,1/2-y,-z
1/2+x,y,1/2-z
1/2-x,1/2+y,z
1/2+x,-y,1/2+z
loop_
_atom_site_type_symbol
_atom_site_label
_atom_site_fract_x
_atom_site_fract_y
_atom_site_fract_z
Si Si1 0.767923 0.812216 0.104691
Si Si2 0.370844 0.329709 0.710816
Si Si3 0.626368 0.148162 0.443233
Si Si4 0.128609 0.515281 0.694043
O O1 0.854088 0.721027 0.125694
O O2 0.650012 0.755425 0.096094
O O3 0.791071 0.895058 0.169845
O O4 0.795793 0.858936 0.019760
O O5 0.500000 0.304604 0.738467
O O6 0.250000 0.295655 0.750000
O O7 0.364331 0.448455 0.726367
O O8 0.500000 0.138223 0.472665
O O9 0.642115 0.066992 0.375227
O O10 0.000000 0.554092 0.690294
#
# Coordination Sequence:
#
# PCOD9480324 Si02
#       4
#    16  16  16  16
#     4  11  22  39  68  93 126 168 212 262 323 377
#     4  11  23  41  61  93 129 166 216 267 315 380
#     4  10  21  40  66  96 126 161 214 266 317 384
#     4  10  21  40  63  89 123 167 214 255 309 384
#
# _framework density 23.721236000000001
#
# number of rings (size 3 to 8) (size 9 to 14) (size 15 to 20)
#    0.000    1.500    2.500    3.000    0.000    3.000 
#    0.000    1.250    0.000    3.000    0.000    0.000 
#    0.000    0.000    0.000    0.000    0.000    0.000 
#
# Total GULP energy -178277.442105 kJ/mol
# GULP energy per Si atom -5571.170066 kJ/mol
# Density = 2.366725 g / cm^3
# Si number density = 23.721236 Si / 1000 Ang^3
#
#
#
# Elastic Constant Matrix: (Units=GPa)
#
#
# Indices 1 2 3 4 5 6 
#
# 1 100.1142 2.6776 9.2143 0.0000 0.0000 0.0000
# 2 2.6776 104.5251 16.8238 0.0000 0.0000 0.0000
# 3 9.2143 16.8238 74.9313 0.0000 0.0000 0.0000
# 4 0.0000 0.0000 0.0000 36.2615 0.0000 0.0000
# 5 0.0000 0.0000 0.0000 0.0000 32.1135 0.0000
# 6 0.0000 0.0000 0.0000 0.0000 0.0000 19.4904
#
#
#
# Elastic Compliance Matrix: (Units=1/GPa)
#
#
# Indices 1 2 3 4 5 6 
#
# 1 0.010103 -0.000061 -0.001229 0.000000 0.000000 0.000000
# 2 -0.000061 0.009926 -0.002221 0.000000 0.000000 0.000000
# 3 -0.001229 -0.002221 0.013995 0.000000 0.000000 0.000000
# 4 0.000000 0.000000 0.000000 0.027577 0.000000 0.000000
# 5 0.000000 0.000000 0.000000 0.000000 0.031140 0.000000
# 6 0.000000 0.000000 0.000000 0.000000 0.000000 0.051307
#
#
# Mechanical properties :
#
#
# Convention : Reuss Voigt Hill
#
# Bulk Modulus (GPa) = 37.03287 37.44466 37.23877
# Shear Modulus (GPa) = 31.23596 34.29674 32.76635
#
# Velocity S-wave (km/s) = 3.63270 3.80652 3.72063
# Velocity P-wave (km/s) = 5.76550 5.92782 5.84722
#
# Compressibility (1/GPa) = 0.02700304
#
# Stress axis : x y z
#
# Youngs Moduli (GPa) = 98.97750 100.74405 71.45231
#
# Poissons Ratio (x) = 0.00615 0.08779
# Poissons Ratio (y) = 0.00604 0.15871
# Poissons Ratio (z) = 0.12161 0.22377
#
# Static dielectric constant tensor:
#      x y z
#    x 1.990760 0.000000 0.000000 
#    y 0.000000 1.914300 0.000000 
#    z 0.000000 0.000000 2.052140 
# 
# From -- ./inp_files/30462.got.cif
#   From: 2010.05.17/outbox.cif.g08.bks.cpg/sg64_16_cif.got.tgz:30462.got - 2010.06.03 16:29:19.
