data_PCOD9480423
_publ_section_title
;
Structure prediction by ZEFSAII (Michael W. Deem and Ramdas Pophale) SiO2 
 PCOD9480423
Probable space group: C M C A
;
_chemical_formula_sum "Si O2"
_cell_formula_units_Z 112
_cell_length_a 20.035748
_cell_length_b 15.389630
_cell_length_c 17.041630
_cell_angle_alpha 90.000000
_cell_angle_beta 90.000000
_cell_angle_gamma 90.000000
_cell_volume 5254.663033
_symmetry_space_group_name_H-M "C M C A"
_symmetry_group_IT_number 64
_symmetry_cell_setting 'orthorhombic'
loop_
_space_group_symop_operation_xyz
x,y,z
-x,1/2-y,1/2+z
x,-y,-z
-x,1/2+y,1/2-z
-x,-y,-z
x,1/2+y,1/2-z
-x,y,z
x,1/2-y,1/2+z
1/2+x,1/2+y,z
1/2-x,-y,1/2+z
1/2+x,1/2-y,-z
1/2-x,y,1/2-z
1/2-x,1/2-y,-z
1/2+x,y,1/2-z
1/2-x,1/2+y,z
1/2+x,-y,1/2+z
loop_
_atom_site_type_symbol
_atom_site_label
_atom_site_fract_x
_atom_site_fract_y
_atom_site_fract_z
Si Si1 0.579524 0.615741 0.730649
Si Si2 0.141913 0.919464 0.875949
Si Si3 0.640360 0.110560 0.604054
Si Si4 0.386275 0.198367 0.060499
Si Si5 0.425815 0.753858 0.096837
Si Si6 0.422859 0.080425 0.208310
Si Si7 0.261253 0.593695 0.482450
O O1 0.500000 0.626483 0.755171
O O2 0.632437 0.615189 0.801548
O O3 0.598068 0.690969 0.670559
O O4 0.582357 0.521846 0.689389
O O5 0.115050 0.833216 0.916755
O O6 0.123494 0.907770 0.784934
O O7 0.218343 0.921213 0.903066
O O8 0.112912 0.011683 0.907341
O O9 0.605029 0.200295 0.581131
O O10 0.709822 0.111185 0.554824
O O11 0.405347 0.140525 0.134937
O O12 0.311874 0.170783 0.034365
O O13 0.425889 0.186473 0.979939
O O14 0.500000 0.724807 0.114941
O O15 0.500000 0.097313 0.231049
O O16 0.294820 0.500000 0.500000
#
# Coordination Sequence:
#
# PCOD9480423 Si02
#       7
#    16  16  16  16  16  16  16
#     4   9  21  41  64  91 129 166 209 267 320 378
#     4  10  21  42  65  87 127 163 213 266 321 366
#     4  10  21  41  63  91 122 168 214 264 312 378
#     4  12  24  38  66  92 131 170 213 257 320 379
#     4  11  23  38  62  97 130 166 210 264 326 387
#     4  10  22  41  64  93 127 167 212 264 319 381
#     4  10  23  42  64  92 127 167 212 263 314 375
#
# _framework density 21.314401
#
# number of rings (size 3 to 8) (size 9 to 14) (size 15 to 20)
#    0.000    1.714    1.429    2.143    2.000    3.429 
#    0.000    3.571    0.000    0.000    0.000    0.000 
#    0.000    0.000    0.000    0.000    0.000    0.000 
#
# Total GULP energy -311899.846704 kJ/mol
# GULP energy per Si atom -5569.640120 kJ/mol
# Density = 2.126589 g / cm^3
# Si number density = 21.314401 Si / 1000 Ang^3
#
#
#
# Elastic Constant Matrix: (Units=GPa)
#
#
# Indices 1 2 3 4 5 6 
#
# 1 37.1878 25.7671 30.8831 0.0000 0.0000 0.0000
# 2 25.7671 85.2103 52.2436 0.0000 0.0000 0.0000
# 3 30.8831 52.2436 102.8902 0.0000 0.0000 0.0000
# 4 0.0000 0.0000 0.0000 19.4010 0.0000 0.0000
# 5 0.0000 0.0000 0.0000 0.0000 83.8629 0.0000
# 6 0.0000 0.0000 0.0000 0.0000 0.0000 19.6946
#
#
#
# Elastic Compliance Matrix: (Units=1/GPa)
#
#
# Indices 1 2 3 4 5 6 
#
# 1 0.038190 -0.006564 -0.008130 0.000000 0.000000 0.000000
# 2 -0.006564 0.018169 -0.007255 0.000000 0.000000 0.000000
# 3 -0.008130 -0.007255 0.015843 0.000000 0.000000 0.000000
# 4 0.000000 0.000000 0.000000 0.051544 0.000000 0.000000
# 5 0.000000 0.000000 0.000000 0.000000 0.011924 0.000000
# 6 0.000000 0.000000 0.000000 0.000000 0.000000 0.050775
#
#
# Mechanical properties :
#
#
# Convention : Reuss Voigt Hill
#
# Bulk Modulus (GPa) = 35.33069 49.23065 42.28067
# Shear Modulus (GPa) = 20.85252 32.35133 26.60193
#
# Velocity S-wave (km/s) = 3.13122 3.90014 3.53664
# Velocity P-wave (km/s) = 5.44836 6.59007 6.04622
#
# Compressibility (1/GPa) = 0.02830401
#
# Stress axis : x y z
#
# Youngs Moduli (GPa) = 26.18465 55.03930 63.11782
#
# Poissons Ratio (x) = 0.36127 0.51316
# Poissons Ratio (y) = 0.17187 0.45794
# Poissons Ratio (z) = 0.21289 0.39933
#
# Static dielectric constant tensor:
#      x y z
#    x 1.832990 0.000000 0.000000 
#    y 0.000000 1.809440 0.000000 
#    z 0.000000 0.000000 1.783830 
# 
# From -- ./inp_files/27425.got.cif
#   From: 2010.05.17/outbox.cif.g08.bks.cpg/sg64_14_cif.got.tgz:27425.got - 2010.06.03 16:29:19.
