data_PCOD9480308
_publ_section_title
;
Structure prediction by ZEFSAII (Michael W. Deem and Ramdas Pophale) SiO2 
 PCOD9480308
Probable space group: C M C A
;
_chemical_formula_sum "Si O2"
_cell_formula_units_Z 116
_cell_length_a 7.815027
_cell_length_b 25.315039
_cell_length_c 27.140830
_cell_angle_alpha 90.000000
_cell_angle_beta 90.000000
_cell_angle_gamma 90.000000
_cell_volume 5369.479744
_symmetry_space_group_name_H-M "C M C A"
_symmetry_group_IT_number 64
_symmetry_cell_setting 'orthorhombic'
loop_
_space_group_symop_operation_xyz
x,y,z
-x,1/2-y,1/2+z
x,-y,-z
-x,1/2+y,1/2-z
-x,-y,-z
x,1/2+y,1/2-z
-x,y,z
x,1/2-y,1/2+z
1/2+x,1/2+y,z
1/2-x,-y,1/2+z
1/2+x,1/2-y,-z
1/2-x,y,1/2-z
1/2-x,1/2-y,-z
1/2+x,y,1/2-z
1/2-x,1/2+y,z
1/2+x,-y,1/2+z
loop_
_atom_site_type_symbol
_atom_site_label
_atom_site_fract_x
_atom_site_fract_y
_atom_site_fract_z
Si Si1 0.294333 0.699701 0.694892
Si Si2 0.300194 0.588818 0.989364
Si Si3 0.698876 0.412879 0.694192
Si Si4 0.295676 0.201863 0.464617
Si Si5 0.000000 0.000000 0.500000
Si Si6 0.792540 0.804654 0.854198
Si Si7 0.306256 0.471662 0.193104
Si Si8 0.196511 0.612736 0.881012
O O1 0.500000 0.698794 0.691701
O O2 0.250000 0.682473 0.750000
O O3 0.234258 0.759093 0.683398
O O4 0.232476 0.660634 0.652008
O O5 0.500000 0.575710 0.003167
O O6 0.294996 0.599246 0.930581
O O7 0.248830 0.644381 0.014658
O O8 0.154313 0.545817 0.000918
O O9 0.500000 0.426902 0.693866
O O10 0.750000 0.398677 0.750000
O O11 0.733234 0.362626 0.660786
O O12 0.795753 0.466398 0.680212
O O13 0.500000 0.201476 0.461460
O O14 0.250000 0.250000 0.500000
O O15 0.231359 0.209254 0.408993
O O16 0.000000 0.805116 0.853237
O O17 0.500000 0.452835 0.188945
O O18 0.250000 0.466712 0.250000
O O19 0.197558 0.437233 0.155615
O O20 0.000000 0.624985 0.895168
#
# Coordination Sequence:
#
# PCOD9480308 Si02
#       8
#    16  16  16  16   4  16  16  16
#     4  10  22  37  61  92 133 175 218 268 331 400
#     4  11  25  46  71 104 136 185 238 291 360 427
#     4  11  22  38  59  87 120 161 206 258 315 388
#     4  10  23  42  69  98 133 174 230 290 346 416
#     4  12  26  48  72  98 144 184 222 302 360 430
#     4  10  21  40  61  90 125 167 209 262 326 389
#     4  11  22  38  60  89 125 168 214 270 323 396
#     4  11  22  41  65  94 128 174 223 277 342 402
#
# _framework density 21.603581999999999
#
# number of rings (size 3 to 8) (size 9 to 14) (size 15 to 20)
#    0.000    1.379    0.690    5.586    0.966    6.621 
#    2.483    2.759    0.000    0.000    0.000    0.000 
#    0.000    0.000    0.000    0.000    0.000    0.000 
#
# Total GULP energy -323673.856863 kJ/mol
# GULP energy per Si atom -5580.583739 kJ/mol
# Density = 2.155441 g / cm^3
# Si number density = 21.603582 Si / 1000 Ang^3
#
#
#
# Elastic Constant Matrix: (Units=GPa)
#
#
# Indices 1 2 3 4 5 6 
#
# 1 94.7722 18.2052 0.3483 0.0000 0.0000 0.0000
# 2 18.2052 90.0877 15.6359 0.0000 0.0000 0.0000
# 3 0.3483 15.6359 31.5829 0.0000 0.0000 0.0000
# 4 0.0000 0.0000 0.0000 16.6313 0.0000 0.0000
# 5 0.0000 0.0000 0.0000 0.0000 15.4625 0.0000
# 6 0.0000 0.0000 0.0000 0.0000 0.0000 32.2272
#
#
#
# Elastic Compliance Matrix: (Units=1/GPa)
#
#
# Indices 1 2 3 4 5 6 
#
# 1 0.011011 -0.002411 0.001072 0.000000 0.000000 0.000000
# 2 -0.002411 0.012672 -0.006247 0.000000 0.000000 0.000000
# 3 0.001072 -0.006247 0.034744 0.000000 0.000000 0.000000
# 4 0.000000 0.000000 0.000000 0.060128 0.000000 0.000000
# 5 0.000000 0.000000 0.000000 0.000000 0.064673 0.000000
# 6 0.000000 0.000000 0.000000 0.000000 0.000000 0.031030
#
#
# Mechanical properties :
#
#
# Convention : Reuss Voigt Hill
#
# Bulk Modulus (GPa) = 23.11895 31.64686 27.38290
# Shear Modulus (GPa) = 20.50474 25.01442 22.75958
#
# Velocity S-wave (km/s) = 3.08415 3.40646 3.24930
# Velocity P-wave (km/s) = 4.83811 5.49114 5.17494
#
# Compressibility (1/GPa) = 0.04325456
#
# Stress axis : x y z
#
# Youngs Moduli (GPa) = 90.81943 78.91539 28.78232
#
# Poissons Ratio (x) = 0.19028 -0.03086
# Poissons Ratio (y) = 0.21899 0.17980
# Poissons Ratio (z) = -0.09739 0.49298
#
# Static dielectric constant tensor:
#      x y z
#    x 1.796990 0.000000 0.000000 
#    y 0.000000 1.761370 0.000000 
#    z 0.000000 0.000000 1.772870 
# 
# From -- ./inp_files/48610.got.cif
#   From: 2010.05.17/outbox.cif.g08.bks.cpg/sg64_25_cif.got.tgz:48610.got - 2010.06.03 16:29:19.
