data_PCOD9480091
_publ_section_title
;
Structure prediction by ZEFSAII (Michael W. Deem and Ramdas Pophale) SiO2 
 PCOD9480091
Probable space group: C M C A
;
_chemical_formula_sum "Si O2"
_cell_formula_units_Z 112
_cell_length_a 17.044823
_cell_length_b 23.903740
_cell_length_c 14.555306
_cell_angle_alpha 90.000000
_cell_angle_beta 90.000000
_cell_angle_gamma 90.000000
_cell_volume 5930.341352
_symmetry_space_group_name_H-M "C M C A"
_symmetry_group_IT_number 64
_symmetry_cell_setting 'orthorhombic'
loop_
_space_group_symop_operation_xyz
x,y,z
-x,1/2-y,1/2+z
x,-y,-z
-x,1/2+y,1/2-z
-x,-y,-z
x,1/2+y,1/2-z
-x,y,z
x,1/2-y,1/2+z
1/2+x,1/2+y,z
1/2-x,-y,1/2+z
1/2+x,1/2-y,-z
1/2-x,y,1/2-z
1/2-x,1/2-y,-z
1/2+x,y,1/2-z
1/2-x,1/2+y,z
1/2+x,-y,1/2+z
loop_
_atom_site_type_symbol
_atom_site_label
_atom_site_fract_x
_atom_site_fract_y
_atom_site_fract_z
Si Si1 0.908053 0.335334 0.474101
Si Si2 0.667276 0.047172 0.929586
Si Si3 0.665312 0.225274 0.974799
Si Si4 0.093715 0.548046 0.430249
Si Si5 0.758408 0.852770 0.143454
Si Si6 0.341880 0.538629 0.273375
Si Si7 0.908295 0.877494 0.576853
O O1 0.892884 0.277662 0.529198
O O2 0.885902 0.389576 0.534810
O O3 0.844640 0.334492 0.390992
O O4 0.000000 0.339400 0.447647
O O5 0.735965 0.089909 0.906803
O O6 0.640854 0.015694 0.837034
O O7 0.603237 0.081885 0.987986
O O8 0.694965 0.000000 0.000000
O O9 0.689042 0.190272 0.885067
O O10 0.750000 0.250000 0.000000
O O11 0.633802 0.180336 0.048786
O O12 0.122543 0.500000 0.500000
O O13 0.118340 0.537748 0.325738
O O14 0.000000 0.545790 0.432738
O O15 0.750000 0.862034 0.250000
O O16 0.250000 0.540955 0.250000
O O17 0.368981 0.590837 0.336813
O O18 0.000000 0.868758 0.594261
#
# Coordination Sequence:
#
# PCOD9480091 Si02
#       7
#    16  16  16  16  16  16  16
#     4  10  22  41  63  85 121 164 203 250 312 371
#     4   9  21  36  59  92 120 164 203 253 310 368
#     4   9  20  40  65  87 119 160 200 253 306 374
#     4  10  24  41  59  85 123 163 200 252 306 365
#     4  10  21  38  62  93 123 158 208 259 306 362
#     4  11  24  35  61  93 121 162 208 255 305 375
#     4  10  21  40  63  91 126 161 205 261 320 373
#
# _framework density 18.885928
#
# number of rings (size 3 to 8) (size 9 to 14) (size 15 to 20)
#    0.000    2.143    0.000    1.286   12.000    3.143 
#    5.143    3.571    0.000    0.000    0.000    0.000 
#    0.000    0.000    0.000    0.000    0.000    0.000 
#
# Total GULP energy -312154.004570 kJ/mol
# GULP energy per Si atom -5574.178653 kJ/mol
# Density = 1.884294 g / cm^3
# Si number density = 18.885928 Si / 1000 Ang^3
#
#
#
# Elastic Constant Matrix: (Units=GPa)
#
#
# Indices 1 2 3 4 5 6 
#
# 1 57.2706 32.2681 31.6748 0.0000 0.0000 0.0000
# 2 32.2681 130.5491 46.1305 0.0000 0.0000 0.0000
# 3 31.6748 46.1305 105.9753 0.0000 0.0000 0.0000
# 4 0.0000 0.0000 0.0000 10.5466 0.0000 0.0000
# 5 0.0000 0.0000 0.0000 0.0000 26.2420 0.0000
# 6 0.0000 0.0000 0.0000 0.0000 0.0000 -88.7547
#
#
#
# Elastic Compliance Matrix: (Units=1/GPa)
#
#
# Indices 1 2 3 4 5 6 
#
# 1 0.022365 -0.003741 -0.005056 0.000000 0.000000 0.000000
# 2 -0.003741 0.009678 -0.003095 0.000000 0.000000 0.000000
# 3 -0.005056 -0.003095 0.012294 0.000000 0.000000 0.000000
# 4 0.000000 0.000000 0.000000 0.094818 0.000000 0.000000
# 5 0.000000 0.000000 0.000000 0.000000 0.038107 0.000000
# 6 0.000000 0.000000 0.000000 0.000000 0.000000 -0.011267
#
#
# Mechanical properties :
#
#
# Convention : Reuss Voigt Hill
#
# Bulk Modulus (GPa) = 48.65302 57.10463 52.87883
# Shear Modulus (GPa) = 25.42832 1.85490 13.64161
#
# Velocity S-wave (km/s) = 3.67333 0.99211 2.69051
# Velocity P-wave (km/s) = 6.61881 5.62269 6.14098
#
# Compressibility (1/GPa) = 0.02055371
#
# Stress axis : x y z
#
# Youngs Moduli (GPa) = 44.71182 103.32451 81.33763
#
# Poissons Ratio (x) = 0.38659 0.41125
# Poissons Ratio (y) = 0.16729 0.25171
# Poissons Ratio (z) = 0.22607 0.31975
#
# Static dielectric constant tensor:
#      x y z
#    x 1.657680 0.000000 0.000000 
#    y 0.000000 1.705710 0.000000 
#    z 0.000000 0.000000 1.647450 
# 
# From -- ./inp_files/24242.got.cif
#   From: 2010.05.17/outbox.cif.g08.bks.cpg/sg64_13_cif.got.tgz:24242.got - 2010.06.03 16:29:19.
