data_PCOD9480092
_publ_section_title
;
Structure prediction by ZEFSAII (Michael W. Deem and Ramdas Pophale) SiO2 
 PCOD9480092
Probable space group: C M C A
;
_chemical_formula_sum "Si O2"
_cell_formula_units_Z 120
_cell_length_a 14.901039
_cell_length_b 21.692799
_cell_length_c 17.318996
_cell_angle_alpha 90.000000
_cell_angle_beta 90.000000
_cell_angle_gamma 90.000000
_cell_volume 5598.283086
_symmetry_space_group_name_H-M "C M C A"
_symmetry_group_IT_number 64
_symmetry_cell_setting 'orthorhombic'
loop_
_space_group_symop_operation_xyz
x,y,z
-x,1/2-y,1/2+z
x,-y,-z
-x,1/2+y,1/2-z
-x,-y,-z
x,1/2+y,1/2-z
-x,y,z
x,1/2-y,1/2+z
1/2+x,1/2+y,z
1/2-x,-y,1/2+z
1/2+x,1/2-y,-z
1/2-x,y,1/2-z
1/2-x,1/2-y,-z
1/2+x,y,1/2-z
1/2-x,1/2+y,z
1/2+x,-y,1/2+z
loop_
_atom_site_type_symbol
_atom_site_label
_atom_site_fract_x
_atom_site_fract_y
_atom_site_fract_z
Si Si1 0.105101 0.019713 0.864782
Si Si2 0.855012 0.763809 0.128449
Si Si3 0.097173 0.869448 0.022611
Si Si4 0.286059 0.595189 0.166406
Si Si5 0.164671 0.170312 0.634176
Si Si6 0.902993 0.712565 0.296067
Si Si7 0.250000 0.419526 0.250000
Si Si8 0.203178 0.351543 0.966266
O O1 0.109959 0.062525 0.941139
O O2 0.182745 0.046483 0.808743
O O3 0.000000 0.022750 0.839876
O O4 0.138175 0.949222 0.869558
O O5 0.907966 0.821426 0.094065
O O6 0.757259 0.791968 0.139803
O O7 0.888360 0.736313 0.208674
O O8 0.842669 0.709915 0.065986
O O9 0.000000 0.866392 0.982272
O O10 0.188721 0.847660 0.981492
O O11 0.250000 0.574121 0.250000
O O12 0.327702 0.662838 0.182423
O O13 0.204792 0.600573 0.104686
O O14 0.097622 0.225725 0.651943
O O15 0.179098 0.120290 0.700042
O O16 0.160533 0.138512 0.550346
O O17 0.000000 0.681953 0.300794
#
# Coordination Sequence:
#
# PCOD9480092 Si02
#       8
#    16  16  16  16  16  16   8  16
#     4  11  24  42  65  96 128 168 224 278 322 383
#     4  11  19  38  60  88 123 166 201 250 318 393
#     4  10  21  38  62  93 127 159 202 265 324 376
#     4  12  24  42  64  87 123 175 220 265 325 391
#     4  11  20  39  64  92 122 161 215 254 319 397
#     4  12  23  37  61  94 128 163 210 270 320 383
#     4  12  20  40  70  92 126 172 214 266 324 398
#     4  11  23  39  64  89 125 169 206 256 318 394
#
# _framework density 21.435144000000001
#
# number of rings (size 3 to 8) (size 9 to 14) (size 15 to 20)
#    0.000    0.800    7.333    2.400    0.000    3.200 
#    0.000    2.000    0.000    0.000    0.000    0.933 
#    0.000    0.000    0.000    0.000    0.000    0.000 
#
# Total GULP energy -334620.014919 kJ/mol
# GULP energy per Si atom -5577.000249 kJ/mol
# Density = 2.138636 g / cm^3
# Si number density = 21.435144 Si / 1000 Ang^3
#
#
#
# Elastic Constant Matrix: (Units=GPa)
#
#
# Indices 1 2 3 4 5 6 
#
# 1 62.7772 11.3565 1.5888 0.0000 0.0000 0.0000
# 2 11.3565 77.8342 26.3222 0.0000 0.0000 0.0000
# 3 1.5888 26.3222 112.2893 0.0000 0.0000 0.0000
# 4 0.0000 0.0000 0.0000 17.8857 0.0000 0.0000
# 5 0.0000 0.0000 0.0000 0.0000 -3.6892 0.0000
# 6 0.0000 0.0000 0.0000 0.0000 0.0000 28.9282
#
#
#
# Elastic Compliance Matrix: (Units=1/GPa)
#
#
# Indices 1 2 3 4 5 6 
#
# 1 0.016374 -0.002510 0.000357 0.000000 0.000000 0.000000
# 2 -0.002510 0.014339 -0.003326 0.000000 0.000000 0.000000
# 3 0.000357 -0.003326 0.009680 0.000000 0.000000 0.000000
# 4 0.000000 0.000000 0.000000 0.055911 0.000000 0.000000
# 5 0.000000 0.000000 0.000000 0.000000 -0.271064 0.000000
# 6 0.000000 0.000000 0.000000 0.000000 0.000000 0.034568
#
#
# Mechanical properties :
#
#
# Convention : Reuss Voigt Hill
#
# Bulk Modulus (GPa) = 33.97247 36.82617 35.39932
# Shear Modulus (GPa) = -41.86818 22.86716 -9.50051
#
# Velocity S-wave (km/s) = -4.42435 3.26974 -2.10757
# Velocity P-wave (km/s) = 3.19633 5.61004 3.26007
#
# Compressibility (1/GPa) = 0.02943560
#
# Stress axis : x y z
#
# Youngs Moduli (GPa) = 61.07121 69.74141 103.30459
#
# Poissons Ratio (x) = 0.17503 -0.03684
# Poissons Ratio (y) = 0.15327 0.34356
# Poissons Ratio (z) = -0.02178 0.23194
#
# Static dielectric constant tensor:
#      x y z
#    x 1.750490 0.000000 0.000000 
#    y 0.000000 1.815970 0.000000 
#    z 0.000000 0.000000 1.903970 
# 
# From -- ./inp_files/33685.got.cif
#   From: 2010.05.17/outbox.cif.g08.bks.cpg/sg64_17_cif.got.tgz:33685.got - 2010.06.03 16:29:19.
