data_PCOD9480585
_publ_section_title
;
Structure prediction by ZEFSAII (Michael W. Deem and Ramdas Pophale) SiO2 
 PCOD9480585
Probable space group: C M C A
;
_chemical_formula_sum "Si O2"
_cell_formula_units_Z 72
_cell_length_a 13.869433
_cell_length_b 8.577749
_cell_length_c 28.153658
_cell_angle_alpha 90.000000
_cell_angle_beta 90.000000
_cell_angle_gamma 90.000000
_cell_volume 3349.398885
_symmetry_space_group_name_H-M "C M C A"
_symmetry_group_IT_number 64
_symmetry_cell_setting 'orthorhombic'
loop_
_space_group_symop_operation_xyz
x,y,z
-x,1/2-y,1/2+z
x,-y,-z
-x,1/2+y,1/2-z
-x,-y,-z
x,1/2+y,1/2-z
-x,y,z
x,1/2-y,1/2+z
1/2+x,1/2+y,z
1/2-x,-y,1/2+z
1/2+x,1/2-y,-z
1/2-x,y,1/2-z
1/2-x,1/2-y,-z
1/2+x,y,1/2-z
1/2-x,1/2+y,z
1/2+x,-y,1/2+z
loop_
_atom_site_type_symbol
_atom_site_label
_atom_site_fract_x
_atom_site_fract_y
_atom_site_fract_z
Si Si1 0.191629 0.500000 0.500000
Si Si2 0.611368 0.509944 0.183813
Si Si3 0.295475 0.748862 0.567367
Si Si4 0.200613 0.481064 0.870253
Si Si5 0.888000 0.336555 0.776676
O O1 0.255725 0.617677 0.531485
O O2 0.145223 0.621462 0.462355
O O3 0.500000 0.538654 0.170389
O O4 0.685388 0.500531 0.140822
O O5 0.648590 0.631925 0.223491
O O6 0.617686 0.343878 0.210173
O O7 0.205084 0.841126 0.591499
O O8 0.340980 0.641467 0.608665
O O9 0.154658 0.432426 0.820591
O O10 0.000000 0.382772 0.773615
#
# Coordination Sequence:
#
# PCOD9480585 Si02
#       5
#     8  16  16  16  16
#     4   8  16  34  50  82 112 134 166 224 268 348
#     4  10  22  37  52  75 113 152 182 219 265 307
#     4   9  18  30  55  82 108 134 179 216 276 319
#     4  11  19  33  55  86 104 142 185 227 251 321
#     4  10  22  37  52  75 113 152 182 219 265 307
#
# _framework density 21.496393999999999
#
# number of rings (size 3 to 8) (size 9 to 14) (size 15 to 20)
#    0.000    2.222    2.222    0.667    3.111    1.778 
#    0.000    0.000    0.000    0.000    0.000  108.889 
#    0.000    0.000    0.000    0.000    0.000    0.000 
#
# Total GULP energy -200516.725247 kJ/mol
# GULP energy per Si atom -5569.909035 kJ/mol
# Density = 2.144747 g / cm^3
# Si number density = 21.496394 Si / 1000 Ang^3
#
#
#
# Elastic Constant Matrix: (Units=GPa)
#
#
# Indices 1 2 3 4 5 6 
#
# 1 30.0543 5.3755 14.6057 0.0000 0.0000 0.0000
# 2 5.3755 90.3229 25.6645 0.0000 0.0000 0.0000
# 3 14.6057 25.6645 82.9452 0.0000 0.0000 0.0000
# 4 0.0000 0.0000 0.0000 56.2051 0.0000 0.0000
# 5 0.0000 0.0000 0.0000 0.0000 2.1475 0.0000
# 6 0.0000 0.0000 0.0000 0.0000 0.0000 12.8377
#
#
#
# Elastic Compliance Matrix: (Units=1/GPa)
#
#
# Indices 1 2 3 4 5 6 
#
# 1 0.036399 -0.000378 -0.006292 0.000000 0.000000 0.000000
# 2 -0.000378 0.012143 -0.003690 0.000000 0.000000 0.000000
# 3 -0.006292 -0.003690 0.014306 0.000000 0.000000 0.000000
# 4 0.000000 0.000000 0.000000 0.017792 0.000000 0.000000
# 5 0.000000 0.000000 0.000000 0.000000 0.465656 0.000000
# 6 0.000000 0.000000 0.000000 0.000000 0.000000 0.077896
#
#
# Mechanical properties :
#
#
# Convention : Reuss Voigt Hill
#
# Bulk Modulus (GPa) = 23.73888 32.73486 28.23687
# Shear Modulus (GPa) = 7.58777 24.74985 16.16881
#
# Velocity S-wave (km/s) = 1.88081 3.39683 2.74554
# Velocity P-wave (km/s) = 3.97288 5.53586 4.81817
#
# Compressibility (1/GPa) = 0.04212499
#
# Stress axis : x y z
#
# Youngs Moduli (GPa) = 27.47355 82.35528 69.90055
#
# Poissons Ratio (x) = 0.03116 0.43984
# Poissons Ratio (y) = 0.01039 0.25796
# Poissons Ratio (z) = 0.17287 0.30393
#
# Static dielectric constant tensor:
#      x y z
#    x 1.770100 0.000000 0.000000 
#    y 0.000000 1.839730 0.000000 
#    z 0.000000 0.000000 1.871340 
# 
# From -- ./inp_files/49798.got.cif
#   From: 2010.05.17/outbox.cif.g08.bks.cpg/sg64_25_cif.got.tgz:49798.got - 2010.06.03 16:29:19.
