data_PCOD9480059
_publ_section_title
;
Structure prediction by ZEFSAII (Michael W. Deem and Ramdas Pophale) SiO2 
 PCOD9480059
Probable space group: C M C A
;
_chemical_formula_sum "Si O2"
_cell_formula_units_Z 96
_cell_length_a 19.434672
_cell_length_b 23.505093
_cell_length_c 8.935941
_cell_angle_alpha 90.000000
_cell_angle_beta 90.000000
_cell_angle_gamma 90.000000
_cell_volume 4082.060922
_symmetry_space_group_name_H-M "C M C A"
_symmetry_group_IT_number 64
_symmetry_cell_setting 'orthorhombic'
loop_
_space_group_symop_operation_xyz
x,y,z
-x,1/2-y,1/2+z
x,-y,-z
-x,1/2+y,1/2-z
-x,-y,-z
x,1/2+y,1/2-z
-x,y,z
x,1/2-y,1/2+z
1/2+x,1/2+y,z
1/2-x,-y,1/2+z
1/2+x,1/2-y,-z
1/2-x,y,1/2-z
1/2-x,1/2-y,-z
1/2+x,y,1/2-z
1/2-x,1/2+y,z
1/2+x,-y,1/2+z
loop_
_atom_site_type_symbol
_atom_site_label
_atom_site_fract_x
_atom_site_fract_y
_atom_site_fract_z
Si Si1 0.722494 0.939820 0.412754
Si Si2 0.806946 0.619556 0.129294
Si Si3 0.076563 0.075492 0.548509
Si Si4 0.919130 0.200592 0.697937
Si Si5 0.074371 0.450739 0.374279
Si Si6 0.171245 0.745227 0.062352
O O1 0.750000 0.952175 0.250000
O O2 0.766347 0.887969 0.474801
O O3 0.643990 0.920535 0.419204
O O4 0.729837 0.000000 0.500000
O O5 0.750000 0.601384 0.250000
O O6 0.828458 0.684435 0.151021
O O7 0.870983 0.578957 0.089923
O O8 0.080948 0.137464 0.627285
O O9 0.085476 0.035685 0.696380
O O10 0.000000 0.066700 0.490696
O O11 0.884545 0.238784 0.569167
O O12 0.863582 0.208371 0.830208
O O13 0.000000 0.214767 0.731924
O O14 0.070816 0.500000 0.500000
O O15 0.000000 0.421054 0.380868
O O16 0.250000 0.750000 0.000000
#
# Coordination Sequence:
#
# PCOD9480059 Si02
#       6
#    16  16  16  16  16  16
#     4  11  22  38  63  91 120 163 207 257 311 371
#     4  11  23  39  58  87 125 162 203 253 309 371
#     4   9  19  37  63  91 122 165 212 257 312 373
#     4  10  21  38  61  87 121 164 209 254 308 374
#     4   9  18  35  61  92 123 156 204 263 313 365
#     4  11  23  38  59  88 121 159 204 259 313 366
#
# _framework density 23.517533
#
# number of rings (size 3 to 8) (size 9 to 14) (size 15 to 20)
#    0.000    1.833    1.667    2.500    2.333    0.667 
#    0.000    0.833    0.000    4.000    0.000    0.000 
#    0.000    0.000    0.000    0.000    0.000    0.000 
#
# Total GULP energy -267459.882872 kJ/mol
# GULP energy per Si atom -5572.080893 kJ/mol
# Density = 2.346401 g / cm^3
# Si number density = 23.517533 Si / 1000 Ang^3
#
#
#
# Elastic Constant Matrix: (Units=GPa)
#
#
# Indices 1 2 3 4 5 6 
#
# 1 188.1353 30.2482 31.6046 0.0000 0.0000 0.0000
# 2 30.2482 79.2879 35.0550 0.0000 0.0000 0.0000
# 3 31.6046 35.0550 96.0931 0.0000 0.0000 0.0000
# 4 0.0000 0.0000 0.0000 34.5149 0.0000 0.0000
# 5 0.0000 0.0000 0.0000 0.0000 50.2512 0.0000
# 6 0.0000 0.0000 0.0000 0.0000 0.0000 80.9014
#
#
#
# Elastic Compliance Matrix: (Units=1/GPa)
#
#
# Indices 1 2 3 4 5 6 
#
# 1 0.005798 -0.001632 -0.001312 0.000000 0.000000 0.000000
# 2 -0.001632 0.015497 -0.005117 0.000000 0.000000 0.000000
# 3 -0.001312 -0.005117 0.012704 0.000000 0.000000 0.000000
# 4 0.000000 0.000000 0.000000 0.028973 0.000000 0.000000
# 5 0.000000 0.000000 0.000000 0.000000 0.019900 0.000000
# 6 0.000000 0.000000 0.000000 0.000000 0.000000 0.012361
#
#
# Mechanical properties :
#
#
# Convention : Reuss Voigt Hill
#
# Bulk Modulus (GPa) = 55.93110 61.92577 58.92843
# Shear Modulus (GPa) = 42.62084 50.90740 46.76412
#
# Velocity S-wave (km/s) = 4.26173 4.65764 4.46407
# Velocity P-wave (km/s) = 6.93187 7.43732 7.18904
#
# Compressibility (1/GPa) = 0.01787914
#
# Stress axis : x y z
#
# Youngs Moduli (GPa) = 172.47159 64.52842 78.71234
#
# Poissons Ratio (x) = 0.10531 0.10324
# Poissons Ratio (y) = 0.28149 0.40274
# Poissons Ratio (z) = 0.22621 0.33017
#
# Static dielectric constant tensor:
#      x y z
#    x 1.942210 0.000000 0.000000 
#    y 0.000000 2.010130 0.000000 
#    z 0.000000 0.000000 1.943880 
# 
# From -- ./inp_files/8431.got.cif
#   From: 2010.05.17/outbox.cif.g08.bks.cpg/sg64_5_cif.got.tgz:8431.got - 2010.06.03 16:29:19.
