data_PCOD9480546
_publ_section_title
;
Structure prediction by ZEFSAII (Michael W. Deem and Ramdas Pophale) SiO2 
 PCOD9480546
Probable space group: C M C A
;
_chemical_formula_sum "Si O2"
_cell_formula_units_Z 56
_cell_length_a 19.734072
_cell_length_b 10.420810
_cell_length_c 10.489990
_cell_angle_alpha 90.000000
_cell_angle_beta 90.000000
_cell_angle_gamma 90.000000
_cell_volume 2157.214149
_symmetry_space_group_name_H-M "C M C A"
_symmetry_group_IT_number 64
_symmetry_cell_setting 'orthorhombic'
loop_
_space_group_symop_operation_xyz
x,y,z
-x,1/2-y,1/2+z
x,-y,-z
-x,1/2+y,1/2-z
-x,-y,-z
x,1/2+y,1/2-z
-x,y,z
x,1/2-y,1/2+z
1/2+x,1/2+y,z
1/2-x,-y,1/2+z
1/2+x,1/2-y,-z
1/2-x,y,1/2-z
1/2-x,1/2-y,-z
1/2+x,y,1/2-z
1/2-x,1/2+y,z
1/2+x,-y,1/2+z
loop_
_atom_site_type_symbol
_atom_site_label
_atom_site_fract_x
_atom_site_fract_y
_atom_site_fract_z
Si Si1 0.649352 0.398440 0.161583
Si Si2 0.647718 0.278341 0.419480
Si Si3 0.247119 0.500000 0.000000
Si Si4 0.000000 0.154289 0.507060
Si Si5 0.000000 0.581228 0.630433
O O1 0.665738 0.294552 0.270443
O O2 0.573875 0.453341 0.188248
O O3 0.647768 0.336538 0.020656
O O4 0.709138 0.497861 0.131543
O O5 0.697114 0.379811 0.487697
O O6 0.568810 0.313842 0.421847
O O7 0.000000 0.262455 0.392361
O O8 0.000000 0.000000 0.500000
O O9 0.000000 0.500000 0.500000
#
# Coordination Sequence:
#
# PCOD9480546 Si02
#       5
#    16  16   8   8   8
#     4  11  25  45  71 104 143 190 243 305 371 440
#     4  11  25  45  71 104 143 190 243 305 371 440
#     4  12  24  42  66 100 144 190 240 292 362 444
#     4  10  21  46  72 107 145 188 248 302 371 435
#     4  10  21  46  72 107 145 188 248 302 371 435
#
# _framework density 25.959408
#
# number of rings (size 3 to 8) (size 9 to 14) (size 15 to 20)
#    0.000    1.143    2.857    2.571    0.000    4.571 
#    0.000    2.857    0.000    0.000    0.000    0.000 
#    0.000    0.000    0.000    0.000    0.000    0.000 
#
# Total GULP energy -156011.518125 kJ/mol
# GULP energy per Si atom -5571.839933 kJ/mol
# Density = 2.590032 g / cm^3
# Si number density = 25.959408 Si / 1000 Ang^3
#
#
#
# Elastic Constant Matrix: (Units=GPa)
#
#
# Indices 1 2 3 4 5 6 
#
# 1 170.4525 3.8646 43.6901 0.0000 0.0000 0.0000
# 2 3.8646 44.7239 23.9406 0.0000 0.0000 0.0000
# 3 43.6901 23.9406 137.1045 0.0000 0.0000 0.0000
# 4 0.0000 0.0000 0.0000 40.1205 0.0000 0.0000
# 5 0.0000 0.0000 0.0000 0.0000 -7.8469 0.0000
# 6 0.0000 0.0000 0.0000 0.0000 0.0000 35.6784
#
#
#
# Elastic Compliance Matrix: (Units=1/GPa)
#
#
# Indices 1 2 3 4 5 6 
#
# 1 0.006403 0.000594 -0.002144 0.000000 0.000000 0.000000
# 2 0.000594 0.024720 -0.004506 0.000000 0.000000 0.000000
# 3 -0.002144 -0.004506 0.008764 0.000000 0.000000 0.000000
# 4 0.000000 0.000000 0.000000 0.024925 0.000000 0.000000
# 5 0.000000 0.000000 0.000000 0.000000 -0.127438 0.000000
# 6 0.000000 0.000000 0.000000 0.000000 0.000000 0.028028
#
#
# Mechanical properties :
#
#
# Convention : Reuss Voigt Hill
#
# Bulk Modulus (GPa) = 36.00304 55.03019 45.51661
# Shear Modulus (GPa) = -377.96892 32.30943 -172.82974
#
# Velocity S-wave (km/s) = -12.07957 3.53174 -8.16832
# Velocity P-wave (km/s) = 13.44082 6.15430 8.44927
#
# Compressibility (1/GPa) = 0.02777543
#
# Stress axis : x y z
#
# Youngs Moduli (GPa) = 156.18053 40.45297 114.10597
#
# Poissons Ratio (x) = -0.02405 0.24466
# Poissons Ratio (y) = -0.09285 0.51416
# Poissons Ratio (z) = 0.33488 0.18228
#
# Static dielectric constant tensor:
#      x y z
#    x 2.163340 0.000000 0.000000 
#    y 0.000000 2.290070 0.000000 
#    z 0.000000 0.000000 2.373740 
# 
# From -- ./inp_files/16745.got.cif
#   From: 2010.05.17/outbox.cif.g08.bks.cpg/sg64_9_cif.got.tgz:16745.got - 2010.06.03 16:29:19.
