data_PCOD9480674
_publ_section_title
;
Structure prediction by ZEFSAII (Michael W. Deem and Ramdas Pophale) SiO2 
 PCOD9480674
Probable space group: C M C A
;
_chemical_formula_sum "Si O2"
_cell_formula_units_Z 72
_cell_length_a 14.760737
_cell_length_b 7.454526
_cell_length_c 29.011583
_cell_angle_alpha 90.000000
_cell_angle_beta 90.000000
_cell_angle_gamma 90.000000
_cell_volume 3192.269162
_symmetry_space_group_name_H-M "C M C A"
_symmetry_group_IT_number 64
_symmetry_cell_setting 'orthorhombic'
loop_
_space_group_symop_operation_xyz
x,y,z
-x,1/2-y,1/2+z
x,-y,-z
-x,1/2+y,1/2-z
-x,-y,-z
x,1/2+y,1/2-z
-x,y,z
x,1/2-y,1/2+z
1/2+x,1/2+y,z
1/2-x,-y,1/2+z
1/2+x,1/2-y,-z
1/2-x,y,1/2-z
1/2-x,1/2-y,-z
1/2+x,y,1/2-z
1/2-x,1/2+y,z
1/2+x,-y,1/2+z
loop_
_atom_site_type_symbol
_atom_site_label
_atom_site_fract_x
_atom_site_fract_y
_atom_site_fract_z
Si Si1 0.654083 0.151562 0.119359
Si Si2 0.352896 0.705990 0.486709
Si Si3 0.500000 0.215340 0.185978
Si Si4 0.000000 0.794842 0.291726
Si Si5 0.636579 0.726863 0.133343
Si Si6 0.500000 0.369565 0.945702
O O1 0.636352 0.223138 0.068051
O O2 0.589056 0.249938 0.155623
O O3 0.759013 0.172315 0.132292
O O4 0.631898 0.938747 0.119483
O O5 0.371604 0.500000 0.500000
O O6 0.250000 0.750000 0.500000
O O7 0.421969 0.823491 0.515314
O O8 0.500000 0.292938 0.236928
O O9 0.500000 0.002014 0.194327
O O10 0.912480 0.709963 0.317107
O O11 0.578840 0.626034 0.094814
#
# Coordination Sequence:
#
# PCOD9480674 Si02
#       6
#    16  16   8   8  16   8
#     4  11  21  40  59  93 117 165 195 255 289 367
#     4  12  22  36  63  90 124 162 206 238 295 353
#     4  10  23  40  66  85 125 148 214 242 312 361
#     4   9  22  42  61  94 110 165 191 260 305 367
#     4  10  22  38  64  83 124 152 209 241 308 349
#     4  11  20  36  59  84 117 164 195 245 279 365
#
# _framework density 22.554489
#
# number of rings (size 3 to 8) (size 9 to 14) (size 15 to 20)
#    0.000    1.333    4.444    1.667    0.000    2.667 
#    0.000    6.111    0.000    0.000    0.000    0.000 
#    0.000    0.000    0.000    0.000    0.000    0.000 
#
# Total GULP energy -200627.456670 kJ/mol
# GULP energy per Si atom -5572.984908 kJ/mol
# Density = 2.250315 g / cm^3
# Si number density = 22.554489 Si / 1000 Ang^3
#
#
#
# Elastic Constant Matrix: (Units=GPa)
#
#
# Indices 1 2 3 4 5 6 
#
# 1 197.3901 2.4006 110.7384 0.0000 0.0000 0.0000
# 2 2.4006 68.7959 22.7011 0.0000 0.0000 0.0000
# 3 110.7384 22.7011 236.1969 0.0000 0.0000 0.0000
# 4 0.0000 0.0000 0.0000 19.8289 0.0000 0.0000
# 5 0.0000 0.0000 0.0000 0.0000 -0.8066 0.0000
# 6 0.0000 0.0000 0.0000 0.0000 0.0000 -60.1332
#
#
#
# Elastic Compliance Matrix: (Units=1/GPa)
#
#
# Indices 1 2 3 4 5 6 
#
# 1 0.006923 0.000857 -0.003328 0.000000 0.000000 0.000000
# 2 0.000857 0.015118 -0.001855 0.000000 0.000000 0.000000
# 3 -0.003328 -0.001855 0.005972 0.000000 0.000000 0.000000
# 4 0.000000 0.000000 0.000000 0.050431 0.000000 0.000000
# 5 0.000000 0.000000 0.000000 0.000000 -1.239849 0.000000
# 6 0.000000 0.000000 0.000000 0.000000 0.000000 -0.016630
#
#
# Mechanical properties :
#
#
# Convention : Reuss Voigt Hill
#
# Bulk Modulus (GPa) = 51.65051 86.00702 68.82876
# Shear Modulus (GPa) = -4.29949 16.21401 5.95726
#
# Velocity S-wave (km/s) = -1.38217 2.68411 1.62696
# Velocity P-wave (km/s) = 4.51695 6.91532 5.84057
#
# Compressibility (1/GPa) = 0.01936089
#
# Stress axis : x y z
#
# Youngs Moduli (GPa) = 144.45167 66.14706 167.43996
#
# Poissons Ratio (x) = -0.05666 0.55724
# Poissons Ratio (y) = -0.12374 0.31053
# Poissons Ratio (z) = 0.48073 0.12268
#
# Static dielectric constant tensor:
#      x y z
#    x 1.762150 0.000000 0.000000 
#    y 0.000000 1.944270 0.000000 
#    z 0.000000 0.000000 1.799340 
# 
# From -- ./inp_files/49840.got.cif
#   From: 2010.05.17/outbox.cif.g08.bks.cpg/sg64_25_cif.got.tgz:49840.got - 2010.06.03 16:29:19.
