data_PCOD9480934
_publ_section_title
;
Structure prediction by ZEFSAII (Michael W. Deem and Ramdas Pophale) SiO2 
 PCOD9480934
Probable space group: C M C A
;
_chemical_formula_sum "Si O2"
_cell_formula_units_Z 104
_cell_length_a 27.245775
_cell_length_b 10.107215
_cell_length_c 20.084012
_cell_angle_alpha 90.000000
_cell_angle_beta 90.000000
_cell_angle_gamma 90.000000
_cell_volume 5530.713248
_symmetry_space_group_name_H-M "C M C A"
_symmetry_group_IT_number 64
_symmetry_cell_setting 'orthorhombic'
loop_
_space_group_symop_operation_xyz
x,y,z
-x,1/2-y,1/2+z
x,-y,-z
-x,1/2+y,1/2-z
-x,-y,-z
x,1/2+y,1/2-z
-x,y,z
x,1/2-y,1/2+z
1/2+x,1/2+y,z
1/2-x,-y,1/2+z
1/2+x,1/2-y,-z
1/2-x,y,1/2-z
1/2-x,1/2-y,-z
1/2+x,y,1/2-z
1/2-x,1/2+y,z
1/2+x,-y,1/2+z
loop_
_atom_site_type_symbol
_atom_site_label
_atom_site_fract_x
_atom_site_fract_y
_atom_site_fract_z
Si Si1 0.942968 0.963965 0.209578
Si Si2 0.557342 0.392622 0.055029
Si Si3 0.883927 0.791931 0.742439
Si Si4 0.731257 0.892066 0.395810
Si Si5 0.803751 0.000000 0.500000
Si Si6 0.359599 0.792712 0.911758
Si Si7 0.781819 0.840262 0.814066
O O1 0.925073 0.105361 0.234443
O O2 0.000000 0.939426 0.225964
O O3 0.937899 0.951685 0.129583
O O4 0.907164 0.853963 0.240998
O O5 0.500000 0.361664 0.043877
O O6 0.590983 0.263045 0.055344
O O7 0.572541 0.500000 0.000000
O O8 0.868399 0.821722 0.666171
O O9 0.836686 0.808751 0.789428
O O10 0.680078 0.825334 0.415229
O O11 0.756911 0.790527 0.344634
O O12 0.767970 0.906986 0.457351
O O13 0.721432 0.036456 0.364507
O O14 0.836803 0.083877 0.449794
O O15 0.750000 0.880020 0.750000
#
# Coordination Sequence:
#
# PCOD9480934 Si02
#       7
#    16  16  16  16   8  16  16
#     4  10  22  41  66  95 128 159 206 264 316 377
#     4   9  20  41  68  94 122 163 213 259 311 375
#     4  11  23  40  64  96 122 168 208 255 324 367
#     4  12  25  42  61  91 127 173 208 263 313 375
#     4  12  26  42  59  92 129 170 220 254 316 380
#     4  11  24  41  63  90 128 168 206 263 317 369
#     4  12  24  38  64  91 129 159 212 259 312 382
#
# _framework density 18.804085000000001
#
# number of rings (size 3 to 8) (size 9 to 14) (size 15 to 20)
#    0.000    1.077    3.077    3.231    5.385    1.846 
#    0.000    0.385    0.000    0.000    0.000    0.000 
#    0.000    0.000    0.000    0.000    0.000    0.000 
#
# Total GULP energy -290671.640025 kJ/mol
# GULP energy per Si atom -5589.839231 kJ/mol
# Density = 1.876129 g / cm^3
# Si number density = 18.804085 Si / 1000 Ang^3
#
#
#
# Elastic Constant Matrix: (Units=GPa)
#
#
# Indices 1 2 3 4 5 6 
#
# 1 75.2633 17.3076 13.8102 0.0000 0.0000 0.0000
# 2 17.3076 53.3697 11.9706 0.0000 0.0000 0.0000
# 3 13.8102 11.9706 18.2007 0.0000 0.0000 0.0000
# 4 0.0000 0.0000 0.0000 27.6907 0.0000 0.0000
# 5 0.0000 0.0000 0.0000 0.0000 30.8590 0.0000
# 6 0.0000 0.0000 0.0000 0.0000 0.0000 28.8222
#
#
#
# Elastic Compliance Matrix: (Units=1/GPa)
#
#
# Indices 1 2 3 4 5 6 
#
# 1 0.015798 -0.002856 -0.010109 0.000000 0.000000 0.000000
# 2 -0.002856 0.022496 -0.012629 0.000000 0.000000 0.000000
# 3 -0.010109 -0.012629 0.070919 0.000000 0.000000 0.000000
# 4 0.000000 0.000000 0.000000 0.036113 0.000000 0.000000
# 5 0.000000 0.000000 0.000000 0.000000 0.032405 0.000000
# 6 0.000000 0.000000 0.000000 0.000000 0.000000 0.034696
#
#
# Mechanical properties :
#
#
# Convention : Reuss Voigt Hill
#
# Bulk Modulus (GPa) = 17.23350 25.89006 21.56178
# Shear Modulus (GPa) = 17.67051 24.39073 21.03062
#
# Velocity S-wave (km/s) = 3.06881 3.60543 3.34789
# Velocity P-wave (km/s) = 4.66277 5.57946 5.14159
#
# Compressibility (1/GPa) = 0.05802651
#
# Stress axis : x y z
#
# Youngs Moduli (GPa) = 63.29767 44.45252 14.10051
#
# Poissons Ratio (x) = 0.12695 0.14254
# Poissons Ratio (y) = 0.18077 0.17807
# Poissons Ratio (z) = 0.63988 0.56137
#
# Static dielectric constant tensor:
#      x y z
#    x 1.650000 0.000000 0.000000 
#    y 0.000000 1.633400 0.000000 
#    z 0.000000 0.000000 1.655320 
# 
# From -- ./inp_files/41868.got.cif
#   From: 2010.05.17/outbox.cif.g08.bks.cpg/sg64_21_cif.got.tgz:41868.got - 2010.06.03 16:29:19.
