data_PCOD9480373
_publ_section_title
;
Structure prediction by ZEFSAII (Michael W. Deem and Ramdas Pophale) SiO2 
 PCOD9480373
Probable space group: C M C A
;
_chemical_formula_sum "Si O2"
_cell_formula_units_Z 112
_cell_length_a 17.272951
_cell_length_b 28.395963
_cell_length_c 11.440777
_cell_angle_alpha 90.000000
_cell_angle_beta 90.000000
_cell_angle_gamma 90.000000
_cell_volume 5611.496071
_symmetry_space_group_name_H-M "C M C A"
_symmetry_group_IT_number 64
_symmetry_cell_setting 'orthorhombic'
loop_
_space_group_symop_operation_xyz
x,y,z
-x,1/2-y,1/2+z
x,-y,-z
-x,1/2+y,1/2-z
-x,-y,-z
x,1/2+y,1/2-z
-x,y,z
x,1/2-y,1/2+z
1/2+x,1/2+y,z
1/2-x,-y,1/2+z
1/2+x,1/2-y,-z
1/2-x,y,1/2-z
1/2-x,1/2-y,-z
1/2+x,y,1/2-z
1/2-x,1/2+y,z
1/2+x,-y,1/2+z
loop_
_atom_site_type_symbol
_atom_site_label
_atom_site_fract_x
_atom_site_fract_y
_atom_site_fract_z
Si Si1 0.682397 0.330175 0.597537
Si Si2 0.664104 0.905701 0.299311
Si Si3 0.591229 0.998500 0.639608
Si Si4 0.912137 0.105201 0.238520
Si Si5 0.412094 0.666806 0.637691
Si Si6 0.643678 0.339890 0.976244
Si Si7 0.410211 0.239699 0.653080
O O1 0.648704 0.374468 0.668736
O O2 0.646911 0.330607 0.467882
O O3 0.774123 0.329367 0.584134
O O4 0.646949 0.283526 0.655326
O O5 0.750000 0.898222 0.250000
O O6 0.604918 0.879658 0.212793
O O7 0.655917 0.879845 0.424335
O O8 0.642814 0.960161 0.307997
O O9 0.500000 0.008636 0.659981
O O10 0.607239 0.947195 0.693314
O O11 0.602814 0.000000 0.500000
O O12 0.000000 0.105318 0.286113
O O13 0.909377 0.138953 0.125063
O O14 0.500000 0.667671 0.594095
O O15 0.401678 0.709312 0.729236
O O16 0.610579 0.294671 0.044545
O O17 0.500000 0.254622 0.643104
#
# Coordination Sequence:
#
# PCOD9480373 Si02
#       7
#    16  16  16  16  16  16  16
#     4  12  24  42  62  93 135 169 204 266 323 378
#     4  11  21  40  64  93 126 162 208 262 321 383
#     4  10  21  40  67  94 121 159 211 264 314 375
#     4  11  24  42  65  93 126 164 211 263 317 379
#     4  10  22  40  63  89 125 169 214 258 312 376
#     4  11  23  41  64  93 128 165 215 267 318 373
#     4  10  23  40  64  91 123 174 224 261 306 374
#
# _framework density 19.959026999999999
#
# number of rings (size 3 to 8) (size 9 to 14) (size 15 to 20)
#    0.000    1.286    2.857    3.000    2.000    2.286 
#    2.571    0.714    0.000    2.571    0.000    0.000 
#    0.000    0.000    0.000    0.000    0.000    0.000 
#
# Total GULP energy -313231.114049 kJ/mol
# GULP energy per Si atom -5593.412751 kJ/mol
# Density = 1.991360 g / cm^3
# Si number density = 19.959027 Si / 1000 Ang^3
#
#
#
# Elastic Constant Matrix: (Units=GPa)
#
#
# Indices 1 2 3 4 5 6 
#
# 1 68.5282 22.1939 18.2004 0.0000 0.0000 0.0000
# 2 22.1939 84.1285 8.7712 0.0000 0.0000 0.0000
# 3 18.2004 8.7712 50.6764 0.0000 0.0000 0.0000
# 4 0.0000 0.0000 0.0000 18.4527 0.0000 0.0000
# 5 0.0000 0.0000 0.0000 0.0000 28.4874 0.0000
# 6 0.0000 0.0000 0.0000 0.0000 0.0000 17.3640
#
#
#
# Elastic Compliance Matrix: (Units=1/GPa)
#
#
# Indices 1 2 3 4 5 6 
#
# 1 0.017361 -0.004002 -0.005542 0.000000 0.000000 0.000000
# 2 -0.004002 0.013028 -0.000818 0.000000 0.000000 0.000000
# 3 -0.005542 -0.000818 0.021865 0.000000 0.000000 0.000000
# 4 0.000000 0.000000 0.000000 0.054193 0.000000 0.000000
# 5 0.000000 0.000000 0.000000 0.000000 0.035103 0.000000
# 6 0.000000 0.000000 0.000000 0.000000 0.000000 0.057591
#
#
# Mechanical properties :
#
#
# Convention : Reuss Voigt Hill
#
# Bulk Modulus (GPa) = 31.71641 33.51826 32.61733
# Shear Modulus (GPa) = 21.70388 23.13864 22.42126
#
# Velocity S-wave (km/s) = 3.30119 3.40855 3.35530
# Velocity P-wave (km/s) = 5.51867 5.68515 5.60253
#
# Compressibility (1/GPa) = 0.03152942
#
# Stress axis : x y z
#
# Youngs Moduli (GPa) = 57.60145 76.76015 45.73496
#
# Poissons Ratio (x) = 0.30720 0.25348
# Poissons Ratio (y) = 0.23053 0.03739
# Poissons Ratio (z) = 0.31925 0.06275
#
# Static dielectric constant tensor:
#      x y z
#    x 1.671140 0.000000 0.000000 
#    y 0.000000 1.684930 0.000000 
#    z 0.000000 0.000000 1.700030 
# 
# From -- ./inp_files/14963.got.cif
#   From: 2010.05.17/outbox.cif.g08.bks.cpg/sg64_8_cif.got.tgz:14963.got - 2010.06.03 16:29:19.
