data_PCOD9480813
_publ_section_title
;
Structure prediction by ZEFSAII (Michael W. Deem and Ramdas Pophale) SiO2 
 PCOD9480813
Probable space group: C M C A
;
_chemical_formula_sum "Si O2"
_cell_formula_units_Z 56
_cell_length_a 15.873936
_cell_length_b 17.863243
_cell_length_c 8.329250
_cell_angle_alpha 90.000000
_cell_angle_beta 90.000000
_cell_angle_gamma 90.000000
_cell_volume 2361.841931
_symmetry_space_group_name_H-M "C M C A"
_symmetry_group_IT_number 64
_symmetry_cell_setting 'orthorhombic'
loop_
_space_group_symop_operation_xyz
x,y,z
-x,1/2-y,1/2+z
x,-y,-z
-x,1/2+y,1/2-z
-x,-y,-z
x,1/2+y,1/2-z
-x,y,z
x,1/2-y,1/2+z
1/2+x,1/2+y,z
1/2-x,-y,1/2+z
1/2+x,1/2-y,-z
1/2-x,y,1/2-z
1/2-x,1/2-y,-z
1/2+x,y,1/2-z
1/2-x,1/2+y,z
1/2+x,-y,1/2+z
loop_
_atom_site_type_symbol
_atom_site_label
_atom_site_fract_x
_atom_site_fract_y
_atom_site_fract_z
Si Si1 0.780311 0.868567 0.085186
Si Si2 0.500000 0.956926 0.237552
Si Si3 0.833832 0.287553 0.861246
Si Si4 0.000000 0.623396 0.095536
Si Si5 0.634158 0.000000 0.500000
O O1 0.750000 0.906275 0.250000
O O2 0.846396 0.801312 0.114120
O O3 0.807878 0.929799 0.956638
O O4 0.698917 0.823851 0.025574
O O5 0.420908 0.962683 0.359292
O O6 0.500000 0.892335 0.100207
O O7 0.500000 0.038660 0.156880
O O8 0.750000 0.295686 0.750000
O O9 0.919446 0.332176 0.833649
#
# Coordination Sequence:
#
# PCOD9480813 Si02
#       5
#    16   8  16   8   8
#     4  10  22  40  62  91 124 164 220 270 323 396
#     4  10  24  38  58  98 128 164 227 259 314 425
#     4  10  22  41  65  95 126 165 220 271 326 399
#     4  11  22  42  66  91 130 171 211 274 336 385
#     4  11  22  40  60  87 134 174 208 273 330 379
#
# _framework density 23.710308999999999
#
# number of rings (size 3 to 8) (size 9 to 14) (size 15 to 20)
#    0.000    1.714    0.000    3.429    0.000    8.000 
#    0.000   15.714    0.000    0.000    0.000    0.000 
#    0.000    0.000    0.000    0.000    0.000    0.000 
#
# Total GULP energy -156006.732549 kJ/mol
# GULP energy per Si atom -5571.669020 kJ/mol
# Density = 2.365634 g / cm^3
# Si number density = 23.710309 Si / 1000 Ang^3
#
#
#
# Elastic Constant Matrix: (Units=GPa)
#
#
# Indices 1 2 3 4 5 6 
#
# 1 100.0205 65.9771 23.8273 0.0000 0.0000 0.0000
# 2 65.9771 148.8069 13.1543 0.0000 0.0000 0.0000
# 3 23.8273 13.1543 60.7706 0.0000 0.0000 0.0000
# 4 0.0000 0.0000 0.0000 29.9904 0.0000 0.0000
# 5 0.0000 0.0000 0.0000 0.0000 27.8821 0.0000
# 6 0.0000 0.0000 0.0000 0.0000 0.0000 35.0465
#
#
#
# Elastic Compliance Matrix: (Units=1/GPa)
#
#
# Indices 1 2 3 4 5 6 
#
# 1 0.015306 -0.006378 -0.004621 0.000000 0.000000 0.000000
# 2 -0.006378 0.009509 0.000442 0.000000 0.000000 0.000000
# 3 -0.004621 0.000442 0.018171 0.000000 0.000000 0.000000
# 4 0.000000 0.000000 0.000000 0.033344 0.000000 0.000000
# 5 0.000000 0.000000 0.000000 0.000000 0.035865 0.000000
# 6 0.000000 0.000000 0.000000 0.000000 0.000000 0.028534
#
#
# Mechanical properties :
#
#
# Convention : Reuss Voigt Hill
#
# Bulk Modulus (GPa) = 45.71696 57.27950 51.49823
# Shear Modulus (GPa) = 29.56279 32.35976 30.96127
#
# Velocity S-wave (km/s) = 3.53488 3.69832 3.61753
# Velocity P-wave (km/s) = 5.99865 6.51516 6.26223
#
# Compressibility (1/GPa) = 0.02187372
#
# Stress axis : x y z
#
# Youngs Moduli (GPa) = 65.33535 105.16673 55.03194
#
# Poissons Ratio (x) = 0.67072 0.25428
# Poissons Ratio (y) = 0.41669 -0.02434
# Poissons Ratio (z) = 0.30189 -0.04652
#
# Static dielectric constant tensor:
#      x y z
#    x 1.961010 0.000000 0.000000 
#    y 0.000000 2.029080 0.000000 
#    z 0.000000 0.000000 2.047740 
# 
# From -- ./inp_files/5413.got.cif
#   From: 2010.05.17/outbox.cif.g08.bks.cpg/sg64_3_cif.got.tgz:5413.got - 2010.06.03 16:29:19.
