data_PCOD9480076
_publ_section_title
;
Structure prediction by ZEFSAII (Michael W. Deem and Ramdas Pophale) SiO2 
 PCOD9480076
Probable space group: C M C A
;
_chemical_formula_sum "Si O2"
_cell_formula_units_Z 80
_cell_length_a 14.018185
_cell_length_b 26.165545
_cell_length_c 11.339661
_cell_angle_alpha 90.000000
_cell_angle_beta 90.000000
_cell_angle_gamma 90.000000
_cell_volume 4159.313385
_symmetry_space_group_name_H-M "C M C A"
_symmetry_group_IT_number 64
_symmetry_cell_setting 'orthorhombic'
loop_
_space_group_symop_operation_xyz
x,y,z
-x,1/2-y,1/2+z
x,-y,-z
-x,1/2+y,1/2-z
-x,-y,-z
x,1/2+y,1/2-z
-x,y,z
x,1/2-y,1/2+z
1/2+x,1/2+y,z
1/2-x,-y,1/2+z
1/2+x,1/2-y,-z
1/2-x,y,1/2-z
1/2-x,1/2-y,-z
1/2+x,y,1/2-z
1/2-x,1/2+y,z
1/2+x,-y,1/2+z
loop_
_atom_site_type_symbol
_atom_site_label
_atom_site_fract_x
_atom_site_fract_y
_atom_site_fract_z
Si Si1 0.891831 0.722610 0.463455
Si Si2 0.220920 0.183008 0.619127
Si Si3 0.243360 0.471222 0.617967
Si Si4 0.111697 0.893582 0.544754
Si Si5 0.607503 0.621737 0.192713
O O1 0.858832 0.772969 0.394113
O O2 0.814867 0.708801 0.562476
O O3 0.887474 0.673573 0.379135
O O4 0.000000 0.728945 0.507409
O O5 0.250000 0.168633 0.750000
O O6 0.178350 0.134752 0.548943
O O7 0.206957 0.500000 0.500000
O O8 0.250000 0.496708 0.750000
O O9 0.346022 0.449033 0.577437
O O10 0.178369 0.421354 0.644784
O O11 0.123481 0.865042 0.670311
O O12 0.000000 0.894189 0.512359
O O13 0.500000 0.600700 0.184674
#
# Coordination Sequence:
#
# PCOD9480076 Si02
#       5
#    16  16  16  16  16
#     4  10  22  38  58  85 119 156 195 238 285 341
#     4  11  24  36  58  87 123 155 196 239 289 341
#     4  10  21  38  62  87 118 151 199 250 305 359
#     4  10  21  39  62  85 115 156 197 237 289 350
#     4   9  19  38  63  86 113 152 198 239 287 349
#
# _framework density 19.233943
#
# number of rings (size 3 to 8) (size 9 to 14) (size 15 to 20)
#    0.000    2.000    2.000    0.600    5.600    3.200 
#    0.000    0.000    0.000    0.000    0.000    0.000 
#    0.000    0.000    0.000    0.000    0.000    0.000 
#
# Total GULP energy -222941.514913 kJ/mol
# GULP energy per Si atom -5573.537873 kJ/mol
# Density = 1.919017 g / cm^3
# Si number density = 19.233943 Si / 1000 Ang^3
#
#
#
# Elastic Constant Matrix: (Units=GPa)
#
#
# Indices 1 2 3 4 5 6 
#
# 1 114.4558 16.3967 44.9081 0.0000 0.0000 0.0000
# 2 16.3967 26.2563 39.9264 0.0000 0.0000 0.0000
# 3 44.9081 39.9264 125.2905 0.0000 0.0000 0.0000
# 4 0.0000 0.0000 0.0000 129.0630 0.0000 0.0000
# 5 0.0000 0.0000 0.0000 0.0000 20.2258 0.0000
# 6 0.0000 0.0000 0.0000 0.0000 0.0000 16.9980
#
#
#
# Elastic Compliance Matrix: (Units=1/GPa)
#
#
# Indices 1 2 3 4 5 6 
#
# 1 0.010200 -0.001572 -0.003155 0.000000 0.000000 0.000000
# 2 -0.001572 0.074136 -0.023062 0.000000 0.000000 0.000000
# 3 -0.003155 -0.023062 0.016461 0.000000 0.000000 0.000000
# 4 0.000000 0.000000 0.000000 0.007748 0.000000 0.000000
# 5 0.000000 0.000000 0.000000 0.000000 0.049442 0.000000
# 6 0.000000 0.000000 0.000000 0.000000 0.000000 0.058830
#
#
# Mechanical properties :
#
#
# Convention : Reuss Voigt Hill
#
# Bulk Modulus (GPa) = 22.11398 52.05168 37.08283
# Shear Modulus (GPa) = 17.39318 44.24212 30.81765
#
# Velocity S-wave (km/s) = 3.01041 4.80125 4.00716
# Velocity P-wave (km/s) = 4.85858 7.60639 6.38212
#
# Compressibility (1/GPa) = 0.04522026
#
# Stress axis : x y z
#
# Youngs Moduli (GPa) = 98.03777 13.48868 60.74834
#
# Poissons Ratio (x) = 0.02121 0.19167
# Poissons Ratio (y) = 0.15413 1.40095
# Poissons Ratio (z) = 0.30932 0.31107
#
# Static dielectric constant tensor:
#      x y z
#    x 1.709390 0.000000 0.000000 
#    y 0.000000 1.663670 0.000000 
#    z 0.000000 0.000000 1.696110 
# 
# From -- ./inp_files/14469.got.cif
#   From: 2010.05.17/outbox.cif.g08.bks.cpg/sg64_8_cif.got.tgz:14469.got - 2010.06.03 16:29:19.
