data_PCOD9480097
_publ_section_title
;
Structure prediction by ZEFSAII (Michael W. Deem and Ramdas Pophale) SiO2 
 PCOD9480097
Probable space group: C M C A
;
_chemical_formula_sum "Si O2"
_cell_formula_units_Z 96
_cell_length_a 24.125385
_cell_length_b 16.190455
_cell_length_c 11.592654
_cell_angle_alpha 90.000000
_cell_angle_beta 90.000000
_cell_angle_gamma 90.000000
_cell_volume 4528.101784
_symmetry_space_group_name_H-M "C M C A"
_symmetry_group_IT_number 64
_symmetry_cell_setting 'orthorhombic'
loop_
_space_group_symop_operation_xyz
x,y,z
-x,1/2-y,1/2+z
x,-y,-z
-x,1/2+y,1/2-z
-x,-y,-z
x,1/2+y,1/2-z
-x,y,z
x,1/2-y,1/2+z
1/2+x,1/2+y,z
1/2-x,-y,1/2+z
1/2+x,1/2-y,-z
1/2-x,y,1/2-z
1/2-x,1/2-y,-z
1/2+x,y,1/2-z
1/2-x,1/2+y,z
1/2+x,-y,1/2+z
loop_
_atom_site_type_symbol
_atom_site_label
_atom_site_fract_x
_atom_site_fract_y
_atom_site_fract_z
Si Si1 0.374533 0.267057 0.375942
Si Si2 0.564402 0.375227 0.952828
Si Si3 0.065202 0.871301 0.203716
Si Si4 0.935418 0.050215 0.293358
Si Si5 0.665854 0.908747 0.954956
Si Si6 0.739691 0.294620 0.876334
O O1 0.424853 0.222555 0.440645
O O2 0.397587 0.298533 0.254648
O O3 0.348784 0.344794 0.442716
O O4 0.326600 0.197802 0.373739
O O5 0.500000 0.396120 0.960717
O O6 0.580625 0.417020 0.833367
O O7 0.587191 0.398180 0.078023
O O8 0.000000 0.846874 0.196045
O O9 0.067381 0.950795 0.286441
O O10 0.890434 0.083680 0.381515
O O11 0.000000 0.073051 0.317024
O O12 0.717658 0.870804 0.883863
O O13 0.679812 0.000000 0.000000
O O14 0.750000 0.252299 0.750000
O O15 0.750000 0.250000 0.000000
#
# Coordination Sequence:
#
# PCOD9480097 Si02
#       6
#    16  16  16  16  16  16
#     4  11  23  40  64  92 129 168 220 263 330 392
#     4  10  22  37  62  97 135 174 216 266 324 392
#     4  10  21  38  62  97 135 173 215 263 324 396
#     4  10  21  39  65  95 132 174 215 266 327 393
#     4  11  23  44  64  93 130 170 218 278 328 396
#     4  10  24  44  69  94 128 175 222 280 336 390
#
# _framework density 21.200935999999999
#
# number of rings (size 3 to 8) (size 9 to 14) (size 15 to 20)
#    0.000    1.667    1.667    2.000    7.000    3.667 
#    0.000    6.667    0.000    0.000    0.000    0.000 
#    0.000    0.000    0.000    0.000    0.000    0.000 
#
# Total GULP energy -267432.134700 kJ/mol
# GULP energy per Si atom -5571.502806 kJ/mol
# Density = 2.115268 g / cm^3
# Si number density = 21.200936 Si / 1000 Ang^3
#
#
#
# Elastic Constant Matrix: (Units=GPa)
#
#
# Indices 1 2 3 4 5 6 
#
# 1 107.1427 35.0756 48.3878 0.0000 0.0000 0.0000
# 2 35.0756 65.3875 14.5705 0.0000 0.0000 0.0000
# 3 48.3878 14.5705 93.6263 0.0000 0.0000 0.0000
# 4 0.0000 0.0000 0.0000 29.3574 0.0000 0.0000
# 5 0.0000 0.0000 0.0000 0.0000 19.2425 0.0000
# 6 0.0000 0.0000 0.0000 0.0000 0.0000 31.1785
#
#
#
# Elastic Compliance Matrix: (Units=1/GPa)
#
#
# Indices 1 2 3 4 5 6 
#
# 1 0.014262 -0.006224 -0.006402 0.000000 0.000000 0.000000
# 2 -0.006224 0.018559 0.000328 0.000000 0.000000 0.000000
# 3 -0.006402 0.000328 0.013939 0.000000 0.000000 0.000000
# 4 0.000000 0.000000 0.000000 0.034063 0.000000 0.000000
# 5 0.000000 0.000000 0.000000 0.000000 0.051968 0.000000
# 6 0.000000 0.000000 0.000000 0.000000 0.000000 0.032073
#
#
# Mechanical properties :
#
#
# Convention : Reuss Voigt Hill
#
# Bulk Modulus (GPa) = 45.11843 51.35826 48.23834
# Shear Modulus (GPa) = 25.40020 27.16383 26.28201
#
# Velocity S-wave (km/s) = 3.46507 3.58335 3.52470
# Velocity P-wave (km/s) = 6.11036 6.43410 6.27432
#
# Compressibility (1/GPa) = 0.02216389
#
# Stress axis : x y z
#
# Youngs Moduli (GPa) = 70.11431 53.88215 71.74341
#
# Poissons Ratio (x) = 0.33537 0.45934
# Poissons Ratio (y) = 0.43640 -0.02357
# Poissons Ratio (z) = 0.44891 -0.01770
#
# Static dielectric constant tensor:
#      x y z
#    x 1.825960 0.000000 0.000000 
#    y 0.000000 1.820180 0.000000 
#    z 0.000000 0.000000 1.824410 
# 
# From -- ./inp_files/18382.got.cif
#   From: 2010.05.17/outbox.cif.g08.bks.cpg/sg64_10_cif.got.tgz:18382.got - 2010.06.03 16:29:19.
