data_PCOD9480635
_publ_section_title
;
Structure prediction by ZEFSAII (Michael W. Deem and Ramdas Pophale) SiO2 
 PCOD9480635
Probable space group: C M C A
;
_chemical_formula_sum "Si O2"
_cell_formula_units_Z 88
_cell_length_a 15.785445
_cell_length_b 22.774929
_cell_length_c 11.934141
_cell_angle_alpha 90.000000
_cell_angle_beta 90.000000
_cell_angle_gamma 90.000000
_cell_volume 4290.471543
_symmetry_space_group_name_H-M "C M C A"
_symmetry_group_IT_number 64
_symmetry_cell_setting 'orthorhombic'
loop_
_space_group_symop_operation_xyz
x,y,z
-x,1/2-y,1/2+z
x,-y,-z
-x,1/2+y,1/2-z
-x,-y,-z
x,1/2+y,1/2-z
-x,y,z
x,1/2-y,1/2+z
1/2+x,1/2+y,z
1/2-x,-y,1/2+z
1/2+x,1/2-y,-z
1/2-x,y,1/2-z
1/2-x,1/2-y,-z
1/2+x,y,1/2-z
1/2-x,1/2+y,z
1/2+x,-y,1/2+z
loop_
_atom_site_type_symbol
_atom_site_label
_atom_site_fract_x
_atom_site_fract_y
_atom_site_fract_z
Si Si1 0.647509 0.435440 0.262533
Si Si2 0.094266 0.683241 0.355820
Si Si3 0.595949 0.934755 0.776989
Si Si4 0.658533 0.844161 0.413565
Si Si5 0.200382 0.068337 0.499056
Si Si6 0.250000 0.745443 0.750000
O O1 0.750000 0.434196 0.250000
O O2 0.617112 0.500385 0.232412
O O3 0.614317 0.385168 0.180258
O O4 0.635556 0.425632 0.395540
O O5 0.101191 0.615893 0.314584
O O6 0.102580 0.684177 0.489910
O O7 0.172070 0.717465 0.299794
O O8 0.000000 0.704509 0.322032
O O9 0.500000 0.936149 0.820578
O O10 0.657846 0.920950 0.879854
O O11 0.724090 0.887191 0.477548
O O12 0.712031 0.795824 0.346923
O O13 0.228381 0.000000 0.500000
#
# Coordination Sequence:
#
# PCOD9480635 Si02
#       6
#    16  16  16  16  16   8
#     4   9  19  35  61  94 126 160 214 264 322 395
#     4  11  27  43  64  99 131 173 228 278 331 392
#     4  10  22  38  58  92 133 170 208 264 332 389
#     4  11  22  42  68  97 123 168 221 275 337 394
#     4   9  18  34  62  94 125 163 215 261 317 401
#     4  12  24  48  72  90 128 184 232 268 332 396
#
# _framework density 20.510566000000001
#
# number of rings (size 3 to 8) (size 9 to 14) (size 15 to 20)
#    0.000    1.818    2.727    1.636    8.909    4.727 
#    0.000    4.545    0.000    0.000    0.000    0.000 
#    0.000    0.000    0.000    0.000    0.000    0.000 
#
# Total GULP energy -245708.583517 kJ/mol
# GULP energy per Si atom -5584.285989 kJ/mol
# Density = 2.046388 g / cm^3
# Si number density = 20.510566 Si / 1000 Ang^3
#
#
#
# Elastic Constant Matrix: (Units=GPa)
#
#
# Indices 1 2 3 4 5 6 
#
# 1 76.9018 42.8007 37.5170 0.0000 0.0000 0.0000
# 2 42.8007 67.4208 26.7332 0.0000 0.0000 0.0000
# 3 37.5170 26.7332 77.3006 0.0000 0.0000 0.0000
# 4 0.0000 0.0000 0.0000 13.4188 0.0000 0.0000
# 5 0.0000 0.0000 0.0000 0.0000 11.8851 0.0000
# 6 0.0000 0.0000 0.0000 0.0000 0.0000 17.0805
#
#
#
# Elastic Compliance Matrix: (Units=1/GPa)
#
#
# Indices 1 2 3 4 5 6 
#
# 1 0.023040 -0.011813 -0.007097 0.000000 0.000000 0.000000
# 2 -0.011813 0.023246 -0.002306 0.000000 0.000000 0.000000
# 3 -0.007097 -0.002306 0.017179 0.000000 0.000000 0.000000
# 4 0.000000 0.000000 0.000000 0.074523 0.000000 0.000000
# 5 0.000000 0.000000 0.000000 0.000000 0.084139 0.000000
# 6 0.000000 0.000000 0.000000 0.000000 0.000000 0.058546
#
#
# Mechanical properties :
#
#
# Convention : Reuss Voigt Hill
#
# Bulk Modulus (GPa) = 47.54453 48.41390 47.97921
# Shear Modulus (GPa) = 15.14623 16.11503 15.63063
#
# Velocity S-wave (km/s) = 2.72041 2.80606 2.76357
# Velocity P-wave (km/s) = 5.75311 5.84417 5.79882
#
# Compressibility (1/GPa) = 0.02103292
#
# Stress axis : x y z
#
# Youngs Moduli (GPa) = 43.40185 43.01894 58.21216
#
# Poissons Ratio (x) = 0.50817 0.41314
# Poissons Ratio (y) = 0.51269 0.13424
# Poissons Ratio (z) = 0.30803 0.09920
#
# Static dielectric constant tensor:
#      x y z
#    x 1.738870 0.000000 0.000000 
#    y 0.000000 1.716820 0.000000 
#    z 0.000000 0.000000 1.784190 
# 
# From -- ./inp_files/16045.got.cif
#   From: 2010.05.17/outbox.cif.g08.bks.cpg/sg64_9_cif.got.tgz:16045.got - 2010.06.03 16:29:19.
