data_PCOD9480875
_publ_section_title
;
Structure prediction by ZEFSAII (Michael W. Deem and Ramdas Pophale) SiO2 
 PCOD9480875
Probable space group: C M C A
;
_chemical_formula_sum "Si O2"
_cell_formula_units_Z 112
_cell_length_a 14.609009
_cell_length_b 27.039847
_cell_length_c 13.790450
_cell_angle_alpha 90.000000
_cell_angle_beta 90.000000
_cell_angle_gamma 90.000000
_cell_volume 5447.577589
_symmetry_space_group_name_H-M "C M C A"
_symmetry_group_IT_number 64
_symmetry_cell_setting 'orthorhombic'
loop_
_space_group_symop_operation_xyz
x,y,z
-x,1/2-y,1/2+z
x,-y,-z
-x,1/2+y,1/2-z
-x,-y,-z
x,1/2+y,1/2-z
-x,y,z
x,1/2-y,1/2+z
1/2+x,1/2+y,z
1/2-x,-y,1/2+z
1/2+x,1/2-y,-z
1/2-x,y,1/2-z
1/2-x,1/2-y,-z
1/2+x,y,1/2-z
1/2-x,1/2+y,z
1/2+x,-y,1/2+z
loop_
_atom_site_type_symbol
_atom_site_label
_atom_site_fract_x
_atom_site_fract_y
_atom_site_fract_z
Si Si1 0.783867 0.085832 0.041314
Si Si2 0.100696 0.972227 0.820961
Si Si3 0.341591 0.311685 0.182801
Si Si4 0.606565 0.681978 0.027414
Si Si5 0.601670 0.108981 0.152256
Si Si6 0.140507 0.789091 0.762843
Si Si7 0.336496 0.578771 0.819224
O O1 0.818310 0.040224 0.105054
O O2 0.857255 0.128950 0.063322
O O3 0.684671 0.103981 0.076564
O O4 0.796806 0.076579 0.928270
O O5 0.112181 0.935989 0.729135
O O6 0.000000 0.961530 0.863815
O O7 0.105301 0.030176 0.798186
O O8 0.250000 0.312979 0.250000
O O9 0.391985 0.262057 0.215470
O O10 0.382203 0.367022 0.192292
O O11 0.331909 0.305144 0.066219
O O12 0.500000 0.680714 0.998557
O O13 0.617620 0.714122 0.123605
O O14 0.500000 0.105084 0.108446
O O15 0.606117 0.160963 0.210740
O O16 0.250000 0.791956 0.750000
O O17 0.250000 0.577005 0.750000
#
# Coordination Sequence:
#
# PCOD9480875 Si02
#       7
#    16  16  16  16  16  16  16
#     4  11  21  39  64  94 126 164 211 266 324 378
#     4  11  22  37  64  97 127 162 208 264 324 382
#     4   9  23  41  63  89 128 177 216 262 323 387
#     4  11  22  38  63  97 131 165 216 270 320 378
#     4  11  22  39  65  99 130 163 214 275 330 381
#     4  11  20  39  66  93 131 173 218 272 328 379
#     4  10  22  41  59  87 125 170 213 254 312 387
#
# _framework density 20.559597
#
# number of rings (size 3 to 8) (size 9 to 14) (size 15 to 20)
#    0.000    1.429    2.857    2.571    0.000    6.857 
#    2.571    0.714    0.000   10.286    0.000    0.000 
#    0.000    0.000    0.000    0.000    0.000    0.000 
#
# Total GULP energy -312319.731905 kJ/mol
# GULP energy per Si atom -5577.138070 kJ/mol
# Density = 2.051280 g / cm^3
# Si number density = 20.559597 Si / 1000 Ang^3
#
#
#
# Elastic Constant Matrix: (Units=GPa)
#
#
# Indices 1 2 3 4 5 6 
#
# 1 108.2650 18.3610 22.4169 0.0000 0.0000 0.0000
# 2 18.3610 164.6168 42.4941 0.0000 0.0000 0.0000
# 3 22.4169 42.4941 31.5008 0.0000 0.0000 0.0000
# 4 0.0000 0.0000 0.0000 7.8122 0.0000 0.0000
# 5 0.0000 0.0000 0.0000 0.0000 7.7350 0.0000
# 6 0.0000 0.0000 0.0000 0.0000 0.0000 7132.6609
#
#
#
# Elastic Compliance Matrix: (Units=1/GPa)
#
#
# Indices 1 2 3 4 5 6 
#
# 1 0.010989 0.001217 -0.009462 0.000000 0.000000 0.000000
# 2 0.001217 0.009455 -0.013620 0.000000 0.000000 0.000000
# 3 -0.009462 -0.013620 0.056852 0.000000 0.000000 0.000000
# 4 0.000000 0.000000 0.000000 0.128005 0.000000 0.000000
# 5 0.000000 0.000000 0.000000 0.000000 0.129283 0.000000
# 6 0.000000 0.000000 0.000000 0.000000 0.000000 0.000140
#
#
# Mechanical properties :
#
#
# Convention : Reuss Voigt Hill
#
# Bulk Modulus (GPa) = 29.79234 52.32518 41.05876
# Shear Modulus (GPa) = 12.83225 1444.38233 728.60729
#
# Velocity S-wave (km/s) = 2.50101 26.53412 18.84562
# Velocity P-wave (km/s) = 4.78145 31.05240 22.21614
#
# Compressibility (1/GPa) = 0.03356568
#
# Stress axis : x y z
#
# Youngs Moduli (GPa) = 90.99738 105.76439 17.58951
#
# Poissons Ratio (x) = -0.12868 0.16642
# Poissons Ratio (y) = -0.11072 0.23958
# Poissons Ratio (z) = 0.86098 1.44056
#
# Static dielectric constant tensor:
#      x y z
#    x 1.718990 0.000000 0.000000 
#    y 0.000000 1.786230 0.000000 
#    z 0.000000 0.000000 1.730020 
# 
# From -- ./inp_files/24392.got.cif
#   From: 2010.05.17/outbox.cif.g08.bks.cpg/sg64_13_cif.got.tgz:24392.got - 2010.06.03 16:29:19.
