data_PCOD9480033
_publ_section_title
;
Structure prediction by ZEFSAII (Michael W. Deem and Ramdas Pophale) SiO2 
 PCOD9480033
Probable space group: C M C A
;
_chemical_formula_sum "Si O2"
_cell_formula_units_Z 112
_cell_length_a 23.053689
_cell_length_b 15.041042
_cell_length_c 15.400391
_cell_angle_alpha 90.000000
_cell_angle_beta 90.000000
_cell_angle_gamma 90.000000
_cell_volume 5340.108749
_symmetry_space_group_name_H-M "C M C A"
_symmetry_group_IT_number 64
_symmetry_cell_setting 'orthorhombic'
loop_
_space_group_symop_operation_xyz
x,y,z
-x,1/2-y,1/2+z
x,-y,-z
-x,1/2+y,1/2-z
-x,-y,-z
x,1/2+y,1/2-z
-x,y,z
x,1/2-y,1/2+z
1/2+x,1/2+y,z
1/2-x,-y,1/2+z
1/2+x,1/2-y,-z
1/2-x,y,1/2-z
1/2-x,1/2-y,-z
1/2+x,y,1/2-z
1/2-x,1/2+y,z
1/2+x,-y,1/2+z
loop_
_atom_site_type_symbol
_atom_site_label
_atom_site_fract_x
_atom_site_fract_y
_atom_site_fract_z
Si Si1 0.741246 0.720634 0.899802
Si Si2 0.749692 0.987560 0.399402
Si Si3 0.634012 0.245188 0.816372
Si Si4 0.122453 0.465441 0.598312
Si Si5 0.430281 0.141519 0.665384
Si Si6 0.688796 0.874337 0.797430
Si Si7 0.567209 0.207974 0.472798
O O1 0.729742 0.615228 0.890120
O O2 0.799475 0.728900 0.842191
O O3 0.694769 0.791729 0.864763
O O4 0.750000 0.750000 0.000000
O O5 0.765014 0.000000 0.500000
O O6 0.690787 0.042814 0.378618
O O7 0.803251 0.029538 0.344370
O O8 0.603336 0.183986 0.745720
O O9 0.637338 0.342553 0.766726
O O10 0.603468 0.229184 0.909610
O O11 0.128904 0.500000 0.500000
O O12 0.091208 0.540705 0.653724
O O13 0.080942 0.382450 0.580027
O O14 0.500000 0.145700 0.676340
O O15 0.416649 0.190607 0.572945
O O16 0.750000 0.869751 0.750000
O O17 0.500000 0.230303 0.470645
#
# Coordination Sequence:
#
# PCOD9480033 Si02
#       7
#    16  16  16  16  16  16  16
#     4  11  23  38  60  86 123 163 207 239 295 363
#     4  11  21  35  60  84 118 164 198 244 296 363
#     4  11  24  37  60  84 121 163 194 248 294 362
#     4   9  18  32  59  86 114 149 192 248 307 352
#     4  10  21  38  60  87 116 148 199 252 303 359
#     4  10  22  37  54  87 122 155 200 246 288 357
#     4  10  21  38  61  86 114 152 196 249 307 354
#
# _framework density 20.973355999999999
#
# number of rings (size 3 to 8) (size 9 to 14) (size 15 to 20)
#    0.000    1.714    1.429    3.429    6.000    5.714 
#    0.000    0.000    0.000    0.000    0.000    0.000 
#    0.000    9.143    0.000    0.000    0.000    0.000 
#
# Total GULP energy -311758.680007 kJ/mol
# GULP energy per Si atom -5567.119286 kJ/mol
# Density = 2.092562 g / cm^3
# Si number density = 20.973356 Si / 1000 Ang^3
#
#
#
# Elastic Constant Matrix: (Units=GPa)
#
#
# Indices 1 2 3 4 5 6 
#
# 1 53.9450 -6.6846 23.0154 0.0000 0.0000 0.0000
# 2 -6.6846 49.5356 2.1174 0.0000 0.0000 0.0000
# 3 23.0154 2.1174 74.0623 0.0000 0.0000 0.0000
# 4 0.0000 0.0000 0.0000 31.4728 0.0000 0.0000
# 5 0.0000 0.0000 0.0000 0.0000 33.9571 0.0000
# 6 0.0000 0.0000 0.0000 0.0000 0.0000 19.1404
#
#
#
# Elastic Compliance Matrix: (Units=1/GPa)
#
#
# Indices 1 2 3 4 5 6 
#
# 1 0.021880 0.003247 -0.006892 0.000000 0.000000 0.000000
# 2 0.003247 0.020694 -0.001601 0.000000 0.000000 0.000000
# 3 -0.006892 -0.001601 0.015690 0.000000 0.000000 0.000000
# 4 0.000000 0.000000 0.000000 0.031773 0.000000 0.000000
# 5 0.000000 0.000000 0.000000 0.000000 0.029449 0.000000
# 6 0.000000 0.000000 0.000000 0.000000 0.000000 0.052245
#
#
# Mechanical properties :
#
#
# Convention : Reuss Voigt Hill
#
# Bulk Modulus (GPa) = 20.93248 23.82658 22.37953
# Shear Modulus (GPa) = 25.23369 27.52039 26.37704
#
# Velocity S-wave (km/s) = 3.47238 3.62630 3.55018
# Velocity P-wave (km/s) = 5.10673 5.37759 5.24391
#
# Compressibility (1/GPa) = 0.04777266
#
# Stress axis : x y z
#
# Youngs Moduli (GPa) = 45.70310 48.32287 63.73588
#
# Poissons Ratio (x) = -0.15692 0.43929
# Poissons Ratio (y) = -0.14841 0.10202
# Poissons Ratio (z) = 0.31500 0.07735
#
# Static dielectric constant tensor:
#      x y z
#    x 1.747560 0.000000 0.000000 
#    y 0.000000 2.182570 0.000000 
#    z 0.000000 0.000000 1.875270 
# 
# From -- ./inp_files/27393.got.cif
#   From: 2010.05.17/outbox.cif.g08.bks.cpg/sg64_14_cif.got.tgz:27393.got - 2010.06.03 16:29:19.
