data_PCOD9480915
_publ_section_title
;
Structure prediction by ZEFSAII (Michael W. Deem and Ramdas Pophale) SiO2 
 PCOD9480915
Probable space group: C M C A
;
_chemical_formula_sum "Si O2"
_cell_formula_units_Z 120
_cell_length_a 21.365254
_cell_length_b 10.930437
_cell_length_c 23.219498
_cell_angle_alpha 90.000000
_cell_angle_beta 90.000000
_cell_angle_gamma 90.000000
_cell_volume 5422.485656
_symmetry_space_group_name_H-M "C M C A"
_symmetry_group_IT_number 64
_symmetry_cell_setting 'orthorhombic'
loop_
_space_group_symop_operation_xyz
x,y,z
-x,1/2-y,1/2+z
x,-y,-z
-x,1/2+y,1/2-z
-x,-y,-z
x,1/2+y,1/2-z
-x,y,z
x,1/2-y,1/2+z
1/2+x,1/2+y,z
1/2-x,-y,1/2+z
1/2+x,1/2-y,-z
1/2-x,y,1/2-z
1/2-x,1/2-y,-z
1/2+x,y,1/2-z
1/2-x,1/2+y,z
1/2+x,-y,1/2+z
loop_
_atom_site_type_symbol
_atom_site_label
_atom_site_fract_x
_atom_site_fract_y
_atom_site_fract_z
Si Si1 0.071238 0.553040 0.239630
Si Si2 0.095763 0.394071 0.626610
Si Si3 0.723185 0.727175 0.140163
Si Si4 0.684586 0.388245 0.254256
Si Si5 0.243228 0.121067 0.966625
Si Si6 0.640302 0.274329 0.656657
Si Si7 0.902686 0.632082 0.555086
Si Si8 0.500000 0.307439 0.952642
O O1 0.079871 0.586292 0.306688
O O2 0.123639 0.454412 0.223123
O O3 0.092948 0.665651 0.200877
O O4 0.000000 0.516117 0.229535
O O5 0.168991 0.364517 0.620526
O O6 0.074579 0.514647 0.591268
O O7 0.054903 0.289615 0.596869
O O8 0.702158 0.777570 0.202790
O O9 0.728545 0.842022 0.095868
O O10 0.792117 0.665902 0.142790
O O11 0.750000 0.462216 0.250000
O O12 0.665263 0.345968 0.190325
O O13 0.168821 0.104369 0.960811
O O14 0.250000 0.250000 0.000000
O O15 0.268092 0.000000 0.000000
O O16 0.603466 0.243961 0.599203
O O17 0.945722 0.663210 0.501768
#
# Coordination Sequence:
#
# PCOD9480915 Si02
#       8
#    16  16  16  16  16  16  16   8
#     4  12  26  40  63  97 140 179 225 282 353 429
#     4  12  22  40  63  98 130 175 229 287 343 409
#     4  10  23  40  68  99 133 179 228 288 355 415
#     4  10  22  41  64  95 130 173 222 275 348 422
#     4  11  23  42  67 102 138 177 234 296 350 413
#     4  10  23  41  64  97 127 171 220 276 346 413
#     4  11  23  39  64  91 130 174 222 286 339 408
#     4  12  25  40  60  92 129 174 233 284 349 410
#
# _framework density 22.130072999999999
#
# number of rings (size 3 to 8) (size 9 to 14) (size 15 to 20)
#    0.000    1.067    3.333    3.600    2.800    2.667 
#    1.200    0.000    0.000    0.000    0.000    2.800 
#    0.000    0.000    0.000    0.000    0.000    0.000 
#
# Total GULP energy -334102.202342 kJ/mol
# GULP energy per Si atom -5568.370039 kJ/mol
# Density = 2.207970 g / cm^3
# Si number density = 22.130073 Si / 1000 Ang^3
#
#
#
# Elastic Constant Matrix: (Units=GPa)
#
#
# Indices 1 2 3 4 5 6 
#
# 1 145.5309 19.1907 12.7357 0.0000 0.0000 0.0000
# 2 19.1907 39.9387 16.2442 0.0000 0.0000 0.0000
# 3 12.7357 16.2442 94.8791 0.0000 0.0000 0.0000
# 4 0.0000 0.0000 0.0000 21.7572 0.0000 0.0000
# 5 0.0000 0.0000 0.0000 0.0000 36.4171 0.0000
# 6 0.0000 0.0000 0.0000 0.0000 0.0000 -10.3245
#
#
#
# Elastic Compliance Matrix: (Units=1/GPa)
#
#
# Indices 1 2 3 4 5 6 
#
# 1 0.007351 -0.003365 -0.000411 0.000000 0.000000 0.000000
# 2 -0.003365 0.028453 -0.004420 0.000000 0.000000 0.000000
# 3 -0.000411 -0.004420 0.011352 0.000000 0.000000 0.000000
# 4 0.000000 0.000000 0.000000 0.045962 0.000000 0.000000
# 5 0.000000 0.000000 0.000000 0.000000 0.027460 0.000000
# 6 0.000000 0.000000 0.000000 0.000000 0.000000 -0.096857
#
#
# Mechanical properties :
#
#
# Convention : Reuss Voigt Hill
#
# Bulk Modulus (GPa) = 32.50492 41.85445 37.17968
# Shear Modulus (GPa) = 99.27373 25.04851 62.16112
#
# Velocity S-wave (km/s) = 6.70497 3.36799 5.30565
# Velocity P-wave (km/s) = 8.64072 5.83767 7.37362
#
# Compressibility (1/GPa) = 0.03076457
#
# Stress axis : x y z
#
# Youngs Moduli (GPa) = 136.03434 35.14568 88.09380
#
# Poissons Ratio (x) = 0.11827 0.03617
# Poissons Ratio (y) = 0.45779 0.38935
# Poissons Ratio (z) = 0.05585 0.15533
#
# Static dielectric constant tensor:
#      x y z
#    x 1.876000 0.000000 0.000000 
#    y 0.000000 1.941480 0.000000 
#    z 0.000000 0.000000 1.878770 
# 
# From -- ./inp_files/46410.got.cif
#   From: 2010.05.17/outbox.cif.g08.bks.cpg/sg64_24_cif.got.tgz:46410.got - 2010.06.03 16:29:19.
