data_PCOD9480733
_publ_section_title
;
Structure prediction by ZEFSAII (Michael W. Deem and Ramdas Pophale) SiO2 
 PCOD9480733
Probable space group: C M C A
;
_chemical_formula_sum "Si O2"
_cell_formula_units_Z 64
_cell_length_a 18.085513
_cell_length_b 27.896158
_cell_length_c 5.071667
_cell_angle_alpha 90.000000
_cell_angle_beta 90.000000
_cell_angle_gamma 90.000000
_cell_volume 2558.738812
_symmetry_space_group_name_H-M "C M C A"
_symmetry_group_IT_number 64
_symmetry_cell_setting 'orthorhombic'
loop_
_space_group_symop_operation_xyz
x,y,z
-x,1/2-y,1/2+z
x,-y,-z
-x,1/2+y,1/2-z
-x,-y,-z
x,1/2+y,1/2-z
-x,y,z
x,1/2-y,1/2+z
1/2+x,1/2+y,z
1/2-x,-y,1/2+z
1/2+x,1/2-y,-z
1/2-x,y,1/2-z
1/2-x,1/2-y,-z
1/2+x,y,1/2-z
1/2-x,1/2+y,z
1/2+x,-y,1/2+z
loop_
_atom_site_type_symbol
_atom_site_label
_atom_site_fract_x
_atom_site_fract_y
_atom_site_fract_z
Si Si1 0.819722 0.850457 0.115210
Si Si2 0.414743 0.782448 0.726808
Si Si3 0.084797 0.581142 0.912283
Si Si4 0.836409 0.450666 0.569358
O O1 0.750000 0.825629 0.250000
O O2 0.858313 0.821625 0.882673
O O3 0.880998 0.867457 0.328038
O O4 0.792923 0.902166 0.003614
O O5 0.500000 0.799405 0.699074
O O6 0.405117 0.761374 0.017960
O O7 0.096647 0.551365 0.643557
O O8 0.000000 0.585235 0.987353
O O9 0.131217 0.556596 0.142616
O O10 0.796408 0.500000 0.500000
#
# Coordination Sequence:
#
# PCOD9480733 Si02
#       4
#    16  16  16  16
#     4  10  25  44  64  95 132 171 216 259 317 383
#     4  10  23  43  68  97 126 162 209 264 328 385
#     4  10  22  39  62  90 123 164 214 267 315 368
#     4  10  23  41  62  93 128 171 215 267 318 375
#
# _framework density 25.012322000000001
#
# number of rings (size 3 to 8) (size 9 to 14) (size 15 to 20)
#    1.500    0.500    0.000    2.250    3.500    5.000 
#    4.500    0.000    0.000    0.000    0.000    0.000 
#    0.000    0.000    0.000    0.000    0.000    0.000 
#
# Total GULP energy -178931.793150 kJ/mol
# GULP energy per Si atom -5591.618536 kJ/mol
# Density = 2.495539 g / cm^3
# Si number density = 25.012322 Si / 1000 Ang^3
#
#
#
# Elastic Constant Matrix: (Units=GPa)
#
#
# Indices 1 2 3 4 5 6 
#
# 1 84.0364 11.7430 10.8131 0.0000 0.0000 0.0000
# 2 11.7430 93.1320 6.0829 0.0000 0.0000 0.0000
# 3 10.8131 6.0829 111.7910 0.0000 0.0000 0.0000
# 4 0.0000 0.0000 0.0000 28.7651 0.0000 0.0000
# 5 0.0000 0.0000 0.0000 0.0000 22.2755 0.0000
# 6 0.0000 0.0000 0.0000 0.0000 0.0000 -19.9414
#
#
#
# Elastic Compliance Matrix: (Units=1/GPa)
#
#
# Indices 1 2 3 4 5 6 
#
# 1 0.012247 -0.001472 -0.001105 0.000000 0.000000 0.000000
# 2 -0.001472 0.010953 -0.000454 0.000000 0.000000 0.000000
# 3 -0.001105 -0.000454 0.009077 0.000000 0.000000 0.000000
# 4 0.000000 0.000000 0.000000 0.034764 0.000000 0.000000
# 5 0.000000 0.000000 0.000000 0.000000 0.044892 0.000000
# 6 0.000000 0.000000 0.000000 0.000000 0.000000 -0.050147
#
#
# Mechanical properties :
#
#
# Convention : Reuss Voigt Hill
#
# Bulk Modulus (GPa) = 38.14403 38.47080 38.30742
# Shear Modulus (GPa) = 65.28592 23.57452 44.43022
#
# Velocity S-wave (km/s) = 5.11451 3.07337 4.21923
# Velocity P-wave (km/s) = 7.08243 5.29229 6.25176
#
# Compressibility (1/GPa) = 0.02621642
#
# Stress axis : x y z
#
# Youngs Moduli (GPa) = 81.64969 91.30172 110.17115
#
# Poissons Ratio (x) = 0.13441 0.12169
# Poissons Ratio (y) = 0.12020 0.04997
# Poissons Ratio (z) = 0.09019 0.04141
#
# Static dielectric constant tensor:
#      x y z
#    x 1.895730 0.000000 0.000000 
#    y 0.000000 2.072440 0.000000 
#    z 0.000000 0.000000 1.982580 
# 
# From -- ./inp_files/1672.got.cif
#   From: 2010.05.17/outbox.cif.g08.bks.cpg/sg64_1_cif.got.tgz:1672.got - 2010.06.03 16:29:19.
