data_PCOD9480574
_publ_section_title
;
Structure prediction by ZEFSAII (Michael W. Deem and Ramdas Pophale) SiO2 
 PCOD9480574
Probable space group: C M C A
;
_chemical_formula_sum "Si O2"
_cell_formula_units_Z 80
_cell_length_a 20.742883
_cell_length_b 21.737993
_cell_length_c 8.618726
_cell_angle_alpha 90.000000
_cell_angle_beta 90.000000
_cell_angle_gamma 90.000000
_cell_volume 3886.258066
_symmetry_space_group_name_H-M "C M C A"
_symmetry_group_IT_number 64
_symmetry_cell_setting 'orthorhombic'
loop_
_space_group_symop_operation_xyz
x,y,z
-x,1/2-y,1/2+z
x,-y,-z
-x,1/2+y,1/2-z
-x,-y,-z
x,1/2+y,1/2-z
-x,y,z
x,1/2-y,1/2+z
1/2+x,1/2+y,z
1/2-x,-y,1/2+z
1/2+x,1/2-y,-z
1/2-x,y,1/2-z
1/2-x,1/2-y,-z
1/2+x,y,1/2-z
1/2-x,1/2+y,z
1/2+x,-y,1/2+z
loop_
_atom_site_type_symbol
_atom_site_label
_atom_site_fract_x
_atom_site_fract_y
_atom_site_fract_z
Si Si1 0.864116 0.847872 0.607276
Si Si2 0.000000 0.296966 0.885777
Si Si3 0.201913 0.223008 0.877047
Si Si4 0.500000 0.159482 0.479274
Si Si5 0.365140 0.613417 0.051620
Si Si6 0.734044 0.563377 0.567496
O O1 0.934847 0.828537 0.546586
O O2 0.836804 0.783017 0.674980
O O3 0.815039 0.882274 0.490166
O O4 0.868722 0.887712 0.762496
O O5 0.000000 0.223214 0.919743
O O6 0.000000 0.313692 0.700114
O O7 0.250000 0.195845 0.750000
O O8 0.157703 0.175938 0.965949
O O9 0.250000 0.250000 0.000000
O O10 0.561195 0.114890 0.502647
O O11 0.304806 0.571153 0.008883
O O12 0.705905 0.500000 0.500000
O O13 0.750000 0.560529 0.750000
#
# Coordination Sequence:
#
# PCOD9480574 Si02
#       6
#    16   8  16   8  16  16
#     4  11  22  39  59  90 129 164 203 254 302 365
#     4  10  22  36  59  92 131 170 203 243 301 365
#     4  12  20  30  55  90 124 160 202 251 304 359
#     4  10  22  36  57  90 133 172 201 245 299 369
#     4  11  22  38  59  89 129 164 206 251 305 363
#     4  12  26  44  68  90 115 155 209 264 315 366
#
# _framework density 20.585353000000001
#
# number of rings (size 3 to 8) (size 9 to 14) (size 15 to 20)
#    0.000    0.800    6.000    2.400    0.000    1.600 
#    0.000    1.000    0.000    0.000    0.000    0.000 
#    0.000    0.000    0.000    0.000    0.000    0.000 
#
# Total GULP energy -222734.213497 kJ/mol
# GULP energy per Si atom -5568.355337 kJ/mol
# Density = 2.053850 g / cm^3
# Si number density = 20.585353 Si / 1000 Ang^3
#
#
#
# Elastic Constant Matrix: (Units=GPa)
#
#
# Indices 1 2 3 4 5 6 
#
# 1 156.7551 20.4242 24.2162 0.0000 0.0000 0.0000
# 2 20.4242 67.7456 1.7425 0.0000 0.0000 0.0000
# 3 24.2162 1.7425 67.1489 0.0000 0.0000 0.0000
# 4 0.0000 0.0000 0.0000 20.6408 0.0000 0.0000
# 5 0.0000 0.0000 0.0000 0.0000 13.0958 0.0000
# 6 0.0000 0.0000 0.0000 0.0000 0.0000 -8.2555
#
#
#
# Elastic Compliance Matrix: (Units=1/GPa)
#
#
# Indices 1 2 3 4 5 6 
#
# 1 0.007031 -0.002056 -0.002482 0.000000 0.000000 0.000000
# 2 -0.002056 0.015372 0.000342 0.000000 0.000000 0.000000
# 3 -0.002482 0.000342 0.015779 0.000000 0.000000 0.000000
# 4 0.000000 0.000000 0.000000 0.048448 0.000000 0.000000
# 5 0.000000 0.000000 0.000000 0.000000 0.076361 0.000000
# 6 0.000000 0.000000 0.000000 0.000000 0.000000 -0.121131
#
#
# Mechanical properties :
#
#
# Convention : Reuss Voigt Hill
#
# Bulk Modulus (GPa) = 33.56790 42.71282 38.14036
# Shear Modulus (GPa) = 83.08508 21.44732 52.26620
#
# Velocity S-wave (km/s) = 6.35994 3.23131 5.04432
# Velocity P-wave (km/s) = 8.38295 5.89203 7.24534
#
# Compressibility (1/GPa) = 0.02979037
#
# Stress axis : x y z
#
# Youngs Moduli (GPa) = 142.23352 65.05303 63.37719
#
# Poissons Ratio (x) = 0.13374 0.15731
# Poissons Ratio (y) = 0.29240 -0.02171
# Poissons Ratio (z) = 0.35305 -0.02228
#
# Static dielectric constant tensor:
#      x y z
#    x 1.785010 0.000000 0.000000 
#    y 0.000000 1.759210 0.000000 
#    z 0.000000 0.000000 1.720000 
# 
# From -- ./inp_files/8138.got.cif
#   From: 2010.05.17/outbox.cif.g08.bks.cpg/sg64_5_cif.got.tgz:8138.got - 2010.06.03 16:29:19.
