data_PCOD9480152
_publ_section_title
;
Structure prediction by ZEFSAII (Michael W. Deem and Ramdas Pophale) SiO2 
 PCOD9480152
Probable space group: C M C A
;
_chemical_formula_sum "Si O2"
_cell_formula_units_Z 96
_cell_length_a 8.254805
_cell_length_b 21.494102
_cell_length_c 25.321157
_cell_angle_alpha 90.000000
_cell_angle_beta 90.000000
_cell_angle_gamma 90.000000
_cell_volume 4492.723281
_symmetry_space_group_name_H-M "C M C A"
_symmetry_group_IT_number 64
_symmetry_cell_setting 'orthorhombic'
loop_
_space_group_symop_operation_xyz
x,y,z
-x,1/2-y,1/2+z
x,-y,-z
-x,1/2+y,1/2-z
-x,-y,-z
x,1/2+y,1/2-z
-x,y,z
x,1/2-y,1/2+z
1/2+x,1/2+y,z
1/2-x,-y,1/2+z
1/2+x,1/2-y,-z
1/2-x,y,1/2-z
1/2-x,1/2-y,-z
1/2+x,y,1/2-z
1/2-x,1/2+y,z
1/2+x,-y,1/2+z
loop_
_atom_site_type_symbol
_atom_site_label
_atom_site_fract_x
_atom_site_fract_y
_atom_site_fract_z
Si Si1 0.198114 0.653509 0.883627
Si Si2 0.189791 0.835381 0.504862
Si Si3 0.688188 0.023592 0.845843
Si Si4 0.808180 0.106730 0.192950
Si Si5 0.305843 0.289435 0.888530
Si Si6 0.184447 0.460857 0.552551
O O1 0.255173 0.594300 0.849271
O O2 0.244420 0.722608 0.864813
O O3 0.000000 0.649219 0.884312
O O4 0.253017 0.652364 0.945329
O O5 0.262385 0.788947 0.548965
O O6 0.223943 0.899235 0.535856
O O7 0.000000 0.822062 0.500410
O O8 0.500000 0.026557 0.831359
O O9 0.763282 0.965992 0.814019
O O10 0.714833 0.999567 0.905434
O O11 0.750000 0.128634 0.250000
O O12 0.743766 0.152041 0.146063
O O13 0.000000 0.110884 0.191761
O O14 0.500000 0.292085 0.886995
O O15 0.168389 0.500000 0.500000
O O16 0.000000 0.447305 0.572484
#
# Coordination Sequence:
#
# PCOD9480152 Si02
#       6
#    16  16  16  16  16  16
#     4   9  20  36  56  86 123 162 193 231 287 345
#     4  11  20  32  54  85 120 160 203 237 279 338
#     4  11  21  37  61  86 117 151 193 243 292 348
#     4  11  24  42  65  88 111 145 192 246 300 354
#     4  10  21  39  59  83 119 158 197 239 289 343
#     4  11  21  32  50  80 119 160 199 238 283 334
#
# _framework density 21.367885999999999
#
# number of rings (size 3 to 8) (size 9 to 14) (size 15 to 20)
#    0.000    1.500    3.333    2.500    0.000    1.333 
#    0.000    3.333    0.000    2.000    0.000    0.000 
#    0.000    0.000    0.000    0.000    0.000    0.000 
#
# Total GULP energy -267625.176330 kJ/mol
# GULP energy per Si atom -5575.524507 kJ/mol
# Density = 2.131925 g / cm^3
# Si number density = 21.367886 Si / 1000 Ang^3
#
#
#
# Elastic Constant Matrix: (Units=GPa)
#
#
# Indices 1 2 3 4 5 6 
#
# 1 29.8602 12.6601 8.8112 0.0000 0.0000 0.0000
# 2 12.6601 129.9404 24.1288 0.0000 0.0000 0.0000
# 3 8.8112 24.1288 83.1476 0.0000 0.0000 0.0000
# 4 0.0000 0.0000 0.0000 13.6040 0.0000 0.0000
# 5 0.0000 0.0000 0.0000 0.0000 23.0823 0.0000
# 6 0.0000 0.0000 0.0000 0.0000 0.0000 17.0405
#
#
#
# Elastic Compliance Matrix: (Units=1/GPa)
#
#
# Indices 1 2 3 4 5 6 
#
# 1 0.035592 -0.002925 -0.002923 0.000000 0.000000 0.000000
# 2 -0.002925 0.008375 -0.002120 0.000000 0.000000 0.000000
# 3 -0.002923 -0.002120 0.012952 0.000000 0.000000 0.000000
# 4 0.000000 0.000000 0.000000 0.073508 0.000000 0.000000
# 5 0.000000 0.000000 0.000000 0.000000 0.043323 0.000000
# 6 0.000000 0.000000 0.000000 0.000000 0.000000 0.058684
#
#
# Mechanical properties :
#
#
# Convention : Reuss Voigt Hill
#
# Bulk Modulus (GPa) = 24.40089 37.12762 30.76426
# Shear Modulus (GPa) = 19.08178 23.90190 21.49184
#
# Velocity S-wave (km/s) = 2.99157 3.34816 3.17488
# Velocity P-wave (km/s) = 4.83497 5.68859 5.27906
#
# Compressibility (1/GPa) = 0.04098210
#
# Stress axis : x y z
#
# Youngs Moduli (GPa) = 28.09619 119.40968 77.20921
#
# Poissons Ratio (x) = 0.34927 0.22567
# Poissons Ratio (y) = 0.08218 0.16370
# Poissons Ratio (z) = 0.08212 0.25318
#
# Static dielectric constant tensor:
#      x y z
#    x 1.770560 0.000000 0.000000 
#    y 0.000000 2.232650 0.000000 
#    z 0.000000 0.000000 1.985510 
# 
# From -- ./inp_files/48157.got.cif
#   From: 2010.05.17/outbox.cif.g08.bks.cpg/sg64_25_cif.got.tgz:48157.got - 2010.06.03 16:29:19.
