data_PCOD9480276
_publ_section_title
;
Structure prediction by ZEFSAII (Michael W. Deem and Ramdas Pophale) SiO2 
 PCOD9480276
Probable space group: C M C A
;
_chemical_formula_sum "Si O2"
_cell_formula_units_Z 104
_cell_length_a 13.116957
_cell_length_b 24.343628
_cell_length_c 15.287399
_cell_angle_alpha 90.000000
_cell_angle_beta 90.000000
_cell_angle_gamma 90.000000
_cell_volume 4881.485442
_symmetry_space_group_name_H-M "C M C A"
_symmetry_group_IT_number 64
_symmetry_cell_setting 'orthorhombic'
loop_
_space_group_symop_operation_xyz
x,y,z
-x,1/2-y,1/2+z
x,-y,-z
-x,1/2+y,1/2-z
-x,-y,-z
x,1/2+y,1/2-z
-x,y,z
x,1/2-y,1/2+z
1/2+x,1/2+y,z
1/2-x,-y,1/2+z
1/2+x,1/2-y,-z
1/2-x,y,1/2-z
1/2-x,1/2-y,-z
1/2+x,y,1/2-z
1/2-x,1/2+y,z
1/2+x,-y,1/2+z
loop_
_atom_site_type_symbol
_atom_site_label
_atom_site_fract_x
_atom_site_fract_y
_atom_site_fract_z
Si Si1 0.231526 0.315451 0.011713
Si Si2 0.622270 0.564620 0.822608
Si Si3 0.250000 0.263060 0.750000
Si Si4 0.120422 0.333963 0.192559
Si Si5 0.378154 0.405692 0.985302
Si Si6 0.377647 0.556944 0.207287
Si Si7 0.621447 0.650360 0.349387
O O1 0.340209 0.343508 0.993647
O O2 0.148973 0.347783 0.951293
O O3 0.250000 0.250000 0.000000
O O4 0.191521 0.331320 0.107564
O O5 0.500000 0.565145 0.831562
O O6 0.642923 0.616348 0.759707
O O7 0.648644 0.506594 0.779321
O O8 0.660067 0.566946 0.923698
O O9 0.153757 0.223703 0.734390
O O10 0.296264 0.303755 0.678911
O O11 0.000000 0.335499 0.172086
O O12 0.500000 0.410323 0.984608
O O13 0.341202 0.426749 0.890612
O O14 0.500000 0.559976 0.201555
O O15 0.354362 0.597672 0.287953
O O16 0.500000 0.662282 0.337117
#
# Coordination Sequence:
#
# PCOD9480276 Si02
#       7
#    16  16   8  16  16  16  16
#     4  12  25  44  59  89 132 173 223 274 317 389
#     4   9  19  39  67  97 130 169 214 265 326 392
#     4  12  22  42  62  94 128 162 222 268 312 386
#     4  11  24  42  66  94 131 174 215 267 329 382
#     4  10  21  39  66  98 129 168 214 272 332 380
#     4   9  19  39  67  97 130 169 214 265 326 392
#     4  11  24  42  66  94 131 174 215 267 329 382
#
# _framework density 21.304991000000001
#
# number of rings (size 3 to 8) (size 9 to 14) (size 15 to 20)
#    0.000    1.538    1.538    3.231    0.000    3.077 
#    0.000    9.231    0.000    3.692    0.000    0.000 
#    0.000    0.000    0.000    0.000    0.000    0.000 
#
# Total GULP energy -289651.462528 kJ/mol
# GULP energy per Si atom -5570.220433 kJ/mol
# Density = 2.125650 g / cm^3
# Si number density = 21.304991 Si / 1000 Ang^3
#
#
#
# Elastic Constant Matrix: (Units=GPa)
#
#
# Indices 1 2 3 4 5 6 
#
# 1 71.1008 5.0855 22.7514 0.0000 0.0000 0.0000
# 2 5.0855 128.5808 63.6932 0.0000 0.0000 0.0000
# 3 22.7514 63.6932 125.3998 0.0000 0.0000 0.0000
# 4 0.0000 0.0000 0.0000 52.8548 0.0000 0.0000
# 5 0.0000 0.0000 0.0000 0.0000 37.6665 0.0000
# 6 0.0000 0.0000 0.0000 0.0000 0.0000 262.2146
#
#
#
# Elastic Compliance Matrix: (Units=1/GPa)
#
#
# Indices 1 2 3 4 5 6 
#
# 1 0.015029 0.001011 -0.003240 0.000000 0.000000 0.000000
# 2 0.001011 0.010460 -0.005496 0.000000 0.000000 0.000000
# 3 -0.003240 -0.005496 0.011354 0.000000 0.000000 0.000000
# 4 0.000000 0.000000 0.000000 0.018920 0.000000 0.000000
# 5 0.000000 0.000000 0.000000 0.000000 0.026549 0.000000
# 6 0.000000 0.000000 0.000000 0.000000 0.000000 0.003814
#
#
# Mechanical properties :
#
#
# Convention : Reuss Voigt Hill
#
# Bulk Modulus (GPa) = 46.74731 56.46018 51.60375
# Shear Modulus (GPa) = 45.99540 86.11726 66.05633
#
# Velocity S-wave (km/s) = 4.65144 6.36466 5.57426
# Velocity P-wave (km/s) = 7.13004 8.97610 8.10579
#
# Compressibility (1/GPa) = 0.02139160
#
# Stress axis : x y z
#
# Youngs Moduli (GPa) = 66.53793 95.60457 88.07547
#
# Poissons Ratio (x) = -0.09661 0.28537
# Poissons Ratio (y) = -0.06724 0.48407
# Poissons Ratio (z) = 0.21558 0.52545
#
# Static dielectric constant tensor:
#      x y z
#    x 2.476880 0.000000 0.000000 
#    y 0.000000 1.828150 0.000000 
#    z 0.000000 0.000000 1.870540 
# 
# From -- ./inp_files/32378.got.cif
#   From: 2010.05.17/outbox.cif.g08.bks.cpg/sg64_17_cif.got.tgz:32378.got - 2010.06.03 16:29:19.
