data_PCOD9480849
_publ_section_title
;
Structure prediction by ZEFSAII (Michael W. Deem and Ramdas Pophale) SiO2 
 PCOD9480849
Probable space group: C M C A
;
_chemical_formula_sum "Si O2"
_cell_formula_units_Z 80
_cell_length_a 14.782746
_cell_length_b 11.500888
_cell_length_c 20.171151
_cell_angle_alpha 90.000000
_cell_angle_beta 90.000000
_cell_angle_gamma 90.000000
_cell_volume 3429.392309
_symmetry_space_group_name_H-M "C M C A"
_symmetry_group_IT_number 64
_symmetry_cell_setting 'orthorhombic'
loop_
_space_group_symop_operation_xyz
x,y,z
-x,1/2-y,1/2+z
x,-y,-z
-x,1/2+y,1/2-z
-x,-y,-z
x,1/2+y,1/2-z
-x,y,z
x,1/2-y,1/2+z
1/2+x,1/2+y,z
1/2-x,-y,1/2+z
1/2+x,1/2-y,-z
1/2-x,y,1/2-z
1/2-x,1/2-y,-z
1/2+x,y,1/2-z
1/2-x,1/2+y,z
1/2+x,-y,1/2+z
loop_
_atom_site_type_symbol
_atom_site_label
_atom_site_fract_x
_atom_site_fract_y
_atom_site_fract_z
Si Si1 0.783338 0.820942 0.320003
Si Si2 0.601978 0.931637 0.066026
Si Si3 0.652316 0.307080 0.987286
Si Si4 0.393983 0.395587 0.853226
Si Si5 0.400862 0.656240 0.868232
O O1 0.750000 0.868990 0.250000
O O2 0.831898 0.912551 0.370363
O O3 0.848112 0.708670 0.312296
O O4 0.689285 0.774233 0.351128
O O5 0.500000 0.974658 0.083081
O O6 0.595153 0.801189 0.039051
O O7 0.635573 0.000000 0.000000
O O8 0.654190 0.391666 0.924983
O O9 0.750000 0.250000 0.000000
O O10 0.607524 0.357648 0.052661
O O11 0.500000 0.368672 0.860015
O O12 0.390935 0.530450 0.833330
O O13 0.500000 0.704666 0.851976
#
# Coordination Sequence:
#
# PCOD9480849 Si02
#       5
#    16  16  16  16  16
#     4  11  24  41  65  94 131 177 227 281 345 417
#     4  10  22  40  65  98 137 177 224 288 355 413
#     4  11  19  34  61  92 123 164 210 265 326 393
#     4  10  22  41  63  88 125 167 211 268 333 399
#     4  11  23  38  61  94 127 168 219 271 327 395
#
# _framework density 23.327748
#
# number of rings (size 3 to 8) (size 9 to 14) (size 15 to 20)
#    0.000    1.400    4.000    4.200    2.800    4.000 
#    0.000    0.000    0.000    3.600    0.000    0.000 
#    0.000    0.000    0.000    0.000    0.000    0.000 
#
# Total GULP energy -222957.361191 kJ/mol
# GULP energy per Si atom -5573.934030 kJ/mol
# Density = 2.327465 g / cm^3
# Si number density = 23.327748 Si / 1000 Ang^3
#
#
#
# Elastic Constant Matrix: (Units=GPa)
#
#
# Indices 1 2 3 4 5 6 
#
# 1 183.9524 11.5582 42.7493 0.0000 0.0000 0.0000
# 2 11.5582 47.2187 10.1858 0.0000 0.0000 0.0000
# 3 42.7493 10.1858 118.8334 0.0000 0.0000 0.0000
# 4 0.0000 0.0000 0.0000 15.4516 0.0000 0.0000
# 5 0.0000 0.0000 0.0000 0.0000 13.9725 0.0000
# 6 0.0000 0.0000 0.0000 0.0000 0.0000 27.8861
#
#
#
# Elastic Compliance Matrix: (Units=1/GPa)
#
#
# Indices 1 2 3 4 5 6 
#
# 1 0.005980 -0.001019 -0.002064 0.000000 0.000000 0.000000
# 2 -0.001019 0.021750 -0.001498 0.000000 0.000000 0.000000
# 3 -0.002064 -0.001498 0.009286 0.000000 0.000000 0.000000
# 4 0.000000 0.000000 0.000000 0.064718 0.000000 0.000000
# 5 0.000000 0.000000 0.000000 0.000000 0.071569 0.000000
# 6 0.000000 0.000000 0.000000 0.000000 0.000000 0.035860
#
#
# Mechanical properties :
#
#
# Convention : Reuss Voigt Hill
#
# Bulk Modulus (GPa) = 35.89941 53.22122 44.56032
# Shear Modulus (GPa) = 21.96742 30.49612 26.23177
#
# Velocity S-wave (km/s) = 3.07202 3.61957 3.35698
# Velocity P-wave (km/s) = 5.29203 6.35078 5.84543
#
# Compressibility (1/GPa) = 0.02785561
#
# Stress axis : x y z
#
# Youngs Moduli (GPa) = 167.22913 45.97597 107.68892
#
# Poissons Ratio (x) = 0.04683 0.22226
# Poissons Ratio (y) = 0.17033 0.16131
# Poissons Ratio (z) = 0.34514 0.06887
#
# Static dielectric constant tensor:
#      x y z
#    x 1.928530 0.000000 0.000000 
#    y 0.000000 1.948890 0.000000 
#    z 0.000000 0.000000 1.965460 
# 
# From -- ./inp_files/38962.got.cif
#   From: 2010.05.17/outbox.cif.g08.bks.cpg/sg64_20_cif.got.tgz:38962.got - 2010.06.03 16:29:19.
