data_PCOD9480798
_publ_section_title
;
Structure prediction by ZEFSAII (Michael W. Deem and Ramdas Pophale) SiO2 
 PCOD9480798
Probable space group: C M C A
;
_chemical_formula_sum "Si O2"
_cell_formula_units_Z 56
_cell_length_a 20.322104
_cell_length_b 13.768648
_cell_length_c 7.610325
_cell_angle_alpha 90.000000
_cell_angle_beta 90.000000
_cell_angle_gamma 90.000000
_cell_volume 2129.429031
_symmetry_space_group_name_H-M "C M C A"
_symmetry_group_IT_number 64
_symmetry_cell_setting 'orthorhombic'
loop_
_space_group_symop_operation_xyz
x,y,z
-x,1/2-y,1/2+z
x,-y,-z
-x,1/2+y,1/2-z
-x,-y,-z
x,1/2+y,1/2-z
-x,y,z
x,1/2-y,1/2+z
1/2+x,1/2+y,z
1/2-x,-y,1/2+z
1/2+x,1/2-y,-z
1/2-x,y,1/2-z
1/2-x,1/2-y,-z
1/2+x,y,1/2-z
1/2-x,1/2+y,z
1/2+x,-y,1/2+z
loop_
_atom_site_type_symbol
_atom_site_label
_atom_site_fract_x
_atom_site_fract_y
_atom_site_fract_z
Si Si1 0.643210 0.646658 0.830688
Si Si2 0.142938 0.873114 0.588833
Si Si3 0.754416 0.500000 0.500000
Si Si4 0.500000 0.624038 0.398115
Si Si5 0.000000 0.147881 0.817677
O O1 0.641564 0.631910 0.622330
O O2 0.569921 0.619423 0.899752
O O3 0.653211 0.762394 0.853113
O O4 0.699336 0.584424 0.922816
O O5 0.202489 0.944064 0.627382
O O6 0.072171 0.912758 0.655226
O O7 0.500000 0.622019 0.610963
O O8 0.500000 0.735096 0.333076
#
# Coordination Sequence:
#
# PCOD9480798 Si02
#       5
#    16  16   8   8   8
#     4  10  22  40  62  87 117 155 198 246 296 349
#     4  10  22  40  62  87 117 155 198 246 296 349
#     4  12  24  34  54  88 124 158 192 232 288 354
#     4   8  16  35  60  84 111 147 195 245 293 343
#     4   8  16  35  60  84 111 147 195 245 293 343
#
# _framework density 26.29813
#
# number of rings (size 3 to 8) (size 9 to 14) (size 15 to 20)
#    0.000    2.286    0.000    1.714    0.000    5.714 
#    0.000    0.000    0.000   10.286    0.000    0.000 
#    0.000    0.000    0.000    0.000    0.000    0.000 
#
# Total GULP energy -156747.572639 kJ/mol
# GULP energy per Si atom -5598.127594 kJ/mol
# Density = 2.623827 g / cm^3
# Si number density = 26.298130 Si / 1000 Ang^3
#
#
#
# Elastic Constant Matrix: (Units=GPa)
#
#
# Indices 1 2 3 4 5 6 
#
# 1 286.3609 94.4624 22.4764 0.0000 0.0000 0.0000
# 2 94.4624 164.2318 16.4322 0.0000 0.0000 0.0000
# 3 22.4764 16.4322 43.2610 0.0000 0.0000 0.0000
# 4 0.0000 0.0000 0.0000 41.6681 0.0000 0.0000
# 5 0.0000 0.0000 0.0000 0.0000 17.7595 0.0000
# 6 0.0000 0.0000 0.0000 0.0000 0.0000 -196.9161
#
#
#
# Elastic Compliance Matrix: (Units=1/GPa)
#
#
# Indices 1 2 3 4 5 6 
#
# 1 0.004387 -0.002386 -0.001373 0.000000 0.000000 0.000000
# 2 -0.002386 0.007627 -0.001657 0.000000 0.000000 0.000000
# 3 -0.001373 -0.001657 0.024458 0.000000 0.000000 0.000000
# 4 0.000000 0.000000 0.000000 0.023999 0.000000 0.000000
# 5 0.000000 0.000000 0.000000 0.000000 0.056308 0.000000
# 6 0.000000 0.000000 0.000000 0.000000 0.000000 -0.005078
#
#
# Mechanical properties :
#
#
# Convention : Reuss Voigt Hill
#
# Bulk Modulus (GPa) = 39.00196 84.51064 61.75630
# Shear Modulus (GPa) = 38.14459 -3.46550 17.33955
#
# Velocity S-wave (km/s) = 3.81263 -1.14919 2.57056
# Velocity P-wave (km/s) = 5.85188 5.51766 5.68722
#
# Compressibility (1/GPa) = 0.02563974
#
# Stress axis : x y z
#
# Youngs Moduli (GPa) = 227.95179 131.11161 40.88577
#
# Poissons Ratio (x) = 0.31282 0.05614
# Poissons Ratio (y) = 0.54386 0.06777
# Poissons Ratio (z) = 0.31297 0.21731
#
# Static dielectric constant tensor:
#      x y z
#    x 2.117590 0.000000 0.000000 
#    y 0.000000 2.031260 0.000000 
#    z 0.000000 0.000000 2.064430 
# 
# From -- ./inp_files/7653.got.cif
#   From: 2010.05.17/outbox.cif.g08.bks.cpg/sg64_4_cif.got.tgz:7653.got - 2010.06.03 16:29:19.
