data_PCOD9480544
_publ_section_title
;
Structure prediction by ZEFSAII (Michael W. Deem and Ramdas Pophale) SiO2 
 PCOD9480544
Probable space group: C M C A
;
_chemical_formula_sum "Si O2"
_cell_formula_units_Z 108
_cell_length_a 14.445065
_cell_length_b 23.143452
_cell_length_c 14.054094
_cell_angle_alpha 90.000000
_cell_angle_beta 90.000000
_cell_angle_gamma 90.000000
_cell_volume 4698.405452
_symmetry_space_group_name_H-M "C M C A"
_symmetry_group_IT_number 64
_symmetry_cell_setting 'orthorhombic'
loop_
_space_group_symop_operation_xyz
x,y,z
-x,1/2-y,1/2+z
x,-y,-z
-x,1/2+y,1/2-z
-x,-y,-z
x,1/2+y,1/2-z
-x,y,z
x,1/2-y,1/2+z
1/2+x,1/2+y,z
1/2-x,-y,1/2+z
1/2+x,1/2-y,-z
1/2-x,y,1/2-z
1/2-x,1/2-y,-z
1/2+x,y,1/2-z
1/2-x,1/2+y,z
1/2+x,-y,1/2+z
loop_
_atom_site_type_symbol
_atom_site_label
_atom_site_fract_x
_atom_site_fract_y
_atom_site_fract_z
Si Si1 0.000000 0.500000 0.000000
Si Si2 0.888550 0.189694 0.892866
Si Si3 0.895872 0.162097 0.106513
Si Si4 0.139165 0.029858 0.092864
Si Si5 0.850111 0.434602 0.917140
Si Si6 0.602939 0.037608 0.782855
Si Si7 0.389465 0.182324 0.185088
Si Si8 0.750000 0.123478 0.750000
O O1 0.918247 0.449122 0.003206
O O2 0.879327 0.257122 0.867781
O O3 0.820510 0.157509 0.818889
O O4 0.000000 0.174410 0.883698
O O5 0.857724 0.176392 0.001615
O O6 0.900479 0.092762 0.115979
O O7 0.852685 0.184042 0.205723
O O8 0.000000 0.186838 0.103424
O O9 0.246276 0.044283 0.073607
O O10 0.126190 0.984692 0.177148
O O11 0.099876 0.000000 0.000000
O O12 0.896766 0.477730 0.840338
O O13 0.849568 0.370488 0.875789
O O14 0.500000 0.062338 0.785870
O O15 0.682408 0.082010 0.810473
O O16 0.500000 0.170136 0.192848
#
# Coordination Sequence:
#
# PCOD9480544 Si02
#       8
#     4  16  16  16  16  16  16   8
#     4  12  24  40  68  96 144 188 228 292 362 418
#     4  10  24  46  71 102 141 182 239 299 352 421
#     4  10  22  42  69 102 133 178 238 293 347 422
#     4  12  24  38  64 102 139 179 229 290 354 425
#     4  12  23  43  66 103 142 184 233 291 352 437
#     4  12  24  42  68  96 139 185 229 285 359 431
#     4  10  21  44  76  99 137 192 239 289 356 423
#     4  12  24  42  66 100 142 186 226 294 360 416
#
# _framework density 22.986522000000001
#
# number of rings (size 3 to 8) (size 9 to 14) (size 15 to 20)
#    0.000    0.889    5.185    1.778    0.000    3.556 
#    0.000    5.926    3.259    0.000    0.000    0.000 
#    0.000    0.000    0.000    0.000    0.000    0.000 
#
# Total GULP energy -301337.246276 kJ/mol
# GULP energy per Si atom -5580.319375 kJ/mol
# Density = 2.293420 g / cm^3
# Si number density = 22.986522 Si / 1000 Ang^3
#
#
#
# Elastic Constant Matrix: (Units=GPa)
#
#
# Indices 1 2 3 4 5 6 
#
# 1 161.1333 39.7795 24.7941 0.0000 0.0000 0.0000
# 2 39.7795 93.4585 40.9861 0.0000 0.0000 0.0000
# 3 24.7941 40.9861 96.4941 0.0000 0.0000 0.0000
# 4 0.0000 0.0000 0.0000 36.8291 0.0000 0.0000
# 5 0.0000 0.0000 0.0000 0.0000 -8.2451 0.0000
# 6 0.0000 0.0000 0.0000 0.0000 0.0000 27.2685
#
#
#
# Elastic Compliance Matrix: (Units=1/GPa)
#
#
# Indices 1 2 3 4 5 6 
#
# 1 0.006968 -0.002680 -0.000652 0.000000 0.000000 0.000000
# 2 -0.002680 0.014180 -0.005334 0.000000 0.000000 0.000000
# 3 -0.000652 -0.005334 0.012797 0.000000 0.000000 0.000000
# 4 0.000000 0.000000 0.000000 0.027152 0.000000 0.000000
# 5 0.000000 0.000000 0.000000 0.000000 -0.121284 0.000000
# 6 0.000000 0.000000 0.000000 0.000000 0.000000 0.036672
#
#
# Mechanical properties :
#
#
# Convention : Reuss Voigt Hill
#
# Bulk Modulus (GPa) = 60.19791 62.46727 61.33259
# Shear Modulus (GPa) = -7762.12152 27.53890 -3867.29131
#
# Velocity S-wave (km/s) = -58.17341 3.46503 -41.06177
# Velocity P-wave (km/s) = 66.97722 6.57596 47.13123
#
# Compressibility (1/GPa) = 0.01661187
#
# Stress axis : x y z
#
# Youngs Moduli (GPa) = 143.51391 70.52205 78.14513
#
# Poissons Ratio (x) = 0.18899 0.05096
# Poissons Ratio (y) = 0.38459 0.41686
# Poissons Ratio (z) = 0.09359 0.37619
#
# Static dielectric constant tensor:
#      x y z
#    x 0.603960 0.000000 0.000000 
#    y 0.000000 1.819820 0.000000 
#    z 0.000000 0.000000 2.285890 
# 
# From -- ./inp_files/24316.got.cif
#   From: 2010.05.17/outbox.cif.g08.bks.cpg/sg64_13_cif.got.tgz:24316.got - 2010.06.03 16:29:19.
