data_PCOD9480948
_publ_section_title
;
Structure prediction by ZEFSAII (Michael W. Deem and Ramdas Pophale) SiO2 
 PCOD9480948
Probable space group: C M C A
;
_chemical_formula_sum "Si O2"
_cell_formula_units_Z 68
_cell_length_a 22.775131
_cell_length_b 9.100335
_cell_length_c 14.631392
_cell_angle_alpha 90.000000
_cell_angle_beta 90.000000
_cell_angle_gamma 90.000000
_cell_volume 3032.521645
_symmetry_space_group_name_H-M "C M C A"
_symmetry_group_IT_number 64
_symmetry_cell_setting 'orthorhombic'
loop_
_space_group_symop_operation_xyz
x,y,z
-x,1/2-y,1/2+z
x,-y,-z
-x,1/2+y,1/2-z
-x,-y,-z
x,1/2+y,1/2-z
-x,y,z
x,1/2-y,1/2+z
1/2+x,1/2+y,z
1/2-x,-y,1/2+z
1/2+x,1/2-y,-z
1/2-x,y,1/2-z
1/2-x,1/2-y,-z
1/2+x,y,1/2-z
1/2-x,1/2+y,z
1/2+x,-y,1/2+z
loop_
_atom_site_type_symbol
_atom_site_label
_atom_site_fract_x
_atom_site_fract_y
_atom_site_fract_z
Si Si1 0.500000 0.734255 0.331156
Si Si2 0.129142 0.259112 0.356144
Si Si3 0.500000 0.703556 0.116475
Si Si4 0.183271 0.946283 0.780337
Si Si5 0.500000 0.000000 0.000000
Si Si6 0.628741 0.846569 0.546897
O O1 0.562374 0.813634 0.342090
O O2 0.500000 0.681913 0.225821
O O3 0.500000 0.623289 0.416750
O O4 0.141853 0.110263 0.301512
O O5 0.168592 0.389671 0.314711
O O6 0.137377 0.233298 0.464373
O O7 0.438718 0.643809 0.077608
O O8 0.500000 0.870405 0.079580
O O9 0.250000 0.935731 0.750000
O O10 0.168456 0.835536 0.863890
O O11 0.644737 0.000000 0.500000
#
# Coordination Sequence:
#
# PCOD9480948 Si02
#       6
#     8  16   8  16   4  16
#     4  12  26  41  72 111 149 184 234 300 383 441
#     4  11  24  44  71 103 142 187 236 307 369 442
#     4  12  23  42  71 108 150 190 229 305 381 452
#     4  11  25  45  68  98 139 191 249 297 361 438
#     4  12  28  42  68 118 154 186 244 300 370 484
#     4  10  22  41  68 100 139 185 233 294 372 444
#
# _framework density 22.423582
#
# number of rings (size 3 to 8) (size 9 to 14) (size 15 to 20)
#    0.000    0.941    4.706    1.059    3.294    3.765 
#    0.000    2.353    0.000    0.000    0.000    0.000 
#    0.000    0.000    0.000    0.000    0.000    0.000 
#
# Total GULP energy -189373.655283 kJ/mol
# GULP energy per Si atom -5569.813391 kJ/mol
# Density = 2.237254 g / cm^3
# Si number density = 22.423582 Si / 1000 Ang^3
#
#
#
# Elastic Constant Matrix: (Units=GPa)
#
#
# Indices 1 2 3 4 5 6 
#
# 1 133.0385 11.2067 49.3414 0.0000 0.0000 0.0000
# 2 11.2067 30.2824 17.0057 0.0000 0.0000 0.0000
# 3 49.3414 17.0057 184.8164 0.0000 0.0000 0.0000
# 4 0.0000 0.0000 0.0000 38.2234 0.0000 0.0000
# 5 0.0000 0.0000 0.0000 0.0000 34.9900 0.0000
# 6 0.0000 0.0000 0.0000 0.0000 0.0000 -1.6292
#
#
#
# Elastic Compliance Matrix: (Units=1/GPa)
#
#
# Indices 1 2 3 4 5 6 
#
# 1 0.008452 -0.001962 -0.002076 0.000000 0.000000 0.000000
# 2 -0.001962 0.035277 -0.002722 0.000000 0.000000 0.000000
# 3 -0.002076 -0.002722 0.006215 0.000000 0.000000 0.000000
# 4 0.000000 0.000000 0.000000 0.026162 0.000000 0.000000
# 5 0.000000 0.000000 0.000000 0.000000 0.028580 0.000000
# 6 0.000000 0.000000 0.000000 0.000000 0.000000 -0.613815
#
#
# Mechanical properties :
#
#
# Convention : Reuss Voigt Hill
#
# Bulk Modulus (GPa) = 27.45415 55.91609 41.68512
# Shear Modulus (GPa) = -10.34197 32.35574 11.00688
#
# Velocity S-wave (km/s) = -2.14991 3.80272 2.21794
# Velocity P-wave (km/s) = 2.47127 6.65367 5.01889
#
# Compressibility (1/GPa) = 0.03642436
#
# Stress axis : x y z
#
# Youngs Moduli (GPa) = 118.31802 28.34681 160.88894
#
# Poissons Ratio (x) = 0.05562 0.33399
# Poissons Ratio (y) = 0.23214 0.43797
# Poissons Ratio (z) = 0.24561 0.07717
#
# Static dielectric constant tensor:
#      x y z
#    x 1.820150 0.000000 0.000000 
#    y 0.000000 1.830950 0.000000 
#    z 0.000000 0.000000 1.897100 
# 
# From -- ./inp_files/26076.got.cif
#   From: 2010.05.17/outbox.cif.g08.bks.cpg/sg64_14_cif.got.tgz:26076.got - 2010.06.03 16:29:19.
