data_PCOD9480576
_publ_section_title
;
Structure prediction by ZEFSAII (Michael W. Deem and Ramdas Pophale) SiO2 
 PCOD9480576
Probable space group: C M C A
;
_chemical_formula_sum "Si O2"
_cell_formula_units_Z 72
_cell_length_a 22.904833
_cell_length_b 17.647343
_cell_length_c 9.850158
_cell_angle_alpha 90.000000
_cell_angle_beta 90.000000
_cell_angle_gamma 90.000000
_cell_volume 3981.526892
_symmetry_space_group_name_H-M "C M C A"
_symmetry_group_IT_number 64
_symmetry_cell_setting 'orthorhombic'
loop_
_space_group_symop_operation_xyz
x,y,z
-x,1/2-y,1/2+z
x,-y,-z
-x,1/2+y,1/2-z
-x,-y,-z
x,1/2+y,1/2-z
-x,y,z
x,1/2-y,1/2+z
1/2+x,1/2+y,z
1/2-x,-y,1/2+z
1/2+x,1/2-y,-z
1/2-x,y,1/2-z
1/2-x,1/2-y,-z
1/2+x,y,1/2-z
1/2-x,1/2+y,z
1/2+x,-y,1/2+z
loop_
_atom_site_type_symbol
_atom_site_label
_atom_site_fract_x
_atom_site_fract_y
_atom_site_fract_z
Si Si1 0.818896 0.667343 0.749774
Si Si2 0.166069 0.810658 0.936275
Si Si3 0.750000 0.906013 0.750000
Si Si4 0.568279 0.065263 0.389040
Si Si5 0.361327 0.995044 0.159644
O O1 0.750000 0.651202 0.750000
O O2 0.830261 0.696808 0.597702
O O3 0.835056 0.731323 0.858622
O O4 0.851505 0.589962 0.786682
O O5 0.221455 0.855213 0.869601
O O6 0.109447 0.862423 0.909921
O O7 0.697500 0.957591 0.805643
O O8 0.500000 0.082598 0.400238
O O9 0.582925 0.000000 0.500000
O O10 0.586029 0.031437 0.243899
O O11 0.370798 0.000000 0.000000
#
# Coordination Sequence:
#
# PCOD9480576 Si02
#       5
#    16  16   8  16  16
#     4  12  23  38  59  93 133 159 193 240 312 374
#     4  11  24  39  59  93 124 168 197 247 307 372
#     4  10  22  36  60  90 126 164 206 240 306 364
#     4  10  22  45  67  83 115 162 214 258 302 354
#     4  11  23  37  64  92 123 159 206 254 301 360
#
# _framework density 18.083515999999999
#
# number of rings (size 3 to 8) (size 9 to 14) (size 15 to 20)
#    0.000    1.111    4.444    2.000    6.222    0.444 
#    0.000    2.222    0.000    0.000    0.000    0.000 
#    0.000    0.000    0.000    0.000    0.000    0.000 
#
# Total GULP energy -201176.679378 kJ/mol
# GULP energy per Si atom -5588.241094 kJ/mol
# Density = 1.804236 g / cm^3
# Si number density = 18.083516 Si / 1000 Ang^3
#
#
#
# Elastic Constant Matrix: (Units=GPa)
#
#
# Indices 1 2 3 4 5 6 
#
# 1 41.2363 -1.9669 -7.7623 0.0000 0.0000 0.0000
# 2 -1.9669 48.6750 -2.7609 0.0000 0.0000 0.0000
# 3 -7.7623 -2.7609 127.0526 0.0000 0.0000 0.0000
# 4 0.0000 0.0000 0.0000 13.5258 0.0000 0.0000
# 5 0.0000 0.0000 0.0000 0.0000 14.7810 0.0000
# 6 0.0000 0.0000 0.0000 0.0000 0.0000 2.8458
#
#
#
# Elastic Compliance Matrix: (Units=1/GPa)
#
#
# Indices 1 2 3 4 5 6 
#
# 1 0.024589 0.001080 0.001526 0.000000 0.000000 0.000000
# 2 0.001080 0.020617 0.000514 0.000000 0.000000 0.000000
# 3 0.001526 0.000514 0.007975 0.000000 0.000000 0.000000
# 4 0.000000 0.000000 0.000000 0.073933 0.000000 0.000000
# 5 0.000000 0.000000 0.000000 0.000000 0.067654 0.000000
# 6 0.000000 0.000000 0.000000 0.000000 0.000000 0.351400
#
#
# Mechanical properties :
#
#
# Convention : Reuss Voigt Hill
#
# Bulk Modulus (GPa) = 16.82896 21.33153 19.08025
# Shear Modulus (GPa) = 8.93278 21.52743 15.23010
#
# Velocity S-wave (km/s) = 2.22496 3.45403 2.90523
# Velocity P-wave (km/s) = 3.99087 5.26581 4.67204
#
# Compressibility (1/GPa) = 0.05942136
#
# Stress axis : x y z
#
# Youngs Moduli (GPa) = 40.66830 48.50313 125.38959
#
# Poissons Ratio (x) = -0.05239 -0.19131
# Poissons Ratio (y) = -0.04393 -0.06445
# Poissons Ratio (z) = -0.06205 -0.02493
#
# Static dielectric constant tensor:
#      x y z
#    x 1.585490 0.000000 0.000000 
#    y 0.000000 1.613880 0.000000 
#    z 0.000000 0.000000 1.617910 
# 
# From -- ./inp_files/9138.got.cif
#   From: 2010.05.17/outbox.cif.g08.bks.cpg/sg64_5_cif.got.tgz:9138.got - 2010.06.03 16:29:19.
