data_PCOD9480300
_publ_section_title
;
Structure prediction by ZEFSAII (Michael W. Deem and Ramdas Pophale) SiO2 
 PCOD9480300
Probable space group: C M C A
;
_chemical_formula_sum "Si O2"
_cell_formula_units_Z 64
_cell_length_a 16.663526
_cell_length_b 11.112382
_cell_length_c 13.801841
_cell_angle_alpha 90.000000
_cell_angle_beta 90.000000
_cell_angle_gamma 90.000000
_cell_volume 2555.707137
_symmetry_space_group_name_H-M "C M C A"
_symmetry_group_IT_number 64
_symmetry_cell_setting 'orthorhombic'
loop_
_space_group_symop_operation_xyz
x,y,z
-x,1/2-y,1/2+z
x,-y,-z
-x,1/2+y,1/2-z
-x,-y,-z
x,1/2+y,1/2-z
-x,y,z
x,1/2-y,1/2+z
1/2+x,1/2+y,z
1/2-x,-y,1/2+z
1/2+x,1/2-y,-z
1/2-x,y,1/2-z
1/2-x,1/2-y,-z
1/2+x,y,1/2-z
1/2-x,1/2+y,z
1/2+x,-y,1/2+z
loop_
_atom_site_type_symbol
_atom_site_label
_atom_site_fract_x
_atom_site_fract_y
_atom_site_fract_z
Si Si1 0.906414 0.632532 0.722537
Si Si2 0.860641 0.920315 0.904001
Si Si3 0.797800 0.808605 0.593186
Si Si4 0.409316 0.348571 0.437514
O O1 0.905749 0.503326 0.671794
O O2 0.845497 0.718157 0.662794
O O3 0.875035 0.619949 0.832145
O O4 0.000000 0.677176 0.723233
O O5 0.773895 0.884205 0.861577
O O6 0.906356 0.798774 0.933448
O O7 0.848306 0.000000 0.000000
O O8 0.750000 0.750000 0.500000
O O9 0.864713 0.882709 0.535764
O O10 0.500000 0.388655 0.439249
#
# Coordination Sequence:
#
# PCOD9480300 Si02
#       4
#    16  16  16  16
#     4  11  23  43  70  98 133 181 226 274 333 402
#     4  11  22  42  68  98 127 177 232 265 336 407
#     4  10  21  40  60 102 134 167 217 282 329 387
#     4  10  22  41  68 102 136 173 224 284 336 391
#
# _framework density 25.041993000000002
#
# number of rings (size 3 to 8) (size 9 to 14) (size 15 to 20)
#    0.000    1.500    5.000    1.500    0.000    5.000 
#    9.000    0.000    0.000    1.500    0.000    0.000 
#    0.000    0.000    0.000    0.000    0.000    0.000 
#
# Total GULP energy -178993.832355 kJ/mol
# GULP energy per Si atom -5593.557261 kJ/mol
# Density = 2.498500 g / cm^3
# Si number density = 25.041993 Si / 1000 Ang^3
#
#
#
# Elastic Constant Matrix: (Units=GPa)
#
#
# Indices 1 2 3 4 5 6 
#
# 1 108.0104 0.9659 43.6449 0.0000 0.0000 0.0000
# 2 0.9659 83.4015 24.8957 0.0000 0.0000 0.0000
# 3 43.6449 24.8957 109.0829 0.0000 0.0000 0.0000
# 4 0.0000 0.0000 0.0000 35.5151 0.0000 0.0000
# 5 0.0000 0.0000 0.0000 0.0000 32.6409 0.0000
# 6 0.0000 0.0000 0.0000 0.0000 0.0000 35.9809
#
#
#
# Elastic Compliance Matrix: (Units=1/GPa)
#
#
# Indices 1 2 3 4 5 6 
#
# 1 0.011172 0.001293 -0.004765 0.000000 0.000000 0.000000
# 2 0.001293 0.013016 -0.003488 0.000000 0.000000 0.000000
# 3 -0.004765 -0.003488 0.011870 0.000000 0.000000 0.000000
# 4 0.000000 0.000000 0.000000 0.028157 0.000000 0.000000
# 5 0.000000 0.000000 0.000000 0.000000 0.030636 0.000000
# 6 0.000000 0.000000 0.000000 0.000000 0.000000 0.027792
#
#
# Mechanical properties :
#
#
# Convention : Reuss Voigt Hill
#
# Bulk Modulus (GPa) = 45.17064 48.83419 47.00241
# Shear Modulus (GPa) = 34.73557 36.22660 35.48108
#
# Velocity S-wave (km/s) = 3.72841 3.80759 3.76821
# Velocity P-wave (km/s) = 6.05077 6.23487 6.14351
#
# Compressibility (1/GPa) = 0.02213827
#
# Stress axis : x y z
#
# Youngs Moduli (GPa) = 89.50672 76.82608 84.24583
#
# Poissons Ratio (x) = -0.09934 0.40145
# Poissons Ratio (y) = -0.11574 0.29385
# Poissons Ratio (z) = 0.42652 0.26797
#
# Static dielectric constant tensor:
#      x y z
#    x 2.023520 0.000000 0.000000 
#    y 0.000000 2.049320 0.000000 
#    z 0.000000 0.000000 2.034500 
# 
# From -- ./inp_files/24853.got.cif
#   From: 2010.05.17/outbox.cif.g08.bks.cpg/sg64_13_cif.got.tgz:24853.got - 2010.06.03 16:29:19.
