data_PCOD9480173
_publ_section_title
;
Structure prediction by ZEFSAII (Michael W. Deem and Ramdas Pophale) SiO2 
 PCOD9480173
Probable space group: C M C A
;
_chemical_formula_sum "Si O2"
_cell_formula_units_Z 64
_cell_length_a 25.701289
_cell_length_b 15.009367
_cell_length_c 8.647572
_cell_angle_alpha 90.000000
_cell_angle_beta 90.000000
_cell_angle_gamma 90.000000
_cell_volume 3335.888058
_symmetry_space_group_name_H-M "C M C A"
_symmetry_group_IT_number 64
_symmetry_cell_setting 'orthorhombic'
loop_
_space_group_symop_operation_xyz
x,y,z
-x,1/2-y,1/2+z
x,-y,-z
-x,1/2+y,1/2-z
-x,-y,-z
x,1/2+y,1/2-z
-x,y,z
x,1/2-y,1/2+z
1/2+x,1/2+y,z
1/2-x,-y,1/2+z
1/2+x,1/2-y,-z
1/2-x,y,1/2-z
1/2-x,1/2-y,-z
1/2+x,y,1/2-z
1/2-x,1/2+y,z
1/2+x,-y,1/2+z
loop_
_atom_site_type_symbol
_atom_site_label
_atom_site_fract_x
_atom_site_fract_y
_atom_site_fract_z
Si Si1 0.439808 0.066109 0.646652
Si Si2 0.656165 0.525850 0.674772
Si Si3 0.848979 0.806656 0.142390
Si Si4 0.306953 0.650366 0.187458
O O1 0.500000 0.081076 0.681821
O O2 0.405549 0.024467 0.785445
O O3 0.406988 0.155712 0.610180
O O4 0.436004 0.000000 0.500000
O O5 0.667793 0.500000 0.500000
O O6 0.672088 0.625396 0.725268
O O7 0.682275 0.453767 0.787135
O O8 0.846145 0.707640 0.206166
O O9 0.816214 0.821591 0.988056
O O10 0.250000 0.671900 0.250000
#
# Coordination Sequence:
#
# PCOD9480173 Si02
#       4
#    16  16  16  16
#     4   9  18  40  67  84 117 160 197 251 308 347
#     4  10  21  39  61  88 124 156 202 253 296 364
#     4  10  22  41  57  89 125 150 211 253 294 370
#     4  12  23  38  61  87 119 165 199 251 306 358
#
# _framework density 19.185296999999998
#
# number of rings (size 3 to 8) (size 9 to 14) (size 15 to 20)
#    1.500    0.250    2.500    3.000    0.000    3.500 
#    0.000    2.500    0.000    0.000    0.000    0.000 
#    0.000    0.000    0.000    0.000    0.000    0.000 
#
# Total GULP energy -178300.852329 kJ/mol
# GULP energy per Si atom -5571.901635 kJ/mol
# Density = 1.914163 g / cm^3
# Si number density = 19.185297 Si / 1000 Ang^3
#
#
#
# Elastic Constant Matrix: (Units=GPa)
#
#
# Indices 1 2 3 4 5 6 
#
# 1 67.7303 -1.3091 7.1429 0.0000 0.0000 0.0000
# 2 -1.3091 36.9763 -23.2291 0.0000 0.0000 0.0000
# 3 7.1429 -23.2291 72.4921 0.0000 0.0000 0.0000
# 4 0.0000 0.0000 0.0000 33.3172 0.0000 0.0000
# 5 0.0000 0.0000 0.0000 0.0000 17.7583 0.0000
# 6 0.0000 0.0000 0.0000 0.0000 0.0000 -1.5916
#
#
#
# Elastic Compliance Matrix: (Units=1/GPa)
#
#
# Indices 1 2 3 4 5 6 
#
# 1 0.014927 -0.000495 -0.001629 0.000000 0.000000 0.000000
# 2 -0.000495 0.033877 0.010904 0.000000 0.000000 0.000000
# 3 -0.001629 0.010904 0.017449 0.000000 0.000000 0.000000
# 4 0.000000 0.000000 0.000000 0.030015 0.000000 0.000000
# 5 0.000000 0.000000 0.000000 0.000000 0.056312 0.000000
# 6 0.000000 0.000000 0.000000 0.000000 0.000000 -0.628309
#
#
# Mechanical properties :
#
#
# Convention : Reuss Voigt Hill
#
# Bulk Modulus (GPa) = 11.93144 15.82312 13.87728
# Shear Modulus (GPa) = -10.74456 22.86972 6.06258
#
# Velocity S-wave (km/s) = -2.36909 3.45634 1.77957
# Velocity P-wave (km/s) = 1.11842 4.91872 3.38696
#
# Compressibility (1/GPa) = 0.08381215
#
# Stress axis : x y z
#
# Youngs Moduli (GPa) = 66.99403 29.51855 57.30897
#
# Poissons Ratio (x) = 0.01462 0.09338
# Poissons Ratio (y) = 0.03318 -0.62491
# Poissons Ratio (z) = 0.10916 -0.32188
#
# Static dielectric constant tensor:
#      x y z
#    x 1.662200 0.000000 0.000000 
#    y 0.000000 1.660220 0.000000 
#    z 0.000000 0.000000 1.737580 
# 
# From -- ./inp_files/8958.got.cif
#   From: 2010.05.17/outbox.cif.g08.bks.cpg/sg64_5_cif.got.tgz:8958.got - 2010.06.03 16:29:19.
