data_PCOD9480145
_publ_section_title
;
Structure prediction by ZEFSAII (Michael W. Deem and Ramdas Pophale) SiO2 
 PCOD9480145
Probable space group: C M C A
;
_chemical_formula_sum "Si O2"
_cell_formula_units_Z 80
_cell_length_a 25.558738
_cell_length_b 11.591736
_cell_length_c 14.409140
_cell_angle_alpha 90.000000
_cell_angle_beta 90.000000
_cell_angle_gamma 90.000000
_cell_volume 4268.997974
_symmetry_space_group_name_H-M "C M C A"
_symmetry_group_IT_number 64
_symmetry_cell_setting 'orthorhombic'
loop_
_space_group_symop_operation_xyz
x,y,z
-x,1/2-y,1/2+z
x,-y,-z
-x,1/2+y,1/2-z
-x,-y,-z
x,1/2+y,1/2-z
-x,y,z
x,1/2-y,1/2+z
1/2+x,1/2+y,z
1/2-x,-y,1/2+z
1/2+x,1/2-y,-z
1/2-x,y,1/2-z
1/2-x,1/2-y,-z
1/2+x,y,1/2-z
1/2-x,1/2+y,z
1/2+x,-y,1/2+z
loop_
_atom_site_type_symbol
_atom_site_label
_atom_site_fract_x
_atom_site_fract_y
_atom_site_fract_z
Si Si1 0.060577 0.638701 0.996527
Si Si2 0.642824 0.244241 0.631990
Si Si3 0.641496 0.820471 0.159157
Si Si4 0.781944 0.464050 0.844128
Si Si5 0.793658 0.342617 0.531623
O O1 0.088967 0.671987 0.900748
O O2 0.000000 0.673056 0.000496
O O3 0.063662 0.500000 0.000000
O O4 0.094231 0.695964 0.079317
O O5 0.631430 0.188678 0.731458
O O6 0.684288 0.346574 0.654056
O O7 0.668090 0.155514 0.557489
O O8 0.673331 0.713217 0.116318
O O9 0.678480 0.930949 0.139087
O O10 0.750000 0.483079 0.750000
O O11 0.737919 0.445883 0.921525
O O12 0.750000 0.250000 0.500000
#
# Coordination Sequence:
#
# PCOD9480145 Si02
#       5
#    16  16  16  16  16
#     4  10  21  41  66  87 114 155 205 265 317 352
#     4  10  21  39  57  88 118 155 208 253 291 375
#     4  11  22  38  57  87 120 156 205 249 295 370
#     4  11  21  34  53  80 122 166 190 236 292 352
#     4   9  21  34  50  78 118 157 199 232 287 356
#
# _framework density 18.739761000000001
#
# number of rings (size 3 to 8) (size 9 to 14) (size 15 to 20)
#    0.000    1.800    4.000    0.000    5.600    0.800 
#    0.000    0.000    0.000    0.000    0.000    1.400 
#    0.000    0.000    0.000    0.000    0.000    0.000 
#
# Total GULP energy -223256.173685 kJ/mol
# GULP energy per Si atom -5581.404342 kJ/mol
# Density = 1.869711 g / cm^3
# Si number density = 18.739761 Si / 1000 Ang^3
#
#
#
# Elastic Constant Matrix: (Units=GPa)
#
#
# Indices 1 2 3 4 5 6 
#
# 1 124.2001 20.5597 52.5057 0.0000 0.0000 0.0000
# 2 20.5597 38.0045 19.4995 0.0000 0.0000 0.0000
# 3 52.5057 19.4995 154.3479 0.0000 0.0000 0.0000
# 4 0.0000 0.0000 0.0000 23.8892 0.0000 0.0000
# 5 0.0000 0.0000 0.0000 0.0000 19.8494 0.0000
# 6 0.0000 0.0000 0.0000 0.0000 0.0000 20.6716
#
#
#
# Elastic Compliance Matrix: (Units=1/GPa)
#
#
# Indices 1 2 3 4 5 6 
#
# 1 0.009913 -0.003884 -0.002881 0.000000 0.000000 0.000000
# 2 -0.003884 0.029658 -0.002426 0.000000 0.000000 0.000000
# 3 -0.002881 -0.002426 0.007765 0.000000 0.000000 0.000000
# 4 0.000000 0.000000 0.000000 0.041860 0.000000 0.000000
# 5 0.000000 0.000000 0.000000 0.000000 0.050379 0.000000
# 6 0.000000 0.000000 0.000000 0.000000 0.000000 0.048376
#
#
# Mechanical properties :
#
#
# Convention : Reuss Voigt Hill
#
# Bulk Modulus (GPa) = 34.53713 55.74247 45.13980
# Shear Modulus (GPa) = 23.14977 27.81455 25.48216
#
# Velocity S-wave (km/s) = 3.51854 3.85678 3.69153
# Velocity P-wave (km/s) = 5.91411 7.04579 6.50461
#
# Compressibility (1/GPa) = 0.02895435
#
# Stress axis : x y z
#
# Youngs Moduli (GPa) = 100.88190 33.71722 128.77515
#
# Poissons Ratio (x) = 0.13096 0.37104
# Poissons Ratio (y) = 0.39184 0.31236
# Poissons Ratio (z) = 0.29067 0.08178
#
# Static dielectric constant tensor:
#      x y z
#    x 1.620410 0.000000 0.000000 
#    y 0.000000 1.682820 0.000000 
#    z 0.000000 0.000000 1.702610 
# 
# From -- ./inp_files/27041.got.cif
#   From: 2010.05.17/outbox.cif.g08.bks.cpg/sg64_14_cif.got.tgz:27041.got - 2010.06.03 16:29:19.
