data_PCOD9480056
_publ_section_title
;
Structure prediction by ZEFSAII (Michael W. Deem and Ramdas Pophale) SiO2 
 PCOD9480056
Probable space group: C M C A
;
_chemical_formula_sum "Si O2"
_cell_formula_units_Z 64
_cell_length_a 15.359950
_cell_length_b 34.949432
_cell_length_c 4.847882
_cell_angle_alpha 90.000000
_cell_angle_beta 90.000000
_cell_angle_gamma 90.000000
_cell_volume 2602.447423
_symmetry_space_group_name_H-M "C M C A"
_symmetry_group_IT_number 64
_symmetry_cell_setting 'orthorhombic'
loop_
_space_group_symop_operation_xyz
x,y,z
-x,1/2-y,1/2+z
x,-y,-z
-x,1/2+y,1/2-z
-x,-y,-z
x,1/2+y,1/2-z
-x,y,z
x,1/2-y,1/2+z
1/2+x,1/2+y,z
1/2-x,-y,1/2+z
1/2+x,1/2-y,-z
1/2-x,y,1/2-z
1/2-x,1/2-y,-z
1/2+x,y,1/2-z
1/2-x,1/2+y,z
1/2+x,-y,1/2+z
loop_
_atom_site_type_symbol
_atom_site_label
_atom_site_fract_x
_atom_site_fract_y
_atom_site_fract_z
Si Si1 0.396320 0.724303 0.487406
Si Si2 0.901356 0.101693 0.968154
Si Si3 0.164537 0.357304 0.935505
Si Si4 0.400382 0.526651 0.264094
O O1 0.500000 0.716358 0.516647
O O2 0.376656 0.759744 0.685960
O O3 0.345140 0.685596 0.545286
O O4 0.850810 0.114813 0.695180
O O5 0.000000 0.091308 0.883865
O O6 0.905740 0.135029 0.195753
O O7 0.862777 0.066086 0.143613
O O8 0.250000 0.362475 0.750000
O O9 0.358179 0.500000 0.500000
O O10 0.500000 0.535794 0.360027
O O11 0.406009 0.500000 0.000000
#
# Coordination Sequence:
#
# PCOD9480056 Si02
#       4
#    16  16  16  16
#     4  10  21  38  61  87 117 159 216 278 334 394
#     4  11  22  39  64  91 125 171 220 267 322 395
#     4  12  25  40  60  91 131 171 215 270 335 399
#     4   9  17  31  55  89 122 153 201 262 312 362
#
# _framework density 24.592237000000001
#
# number of rings (size 3 to 8) (size 9 to 14) (size 15 to 20)
#    0.000    1.500    0.000    6.000    0.000    7.000 
#    0.000    0.000    0.000    4.500    0.000    0.000 
#    0.000    0.000    0.000    0.000    0.000   37.750 
#
# Total GULP energy -178829.421221 kJ/mol
# GULP energy per Si atom -5588.419413 kJ/mol
# Density = 2.453626 g / cm^3
# Si number density = 24.592237 Si / 1000 Ang^3
#
#
#
# Elastic Constant Matrix: (Units=GPa)
#
#
# Indices 1 2 3 4 5 6 
#
# 1 74.4808 40.9052 33.7818 0.0000 0.0000 0.0000
# 2 40.9052 135.7936 52.3410 0.0000 0.0000 0.0000
# 3 33.7818 52.3410 152.6084 0.0000 0.0000 0.0000
# 4 0.0000 0.0000 0.0000 52.0074 0.0000 0.0000
# 5 0.0000 0.0000 0.0000 0.0000 13.2315 0.0000
# 6 0.0000 0.0000 0.0000 0.0000 0.0000 17.3858
#
#
#
# Elastic Compliance Matrix: (Units=1/GPa)
#
#
# Indices 1 2 3 4 5 6 
#
# 1 0.016748 -0.004167 -0.002278 0.000000 0.000000 0.000000
# 2 -0.004167 0.009523 -0.002344 0.000000 0.000000 0.000000
# 3 -0.002278 -0.002344 0.007861 0.000000 0.000000 0.000000
# 4 0.000000 0.000000 0.000000 0.019228 0.000000 0.000000
# 5 0.000000 0.000000 0.000000 0.000000 0.075577 0.000000
# 6 0.000000 0.000000 0.000000 0.000000 0.000000 0.057518
#
#
# Mechanical properties :
#
#
# Convention : Reuss Voigt Hill
#
# Bulk Modulus (GPa) = 60.40832 68.54875 64.47853
# Shear Modulus (GPa) = 23.86058 32.24859 28.05459
#
# Velocity S-wave (km/s) = 3.11826 3.62516 3.38122
# Velocity P-wave (km/s) = 6.13042 6.74218 6.44357
#
# Compressibility (1/GPa) = 0.01655401
#
# Stress axis : x y z
#
# Youngs Moduli (GPa) = 59.70824 105.01264 127.21265
#
# Poissons Ratio (x) = 0.43758 0.28982
# Poissons Ratio (y) = 0.24880 0.29814
# Poissons Ratio (z) = 0.13603 0.24611
#
# Static dielectric constant tensor:
#      x y z
#    x 2.081620 0.000000 0.000000 
#    y 0.000000 2.003550 0.000000 
#    z 0.000000 0.000000 1.886090 
# 
# From -- ./inp_files/1303.got.cif
#   From: 2010.05.17/outbox.cif.g08.bks.cpg/sg64_1_cif.got.tgz:1303.got - 2010.06.03 16:29:19.
