data_PCOD9480377
_publ_section_title
;
Structure prediction by ZEFSAII (Michael W. Deem and Ramdas Pophale) SiO2 
 PCOD9480377
Probable space group: C M C A
;
_chemical_formula_sum "Si O2"
_cell_formula_units_Z 112
_cell_length_a 28.425787
_cell_length_b 14.574029
_cell_length_c 13.964808
_cell_angle_alpha 90.000000
_cell_angle_beta 90.000000
_cell_angle_gamma 90.000000
_cell_volume 5785.316137
_symmetry_space_group_name_H-M "C M C A"
_symmetry_group_IT_number 64
_symmetry_cell_setting 'orthorhombic'
loop_
_space_group_symop_operation_xyz
x,y,z
-x,1/2-y,1/2+z
x,-y,-z
-x,1/2+y,1/2-z
-x,-y,-z
x,1/2+y,1/2-z
-x,y,z
x,1/2-y,1/2+z
1/2+x,1/2+y,z
1/2-x,-y,1/2+z
1/2+x,1/2-y,-z
1/2-x,y,1/2-z
1/2-x,1/2-y,-z
1/2+x,y,1/2-z
1/2-x,1/2+y,z
1/2+x,-y,1/2+z
loop_
_atom_site_type_symbol
_atom_site_label
_atom_site_fract_x
_atom_site_fract_y
_atom_site_fract_z
Si Si1 0.893441 0.186716 0.283827
Si Si2 0.208481 0.466295 0.892097
Si Si3 0.555945 0.393938 0.529375
Si Si4 0.944885 0.348482 0.181504
Si Si5 0.626309 0.995425 0.258381
Si Si6 0.800456 0.935310 0.093056
Si Si7 0.211578 0.240419 0.335744
O O1 0.913110 0.146191 0.384403
O O2 0.928144 0.261101 0.240644
O O3 0.889526 0.097871 0.216171
O O4 0.841458 0.230293 0.293867
O O5 0.164866 0.490823 0.825306
O O6 0.254965 0.518878 0.858117
O O7 0.219088 0.357935 0.886155
O O8 0.199016 0.500000 0.000000
O O9 0.566119 0.500000 0.500000
O O10 0.500000 0.389912 0.553568
O O11 0.564766 0.338108 0.431714
O O12 0.916024 0.434953 0.220141
O O13 0.000000 0.365277 0.191862
O O14 0.653145 0.947347 0.344526
O O15 0.788920 0.826948 0.092104
O O16 0.805808 0.000000 0.000000
O O17 0.250000 0.252198 0.250000
#
# Coordination Sequence:
#
# PCOD9480377 Si02
#       7
#    16  16  16  16  16  16  16
#     4  11  23  39  68  95 130 174 215 270 338 398
#     4  10  23  39  64  97 129 166 215 267 327 394
#     4  10  21  40  67  96 127 164 219 280 328 389
#     4  11  24  40  65  99 128 170 220 277 338 393
#     4  11  22  41  64  92 129 173 215 275 324 400
#     4  11  24  43  63  92 132 175 219 270 328 393
#     4  11  23  41  66  95 131 176 221 271 325 394
#
# _framework density 19.359358
#
# number of rings (size 3 to 8) (size 9 to 14) (size 15 to 20)
#    0.000    1.286    2.857    3.429    4.000    4.000 
#    0.000    0.000    0.000    0.429    0.000    0.000 
#    0.000    0.000    0.000    0.000    0.000    0.000 
#
# Total GULP energy -312677.496574 kJ/mol
# GULP energy per Si atom -5583.526725 kJ/mol
# Density = 1.931530 g / cm^3
# Si number density = 19.359358 Si / 1000 Ang^3
#
#
#
# Elastic Constant Matrix: (Units=GPa)
#
#
# Indices 1 2 3 4 5 6 
#
# 1 99.2222 33.1108 33.7842 0.0000 0.0000 0.0000
# 2 33.1108 131.6627 30.7737 0.0000 0.0000 0.0000
# 3 33.7842 30.7737 77.2975 0.0000 0.0000 0.0000
# 4 0.0000 0.0000 0.0000 29.2629 0.0000 0.0000
# 5 0.0000 0.0000 0.0000 0.0000 16.6234 0.0000
# 6 0.0000 0.0000 0.0000 0.0000 0.0000 31.0372
#
#
#
# Elastic Compliance Matrix: (Units=1/GPa)
#
#
# Indices 1 2 3 4 5 6 
#
# 1 0.012312 -0.002027 -0.004574 0.000000 0.000000 0.000000
# 2 -0.002027 0.008708 -0.002581 0.000000 0.000000 0.000000
# 3 -0.004574 -0.002581 0.015964 0.000000 0.000000 0.000000
# 4 0.000000 0.000000 0.000000 0.034173 0.000000 0.000000
# 5 0.000000 0.000000 0.000000 0.000000 0.060156 0.000000
# 6 0.000000 0.000000 0.000000 0.000000 0.000000 0.032219
#
#
# Mechanical properties :
#
#
# Convention : Reuss Voigt Hill
#
# Bulk Modulus (GPa) = 53.70667 55.94665 54.82666
# Shear Modulus (GPa) = 26.58101 29.41895 27.99998
#
# Velocity S-wave (km/s) = 3.70946 3.90246 3.80719
# Velocity P-wave (km/s) = 6.79331 7.01907 6.90711
#
# Compressibility (1/GPa) = 0.01861966
#
# Stress axis : x y z
#
# Youngs Moduli (GPa) = 81.21911 114.83428 62.64179
#
# Poissons Ratio (x) = 0.23279 0.28654
# Poissons Ratio (y) = 0.16465 0.16167
# Poissons Ratio (z) = 0.37152 0.29637
#
# Static dielectric constant tensor:
#      x y z
#    x 1.679630 0.000000 0.000000 
#    y 0.000000 1.687460 0.000000 
#    z 0.000000 0.000000 1.686380 
# 
# From -- ./inp_files/28076.got.cif
#   From: 2010.05.17/outbox.cif.g08.bks.cpg/sg64_15_cif.got.tgz:28076.got - 2010.06.03 16:29:19.
