data_PCOD9480847
_publ_section_title
;
Structure prediction by ZEFSAII (Michael W. Deem and Ramdas Pophale) SiO2 
 PCOD9480847
Probable space group: C M C A
;
_chemical_formula_sum "Si O2"
_cell_formula_units_Z 112
_cell_length_a 13.856707
_cell_length_b 23.118581
_cell_length_c 14.701707
_cell_angle_alpha 90.000000
_cell_angle_beta 90.000000
_cell_angle_gamma 90.000000
_cell_volume 4709.653660
_symmetry_space_group_name_H-M "C M C A"
_symmetry_group_IT_number 64
_symmetry_cell_setting 'orthorhombic'
loop_
_space_group_symop_operation_xyz
x,y,z
-x,1/2-y,1/2+z
x,-y,-z
-x,1/2+y,1/2-z
-x,-y,-z
x,1/2+y,1/2-z
-x,y,z
x,1/2-y,1/2+z
1/2+x,1/2+y,z
1/2-x,-y,1/2+z
1/2+x,1/2-y,-z
1/2-x,y,1/2-z
1/2-x,1/2-y,-z
1/2+x,y,1/2-z
1/2-x,1/2+y,z
1/2+x,-y,1/2+z
loop_
_atom_site_type_symbol
_atom_site_label
_atom_site_fract_x
_atom_site_fract_y
_atom_site_fract_z
Si Si1 0.759027 0.877592 0.923679
Si Si2 0.613514 0.729999 0.015151
Si Si3 0.386668 0.014551 0.392778
Si Si4 0.383930 0.794798 0.187179
Si Si5 0.112333 0.417126 0.256996
Si Si6 0.612383 0.700036 0.330477
Si Si7 0.892955 0.938461 0.451092
O O1 0.827177 0.827193 0.962765
O O2 0.823650 0.928271 0.881335
O O3 0.684225 0.851412 0.851486
O O4 0.692522 0.902735 0.004298
O O5 0.500000 0.718205 0.031548
O O6 0.646024 0.780860 0.084513
O O7 0.621930 0.754880 0.914284
O O8 0.500000 0.024419 0.369436
O O9 0.382336 0.000000 0.500000
O O10 0.348135 0.960614 0.332827
O O11 0.500000 0.801133 0.185201
O O12 0.350125 0.852384 0.238309
O O13 0.362535 0.736733 0.242002
O O14 0.116485 0.445263 0.156997
O O15 0.000000 0.409912 0.283954
O O16 0.500000 0.681954 0.325855
O O17 0.000000 0.911021 0.466287
O O18 0.892522 0.000000 0.500000
#
# Coordination Sequence:
#
# PCOD9480847 Si02
#       7
#    16  16  16  16  16  16  16
#     4  12  23  40  65  98 142 176 220 281 345 412
#     4  10  22  41  65  97 139 181 221 282 348 410
#     4  10  23  43  70 104 138 179 227 281 347 409
#     4   9  19  39  67  97 127 171 228 275 336 410
#     4   9  19  41  73  99 128 176 232 285 337 402
#     4  10  22  40  65  96 133 179 226 276 338 407
#     4  10  22  44  70  97 133 180 232 280 334 404
#
# _framework density 23.780942
#
# number of rings (size 3 to 8) (size 9 to 14) (size 15 to 20)
#    0.000    2.000    0.000    2.571    2.000    2.857 
#    5.143    2.143    0.000    0.000    0.000    1.000 
#    0.000    0.000    0.000    0.000    0.000    0.000 
#
# Total GULP energy -313569.078578 kJ/mol
# GULP energy per Si atom -5599.447832 kJ/mol
# Density = 2.372682 g / cm^3
# Si number density = 23.780942 Si / 1000 Ang^3
#
#
#
# Elastic Constant Matrix: (Units=GPa)
#
#
# Indices 1 2 3 4 5 6 
#
# 1 113.0723 19.5985 -9.8366 0.0000 0.0000 0.0000
# 2 19.5985 60.1225 -6.8966 0.0000 0.0000 0.0000
# 3 -9.8366 -6.8966 55.8961 0.0000 0.0000 0.0000
# 4 0.0000 0.0000 0.0000 36.0837 0.0000 0.0000
# 5 0.0000 0.0000 0.0000 0.0000 3507.5156 0.0000
# 6 0.0000 0.0000 0.0000 0.0000 0.0000 -97.7571
#
#
#
# Elastic Compliance Matrix: (Units=1/GPa)
#
#
# Indices 1 2 3 4 5 6 
#
# 1 0.009466 -0.002936 0.001304 0.000000 0.000000 0.000000
# 2 -0.002936 0.017782 0.001677 0.000000 0.000000 0.000000
# 3 0.001304 0.001677 0.018327 0.000000 0.000000 0.000000
# 4 0.000000 0.000000 0.000000 0.027713 0.000000 0.000000
# 5 0.000000 0.000000 0.000000 0.000000 0.000285 0.000000
# 6 0.000000 0.000000 0.000000 0.000000 0.000000 -0.010229
#
#
# Mechanical properties :
#
#
# Convention : Reuss Voigt Hill
#
# Bulk Modulus (GPa) = 21.89885 26.09128 23.99507
# Shear Modulus (GPa) = 63.71344 704.25014 383.98179
#
# Velocity S-wave (km/s) = 5.18170 17.22740 12.72072
# Velocity P-wave (km/s) = 6.71033 20.16697 15.02889
#
# Compressibility (1/GPa) = 0.04566449
#
# Stress axis : x y z
#
# Youngs Moduli (GPa) = 105.63864 56.23586 54.56520
#
# Poissons Ratio (x) = 0.16512 -0.07113
# Poissons Ratio (y) = 0.31018 -0.09152
# Poissons Ratio (z) = -0.13771 -0.09432
#
# Static dielectric constant tensor:
#      x y z
#    x 1.944060 0.000000 0.000000 
#    y 0.000000 1.808110 0.000000 
#    z 0.000000 0.000000 1.870390 
# 
# From -- ./inp_files/24276.got.cif
#   From: 2010.05.17/outbox.cif.g08.bks.cpg/sg64_13_cif.got.tgz:24276.got - 2010.06.03 16:29:19.
