data_PCOD9480648
_publ_section_title
;
Structure prediction by ZEFSAII (Michael W. Deem and Ramdas Pophale) SiO2 
 PCOD9480648
Probable space group: C M C A
;
_chemical_formula_sum "Si O2"
_cell_formula_units_Z 72
_cell_length_a 16.591938
_cell_length_b 14.555863
_cell_length_c 15.139255
_cell_angle_alpha 90.000000
_cell_angle_beta 90.000000
_cell_angle_gamma 90.000000
_cell_volume 3656.281118
_symmetry_space_group_name_H-M "C M C A"
_symmetry_group_IT_number 64
_symmetry_cell_setting 'orthorhombic'
loop_
_space_group_symop_operation_xyz
x,y,z
-x,1/2-y,1/2+z
x,-y,-z
-x,1/2+y,1/2-z
-x,-y,-z
x,1/2+y,1/2-z
-x,y,z
x,1/2-y,1/2+z
1/2+x,1/2+y,z
1/2-x,-y,1/2+z
1/2+x,1/2-y,-z
1/2-x,y,1/2-z
1/2-x,1/2-y,-z
1/2+x,y,1/2-z
1/2-x,1/2+y,z
1/2+x,-y,1/2+z
loop_
_atom_site_type_symbol
_atom_site_label
_atom_site_fract_x
_atom_site_fract_y
_atom_site_fract_z
Si Si1 0.750000 0.995039 0.750000
Si Si2 0.500000 0.599732 0.791798
Si Si3 0.358075 0.364693 0.345768
Si Si4 0.500000 0.704019 0.329498
Si Si5 0.500000 0.892581 0.015981
Si Si6 0.500000 0.569009 0.082015
Si Si7 0.867132 0.661262 0.318767
O O1 0.710706 0.060519 0.825473
O O2 0.812110 0.924921 0.795661
O O3 0.421662 0.613106 0.732082
O O4 0.500000 0.688240 0.854302
O O5 0.500000 0.501642 0.835804
O O6 0.417745 0.369743 0.430215
O O7 0.326782 0.260045 0.337556
O O8 0.500000 0.651098 0.419985
O O9 0.575194 0.679814 0.265946
O O10 0.500000 0.000000 0.000000
O O11 0.577209 0.633206 0.097838
O O12 0.500000 0.500000 0.000000
#
# Coordination Sequence:
#
# PCOD9480648 Si02
#       7
#     8   8  16   8   8   8  16
#     4  12  20  38  64  80 122 168 196 224 298 368
#     4   9  18  37  59  84 110 151 194 240 297 340
#     4  10  22  38  60  89 118 152 198 244 289 353
#     4   9  20  37  63  86 115 147 195 250 295 340
#     4  11  21  36  64  92 115 148 199 253 293 339
#     4  11  21  36  64  86 114 150 200 248 290 341
#     4  10  22  40  61  87 120 159 196 241 298 349
#
# _framework density 19.692139999999998
#
# number of rings (size 3 to 8) (size 9 to 14) (size 15 to 20)
#    0.000    1.778    2.222    4.000    6.222    0.000 
#    0.000    3.333    0.000    9.333    0.000    0.000 
#    0.000    0.000    0.000    0.000    0.000    0.000 
#
# Total GULP energy -200719.766649 kJ/mol
# GULP energy per Si atom -5575.549074 kJ/mol
# Density = 1.964732 g / cm^3
# Si number density = 19.692140 Si / 1000 Ang^3
#
#
#
# Elastic Constant Matrix: (Units=GPa)
#
#
# Indices 1 2 3 4 5 6 
#
# 1 69.1694 41.1535 4.3957 0.0000 0.0000 0.0000
# 2 41.1535 158.5388 17.6172 0.0000 0.0000 0.0000
# 3 4.3957 17.6172 55.8041 0.0000 0.0000 0.0000
# 4 0.0000 0.0000 0.0000 30.5905 0.0000 0.0000
# 5 0.0000 0.0000 0.0000 0.0000 3.2699 0.0000
# 6 0.0000 0.0000 0.0000 0.0000 0.0000 57.1823
#
#
#
# Elastic Compliance Matrix: (Units=1/GPa)
#
#
# Indices 1 2 3 4 5 6 
#
# 1 0.017098 -0.004445 0.000056 0.000000 0.000000 0.000000
# 2 -0.004445 0.007692 -0.002078 0.000000 0.000000 0.000000
# 3 0.000056 -0.002078 0.018572 0.000000 0.000000 0.000000
# 4 0.000000 0.000000 0.000000 0.032690 0.000000 0.000000
# 5 0.000000 0.000000 0.000000 0.000000 0.305821 0.000000
# 6 0.000000 0.000000 0.000000 0.000000 0.000000 0.017488
#
#
# Mechanical properties :
#
#
# Convention : Reuss Voigt Hill
#
# Bulk Modulus (GPa) = 32.86373 45.53835 39.20104
# Shear Modulus (GPa) = 11.83609 32.89827 22.36718
#
# Velocity S-wave (km/s) = 2.45430 4.09177 3.37388
# Velocity P-wave (km/s) = 4.97559 6.74528 5.92686
#
# Compressibility (1/GPa) = 0.03042869
#
# Stress axis : x y z
#
# Youngs Moduli (GPa) = 58.48619 130.00052 53.84593
#
# Poissons Ratio (x) = 0.57780 -0.00303
# Poissons Ratio (y) = 0.25995 0.11191
# Poissons Ratio (z) = -0.00329 0.27018
#
# Static dielectric constant tensor:
#      x y z
#    x 0.821680 0.000000 0.000000 
#    y 0.000000 1.629300 0.000000 
#    z 0.000000 0.000000 1.689120 
# 
# From -- ./inp_files/25188.got.cif
#   From: 2010.05.17/outbox.cif.g08.bks.cpg/sg64_13_cif.got.tgz:25188.got - 2010.06.03 16:29:19.
