data_PCOD9481518
_publ_section_title
;
Structure prediction by ZEFSAII (Michael W. Deem and Ramdas Pophale) SiO2 
 PCOD9481518
Probable space group: C M C A
;
_chemical_formula_sum "Si O2"
_cell_formula_units_Z 72
_cell_length_a 13.249367
_cell_length_b 8.713513
_cell_length_c 30.918888
_cell_angle_alpha 90.000000
_cell_angle_beta 90.000000
_cell_angle_gamma 90.000000
_cell_volume 3569.540218
_symmetry_space_group_name_H-M "C M C A"
_symmetry_group_IT_number 64
_symmetry_cell_setting 'orthorhombic'
loop_
_space_group_symop_operation_xyz
x,y,z
-x,1/2-y,1/2+z
x,-y,-z
-x,1/2+y,1/2-z
-x,-y,-z
x,1/2+y,1/2-z
-x,y,z
x,1/2-y,1/2+z
1/2+x,1/2+y,z
1/2-x,-y,1/2+z
1/2+x,1/2-y,-z
1/2-x,y,1/2-z
1/2-x,1/2-y,-z
1/2+x,y,1/2-z
1/2-x,1/2+y,z
1/2+x,-y,1/2+z
loop_
_atom_site_type_symbol
_atom_site_label
_atom_site_fract_x
_atom_site_fract_y
_atom_site_fract_z
Si Si1 0.684442 0.451427 0.456712
Si Si2 0.000000 0.552073 0.569569
Si Si3 0.674472 0.250300 0.099688
Si Si4 0.000000 0.753771 0.981420
Si Si5 0.250000 0.069322 0.750000
Si Si6 0.624188 0.681001 0.302723
O O1 0.749586 0.500000 0.500000
O O2 0.653676 0.602818 0.430505
O O3 0.730405 0.333227 0.422057
O O4 0.595116 0.355519 0.477766
O O5 0.905034 0.611715 0.595615
O O6 0.000000 0.648702 0.525057
O O7 0.000000 0.375580 0.557570
O O8 0.666660 0.193190 0.148471
O O9 0.327238 0.174552 0.722597
O O10 0.322171 0.964547 0.780036
O O11 0.500000 0.677109 0.302190
#
# Coordination Sequence:
#
# PCOD9481518 Si02
#       6
#    16   8  16   8   8  16
#     4  12  24  40  60  90 128 176 219 270 315 382
#     4  11  23  40  59  88 122 170 219 274 311 377
#     4  12  24  40  64  91 128 165 216 267 323 380
#     4  11  24  39  60  85 123 175 230 261 320 376
#     4  10  24  44  72 102 130 166 214 264 338 414
#     4  11  23  45  71  99 133 170 212 271 334 401
#
# _framework density 20.170663999999999
#
# number of rings (size 3 to 8) (size 9 to 14) (size 15 to 20)
#    0.000    0.667    3.333    5.000    3.111    0.000 
#    0.000    0.000    2.444    0.000    0.000    0.000 
#    0.000    0.000    0.000    0.000    0.000    0.000 
#
# Total GULP energy -200897.698038 kJ/mol
# GULP energy per Si atom -5580.491612 kJ/mol
# Density = 2.012476 g / cm^3
# Si number density = 20.170664 Si / 1000 Ang^3
#
#
#
# Elastic Constant Matrix: (Units=GPa)
#
#
# Indices 1 2 3 4 5 6 
#
# 1 88.2347 19.6415 33.5486 0.0000 0.0000 0.0000
# 2 19.6415 125.2938 51.0716 0.0000 0.0000 0.0000
# 3 33.5486 51.0716 154.3540 0.0000 0.0000 0.0000
# 4 0.0000 0.0000 0.0000 12.5350 0.0000 0.0000
# 5 0.0000 0.0000 0.0000 0.0000 25.7729 0.0000
# 6 0.0000 0.0000 0.0000 0.0000 0.0000 30.7599
#
#
#
# Elastic Compliance Matrix: (Units=1/GPa)
#
#
# Indices 1 2 3 4 5 6 
#
# 1 0.012458 -0.000982 -0.002383 0.000000 0.000000 0.000000
# 2 -0.000982 0.009303 -0.002865 0.000000 0.000000 0.000000
# 3 -0.002383 -0.002865 0.007944 0.000000 0.000000 0.000000
# 4 0.000000 0.000000 0.000000 0.079776 0.000000 0.000000
# 5 0.000000 0.000000 0.000000 0.000000 0.038801 0.000000
# 6 0.000000 0.000000 0.000000 0.000000 0.000000 0.032510
#
#
# Mechanical properties :
#
#
# Convention : Reuss Voigt Hill
#
# Bulk Modulus (GPa) = 57.98225 64.04511 61.01368
# Shear Modulus (GPa) = 25.12571 31.38827 28.25699
#
# Velocity S-wave (km/s) = 3.53321 3.94907 3.74691
# Velocity P-wave (km/s) = 6.74189 7.25355 7.00240
#
# Compressibility (1/GPa) = 0.01724666
#
# Stress axis : x y z
#
# Youngs Moduli (GPa) = 80.26993 107.49428 125.87499
#
# Poissons Ratio (x) = 0.10552 0.29995
# Poissons Ratio (y) = 0.07880 0.36059
# Poissons Ratio (z) = 0.19128 0.30794
#
# Static dielectric constant tensor:
#      x y z
#    x 9.555560 0.000000 0.000000 
#    y 0.000000 1.707200 0.000000 
#    z 0.000000 0.000000 1.730760 
# 
# From -- ./inp_files/49854.got.cif
#   From: 2010.05.17/outbox.cif.g08.bks.cpg/sg64_25_cif.got.tgz:49854.got - 2010.06.03 16:29:19.
