data_PCOD9481233
_publ_section_title
;
Structure prediction by ZEFSAII (Michael W. Deem and Ramdas Pophale) SiO2 
 PCOD9481233
Probable space group: C M C A
;
_chemical_formula_sum "Si O2"
_cell_formula_units_Z 68
_cell_length_a 20.266661
_cell_length_b 13.647977
_cell_length_c 9.224134
_cell_angle_alpha 90.000000
_cell_angle_beta 90.000000
_cell_angle_gamma 90.000000
_cell_volume 2551.385532
_symmetry_space_group_name_H-M "C M C A"
_symmetry_group_IT_number 64
_symmetry_cell_setting 'orthorhombic'
loop_
_space_group_symop_operation_xyz
x,y,z
-x,1/2-y,1/2+z
x,-y,-z
-x,1/2+y,1/2-z
-x,-y,-z
x,1/2+y,1/2-z
-x,y,z
x,1/2-y,1/2+z
1/2+x,1/2+y,z
1/2-x,-y,1/2+z
1/2+x,1/2-y,-z
1/2-x,y,1/2-z
1/2-x,1/2-y,-z
1/2+x,y,1/2-z
1/2-x,1/2+y,z
1/2+x,-y,1/2+z
loop_
_atom_site_type_symbol
_atom_site_label
_atom_site_fract_x
_atom_site_fract_y
_atom_site_fract_z
Si Si1 0.750000 0.876381 0.250000
Si Si2 0.861289 0.381393 0.835079
Si Si3 0.500000 0.000000 0.500000
Si Si4 0.000000 0.680540 0.738870
Si Si5 0.632058 0.262167 0.398027
Si Si6 0.249475 0.000000 0.000000
Si Si7 0.500000 0.904982 0.801713
O O1 0.696117 0.815294 0.165679
O O2 0.713476 0.936698 0.378661
O O3 0.861354 0.346495 0.668543
O O4 0.799026 0.437909 0.896792
O O5 0.929199 0.440543 0.856748
O O6 0.864634 0.282030 0.931513
O O7 0.500000 0.910171 0.371501
O O8 0.500000 0.919152 0.629059
O O9 0.933982 0.686641 0.836974
O O10 0.000000 0.788438 0.665535
#
# Coordination Sequence:
#
# PCOD9481233 Si02
#       7
#     8  16   4   8  16   8   8
#     4  10  24  42  62  96 130 176 232 282 350 426
#     4  10  23  41  67  97 134 179 227 284 358 412
#     4  12  28  42  74 114 140 206 238 282 396 412
#     4  10  25  44  69 107 140 178 241 292 352 427
#     4  10  23  42  68  95 137 182 227 287 355 421
#     4  10  24  42  60  99 128 177 232 286 350 423
#     4  10  25  43  70 105 146 180 239 294 346 441
#
# _framework density 26.652183999999998
#
# number of rings (size 3 to 8) (size 9 to 14) (size 15 to 20)
#    0.000    1.882    0.000    0.706   19.765    8.000 
#    0.000    0.000    0.000    0.000    0.000    0.000 
#    0.000    0.000    0.000    0.000    0.000    0.000 
#
# Total GULP energy -189667.921670 kJ/mol
# GULP energy per Si atom -5578.468284 kJ/mol
# Density = 2.659152 g / cm^3
# Si number density = 26.652184 Si / 1000 Ang^3
#
#
#
# Elastic Constant Matrix: (Units=GPa)
#
#
# Indices 1 2 3 4 5 6 
#
# 1 59.1209 -6.2009 4.3350 0.0000 0.0000 0.0000
# 2 -6.2009 73.4400 6.1796 0.0000 0.0000 0.0000
# 3 4.3350 6.1796 106.0151 0.0000 0.0000 0.0000
# 4 0.0000 0.0000 0.0000 43.1463 0.0000 0.0000
# 5 0.0000 0.0000 0.0000 0.0000 13.4341 0.0000
# 6 0.0000 0.0000 0.0000 0.0000 0.0000 -23.8379
#
#
#
# Elastic Compliance Matrix: (Units=1/GPa)
#
#
# Indices 1 2 3 4 5 6 
#
# 1 0.017131 0.001513 -0.000789 0.000000 0.000000 0.000000
# 2 0.001513 0.013817 -0.000867 0.000000 0.000000 0.000000
# 3 -0.000789 -0.000867 0.009515 0.000000 0.000000 0.000000
# 4 0.000000 0.000000 0.000000 0.023177 0.000000 0.000000
# 5 0.000000 0.000000 0.000000 0.000000 0.074437 0.000000
# 6 0.000000 0.000000 0.000000 0.000000 0.000000 -0.041950
#
#
# Mechanical properties :
#
#
# Convention : Reuss Voigt Hill
#
# Bulk Modulus (GPa) = 24.88958 27.46704 26.17831
# Shear Modulus (GPa) = 45.53457 22.16599 33.85028
#
# Velocity S-wave (km/s) = 4.13785 2.88701 3.56768
# Velocity P-wave (km/s) = 5.67345 4.63046 5.17828
#
# Compressibility (1/GPa) = 0.04017745
#
# Stress axis : x y z
#
# Youngs Moduli (GPa) = 58.37369 72.37319 105.09255
#
# Poissons Ratio (x) = -0.10949 0.08288
# Poissons Ratio (y) = -0.08831 0.09114
# Poissons Ratio (z) = 0.04604 0.06277
#
# Static dielectric constant tensor:
#      x y z
#    x 2.092610 0.000000 0.000000 
#    y 0.000000 2.185900 0.000000 
#    z 0.000000 0.000000 2.086780 
# 
# From -- ./inp_files/7914.got.cif
#   From: 2010.05.17/outbox.cif.g08.bks.cpg/sg64_4_cif.got.tgz:7914.got - 2010.06.03 16:29:19.
