data_PCOD9481459
_publ_section_title
;
Structure prediction by ZEFSAII (Michael W. Deem and Ramdas Pophale) SiO2 
 PCOD9481459
Probable space group: C M C A
;
_chemical_formula_sum "Si O2"
_cell_formula_units_Z 56
_cell_length_a 27.199028
_cell_length_b 8.769236
_cell_length_c 10.156671
_cell_angle_alpha 90.000000
_cell_angle_beta 90.000000
_cell_angle_gamma 90.000000
_cell_volume 2422.515291
_symmetry_space_group_name_H-M "C M C A"
_symmetry_group_IT_number 64
_symmetry_cell_setting 'orthorhombic'
loop_
_space_group_symop_operation_xyz
x,y,z
-x,1/2-y,1/2+z
x,-y,-z
-x,1/2+y,1/2-z
-x,-y,-z
x,1/2+y,1/2-z
-x,y,z
x,1/2-y,1/2+z
1/2+x,1/2+y,z
1/2-x,-y,1/2+z
1/2+x,1/2-y,-z
1/2-x,y,1/2-z
1/2-x,1/2-y,-z
1/2+x,y,1/2-z
1/2-x,1/2+y,z
1/2+x,-y,1/2+z
loop_
_atom_site_type_symbol
_atom_site_label
_atom_site_fract_x
_atom_site_fract_y
_atom_site_fract_z
Si Si1 0.441241 0.897364 0.371772
Si Si2 0.221671 0.500000 0.500000
Si Si3 0.389355 0.578362 0.359517
Si Si4 0.208229 0.271684 0.841584
O O1 0.500000 0.899999 0.354230
O O2 0.423130 0.724476 0.388766
O O3 0.429715 0.000000 0.500000
O O4 0.415906 0.966456 0.241637
O O5 0.190386 0.629542 0.571735
O O6 0.258755 0.602901 0.414738
O O7 0.376758 0.500000 0.500000
O O8 0.339469 0.642129 0.291486
O O9 0.250000 0.198752 0.750000
#
# Coordination Sequence:
#
# PCOD9481459 Si02
#       4
#    16   8  16  16
#     4  11  27  49  76 110 150 192 247 318 386 453
#     4  10  24  42  66  96 150 188 242 292 364 424
#     4  12  27  47  78 111 145 201 253 310 379 452
#     4  11  25  43  68 103 147 194 239 304 361 439
#
# _framework density 23.11647
#
# number of rings (size 3 to 8) (size 9 to 14) (size 15 to 20)
#    0.000    0.857    1.429    3.429   10.000    6.857 
#    0.000    0.000    0.000    0.000    0.000    0.000 
#    0.000    0.000    0.000    0.000    0.000    0.000 
#
# Total GULP energy -156629.453935 kJ/mol
# GULP energy per Si atom -5593.909069 kJ/mol
# Density = 2.306386 g / cm^3
# Si number density = 23.116470 Si / 1000 Ang^3
#
#
#
# Elastic Constant Matrix: (Units=GPa)
#
#
# Indices 1 2 3 4 5 6 
#
# 1 103.1272 13.8772 22.0984 0.0000 0.0000 0.0000
# 2 13.8772 123.1178 22.7953 0.0000 0.0000 0.0000
# 3 22.0984 22.7953 62.3346 0.0000 0.0000 0.0000
# 4 0.0000 0.0000 0.0000 38.6836 0.0000 0.0000
# 5 0.0000 0.0000 0.0000 0.0000 30.9882 0.0000
# 6 0.0000 0.0000 0.0000 0.0000 0.0000 32.6033
#
#
#
# Elastic Compliance Matrix: (Units=1/GPa)
#
#
# Indices 1 2 3 4 5 6 
#
# 1 0.010526 -0.000532 -0.003537 0.000000 0.000000 0.000000
# 2 -0.000532 0.008739 -0.003007 0.000000 0.000000 0.000000
# 3 -0.003537 -0.003007 0.018396 0.000000 0.000000 0.000000
# 4 0.000000 0.000000 0.000000 0.025851 0.000000 0.000000
# 5 0.000000 0.000000 0.000000 0.000000 0.032270 0.000000
# 6 0.000000 0.000000 0.000000 0.000000 0.000000 0.030672
#
#
# Mechanical properties :
#
#
# Convention : Reuss Voigt Hill
#
# Bulk Modulus (GPa) = 42.53670 45.12463 43.83066
# Shear Modulus (GPa) = 33.68291 35.77560 34.72926
#
# Velocity S-wave (km/s) = 3.82133 3.93825 3.88023
# Velocity P-wave (km/s) = 6.15720 6.34371 6.25115
#
# Compressibility (1/GPa) = 0.02350911
#
# Stress axis : x y z
#
# Youngs Moduli (GPa) = 95.00036 114.42918 54.35886
#
# Poissons Ratio (x) = 0.06082 0.19229
# Poissons Ratio (y) = 0.05050 0.16348
# Poissons Ratio (z) = 0.33605 0.34413
#
# Static dielectric constant tensor:
#      x y z
#    x 1.835010 0.000000 0.000000 
#    y 0.000000 1.809280 0.000000 
#    z 0.000000 0.000000 -8.819730 
# 
# From -- ./inp_files/18853.got.cif
#   From: 2010.05.17/outbox.cif.g08.bks.cpg/sg64_10_cif.got.tgz:18853.got - 2010.06.03 16:29:19.
