data_PCOD9481000
_publ_section_title
;
Structure prediction by ZEFSAII (Michael W. Deem and Ramdas Pophale) SiO2 
 PCOD9481000
Probable space group: C M C A
;
_chemical_formula_sum "Si O2"
_cell_formula_units_Z 64
_cell_length_a 9.377446
_cell_length_b 22.143410
_cell_length_c 13.586287
_cell_angle_alpha 90.000000
_cell_angle_beta 90.000000
_cell_angle_gamma 90.000000
_cell_volume 2821.173903
_symmetry_space_group_name_H-M "C M C A"
_symmetry_group_IT_number 64
_symmetry_cell_setting 'orthorhombic'
loop_
_space_group_symop_operation_xyz
x,y,z
-x,1/2-y,1/2+z
x,-y,-z
-x,1/2+y,1/2-z
-x,-y,-z
x,1/2+y,1/2-z
-x,y,z
x,1/2-y,1/2+z
1/2+x,1/2+y,z
1/2-x,-y,1/2+z
1/2+x,1/2-y,-z
1/2-x,y,1/2-z
1/2-x,1/2-y,-z
1/2+x,y,1/2-z
1/2-x,1/2+y,z
1/2+x,-y,1/2+z
loop_
_atom_site_type_symbol
_atom_site_label
_atom_site_fract_x
_atom_site_fract_y
_atom_site_fract_z
Si Si1 0.500000 0.028802 0.805851
Si Si2 0.763523 0.046297 0.413857
Si Si3 0.000000 0.623123 0.977109
Si Si4 0.000000 0.740601 0.873140
Si Si5 0.750000 0.682202 0.750000
Si Si6 0.500000 0.382451 0.905372
Si Si7 0.500000 0.389209 0.139857
O O1 0.500000 0.092123 0.868265
O O2 0.500000 0.046078 0.692716
O O3 0.636938 0.992548 0.842517
O O4 0.864558 0.095531 0.467519
O O5 0.637699 0.083381 0.365311
O O6 0.715244 0.000000 0.500000
O O7 0.000000 0.694947 0.966362
O O8 0.858228 0.721981 0.813857
O O9 0.000000 0.811316 0.890188
O O10 0.644481 0.643123 0.819963
O O11 0.500000 0.391212 0.023469
#
# Coordination Sequence:
#
# PCOD9481000 Si02
#       7
#     8  16   8   8   8   8   8
#     4   9  18  40  67  92 130 175 222 274 325 384
#     4   9  20  37  63  93 133 174 214 279 324 390
#     4   9  16  36  64  95 126 173 227 265 336 380
#     4  11  23  42  67  98 138 177 219 273 334 400
#     4  10  22  42  66  96 138 174 220 278 326 396
#     4  12  25  38  65 106 139 171 220 273 331 402
#     4  11  23  38  69 105 129 165 227 285 320 382
#
# _framework density 22.685590999999999
#
# number of rings (size 3 to 8) (size 9 to 14) (size 15 to 20)
#    0.000    2.000    2.500    3.375    3.500    4.000 
#    0.000    3.750   11.000    0.000    0.000    0.000 
#    0.000    0.000    0.000    0.000    0.000    0.000 
#
# Total GULP energy -179229.363110 kJ/mol
# GULP energy per Si atom -5600.917597 kJ/mol
# Density = 2.263396 g / cm^3
# Si number density = 22.685591 Si / 1000 Ang^3
#
#
#
# Elastic Constant Matrix: (Units=GPa)
#
#
# Indices 1 2 3 4 5 6 
#
# 1 142.3570 71.1366 15.9845 0.0000 0.0000 0.0000
# 2 71.1366 178.0467 24.7177 0.0000 0.0000 0.0000
# 3 15.9845 24.7177 65.7612 0.0000 0.0000 0.0000
# 4 0.0000 0.0000 0.0000 27.1011 0.0000 0.0000
# 5 0.0000 0.0000 0.0000 0.0000 13.6668 0.0000
# 6 0.0000 0.0000 0.0000 0.0000 0.0000 13.4012
#
#
#
# Elastic Compliance Matrix: (Units=1/GPa)
#
#
# Indices 1 2 3 4 5 6 
#
# 1 0.008823 -0.003405 -0.000865 0.000000 0.000000 0.000000
# 2 -0.003405 0.007240 -0.001894 0.000000 0.000000 0.000000
# 3 -0.000865 -0.001894 0.016128 0.000000 0.000000 0.000000
# 4 0.000000 0.000000 0.000000 0.036899 0.000000 0.000000
# 5 0.000000 0.000000 0.000000 0.000000 0.073170 0.000000
# 6 0.000000 0.000000 0.000000 0.000000 0.000000 0.074620
#
#
# Mechanical properties :
#
#
# Convention : Reuss Voigt Hill
#
# Bulk Modulus (GPa) = 50.34077 67.76028 59.05052
# Shear Modulus (GPa) = 21.20178 29.12224 25.16201
#
# Velocity S-wave (km/s) = 3.06043 3.58681 3.33402
# Velocity P-wave (km/s) = 5.89297 6.86205 6.39589
#
# Compressibility (1/GPa) = 0.01986462
#
# Stress axis : x y z
#
# Youngs Moduli (GPa) = 113.33642 138.12360 62.00222
#
# Poissons Ratio (x) = 0.47034 0.05362
# Poissons Ratio (y) = 0.38593 0.11741
# Poissons Ratio (z) = 0.09801 0.26155
#
# Static dielectric constant tensor:
#      x y z
#    x 1.879360 0.000000 0.000000 
#    y 0.000000 1.806920 0.000000 
#    z 0.000000 0.000000 1.859470 
# 
# From -- ./inp_files/20970.got.cif
#   From: 2010.05.17/outbox.cif.g08.bks.cpg/sg64_11_cif.got.tgz:20970.got - 2010.06.03 16:29:19.
