data_PCOD9481926
_publ_section_title
;
Structure prediction by ZEFSAII (Michael W. Deem and Ramdas Pophale) SiO2 
 PCOD9481926
Probable space group: C M C A
;
_chemical_formula_sum "Si O2"
_cell_formula_units_Z 64
_cell_length_a 9.921914
_cell_length_b 21.869439
_cell_length_c 13.339359
_cell_angle_alpha 90.000000
_cell_angle_beta 90.000000
_cell_angle_gamma 90.000000
_cell_volume 2894.463396
_symmetry_space_group_name_H-M "C M C A"
_symmetry_group_IT_number 64
_symmetry_cell_setting 'orthorhombic'
loop_
_space_group_symop_operation_xyz
x,y,z
-x,1/2-y,1/2+z
x,-y,-z
-x,1/2+y,1/2-z
-x,-y,-z
x,1/2+y,1/2-z
-x,y,z
x,1/2-y,1/2+z
1/2+x,1/2+y,z
1/2-x,-y,1/2+z
1/2+x,1/2-y,-z
1/2-x,y,1/2-z
1/2-x,1/2-y,-z
1/2+x,y,1/2-z
1/2-x,1/2+y,z
1/2+x,-y,1/2+z
loop_
_atom_site_type_symbol
_atom_site_label
_atom_site_fract_x
_atom_site_fract_y
_atom_site_fract_z
Si Si1 0.500000 0.147950 0.079921
Si Si2 0.000000 0.649934 0.301165
Si Si3 0.230080 0.428395 0.607864
Si Si4 0.250000 0.665233 0.750000
Si Si5 0.350798 0.943901 0.383305
Si Si6 0.000000 0.778555 0.371059
O O1 0.500000 0.179301 0.189812
O O2 0.632002 0.105799 0.083950
O O3 0.500000 0.189125 0.980235
O O4 0.131475 0.608328 0.318308
O O5 0.000000 0.705437 0.379227
O O6 0.248340 0.499290 0.637929
O O7 0.153983 0.431948 0.501474
O O8 0.316675 0.618664 0.828837
O O9 0.366128 0.702145 0.691327
O O10 0.500000 0.964594 0.353080
#
# Coordination Sequence:
#
# PCOD9481926 Si02
#       6
#     8   8  16   8  16   8
#     4  12  28  46  67 115 141 179 244 299 350 416
#     4  12  28  48  74 101 144 196 239 288 357 423
#     4  11  24  45  72 106 142 184 237 296 361 413
#     4  12  26  46  72 104 142 198 232 288 364 430
#     4  11  22  43  74 105 145 186 237 298 359 431
#     4  12  30  50  70 104 148 194 240 288 347 430
#
# _framework density 22.111179
#
# number of rings (size 3 to 8) (size 9 to 14) (size 15 to 20)
#    0.000    0.500    6.250    1.500    7.000    6.000 
#    0.000    0.000    0.000    0.000    0.000    0.000 
#    0.000    0.000    0.000    0.000    0.000    0.000 
#
# Total GULP energy -178938.712158 kJ/mol
# GULP energy per Si atom -5591.834755 kJ/mol
# Density = 2.206085 g / cm^3
# Si number density = 22.111179 Si / 1000 Ang^3
#
#
#
# Elastic Constant Matrix: (Units=GPa)
#
#
# Indices 1 2 3 4 5 6 
#
# 1 126.6803 33.2598 16.0714 0.0000 0.0000 0.0000
# 2 33.2598 88.4961 11.5879 0.0000 0.0000 0.0000
# 3 16.0714 11.5879 110.2956 0.0000 0.0000 0.0000
# 4 0.0000 0.0000 0.0000 24.1157 0.0000 0.0000
# 5 0.0000 0.0000 0.0000 0.0000 16.7565 0.0000
# 6 0.0000 0.0000 0.0000 0.0000 0.0000 -13.7307
#
#
#
# Elastic Compliance Matrix: (Units=1/GPa)
#
#
# Indices 1 2 3 4 5 6 
#
# 1 0.008856 -0.003203 -0.000954 0.000000 0.000000 0.000000
# 2 -0.003203 0.012616 -0.000859 0.000000 0.000000 0.000000
# 3 -0.000954 -0.000859 0.009296 0.000000 0.000000 0.000000
# 4 0.000000 0.000000 0.000000 0.041467 0.000000 0.000000
# 5 0.000000 0.000000 0.000000 0.000000 0.059678 0.000000
# 6 0.000000 0.000000 0.000000 0.000000 0.000000 -0.072829
#
#
# Mechanical properties :
#
#
# Convention : Reuss Voigt Hill
#
# Bulk Modulus (GPa) = 48.22536 49.70114 48.96325
# Shear Modulus (GPa) = 65.76548 23.06516 44.41532
#
# Velocity S-wave (km/s) = 5.45964 3.23328 4.48674
# Velocity P-wave (km/s) = 7.84865 6.03866 7.00238
#
# Compressibility (1/GPa) = 0.02073598
#
# Stress axis : x y z
#
# Youngs Moduli (GPa) = 112.91823 79.26222 107.57605
#
# Poissons Ratio (x) = 0.25391 0.10261
# Poissons Ratio (y) = 0.36173 0.09238
# Poissons Ratio (z) = 0.10771 0.06806
#
# Static dielectric constant tensor:
#      x y z
#    x 1.811490 0.000000 0.000000 
#    y 0.000000 1.758640 0.000000 
#    z 0.000000 0.000000 1.855450 
# 
# From -- ./inp_files/20964.got.cif
#   From: 2010.05.17/outbox.cif.g08.bks.cpg/sg64_11_cif.got.tgz:20964.got - 2010.06.03 16:29:19.
