data_PCOD9481938
_publ_section_title
;
Structure prediction by ZEFSAII (Michael W. Deem and Ramdas Pophale) SiO2 
 PCOD9481938
Probable space group: C M C A
;
_chemical_formula_sum "Si O2"
_cell_formula_units_Z 96
_cell_length_a 19.399137
_cell_length_b 14.959127
_cell_length_c 12.794076
_cell_angle_alpha 90.000000
_cell_angle_beta 90.000000
_cell_angle_gamma 90.000000
_cell_volume 3712.766062
_symmetry_space_group_name_H-M "C M C A"
_symmetry_group_IT_number 64
_symmetry_cell_setting 'orthorhombic'
loop_
_space_group_symop_operation_xyz
x,y,z
-x,1/2-y,1/2+z
x,-y,-z
-x,1/2+y,1/2-z
-x,-y,-z
x,1/2+y,1/2-z
-x,y,z
x,1/2-y,1/2+z
1/2+x,1/2+y,z
1/2-x,-y,1/2+z
1/2+x,1/2-y,-z
1/2-x,y,1/2-z
1/2-x,1/2-y,-z
1/2+x,y,1/2-z
1/2-x,1/2+y,z
1/2+x,-y,1/2+z
loop_
_atom_site_type_symbol
_atom_site_label
_atom_site_fract_x
_atom_site_fract_y
_atom_site_fract_z
Si Si1 0.237103 0.840435 0.128483
Si Si2 0.269023 0.950271 0.626054
Si Si3 0.597985 0.751277 0.332965
Si Si4 0.919988 0.398940 0.662194
Si Si5 0.075092 0.925658 0.301820
Si Si6 0.647335 0.647403 0.499787
O O1 0.250000 0.849331 0.250000
O O2 0.173862 0.774283 0.127175
O O3 0.300744 0.794005 0.071240
O O4 0.223785 0.943992 0.097856
O O5 0.250000 0.943130 0.750000
O O6 0.345540 0.907180 0.603757
O O7 0.201216 0.905462 0.574201
O O8 0.584878 0.687708 0.235318
O O9 0.576720 0.847408 0.286629
O O10 0.583279 0.692149 0.437636
O O11 0.915022 0.483861 0.738808
O O12 0.000000 0.400497 0.615462
O O13 0.122469 0.913416 0.402237
O O14 0.000000 0.925162 0.348504
#
# Coordination Sequence:
#
# PCOD9481938 Si02
#       6
#    16  16  16  16  16  16
#     4  11  23  43  71 108 151 187 245 316 383 445
#     4  11  22  44  74 109 153 191 244 318 380 453
#     4  12  25  44  74 110 149 197 250 323 381 462
#     4  11  25  46  76 107 152 206 246 311 388 459
#     4  11  26  51  73 108 161 203 254 321 387 464
#     4  12  26  42  79 115 144 202 261 317 383 463
#
# _framework density 25.856732999999998
#
# number of rings (size 3 to 8) (size 9 to 14) (size 15 to 20)
#    0.000    0.667    5.000    2.500    4.667    2.667 
#    0.000    1.667    0.000    4.000    0.000    0.000 
#    0.000    0.000    0.000    0.000    0.000    0.000 
#
# Total GULP energy -267487.789404 kJ/mol
# GULP energy per Si atom -5572.662279 kJ/mol
# Density = 2.579788 g / cm^3
# Si number density = 25.856733 Si / 1000 Ang^3
#
#
#
# Elastic Constant Matrix: (Units=GPa)
#
#
# Indices 1 2 3 4 5 6 
#
# 1 167.5447 28.7506 34.1870 0.0000 0.0000 0.0000
# 2 28.7506 122.0543 6.4703 0.0000 0.0000 0.0000
# 3 34.1870 6.4703 91.1803 0.0000 0.0000 0.0000
# 4 0.0000 0.0000 0.0000 23.2428 0.0000 0.0000
# 5 0.0000 0.0000 0.0000 0.0000 6.7308 0.0000
# 6 0.0000 0.0000 0.0000 0.0000 0.0000 -26.3571
#
#
#
# Elastic Compliance Matrix: (Units=1/GPa)
#
#
# Indices 1 2 3 4 5 6 
#
# 1 0.006710 -0.001453 -0.002413 0.000000 0.000000 0.000000
# 2 -0.001453 0.008539 -0.000061 0.000000 0.000000 0.000000
# 3 -0.002413 -0.000061 0.011876 0.000000 0.000000 0.000000
# 4 0.000000 0.000000 0.000000 0.043024 0.000000 0.000000
# 5 0.000000 0.000000 0.000000 0.000000 0.148571 0.000000
# 6 0.000000 0.000000 0.000000 0.000000 0.000000 -0.037940
#
#
# Mechanical properties :
#
#
# Convention : Reuss Voigt Hill
#
# Bulk Modulus (GPa) = 51.89021 57.73278 54.81149
# Shear Modulus (GPa) = 25.63355 21.48140 23.55748
#
# Velocity S-wave (km/s) = 3.15202 2.88546 3.02168
# Velocity P-wave (km/s) = 5.77571 5.78598 5.78085
#
# Compressibility (1/GPa) = 0.01927146
#
# Stress axis : x y z
#
# Youngs Moduli (GPa) = 149.02759 117.11639 84.20144
#
# Poissons Ratio (x) = 0.17014 0.20316
# Poissons Ratio (y) = 0.21649 0.00516
# Poissons Ratio (z) = 0.35958 0.00717
#
# Static dielectric constant tensor:
#      x y z
#    x 2.256980 0.000000 0.000000 
#    y 0.000000 2.450840 0.000000 
#    z 0.000000 0.000000 1.559110 
# 
# From -- ./inp_files/26324.got.cif
#   From: 2010.05.17/outbox.cif.g08.bks.cpg/sg64_14_cif.got.tgz:26324.got - 2010.06.03 16:29:19.
