data_PCOD9481804
_publ_section_title
;
Structure prediction by ZEFSAII (Michael W. Deem and Ramdas Pophale) SiO2 
 PCOD9481804
Probable space group: C M C A
;
_chemical_formula_sum "Si O2"
_cell_formula_units_Z 96
_cell_length_a 16.404689
_cell_length_b 13.919281
_cell_length_c 20.020722
_cell_angle_alpha 90.000000
_cell_angle_beta 90.000000
_cell_angle_gamma 90.000000
_cell_volume 4571.561210
_symmetry_space_group_name_H-M "C M C A"
_symmetry_group_IT_number 64
_symmetry_cell_setting 'orthorhombic'
loop_
_space_group_symop_operation_xyz
x,y,z
-x,1/2-y,1/2+z
x,-y,-z
-x,1/2+y,1/2-z
-x,-y,-z
x,1/2+y,1/2-z
-x,y,z
x,1/2-y,1/2+z
1/2+x,1/2+y,z
1/2-x,-y,1/2+z
1/2+x,1/2-y,-z
1/2-x,y,1/2-z
1/2-x,1/2-y,-z
1/2+x,y,1/2-z
1/2-x,1/2+y,z
1/2+x,-y,1/2+z
loop_
_atom_site_type_symbol
_atom_site_label
_atom_site_fract_x
_atom_site_fract_y
_atom_site_fract_z
Si Si1 0.844309 0.257532 0.723737
Si Si2 0.352937 0.758826 0.439178
Si Si3 0.327445 0.163000 0.421648
Si Si4 0.086837 0.617043 0.160118
Si Si5 0.155316 0.042239 0.734297
Si Si6 0.902197 0.966244 0.117207
O O1 0.750000 0.263308 0.750000
O O2 0.852087 0.305268 0.652117
O O3 0.896692 0.308829 0.780153
O O4 0.871042 0.148366 0.715931
O O5 0.370283 0.786127 0.515486
O O6 0.264777 0.705877 0.429957
O O7 0.409063 0.678529 0.406310
O O8 0.364441 0.860522 0.399865
O O9 0.351428 0.049726 0.421563
O O10 0.149120 0.532211 0.173743
O O11 0.000000 0.569393 0.168253
O O12 0.250000 0.046514 0.750000
O O13 0.110152 0.015442 0.803291
O O14 0.000000 0.967911 0.101983
#
# Coordination Sequence:
#
# PCOD9481804 Si02
#       6
#    16  16  16  16  16  16
#     4  11  21  41  66  94 127 167 223 277 326 390
#     4  11  24  43  64  96 137 178 219 269 342 411
#     4  11  24  42  68  97 132 178 223 271 334 412
#     4  12  23  38  62  93 131 172 213 271 338 395
#     4  11  22  38  66  96 132 173 229 281 333 403
#     4  12  24  42  70 103 135 173 227 296 348 387
#
# _framework density 20.999389999999998
#
# number of rings (size 3 to 8) (size 9 to 14) (size 15 to 20)
#    0.000    0.667    5.000    4.000    0.000    2.667 
#    0.000    2.500    0.000    1.000    0.000    0.000 
#    0.000    0.000    0.000    0.000    0.000    0.000 
#
# Total GULP energy -267764.357354 kJ/mol
# GULP energy per Si atom -5578.424112 kJ/mol
# Density = 2.095159 g / cm^3
# Si number density = 20.999390 Si / 1000 Ang^3
#
#
#
# Elastic Constant Matrix: (Units=GPa)
#
#
# Indices 1 2 3 4 5 6 
#
# 1 58.4042 17.9326 3.4474 0.0000 0.0000 0.0000
# 2 17.9326 100.9652 2.5219 0.0000 0.0000 0.0000
# 3 3.4474 2.5219 80.2508 0.0000 0.0000 0.0000
# 4 0.0000 0.0000 0.0000 -26.3382 0.0000 0.0000
# 5 0.0000 0.0000 0.0000 0.0000 -0.8082 0.0000
# 6 0.0000 0.0000 0.0000 0.0000 0.0000 -882.1178
#
#
#
# Elastic Compliance Matrix: (Units=1/GPa)
#
#
# Indices 1 2 3 4 5 6 
#
# 1 0.018147 -0.003206 -0.000679 0.000000 0.000000 0.000000
# 2 -0.003206 0.010479 -0.000192 0.000000 0.000000 0.000000
# 3 -0.000679 -0.000192 0.012496 0.000000 0.000000 0.000000
# 4 0.000000 0.000000 0.000000 -0.037968 0.000000 0.000000
# 5 0.000000 0.000000 0.000000 0.000000 -1.237325 0.000000
# 6 0.000000 0.000000 0.000000 0.000000 0.000000 -0.001134
#
#
# Mechanical properties :
#
#
# Convention : Reuss Voigt Hill
#
# Bulk Modulus (GPa) = 30.33210 31.93604 31.13407
# Shear Modulus (GPa) = -4.11129 -167.47162 -85.79145
#
# Velocity S-wave (km/s) = -1.40074 -8.94001 -6.39867
# Velocity P-wave (km/s) = 3.44377 9.55636 6.30335
#
# Compressibility (1/GPa) = 0.03296837
#
# Stress axis : x y z
#
# Youngs Moduli (GPa) = 55.10698 95.43239 80.02489
#
# Poissons Ratio (x) = 0.30596 0.05432
# Poissons Ratio (y) = 0.17668 0.01533
# Poissons Ratio (z) = 0.03741 0.01828
#
# Static dielectric constant tensor:
#      x y z
#    x 1.799970 0.000000 0.000000 
#    y 0.000000 1.738140 0.000000 
#    z 0.000000 0.000000 1.757830 
# 
# From -- ./inp_files/39204.got.cif
#   From: 2010.05.17/outbox.cif.g08.bks.cpg/sg64_20_cif.got.tgz:39204.got - 2010.06.03 16:29:19.
