data_PCOD9481467
_publ_section_title
;
Structure prediction by ZEFSAII (Michael W. Deem and Ramdas Pophale) SiO2 
 PCOD9481467
Probable space group: C M C A
;
_chemical_formula_sum "Si O2"
_cell_formula_units_Z 72
_cell_length_a 27.050954
_cell_length_b 7.999412
_cell_length_c 14.315094
_cell_angle_alpha 90.000000
_cell_angle_beta 90.000000
_cell_angle_gamma 90.000000
_cell_volume 3097.667899
_symmetry_space_group_name_H-M "C M C A"
_symmetry_group_IT_number 64
_symmetry_cell_setting 'orthorhombic'
loop_
_space_group_symop_operation_xyz
x,y,z
-x,1/2-y,1/2+z
x,-y,-z
-x,1/2+y,1/2-z
-x,-y,-z
x,1/2+y,1/2-z
-x,y,z
x,1/2-y,1/2+z
1/2+x,1/2+y,z
1/2-x,-y,1/2+z
1/2+x,1/2-y,-z
1/2-x,y,1/2-z
1/2-x,1/2-y,-z
1/2+x,y,1/2-z
1/2-x,1/2+y,z
1/2+x,-y,1/2+z
loop_
_atom_site_type_symbol
_atom_site_label
_atom_site_fract_x
_atom_site_fract_y
_atom_site_fract_z
Si Si1 0.252261 0.000000 0.500000
Si Si2 0.607374 0.312588 0.895073
Si Si3 0.500000 0.097857 0.146881
Si Si4 0.108787 0.547344 0.208773
Si Si5 0.500000 0.734802 0.045742
Si Si6 0.175328 0.769271 0.076235
O O1 0.215630 0.866695 0.543822
O O2 0.288468 0.928935 0.419341
O O3 0.622111 0.448873 0.817862
O O4 0.550830 0.346257 0.923088
O O5 0.638578 0.301461 0.989161
O O6 0.611678 0.130951 0.843543
O O7 0.551386 0.107024 0.202031
O O8 0.500000 0.917820 0.095273
O O9 0.500000 0.233541 0.064771
O O10 0.143667 0.679997 0.156270
#
# Coordination Sequence:
#
# PCOD9481467 Si02
#       6
#     8  16   8  16   8  16
#     4  10  24  42  70  86 116 160 206 266 302 358
#     4  11  22  38  63  93 126 163 202 246 300 365
#     4   9  17  34  61  90 123 164 201 238 293 362
#     4  11  22  38  63  93 126 163 202 246 300 365
#     4   9  17  34  61  90 123 164 201 238 293 362
#     4  11  22  45  65  88 121 160 206 250 315 356
#
# _framework density 23.243293000000001
#
# number of rings (size 3 to 8) (size 9 to 14) (size 15 to 20)
#    0.000    1.556    4.444    0.667    3.111    0.000 
#    0.000    6.667    0.000    2.667    0.000    0.000 
#    0.000    0.000    0.000    0.000    0.000    0.000 
#
# Total GULP energy -201283.799238 kJ/mol
# GULP energy per Si atom -5591.216646 kJ/mol
# Density = 2.319039 g / cm^3
# Si number density = 23.243293 Si / 1000 Ang^3
#
#
#
# Elastic Constant Matrix: (Units=GPa)
#
#
# Indices 1 2 3 4 5 6 
#
# 1 157.4068 18.7914 23.3005 0.0000 0.0000 0.0000
# 2 18.7914 51.2748 -14.7086 0.0000 0.0000 0.0000
# 3 23.3005 -14.7086 71.2647 0.0000 0.0000 0.0000
# 4 0.0000 0.0000 0.0000 25.8662 0.0000 0.0000
# 5 0.0000 0.0000 0.0000 0.0000 33.5662 0.0000
# 6 0.0000 0.0000 0.0000 0.0000 0.0000 42.1334
#
#
#
# Elastic Compliance Matrix: (Units=1/GPa)
#
#
# Indices 1 2 3 4 5 6 
#
# 1 0.007234 -0.003539 -0.003096 0.000000 0.000000 0.000000
# 2 -0.003539 0.022462 0.005793 0.000000 0.000000 0.000000
# 3 -0.003096 0.005793 0.016240 0.000000 0.000000 0.000000
# 4 0.000000 0.000000 0.000000 0.038661 0.000000 0.000000
# 5 0.000000 0.000000 0.000000 0.000000 0.029792 0.000000
# 6 0.000000 0.000000 0.000000 0.000000 0.000000 0.023734
#
#
# Mechanical properties :
#
#
# Convention : Reuss Voigt Hill
#
# Bulk Modulus (GPa) = 22.59777 37.19031 29.89404
# Shear Modulus (GPa) = 32.35086 37.15070 34.75078
#
# Velocity S-wave (km/s) = 3.73478 4.00226 3.87083
# Velocity P-wave (km/s) = 5.32367 6.11495 5.73298
#
# Compressibility (1/GPa) = 0.04425215
#
# Stress axis : x y z
#
# Youngs Moduli (GPa) = 138.24227 44.52056 61.57655
#
# Poissons Ratio (x) = 0.15756 0.19061
# Poissons Ratio (y) = 0.48924 -0.35672
# Poissons Ratio (z) = 0.42793 -0.25791
#
# Static dielectric constant tensor:
#      x y z
#    x 1.826800 0.000000 0.000000 
#    y 0.000000 1.974320 0.000000 
#    z 0.000000 0.000000 1.843660 
# 
# From -- ./inp_files/10060.got.cif
#   From: 2010.05.17/outbox.cif.g08.bks.cpg/sg64_6_cif.got.tgz:10060.got - 2010.06.03 16:29:19.
