data_PCOD9481816
_publ_section_title
;
Structure prediction by ZEFSAII (Michael W. Deem and Ramdas Pophale) SiO2 
 PCOD9481816
Probable space group: C M C A
;
_chemical_formula_sum "Si O2"
_cell_formula_units_Z 56
_cell_length_a 14.597761
_cell_length_b 9.762047
_cell_length_c 14.934852
_cell_angle_alpha 90.000000
_cell_angle_beta 90.000000
_cell_angle_gamma 90.000000
_cell_volume 2128.276582
_symmetry_space_group_name_H-M "C M C A"
_symmetry_group_IT_number 64
_symmetry_cell_setting 'orthorhombic'
loop_
_space_group_symop_operation_xyz
x,y,z
-x,1/2-y,1/2+z
x,-y,-z
-x,1/2+y,1/2-z
-x,-y,-z
x,1/2+y,1/2-z
-x,y,z
x,1/2-y,1/2+z
1/2+x,1/2+y,z
1/2-x,-y,1/2+z
1/2+x,1/2-y,-z
1/2-x,y,1/2-z
1/2-x,1/2-y,-z
1/2+x,y,1/2-z
1/2-x,1/2+y,z
1/2+x,-y,1/2+z
loop_
_atom_site_type_symbol
_atom_site_label
_atom_site_fract_x
_atom_site_fract_y
_atom_site_fract_z
Si Si1 0.899487 0.414795 0.371564
Si Si2 0.250000 0.964071 0.250000
Si Si3 0.347109 0.293400 0.955953
Si Si4 0.105548 0.514979 0.892927
O O1 0.820779 0.372541 0.304958
O O2 0.905250 0.311538 0.453678
O O3 0.860404 0.559691 0.408956
O O4 0.000000 0.434358 0.332306
O O5 0.180948 0.038579 0.321556
O O6 0.383935 0.179725 0.888978
O O7 0.250000 0.250000 0.000000
O O8 0.000000 0.473662 0.877433
O O9 0.127189 0.500000 0.000000
#
# Coordination Sequence:
#
# PCOD9481816 Si02
#       4
#    16   8  16  16
#     4  11  24  43  68  99 135 178 229 281 342 414
#     4  12  24  42  68 100 138 180 238 284 342 408
#     4  11  21  43  71  96 131 177 223 281 347 414
#     4  11  24  45  69  99 140 182 228 287 352 414
#
# _framework density 26.312370999999999
#
# number of rings (size 3 to 8) (size 9 to 14) (size 15 to 20)
#    0.000    0.857    2.857    6.000    0.000    1.143 
#    5.143    0.000    0.000    0.000    0.000    0.000 
#    0.000    0.000    0.000    0.000    0.000    0.000 
#
# Total GULP energy -156350.841524 kJ/mol
# GULP energy per Si atom -5583.958626 kJ/mol
# Density = 2.625248 g / cm^3
# Si number density = 26.312371 Si / 1000 Ang^3
#
#
#
# Elastic Constant Matrix: (Units=GPa)
#
#
# Indices 1 2 3 4 5 6 
#
# 1 271.7226 32.6448 74.2835 0.0000 0.0000 0.0000
# 2 32.6448 77.9823 17.5682 0.0000 0.0000 0.0000
# 3 74.2835 17.5682 149.7499 0.0000 0.0000 0.0000
# 4 0.0000 0.0000 0.0000 19.1866 0.0000 0.0000
# 5 0.0000 0.0000 0.0000 0.0000 35.4698 0.0000
# 6 0.0000 0.0000 0.0000 0.0000 0.0000 17.0800
#
#
#
# Elastic Compliance Matrix: (Units=1/GPa)
#
#
# Indices 1 2 3 4 5 6 
#
# 1 0.004399 -0.001387 -0.002019 0.000000 0.000000 0.000000
# 2 -0.001387 0.013609 -0.000909 0.000000 0.000000 0.000000
# 3 -0.002019 -0.000909 0.007786 0.000000 0.000000 0.000000
# 4 0.000000 0.000000 0.000000 0.052120 0.000000 0.000000
# 5 0.000000 0.000000 0.000000 0.000000 0.028193 0.000000
# 6 0.000000 0.000000 0.000000 0.000000 0.000000 0.058548
#
#
# Mechanical properties :
#
#
# Convention : Reuss Voigt Hill
#
# Bulk Modulus (GPa) = 58.26054 83.16087 70.71070
# Shear Modulus (GPa) = 27.93218 39.34450 33.63834
#
# Velocity S-wave (km/s) = 3.26169 3.87109 3.57938
# Velocity P-wave (km/s) = 6.03115 7.18709 6.63435
#
# Compressibility (1/GPa) = 0.01716428
#
# Stress axis : x y z
#
# Youngs Moduli (GPa) = 227.33163 73.48311 128.43344
#
# Poissons Ratio (x) = 0.10188 0.25936
# Poissons Ratio (y) = 0.31520 0.11671
# Poissons Ratio (z) = 0.45907 0.06678
#
# Static dielectric constant tensor:
#      x y z
#    x 2.037290 0.000000 0.000000 
#    y 0.000000 2.087210 0.000000 
#    z 0.000000 0.000000 2.165650 
# 
# From -- ./inp_files/23013.got.cif
#   From: 2010.05.17/outbox.cif.g08.bks.cpg/sg64_12_cif.got.tgz:23013.got - 2010.06.03 16:29:19.
