data_PCOD9481980
_publ_section_title
;
Structure prediction by ZEFSAII (Michael W. Deem and Ramdas Pophale) SiO2 
 PCOD9481980
Probable space group: C M C A
;
_chemical_formula_sum "Si O2"
_cell_formula_units_Z 80
_cell_length_a 28.752614
_cell_length_b 14.263003
_cell_length_c 7.278185
_cell_angle_alpha 90.000000
_cell_angle_beta 90.000000
_cell_angle_gamma 90.000000
_cell_volume 2984.773623
_symmetry_space_group_name_H-M "C M C A"
_symmetry_group_IT_number 64
_symmetry_cell_setting 'orthorhombic'
loop_
_space_group_symop_operation_xyz
x,y,z
-x,1/2-y,1/2+z
x,-y,-z
-x,1/2+y,1/2-z
-x,-y,-z
x,1/2+y,1/2-z
-x,y,z
x,1/2-y,1/2+z
1/2+x,1/2+y,z
1/2-x,-y,1/2+z
1/2+x,1/2-y,-z
1/2-x,y,1/2-z
1/2-x,1/2-y,-z
1/2+x,y,1/2-z
1/2-x,1/2+y,z
1/2+x,-y,1/2+z
loop_
_atom_site_type_symbol
_atom_site_label
_atom_site_fract_x
_atom_site_fract_y
_atom_site_fract_z
Si Si1 0.049190 0.102983 0.780085
Si Si2 0.448530 0.184480 0.310423
Si Si3 0.150446 0.203619 0.369795
Si Si4 0.853069 0.595726 0.751861
Si Si5 0.717330 0.500000 0.000000
Si Si6 0.250000 0.150614 0.250000
O O1 0.049487 0.133343 0.993746
O O2 0.000000 0.056035 0.740041
O O3 0.051988 0.201504 0.669813
O O4 0.096283 0.048639 0.741831
O O5 0.500000 0.166488 0.221980
O O6 0.398246 0.168557 0.218130
O O7 0.155902 0.143731 0.553884
O O8 0.143530 0.315858 0.388838
O O9 0.200139 0.199978 0.265103
O O10 0.814733 0.527390 0.672386
O O11 0.746384 0.587490 0.067650
#
# Coordination Sequence:
#
# PCOD9481980 Si02
#       6
#    16  16  16  16   8   8
#     4   9  16  29  53  85 121 159 198 245 299 355
#     4   9  16  29  54  88 121 152 196 252 301 347
#     4  11  23  40  65  93 122 162 207 252 298 358
#     4  11  23  40  63  91 125 162 204 252 304 361
#     4  12  26  44  63  88 121 160 200 252 312 368
#     4  12  26  44  66  90 122 160 204 252 306 364
#
# _framework density 26.802702
#
# number of rings (size 3 to 8) (size 9 to 14) (size 15 to 20)
#    0.000    1.600    0.000    8.400    0.000    6.400 
#    0.000    0.500    0.000    1.200    0.000    6.300 
#    0.000    0.000    0.000    0.000    0.000    0.000 
#
# Total GULP energy -223824.443555 kJ/mol
# GULP energy per Si atom -5595.611089 kJ/mol
# Density = 2.674170 g / cm^3
# Si number density = 26.802702 Si / 1000 Ang^3
#
#
#
# Elastic Constant Matrix: (Units=GPa)
#
#
# Indices 1 2 3 4 5 6 
#
# 1 265.7079 35.6067 47.1893 0.0000 0.0000 0.0000
# 2 35.6067 66.1743 -7.4702 0.0000 0.0000 0.0000
# 3 47.1893 -7.4702 80.3472 0.0000 0.0000 0.0000
# 4 0.0000 0.0000 0.0000 30.0365 0.0000 0.0000
# 5 0.0000 0.0000 0.0000 0.0000 34.3237 0.0000
# 6 0.0000 0.0000 0.0000 0.0000 0.0000 -25.7477
#
#
#
# Elastic Compliance Matrix: (Units=1/GPa)
#
#
# Indices 1 2 3 4 5 6 
#
# 1 0.004682 -0.002860 -0.003016 0.000000 0.000000 0.000000
# 2 -0.002860 0.017019 0.003262 0.000000 0.000000 0.000000
# 3 -0.003016 0.003262 0.014521 0.000000 0.000000 0.000000
# 4 0.000000 0.000000 0.000000 0.033293 0.000000 0.000000
# 5 0.000000 0.000000 0.000000 0.000000 0.029134 0.000000
# 6 0.000000 0.000000 0.000000 0.000000 0.000000 -0.038838
#
#
# Mechanical properties :
#
#
# Convention : Reuss Voigt Hill
#
# Bulk Modulus (GPa) = 32.26444 62.54233 47.40338
# Shear Modulus (GPa) = 66.33970 30.18274 48.26122
#
# Velocity S-wave (km/s) = 4.98045 3.35939 4.24796
# Velocity P-wave (km/s) = 6.71841 6.19938 6.46411
#
# Compressibility (1/GPa) = 0.03099387
#
# Stress axis : x y z
#
# Youngs Moduli (GPa) = 213.56500 58.75890 68.86773
#
# Poissons Ratio (x) = 0.16805 0.20770
# Poissons Ratio (y) = 0.61079 -0.22465
# Poissons Ratio (z) = 0.64410 -0.19167
#
# Static dielectric constant tensor:
#      x y z
#    x 2.092660 0.000000 0.000000 
#    y 0.000000 2.033380 0.000000 
#    z 0.000000 0.000000 2.131870 
# 
# From -- ./inp_files/10254.got.cif
#   From: 2010.05.17/outbox.cif.g08.bks.cpg/sg64_6_cif.got.tgz:10254.got - 2010.06.03 16:29:19.
