data_PCOD9481312
_publ_section_title
;
Structure prediction by ZEFSAII (Michael W. Deem and Ramdas Pophale) SiO2 
 PCOD9481312
Probable space group: C M C A
;
_chemical_formula_sum "Si O2"
_cell_formula_units_Z 80
_cell_length_a 8.713990
_cell_length_b 16.096176
_cell_length_c 29.157740
_cell_angle_alpha 90.000000
_cell_angle_beta 90.000000
_cell_angle_gamma 90.000000
_cell_volume 4089.720499
_symmetry_space_group_name_H-M "C M C A"
_symmetry_group_IT_number 64
_symmetry_cell_setting 'orthorhombic'
loop_
_space_group_symop_operation_xyz
x,y,z
-x,1/2-y,1/2+z
x,-y,-z
-x,1/2+y,1/2-z
-x,-y,-z
x,1/2+y,1/2-z
-x,y,z
x,1/2-y,1/2+z
1/2+x,1/2+y,z
1/2-x,-y,1/2+z
1/2+x,1/2-y,-z
1/2-x,y,1/2-z
1/2-x,1/2-y,-z
1/2+x,y,1/2-z
1/2-x,1/2+y,z
1/2+x,-y,1/2+z
loop_
_atom_site_type_symbol
_atom_site_label
_atom_site_fract_x
_atom_site_fract_y
_atom_site_fract_z
Si Si1 0.316939 0.967901 0.856809
Si Si2 0.316800 0.715948 0.547507
Si Si3 0.816323 0.468018 0.448856
Si Si4 0.184927 0.216892 0.360570
Si Si5 0.316167 0.622732 0.800966
O O1 0.500000 0.977977 0.854811
O O2 0.277760 0.874332 0.841175
O O3 0.261205 0.978139 0.909166
O O4 0.240871 0.041112 0.827649
O O5 0.500000 0.712461 0.545095
O O6 0.250000 0.750000 0.500000
O O7 0.247284 0.624852 0.555817
O O8 0.263843 0.771323 0.590292
O O9 0.782065 0.500000 0.500000
O O10 0.000000 0.468350 0.442609
O O11 0.231040 0.293973 0.328488
O O12 0.000000 0.220654 0.366809
O O13 0.500000 0.621492 0.799329
O O14 0.250000 0.623898 0.750000
#
# Coordination Sequence:
#
# PCOD9481312 Si02
#       5
#    16  16  16  16  16
#     4  11  23  41  66  97 130 169 215 267 325 385
#     4  12  24  38  61  91 128 172 217 266 319 383
#     4  11  23  39  60  90 129 172 217 265 320 383
#     4  10  23  43  66  94 132 170 212 267 324 385
#     4  11  24  44  69  95 130 172 216 273 329 386
#
# _framework density 19.561239
#
# number of rings (size 3 to 8) (size 9 to 14) (size 15 to 20)
#    0.000    1.000    2.000    4.800    0.000    8.000 
#    0.000    2.000    0.000    0.000    0.000    0.000 
#    0.000    0.000    0.000    0.000    0.000    0.000 
#
# Total GULP energy -223770.529582 kJ/mol
# GULP energy per Si atom -5594.263240 kJ/mol
# Density = 1.951672 g / cm^3
# Si number density = 19.561239 Si / 1000 Ang^3
#
#
#
# Elastic Constant Matrix: (Units=GPa)
#
#
# Indices 1 2 3 4 5 6 
#
# 1 45.5714 41.6962 38.2415 0.0000 0.0000 0.0000
# 2 41.6962 161.0177 61.2535 0.0000 0.0000 0.0000
# 3 38.2415 61.2535 126.5434 0.0000 0.0000 0.0000
# 4 0.0000 0.0000 0.0000 22.2686 0.0000 0.0000
# 5 0.0000 0.0000 0.0000 0.0000 36.9646 0.0000
# 6 0.0000 0.0000 0.0000 0.0000 0.0000 24.9692
#
#
#
# Elastic Compliance Matrix: (Units=1/GPa)
#
#
# Indices 1 2 3 4 5 6 
#
# 1 0.033419 -0.005898 -0.007244 0.000000 0.000000 0.000000
# 2 -0.005898 0.008653 -0.002406 0.000000 0.000000 0.000000
# 3 -0.007244 -0.002406 0.011256 0.000000 0.000000 0.000000
# 4 0.000000 0.000000 0.000000 0.044906 0.000000 0.000000
# 5 0.000000 0.000000 0.000000 0.000000 0.027053 0.000000
# 6 0.000000 0.000000 0.000000 0.000000 0.000000 0.040049
#
#
# Mechanical properties :
#
#
# Convention : Reuss Voigt Hill
#
# Bulk Modulus (GPa) = 44.98113 68.39055 56.68584
# Shear Modulus (GPa) = 24.52840 29.63657 27.08249
#
# Velocity S-wave (km/s) = 3.54493 3.89661 3.72492
# Velocity P-wave (km/s) = 6.30875 7.43525 6.89504
#
# Compressibility (1/GPa) = 0.02223155
#
# Stress axis : x y z
#
# Youngs Moduli (GPa) = 29.92279 115.56407 88.83874
#
# Poissons Ratio (x) = 0.68163 0.64357
# Poissons Ratio (y) = 0.17649 0.21376
# Poissons Ratio (z) = 0.21677 0.27806
#
# Static dielectric constant tensor:
#      x y z
#    x 1.656750 0.000000 0.000000 
#    y 0.000000 1.551360 0.000000 
#    z 0.000000 0.000000 1.663870 
# 
# From -- ./inp_files/47841.got.cif
#   From: 2010.05.17/outbox.cif.g08.bks.cpg/sg64_24_cif.got.tgz:47841.got - 2010.06.03 16:29:19.
