data_PCOD9481146
_publ_section_title
;
Structure prediction by ZEFSAII (Michael W. Deem and Ramdas Pophale) SiO2 
 PCOD9481146
Probable space group: C M C A
;
_chemical_formula_sum "Si O2"
_cell_formula_units_Z 88
_cell_length_a 17.669149
_cell_length_b 7.391913
_cell_length_c 29.122132
_cell_angle_alpha 90.000000
_cell_angle_beta 90.000000
_cell_angle_gamma 90.000000
_cell_volume 3803.607069
_symmetry_space_group_name_H-M "C M C A"
_symmetry_group_IT_number 64
_symmetry_cell_setting 'orthorhombic'
loop_
_space_group_symop_operation_xyz
x,y,z
-x,1/2-y,1/2+z
x,-y,-z
-x,1/2+y,1/2-z
-x,-y,-z
x,1/2+y,1/2-z
-x,y,z
x,1/2-y,1/2+z
1/2+x,1/2+y,z
1/2-x,-y,1/2+z
1/2+x,1/2-y,-z
1/2-x,y,1/2-z
1/2-x,1/2-y,-z
1/2+x,y,1/2-z
1/2-x,1/2+y,z
1/2+x,-y,1/2+z
loop_
_atom_site_type_symbol
_atom_site_label
_atom_site_fract_x
_atom_site_fract_y
_atom_site_fract_z
Si Si1 0.421348 0.631279 0.062621
Si Si2 0.647338 0.717094 0.705217
Si Si3 0.347538 0.772159 0.407597
Si Si4 0.500000 0.805269 0.149802
Si Si5 0.303921 0.914587 0.047574
Si Si6 0.818765 0.130979 0.808620
O O1 0.500000 0.652956 0.036462
O O2 0.403688 0.422929 0.072643
O O3 0.435929 0.730032 0.111670
O O4 0.354889 0.739664 0.038594
O O5 0.568877 0.642569 0.685674
O O6 0.727027 0.627906 0.689865
O O7 0.653598 0.713343 0.760641
O O8 0.653208 0.925855 0.690398
O O9 0.352188 0.573139 0.428419
O O10 0.265087 0.851220 0.421137
O O11 0.351264 0.768400 0.352822
O O12 0.276879 0.000000 0.000000
#
# Coordination Sequence:
#
# PCOD9481146 Si02
#       6
#    16  16  16   8  16  16
#     4  10  24  46  68 102 147 181 232 294 356 426
#     4  11  22  39  66  92 142 168 237 282 333 417
#     4  12  23  44  75  99 144 185 236 293 358 424
#     4  10  22  46  63  97 147 183 218 303 345 402
#     4  12  26  44  77 112 135 183 247 300 359 430
#     4  11  22  40  62 102 123 187 229 281 344 407
#
# _framework density 23.135933999999999
#
# number of rings (size 3 to 8) (size 9 to 14) (size 15 to 20)
#    0.545    0.364    3.636    4.909    0.000    3.273 
#    1.636    0.909    0.000    0.000    0.000    0.000 
#    0.000    0.000    0.000    0.000    0.000    0.000 
#
# Total GULP energy -245099.726318 kJ/mol
# GULP energy per Si atom -5570.448325 kJ/mol
# Density = 2.308328 g / cm^3
# Si number density = 23.135934 Si / 1000 Ang^3
#
#
#
# Elastic Constant Matrix: (Units=GPa)
#
#
# Indices 1 2 3 4 5 6 
#
# 1 87.6688 17.4936 12.0499 0.0000 0.0000 0.0000
# 2 17.4936 82.3975 22.2513 0.0000 0.0000 0.0000
# 3 12.0499 22.2513 80.7151 0.0000 0.0000 0.0000
# 4 0.0000 0.0000 0.0000 28.0054 0.0000 0.0000
# 5 0.0000 0.0000 0.0000 0.0000 4.9722 0.0000
# 6 0.0000 0.0000 0.0000 0.0000 0.0000 -3.0580
#
#
#
# Elastic Compliance Matrix: (Units=1/GPa)
#
#
# Indices 1 2 3 4 5 6 
#
# 1 0.012014 -0.002233 -0.001178 0.000000 0.000000 0.000000
# 2 -0.002233 0.013527 -0.003396 0.000000 0.000000 0.000000
# 3 -0.001178 -0.003396 0.013501 0.000000 0.000000 0.000000
# 4 0.000000 0.000000 0.000000 0.035707 0.000000 0.000000
# 5 0.000000 0.000000 0.000000 0.000000 0.201117 0.000000
# 6 0.000000 0.000000 0.000000 0.000000 0.000000 -0.327015
#
#
# Mechanical properties :
#
#
# Convention : Reuss Voigt Hill
#
# Bulk Modulus (GPa) = 39.32424 39.37454 39.34939
# Shear Modulus (GPa) = -172.06953 19.24972 -76.40991
#
# Velocity S-wave (km/s) = -8.63335 2.88762 -5.75310
# Velocity P-wave (km/s) = 9.07445 5.30787 5.20443
#
# Compressibility (1/GPa) = 0.02542961
#
# Stress axis : x y z
#
# Youngs Moduli (GPa) = 83.23645 73.92449 74.06699
#
# Poissons Ratio (x) = 0.16504 0.08726
# Poissons Ratio (y) = 0.18583 0.25152
# Poissons Ratio (z) = 0.09806 0.25104
#
# Static dielectric constant tensor:
#      x y z
#    x 1.860050 0.000000 0.000000 
#    y 0.000000 1.867000 0.000000 
#    z 0.000000 0.000000 1.909610 
# 
# From -- ./inp_files/53564.got.cif
#   From: 2010.05.17/outbox.cif.g08.bks.cpg/sg64_27_cif.got.tgz:53564.got - 2010.06.03 16:29:19.
