data_PCOD9481587
_publ_section_title
;
Structure prediction by ZEFSAII (Michael W. Deem and Ramdas Pophale) SiO2 
 PCOD9481587
Probable space group: C M C A
;
_chemical_formula_sum "Si O2"
_cell_formula_units_Z 96
_cell_length_a 14.250181
_cell_length_b 15.329270
_cell_length_c 22.391859
_cell_angle_alpha 90.000000
_cell_angle_beta 90.000000
_cell_angle_gamma 90.000000
_cell_volume 4891.386775
_symmetry_space_group_name_H-M "C M C A"
_symmetry_group_IT_number 64
_symmetry_cell_setting 'orthorhombic'
loop_
_space_group_symop_operation_xyz
x,y,z
-x,1/2-y,1/2+z
x,-y,-z
-x,1/2+y,1/2-z
-x,-y,-z
x,1/2+y,1/2-z
-x,y,z
x,1/2-y,1/2+z
1/2+x,1/2+y,z
1/2-x,-y,1/2+z
1/2+x,1/2-y,-z
1/2-x,y,1/2-z
1/2-x,1/2-y,-z
1/2+x,y,1/2-z
1/2-x,1/2+y,z
1/2+x,-y,1/2+z
loop_
_atom_site_type_symbol
_atom_site_label
_atom_site_fract_x
_atom_site_fract_y
_atom_site_fract_z
Si Si1 0.744448 0.862547 0.887031
Si Si2 0.900600 0.538775 0.323210
Si Si3 0.606734 0.895970 0.992866
Si Si4 0.856134 0.180010 0.274094
Si Si5 0.638286 0.630640 0.745997
Si Si6 0.393432 0.296753 0.382096
O O1 0.692212 0.868790 0.949890
O O2 0.659279 0.857516 0.839484
O O3 0.813142 0.777944 0.880900
O O4 0.812308 0.941937 0.866157
O O5 0.900438 0.615081 0.273300
O O6 0.894950 0.450895 0.284419
O O7 0.000000 0.540083 0.356352
O O8 0.500000 0.873900 0.971057
O O9 0.617103 0.850876 0.057281
O O10 0.610337 0.000000 0.000000
O O11 0.750000 0.188341 0.250000
O O12 0.894560 0.277353 0.273633
O O13 0.750000 0.624937 0.750000
O O14 0.614387 0.640883 0.675981
O O15 0.500000 0.259273 0.380899
#
# Coordination Sequence:
#
# PCOD9481587 Si02
#       6
#    16  16  16  16  16  16
#     4  11  21  41  64  89 125 167 206 260 310 371
#     4  11  23  35  58  95 129 165 204 246 311 379
#     4  10  25  43  63  93 118 158 221 268 313 368
#     4   9  19  36  56  87 121 160 202 248 300 364
#     4  11  20  37  62  91 130 165 208 253 311 374
#     4  11  22  40  65  90 123 164 207 256 312 375
#
# _framework density 19.626335999999998
#
# number of rings (size 3 to 8) (size 9 to 14) (size 15 to 20)
#    0.000    1.500    5.000    3.000    4.667    1.333 
#    0.000    0.000    0.000    4.000    0.000    0.000 
#    0.000    0.000    0.000    0.000    0.000    0.000 
#
# Total GULP energy -267662.334482 kJ/mol
# GULP energy per Si atom -5576.298635 kJ/mol
# Density = 1.958167 g / cm^3
# Si number density = 19.626336 Si / 1000 Ang^3
#
#
#
# Elastic Constant Matrix: (Units=GPa)
#
#
# Indices 1 2 3 4 5 6 
#
# 1 113.0732 11.3241 41.2293 0.0000 0.0000 0.0000
# 2 11.3241 56.8267 -3.8646 0.0000 0.0000 0.0000
# 3 41.2293 -3.8646 94.1970 0.0000 0.0000 0.0000
# 4 0.0000 0.0000 0.0000 26.0166 0.0000 0.0000
# 5 0.0000 0.0000 0.0000 0.0000 21.9720 0.0000
# 6 0.0000 0.0000 0.0000 0.0000 0.0000 14.4969
#
#
#
# Elastic Compliance Matrix: (Units=1/GPa)
#
#
# Indices 1 2 3 4 5 6 
#
# 1 0.010865 -0.002496 -0.004858 0.000000 0.000000 0.000000
# 2 -0.002496 0.018220 0.001840 0.000000 0.000000 0.000000
# 3 -0.004858 0.001840 0.012818 0.000000 0.000000 0.000000
# 4 0.000000 0.000000 0.000000 0.038437 0.000000 0.000000
# 5 0.000000 0.000000 0.000000 0.000000 0.045512 0.000000
# 6 0.000000 0.000000 0.000000 0.000000 0.000000 0.068980
#
#
# Mechanical properties :
#
#
# Convention : Reuss Voigt Hill
#
# Bulk Modulus (GPa) = 32.38838 40.16386 36.27612
# Shear Modulus (GPa) = 23.13194 26.85765 24.99480
#
# Velocity S-wave (km/s) = 3.43682 3.70327 3.57253
# Velocity P-wave (km/s) = 5.68220 6.22851 5.96161
#
# Compressibility (1/GPa) = 0.03087527
#
# Stress axis : x y z
#
# Youngs Moduli (GPa) = 92.03800 54.88540 78.01645
#
# Poissons Ratio (x) = 0.13697 0.37900
# Poissons Ratio (y) = 0.22968 -0.14353
# Poissons Ratio (z) = 0.44712 -0.10098
#
# Static dielectric constant tensor:
#      x y z
#    x 1.636180 0.000000 0.000000 
#    y 0.000000 1.722450 0.000000 
#    z 0.000000 0.000000 1.680010 
# 
# From -- ./inp_files/39170.got.cif
#   From: 2010.05.17/outbox.cif.g08.bks.cpg/sg64_20_cif.got.tgz:39170.got - 2010.06.03 16:29:19.
