data_PCOD9481395
_publ_section_title
;
Structure prediction by ZEFSAII (Michael W. Deem and Ramdas Pophale) SiO2 
 PCOD9481395
Probable space group: C M C A
;
_chemical_formula_sum "Si O2"
_cell_formula_units_Z 60
_cell_length_a 23.680037
_cell_length_b 22.982210
_cell_length_c 4.885221
_cell_angle_alpha 90.000000
_cell_angle_beta 90.000000
_cell_angle_gamma 90.000000
_cell_volume 2658.632936
_symmetry_space_group_name_H-M "C M C A"
_symmetry_group_IT_number 64
_symmetry_cell_setting 'orthorhombic'
loop_
_space_group_symop_operation_xyz
x,y,z
-x,1/2-y,1/2+z
x,-y,-z
-x,1/2+y,1/2-z
-x,-y,-z
x,1/2+y,1/2-z
-x,y,z
x,1/2-y,1/2+z
1/2+x,1/2+y,z
1/2-x,-y,1/2+z
1/2+x,1/2-y,-z
1/2-x,y,1/2-z
1/2-x,1/2-y,-z
1/2+x,y,1/2-z
1/2-x,1/2+y,z
1/2+x,-y,1/2+z
loop_
_atom_site_type_symbol
_atom_site_label
_atom_site_fract_x
_atom_site_fract_y
_atom_site_fract_z
Si Si1 0.103941 0.414094 0.918920
Si Si2 0.000000 0.000000 0.500000
Si Si3 0.750000 0.345158 0.750000
Si Si4 0.177735 0.437515 0.426963
Si Si5 0.639906 0.711746 0.493298
O O1 0.156397 0.430998 0.118554
O O2 0.049480 0.449430 0.004146
O O3 0.121673 0.432451 0.614371
O O4 0.101460 0.344316 0.933158
O O5 0.782890 0.386068 0.534951
O O6 0.703366 0.308077 0.587916
O O7 0.203488 0.500000 0.500000
O O8 0.630770 0.732484 0.801098
#
# Coordination Sequence:
#
# PCOD9481395 Si02
#       5
#    16   4   8  16  16
#     4  11  25  42  70  99 128 173 225 284 335 392
#     4  12  24  50  76  98 128 170 232 284 368 392
#     4  10  24  36  68  94 136 190 218 254 330 398
#     4  11  22  42  59 102 142 171 217 274 332 400
#     4  11  23  43  63  94 137 177 222 267 316 398
#
# _framework density 22.567986999999999
#
# number of rings (size 3 to 8) (size 9 to 14) (size 15 to 20)
#    0.000    1.067    2.667    4.000    0.000   14.933 
#    0.000    1.333    0.000    0.000    0.000    0.000 
#    0.000    0.000    0.000    0.000    0.000    0.000 
#
# Total GULP energy -167452.759489 kJ/mol
# GULP energy per Si atom -5581.758650 kJ/mol
# Density = 2.251662 g / cm^3
# Si number density = 22.567987 Si / 1000 Ang^3
#
#
#
# Elastic Constant Matrix: (Units=GPa)
#
#
# Indices 1 2 3 4 5 6 
#
# 1 101.4236 37.0296 3.9057 0.0000 0.0000 0.0000
# 2 37.0296 129.9662 0.1610 0.0000 0.0000 0.0000
# 3 3.9057 0.1610 49.5539 0.0000 0.0000 0.0000
# 4 0.0000 0.0000 0.0000 34.8162 0.0000 0.0000
# 5 0.0000 0.0000 0.0000 0.0000 -15.0361 0.0000
# 6 0.0000 0.0000 0.0000 0.0000 0.0000 44.8721
#
#
#
# Elastic Compliance Matrix: (Units=1/GPa)
#
#
# Indices 1 2 3 4 5 6 
#
# 1 0.011041 -0.003145 -0.000860 0.000000 0.000000 0.000000
# 2 -0.003145 0.008590 0.000220 0.000000 0.000000 0.000000
# 3 -0.000860 0.000220 0.020247 0.000000 0.000000 0.000000
# 4 0.000000 0.000000 0.000000 0.028722 0.000000 0.000000
# 5 0.000000 0.000000 0.000000 0.000000 -0.066506 0.000000
# 6 0.000000 0.000000 0.000000 0.000000 0.000000 0.022286
#
#
# Mechanical properties :
#
#
# Convention : Reuss Voigt Hill
#
# Bulk Modulus (GPa) = 30.95154 40.34847 35.65001
# Shear Modulus (GPa) = 117.04591 28.92027 72.98309
#
# Velocity S-wave (km/s) = 7.20946 3.58365 5.69293
# Velocity P-wave (km/s) = 9.11297 5.91953 7.68398
#
# Compressibility (1/GPa) = 0.03230857
#
# Stress axis : x y z
#
# Youngs Moduli (GPa) = 90.57259 116.41433 49.38977
#
# Poissons Ratio (x) = 0.36608 0.04247
# Poissons Ratio (y) = 0.28482 -0.01086
# Poissons Ratio (z) = 0.07789 -0.02560
#
# Static dielectric constant tensor:
#      x y z
#    x 1.763980 0.000000 0.000000 
#    y 0.000000 1.863730 0.000000 
#    z 0.000000 0.000000 1.833000 
# 
# From -- ./inp_files/2150.got.cif
#   From: 2010.05.17/outbox.cif.g08.bks.cpg/sg64_2_cif.got.tgz:2150.got - 2010.06.03 16:29:19.
