data_PCOD9481614
_publ_section_title
;
Structure prediction by ZEFSAII (Michael W. Deem and Ramdas Pophale) SiO2 
 PCOD9481614
Probable space group: C M C A
;
_chemical_formula_sum "Si O2"
_cell_formula_units_Z 88
_cell_length_a 22.123925
_cell_length_b 30.890369
_cell_length_c 5.315124
_cell_angle_alpha 90.000000
_cell_angle_beta 90.000000
_cell_angle_gamma 90.000000
_cell_volume 3632.441884
_symmetry_space_group_name_H-M "C M C A"
_symmetry_group_IT_number 64
_symmetry_cell_setting 'orthorhombic'
loop_
_space_group_symop_operation_xyz
x,y,z
-x,1/2-y,1/2+z
x,-y,-z
-x,1/2+y,1/2-z
-x,-y,-z
x,1/2+y,1/2-z
-x,y,z
x,1/2-y,1/2+z
1/2+x,1/2+y,z
1/2-x,-y,1/2+z
1/2+x,1/2-y,-z
1/2-x,y,1/2-z
1/2-x,1/2-y,-z
1/2+x,y,1/2-z
1/2-x,1/2+y,z
1/2+x,-y,1/2+z
loop_
_atom_site_type_symbol
_atom_site_label
_atom_site_fract_x
_atom_site_fract_y
_atom_site_fract_z
Si Si1 0.810128 0.134074 0.571602
Si Si2 0.000000 0.376653 0.604434
Si Si3 0.369009 0.723042 0.545516
Si Si4 0.812863 0.053885 0.200129
Si Si5 0.400338 0.576714 0.825330
Si Si6 0.500000 0.679868 0.595955
Si Si7 0.408725 0.500000 0.500000
O O1 0.750000 0.131413 0.750000
O O2 0.823395 0.183187 0.497566
O O3 0.806860 0.099975 0.342345
O O4 0.874840 0.119334 0.690920
O O5 0.057983 0.406568 0.549729
O O6 0.000000 0.340709 0.378554
O O7 0.000000 0.357353 0.881175
O O8 0.359263 0.757025 0.321460
O O9 0.439068 0.707183 0.545895
O O10 0.750000 0.031163 0.250000
O O11 0.866611 0.027598 0.319937
O O12 0.835235 0.058691 0.917190
O O13 0.434227 0.539067 0.671456
#
# Coordination Sequence:
#
# PCOD9481614 Si02
#       7
#    16   8  16  16  16   8   8
#     4  11  24  43  68 101 144 190 240 293 361 438
#     4  12  26  44  83 101 144 190 245 293 356 442
#     4  12  27  45  73 107 145 183 236 298 367 432
#     4  11  23  40  71  99 140 187 242 293 351 419
#     4  11  24  46  67 108 137 197 237 301 362 429
#     4  12  24  49  74 108 135 184 247 302 352 425
#     4  10  26  39  66 106 146 179 244 296 360 424
#
# _framework density 24.226126000000001
#
# number of rings (size 3 to 8) (size 9 to 14) (size 15 to 20)
#    0.000    0.727    3.636    3.273    7.636    1.091 
#    0.000    1.818    0.000    0.000    0.000    0.000 
#    0.000    0.000    0.000    0.000    0.000    0.000 
#
# Total GULP energy -245749.085603 kJ/mol
# GULP energy per Si atom -5585.206491 kJ/mol
# Density = 2.417099 g / cm^3
# Si number density = 24.226126 Si / 1000 Ang^3
#
#
#
# Elastic Constant Matrix: (Units=GPa)
#
#
# Indices 1 2 3 4 5 6 
#
# 1 91.6435 14.5819 -1.4912 0.0000 0.0000 0.0000
# 2 14.5819 90.5330 5.9606 0.0000 0.0000 0.0000
# 3 -1.4912 5.9606 46.5284 0.0000 0.0000 0.0000
# 4 0.0000 0.0000 0.0000 45.9131 0.0000 0.0000
# 5 0.0000 0.0000 0.0000 0.0000 2.7994 0.0000
# 6 0.0000 0.0000 0.0000 0.0000 0.0000 73.1668
#
#
#
# Elastic Compliance Matrix: (Units=1/GPa)
#
#
# Indices 1 2 3 4 5 6 
#
# 1 0.011215 -0.001846 0.000596 0.000000 0.000000 0.000000
# 2 -0.001846 0.011443 -0.001525 0.000000 0.000000 0.000000
# 3 0.000596 -0.001525 0.021707 0.000000 0.000000 0.000000
# 4 0.000000 0.000000 0.000000 0.021780 0.000000 0.000000
# 5 0.000000 0.000000 0.000000 0.000000 0.357215 0.000000
# 6 0.000000 0.000000 0.000000 0.000000 0.000000 0.013667
#
#
# Mechanical properties :
#
#
# Convention : Reuss Voigt Hill
#
# Bulk Modulus (GPa) = 25.76287 29.64529 27.70408
# Shear Modulus (GPa) = 10.97655 38.35278 24.66467
#
# Velocity S-wave (km/s) = 2.13089 3.98316 3.19423
# Velocity P-wave (km/s) = 4.08799 5.78079 5.00646
#
# Compressibility (1/GPa) = 0.03881555
#
# Stress axis : x y z
#
# Youngs Moduli (GPa) = 89.16461 87.38682 46.06864
#
# Poissons Ratio (x) = 0.16128 -0.02745
# Poissons Ratio (y) = 0.16457 0.07026
# Poissons Ratio (z) = -0.05313 0.13328
#
# Static dielectric constant tensor:
#      x y z
#    x 2.002410 0.000000 0.000000 
#    y 0.000000 2.013600 0.000000 
#    z 0.000000 0.000000 3.158440 
# 
# From -- ./inp_files/2469.got.cif
#   From: 2010.05.17/outbox.cif.g08.bks.cpg/sg64_2_cif.got.tgz:2469.got - 2010.06.03 16:29:19.
