data_PCOD9481452
_publ_section_title
;
Structure prediction by ZEFSAII (Michael W. Deem and Ramdas Pophale) SiO2 
 PCOD9481452
Probable space group: C M C A
;
_chemical_formula_sum "Si O2"
_cell_formula_units_Z 116
_cell_length_a 17.591556
_cell_length_b 10.972874
_cell_length_c 25.408918
_cell_angle_alpha 90.000000
_cell_angle_beta 90.000000
_cell_angle_gamma 90.000000
_cell_volume 4904.681598
_symmetry_space_group_name_H-M "C M C A"
_symmetry_group_IT_number 64
_symmetry_cell_setting 'orthorhombic'
loop_
_space_group_symop_operation_xyz
x,y,z
-x,1/2-y,1/2+z
x,-y,-z
-x,1/2+y,1/2-z
-x,-y,-z
x,1/2+y,1/2-z
-x,y,z
x,1/2-y,1/2+z
1/2+x,1/2+y,z
1/2-x,-y,1/2+z
1/2+x,1/2-y,-z
1/2-x,y,1/2-z
1/2-x,1/2-y,-z
1/2+x,y,1/2-z
1/2-x,1/2+y,z
1/2+x,-y,1/2+z
loop_
_atom_site_type_symbol
_atom_site_label
_atom_site_fract_x
_atom_site_fract_y
_atom_site_fract_z
Si Si1 0.859538 0.012730 0.369037
Si Si2 0.358431 0.660756 0.970470
Si Si3 0.182282 0.647709 0.960706
Si Si4 0.812658 0.673897 0.786351
Si Si5 0.085475 0.547048 0.635174
Si Si6 0.583706 0.778241 0.796473
Si Si7 0.500000 0.500000 0.000000
Si Si8 0.205931 0.150519 0.126014
O O1 0.868683 0.941146 0.424444
O O2 0.864040 0.917238 0.320264
O O3 0.901380 0.131389 0.345728
O O4 0.772366 0.053498 0.376057
O O5 0.270152 0.614414 0.973502
O O6 0.378190 0.626500 0.911072
O O7 0.429787 0.602883 0.001749
O O8 0.354484 0.803083 0.985626
O O9 0.190376 0.772066 0.926086
O O10 0.750000 0.608772 0.750000
O O11 0.856376 0.772054 0.750547
O O12 0.769967 0.750380 0.831046
O O13 0.083812 0.637634 0.684085
O O14 0.131624 0.424153 0.642144
O O15 0.000000 0.518467 0.616775
O O16 0.500000 0.808639 0.775823
#
# Coordination Sequence:
#
# PCOD9481452 Si02
#       8
#    16  16  16  16  16  16   4  16
#     4  11  23  42  65  93 131 173 219 277 338 406
#     4  11  22  41  65 101 136 178 225 281 340 400
#     4  10  24  42  65 100 139 178 226 284 339 407
#     4  11  24  39  65  96 121 168 220 280 325 409
#     4  11  23  42  66  99 133 173 220 283 337 406
#     4  11  26  44  65  92 133 176 221 276 349 413
#     4  12  24  40  72 108 142 182 240 288 344 410
#     4  11  22  41  67  97 134 169 227 274 343 400
#
# _framework density 23.650872
#
# number of rings (size 3 to 8) (size 9 to 14) (size 15 to 20)
#    0.000    1.103    3.448    2.483    3.862    1.103 
#    1.241    1.379    0.000    1.655    0.000    0.000 
#    0.000    0.000    0.000    0.000    0.000    0.000 
#
# Total GULP energy -323147.897485 kJ/mol
# GULP energy per Si atom -5571.515474 kJ/mol
# Density = 2.359704 g / cm^3
# Si number density = 23.650872 Si / 1000 Ang^3
#
#
#
# Elastic Constant Matrix: (Units=GPa)
#
#
# Indices 1 2 3 4 5 6 
#
# 1 82.4526 6.4088 -2.6434 0.0000 0.0000 0.0000
# 2 6.4088 58.8159 26.9247 0.0000 0.0000 0.0000
# 3 -2.6434 26.9247 43.6763 0.0000 0.0000 0.0000
# 4 0.0000 0.0000 0.0000 22.7263 0.0000 0.0000
# 5 0.0000 0.0000 0.0000 0.0000 17.4904 0.0000
# 6 0.0000 0.0000 0.0000 0.0000 0.0000 20.2822
#
#
#
# Elastic Compliance Matrix: (Units=1/GPa)
#
#
# Indices 1 2 3 4 5 6 
#
# 1 0.012382 -0.002358 0.002203 0.000000 0.000000 0.000000
# 2 -0.002358 0.024136 -0.015021 0.000000 0.000000 0.000000
# 3 0.002203 -0.015021 0.032289 0.000000 0.000000 0.000000
# 4 0.000000 0.000000 0.000000 0.044002 0.000000 0.000000
# 5 0.000000 0.000000 0.000000 0.000000 0.057174 0.000000
# 6 0.000000 0.000000 0.000000 0.000000 0.000000 0.049304
#
#
# Mechanical properties :
#
#
# Convention : Reuss Voigt Hill
#
# Bulk Modulus (GPa) = 26.00482 27.36944 26.68713
# Shear Modulus (GPa) = 19.05072 22.38343 20.71707
#
# Velocity S-wave (km/s) = 2.84121 3.07972 2.96286
# Velocity P-wave (km/s) = 4.66717 4.92378 4.79719
#
# Compressibility (1/GPa) = 0.03845441
#
# Stress axis : x y z
#
# Youngs Moduli (GPa) = 80.76213 41.43270 30.97028
#
# Poissons Ratio (x) = 0.09768 -0.06822
# Poissons Ratio (y) = 0.19040 0.46521
# Poissons Ratio (z) = -0.17790 0.62237
#
# Static dielectric constant tensor:
#      x y z
#    x 1.909120 0.000000 0.000000 
#    y 0.000000 1.927980 0.000000 
#    z 0.000000 0.000000 2.121600 
# 
# From -- ./inp_files/50501.got.cif
#   From: 2010.05.17/outbox.cif.g08.bks.cpg/sg64_26_cif.got.tgz:50501.got - 2010.06.03 16:29:19.
