data_PCOD9481413
_publ_section_title
;
Structure prediction by ZEFSAII (Michael W. Deem and Ramdas Pophale) SiO2 
 PCOD9481413
Probable space group: C M C A
;
_chemical_formula_sum "Si O2"
_cell_formula_units_Z 80
_cell_length_a 8.246978
_cell_length_b 22.151663
_cell_length_c 18.722423
_cell_angle_alpha 90.000000
_cell_angle_beta 90.000000
_cell_angle_gamma 90.000000
_cell_volume 3420.292317
_symmetry_space_group_name_H-M "C M C A"
_symmetry_group_IT_number 64
_symmetry_cell_setting 'orthorhombic'
loop_
_space_group_symop_operation_xyz
x,y,z
-x,1/2-y,1/2+z
x,-y,-z
-x,1/2+y,1/2-z
-x,-y,-z
x,1/2+y,1/2-z
-x,y,z
x,1/2-y,1/2+z
1/2+x,1/2+y,z
1/2-x,-y,1/2+z
1/2+x,1/2-y,-z
1/2-x,y,1/2-z
1/2-x,1/2-y,-z
1/2+x,y,1/2-z
1/2-x,1/2+y,z
1/2+x,-y,1/2+z
loop_
_atom_site_type_symbol
_atom_site_label
_atom_site_fract_x
_atom_site_fract_y
_atom_site_fract_z
Si Si1 0.180400 0.062678 0.955750
Si Si2 0.000000 0.784583 0.327178
Si Si3 0.751232 0.621661 0.097860
Si Si4 0.000000 0.452038 0.834588
Si Si5 0.500000 0.347489 0.781515
Si Si6 0.820014 0.254219 0.420407
Si Si7 0.500000 0.918278 0.144269
O O1 0.178120 0.111976 0.019703
O O2 0.000000 0.061954 0.920488
O O3 0.337016 0.077195 0.905918
O O4 0.193874 0.000000 0.000000
O O5 0.000000 0.726019 0.273190
O O6 0.168174 0.776620 0.372159
O O7 0.000000 0.856146 0.310623
O O8 0.644095 0.633460 0.166765
O O9 0.843580 0.684069 0.096480
O O10 0.848533 0.561391 0.115183
O O11 0.000000 0.395496 0.781461
O O12 0.000000 0.520317 0.808876
O O13 0.750000 0.250000 0.500000
O O14 0.000000 0.283416 0.413971
#
# Coordination Sequence:
#
# PCOD9481413 Si02
#       7
#    16   8  16   8   8  16   8
#     4  11  22  37  61 102 147 179 218 281 352 424
#     4  10  24  40  61  95 132 176 222 275 342 406
#     4  11  21  39  63  97 128 173 230 278 342 404
#     4  12  23  42  68  95 131 175 237 298 329 407
#     4  10  24  43  67  94 128 181 239 282 334 401
#     4  11  21  35  59  94 134 174 217 264 326 413
#     4  12  24  40  68 105 140 181 221 289 362 408
#
# _framework density 23.389814000000001
#
# number of rings (size 3 to 8) (size 9 to 14) (size 15 to 20)
#    0.000    1.000    5.000    2.700    0.000    2.400 
#    0.000    0.000    0.000    9.600    0.000    0.000 
#    0.000    0.000    0.000    0.000    0.000    0.000 
#
# Total GULP energy -222727.339864 kJ/mol
# GULP energy per Si atom -5568.183497 kJ/mol
# Density = 2.333658 g / cm^3
# Si number density = 23.389814 Si / 1000 Ang^3
#
#
#
# Elastic Constant Matrix: (Units=GPa)
#
#
# Indices 1 2 3 4 5 6 
#
# 1 161.5645 28.2361 24.2523 0.0000 0.0000 0.0000
# 2 28.2361 179.8834 23.8878 0.0000 0.0000 0.0000
# 3 24.2523 23.8878 55.4013 0.0000 0.0000 0.0000
# 4 0.0000 0.0000 0.0000 37.3804 0.0000 0.0000
# 5 0.0000 0.0000 0.0000 0.0000 -8.9636 0.0000
# 6 0.0000 0.0000 0.0000 0.0000 0.0000 18.5320
#
#
#
# Elastic Compliance Matrix: (Units=1/GPa)
#
#
# Indices 1 2 3 4 5 6 
#
# 1 0.006708 -0.000703 -0.002633 0.000000 0.000000 0.000000
# 2 -0.000703 0.005971 -0.002267 0.000000 0.000000 0.000000
# 3 -0.002633 -0.002267 0.020180 0.000000 0.000000 0.000000
# 4 0.000000 0.000000 0.000000 0.026752 0.000000 0.000000
# 5 0.000000 0.000000 0.000000 0.000000 -0.111562 0.000000
# 6 0.000000 0.000000 0.000000 0.000000 0.000000 0.053961
#
#
# Mechanical properties :
#
#
# Convention : Reuss Voigt Hill
#
# Bulk Modulus (GPa) = 46.18397 61.06682 53.62539
# Shear Modulus (GPa) = 244.71617 30.75463 137.73540
#
# Velocity S-wave (km/s) = 10.23974 3.63005 7.68211
# Velocity P-wave (km/s) = 12.63294 6.61322 10.08280
#
# Compressibility (1/GPa) = 0.02165253
#
# Stress axis : x y z
#
# Youngs Moduli (GPa) = 149.08396 167.48948 49.55393
#
# Poissons Ratio (x) = 0.11778 0.13048
# Poissons Ratio (y) = 0.10484 0.11231
# Poissons Ratio (z) = 0.39255 0.37962
#
# Static dielectric constant tensor:
#      x y z
#    x 1.897650 0.000000 0.000000 
#    y 0.000000 1.935130 0.000000 
#    z 0.000000 0.000000 1.929660 
# 
# From -- ./inp_files/36743.got.cif
#   From: 2010.05.17/outbox.cif.g08.bks.cpg/sg64_19_cif.got.tgz:36743.got - 2010.06.03 16:29:19.
