data_PCOD9481735
_publ_section_title
;
Structure prediction by ZEFSAII (Michael W. Deem and Ramdas Pophale) SiO2 
 PCOD9481735
Probable space group: C M C A
;
_chemical_formula_sum "Si O2"
_cell_formula_units_Z 80
_cell_length_a 15.598560
_cell_length_b 14.003413
_cell_length_c 19.128497
_cell_angle_alpha 90.000000
_cell_angle_beta 90.000000
_cell_angle_gamma 90.000000
_cell_volume 4178.296475
_symmetry_space_group_name_H-M "C M C A"
_symmetry_group_IT_number 64
_symmetry_cell_setting 'orthorhombic'
loop_
_space_group_symop_operation_xyz
x,y,z
-x,1/2-y,1/2+z
x,-y,-z
-x,1/2+y,1/2-z
-x,-y,-z
x,1/2+y,1/2-z
-x,y,z
x,1/2-y,1/2+z
1/2+x,1/2+y,z
1/2-x,-y,1/2+z
1/2+x,1/2-y,-z
1/2-x,y,1/2-z
1/2-x,1/2-y,-z
1/2+x,y,1/2-z
1/2-x,1/2+y,z
1/2+x,-y,1/2+z
loop_
_atom_site_type_symbol
_atom_site_label
_atom_site_fract_x
_atom_site_fract_y
_atom_site_fract_z
Si Si1 0.599070 0.715933 0.359119
Si Si2 0.394941 0.889851 0.996309
Si Si3 0.103856 0.204840 0.641175
Si Si4 0.846016 0.885663 0.777162
Si Si5 0.896132 0.400053 0.282349
O O1 0.500000 0.735361 0.376811
O O2 0.636575 0.662455 0.426084
O O3 0.600323 0.648593 0.290716
O O4 0.637129 0.817216 0.334329
O O5 0.500000 0.891333 0.994610
O O6 0.368932 0.834197 0.066218
O O7 0.367450 0.000000 0.000000
O O8 0.137237 0.308963 0.662377
O O9 0.129338 0.133314 0.704174
O O10 0.000000 0.209178 0.641702
O O11 0.750000 0.878796 0.750000
O O12 0.866461 0.993564 0.797555
O O13 0.000000 0.398718 0.284262
#
# Coordination Sequence:
#
# PCOD9481735 Si02
#       5
#    16  16  16  16  16
#     4   9  18  33  53  76  99 126 167 214 254 295
#     4   9  16  29  53  81 103 126 163 211 258 301
#     4   9  18  33  54  77  99 126 166 213 254 295
#     4  11  21  32  49  73 101 136 169 203 248 299
#     4   9  17  31  51  72  97 130 167 208 249 293
#
# _framework density 19.146559
#
# number of rings (size 3 to 8) (size 9 to 14) (size 15 to 20)
#    0.000    2.600    0.000    4.200    0.000    6.400 
#    0.000    2.000    0.000    7.200    0.000    0.000 
#    0.000    0.000    0.000    0.000    0.000    0.200 
#
# Total GULP energy -223127.444508 kJ/mol
# GULP energy per Si atom -5578.186113 kJ/mol
# Density = 1.910298 g / cm^3
# Si number density = 19.146559 Si / 1000 Ang^3
#
#
#
# Elastic Constant Matrix: (Units=GPa)
#
#
# Indices 1 2 3 4 5 6 
#
# 1 14.7030 10.3509 8.0540 0.0000 0.0000 0.0000
# 2 10.3509 190.8152 102.6647 0.0000 0.0000 0.0000
# 3 8.0540 102.6647 145.6171 0.0000 0.0000 0.0000
# 4 0.0000 0.0000 0.0000 20.5130 0.0000 0.0000
# 5 0.0000 0.0000 0.0000 0.0000 8.8020 0.0000
# 6 0.0000 0.0000 0.0000 0.0000 0.0000 -51.4092
#
#
#
# Elastic Compliance Matrix: (Units=1/GPa)
#
#
# Indices 1 2 3 4 5 6 
#
# 1 0.071057 -0.002803 -0.001954 0.000000 0.000000 0.000000
# 2 -0.002803 0.008554 -0.005876 0.000000 0.000000 0.000000
# 3 -0.001954 -0.005876 0.011118 0.000000 0.000000 0.000000
# 4 0.000000 0.000000 0.000000 0.048750 0.000000 0.000000
# 5 0.000000 0.000000 0.000000 0.000000 0.113611 0.000000
# 6 0.000000 0.000000 0.000000 0.000000 0.000000 -0.019452
#
#
# Mechanical properties :
#
#
# Convention : Reuss Voigt Hill
#
# Bulk Modulus (GPa) = 14.39605 65.91940 40.15773
# Shear Modulus (GPa) = 17.98181 10.91887 14.45034
#
# Velocity S-wave (km/s) = 3.06791 2.39064 2.75020
# Velocity P-wave (km/s) = 4.48158 6.49029 5.57711
#
# Compressibility (1/GPa) = 0.06946350
#
# Stress axis : x y z
#
# Youngs Moduli (GPa) = 14.07317 116.90199 89.94358
#
# Poissons Ratio (x) = 0.32773 0.17571
# Poissons Ratio (y) = 0.03945 0.52850
# Poissons Ratio (z) = 0.02749 0.68691
#
# Static dielectric constant tensor:
#      x y z
#    x 1.754490 0.000000 0.000000 
#    y 0.000000 1.656590 0.000000 
#    z 0.000000 0.000000 1.657210 
# 
# From -- ./inp_files/32979.got.cif
#   From: 2010.05.17/outbox.cif.g08.bks.cpg/sg64_17_cif.got.tgz:32979.got - 2010.06.03 16:29:19.
