data_PCOD9481453
_publ_section_title
;
Structure prediction by ZEFSAII (Michael W. Deem and Ramdas Pophale) SiO2 
 PCOD9481453
Probable space group: C M C A
;
_chemical_formula_sum "Si O2"
_cell_formula_units_Z 88
_cell_length_a 18.664652
_cell_length_b 12.929245
_cell_length_c 19.032831
_cell_angle_alpha 90.000000
_cell_angle_beta 90.000000
_cell_angle_gamma 90.000000
_cell_volume 4593.000085
_symmetry_space_group_name_H-M "C M C A"
_symmetry_group_IT_number 64
_symmetry_cell_setting 'orthorhombic'
loop_
_space_group_symop_operation_xyz
x,y,z
-x,1/2-y,1/2+z
x,-y,-z
-x,1/2+y,1/2-z
-x,-y,-z
x,1/2+y,1/2-z
-x,y,z
x,1/2-y,1/2+z
1/2+x,1/2+y,z
1/2-x,-y,1/2+z
1/2+x,1/2-y,-z
1/2-x,y,1/2-z
1/2-x,1/2-y,-z
1/2+x,y,1/2-z
1/2-x,1/2+y,z
1/2+x,-y,1/2+z
loop_
_atom_site_type_symbol
_atom_site_label
_atom_site_fract_x
_atom_site_fract_y
_atom_site_fract_z
Si Si1 0.860647 0.315254 0.668440
Si Si2 0.000000 0.856846 0.109085
Si Si3 0.120323 0.000000 0.500000
Si Si4 0.140642 0.986576 0.080228
Si Si5 0.000000 0.289611 0.766322
Si Si6 0.250000 0.542456 0.250000
Si Si7 0.290999 0.596702 0.628015
Si Si8 0.500000 0.628477 0.419060
O O1 0.876247 0.397361 0.607044
O O2 0.930013 0.297328 0.717338
O O3 0.802434 0.381384 0.710059
O O4 0.822772 0.209785 0.643398
O O5 0.930249 0.921260 0.092105
O O6 0.000000 0.817868 0.190056
O O7 0.000000 0.750348 0.065455
O O8 0.168546 0.055274 0.558927
O O9 0.068604 0.075566 0.455019
O O10 0.206071 0.922281 0.115220
O O11 0.160815 0.000000 0.000000
O O12 0.000000 0.371389 0.832784
O O13 0.298553 0.472718 0.301774
#
# Coordination Sequence:
#
# PCOD9481453 Si02
#       8
#    16   8   8  16   8   8  16   8
#     4  11  25  41  69  98 136 181 229 279 350 415
#     4  10  25  42  71  91 139 177 230 283 345 406
#     4  11  22  46  66 107 132 184 234 291 356 418
#     4  11  25  46  67 101 136 182 226 291 346 422
#     4  10  24  43  66 100 134 184 225 283 346 411
#     4  10  24  42  66 100 138 178 226 288 340 420
#     4  11  25  42  73  99 140 176 236 289 351 417
#     4   9  24  41  70  94 141 179 225 292 344 416
#
# _framework density 19.159589
#
# number of rings (size 3 to 8) (size 9 to 14) (size 15 to 20)
#    0.545    0.909    0.909    2.455   10.182    3.636 
#    3.273    0.000    0.000    0.000    0.000    0.000 
#    0.000    0.000    0.000    0.000    0.000    0.000 
#
# Total GULP energy -245216.814959 kJ/mol
# GULP energy per Si atom -5573.109431 kJ/mol
# Density = 1.911598 g / cm^3
# Si number density = 19.159589 Si / 1000 Ang^3
#
#
#
# Elastic Constant Matrix: (Units=GPa)
#
#
# Indices 1 2 3 4 5 6 
#
# 1 102.4464 74.5957 20.3360 0.0000 0.0000 0.0000
# 2 74.5957 165.0828 55.8937 0.0000 0.0000 0.0000
# 3 20.3360 55.8937 84.7427 0.0000 0.0000 0.0000
# 4 0.0000 0.0000 0.0000 35.1930 0.0000 0.0000
# 5 0.0000 0.0000 0.0000 0.0000 21.5390 0.0000
# 6 0.0000 0.0000 0.0000 0.0000 0.0000 -43.3933
#
#
#
# Elastic Compliance Matrix: (Units=1/GPa)
#
#
# Indices 1 2 3 4 5 6 
#
# 1 0.014626 -0.006979 0.001093 0.000000 0.000000 0.000000
# 2 -0.006979 0.011130 -0.005666 0.000000 0.000000 0.000000
# 3 0.001093 -0.005666 0.015275 0.000000 0.000000 0.000000
# 4 0.000000 0.000000 0.000000 0.028415 0.000000 0.000000
# 5 0.000000 0.000000 0.000000 0.000000 0.046427 0.000000
# 6 0.000000 0.000000 0.000000 0.000000 0.000000 -0.023045
#
#
# Mechanical properties :
#
#
# Convention : Reuss Voigt Hill
#
# Bulk Modulus (GPa) = 55.78083 72.65806 64.21945
# Shear Modulus (GPa) = 41.01480 16.09751 28.55615
#
# Velocity S-wave (km/s) = 4.63178 2.90173 3.86481
# Velocity P-wave (km/s) = 7.60142 7.01652 7.31482
#
# Compressibility (1/GPa) = 0.01792731
#
# Stress axis : x y z
#
# Youngs Moduli (GPa) = 68.37107 89.85004 65.46594
#
# Poissons Ratio (x) = 0.62709 -0.07158
# Poissons Ratio (y) = 0.47718 0.37093
# Poissons Ratio (z) = -0.07476 0.50909
#
# Static dielectric constant tensor:
#      x y z
#    x 1.673020 0.000000 0.000000 
#    y 0.000000 1.642740 0.000000 
#    z 0.000000 0.000000 1.873820 
# 
# From -- ./inp_files/40106.got.cif
#   From: 2010.05.17/outbox.cif.g08.bks.cpg/sg64_21_cif.got.tgz:40106.got - 2010.06.03 16:29:19.
