data_PCOD9481021
_publ_section_title
;
Structure prediction by ZEFSAII (Michael W. Deem and Ramdas Pophale) SiO2 
 PCOD9481021
Probable space group: C M C A
;
_chemical_formula_sum "Si O2"
_cell_formula_units_Z 88
_cell_length_a 21.464768
_cell_length_b 14.661281
_cell_length_c 14.271665
_cell_angle_alpha 90.000000
_cell_angle_beta 90.000000
_cell_angle_gamma 90.000000
_cell_volume 4491.307179
_symmetry_space_group_name_H-M "C M C A"
_symmetry_group_IT_number 64
_symmetry_cell_setting 'orthorhombic'
loop_
_space_group_symop_operation_xyz
x,y,z
-x,1/2-y,1/2+z
x,-y,-z
-x,1/2+y,1/2-z
-x,-y,-z
x,1/2+y,1/2-z
-x,y,z
x,1/2-y,1/2+z
1/2+x,1/2+y,z
1/2-x,-y,1/2+z
1/2+x,1/2-y,-z
1/2-x,y,1/2-z
1/2-x,1/2-y,-z
1/2+x,y,1/2-z
1/2-x,1/2+y,z
1/2+x,-y,1/2+z
loop_
_atom_site_type_symbol
_atom_site_label
_atom_site_fract_x
_atom_site_fract_y
_atom_site_fract_z
Si Si1 0.401693 0.258616 0.462299
Si Si2 0.627191 0.074729 0.345820
Si Si3 0.694615 0.000000 0.500000
Si Si4 0.717133 0.168094 0.049364
Si Si5 0.500000 0.648770 0.675108
Si Si6 0.750000 0.364183 0.750000
Si Si7 0.500000 0.752756 0.376741
Si Si8 0.500000 0.559508 0.272451
O O1 0.376962 0.166990 0.410023
O O2 0.351160 0.327942 0.505628
O O3 0.441995 0.310878 0.383687
O O4 0.442386 0.230662 0.552916
O O5 0.687616 0.082428 0.279543
O O6 0.562425 0.065440 0.291388
O O7 0.647028 0.991762 0.413272
O O8 0.742136 0.919713 0.524843
O O9 0.750000 0.250000 0.000000
O O10 0.724732 0.187539 0.159361
O O11 0.500000 0.687557 0.781707
O O12 0.500000 0.539205 0.678315
O O13 0.500000 0.647077 0.341384
#
# Coordination Sequence:
#
# PCOD9481021 Si02
#       8
#    16  16   8  16   8   8   8   8
#     4  11  23  44  70  95 140 178 228 282 348 407
#     4  11  23  45  67 100 138 181 228 289 336 413
#     4  10  24  41  64  99 130 172 236 264 348 405
#     4  11  22  41  67  96 134 181 220 281 337 410
#     4  11  27  42  65 113 126 179 240 271 352 417
#     4  10  22  42  68  98 138 176 224 280 348 394
#     4  11  24  44  68  96 139 176 220 298 339 402
#     4  12  25  44  71  97 139 183 228 286 345 411
#
# _framework density 19.593404
#
# number of rings (size 3 to 8) (size 9 to 14) (size 15 to 20)
#    0.000    1.091    5.455    1.636    2.545    6.182 
#    0.000    3.636    0.000    0.000    0.000    0.000 
#    0.000    0.000    0.000    0.000    0.000    0.000 
#
# Total GULP energy -245112.024427 kJ/mol
# GULP energy per Si atom -5570.727828 kJ/mol
# Density = 1.954881 g / cm^3
# Si number density = 19.593404 Si / 1000 Ang^3
#
#
#
# Elastic Constant Matrix: (Units=GPa)
#
#
# Indices 1 2 3 4 5 6 
#
# 1 141.2461 5.5912 47.2814 0.0000 0.0000 0.0000
# 2 5.5912 57.9777 23.6320 0.0000 0.0000 0.0000
# 3 47.2814 23.6320 133.0346 0.0000 0.0000 0.0000
# 4 0.0000 0.0000 0.0000 30.8532 0.0000 0.0000
# 5 0.0000 0.0000 0.0000 0.0000 32.1722 0.0000
# 6 0.0000 0.0000 0.0000 0.0000 0.0000 49.3243
#
#
#
# Elastic Compliance Matrix: (Units=1/GPa)
#
#
# Indices 1 2 3 4 5 6 
#
# 1 0.008045 0.000420 -0.002934 0.000000 0.000000 0.000000
# 2 0.000420 0.018616 -0.003456 0.000000 0.000000 0.000000
# 3 -0.002934 -0.003456 0.009174 0.000000 0.000000 0.000000
# 4 0.000000 0.000000 0.000000 0.032412 0.000000 0.000000
# 5 0.000000 0.000000 0.000000 0.000000 0.031083 0.000000
# 6 0.000000 0.000000 0.000000 0.000000 0.000000 0.020274
#
#
# Mechanical properties :
#
#
# Convention : Reuss Voigt Hill
#
# Bulk Modulus (GPa) = 41.85009 53.91863 47.88436
# Shear Modulus (GPa) = 35.84003 39.52019 37.68011
#
# Velocity S-wave (km/s) = 4.28154 4.49599 4.39008
# Velocity P-wave (km/s) = 6.77110 7.38447 7.08443
#
# Compressibility (1/GPa) = 0.02389481
#
# Stress axis : x y z
#
# Youngs Moduli (GPa) = 124.29531 53.71639 109.00883
#
# Poissons Ratio (x) = -0.02256 0.31983
# Poissons Ratio (y) = -0.05221 0.37676
# Poissons Ratio (z) = 0.36468 0.18566
#
# Static dielectric constant tensor:
#      x y z
#    x 1.847340 0.000000 0.000000 
#    y 0.000000 1.738990 0.000000 
#    z 0.000000 0.000000 1.341590 
# 
# From -- ./inp_files/18277.got.cif
#   From: 2010.05.17/outbox.cif.g08.bks.cpg/sg64_10_cif.got.tgz:18277.got - 2010.06.03 16:29:19.
