data_PCOD9481256
_publ_section_title
;
Structure prediction by ZEFSAII (Michael W. Deem and Ramdas Pophale) SiO2 
 PCOD9481256
Probable space group: C M C A
;
_chemical_formula_sum "Si O2"
_cell_formula_units_Z 64
_cell_length_a 23.442225
_cell_length_b 8.423845
_cell_length_c 13.789291
_cell_angle_alpha 90.000000
_cell_angle_beta 90.000000
_cell_angle_gamma 90.000000
_cell_volume 2723.021898
_symmetry_space_group_name_H-M "C M C A"
_symmetry_group_IT_number 64
_symmetry_cell_setting 'orthorhombic'
loop_
_space_group_symop_operation_xyz
x,y,z
-x,1/2-y,1/2+z
x,-y,-z
-x,1/2+y,1/2-z
-x,-y,-z
x,1/2+y,1/2-z
-x,y,z
x,1/2-y,1/2+z
1/2+x,1/2+y,z
1/2-x,-y,1/2+z
1/2+x,1/2-y,-z
1/2-x,y,1/2-z
1/2-x,1/2-y,-z
1/2+x,y,1/2-z
1/2-x,1/2+y,z
1/2+x,-y,1/2+z
loop_
_atom_site_type_symbol
_atom_site_label
_atom_site_fract_x
_atom_site_fract_y
_atom_site_fract_z
Si Si1 0.626510 0.807830 0.131424
Si Si2 0.117000 0.340868 0.435079
Si Si3 0.500000 0.153633 0.871655
Si Si4 0.315842 0.007618 0.275818
Si Si5 0.500000 0.294244 0.604264
O O1 0.560461 0.775184 0.158374
O O2 0.666486 0.674068 0.177614
O O3 0.646776 0.969890 0.180480
O O4 0.630565 0.793003 0.015242
O O5 0.108020 0.500000 0.500000
O O6 0.165697 0.379928 0.357895
O O7 0.058160 0.301299 0.380671
O O8 0.500000 0.966681 0.847363
O O9 0.500000 0.172799 0.988240
O O10 0.250000 0.000224 0.250000
#
# Coordination Sequence:
#
# PCOD9481256 Si02
#       5
#    16  16   8  16   8
#     4  10  23  42  64  95 132 169 220 273 338 393
#     4   9  20  39  65  96 137 177 213 269 342 394
#     4   9  20  37  63  98 130 160 214 273 326 400
#     4  11  24  42  63  90 130 175 225 274 318 398
#     4   9  17  35  65  98 131 166 212 266 328 400
#
# _framework density 23.503298999999998
#
# number of rings (size 3 to 8) (size 9 to 14) (size 15 to 20)
#    0.000    2.250    0.000    1.125    3.500    6.000 
#    0.000    2.500    0.000    0.000    0.000    0.000 
#    0.000    0.000    0.000    0.000    0.000    0.000 
#
# Total GULP energy -178999.940782 kJ/mol
# GULP energy per Si atom -5593.748149 kJ/mol
# Density = 2.344980 g / cm^3
# Si number density = 23.503299 Si / 1000 Ang^3
#
#
#
# Elastic Constant Matrix: (Units=GPa)
#
#
# Indices 1 2 3 4 5 6 
#
# 1 212.8784 32.1165 50.2645 0.0000 0.0000 0.0000
# 2 32.1165 32.4418 25.4589 0.0000 0.0000 0.0000
# 3 50.2645 25.4589 116.4277 0.0000 0.0000 0.0000
# 4 0.0000 0.0000 0.0000 33.6324 0.0000 0.0000
# 5 0.0000 0.0000 0.0000 0.0000 47.4835 0.0000
# 6 0.0000 0.0000 0.0000 0.0000 0.0000 -52.0511
#
#
#
# Elastic Compliance Matrix: (Units=1/GPa)
#
#
# Indices 1 2 3 4 5 6 
#
# 1 0.005728 -0.004503 -0.001488 0.000000 0.000000 0.000000
# 2 -0.004503 0.040749 -0.006967 0.000000 0.000000 0.000000
# 3 -0.001488 -0.006967 0.010755 0.000000 0.000000 0.000000
# 4 0.000000 0.000000 0.000000 0.029733 0.000000 0.000000
# 5 0.000000 0.000000 0.000000 0.000000 0.021060 0.000000
# 6 0.000000 0.000000 0.000000 0.000000 0.000000 -0.019212
#
#
# Mechanical properties :
#
#
# Convention : Reuss Voigt Hill
#
# Bulk Modulus (GPa) = 31.93171 64.15864 48.04517
# Shear Modulus (GPa) = 39.94630 22.74015 31.34323
#
# Velocity S-wave (km/s) = 4.12710 3.11389 3.65577
# Velocity P-wave (km/s) = 6.02712 6.34708 6.18916
#
# Compressibility (1/GPa) = 0.03131683
#
# Stress axis : x y z
#
# Youngs Moduli (GPa) = 174.57220 24.54044 92.98040
#
# Poissons Ratio (x) = 0.11050 0.13839
# Poissons Ratio (y) = 0.78606 0.64775
# Poissons Ratio (z) = 0.25984 0.17096
#
# Static dielectric constant tensor:
#      x y z
#    x 1.816710 0.000000 0.000000 
#    y 0.000000 1.944750 0.000000 
#    z 0.000000 0.000000 1.936050 
# 
# From -- ./inp_files/26945.got.cif
#   From: 2010.05.17/outbox.cif.g08.bks.cpg/sg64_14_cif.got.tgz:26945.got - 2010.06.03 16:29:19.
