data_PCOD9481891
_publ_section_title
;
Structure prediction by ZEFSAII (Michael W. Deem and Ramdas Pophale) SiO2 
 PCOD9481891
Probable space group: C M C A
;
_chemical_formula_sum "Si O2"
_cell_formula_units_Z 96
_cell_length_a 14.661009
_cell_length_b 14.090935
_cell_length_c 22.190039
_cell_angle_alpha 90.000000
_cell_angle_beta 90.000000
_cell_angle_gamma 90.000000
_cell_volume 4584.180795
_symmetry_space_group_name_H-M "C M C A"
_symmetry_group_IT_number 64
_symmetry_cell_setting 'orthorhombic'
loop_
_space_group_symop_operation_xyz
x,y,z
-x,1/2-y,1/2+z
x,-y,-z
-x,1/2+y,1/2-z
-x,-y,-z
x,1/2+y,1/2-z
-x,y,z
x,1/2-y,1/2+z
1/2+x,1/2+y,z
1/2-x,-y,1/2+z
1/2+x,1/2-y,-z
1/2-x,y,1/2-z
1/2-x,1/2-y,-z
1/2+x,y,1/2-z
1/2-x,1/2+y,z
1/2+x,-y,1/2+z
loop_
_atom_site_type_symbol
_atom_site_label
_atom_site_fract_x
_atom_site_fract_y
_atom_site_fract_z
Si Si1 0.200562 0.378858 0.687470
Si Si2 0.680998 0.155209 0.077025
Si Si3 0.823222 0.092212 0.795713
Si Si4 0.000000 0.088738 0.354117
Si Si5 0.785336 0.000000 0.000000
Si Si6 0.500000 0.180312 0.279305
Si Si7 0.500000 0.907112 0.217648
Si Si8 0.390652 0.350175 0.077543
O O1 0.250000 0.352030 0.750000
O O2 0.244703 0.330075 0.629842
O O3 0.216984 0.492179 0.681431
O O4 0.093334 0.358773 0.692412
O O5 0.590047 0.116294 0.109462
O O6 0.651743 0.255408 0.048516
O O7 0.722551 0.077953 0.032394
O O8 0.750000 0.136921 0.750000
O O9 0.910807 0.067951 0.755758
O O10 0.858124 0.150088 0.852787
O O11 0.000000 0.147091 0.290786
O O12 0.000000 0.976731 0.339111
O O13 0.849532 0.057046 0.953709
O O14 0.500000 0.293753 0.288621
O O15 0.500000 0.349165 0.075188
#
# Coordination Sequence:
#
# PCOD9481891 Si02
#       8
#    16  16  16   8   8   8   8  16
#     4  11  22  40  66  99 143 181 227 284 349 425
#     4  12  26  47  74 101 137 188 232 296 356 420
#     4  11  22  40  68 101 139 183 221 273 346 415
#     4  12  22  45  68  98 143 185 232 277 356 428
#     4  12  29  49  74  98 136 180 250 308 352 402
#     4  12  24  36  61 107 145 185 228 278 345 442
#     4  12  24  36  63 102 146 184 219 270 350 426
#     4  12  26  49  76 103 136 187 241 292 352 418
#
# _framework density 20.941582
#
# number of rings (size 3 to 8) (size 9 to 14) (size 15 to 20)
#    0.000    0.333    6.667    2.750    2.333    0.333 
#    1.500    0.000    0.000    0.000    0.000    0.000 
#    0.000    0.000    0.000    0.000    0.000    0.000 
#
# Total GULP energy -268551.197226 kJ/mol
# GULP energy per Si atom -5594.816609 kJ/mol
# Density = 2.089392 g / cm^3
# Si number density = 20.941582 Si / 1000 Ang^3
#
#
#
# Elastic Constant Matrix: (Units=GPa)
#
#
# Indices 1 2 3 4 5 6 
#
# 1 157.8920 26.9239 45.6615 0.0000 0.0000 0.0000
# 2 26.9239 126.6222 16.1320 0.0000 0.0000 0.0000
# 3 45.6615 16.1320 58.6422 0.0000 0.0000 0.0000
# 4 0.0000 0.0000 0.0000 17.1379 0.0000 0.0000
# 5 0.0000 0.0000 0.0000 0.0000 11.8419 0.0000
# 6 0.0000 0.0000 0.0000 0.0000 0.0000 28.3725
#
#
#
# Elastic Compliance Matrix: (Units=1/GPa)
#
#
# Indices 1 2 3 4 5 6 
#
# 1 0.008288 -0.000974 -0.006186 0.000000 0.000000 0.000000
# 2 -0.000974 0.008299 -0.001524 0.000000 0.000000 0.000000
# 3 -0.006186 -0.001524 0.022288 0.000000 0.000000 0.000000
# 4 0.000000 0.000000 0.000000 0.058350 0.000000 0.000000
# 5 0.000000 0.000000 0.000000 0.000000 0.084446 0.000000
# 6 0.000000 0.000000 0.000000 0.000000 0.000000 0.035245
#
#
# Mechanical properties :
#
#
# Convention : Reuss Voigt Hill
#
# Bulk Modulus (GPa) = 46.49649 57.84346 52.16998
# Shear Modulus (GPa) = 20.70780 28.43305 24.57042
#
# Velocity S-wave (km/s) = 3.14799 3.68874 3.42904
# Velocity P-wave (km/s) = 5.95519 6.76932 6.37526
#
# Compressibility (1/GPa) = 0.02150700
#
# Stress axis : x y z
#
# Youngs Moduli (GPa) = 120.64944 120.49815 44.86634
#
# Poissons Ratio (x) = 0.11740 0.27753
# Poissons Ratio (y) = 0.11755 0.06839
# Poissons Ratio (z) = 0.74631 0.18368
#
# Static dielectric constant tensor:
#      x y z
#    x 1.696310 0.000000 0.000000 
#    y 0.000000 1.817420 0.000000 
#    z 0.000000 0.000000 1.731720 
# 
# From -- ./inp_files/39299.got.cif
#   From: 2010.05.17/outbox.cif.g08.bks.cpg/sg64_20_cif.got.tgz:39299.got - 2010.06.03 16:29:19.
