data_PCOD9481009
_publ_section_title
;
Structure prediction by ZEFSAII (Michael W. Deem and Ramdas Pophale) SiO2 
 PCOD9481009
Probable space group: C M C A
;
_chemical_formula_sum "Si O2"
_cell_formula_units_Z 72
_cell_length_a 27.368595
_cell_length_b 8.465135
_cell_length_c 13.376875
_cell_angle_alpha 90.000000
_cell_angle_beta 90.000000
_cell_angle_gamma 90.000000
_cell_volume 3099.139036
_symmetry_space_group_name_H-M "C M C A"
_symmetry_group_IT_number 64
_symmetry_cell_setting 'orthorhombic'
loop_
_space_group_symop_operation_xyz
x,y,z
-x,1/2-y,1/2+z
x,-y,-z
-x,1/2+y,1/2-z
-x,-y,-z
x,1/2+y,1/2-z
-x,y,z
x,1/2-y,1/2+z
1/2+x,1/2+y,z
1/2-x,-y,1/2+z
1/2+x,1/2-y,-z
1/2-x,y,1/2-z
1/2-x,1/2-y,-z
1/2+x,y,1/2-z
1/2-x,1/2+y,z
1/2+x,-y,1/2+z
loop_
_atom_site_type_symbol
_atom_site_label
_atom_site_fract_x
_atom_site_fract_y
_atom_site_fract_z
Si Si1 0.110008 0.831143 0.865545
Si Si2 0.225328 0.000000 0.500000
Si Si3 0.283360 0.229852 0.349909
Si Si4 0.444676 0.317126 0.527144
Si Si5 0.055486 0.128600 0.780724
O O1 0.165082 0.853971 0.829228
O O2 0.088766 0.678149 0.810189
O O3 0.077130 0.979396 0.837107
O O4 0.098474 0.787789 0.979688
O O5 0.255474 0.883397 0.572458
O O6 0.201929 0.884734 0.415970
O O7 0.250000 0.258498 0.250000
O O8 0.439063 0.500000 0.500000
O O9 0.500000 0.267747 0.492667
O O10 0.443760 0.277693 0.643901
O O11 0.000000 0.099333 0.749908
#
# Coordination Sequence:
#
# PCOD9481009 Si02
#       5
#    16   8  16  16  16
#     4  12  26  40  72  99 138 185 239 283 361 426
#     4  10  26  50  74 102 148 182 238 308 374 426
#     4  11  27  47  77 105 146 184 242 307 366 441
#     4  10  22  42  67  99 142 184 228 284 346 421
#     4  11  24  42  66 102 146 187 235 287 347 425
#
# _framework density 23.232257000000001
#
# number of rings (size 3 to 8) (size 9 to 14) (size 15 to 20)
#    0.000    1.111    0.000    4.667   10.889    5.333 
#    0.000    0.000    0.000    0.000    0.000    0.000 
#    0.000    0.000    0.000    0.000    0.000    0.000 
#
# Total GULP energy -201083.233904 kJ/mol
# GULP energy per Si atom -5585.645386 kJ/mol
# Density = 2.317938 g / cm^3
# Si number density = 23.232257 Si / 1000 Ang^3
#
#
#
# Elastic Constant Matrix: (Units=GPa)
#
#
# Indices 1 2 3 4 5 6 
#
# 1 75.4624 -23.6347 26.6066 0.0000 0.0000 0.0000
# 2 -23.6347 45.2083 4.0944 0.0000 0.0000 0.0000
# 3 26.6066 4.0944 105.4806 0.0000 0.0000 0.0000
# 4 0.0000 0.0000 0.0000 41.7534 0.0000 0.0000
# 5 0.0000 0.0000 0.0000 0.0000 22.4562 0.0000
# 6 0.0000 0.0000 0.0000 0.0000 0.0000 564.1259
#
#
#
# Elastic Compliance Matrix: (Units=1/GPa)
#
#
# Indices 1 2 3 4 5 6 
#
# 1 0.018101 0.009912 -0.004951 0.000000 0.000000 0.000000
# 2 0.009912 0.027625 -0.003572 0.000000 0.000000 0.000000
# 3 -0.004951 -0.003572 0.010868 0.000000 0.000000 0.000000
# 4 0.000000 0.000000 0.000000 0.023950 0.000000 0.000000
# 5 0.000000 0.000000 0.000000 0.000000 0.044531 0.000000
# 6 0.000000 0.000000 0.000000 0.000000 0.000000 0.001773
#
#
# Mechanical properties :
#
#
# Convention : Reuss Voigt Hill
#
# Bulk Modulus (GPa) = 16.84306 26.69822 21.77064
# Shear Modulus (GPa) = 34.75556 140.27276 87.51416
#
# Velocity S-wave (km/s) = 3.87202 7.77879 6.14419
# Velocity P-wave (km/s) = 5.22069 9.60188 7.72825
#
# Compressibility (1/GPa) = 0.05937165
#
# Stress axis : x y z
#
# Youngs Moduli (GPa) = 55.24406 36.19889 92.01442
#
# Poissons Ratio (x) = -0.35879 0.45554
# Poissons Ratio (y) = -0.54756 0.32872
# Poissons Ratio (z) = 0.27350 0.12932
#
# Static dielectric constant tensor:
#      x y z
#    x 1.843960 0.000000 0.000000 
#    y 0.000000 1.868810 0.000000 
#    z 0.000000 0.000000 2.185370 
# 
# From -- ./inp_files/27792.got.cif
#   From: 2010.05.17/outbox.cif.g08.bks.cpg/sg64_14_cif.got.tgz:27792.got - 2010.06.03 16:29:19.
