data_PCOD9481578
_publ_section_title
;
Structure prediction by ZEFSAII (Michael W. Deem and Ramdas Pophale) SiO2 
 PCOD9481578
Probable space group: C M C A
;
_chemical_formula_sum "Si O2"
_cell_formula_units_Z 80
_cell_length_a 28.804322
_cell_length_b 7.717721
_cell_length_c 12.911234
_cell_angle_alpha 90.000000
_cell_angle_beta 90.000000
_cell_angle_gamma 90.000000
_cell_volume 2870.215358
_symmetry_space_group_name_H-M "C M C A"
_symmetry_group_IT_number 64
_symmetry_cell_setting 'orthorhombic'
loop_
_space_group_symop_operation_xyz
x,y,z
-x,1/2-y,1/2+z
x,-y,-z
-x,1/2+y,1/2-z
-x,-y,-z
x,1/2+y,1/2-z
-x,y,z
x,1/2-y,1/2+z
1/2+x,1/2+y,z
1/2-x,-y,1/2+z
1/2+x,1/2-y,-z
1/2-x,y,1/2-z
1/2-x,1/2-y,-z
1/2+x,y,1/2-z
1/2-x,1/2+y,z
1/2+x,-y,1/2+z
loop_
_atom_site_type_symbol
_atom_site_label
_atom_site_fract_x
_atom_site_fract_y
_atom_site_fract_z
Si Si1 0.580954 0.087799 0.166759
Si Si2 0.254217 0.778394 0.130994
Si Si3 0.651197 0.135555 0.626052
Si Si4 0.000000 0.766497 0.533499
Si Si5 0.140342 0.239670 0.606605
Si Si6 0.000000 0.419297 0.667466
O O1 0.620772 0.231352 0.191968
O O2 0.546893 0.148961 0.074751
O O3 0.605046 0.410944 0.366504
O O4 0.544729 0.075118 0.260608
O O5 0.250000 0.685612 0.250000
O O6 0.206511 0.885619 0.139222
O O7 0.308006 0.829696 0.136370
O O8 0.250000 0.750000 0.000000
O O9 0.643857 0.229297 0.516723
O O10 0.632487 0.942379 0.634151
O O11 0.000000 0.584429 0.593954
O O12 0.000000 0.742183 0.410575
#
# Coordination Sequence:
#
# PCOD9481578 Si02
#       6
#    16  16  16   8  16   8
#     4  11  25  55  88 131 168 239 299 369 473 564
#     4  10  24  50  80 125 184 248 317 387 462 552
#     4  10  24  50  81 130 179 240 299 386 448 546
#     4  10  26  60  88 127 176 222 293 391 475 546
#     4  10  24  49  84 126 184 237 305 372 459 550
#     4  10  26  58  90 127 177 225 299 388 468 569
#
# _framework density 27.872474
#
# number of rings (size 3 to 8) (size 9 to 14) (size 15 to 20)
#    0.000    1.800    0.000    0.600    2.800    5.600 
#   36.000   11.000    0.000    7.200    0.000    0.000 
#    0.000    0.000    0.000    0.000    0.000    0.000 
#
# Total GULP energy -223292.668870 kJ/mol
# GULP energy per Si atom -5582.316722 kJ/mol
# Density = 2.780903 g / cm^3
# Si number density = 27.872474 Si / 1000 Ang^3
#
#
#
# Elastic Constant Matrix: (Units=GPa)
#
#
# Indices 1 2 3 4 5 6 
#
# 1 267.2724 98.5155 71.2681 0.0000 0.0000 0.0000
# 2 98.5155 137.5368 60.8550 0.0000 0.0000 0.0000
# 3 71.2681 60.8550 200.0069 0.0000 0.0000 0.0000
# 4 0.0000 0.0000 0.0000 165.3640 0.0000 0.0000
# 5 0.0000 0.0000 0.0000 0.0000 61.8274 0.0000
# 6 0.0000 0.0000 0.0000 0.0000 0.0000 19.8795
#
#
#
# Elastic Compliance Matrix: (Units=1/GPa)
#
#
# Indices 1 2 3 4 5 6 
#
# 1 0.005201 -0.003357 -0.000832 0.000000 0.000000 0.000000
# 2 -0.003357 0.010569 -0.002020 0.000000 0.000000 0.000000
# 3 -0.000832 -0.002020 0.005911 0.000000 0.000000 0.000000
# 4 0.000000 0.000000 0.000000 0.006047 0.000000 0.000000
# 5 0.000000 0.000000 0.000000 0.000000 0.016174 0.000000
# 6 0.000000 0.000000 0.000000 0.000000 0.000000 0.050303
#
#
# Mechanical properties :
#
#
# Convention : Reuss Voigt Hill
#
# Bulk Modulus (GPa) = 107.94932 118.45478 113.20205
# Shear Modulus (GPa) = 45.57485 74.35934 59.96710
#
# Velocity S-wave (km/s) = 4.04805 5.17072 4.64344
# Velocity P-wave (km/s) = 7.78863 8.84531 8.33374
#
# Compressibility (1/GPa) = 0.00926361
#
# Stress axis : x y z
#
# Youngs Moduli (GPa) = 192.28100 94.61576 169.18616
#
# Poissons Ratio (x) = 0.31764 0.14071
# Poissons Ratio (y) = 0.64553 0.34168
# Poissons Ratio (z) = 0.15992 0.19108
#
# Static dielectric constant tensor:
#      x y z
#    x 2.031880 0.000000 0.000000 
#    y 0.000000 2.217890 0.000000 
#    z 0.000000 0.000000 2.447890 
# 
# From -- ./inp_files/19636.got.cif
#   From: 2010.05.17/outbox.cif.g08.bks.cpg/sg64_10_cif.got.tgz:19636.got - 2010.06.03 16:29:19.
