data_PCOD9481526
_publ_section_title
;
Structure prediction by ZEFSAII (Michael W. Deem and Ramdas Pophale) SiO2 
 PCOD9481526
Probable space group: C M C A
;
_chemical_formula_sum "Si O2"
_cell_formula_units_Z 64
_cell_length_a 24.213726
_cell_length_b 11.878727
_cell_length_c 8.913116
_cell_angle_alpha 90.000000
_cell_angle_beta 90.000000
_cell_angle_gamma 90.000000
_cell_volume 2563.663875
_symmetry_space_group_name_H-M "C M C A"
_symmetry_group_IT_number 64
_symmetry_cell_setting 'orthorhombic'
loop_
_space_group_symop_operation_xyz
x,y,z
-x,1/2-y,1/2+z
x,-y,-z
-x,1/2+y,1/2-z
-x,-y,-z
x,1/2+y,1/2-z
-x,y,z
x,1/2-y,1/2+z
1/2+x,1/2+y,z
1/2-x,-y,1/2+z
1/2+x,1/2-y,-z
1/2-x,y,1/2-z
1/2-x,1/2-y,-z
1/2+x,y,1/2-z
1/2-x,1/2+y,z
1/2+x,-y,1/2+z
loop_
_atom_site_type_symbol
_atom_site_label
_atom_site_fract_x
_atom_site_fract_y
_atom_site_fract_z
Si Si1 0.588566 0.227003 0.030880
Si Si2 0.351733 0.439923 0.341041
Si Si3 0.440396 0.085550 0.310004
Si Si4 0.787981 0.762834 0.144649
O O1 0.597606 0.139900 0.894645
O O2 0.566584 0.341460 0.960595
O O3 0.557424 0.169890 0.167172
O O4 0.651160 0.238125 0.088468
O O5 0.333989 0.500000 0.500000
O O6 0.383280 0.520375 0.223819
O O7 0.304607 0.368054 0.256904
O O8 0.500000 0.025430 0.313301
O O9 0.750000 0.683596 0.250000
O O10 0.750000 0.750000 0.000000
#
# Coordination Sequence:
#
# PCOD9481526 Si02
#       4
#    16  16  16  16
#     4  11  22  46  71 103 147 191 258 309 369 466
#     4  10  24  45  69 110 150 189 256 316 369 465
#     4  11  24  44  73 103 148 201 251 313 382 445
#     4  12  23  46  77 104 147 198 246 311 383 452
#
# _framework density 24.964269999999999
#
# number of rings (size 3 to 8) (size 9 to 14) (size 15 to 20)
#    0.000    1.000    5.000    0.750    0.000    6.500 
#    4.500    3.750    0.000    0.000    0.000    0.000 
#    0.000    0.000    0.000    0.000    0.000    0.000 
#
# Total GULP energy -178182.812120 kJ/mol
# GULP energy per Si atom -5568.212879 kJ/mol
# Density = 2.490745 g / cm^3
# Si number density = 24.964270 Si / 1000 Ang^3
#
#
#
# Elastic Constant Matrix: (Units=GPa)
#
#
# Indices 1 2 3 4 5 6 
#
# 1 160.9069 15.1048 35.5498 0.0000 0.0000 0.0000
# 2 15.1048 58.4893 34.7058 0.0000 0.0000 0.0000
# 3 35.5498 34.7058 104.7126 0.0000 0.0000 0.0000
# 4 0.0000 0.0000 0.0000 58.3060 0.0000 0.0000
# 5 0.0000 0.0000 0.0000 0.0000 -9.8615 0.0000
# 6 0.0000 0.0000 0.0000 0.0000 0.0000 -2.3947
#
#
#
# Elastic Compliance Matrix: (Units=1/GPa)
#
#
# Indices 1 2 3 4 5 6 
#
# 1 0.006729 -0.000476 -0.002127 0.000000 0.000000 0.000000
# 2 -0.000476 0.021316 -0.006904 0.000000 0.000000 0.000000
# 3 -0.002127 -0.006904 0.012560 0.000000 0.000000 0.000000
# 4 0.000000 0.000000 0.000000 0.017151 0.000000 0.000000
# 5 0.000000 0.000000 0.000000 0.000000 -0.101404 0.000000
# 6 0.000000 0.000000 0.000000 0.000000 0.000000 -0.417593
#
#
# Mechanical properties :
#
#
# Convention : Reuss Voigt Hill
#
# Bulk Modulus (GPa) = 46.31054 54.98106 50.64580
# Shear Modulus (GPa) = -11.49347 25.12651 6.81652
#
# Velocity S-wave (km/s) = -2.14801 3.17598 1.65422
# Velocity P-wave (km/s) = 3.52690 5.95994 4.89693
#
# Compressibility (1/GPa) = 0.02159336
#
# Stress axis : x y z
#
# Youngs Moduli (GPa) = 148.60288 46.91231 79.61705
#
# Poissons Ratio (x) = 0.02232 0.16934
# Poissons Ratio (y) = 0.07071 0.54964
# Poissons Ratio (z) = 0.31606 0.32386
#
# Static dielectric constant tensor:
#      x y z
#    x 2.064660 0.000000 0.000000 
#    y 0.000000 2.193840 0.000000 
#    z 0.000000 0.000000 1.800580 
# 
# From -- ./inp_files/8936.got.cif
#   From: 2010.05.17/outbox.cif.g08.bks.cpg/sg64_5_cif.got.tgz:8936.got - 2010.06.03 16:29:19.
