data_PCOD9481142
_publ_section_title
;
Structure prediction by ZEFSAII (Michael W. Deem and Ramdas Pophale) SiO2 
 PCOD9481142
Probable space group: C M C A
;
_chemical_formula_sum "Si O2"
_cell_formula_units_Z 72
_cell_length_a 25.490823
_cell_length_b 9.618592
_cell_length_c 13.936131
_cell_angle_alpha 90.000000
_cell_angle_beta 90.000000
_cell_angle_gamma 90.000000
_cell_volume 3416.941793
_symmetry_space_group_name_H-M "C M C A"
_symmetry_group_IT_number 64
_symmetry_cell_setting 'orthorhombic'
loop_
_space_group_symop_operation_xyz
x,y,z
-x,1/2-y,1/2+z
x,-y,-z
-x,1/2+y,1/2-z
-x,-y,-z
x,1/2+y,1/2-z
-x,y,z
x,1/2-y,1/2+z
1/2+x,1/2+y,z
1/2-x,-y,1/2+z
1/2+x,1/2-y,-z
1/2-x,y,1/2-z
1/2-x,1/2-y,-z
1/2+x,y,1/2-z
1/2-x,1/2+y,z
1/2+x,-y,1/2+z
loop_
_atom_site_type_symbol
_atom_site_label
_atom_site_fract_x
_atom_site_fract_y
_atom_site_fract_z
Si Si1 0.251416 0.881286 0.930563
Si Si2 0.090153 0.745891 0.727718
Si Si3 0.500000 0.827307 0.121991
Si Si4 0.500000 0.657246 0.409752
Si Si5 0.250000 0.307305 0.250000
Si Si6 0.337170 0.995549 0.703339
O O1 0.268368 0.796742 0.833873
O O2 0.198102 0.952461 0.888403
O O3 0.250000 0.750000 0.000000
O O4 0.276775 0.000000 0.000000
O O5 0.051636 0.712694 0.817459
O O6 0.051960 0.799310 0.645801
O O7 0.117901 0.608560 0.687997
O O8 0.132939 0.861033 0.756986
O O9 0.500000 0.991095 0.100782
O O10 0.500000 0.772113 0.013930
O O11 0.297182 0.415571 0.272143
#
# Coordination Sequence:
#
# PCOD9481142 Si02
#       6
#    16  16   8   8   8  16
#     4  12  27  45  71 105 145 197 249 303 362 428
#     4  11  24  44  73 109 144 190 241 307 370 440
#     4  10  22  45  74 107 142 185 242 303 374 442
#     4  10  22  45  74 105 142 187 235 308 376 442
#     4  12  26  48  74 100 156 200 244 310 366 426
#     4  12  25  44  73 104 147 198 248 299 364 437
#
# _framework density 21.071473000000001
#
# number of rings (size 3 to 8) (size 9 to 14) (size 15 to 20)
#    0.000    0.667    6.667    0.667    0.000    1.778 
#    0.000    1.111    4.889    0.000    0.000    0.000 
#    0.000    0.000    0.000    0.000    0.000    0.000 
#
# Total GULP energy -200502.450617 kJ/mol
# GULP energy per Si atom -5569.512517 kJ/mol
# Density = 2.102351 g / cm^3
# Si number density = 21.071473 Si / 1000 Ang^3
#
#
#
# Elastic Constant Matrix: (Units=GPa)
#
#
# Indices 1 2 3 4 5 6 
#
# 1 107.1913 40.9019 44.9524 0.0000 0.0000 0.0000
# 2 40.9019 157.4588 35.0200 0.0000 0.0000 0.0000
# 3 44.9524 35.0200 116.6047 0.0000 0.0000 0.0000
# 4 0.0000 0.0000 0.0000 37.1271 0.0000 0.0000
# 5 0.0000 0.0000 0.0000 0.0000 43.0207 0.0000
# 6 0.0000 0.0000 0.0000 0.0000 0.0000 32.1100
#
#
#
# Elastic Compliance Matrix: (Units=1/GPa)
#
#
# Indices 1 2 3 4 5 6 
#
# 1 0.011799 -0.002200 -0.003888 0.000000 0.000000 0.000000
# 2 -0.002200 0.007216 -0.001319 0.000000 0.000000 0.000000
# 3 -0.003888 -0.001319 0.010471 0.000000 0.000000 0.000000
# 4 0.000000 0.000000 0.000000 0.026934 0.000000 0.000000
# 5 0.000000 0.000000 0.000000 0.000000 0.023245 0.000000
# 6 0.000000 0.000000 0.000000 0.000000 0.000000 0.031143
#
#
# Mechanical properties :
#
#
# Convention : Reuss Voigt Hill
#
# Bulk Modulus (GPa) = 68.15842 69.22260 68.69051
# Shear Modulus (GPa) = 38.31049 39.81026 39.06037
#
# Velocity S-wave (km/s) = 4.26857 4.35132 4.31014
# Velocity P-wave (km/s) = 7.53065 7.62679 7.57888
#
# Compressibility (1/GPa) = 0.01467170
#
# Stress axis : x y z
#
# Youngs Moduli (GPa) = 84.75188 138.58586 95.50271
#
# Poissons Ratio (x) = 0.30493 0.37130
# Poissons Ratio (y) = 0.18648 0.12596
# Poissons Ratio (z) = 0.32951 0.18278
#
# Static dielectric constant tensor:
#      x y z
#    x 1.758910 0.000000 0.000000 
#    y 0.000000 1.781050 0.000000 
#    z 0.000000 0.000000 1.843310 
# 
# From -- ./inp_files/27867.got.cif
#   From: 2010.05.17/outbox.cif.g08.bks.cpg/sg64_14_cif.got.tgz:27867.got - 2010.06.03 16:29:19.
