data_PCOD9481329
_publ_section_title
;
Structure prediction by ZEFSAII (Michael W. Deem and Ramdas Pophale) SiO2 
 PCOD9481329
Probable space group: C M C A
;
_chemical_formula_sum "Si O2"
_cell_formula_units_Z 116
_cell_length_a 19.543663
_cell_length_b 11.050774
_cell_length_c 27.240275
_cell_angle_alpha 90.000000
_cell_angle_beta 90.000000
_cell_angle_gamma 90.000000
_cell_volume 5883.153097
_symmetry_space_group_name_H-M "C M C A"
_symmetry_group_IT_number 64
_symmetry_cell_setting 'orthorhombic'
loop_
_space_group_symop_operation_xyz
x,y,z
-x,1/2-y,1/2+z
x,-y,-z
-x,1/2+y,1/2-z
-x,-y,-z
x,1/2+y,1/2-z
-x,y,z
x,1/2-y,1/2+z
1/2+x,1/2+y,z
1/2-x,-y,1/2+z
1/2+x,1/2-y,-z
1/2-x,y,1/2-z
1/2-x,1/2-y,-z
1/2+x,y,1/2-z
1/2-x,1/2+y,z
1/2+x,-y,1/2+z
loop_
_atom_site_type_symbol
_atom_site_label
_atom_site_fract_x
_atom_site_fract_y
_atom_site_fract_z
Si Si1 0.866662 0.077408 0.952051
Si Si2 0.173288 0.116324 0.119786
Si Si3 0.580728 0.471620 0.279362
Si Si4 0.080445 0.697559 0.293137
Si Si5 0.000000 0.500000 0.000000
Si Si6 0.790795 0.334528 0.050947
Si Si7 0.115931 0.165178 0.454846
Si Si8 0.821852 0.965900 0.630416
O O1 0.787728 0.124766 0.954014
O O2 0.910888 0.197982 0.954186
O O3 0.869527 0.992886 0.904365
O O4 0.880681 0.000000 0.000000
O O5 0.128481 0.187300 0.159327
O O6 0.196570 0.203016 0.074763
O O7 0.243290 0.064693 0.143199
O O8 0.500000 0.481520 0.292807
O O9 0.592347 0.328595 0.266936
O O10 0.593081 0.576472 0.239010
O O11 0.630506 0.502268 0.324316
O O12 0.000000 0.696143 0.306864
O O13 0.058985 0.431351 0.967491
O O14 0.821477 0.425751 0.091023
O O15 0.828485 0.345409 0.998957
O O16 0.148166 0.143408 0.401612
#
# Coordination Sequence:
#
# PCOD9481329 Si02
#       8
#    16  16  16  16   4  16  16  16
#     4  11  22  36  62  95 127 173 210 260 316 376
#     4  11  22  39  65  97 130 170 211 265 326 379
#     4  10  23  43  71  93 123 169 212 264 327 397
#     4  10  23  47  69  94 125 165 215 265 330 396
#     4  12  28  40  58  84 128 184 210 274 300 360
#     4  11  19  38  63  91 131 167 210 257 314 378
#     4  12  23  40  58  93 131 170 222 257 305 369
#     4  11  22  37  64  97 126 164 215 265 312 379
#
# _framework density 19.717317000000001
#
# number of rings (size 3 to 8) (size 9 to 14) (size 15 to 20)
#    0.000    1.103    5.517    2.069    0.966    1.655 
#    2.483    1.724    0.000    0.000    0.000    0.000 
#    0.000    0.000    0.000    0.000    0.000    0.000 
#
# Total GULP energy -323166.064078 kJ/mol
# GULP energy per Si atom -5571.828691 kJ/mol
# Density = 1.967244 g / cm^3
# Si number density = 19.717317 Si / 1000 Ang^3
#
#
#
# Elastic Constant Matrix: (Units=GPa)
#
#
# Indices 1 2 3 4 5 6 
#
# 1 39.9012 20.3281 27.4972 0.0000 0.0000 0.0000
# 2 20.3281 93.6226 26.2083 0.0000 0.0000 0.0000
# 3 27.4972 26.2083 56.6492 0.0000 0.0000 0.0000
# 4 0.0000 0.0000 0.0000 36.6358 0.0000 0.0000
# 5 0.0000 0.0000 0.0000 0.0000 16.3853 0.0000
# 6 0.0000 0.0000 0.0000 0.0000 0.0000 11.0655
#
#
#
# Elastic Compliance Matrix: (Units=1/GPa)
#
#
# Indices 1 2 3 4 5 6 
#
# 1 0.038693 -0.003612 -0.017111 0.000000 0.000000 0.000000
# 2 -0.003612 0.012607 -0.004080 0.000000 0.000000 0.000000
# 3 -0.017111 -0.004080 0.027845 0.000000 0.000000 0.000000
# 4 0.000000 0.000000 0.000000 0.027296 0.000000 0.000000
# 5 0.000000 0.000000 0.000000 0.000000 0.061030 0.000000
# 6 0.000000 0.000000 0.000000 0.000000 0.000000 0.090371
#
#
# Mechanical properties :
#
#
# Convention : Reuss Voigt Hill
#
# Bulk Modulus (GPa) = 33.84977 37.58224 35.71601
# Shear Modulus (GPa) = 15.75823 20.55994 18.15908
#
# Velocity S-wave (km/s) = 2.83009 3.23264 3.03804
# Velocity P-wave (km/s) = 5.28053 5.74763 5.51902
#
# Compressibility (1/GPa) = 0.02954230
#
# Stress axis : x y z
#
# Youngs Moduli (GPa) = 25.84422 79.31852 35.91265
#
# Poissons Ratio (x) = 0.28646 0.61449
# Poissons Ratio (y) = 0.09334 0.14651
# Poissons Ratio (z) = 0.44221 0.32359
#
# Static dielectric constant tensor:
#      x y z
#    x 1.653250 0.000000 0.000000 
#    y 0.000000 1.782560 0.000000 
#    z 0.000000 0.000000 1.656740 
# 
# From -- ./inp_files/50479.got.cif
#   From: 2010.05.17/outbox.cif.g08.bks.cpg/sg64_26_cif.got.tgz:50479.got - 2010.06.03 16:29:19.
