data_PCOD9481022
_publ_section_title
;
Structure prediction by ZEFSAII (Michael W. Deem and Ramdas Pophale) SiO2 
 PCOD9481022
Probable space group: C M C A
;
_chemical_formula_sum "Si O2"
_cell_formula_units_Z 80
_cell_length_a 21.940375
_cell_length_b 11.439538
_cell_length_c 15.680418
_cell_angle_alpha 90.000000
_cell_angle_beta 90.000000
_cell_angle_gamma 90.000000
_cell_volume 3935.592888
_symmetry_space_group_name_H-M "C M C A"
_symmetry_group_IT_number 64
_symmetry_cell_setting 'orthorhombic'
loop_
_space_group_symop_operation_xyz
x,y,z
-x,1/2-y,1/2+z
x,-y,-z
-x,1/2+y,1/2-z
-x,-y,-z
x,1/2+y,1/2-z
-x,y,z
x,1/2-y,1/2+z
1/2+x,1/2+y,z
1/2-x,-y,1/2+z
1/2+x,1/2-y,-z
1/2-x,y,1/2-z
1/2-x,1/2-y,-z
1/2+x,y,1/2-z
1/2-x,1/2+y,z
1/2+x,-y,1/2+z
loop_
_atom_site_type_symbol
_atom_site_label
_atom_site_fract_x
_atom_site_fract_y
_atom_site_fract_z
Si Si1 0.312970 0.139605 0.288302
Si Si2 0.067464 0.017022 0.762415
Si Si3 0.212363 0.868583 0.988666
Si Si4 0.429543 0.440960 0.583144
Si Si5 0.365737 0.790868 0.353750
O O1 0.250000 0.085727 0.250000
O O2 0.374852 0.065576 0.278452
O O3 0.307465 0.147308 0.390143
O O4 0.323019 0.253416 0.226789
O O5 0.069381 0.032472 0.660666
O O6 0.000000 0.967942 0.782287
O O7 0.079934 0.133641 0.814238
O O8 0.250000 0.750000 0.000000
O O9 0.164723 0.860113 0.067790
O O10 0.239818 0.000000 0.000000
O O11 0.403638 0.500000 0.500000
O O12 0.500000 0.405854 0.567363
O O13 0.390958 0.329361 0.608746
#
# Coordination Sequence:
#
# PCOD9481022 Si02
#       5
#    16  16  16  16  16
#     4  11  24  45  69 102 138 186 237 297 360 423
#     4  10  22  42  68  98 143 188 235 293 361 436
#     4  12  26  47  69 104 143 187 242 299 362 431
#     4   9  20  39  62  95 134 181 240 291 346 420
#     4  11  23  40  68  98 137 184 233 297 357 431
#
# _framework density 20.327306
#
# number of rings (size 3 to 8) (size 9 to 14) (size 15 to 20)
#    0.000    1.400    4.000    0.600    2.800    4.000 
#    0.000    3.000    0.000    0.000    0.000    0.000 
#    0.000    0.000    0.000    0.000    0.000    0.000 
#
# Total GULP energy -222720.203786 kJ/mol
# GULP energy per Si atom -5568.005095 kJ/mol
# Density = 2.028104 g / cm^3
# Si number density = 20.327306 Si / 1000 Ang^3
#
#
#
# Elastic Constant Matrix: (Units=GPa)
#
#
# Indices 1 2 3 4 5 6 
#
# 1 108.7988 34.8871 52.0151 0.0000 0.0000 0.0000
# 2 34.8871 81.8071 53.9884 0.0000 0.0000 0.0000
# 3 52.0151 53.9884 160.9652 0.0000 0.0000 0.0000
# 4 0.0000 0.0000 0.0000 19.6580 0.0000 0.0000
# 5 0.0000 0.0000 0.0000 0.0000 21.6919 0.0000
# 6 0.0000 0.0000 0.0000 0.0000 0.0000 30.3052
#
#
#
# Elastic Compliance Matrix: (Units=1/GPa)
#
#
# Indices 1 2 3 4 5 6 
#
# 1 0.011466 -0.003139 -0.002652 0.000000 0.000000 0.000000
# 2 -0.003139 0.016558 -0.004539 0.000000 0.000000 0.000000
# 3 -0.002652 -0.004539 0.008592 0.000000 0.000000 0.000000
# 4 0.000000 0.000000 0.000000 0.050870 0.000000 0.000000
# 5 0.000000 0.000000 0.000000 0.000000 0.046100 0.000000
# 6 0.000000 0.000000 0.000000 0.000000 0.000000 0.032998
#
#
# Mechanical properties :
#
#
# Convention : Reuss Voigt Hill
#
# Bulk Modulus (GPa) = 62.67771 70.37248 66.52510
# Shear Modulus (GPa) = 25.96539 28.37637 27.17088
#
# Velocity S-wave (km/s) = 3.57790 3.74033 3.66001
# Velocity P-wave (km/s) = 6.92602 7.30399 7.11751
#
# Compressibility (1/GPa) = 0.01595463
#
# Stress axis : x y z
#
# Youngs Moduli (GPa) = 87.21491 60.39239 116.38665
#
# Poissons Ratio (x) = 0.18960 0.30868
# Poissons Ratio (y) = 0.27380 0.52831
# Poissons Ratio (z) = 0.23131 0.27414
#
# Static dielectric constant tensor:
#      x y z
#    x 1.775490 0.000000 0.000000 
#    y 0.000000 1.798970 0.000000 
#    z 0.000000 0.000000 1.361090 
# 
# From -- ./inp_files/27062.got.cif
#   From: 2010.05.17/outbox.cif.g08.bks.cpg/sg64_14_cif.got.tgz:27062.got - 2010.06.03 16:29:19.
