data_PCOD9481278
_publ_section_title
;
Structure prediction by ZEFSAII (Michael W. Deem and Ramdas Pophale) SiO2 
 PCOD9481278
Probable space group: C M C A
;
_chemical_formula_sum "Si O2"
_cell_formula_units_Z 52
_cell_length_a 15.262649
_cell_length_b 12.378337
_cell_length_c 12.602035
_cell_angle_alpha 90.000000
_cell_angle_beta 90.000000
_cell_angle_gamma 90.000000
_cell_volume 2380.854747
_symmetry_space_group_name_H-M "C M C A"
_symmetry_group_IT_number 64
_symmetry_cell_setting 'orthorhombic'
loop_
_space_group_symop_operation_xyz
x,y,z
-x,1/2-y,1/2+z
x,-y,-z
-x,1/2+y,1/2-z
-x,-y,-z
x,1/2+y,1/2-z
-x,y,z
x,1/2-y,1/2+z
1/2+x,1/2+y,z
1/2-x,-y,1/2+z
1/2+x,1/2-y,-z
1/2-x,y,1/2-z
1/2-x,1/2-y,-z
1/2+x,y,1/2-z
1/2-x,1/2+y,z
1/2+x,-y,1/2+z
loop_
_atom_site_type_symbol
_atom_site_label
_atom_site_fract_x
_atom_site_fract_y
_atom_site_fract_z
Si Si1 0.000000 0.500000 0.000000
Si Si2 0.000000 0.900717 0.281918
Si Si3 0.000000 0.778842 0.614222
Si Si4 0.832090 0.986399 0.824682
Si Si5 0.331506 0.171576 0.508915
O O1 0.000000 0.593004 0.096083
O O2 0.000000 0.405190 0.091302
O O3 0.000000 0.779726 0.230223
O O4 0.086142 0.962052 0.236843
O O5 0.913809 0.731702 0.558359
O O6 0.750000 0.961075 0.750000
O O7 0.855102 0.883392 0.896821
O O8 0.804310 0.077673 0.909178
O O9 0.250000 0.250000 0.500000
#
# Coordination Sequence:
#
# PCOD9481278 Si02
#       5
#     4   8   8  16  16
#     4  12  28  44  84 104 140 182 260 284 348 448
#     4  10  25  47  69 103 144 184 230 296 360 416
#     4  10  25  47  69 103 142 184 232 300 358 416
#     4  10  23  42  67  97 139 186 237 292 357 424
#     4  10  23  42  67  97 139 186 237 292 357 424
#
# _framework density 21.840896999999998
#
# number of rings (size 3 to 8) (size 9 to 14) (size 15 to 20)
#    0.000    1.846    0.000    0.923    8.615    7.385 
#    0.000    0.000    0.000    0.000    0.000    0.000 
#    0.000    0.000    0.000    0.000    0.000    0.000 
#
# Total GULP energy -144867.550049 kJ/mol
# GULP energy per Si atom -5571.828848 kJ/mol
# Density = 2.179119 g / cm^3
# Si number density = 21.840897 Si / 1000 Ang^3
#
#
#
# Elastic Constant Matrix: (Units=GPa)
#
#
# Indices 1 2 3 4 5 6 
#
# 1 67.8262 9.8712 28.0847 0.0000 0.0000 0.0000
# 2 9.8712 106.2612 40.8834 0.0000 0.0000 0.0000
# 3 28.0847 40.8834 137.8661 0.0000 0.0000 0.0000
# 4 0.0000 0.0000 0.0000 25.9283 0.0000 0.0000
# 5 0.0000 0.0000 0.0000 0.0000 27.6523 0.0000
# 6 0.0000 0.0000 0.0000 0.0000 0.0000 9.3934
#
#
#
# Elastic Compliance Matrix: (Units=1/GPa)
#
#
# Indices 1 2 3 4 5 6 
#
# 1 0.016108 -0.000264 -0.003203 0.000000 0.000000 0.000000
# 2 -0.000264 0.010627 -0.003098 0.000000 0.000000 0.000000
# 3 -0.003203 -0.003098 0.008825 0.000000 0.000000 0.000000
# 4 0.000000 0.000000 0.000000 0.038568 0.000000 0.000000
# 5 0.000000 0.000000 0.000000 0.000000 0.036163 0.000000
# 6 0.000000 0.000000 0.000000 0.000000 0.000000 0.106457
#
#
# Mechanical properties :
#
#
# Convention : Reuss Voigt Hill
#
# Bulk Modulus (GPa) = 44.58239 52.18137 48.38188
# Shear Modulus (GPa) = 21.06552 28.13576 24.60064
#
# Velocity S-wave (km/s) = 3.10901 3.59306 3.35976
# Velocity P-wave (km/s) = 5.77448 6.41537 6.10334
#
# Compressibility (1/GPa) = 0.02243038
#
# Stress axis : x y z
#
# Youngs Moduli (GPa) = 62.07972 94.09914 113.32076
#
# Poissons Ratio (x) = 0.02484 0.36298
# Poissons Ratio (y) = 0.01639 0.35103
# Poissons Ratio (z) = 0.19885 0.29148
#
# Static dielectric constant tensor:
#      x y z
#    x 1.709100 0.000000 0.000000 
#    y 0.000000 1.806870 0.000000 
#    z 0.000000 0.000000 1.839020 
# 
# From -- ./inp_files/15341.got.cif
#   From: 2010.05.17/outbox.cif.g08.bks.cpg/sg64_8_cif.got.tgz:15341.got - 2010.06.03 16:29:19.
