data_PCOD9481577
_publ_section_title
;
Structure prediction by ZEFSAII (Michael W. Deem and Ramdas Pophale) SiO2 
 PCOD9481577
Probable space group: C M C A
;
_chemical_formula_sum "Si O2"
_cell_formula_units_Z 72
_cell_length_a 22.689633
_cell_length_b 8.059570
_cell_length_c 14.686680
_cell_angle_alpha 90.000000
_cell_angle_beta 90.000000
_cell_angle_gamma 90.000000
_cell_volume 2685.733865
_symmetry_space_group_name_H-M "C M C A"
_symmetry_group_IT_number 64
_symmetry_cell_setting 'orthorhombic'
loop_
_space_group_symop_operation_xyz
x,y,z
-x,1/2-y,1/2+z
x,-y,-z
-x,1/2+y,1/2-z
-x,-y,-z
x,1/2+y,1/2-z
-x,y,z
x,1/2-y,1/2+z
1/2+x,1/2+y,z
1/2-x,-y,1/2+z
1/2+x,1/2-y,-z
1/2-x,y,1/2-z
1/2-x,1/2-y,-z
1/2+x,y,1/2-z
1/2-x,1/2+y,z
1/2+x,-y,1/2+z
loop_
_atom_site_type_symbol
_atom_site_label
_atom_site_fract_x
_atom_site_fract_y
_atom_site_fract_z
Si Si1 0.797384 0.379294 0.823650
Si Si2 0.000000 0.309054 0.410056
Si Si3 0.301199 0.500000 0.500000
Si Si4 0.000000 0.508704 0.240969
Si Si5 0.617253 0.677957 0.033540
Si Si6 0.621463 0.318572 0.278008
O O1 0.750000 0.329974 0.750000
O O2 0.827819 0.552307 0.801173
O O3 0.853588 0.257587 0.815839
O O4 0.765246 0.422338 0.917168
O O5 0.000000 0.483216 0.352320
O O6 0.943623 0.296664 0.476732
O O7 0.000000 0.168427 0.328158
O O8 0.343761 0.657124 0.518035
O O9 0.940007 0.412638 0.218057
O O10 0.639819 0.500000 0.000000
O O11 0.614794 0.678403 0.144331
#
# Coordination Sequence:
#
# PCOD9481577 Si02
#       6
#    16   8   8   8  16  16
#     4  11  25  49  76 111 149 199 255 316 383 461
#     4  12  26  43  68 107 156 198 257 308 387 459
#     4  10  24  49  76 108 148 201 250 320 394 438
#     4  12  25  43  75 109 151 202 252 313 388 463
#     4  11  25  45  70 107 149 199 258 316 372 460
#     4  11  25  45  75 106 149 198 252 313 386 450
#
# _framework density 26.808315
#
# number of rings (size 3 to 8) (size 9 to 14) (size 15 to 20)
#    0.000    0.889    0.000    7.000    9.333    1.333 
#    2.000    4.444    0.000    0.000    0.000    0.000 
#    0.000    0.000    0.000    0.000    0.000    0.000 
#
# Total GULP energy -201143.703601 kJ/mol
# GULP energy per Si atom -5587.325100 kJ/mol
# Density = 2.674730 g / cm^3
# Si number density = 26.808315 Si / 1000 Ang^3
#
#
#
# Elastic Constant Matrix: (Units=GPa)
#
#
# Indices 1 2 3 4 5 6 
#
# 1 136.3171 43.9395 36.6696 0.0000 0.0000 0.0000
# 2 43.9395 140.8356 15.6421 0.0000 0.0000 0.0000
# 3 36.6696 15.6421 86.7464 0.0000 0.0000 0.0000
# 4 0.0000 0.0000 0.0000 38.6534 0.0000 0.0000
# 5 0.0000 0.0000 0.0000 0.0000 27.7908 0.0000
# 6 0.0000 0.0000 0.0000 0.0000 0.0000 32.6542
#
#
#
# Elastic Compliance Matrix: (Units=1/GPa)
#
#
# Indices 1 2 3 4 5 6 
#
# 1 0.009032 -0.002443 -0.003377 0.000000 0.000000 0.000000
# 2 -0.002443 0.007906 -0.000393 0.000000 0.000000 0.000000
# 3 -0.003377 -0.000393 0.013026 0.000000 0.000000 0.000000
# 4 0.000000 0.000000 0.000000 0.025871 0.000000 0.000000
# 5 0.000000 0.000000 0.000000 0.000000 0.035983 0.000000
# 6 0.000000 0.000000 0.000000 0.000000 0.000000 0.030624
#
#
# Mechanical properties :
#
#
# Convention : Reuss Voigt Hill
#
# Bulk Modulus (GPa) = 57.01903 61.82237 59.42070
# Shear Modulus (GPa) = 35.53286 37.66288 36.59787
#
# Velocity S-wave (km/s) = 3.64461 3.75226 3.69883
# Velocity P-wave (km/s) = 6.24710 6.47175 6.36042
#
# Compressibility (1/GPa) = 0.01753800
#
# Stress axis : x y z
#
# Youngs Moduli (GPa) = 110.72060 126.48246 76.76685
#
# Poissons Ratio (x) = 0.30896 0.25928
# Poissons Ratio (y) = 0.27046 0.03017
# Poissons Ratio (z) = 0.37395 0.04972
#
# Static dielectric constant tensor:
#      x y z
#    x 2.060860 0.000000 0.000000 
#    y 0.000000 2.065850 0.000000 
#    z 0.000000 0.000000 2.378290 
# 
# From -- ./inp_files/27863.got.cif
#   From: 2010.05.17/outbox.cif.g08.bks.cpg/sg64_14_cif.got.tgz:27863.got - 2010.06.03 16:29:19.
