data_PCOD9481723
_publ_section_title
;
Structure prediction by ZEFSAII (Michael W. Deem and Ramdas Pophale) SiO2 
 PCOD9481723
Probable space group: C M C A
;
_chemical_formula_sum "Si O2"
_cell_formula_units_Z 80
_cell_length_a 19.692492
_cell_length_b 11.203738
_cell_length_c 17.236301
_cell_angle_alpha 90.000000
_cell_angle_beta 90.000000
_cell_angle_gamma 90.000000
_cell_volume 3802.836832
_symmetry_space_group_name_H-M "C M C A"
_symmetry_group_IT_number 64
_symmetry_cell_setting 'orthorhombic'
loop_
_space_group_symop_operation_xyz
x,y,z
-x,1/2-y,1/2+z
x,-y,-z
-x,1/2+y,1/2-z
-x,-y,-z
x,1/2+y,1/2-z
-x,y,z
x,1/2-y,1/2+z
1/2+x,1/2+y,z
1/2-x,-y,1/2+z
1/2+x,1/2-y,-z
1/2-x,y,1/2-z
1/2-x,1/2-y,-z
1/2+x,y,1/2-z
1/2-x,1/2+y,z
1/2+x,-y,1/2+z
loop_
_atom_site_type_symbol
_atom_site_label
_atom_site_fract_x
_atom_site_fract_y
_atom_site_fract_z
Si Si1 0.500000 0.704893 0.965942
Si Si2 0.348562 0.728797 0.454105
Si Si3 0.000000 0.456730 0.619748
Si Si4 0.174964 0.693523 0.714450
Si Si5 0.863386 0.561151 0.285585
Si Si6 0.220296 0.904503 0.935698
O O1 0.570262 0.777233 0.958355
O O2 0.500000 0.596070 0.904396
O O3 0.500000 0.630578 0.046001
O O4 0.329408 0.810766 0.379241
O O5 0.300993 0.614712 0.440248
O O6 0.319013 0.786990 0.533100
O O7 0.932930 0.432664 0.667815
O O8 0.250000 0.697404 0.750000
O O9 0.141513 0.821069 0.733866
O O10 0.141911 0.572544 0.748394
O O11 0.802724 0.569501 0.348911
O O12 0.198931 0.000000 0.000000
#
# Coordination Sequence:
#
# PCOD9481723 Si02
#       6
#     8  16   8  16  16  16
#     4  11  20  41  68  99 127 171 229 283 333 389
#     4  11  23  39  70  97 128 173 227 282 330 397
#     4  11  22  39  69  97 133 174 226 280 326 405
#     4  12  25  43  65  99 140 176 221 276 340 403
#     4  12  25  42  69 100 137 181 222 276 337 398
#     4  11  21  41  67  99 125 172 232 282 324 392
#
# _framework density 21.036926999999999
#
# number of rings (size 3 to 8) (size 9 to 14) (size 15 to 20)
#    0.000    0.600    8.000    0.600    0.000    1.600 
#    0.000    0.500    0.000    0.000    0.000    0.000 
#    0.000    0.000    0.000    0.000    0.000    0.000 
#
# Total GULP energy -223320.793695 kJ/mol
# GULP energy per Si atom -5583.019842 kJ/mol
# Density = 2.098905 g / cm^3
# Si number density = 21.036927 Si / 1000 Ang^3
#
#
#
# Elastic Constant Matrix: (Units=GPa)
#
#
# Indices 1 2 3 4 5 6 
#
# 1 120.1304 -1.5270 7.4091 0.0000 0.0000 0.0000
# 2 -1.5270 88.4073 23.8887 0.0000 0.0000 0.0000
# 3 7.4091 23.8887 39.9445 0.0000 0.0000 0.0000
# 4 0.0000 0.0000 0.0000 26.6252 0.0000 0.0000
# 5 0.0000 0.0000 0.0000 0.0000 54.8437 0.0000
# 6 0.0000 0.0000 0.0000 0.0000 0.0000 28.4108
#
#
#
# Elastic Compliance Matrix: (Units=1/GPa)
#
#
# Indices 1 2 3 4 5 6 
#
# 1 0.008455 0.000680 -0.001975 0.000000 0.000000 0.000000
# 2 0.000680 0.013546 -0.008227 0.000000 0.000000 0.000000
# 3 -0.001975 -0.008227 0.030321 0.000000 0.000000 0.000000
# 4 0.000000 0.000000 0.000000 0.037558 0.000000 0.000000
# 5 0.000000 0.000000 0.000000 0.000000 0.018234 0.000000
# 6 0.000000 0.000000 0.000000 0.000000 0.000000 0.035198
#
#
# Mechanical properties :
#
#
# Convention : Reuss Voigt Hill
#
# Bulk Modulus (GPa) = 30.05034 34.22487 32.13760
# Shear Modulus (GPa) = 28.82687 36.55671 32.69179
#
# Velocity S-wave (km/s) = 3.70577 4.17314 3.94638
# Velocity P-wave (km/s) = 5.71191 6.28685 6.00626
#
# Compressibility (1/GPa) = 0.03327750
#
# Stress axis : x y z
#
# Youngs Moduli (GPa) = 118.27718 73.82174 32.98005
#
# Poissons Ratio (x) = -0.05017 0.06512
# Poissons Ratio (y) = -0.08038 0.27134
# Poissons Ratio (z) = 0.23356 0.60735
#
# Static dielectric constant tensor:
#      x y z
#    x 1.742900 0.000000 0.000000 
#    y 0.000000 1.826770 0.000000 
#    z 0.000000 0.000000 1.766620 
# 
# From -- ./inp_files/34066.got.cif
#   From: 2010.05.17/outbox.cif.g08.bks.cpg/sg64_18_cif.got.tgz:34066.got - 2010.06.03 16:29:19.
