data_PCOD9481944
_publ_section_title
;
Structure prediction by ZEFSAII (Michael W. Deem and Ramdas Pophale) SiO2 
 PCOD9481944
Probable space group: C M C A
;
_chemical_formula_sum "Si O2"
_cell_formula_units_Z 68
_cell_length_a 21.127886
_cell_length_b 8.613837
_cell_length_c 15.663969
_cell_angle_alpha 90.000000
_cell_angle_beta 90.000000
_cell_angle_gamma 90.000000
_cell_volume 2850.719649
_symmetry_space_group_name_H-M "C M C A"
_symmetry_group_IT_number 64
_symmetry_cell_setting 'orthorhombic'
loop_
_space_group_symop_operation_xyz
x,y,z
-x,1/2-y,1/2+z
x,-y,-z
-x,1/2+y,1/2-z
-x,-y,-z
x,1/2+y,1/2-z
-x,y,z
x,1/2-y,1/2+z
1/2+x,1/2+y,z
1/2-x,-y,1/2+z
1/2+x,1/2-y,-z
1/2-x,y,1/2-z
1/2-x,1/2-y,-z
1/2+x,y,1/2-z
1/2-x,1/2+y,z
1/2+x,-y,1/2+z
loop_
_atom_site_type_symbol
_atom_site_label
_atom_site_fract_x
_atom_site_fract_y
_atom_site_fract_z
Si Si1 0.891963 0.881154 0.128216
Si Si2 0.762535 0.271327 0.850861
Si Si3 0.073187 0.062510 0.279826
Si Si4 0.163380 0.566561 0.906730
Si Si5 0.500000 0.000000 0.500000
O O1 0.819991 0.832164 0.110312
O O2 0.915594 0.733480 0.184049
O O3 0.943181 0.910463 0.055173
O O4 0.891814 0.027509 0.191736
O O5 0.750000 0.242270 0.750000
O O6 0.788066 0.445192 0.862135
O O7 0.699435 0.228402 0.902162
O O8 0.000000 0.035784 0.264110
O O9 0.100568 0.945061 0.350714
O O10 0.151004 0.500000 0.000000
#
# Coordination Sequence:
#
# PCOD9481944 Si02
#       5
#    16  16  16  16   4
#     4  11  25  43  72 101 140 183 240 286 362 430
#     4  11  23  44  70 100 139 190 232 292 362 434
#     4  11  22  47  67  98 139 186 238 288 356 436
#     4  11  25  42  65 103 140 180 239 294 354 418
#     4  12  24  48  68 106 138 188 238 298 350 426
#
# _framework density 23.853625000000001
#
# number of rings (size 3 to 8) (size 9 to 14) (size 15 to 20)
#    0.000    0.941    4.706    1.412    4.941    0.471 
#    8.471    0.000    0.000    0.000    0.000    0.000 
#    0.000    0.000    0.000    0.000    0.000    0.000 
#
# Total GULP energy -189732.682247 kJ/mol
# GULP energy per Si atom -5580.373007 kJ/mol
# Density = 2.379933 g / cm^3
# Si number density = 23.853625 Si / 1000 Ang^3
#
#
#
# Elastic Constant Matrix: (Units=GPa)
#
#
# Indices 1 2 3 4 5 6 
#
# 1 59.9616 23.9280 16.4657 0.0000 0.0000 0.0000
# 2 23.9280 48.9153 7.4205 0.0000 0.0000 0.0000
# 3 16.4657 7.4205 45.2104 0.0000 0.0000 0.0000
# 4 0.0000 0.0000 0.0000 23.1480 0.0000 0.0000
# 5 0.0000 0.0000 0.0000 0.0000 38.7477 0.0000
# 6 0.0000 0.0000 0.0000 0.0000 0.0000 31.2442
#
#
#
# Elastic Compliance Matrix: (Units=1/GPa)
#
#
# Indices 1 2 3 4 5 6 
#
# 1 0.022462 -0.009996 -0.006540 0.000000 0.000000 0.000000
# 2 -0.009996 0.025414 -0.000531 0.000000 0.000000 0.000000
# 3 -0.006540 -0.000531 0.024588 0.000000 0.000000 0.000000
# 4 0.000000 0.000000 0.000000 0.043200 0.000000 0.000000
# 5 0.000000 0.000000 0.000000 0.000000 0.025808 0.000000
# 6 0.000000 0.000000 0.000000 0.000000 0.000000 0.032006
#
#
# Mechanical properties :
#
#
# Convention : Reuss Voigt Hill
#
# Bulk Modulus (GPa) = 26.08893 27.74620 26.91756
# Shear Modulus (GPa) = 22.68728 25.71285 24.20007
#
# Velocity S-wave (km/s) = 3.08734 3.28677 3.18861
# Velocity P-wave (km/s) = 4.86516 5.10499 4.98651
#
# Compressibility (1/GPa) = 0.03833043
#
# Stress axis : x y z
#
# Youngs Moduli (GPa) = 44.51933 39.34895 40.67049
#
# Poissons Ratio (x) = 0.39332 0.26599
# Poissons Ratio (y) = 0.44500 0.02159
# Poissons Ratio (z) = 0.29116 0.02088
#
# Static dielectric constant tensor:
#      x y z
#    x 1.869410 0.000000 0.000000 
#    y 0.000000 1.962350 0.000000 
#    z 0.000000 0.000000 1.887930 
# 
# From -- ./inp_files/33957.got.cif
#   From: 2010.05.17/outbox.cif.g08.bks.cpg/sg64_17_cif.got.tgz:33957.got - 2010.06.03 16:29:19.
