data_PCOD9481581
_publ_section_title
;
Structure prediction by ZEFSAII (Michael W. Deem and Ramdas Pophale) SiO2 
 PCOD9481581
Probable space group: C M C A
;
_chemical_formula_sum "Si O2"
_cell_formula_units_Z 60
_cell_length_a 19.614583
_cell_length_b 13.150615
_cell_length_c 10.440234
_cell_angle_alpha 90.000000
_cell_angle_beta 90.000000
_cell_angle_gamma 90.000000
_cell_volume 2692.993938
_symmetry_space_group_name_H-M "C M C A"
_symmetry_group_IT_number 64
_symmetry_cell_setting 'orthorhombic'
loop_
_space_group_symop_operation_xyz
x,y,z
-x,1/2-y,1/2+z
x,-y,-z
-x,1/2+y,1/2-z
-x,-y,-z
x,1/2+y,1/2-z
-x,y,z
x,1/2-y,1/2+z
1/2+x,1/2+y,z
1/2-x,-y,1/2+z
1/2+x,1/2-y,-z
1/2-x,y,1/2-z
1/2-x,1/2-y,-z
1/2+x,y,1/2-z
1/2-x,1/2+y,z
1/2+x,-y,1/2+z
loop_
_atom_site_type_symbol
_atom_site_label
_atom_site_fract_x
_atom_site_fract_y
_atom_site_fract_z
Si Si1 0.738267 0.500000 0.500000
Si Si2 0.000000 0.000000 0.500000
Si Si3 0.077361 0.007466 0.153330
Si Si4 0.375019 0.115494 0.865469
Si Si5 0.186768 0.331852 0.653996
O O1 0.688719 0.459024 0.390409
O O2 0.782135 0.595249 0.454677
O O3 0.938930 0.079271 0.549945
O O4 0.124459 0.098615 0.204141
O O5 0.000000 0.026058 0.197756
O O6 0.102803 0.903979 0.218875
O O7 0.077924 0.000000 0.000000
O O8 0.347101 0.227498 0.890650
O O9 0.250000 0.312301 0.750000
#
# Coordination Sequence:
#
# PCOD9481581 Si02
#       5
#     8   4  16  16  16
#     4  11  24  47  71 108 149 184 254 324 375 462
#     4  10  24  52  74 106 154 186 252 326 366 470
#     4  11  25  47  69 104 152 194 251 314 371 461
#     4  11  25  46  74 106 146 199 249 308 390 450
#     4  12  26  43  77 109 148 199 249 315 386 457
#
# _framework density 22.280035000000002
#
# number of rings (size 3 to 8) (size 9 to 14) (size 15 to 20)
#    0.000    0.800    5.333    0.800    5.600    2.133 
#    0.000    0.000    0.000    0.000    0.000    0.000 
#    0.000    0.000    0.000    0.000    0.000    0.000 
#
# Total GULP energy -167115.399293 kJ/mol
# GULP energy per Si atom -5570.513310 kJ/mol
# Density = 2.222932 g / cm^3
# Si number density = 22.280035 Si / 1000 Ang^3
#
#
#
# Elastic Constant Matrix: (Units=GPa)
#
#
# Indices 1 2 3 4 5 6 
#
# 1 198.8148 89.2703 45.6838 0.0000 0.0000 0.0000
# 2 89.2703 170.3495 51.8163 0.0000 0.0000 0.0000
# 3 45.6838 51.8163 52.7904 0.0000 0.0000 0.0000
# 4 0.0000 0.0000 0.0000 26.6938 0.0000 0.0000
# 5 0.0000 0.0000 0.0000 0.0000 -25.5487 0.0000
# 6 0.0000 0.0000 0.0000 0.0000 0.0000 -45.9234
#
#
#
# Elastic Compliance Matrix: (Units=1/GPa)
#
#
# Indices 1 2 3 4 5 6 
#
# 1 0.007005 -0.002605 -0.003505 0.000000 0.000000 0.000000
# 2 -0.002605 0.009337 -0.006911 0.000000 0.000000 0.000000
# 3 -0.003505 -0.006911 0.028760 0.000000 0.000000 0.000000
# 4 0.000000 0.000000 0.000000 0.037462 0.000000 0.000000
# 5 0.000000 0.000000 0.000000 0.000000 -0.039141 0.000000
# 6 0.000000 0.000000 0.000000 0.000000 0.000000 -0.021775
#
#
# Mechanical properties :
#
#
# Convention : Reuss Voigt Hill
#
# Bulk Modulus (GPa) = 52.46584 88.38837 70.42710
# Shear Modulus (GPa) = 92.51931 6.72331 49.62131
#
# Velocity S-wave (km/s) = 6.45103 1.73902 4.72440
# Velocity P-wave (km/s) = 8.89310 6.61740 7.83828
#
# Compressibility (1/GPa) = 0.01906002
#
# Stress axis : x y z
#
# Youngs Moduli (GPa) = 142.76081 107.09636 34.77068
#
# Poissons Ratio (x) = 0.27894 0.12188
# Poissons Ratio (y) = 0.37183 0.24031
# Poissons Ratio (z) = 0.50041 0.74016
#
# Static dielectric constant tensor:
#      x y z
#    x 1.817190 0.000000 0.000000 
#    y 0.000000 1.775150 0.000000 
#    z 0.000000 0.000000 1.929780 
# 
# From -- ./inp_files/16816.got.cif
#   From: 2010.05.17/outbox.cif.g08.bks.cpg/sg64_9_cif.got.tgz:16816.got - 2010.06.03 16:29:19.
