data_PCOD9481034
_publ_section_title
;
Structure prediction by ZEFSAII (Michael W. Deem and Ramdas Pophale) SiO2 
 PCOD9481034
Probable space group: C M C A
;
_chemical_formula_sum "Si O2"
_cell_formula_units_Z 40
_cell_length_a 11.217182
_cell_length_b 9.754134
_cell_length_c 14.657471
_cell_angle_alpha 90.000000
_cell_angle_beta 90.000000
_cell_angle_gamma 90.000000
_cell_volume 1603.731012
_symmetry_space_group_name_H-M "C M C A"
_symmetry_group_IT_number 64
_symmetry_cell_setting 'orthorhombic'
loop_
_space_group_symop_operation_xyz
x,y,z
-x,1/2-y,1/2+z
x,-y,-z
-x,1/2+y,1/2-z
-x,-y,-z
x,1/2+y,1/2-z
-x,y,z
x,1/2-y,1/2+z
1/2+x,1/2+y,z
1/2-x,-y,1/2+z
1/2+x,1/2-y,-z
1/2-x,y,1/2-z
1/2-x,1/2-y,-z
1/2+x,y,1/2-z
1/2-x,1/2+y,z
1/2+x,-y,1/2+z
loop_
_atom_site_type_symbol
_atom_site_label
_atom_site_fract_x
_atom_site_fract_y
_atom_site_fract_z
Si Si1 0.000000 0.978912 0.131968
Si Si2 0.000000 0.222302 0.247315
Si Si3 0.246053 0.115923 0.561481
Si Si4 0.750000 0.743106 0.750000
O O1 0.000000 0.881846 0.222450
O O2 0.120503 0.936999 0.082593
O O3 0.000000 0.140306 0.152150
O O4 0.867955 0.176546 0.283309
O O5 0.250000 0.250000 0.500000
O O6 0.203750 0.157617 0.662866
O O7 0.183597 0.000000 0.500000
#
# Coordination Sequence:
#
# PCOD9481034 Si02
#       4
#     8   8  16   8
#     4  10  23  42  67 101 138 181 232 285 343 413
#     4  10  22  42  71 101 138 183 229 287 349 407
#     4  11  24  42  67  98 137 185 232 285 348 413
#     4  10  24  44  68 102 138 180 234 290 346 418
#
# _framework density 24.941838000000001
#
# number of rings (size 3 to 8) (size 9 to 14) (size 15 to 20)
#    0.000    1.600    0.000    3.000    0.000   22.400 
#    0.000    2.000    0.000    2.400    0.000    0.000 
#    0.000    0.000    0.000    0.000    0.000    0.000 
#
# Total GULP energy -111372.730747 kJ/mol
# GULP energy per Si atom -5568.636537 kJ/mol
# Density = 2.488507 g / cm^3
# Si number density = 24.941838 Si / 1000 Ang^3
#
#
#
# Elastic Constant Matrix: (Units=GPa)
#
#
# Indices 1 2 3 4 5 6 
#
# 1 136.5281 -5.5175 -0.8493 0.0000 0.0000 0.0000
# 2 -5.5175 135.5982 76.1719 0.0000 0.0000 0.0000
# 3 -0.8493 76.1719 185.2275 0.0000 0.0000 0.0000
# 4 0.0000 0.0000 0.0000 67.0572 0.0000 0.0000
# 5 0.0000 0.0000 0.0000 0.0000 31.9367 0.0000
# 6 0.0000 0.0000 0.0000 0.0000 0.0000 10.2863
#
#
#
# Elastic Compliance Matrix: (Units=1/GPa)
#
#
# Indices 1 2 3 4 5 6 
#
# 1 0.007338 0.000364 -0.000116 0.000000 0.000000 0.000000
# 2 0.000364 0.009608 -0.003950 0.000000 0.000000 0.000000
# 3 -0.000116 -0.003950 0.007022 0.000000 0.000000 0.000000
# 4 0.000000 0.000000 0.000000 0.014913 0.000000 0.000000
# 5 0.000000 0.000000 0.000000 0.000000 0.031312 0.000000
# 6 0.000000 0.000000 0.000000 0.000000 0.000000 0.097216
#
#
# Mechanical properties :
#
#
# Convention : Reuss Voigt Hill
#
# Bulk Modulus (GPa) = 60.36609 66.32930 63.34770
# Shear Modulus (GPa) = 27.72612 47.69263 37.70937
#
# Velocity S-wave (km/s) = 3.33773 4.37756 3.89252
# Velocity P-wave (km/s) = 6.25374 7.22510 6.75690
#
# Compressibility (1/GPa) = 0.01656559
#
# Stress axis : x y z
#
# Youngs Moduli (GPa) = 136.26802 104.07800 142.40095
#
# Poissons Ratio (x) = -0.03786 0.01651
# Poissons Ratio (y) = -0.04956 0.56242
# Poissons Ratio (z) = 0.01580 0.41106
#
# Static dielectric constant tensor:
#      x y z
#    x 2.078120 0.000000 0.000000 
#    y 0.000000 1.998470 0.000000 
#    z 0.000000 0.000000 2.136100 
# 
# From -- ./inp_files/21472.got.cif
#   From: 2010.05.17/outbox.cif.g08.bks.cpg/sg64_11_cif.got.tgz:21472.got - 2010.06.03 16:29:19.
