data_PCOD9481698
_publ_section_title
;
Structure prediction by ZEFSAII (Michael W. Deem and Ramdas Pophale) SiO2 
 PCOD9481698
Probable space group: C M C A
;
_chemical_formula_sum "Si O2"
_cell_formula_units_Z 112
_cell_length_a 25.903146
_cell_length_b 12.406794
_cell_length_c 15.723824
_cell_angle_alpha 90.000000
_cell_angle_beta 90.000000
_cell_angle_gamma 90.000000
_cell_volume 5053.243881
_symmetry_space_group_name_H-M "C M C A"
_symmetry_group_IT_number 64
_symmetry_cell_setting 'orthorhombic'
loop_
_space_group_symop_operation_xyz
x,y,z
-x,1/2-y,1/2+z
x,-y,-z
-x,1/2+y,1/2-z
-x,-y,-z
x,1/2+y,1/2-z
-x,y,z
x,1/2-y,1/2+z
1/2+x,1/2+y,z
1/2-x,-y,1/2+z
1/2+x,1/2-y,-z
1/2-x,y,1/2-z
1/2-x,1/2-y,-z
1/2+x,y,1/2-z
1/2-x,1/2+y,z
1/2+x,-y,1/2+z
loop_
_atom_site_type_symbol
_atom_site_label
_atom_site_fract_x
_atom_site_fract_y
_atom_site_fract_z
Si Si1 0.169479 0.041775 0.295139
Si Si2 0.558738 0.674975 0.527274
Si Si3 0.440275 0.541346 0.358833
Si Si4 0.651440 0.695252 0.093371
Si Si5 0.184374 0.463244 0.380718
Si Si6 0.206173 0.902355 0.441250
Si Si7 0.690428 0.737010 0.778162
O O1 0.106885 0.047459 0.292507
O O2 0.198954 0.023169 0.207307
O O3 0.191203 0.152687 0.333212
O O4 0.182075 0.939263 0.351837
O O5 0.500000 0.711955 0.528339
O O6 0.562815 0.572470 0.590962
O O7 0.569724 0.629764 0.432751
O O8 0.596915 0.765315 0.559283
O O9 0.500000 0.553263 0.328714
O O10 0.657471 0.567499 0.077106
O O11 0.690520 0.778915 0.046173
O O12 0.659516 0.725034 0.193483
O O13 0.233220 0.420327 0.431493
O O14 0.162830 0.354246 0.335646
O O15 0.185827 0.000000 0.500000
O O16 0.750000 0.712451 0.750000
#
# Coordination Sequence:
#
# PCOD9481698 Si02
#       7
#    16  16  16  16  16  16  16
#     4  11  20  35  61  83 113 155 192 244 300 352
#     4   9  17  33  57  88 122 149 186 248 304 347
#     4   9  17  32  58  91 118 145 188 247 306 349
#     4  11  21  36  61  85 112 154 200 238 298 349
#     4  11  23  39  54  80 119 156 199 238 285 358
#     4  12  23  37  57  84 118 150 199 245 291 349
#     4  11  20  38  58  78 114 161 200 238 289 346
#
# _framework density 22.163981
#
# number of rings (size 3 to 8) (size 9 to 14) (size 15 to 20)
#    0.000    1.429    4.286    3.857    0.000    1.143 
#    2.571    2.857    0.000    2.571    0.000    2.000 
#    0.000    0.000    0.000    0.000    0.000    0.000 
#
# Total GULP energy -312067.157083 kJ/mol
# GULP energy per Si atom -5572.627805 kJ/mol
# Density = 2.211353 g / cm^3
# Si number density = 22.163981 Si / 1000 Ang^3
#
#
#
# Elastic Constant Matrix: (Units=GPa)
#
#
# Indices 1 2 3 4 5 6 
#
# 1 106.5587 32.0213 20.6023 0.0000 0.0000 0.0000
# 2 32.0213 164.3214 12.1914 0.0000 0.0000 0.0000
# 3 20.6023 12.1914 30.2428 0.0000 0.0000 0.0000
# 4 0.0000 0.0000 0.0000 33.3607 0.0000 0.0000
# 5 0.0000 0.0000 0.0000 0.0000 17.5917 0.0000
# 6 0.0000 0.0000 0.0000 0.0000 0.0000 24.8528
#
#
#
# Elastic Compliance Matrix: (Units=1/GPa)
#
#
# Indices 1 2 3 4 5 6 
#
# 1 0.011237 -0.001672 -0.006981 0.000000 0.000000 0.000000
# 2 -0.001672 0.006522 -0.001490 0.000000 0.000000 0.000000
# 3 -0.006981 -0.001490 0.038422 0.000000 0.000000 0.000000
# 4 0.000000 0.000000 0.000000 0.029975 0.000000 0.000000
# 5 0.000000 0.000000 0.000000 0.000000 0.056845 0.000000
# 6 0.000000 0.000000 0.000000 0.000000 0.000000 0.040237
#
#
# Mechanical properties :
#
#
# Convention : Reuss Voigt Hill
#
# Bulk Modulus (GPa) = 27.85907 47.86145 37.86026
# Shear Modulus (GPa) = 23.20310 30.91490 27.05900
#
# Velocity S-wave (km/s) = 3.23907 3.73879 3.49786
# Velocity P-wave (km/s) = 5.15612 6.34659 5.78207
#
# Compressibility (1/GPa) = 0.03589495
#
# Stress axis : x y z
#
# Youngs Moduli (GPa) = 88.99533 153.32782 26.02674
#
# Poissons Ratio (x) = 0.25633 0.18169
# Poissons Ratio (y) = 0.14878 0.03879
# Poissons Ratio (z) = 0.62126 0.22850
#
# Static dielectric constant tensor:
#      x y z
#    x 1.802950 0.000000 0.000000 
#    y 0.000000 1.901140 0.000000 
#    z 0.000000 0.000000 1.970860 
# 
# From -- ./inp_files/41950.got.cif
#   From: 2010.05.17/outbox.cif.g08.bks.cpg/sg64_21_cif.got.tgz:41950.got - 2010.06.03 16:29:19.
