data_PCOD9481861
_publ_section_title
;
Structure prediction by ZEFSAII (Michael W. Deem and Ramdas Pophale) SiO2 
 PCOD9481861
Probable space group: C M C A
;
_chemical_formula_sum "Si O2"
_cell_formula_units_Z 64
_cell_length_a 14.985243
_cell_length_b 11.085709
_cell_length_c 16.608816
_cell_angle_alpha 90.000000
_cell_angle_beta 90.000000
_cell_angle_gamma 90.000000
_cell_volume 2759.090449
_symmetry_space_group_name_H-M "C M C A"
_symmetry_group_IT_number 64
_symmetry_cell_setting 'orthorhombic'
loop_
_space_group_symop_operation_xyz
x,y,z
-x,1/2-y,1/2+z
x,-y,-z
-x,1/2+y,1/2-z
-x,-y,-z
x,1/2+y,1/2-z
-x,y,z
x,1/2-y,1/2+z
1/2+x,1/2+y,z
1/2-x,-y,1/2+z
1/2+x,1/2-y,-z
1/2-x,y,1/2-z
1/2-x,1/2-y,-z
1/2+x,y,1/2-z
1/2-x,1/2+y,z
1/2+x,-y,1/2+z
loop_
_atom_site_type_symbol
_atom_site_label
_atom_site_fract_x
_atom_site_fract_y
_atom_site_fract_z
Si Si1 0.343485 0.625814 0.981096
Si Si2 0.641600 0.879959 0.958117
Si Si3 0.900676 0.109583 0.811586
Si Si4 0.645434 0.860337 0.768834
O O1 0.389295 0.753637 0.996617
O O2 0.330073 0.623528 0.884262
O O3 0.390702 0.500000 0.000000
O O4 0.249397 0.622838 0.027821
O O5 0.624731 0.879946 0.863288
O O6 0.607601 0.000000 0.000000
O O7 0.886131 0.222945 0.751895
O O8 0.000000 0.125067 0.846148
O O9 0.893791 0.976210 0.776140
O O10 0.750000 0.863476 0.750000
#
# Coordination Sequence:
#
# PCOD9481861 Si02
#       4
#    16  16  16  16
#     4   9  18  33  54  80 111 148 190 236 287 344
#     4   9  18  33  55  83 112 143 191 246 288 333
#     4  11  24  40  59  88 126 160 193 244 307 362
#     4  11  22  38  63  90 117 156 206 249 290 353
#
# _framework density 23.196048999999999
#
# number of rings (size 3 to 8) (size 9 to 14) (size 15 to 20)
#    0.000    2.000    0.000    4.500    0.000    8.500 
#    0.000    0.000    0.000   21.750    0.000    0.000 
#    0.000    0.000    0.000    0.000    0.000    0.000 
#
# Total GULP energy -178555.285108 kJ/mol
# GULP energy per Si atom -5579.852660 kJ/mol
# Density = 2.314325 g / cm^3
# Si number density = 23.196049 Si / 1000 Ang^3
#
#
#
# Elastic Constant Matrix: (Units=GPa)
#
#
# Indices 1 2 3 4 5 6 
#
# 1 72.0286 -2.1750 -9.1696 0.0000 0.0000 0.0000
# 2 -2.1750 229.3507 14.4040 0.0000 0.0000 0.0000
# 3 -9.1696 14.4040 27.3638 0.0000 0.0000 0.0000
# 4 0.0000 0.0000 0.0000 43.6718 0.0000 0.0000
# 5 0.0000 0.0000 0.0000 0.0000 -3.5391 0.0000
# 6 0.0000 0.0000 0.0000 0.0000 0.0000 15.6647
#
#
#
# Elastic Compliance Matrix: (Units=1/GPa)
#
#
# Indices 1 2 3 4 5 6 
#
# 1 0.014509 -0.000173 0.004953 0.000000 0.000000 0.000000
# 2 -0.000173 0.004511 -0.002433 0.000000 0.000000 0.000000
# 3 0.004953 -0.002433 0.039485 0.000000 0.000000 0.000000
# 4 0.000000 0.000000 0.000000 0.022898 0.000000 0.000000
# 5 0.000000 0.000000 0.000000 0.000000 -0.282558 0.000000
# 6 0.000000 0.000000 0.000000 0.000000 0.000000 0.063838
#
#
# Mechanical properties :
#
#
# Convention : Reuss Voigt Hill
#
# Bulk Modulus (GPa) = 15.82309 37.20688 26.51498
# Shear Modulus (GPa) = -41.34122 32.87174 -4.23474
#
# Velocity S-wave (km/s) = -4.22625 3.76856 -1.35262
# Velocity P-wave (km/s) = 4.12052 5.91701 3.00270
#
# Compressibility (1/GPa) = 0.06319880
#
# Stress axis : x y z
#
# Youngs Moduli (GPa) = 68.92416 221.66665 25.32603
#
# Poissons Ratio (x) = 0.03846 -0.12544
# Poissons Ratio (y) = 0.01196 0.06161
# Poissons Ratio (z) = -0.34139 0.53928
#
# Static dielectric constant tensor:
#      x y z
#    x 1.957380 0.000000 0.000000 
#    y 0.000000 1.965850 0.000000 
#    z 0.000000 0.000000 1.863910 
# 
# From -- ./inp_files/24862.got.cif
#   From: 2010.05.17/outbox.cif.g08.bks.cpg/sg64_13_cif.got.tgz:24862.got - 2010.06.03 16:29:19.
