data_PCOD9481230
_publ_section_title
;
Structure prediction by ZEFSAII (Michael W. Deem and Ramdas Pophale) SiO2 
 PCOD9481230
Probable space group: C M C A
;
_chemical_formula_sum "Si O2"
_cell_formula_units_Z 56
_cell_length_a 16.546523
_cell_length_b 5.304252
_cell_length_c 25.328335
_cell_angle_alpha 90.000000
_cell_angle_beta 90.000000
_cell_angle_gamma 90.000000
_cell_volume 2222.990147
_symmetry_space_group_name_H-M "C M C A"
_symmetry_group_IT_number 64
_symmetry_cell_setting 'orthorhombic'
loop_
_space_group_symop_operation_xyz
x,y,z
-x,1/2-y,1/2+z
x,-y,-z
-x,1/2+y,1/2-z
-x,-y,-z
x,1/2+y,1/2-z
-x,y,z
x,1/2-y,1/2+z
1/2+x,1/2+y,z
1/2-x,-y,1/2+z
1/2+x,1/2-y,-z
1/2-x,y,1/2-z
1/2-x,1/2-y,-z
1/2+x,y,1/2-z
1/2-x,1/2+y,z
1/2+x,-y,1/2+z
loop_
_atom_site_type_symbol
_atom_site_label
_atom_site_fract_x
_atom_site_fract_y
_atom_site_fract_z
Si Si1 0.500000 0.242082 0.465760
Si Si2 0.198113 0.922208 0.557726
Si Si3 0.157683 0.458853 0.728826
Si Si4 0.408295 0.167625 0.867436
O O1 0.500000 0.500000 0.500000
O O2 0.573690 0.211422 0.424480
O O3 0.500000 0.000000 0.500000
O O4 0.235671 0.645209 0.559919
O O5 0.161745 0.000000 0.500000
O O6 0.142615 0.935410 0.610205
O O7 0.121230 0.737440 0.734130
O O8 0.250000 0.491256 0.750000
O O9 0.143418 0.336389 0.671979
O O10 0.500000 0.117455 0.846912
#
# Coordination Sequence:
#
# PCOD9481230 Si02
#       4
#     8  16  16  16
#     4  10  24  44  68 104 148 182 222 284 354 430
#     4  10  23  41  66  99 139 184 236 285 347 430
#     4  10  24  44  70 100 137 185 237 297 354 419
#     4  10  25  45  72 108 140 193 235 296 364 423
#
# _framework density 25.191293000000002
#
# number of rings (size 3 to 8) (size 9 to 14) (size 15 to 20)
#    0.857    1.143    0.000    0.857    8.000    9.143 
#    0.000    0.000    0.000    0.000    0.000    0.000 
#    0.000    0.000    0.000    0.000    0.000    0.000 
#
# Total GULP energy -155939.763702 kJ/mol
# GULP energy per Si atom -5569.277275 kJ/mol
# Density = 2.513396 g / cm^3
# Si number density = 25.191293 Si / 1000 Ang^3
#
#
#
# Elastic Constant Matrix: (Units=GPa)
#
#
# Indices 1 2 3 4 5 6 
#
# 1 92.2706 17.2895 28.8786 0.0000 0.0000 0.0000
# 2 17.2895 107.1057 6.4980 0.0000 0.0000 0.0000
# 3 28.8786 6.4980 120.2546 0.0000 0.0000 0.0000
# 4 0.0000 0.0000 0.0000 38.9946 0.0000 0.0000
# 5 0.0000 0.0000 0.0000 0.0000 53.5276 0.0000
# 6 0.0000 0.0000 0.0000 0.0000 0.0000 4.9245
#
#
#
# Elastic Compliance Matrix: (Units=1/GPa)
#
#
# Indices 1 2 3 4 5 6 
#
# 1 0.012046 -0.001775 -0.002797 0.000000 0.000000 0.000000
# 2 -0.001775 0.009629 -0.000094 0.000000 0.000000 0.000000
# 3 -0.002797 -0.000094 0.008992 0.000000 0.000000 0.000000
# 4 0.000000 0.000000 0.000000 0.025645 0.000000 0.000000
# 5 0.000000 0.000000 0.000000 0.000000 0.018682 0.000000
# 6 0.000000 0.000000 0.000000 0.000000 0.000000 0.203068
#
#
# Mechanical properties :
#
#
# Convention : Reuss Voigt Hill
#
# Bulk Modulus (GPa) = 46.87033 47.21810 47.04421
# Shear Modulus (GPa) = 16.97769 37.28700 27.13235
#
# Velocity S-wave (km/s) = 2.59887 3.85145 3.28541
# Velocity P-wave (km/s) = 5.25849 6.20989 5.75389
#
# Compressibility (1/GPa) = 0.02133546
#
# Stress axis : x y z
#
# Youngs Moduli (GPa) = 83.01811 103.85537 111.20488
#
# Poissons Ratio (x) = 0.18432 0.31102
# Poissons Ratio (y) = 0.14734 0.01046
# Poissons Ratio (z) = 0.23218 0.00977
#
# Static dielectric constant tensor:
#      x y z
#    x 2.409420 0.000000 0.000000 
#    y 0.000000 2.001600 0.000000 
#    z 0.000000 0.000000 2.062000 
# 
# From -- ./inp_files/50228.got.cif
#   From: 2010.05.17/outbox.cif.g08.bks.cpg/sg64_26_cif.got.tgz:50228.got - 2010.06.03 16:29:19.
