data_PCOD9481171
_publ_section_title
;
Structure prediction by ZEFSAII (Michael W. Deem and Ramdas Pophale) SiO2 
 PCOD9481171
Probable space group: C M C A
;
_chemical_formula_sum "Si O2"
_cell_formula_units_Z 112
_cell_length_a 28.900285
_cell_length_b 13.710432
_cell_length_c 14.949730
_cell_angle_alpha 90.000000
_cell_angle_beta 90.000000
_cell_angle_gamma 90.000000
_cell_volume 5923.612131
_symmetry_space_group_name_H-M "C M C A"
_symmetry_group_IT_number 64
_symmetry_cell_setting 'orthorhombic'
loop_
_space_group_symop_operation_xyz
x,y,z
-x,1/2-y,1/2+z
x,-y,-z
-x,1/2+y,1/2-z
-x,-y,-z
x,1/2+y,1/2-z
-x,y,z
x,1/2-y,1/2+z
1/2+x,1/2+y,z
1/2-x,-y,1/2+z
1/2+x,1/2-y,-z
1/2-x,y,1/2-z
1/2-x,1/2-y,-z
1/2+x,y,1/2-z
1/2-x,1/2+y,z
1/2+x,-y,1/2+z
loop_
_atom_site_type_symbol
_atom_site_label
_atom_site_fract_x
_atom_site_fract_y
_atom_site_fract_z
Si Si1 0.148452 0.342200 0.314109
Si Si2 0.366755 0.731635 0.498460
Si Si3 0.104136 0.501461 0.776110
Si Si4 0.681843 0.064678 0.915819
Si Si5 0.154178 0.670465 0.328567
Si Si6 0.284713 0.503991 0.107302
Si Si7 0.448928 0.090412 0.066924
O O1 0.144816 0.284733 0.406841
O O2 0.101926 0.404254 0.289036
O O3 0.160725 0.264123 0.236247
O O4 0.186156 0.425474 0.336126
O O5 0.323420 0.671444 0.541228
O O6 0.374716 0.802675 0.582230
O O7 0.409434 0.661917 0.471762
O O8 0.143080 0.543129 0.843558
O O9 0.124787 0.408887 0.725456
O O10 0.063979 0.458172 0.837717
O O11 0.731538 0.028216 0.883544
O O12 0.669143 0.000000 0.000000
O O13 0.200508 0.611374 0.358174
O O14 0.295145 0.500000 0.000000
O O15 0.500000 0.136537 0.070557
O O16 0.450401 0.000000 0.000000
#
# Coordination Sequence:
#
# PCOD9481171 Si02
#       7
#    16  16  16  16  16  16  16
#     4  11  22  38  64  89 123 166 209 253 306 371
#     4  12  21  41  62  91 121 164 204 254 318 368
#     4  11  21  40  59  91 123 162 201 259 322 365
#     4  11  20  39  59  80 127 163 211 261 291 353
#     4  11  22  39  63  86 126 167 205 255 311 367
#     4  10  23  39  55  90 123 169 211 255 302 360
#     4  11  21  39  68  93 118 156 208 259 315 381
#
# _framework density 18.907382999999999
#
# number of rings (size 3 to 8) (size 9 to 14) (size 15 to 20)
#    0.000    1.000    7.143    0.000    0.000    2.857 
#    5.143    1.429    0.000    0.000    0.000    3.000 
#    0.000    0.000    0.000    0.000    0.000    0.000 
#
# Total GULP energy -311974.054474 kJ/mol
# GULP energy per Si atom -5570.965258 kJ/mol
# Density = 1.886435 g / cm^3
# Si number density = 18.907383 Si / 1000 Ang^3
#
#
#
# Elastic Constant Matrix: (Units=GPa)
#
#
# Indices 1 2 3 4 5 6 
#
# 1 62.1616 32.3396 21.4681 0.0000 0.0000 0.0000
# 2 32.3396 100.7102 30.8650 0.0000 0.0000 0.0000
# 3 21.4681 30.8650 95.9668 0.0000 0.0000 0.0000
# 4 0.0000 0.0000 0.0000 44.1341 0.0000 0.0000
# 5 0.0000 0.0000 0.0000 0.0000 24.9797 0.0000
# 6 0.0000 0.0000 0.0000 0.0000 0.0000 10.0071
#
#
#
# Elastic Compliance Matrix: (Units=1/GPa)
#
#
# Indices 1 2 3 4 5 6 
#
# 1 0.019907 -0.005577 -0.002659 0.000000 0.000000 0.000000
# 2 -0.005577 0.012578 -0.002798 0.000000 0.000000 0.000000
# 3 -0.002659 -0.002798 0.011915 0.000000 0.000000 0.000000
# 4 0.000000 0.000000 0.000000 0.022658 0.000000 0.000000
# 5 0.000000 0.000000 0.000000 0.000000 0.040032 0.000000
# 6 0.000000 0.000000 0.000000 0.000000 0.000000 0.099929
#
#
# Mechanical properties :
#
#
# Convention : Reuss Voigt Hill
#
# Bulk Modulus (GPa) = 44.78085 47.57600 46.17842
# Shear Modulus (GPa) = 21.13874 27.43525 24.28699
#
# Velocity S-wave (km/s) = 3.34730 3.81338 3.58791
# Velocity P-wave (km/s) = 6.21892 6.67880 6.45296
#
# Compressibility (1/GPa) = 0.02233098
#
# Stress axis : x y z
#
# Youngs Moduli (GPa) = 50.23293 79.50458 83.92797
#
# Poissons Ratio (x) = 0.44343 0.22320
# Poissons Ratio (y) = 0.28017 0.23480
# Poissons Ratio (z) = 0.13359 0.22242
#
# Static dielectric constant tensor:
#      x y z
#    x 1.670950 0.000000 0.000000 
#    y 0.000000 1.850620 0.000000 
#    z 0.000000 0.000000 1.725240 
# 
# From -- ./inp_files/28381.got.cif
#   From: 2010.05.17/outbox.cif.g08.bks.cpg/sg64_15_cif.got.tgz:28381.got - 2010.06.03 16:29:19.
