data_PCOD9481167
_publ_section_title
;
Structure prediction by ZEFSAII (Michael W. Deem and Ramdas Pophale) SiO2 
 PCOD9481167
Probable space group: C M C A
;
_chemical_formula_sum "Si O2"
_cell_formula_units_Z 96
_cell_length_a 17.643952
_cell_length_b 20.430988
_cell_length_c 14.354378
_cell_angle_alpha 90.000000
_cell_angle_beta 90.000000
_cell_angle_gamma 90.000000
_cell_volume 5174.514578
_symmetry_space_group_name_H-M "C M C A"
_symmetry_group_IT_number 64
_symmetry_cell_setting 'orthorhombic'
loop_
_space_group_symop_operation_xyz
x,y,z
-x,1/2-y,1/2+z
x,-y,-z
-x,1/2+y,1/2-z
-x,-y,-z
x,1/2+y,1/2-z
-x,y,z
x,1/2-y,1/2+z
1/2+x,1/2+y,z
1/2-x,-y,1/2+z
1/2+x,1/2-y,-z
1/2-x,y,1/2-z
1/2-x,1/2-y,-z
1/2+x,y,1/2-z
1/2-x,1/2+y,z
1/2+x,-y,1/2+z
loop_
_atom_site_type_symbol
_atom_site_label
_atom_site_fract_x
_atom_site_fract_y
_atom_site_fract_z
Si Si1 0.663438 0.443082 0.217492
Si Si2 0.590137 0.419912 0.831196
Si Si3 0.089495 0.297687 0.804064
Si Si4 0.910350 0.673878 0.829016
Si Si5 0.304305 0.923483 0.492328
Si Si6 0.811128 0.307682 0.988706
O O1 0.750000 0.452088 0.250000
O O2 0.621800 0.512726 0.211769
O O3 0.622374 0.392770 0.285827
O O4 0.665506 0.414170 0.112540
O O5 0.500000 0.424405 0.844599
O O6 0.606237 0.359372 0.762887
O O7 0.631853 0.410837 0.929965
O O8 0.102478 0.231919 0.745135
O O9 0.000000 0.300646 0.828773
O O10 0.141373 0.299233 0.894682
O O11 0.866878 0.691469 0.923262
O O12 0.000000 0.668331 0.845383
O O13 0.234899 0.875626 0.511541
O O14 0.282249 0.000000 0.500000
O O15 0.750000 0.250000 0.000000
#
# Coordination Sequence:
#
# PCOD9481167 Si02
#       6
#    16  16  16  16  16  16
#     4  11  22  40  63  93 127 163 208 255 309 369
#     4  10  23  42  64  93 125 165 209 256 312 365
#     4  10  24  42  63  89 124 163 206 256 311 370
#     4  11  24  42  63  89 124 164 206 254 309 375
#     4  10  23  38  61  92 124 161 203 260 301 361
#     4  12  24  39  62  92 122 163 206 254 311 370
#
# _framework density 18.552465000000002
#
# number of rings (size 3 to 8) (size 9 to 14) (size 15 to 20)
#    0.000    1.333    1.667    3.000    4.667    5.000 
#    0.000    4.167    0.000    4.000    0.000    0.000 
#    0.000    0.000    0.000    0.000    0.000    0.000 
#
# Total GULP energy -268407.526680 kJ/mol
# GULP energy per Si atom -5591.823473 kJ/mol
# Density = 1.851024 g / cm^3
# Si number density = 18.552465 Si / 1000 Ang^3
#
#
#
# Elastic Constant Matrix: (Units=GPa)
#
#
# Indices 1 2 3 4 5 6 
#
# 1 88.7233 40.4136 62.3763 0.0000 0.0000 0.0000
# 2 40.4136 46.6515 27.7455 0.0000 0.0000 0.0000
# 3 62.3763 27.7455 110.5300 0.0000 0.0000 0.0000
# 4 0.0000 0.0000 0.0000 23.1106 0.0000 0.0000
# 5 0.0000 0.0000 0.0000 0.0000 42.6292 0.0000
# 6 0.0000 0.0000 0.0000 0.0000 0.0000 29.9676
#
#
#
# Elastic Compliance Matrix: (Units=1/GPa)
#
#
# Indices 1 2 3 4 5 6 
#
# 1 0.026261 -0.016381 -0.010708 0.000000 0.000000 0.000000
# 2 -0.016381 0.035415 0.000354 0.000000 0.000000 0.000000
# 3 -0.010708 0.000354 0.015001 0.000000 0.000000 0.000000
# 4 0.000000 0.000000 0.000000 0.043270 0.000000 0.000000
# 5 0.000000 0.000000 0.000000 0.000000 0.023458 0.000000
# 6 0.000000 0.000000 0.000000 0.000000 0.000000 0.033369
#
#
# Mechanical properties :
#
#
# Convention : Reuss Voigt Hill
#
# Bulk Modulus (GPa) = 43.08800 56.33062 49.70931
# Shear Modulus (GPa) = 21.01018 26.83277 23.92148
#
# Velocity S-wave (km/s) = 3.36888 3.80718 3.59471
# Velocity P-wave (km/s) = 6.19740 7.05372 6.63938
#
# Compressibility (1/GPa) = 0.02320832
#
# Stress axis : x y z
#
# Youngs Moduli (GPa) = 38.07985 28.23635 66.66102
#
# Poissons Ratio (x) = 0.46253 0.71380
# Poissons Ratio (y) = 0.62378 -0.02362
# Poissons Ratio (z) = 0.40776 -0.01000
#
# Static dielectric constant tensor:
#      x y z
#    x 1.607260 0.000000 0.000000 
#    y 0.000000 1.632340 0.000000 
#    z 0.000000 0.000000 1.614110 
# 
# From -- ./inp_files/23870.got.cif
#   From: 2010.05.17/outbox.cif.g08.bks.cpg/sg64_12_cif.got.tgz:23870.got - 2010.06.03 16:29:19.
