data_PCOD9481174
_publ_section_title
;
Structure prediction by ZEFSAII (Michael W. Deem and Ramdas Pophale) SiO2 
 PCOD9481174
Probable space group: C M C A
;
_chemical_formula_sum "Si O2"
_cell_formula_units_Z 80
_cell_length_a 27.692001
_cell_length_b 26.181531
_cell_length_c 5.863866
_cell_angle_alpha 90.000000
_cell_angle_beta 90.000000
_cell_angle_gamma 90.000000
_cell_volume 4251.414162
_symmetry_space_group_name_H-M "C M C A"
_symmetry_group_IT_number 64
_symmetry_cell_setting 'orthorhombic'
loop_
_space_group_symop_operation_xyz
x,y,z
-x,1/2-y,1/2+z
x,-y,-z
-x,1/2+y,1/2-z
-x,-y,-z
x,1/2+y,1/2-z
-x,y,z
x,1/2-y,1/2+z
1/2+x,1/2+y,z
1/2-x,-y,1/2+z
1/2+x,1/2-y,-z
1/2-x,y,1/2-z
1/2-x,1/2-y,-z
1/2+x,y,1/2-z
1/2-x,1/2+y,z
1/2+x,-y,1/2+z
loop_
_atom_site_type_symbol
_atom_site_label
_atom_site_fract_x
_atom_site_fract_y
_atom_site_fract_z
Si Si1 0.693994 0.982700 0.748972
Si Si2 0.500000 0.220447 0.950580
Si Si3 0.659379 0.786553 0.510912
Si Si4 0.750000 0.817777 0.250000
Si Si5 0.316247 0.868325 0.881780
Si Si6 0.895998 0.680412 0.871567
O O1 0.750000 0.000933 0.750000
O O2 0.692508 0.921429 0.760327
O O3 0.673846 0.000000 0.500000
O O4 0.673953 0.000000 0.000000
O O5 0.500000 0.251948 0.703824
O O6 0.450905 0.187978 0.936469
O O7 0.706945 0.783452 0.351381
O O8 0.679532 0.821332 0.710767
O O9 0.631879 0.733901 0.563514
O O10 0.617219 0.820679 0.393997
O O11 0.775101 0.853891 0.436616
O O12 0.367608 0.865544 0.011555
#
# Coordination Sequence:
#
# PCOD9481174 Si02
#       6
#    16   8  16   8  16  16
#     4  10  23  39  61  84 115 158 209 258 306 353
#     4  12  22  40  64  86 120 165 210 265 310 360
#     4  11  20  37  50  82 119 164 203 244 292 364
#     4  10  24  32  56  76 122 166 208 238 298 348
#     4  11  23  39  57  83 122 162 207 254 298 371
#     4  11  23  37  58  84 121 161 207 252 308 366
#
# _framework density 18.817269
#
# number of rings (size 3 to 8) (size 9 to 14) (size 15 to 20)
#    0.000    1.200    4.000    1.800    9.800    3.200 
#    1.800    0.000    0.000    0.000    0.000    1.400 
#    0.000    0.000    0.000    0.000    0.000    0.000 
#
# Total GULP energy -222849.362391 kJ/mol
# GULP energy per Si atom -5571.234060 kJ/mol
# Density = 1.877444 g / cm^3
# Si number density = 18.817269 Si / 1000 Ang^3
#
#
#
# Elastic Constant Matrix: (Units=GPa)
#
#
# Indices 1 2 3 4 5 6 
#
# 1 105.9138 15.3556 15.3345 0.0000 0.0000 0.0000
# 2 15.3556 74.8687 38.9490 0.0000 0.0000 0.0000
# 3 15.3345 38.9490 108.0022 0.0000 0.0000 0.0000
# 4 0.0000 0.0000 0.0000 26.1699 0.0000 0.0000
# 5 0.0000 0.0000 0.0000 0.0000 16.3252 0.0000
# 6 0.0000 0.0000 0.0000 0.0000 0.0000 7.8936
#
#
#
# Elastic Compliance Matrix: (Units=1/GPa)
#
#
# Indices 1 2 3 4 5 6 
#
# 1 0.009790 -0.001581 -0.000820 0.000000 0.000000 0.000000
# 2 -0.001581 0.016697 -0.005797 0.000000 0.000000 0.000000
# 3 -0.000820 -0.005797 0.011466 0.000000 0.000000 0.000000
# 4 0.000000 0.000000 0.000000 0.038212 0.000000 0.000000
# 5 0.000000 0.000000 0.000000 0.000000 0.061255 0.000000
# 6 0.000000 0.000000 0.000000 0.000000 0.000000 0.126684
#
#
# Mechanical properties :
#
#
# Convention : Reuss Voigt Hill
#
# Bulk Modulus (GPa) = 46.38979 47.56256 46.97617
# Shear Modulus (GPa) = 17.38013 24.68745 21.03379
#
# Velocity S-wave (km/s) = 3.04242 3.62602 3.34697
# Velocity P-wave (km/s) = 6.08671 6.54688 6.32098
#
# Compressibility (1/GPa) = 0.02155647
#
# Stress axis : x y z
#
# Youngs Moduli (GPa) = 102.14933 59.89185 87.21459
#
# Poissons Ratio (x) = 0.09472 0.07148
# Poissons Ratio (y) = 0.16154 0.50557
# Poissons Ratio (z) = 0.08373 0.34718
#
# Static dielectric constant tensor:
#      x y z
#    x 1.644750 0.000000 0.000000 
#    y 0.000000 1.629350 0.000000 
#    z 0.000000 0.000000 1.975800 
# 
# From -- ./inp_files/2922.got.cif
#   From: 2010.05.17/outbox.cif.g08.bks.cpg/sg64_2_cif.got.tgz:2922.got - 2010.06.03 16:29:19.
