data_PCOD9481807
_publ_section_title
;
Structure prediction by ZEFSAII (Michael W. Deem and Ramdas Pophale) SiO2 
 PCOD9481807
Probable space group: C M C A
;
_chemical_formula_sum "Si O2"
_cell_formula_units_Z 64
_cell_length_a 17.399290
_cell_length_b 14.324994
_cell_length_c 11.984146
_cell_angle_alpha 90.000000
_cell_angle_beta 90.000000
_cell_angle_gamma 90.000000
_cell_volume 2986.985172
_symmetry_space_group_name_H-M "C M C A"
_symmetry_group_IT_number 64
_symmetry_cell_setting 'orthorhombic'
loop_
_space_group_symop_operation_xyz
x,y,z
-x,1/2-y,1/2+z
x,-y,-z
-x,1/2+y,1/2-z
-x,-y,-z
x,1/2+y,1/2-z
-x,y,z
x,1/2-y,1/2+z
1/2+x,1/2+y,z
1/2-x,-y,1/2+z
1/2+x,1/2-y,-z
1/2-x,y,1/2-z
1/2-x,1/2-y,-z
1/2+x,y,1/2-z
1/2-x,1/2+y,z
1/2+x,-y,1/2+z
loop_
_atom_site_type_symbol
_atom_site_label
_atom_site_fract_x
_atom_site_fract_y
_atom_site_fract_z
Si Si1 0.086704 0.803950 0.033370
Si Si2 0.695660 0.074388 0.405726
Si Si3 0.869108 0.602117 0.998625
Si Si4 0.336450 0.404297 0.241737
O O1 0.090963 0.692798 0.046689
O O2 0.115897 0.851785 0.147223
O O3 0.000000 0.833710 0.008194
O O4 0.144483 0.835991 0.934173
O O5 0.784935 0.094585 0.439137
O O6 0.671887 0.000000 0.500000
O O7 0.674289 0.014058 0.295763
O O8 0.905915 0.500000 0.000000
O O9 0.864654 0.613606 0.865387
O O10 0.250000 0.366262 0.250000
#
# Coordination Sequence:
#
# PCOD9481807 Si02
#       4
#    16  16  16  16
#     4  11  25  42  63  98 138 177 215 268 341 399
#     4   9  19  38  65  96 121 163 221 277 318 383
#     4  11  22  42  66  96 130 173 225 277 319 384
#     4  11  21  41  69  99 125 168 225 275 331 386
#
# _framework density 21.426286999999999
#
# number of rings (size 3 to 8) (size 9 to 14) (size 15 to 20)
#    0.000    1.500    7.500    0.750    0.000    8.000 
#    0.000    0.000    0.000    0.000    0.000    0.000 
#    0.000    0.000    0.000    0.000    0.000    0.000 
#
# Total GULP energy -178183.921213 kJ/mol
# GULP energy per Si atom -5568.247538 kJ/mol
# Density = 2.137752 g / cm^3
# Si number density = 21.426287 Si / 1000 Ang^3
#
#
#
# Elastic Constant Matrix: (Units=GPa)
#
#
# Indices 1 2 3 4 5 6 
#
# 1 84.2670 36.0592 23.8085 0.0000 0.0000 0.0000
# 2 36.0592 104.6615 27.5530 0.0000 0.0000 0.0000
# 3 23.8085 27.5530 94.9621 0.0000 0.0000 0.0000
# 4 0.0000 0.0000 0.0000 27.6708 0.0000 0.0000
# 5 0.0000 0.0000 0.0000 0.0000 9.3171 0.0000
# 6 0.0000 0.0000 0.0000 0.0000 0.0000 537.2038
#
#
#
# Elastic Compliance Matrix: (Units=1/GPa)
#
#
# Indices 1 2 3 4 5 6 
#
# 1 0.014387 -0.004339 -0.002348 0.000000 0.000000 0.000000
# 2 -0.004339 0.011653 -0.002293 0.000000 0.000000 0.000000
# 3 -0.002348 -0.002293 0.011785 0.000000 0.000000 0.000000
# 4 0.000000 0.000000 0.000000 0.036139 0.000000 0.000000
# 5 0.000000 0.000000 0.000000 0.000000 0.107330 0.000000
# 6 0.000000 0.000000 0.000000 0.000000 0.000000 0.001861
#
#
# Mechanical properties :
#
#
# Convention : Reuss Voigt Hill
#
# Bulk Modulus (GPa) = 50.34117 50.97024 50.65571
# Shear Modulus (GPa) = 24.06884 127.93633 76.00258
#
# Velocity S-wave (km/s) = 3.35525 7.73561 5.96227
# Velocity P-wave (km/s) = 6.20937 10.17971 8.43157
#
# Compressibility (1/GPa) = 0.01986446
#
# Stress axis : x y z
#
# Youngs Moduli (GPa) = 69.50694 85.81374 84.85603
#
# Poissons Ratio (x) = 0.37231 0.19926
# Poissons Ratio (y) = 0.30156 0.19461
# Poissons Ratio (z) = 0.16322 0.19680
#
# Static dielectric constant tensor:
#      x y z
#    x 1.801960 0.000000 0.000000 
#    y 0.000000 1.852040 0.000000 
#    z 0.000000 0.000000 1.765450 
# 
# From -- ./inp_files/15493.got.cif
#   From: 2010.05.17/outbox.cif.g08.bks.cpg/sg64_8_cif.got.tgz:15493.got - 2010.06.03 16:29:19.
