data_PCOD9481092
_publ_section_title
;
Structure prediction by ZEFSAII (Michael W. Deem and Ramdas Pophale) SiO2 
 PCOD9481092
Probable space group: C M C A
;
_chemical_formula_sum "Si O2"
_cell_formula_units_Z 64
_cell_length_a 16.900224
_cell_length_b 32.700116
_cell_length_c 5.023165
_cell_angle_alpha 90.000000
_cell_angle_beta 90.000000
_cell_angle_gamma 90.000000
_cell_volume 2775.998315
_symmetry_space_group_name_H-M "C M C A"
_symmetry_group_IT_number 64
_symmetry_cell_setting 'orthorhombic'
loop_
_space_group_symop_operation_xyz
x,y,z
-x,1/2-y,1/2+z
x,-y,-z
-x,1/2+y,1/2-z
-x,-y,-z
x,1/2+y,1/2-z
-x,y,z
x,1/2-y,1/2+z
1/2+x,1/2+y,z
1/2-x,-y,1/2+z
1/2+x,1/2-y,-z
1/2-x,y,1/2-z
1/2-x,1/2-y,-z
1/2+x,y,1/2-z
1/2-x,1/2+y,z
1/2+x,-y,1/2+z
loop_
_atom_site_type_symbol
_atom_site_label
_atom_site_fract_x
_atom_site_fract_y
_atom_site_fract_z
Si Si1 0.836397 0.910012 0.597670
Si Si2 0.345520 0.278085 0.019305
Si Si3 0.000000 0.179292 0.738832
Si Si4 0.692707 0.000000 0.000000
Si Si5 0.250000 0.848491 0.250000
Si Si6 0.000000 0.871958 0.782169
O O1 0.750000 0.910010 0.750000
O O2 0.851799 0.956999 0.518993
O O3 0.817218 0.878109 0.363300
O O4 0.916572 0.894271 0.731386
O O5 0.336285 0.240540 0.227063
O O6 0.426314 0.296036 0.141474
O O7 0.287696 0.316803 0.043374
O O8 0.000000 0.167381 0.426026
O O9 0.000000 0.137950 0.906581
O O10 0.750000 0.995922 0.250000
#
# Coordination Sequence:
#
# PCOD9481092 Si02
#       6
#    16  16   8   8   8   8
#     4  11  25  45  75 105 146 189 237 290 363 421
#     4  12  26  43  65  97 135 179 236 293 352 419
#     4  12  24  47  68  97 138 183 239 288 361 407
#     4  10  22  43  72 107 144 186 234 289 354 431
#     4  12  24  42  70  96 136 186 232 294 354 424
#     4  12  26  44  74 108 138 187 241 290 341 441
#
# _framework density 23.054770000000001
#
# number of rings (size 3 to 8) (size 9 to 14) (size 15 to 20)
#    0.000    0.500    3.750    4.500    3.500    0.500 
#    0.000    0.000    0.000    5.250    0.000    0.000 
#    0.000    0.000    0.000    0.000    0.000    0.000 
#
# Total GULP energy -178746.540948 kJ/mol
# GULP energy per Si atom -5585.829405 kJ/mol
# Density = 2.300230 g / cm^3
# Si number density = 23.054770 Si / 1000 Ang^3
#
#
#
# Elastic Constant Matrix: (Units=GPa)
#
#
# Indices 1 2 3 4 5 6 
#
# 1 115.0652 38.6987 -4.2329 0.0000 0.0000 0.0000
# 2 38.6987 125.5067 -0.0565 0.0000 0.0000 0.0000
# 3 -4.2329 -0.0565 66.1221 0.0000 0.0000 0.0000
# 4 0.0000 0.0000 0.0000 34.8121 0.0000 0.0000
# 5 0.0000 0.0000 0.0000 0.0000 26.2169 0.0000
# 6 0.0000 0.0000 0.0000 0.0000 0.0000 224.9974
#
#
#
# Elastic Compliance Matrix: (Units=1/GPa)
#
#
# Indices 1 2 3 4 5 6 
#
# 1 0.009722 -0.002997 0.000620 0.000000 0.000000 0.000000
# 2 -0.002997 0.008892 -0.000184 0.000000 0.000000 0.000000
# 3 0.000620 -0.000184 0.015163 0.000000 0.000000 0.000000
# 4 0.000000 0.000000 0.000000 0.028726 0.000000 0.000000
# 5 0.000000 0.000000 0.000000 0.000000 0.038143 0.000000
# 6 0.000000 0.000000 0.000000 0.000000 0.000000 0.004444
#
#
# Mechanical properties :
#
#
# Convention : Reuss Voigt Hill
#
# Bulk Modulus (GPa) = 34.90048 41.72361 38.31205
# Shear Modulus (GPa) = 41.74863 75.35759 58.55311
#
# Velocity S-wave (km/s) = 4.26002 5.72340 5.04505
# Velocity P-wave (km/s) = 6.27439 7.86214 7.11271
#
# Compressibility (1/GPa) = 0.02865290
#
# Stress axis : x y z
#
# Youngs Moduli (GPa) = 102.86413 112.46329 65.94975
#
# Poissons Ratio (x) = 0.33708 -0.04087
# Poissons Ratio (y) = 0.30831 0.01215
# Poissons Ratio (z) = -0.06375 0.02072
#
# Static dielectric constant tensor:
#      x y z
#    x 1.925440 0.000000 0.000000 
#    y 0.000000 1.869380 0.000000 
#    z 0.000000 0.000000 1.885510 
# 
# From -- ./inp_files/1375.got.cif
#   From: 2010.05.17/outbox.cif.g08.bks.cpg/sg64_1_cif.got.tgz:1375.got - 2010.06.03 16:29:19.
