data_PCOD9481549
_publ_section_title
;
Structure prediction by ZEFSAII (Michael W. Deem and Ramdas Pophale) SiO2 
 PCOD9481549
Probable space group: C M C A
;
_chemical_formula_sum "Si O2"
_cell_formula_units_Z 56
_cell_length_a 27.630474
_cell_length_b 8.350136
_cell_length_c 10.857513
_cell_angle_alpha 90.000000
_cell_angle_beta 90.000000
_cell_angle_gamma 90.000000
_cell_volume 2505.026026
_symmetry_space_group_name_H-M "C M C A"
_symmetry_group_IT_number 64
_symmetry_cell_setting 'orthorhombic'
loop_
_space_group_symop_operation_xyz
x,y,z
-x,1/2-y,1/2+z
x,-y,-z
-x,1/2+y,1/2-z
-x,-y,-z
x,1/2+y,1/2-z
-x,y,z
x,1/2-y,1/2+z
1/2+x,1/2+y,z
1/2-x,-y,1/2+z
1/2+x,1/2-y,-z
1/2-x,y,1/2-z
1/2-x,1/2-y,-z
1/2+x,y,1/2-z
1/2-x,1/2+y,z
1/2+x,-y,1/2+z
loop_
_atom_site_type_symbol
_atom_site_label
_atom_site_fract_x
_atom_site_fract_y
_atom_site_fract_z
Si Si1 0.908262 0.725353 0.397086
Si Si2 0.803520 0.114961 0.614268
Si Si3 0.250000 0.128079 0.250000
Si Si4 0.556002 0.878998 0.350700
O O1 0.855401 0.803292 0.395057
O O2 0.936767 0.806455 0.284245
O O3 0.930017 0.737868 0.535442
O O4 0.911093 0.536450 0.366477
O O5 0.764788 0.254036 0.639999
O O6 0.795246 0.011708 0.274883
O O7 0.794716 0.000000 0.500000
O O8 0.500000 0.926289 0.365842
#
# Coordination Sequence:
#
# PCOD9481549 Si02
#       4
#    16  16   8  16
#     4  11  25  42  71 100 138 177 231 283 333 412
#     4  11  24  44  68 101 133 177 228 276 347 398
#     4  10  24  46  70  94 138 176 222 286 336 418
#     4  11  24  46  69 100 138 183 228 282 345 404
#
# _framework density 22.355059000000001
#
# number of rings (size 3 to 8) (size 9 to 14) (size 15 to 20)
#    0.000    1.143    0.000    6.000    8.000    0.000 
#   10.286    2.857    0.000    0.000    0.000    0.000 
#    0.000    0.000    0.000    0.000    0.000    0.000 
#
# Total GULP energy -156342.249551 kJ/mol
# GULP energy per Si atom -5583.651770 kJ/mol
# Density = 2.230418 g / cm^3
# Si number density = 22.355059 Si / 1000 Ang^3
#
#
#
# Elastic Constant Matrix: (Units=GPa)
#
#
# Indices 1 2 3 4 5 6 
#
# 1 116.1259 66.5714 41.8321 0.0000 0.0000 0.0000
# 2 66.5714 121.9751 55.0350 0.0000 0.0000 0.0000
# 3 41.8321 55.0350 62.1613 0.0000 0.0000 0.0000
# 4 0.0000 0.0000 0.0000 41.7491 0.0000 0.0000
# 5 0.0000 0.0000 0.0000 0.0000 18.2690 0.0000
# 6 0.0000 0.0000 0.0000 0.0000 0.0000 13.7123
#
#
#
# Elastic Compliance Matrix: (Units=1/GPa)
#
#
# Indices 1 2 3 4 5 6 
#
# 1 0.013147 -0.005301 -0.004154 0.000000 0.000000 0.000000
# 2 -0.005301 0.015789 -0.010412 0.000000 0.000000 0.000000
# 3 -0.004154 -0.010412 0.028101 0.000000 0.000000 0.000000
# 4 0.000000 0.000000 0.000000 0.023953 0.000000 0.000000
# 5 0.000000 0.000000 0.000000 0.000000 0.054738 0.000000
# 6 0.000000 0.000000 0.000000 0.000000 0.000000 0.072927
#
#
# Mechanical properties :
#
#
# Convention : Reuss Voigt Hill
#
# Bulk Modulus (GPa) = 57.79247 69.68216 63.73732
# Shear Modulus (GPa) = 19.67299 23.86767 21.77033
#
# Velocity S-wave (km/s) = 2.96974 3.27106 3.12403
# Velocity P-wave (km/s) = 6.13737 6.74572 6.44872
#
# Compressibility (1/GPa) = 0.01730329
#
# Stress axis : x y z
#
# Youngs Moduli (GPa) = 76.06569 63.33388 35.58597
#
# Poissons Ratio (x) = 0.33572 0.14782
# Poissons Ratio (y) = 0.40321 0.37052
# Poissons Ratio (z) = 0.31598 0.65943
#
# Static dielectric constant tensor:
#      x y z
#    x 1.786200 0.000000 0.000000 
#    y 0.000000 1.813060 0.000000 
#    z 0.000000 0.000000 1.889420 
# 
# From -- ./inp_files/8890.got.cif
#   From: 2010.05.17/outbox.cif.g08.bks.cpg/sg64_5_cif.got.tgz:8890.got - 2010.06.03 16:29:19.
