data_PCOD9481610
_publ_section_title
;
Structure prediction by ZEFSAII (Michael W. Deem and Ramdas Pophale) SiO2 
 PCOD9481610
Probable space group: C M C A
;
_chemical_formula_sum "Si O2"
_cell_formula_units_Z 72
_cell_length_a 21.041130
_cell_length_b 9.142474
_cell_length_c 17.645411
_cell_angle_alpha 90.000000
_cell_angle_beta 90.000000
_cell_angle_gamma 90.000000
_cell_volume 3394.412140
_symmetry_space_group_name_H-M "C M C A"
_symmetry_group_IT_number 64
_symmetry_cell_setting 'orthorhombic'
loop_
_space_group_symop_operation_xyz
x,y,z
-x,1/2-y,1/2+z
x,-y,-z
-x,1/2+y,1/2-z
-x,-y,-z
x,1/2+y,1/2-z
-x,y,z
x,1/2-y,1/2+z
1/2+x,1/2+y,z
1/2-x,-y,1/2+z
1/2+x,1/2-y,-z
1/2-x,y,1/2-z
1/2-x,1/2-y,-z
1/2+x,y,1/2-z
1/2-x,1/2+y,z
1/2+x,-y,1/2+z
loop_
_atom_site_type_symbol
_atom_site_label
_atom_site_fract_x
_atom_site_fract_y
_atom_site_fract_z
Si Si1 0.000000 0.272585 0.350520
Si Si2 0.105084 0.507887 0.586871
Si Si3 0.656413 0.246947 0.822563
Si Si4 0.874116 0.914878 0.671088
Si Si5 0.717741 0.264987 0.081709
O O1 0.055676 0.397610 0.365448
O O2 0.056119 0.148563 0.340685
O O3 0.083079 0.500000 0.500000
O O4 0.115961 0.347947 0.620430
O O5 0.172713 0.592735 0.586735
O O6 0.655338 0.332199 0.743596
O O7 0.726375 0.229694 0.856969
O O8 0.626854 0.086984 0.814921
O O9 0.828962 0.870198 0.600775
O O10 0.750000 0.250000 0.000000
#
# Coordination Sequence:
#
# PCOD9481610 Si02
#       5
#     8  16  16  16  16
#     4  10  25  48  67  98 139 183 245 283 351 423
#     4  11  23  45  74 104 140 189 229 298 353 427
#     4  12  25  43  71 105 139 185 239 290 366 418
#     4  11  26  44  69  99 141 188 235 296 347 428
#     4  11  23  44  71 104 144 176 234 287 359 422
#
# _framework density 21.211331000000001
#
# number of rings (size 3 to 8) (size 9 to 14) (size 15 to 20)
#    0.000    0.889    2.222    5.000    0.000    6.222 
#    0.000    1.111    0.000    0.000    0.000    0.000 
#    0.000    0.000    0.000    0.000    0.000    0.000 
#
# Total GULP energy -200517.039439 kJ/mol
# GULP energy per Si atom -5569.917762 kJ/mol
# Density = 2.116305 g / cm^3
# Si number density = 21.211331 Si / 1000 Ang^3
#
#
#
# Elastic Constant Matrix: (Units=GPa)
#
#
# Indices 1 2 3 4 5 6 
#
# 1 146.2549 42.2696 45.1358 0.0000 0.0000 0.0000
# 2 42.2696 191.8978 44.9206 0.0000 0.0000 0.0000
# 3 45.1358 44.9206 88.1368 0.0000 0.0000 0.0000
# 4 0.0000 0.0000 0.0000 30.6517 0.0000 0.0000
# 5 0.0000 0.0000 0.0000 0.0000 -2.0522 0.0000
# 6 0.0000 0.0000 0.0000 0.0000 0.0000 7.6667
#
#
#
# Elastic Compliance Matrix: (Units=1/GPa)
#
#
# Indices 1 2 3 4 5 6 
#
# 1 0.008268 -0.000943 -0.003754 0.000000 0.000000 0.000000
# 2 -0.000943 0.006024 -0.002588 0.000000 0.000000 0.000000
# 3 -0.003754 -0.002588 0.014587 0.000000 0.000000 0.000000
# 4 0.000000 0.000000 0.000000 0.032625 0.000000 0.000000
# 5 0.000000 0.000000 0.000000 0.000000 -0.487285 0.000000
# 6 0.000000 0.000000 0.000000 0.000000 0.000000 0.130435
#
#
# Mechanical properties :
#
#
# Convention : Reuss Voigt Hill
#
# Bulk Modulus (GPa) = 69.87328 76.77127 73.32227
# Shear Modulus (GPa) = -18.11549 26.85081 4.36766
#
# Velocity S-wave (km/s) = -2.92558 3.56177 1.43652
# Velocity P-wave (km/s) = 4.64768 7.29294 6.11506
#
# Compressibility (1/GPa) = 0.01431162
#
# Stress axis : x y z
#
# Youngs Moduli (GPa) = 120.94421 165.98906 68.55255
#
# Poissons Ratio (x) = 0.15645 0.25734
# Poissons Ratio (y) = 0.11399 0.17740
# Poissons Ratio (z) = 0.45401 0.42955
#
# Static dielectric constant tensor:
#      x y z
#    x 1.733340 0.000000 0.000000 
#    y 0.000000 1.752980 0.000000 
#    z 0.000000 0.000000 1.832990 
# 
# From -- ./inp_files/40713.got.cif
#   From: 2010.05.17/outbox.cif.g08.bks.cpg/sg64_21_cif.got.tgz:40713.got - 2010.06.03 16:29:19.
