data_PCOD9481853
_publ_section_title
;
Structure prediction by ZEFSAII (Michael W. Deem and Ramdas Pophale) SiO2 
 PCOD9481853
Probable space group: C M C A
;
_chemical_formula_sum "Si O2"
_cell_formula_units_Z 80
_cell_length_a 15.368720
_cell_length_b 8.215704
_cell_length_c 24.491338
_cell_angle_alpha 90.000000
_cell_angle_beta 90.000000
_cell_angle_gamma 90.000000
_cell_volume 3092.395226
_symmetry_space_group_name_H-M "C M C A"
_symmetry_group_IT_number 64
_symmetry_cell_setting 'orthorhombic'
loop_
_space_group_symop_operation_xyz
x,y,z
-x,1/2-y,1/2+z
x,-y,-z
-x,1/2+y,1/2-z
-x,-y,-z
x,1/2+y,1/2-z
-x,y,z
x,1/2-y,1/2+z
1/2+x,1/2+y,z
1/2-x,-y,1/2+z
1/2+x,1/2-y,-z
1/2-x,y,1/2-z
1/2-x,1/2-y,-z
1/2+x,y,1/2-z
1/2-x,1/2+y,z
1/2+x,-y,1/2+z
loop_
_atom_site_type_symbol
_atom_site_label
_atom_site_fract_x
_atom_site_fract_y
_atom_site_fract_z
Si Si1 0.099089 0.054015 0.832082
Si Si2 0.892752 0.356605 0.569649
Si Si3 0.651023 0.635880 0.264387
Si Si4 0.895593 0.025376 0.628148
Si Si5 0.897709 0.825609 0.532122
O O1 0.135936 0.003876 0.891278
O O2 0.099981 0.897362 0.791672
O O3 0.000000 0.106897 0.840808
O O4 0.140699 0.194797 0.796044
O O5 0.862642 0.314803 0.508065
O O6 0.000000 0.364563 0.568159
O O7 0.866493 0.195352 0.603212
O O8 0.750000 0.613926 0.250000
O O9 0.624985 0.503220 0.309480
O O10 0.860438 0.876339 0.590684
O O11 0.000000 0.023294 0.621859
O O12 0.000000 0.784403 0.538987
O O13 0.895375 0.000000 0.500000
#
# Coordination Sequence:
#
# PCOD9481853 Si02
#       5
#    16  16  16  16  16
#     4  11  22  38  59  81 109 147 194 239 281 336
#     4   8  15  29  54  87 117 145 183 234 283 332
#     4  12  25  39  54  79 114 151 190 238 292 336
#     4   9  16  31  57  86 117 153 192 230 277 344
#     4   7  11  23  48  84 119 146 177 224 281 337
#
# _framework density 25.869917000000001
#
# number of rings (size 3 to 8) (size 9 to 14) (size 15 to 20)
#    0.000    2.600    0.000    6.000    0.000    1.600 
#    0.000    2.000    0.000    6.000    0.000    2.800 
#    0.000    0.000    0.000    0.000    0.000    8.000 
#
# Total GULP energy -223643.704047 kJ/mol
# GULP energy per Si atom -5591.092601 kJ/mol
# Density = 2.581104 g / cm^3
# Si number density = 25.869917 Si / 1000 Ang^3
#
#
#
# Elastic Constant Matrix: (Units=GPa)
#
#
# Indices 1 2 3 4 5 6 
#
# 1 20.1478 4.6949 -3.3606 0.0000 0.0000 0.0000
# 2 4.6949 94.7677 4.4777 0.0000 0.0000 0.0000
# 3 -3.3606 4.4777 131.5660 0.0000 0.0000 0.0000
# 4 0.0000 0.0000 0.0000 44.2094 0.0000 0.0000
# 5 0.0000 0.0000 0.0000 0.0000 16.6499 0.0000
# 6 0.0000 0.0000 0.0000 0.0000 0.0000 12.7584
#
#
#
# Elastic Compliance Matrix: (Units=1/GPa)
#
#
# Indices 1 2 3 4 5 6 
#
# 1 0.050460 -0.002565 0.001376 0.000000 0.000000 0.000000
# 2 -0.002565 0.010699 -0.000430 0.000000 0.000000 0.000000
# 3 0.001376 -0.000430 0.007651 0.000000 0.000000 0.000000
# 4 0.000000 0.000000 0.000000 0.022620 0.000000 0.000000
# 5 0.000000 0.000000 0.000000 0.000000 0.060061 0.000000
# 6 0.000000 0.000000 0.000000 0.000000 0.000000 0.078380
#
#
# Mechanical properties :
#
#
# Convention : Reuss Voigt Hill
#
# Bulk Modulus (GPa) = 15.25002 28.67840 21.96421
# Shear Modulus (GPa) = 19.61053 30.76817 25.18935
#
# Velocity S-wave (km/s) = 2.75625 3.45242 3.12379
# Velocity P-wave (km/s) = 4.00461 5.19634 4.63890
#
# Compressibility (1/GPa) = 0.06557369
#
# Stress axis : x y z
#
# Youngs Moduli (GPa) = 19.81752 93.46244 130.71000
#
# Poissons Ratio (x) = 0.23972 -0.17988
# Poissons Ratio (y) = 0.05083 0.05616
# Poissons Ratio (z) = -0.02727 0.04016
#
# Static dielectric constant tensor:
#      x y z
#    x 2.025310 0.000000 0.000000 
#    y 0.000000 2.126940 0.000000 
#    z 0.000000 0.000000 2.057900 
# 
# From -- ./inp_files/50286.got.cif
#   From: 2010.05.17/outbox.cif.g08.bks.cpg/sg64_26_cif.got.tgz:50286.got - 2010.06.03 16:29:19.
