data_PCOD9481720
_publ_section_title
;
Structure prediction by ZEFSAII (Michael W. Deem and Ramdas Pophale) SiO2 
 PCOD9481720
Probable space group: C M C A
;
_chemical_formula_sum "Si O2"
_cell_formula_units_Z 64
_cell_length_a 22.132538
_cell_length_b 11.119746
_cell_length_c 12.548000
_cell_angle_alpha 90.000000
_cell_angle_beta 90.000000
_cell_angle_gamma 90.000000
_cell_volume 3088.165705
_symmetry_space_group_name_H-M "C M C A"
_symmetry_group_IT_number 64
_symmetry_cell_setting 'orthorhombic'
loop_
_space_group_symop_operation_xyz
x,y,z
-x,1/2-y,1/2+z
x,-y,-z
-x,1/2+y,1/2-z
-x,-y,-z
x,1/2+y,1/2-z
-x,y,z
x,1/2-y,1/2+z
1/2+x,1/2+y,z
1/2-x,-y,1/2+z
1/2+x,1/2-y,-z
1/2-x,y,1/2-z
1/2-x,1/2-y,-z
1/2+x,y,1/2-z
1/2-x,1/2+y,z
1/2+x,-y,1/2+z
loop_
_atom_site_type_symbol
_atom_site_label
_atom_site_fract_x
_atom_site_fract_y
_atom_site_fract_z
Si Si1 0.568022 0.340854 0.957498
Si Si2 0.615585 0.914139 0.102728
Si Si3 0.878374 0.558039 0.658364
Si Si4 0.753239 0.624509 0.566295
O O1 0.500000 0.378524 0.931233
O O2 0.579732 0.206216 0.923181
O O3 0.615273 0.427679 0.897502
O O4 0.579964 0.358618 0.083132
O O5 0.599623 0.957560 0.221117
O O6 0.686687 0.884836 0.114398
O O7 0.608329 0.000000 0.000000
O O8 0.811528 0.615335 0.642916
O O9 0.758724 0.500000 0.500000
O O10 0.750000 0.750000 0.500000
#
# Coordination Sequence:
#
# PCOD9481720 Si02
#       4
#    16  16  16  16
#     4  11  25  46  69  95 134 184 229 275 338 406
#     4  11  26  41  67 106 134 173 226 285 342 402
#     4  11  22  44  69  96 134 180 224 274 341 406
#     4  11  20  40  68 100 139 171 219 277 341 408
#
# _framework density 20.724276
#
# number of rings (size 3 to 8) (size 9 to 14) (size 15 to 20)
#    0.000    1.000    5.000    2.250    3.500    2.500 
#    0.000    5.000    0.000    0.000    0.000    0.000 
#    0.000    0.000    0.000    0.000    0.000    0.000 
#
# Total GULP energy -178427.691382 kJ/mol
# GULP energy per Si atom -5575.865356 kJ/mol
# Density = 2.067711 g / cm^3
# Si number density = 20.724276 Si / 1000 Ang^3
#
#
#
# Elastic Constant Matrix: (Units=GPa)
#
#
# Indices 1 2 3 4 5 6 
#
# 1 60.4362 23.7711 12.0367 0.0000 0.0000 0.0000
# 2 23.7711 105.7407 54.1751 0.0000 0.0000 0.0000
# 3 12.0367 54.1751 167.4298 0.0000 0.0000 0.0000
# 4 0.0000 0.0000 0.0000 14.3668 0.0000 0.0000
# 5 0.0000 0.0000 0.0000 0.0000 1.7224 0.0000
# 6 0.0000 0.0000 0.0000 0.0000 0.0000**********
#
#
#
# Elastic Compliance Matrix: (Units=1/GPa)
#
#
# Indices 1 2 3 4 5 6 
#
# 1 0.018151 -0.004090 0.000018 0.000000 0.000000 0.000000
# 2 -0.004090 0.012258 -0.003672 0.000000 0.000000 0.000000
# 3 0.000018 -0.003672 0.007160 0.000000 0.000000 0.000000
# 4 0.000000 0.000000 0.000000 0.069605 0.000000 0.000000
# 5 0.000000 0.000000 0.000000 0.000000 0.580576 0.000000
# 6 0.000000 0.000000 0.000000 0.000000 0.000000 -0.000007
#
#
# Mechanical properties :
#
#
# Convention : Reuss Voigt Hill
#
# Bulk Modulus (GPa) = 45.28710 57.06364 51.17537
# Shear Modulus (GPa) = 7.03639 -30434.07575 -15213.51968
#
# Velocity S-wave (km/s) = 1.84462 -121.31410 -85.77210
# Velocity P-wave (km/s) = 5.14164 139.98292 98.91608
#
# Compressibility (1/GPa) = 0.02208134
#
# Stress axis : x y z
#
# Youngs Moduli (GPa) = 55.09220 81.57934 139.67342
#
# Poissons Ratio (x) = 0.33366 -0.00258
# Poissons Ratio (y) = 0.22533 0.51292
# Poissons Ratio (z) = -0.00102 0.29958
#
# Static dielectric constant tensor:
#      x y z
#    x 1.759870 0.000000 0.000000 
#    y 0.000000 1.739570 0.000000 
#    z 0.000000 0.000000 1.871780 
# 
# From -- ./inp_files/16761.got.cif
#   From: 2010.05.17/outbox.cif.g08.bks.cpg/sg64_9_cif.got.tgz:16761.got - 2010.06.03 16:29:19.
