data_PCOD9481020
_publ_section_title
;
Structure prediction by ZEFSAII (Michael W. Deem and Ramdas Pophale) SiO2 
 PCOD9481020
Probable space group: C M C A
;
_chemical_formula_sum "Si O2"
_cell_formula_units_Z 64
_cell_length_a 20.943356
_cell_length_b 23.935266
_cell_length_c 4.999629
_cell_angle_alpha 90.000000
_cell_angle_beta 90.000000
_cell_angle_gamma 90.000000
_cell_volume 2506.238007
_symmetry_space_group_name_H-M "C M C A"
_symmetry_group_IT_number 64
_symmetry_cell_setting 'orthorhombic'
loop_
_space_group_symop_operation_xyz
x,y,z
-x,1/2-y,1/2+z
x,-y,-z
-x,1/2+y,1/2-z
-x,-y,-z
x,1/2+y,1/2-z
-x,y,z
x,1/2-y,1/2+z
1/2+x,1/2+y,z
1/2-x,-y,1/2+z
1/2+x,1/2-y,-z
1/2-x,y,1/2-z
1/2-x,1/2-y,-z
1/2+x,y,1/2-z
1/2-x,1/2+y,z
1/2+x,-y,1/2+z
loop_
_atom_site_type_symbol
_atom_site_label
_atom_site_fract_x
_atom_site_fract_y
_atom_site_fract_z
Si Si1 0.071156 0.932637 0.463750
Si Si2 0.139466 0.713398 0.014594
Si Si3 0.750000 0.357886 0.250000
Si Si4 0.348033 0.434120 0.960648
Si Si5 0.500000 0.287974 0.388398
O O1 0.093203 0.922606 0.162107
O O2 0.000000 0.912391 0.523755
O O3 0.068148 0.000000 0.500000
O O4 0.127137 0.917944 0.669523
O O5 0.141125 0.768684 0.823360
O O6 0.199928 0.679342 0.914112
O O7 0.069875 0.686729 0.949794
O O8 0.710581 0.397346 0.052362
O O9 0.332901 0.500000 0.000000
O O10 0.500000 0.233369 0.584045
#
# Coordination Sequence:
#
# PCOD9481020 Si02
#       5
#    16  16   8  16   8
#     4   9  18  38  64  87 118 165 221 277 327 374
#     4  10  22  42  68  97 130 170 217 276 337 401
#     4  12  26  42  66 100 138 178 224 270 336 410
#     4  10  23  39  60  91 130 176 219 267 326 392
#     4   8  16  36  64  90 124 164 206 264 332 390
#
# _framework density 25.536280000000001
#
# number of rings (size 3 to 8) (size 9 to 14) (size 15 to 20)
#    0.000    2.250    0.000    1.500    0.000   11.000 
#    4.500    0.000    5.500    0.000    0.000    0.000 
#    0.000    0.000    0.000    0.000    0.000    0.000 
#
# Total GULP energy -179388.488504 kJ/mol
# GULP energy per Si atom -5605.890266 kJ/mol
# Density = 2.547816 g / cm^3
# Si number density = 25.536280 Si / 1000 Ang^3
#
#
#
# Elastic Constant Matrix: (Units=GPa)
#
#
# Indices 1 2 3 4 5 6 
#
# 1 178.5657 52.0453 1.6108 0.0000 0.0000 0.0000
# 2 52.0453 66.1361 -0.7113 0.0000 0.0000 0.0000
# 3 1.6108 -0.7113 69.6427 0.0000 0.0000 0.0000
# 4 0.0000 0.0000 0.0000 32.4486 0.0000 0.0000
# 5 0.0000 0.0000 0.0000 0.0000 21.0618 0.0000
# 6 0.0000 0.0000 0.0000 0.0000 0.0000 -105.2505
#
#
#
# Elastic Compliance Matrix: (Units=1/GPa)
#
#
# Indices 1 2 3 4 5 6 
#
# 1 0.007271 -0.005724 -0.000227 0.000000 0.000000 0.000000
# 2 -0.005724 0.019628 0.000333 0.000000 0.000000 0.000000
# 3 -0.000227 0.000333 0.014368 0.000000 0.000000 0.000000
# 4 0.000000 0.000000 0.000000 0.030818 0.000000 0.000000
# 5 0.000000 0.000000 0.000000 0.000000 0.047479 0.000000
# 6 0.000000 0.000000 0.000000 0.000000 0.000000 -0.009501
#
#
# Mechanical properties :
#
#
# Convention : Reuss Voigt Hill
#
# Bulk Modulus (GPa) = 33.29878 46.69268 39.99573
# Shear Modulus (GPa) = 38.07832 7.07864 22.57848
#
# Velocity S-wave (km/s) = 3.86573 1.66674 2.97673
# Velocity P-wave (km/s) = 5.74397 4.69346 5.24508
#
# Compressibility (1/GPa) = 0.03003113
#
# Stress axis : x y z
#
# Youngs Moduli (GPa) = 137.54133 50.94681 69.60085
#
# Poissons Ratio (x) = 0.29162 0.01577
# Poissons Ratio (y) = 0.78728 -0.02317
# Poissons Ratio (z) = 0.03117 -0.01696
#
# Static dielectric constant tensor:
#      x y z
#    x 1.942210 0.000000 0.000000 
#    y 0.000000 2.100920 0.000000 
#    z 0.000000 0.000000 1.914030 
# 
# From -- ./inp_files/1800.got.cif
#   From: 2010.05.17/outbox.cif.g08.bks.cpg/sg64_1_cif.got.tgz:1800.got - 2010.06.03 16:29:19.
