data_PCOD9481208
_publ_section_title
;
Structure prediction by ZEFSAII (Michael W. Deem and Ramdas Pophale) SiO2 
 PCOD9481208
Probable space group: C M C A
;
_chemical_formula_sum "Si O2"
_cell_formula_units_Z 52
_cell_length_a 14.141697
_cell_length_b 19.775643
_cell_length_c 9.001170
_cell_angle_alpha 90.000000
_cell_angle_beta 90.000000
_cell_angle_gamma 90.000000
_cell_volume 2517.277565
_symmetry_space_group_name_H-M "C M C A"
_symmetry_group_IT_number 64
_symmetry_cell_setting 'orthorhombic'
loop_
_space_group_symop_operation_xyz
x,y,z
-x,1/2-y,1/2+z
x,-y,-z
-x,1/2+y,1/2-z
-x,-y,-z
x,1/2+y,1/2-z
-x,y,z
x,1/2-y,1/2+z
1/2+x,1/2+y,z
1/2-x,-y,1/2+z
1/2+x,1/2-y,-z
1/2-x,y,1/2-z
1/2-x,1/2-y,-z
1/2+x,y,1/2-z
1/2-x,1/2+y,z
1/2+x,-y,1/2+z
loop_
_atom_site_type_symbol
_atom_site_label
_atom_site_fract_x
_atom_site_fract_y
_atom_site_fract_z
Si Si1 0.500000 0.158448 0.969699
Si Si2 0.302544 0.932285 0.594824
Si Si3 0.000000 0.899136 0.773788
Si Si4 0.000000 0.000000 0.500000
Si Si5 0.792150 0.813426 0.413480
O O1 0.595126 0.190561 0.909604
O O2 0.500000 0.159998 0.150391
O O3 0.500000 0.078010 0.934826
O O4 0.250000 0.947525 0.750000
O O5 0.404407 0.900322 0.631496
O O6 0.237056 0.880362 0.504794
O O7 0.313497 0.000000 0.500000
O O8 0.000000 0.966480 0.669443
O O9 0.750000 0.817181 0.250000
O O10 0.750000 0.750000 0.500000
#
# Coordination Sequence:
#
# PCOD9481208 Si02
#       5
#     8  16   8   4  16
#     4  10  24  45  73 104 145 181 232 300 351 416
#     4  12  25  42  70 107 143 190 241 290 353 421
#     4  10  23  40  71 100 153 176 238 290 359 408
#     4   8  20  38  72 102 142 180 228 292 362 384
#     4  12  29  48  74 104 142 190 238 292 360 424
#
# _framework density 20.657236000000001
#
# number of rings (size 3 to 8) (size 9 to 14) (size 15 to 20)
#    0.923    0.000    3.077    2.308   12.923    3.692 
#    0.000    0.000    0.000    0.000    0.000    0.000 
#    0.000    0.000    0.000    0.000    0.000    0.000 
#
# Total GULP energy -144875.711837 kJ/mol
# GULP energy per Si atom -5572.142763 kJ/mol
# Density = 2.061022 g / cm^3
# Si number density = 20.657236 Si / 1000 Ang^3
#
#
#
# Elastic Constant Matrix: (Units=GPa)
#
#
# Indices 1 2 3 4 5 6 
#
# 1 198.0054 12.2953 57.5767 0.0000 0.0000 0.0000
# 2 12.2953 39.7905 19.0922 0.0000 0.0000 0.0000
# 3 57.5767 19.0922 142.0075 0.0000 0.0000 0.0000
# 4 0.0000 0.0000 0.0000 17.2708 0.0000 0.0000
# 5 0.0000 0.0000 0.0000 0.0000 34.1859 0.0000
# 6 0.0000 0.0000 0.0000 0.0000 0.0000 4.0165
#
#
#
# Elastic Compliance Matrix: (Units=1/GPa)
#
#
# Indices 1 2 3 4 5 6 
#
# 1 0.005744 -0.000703 -0.002234 0.000000 0.000000 0.000000
# 2 -0.000703 0.026951 -0.003338 0.000000 0.000000 0.000000
# 3 -0.002234 -0.003338 0.008397 0.000000 0.000000 0.000000
# 4 0.000000 0.000000 0.000000 0.057901 0.000000 0.000000
# 5 0.000000 0.000000 0.000000 0.000000 0.029252 0.000000
# 6 0.000000 0.000000 0.000000 0.000000 0.000000 0.248974
#
#
# Mechanical properties :
#
#
# Convention : Reuss Voigt Hill
#
# Bulk Modulus (GPa) = 35.03858 61.97019 48.50439
# Shear Modulus (GPa) = 12.52246 30.48391 21.50318
#
# Velocity S-wave (km/s) = 2.46479 3.84565 3.22988
# Velocity P-wave (km/s) = 5.00989 7.05572 6.11891
#
# Compressibility (1/GPa) = 0.02853997
#
# Stress axis : x y z
#
# Youngs Moduli (GPa) = 174.10380 37.10486 119.09571
#
# Poissons Ratio (x) = 0.02608 0.26609
# Poissons Ratio (y) = 0.12235 0.39759
# Poissons Ratio (z) = 0.38900 0.12387
#
# Static dielectric constant tensor:
#      x y z
#    x 1.759440 0.000000 0.000000 
#    y 0.000000 1.719000 0.000000 
#    z 0.000000 0.000000 1.726570 
# 
# From -- ./inp_files/5304.got.cif
#   From: 2010.05.17/outbox.cif.g08.bks.cpg/sg64_3_cif.got.tgz:5304.got - 2010.06.03 16:29:19.
