data_PCOD9481286
_publ_section_title
;
Structure prediction by ZEFSAII (Michael W. Deem and Ramdas Pophale) SiO2 
 PCOD9481286
Probable space group: C M C A
;
_chemical_formula_sum "Si O2"
_cell_formula_units_Z 96
_cell_length_a 14.854718
_cell_length_b 16.074678
_cell_length_c 18.935325
_cell_angle_alpha 90.000000
_cell_angle_beta 90.000000
_cell_angle_gamma 90.000000
_cell_volume 4521.467956
_symmetry_space_group_name_H-M "C M C A"
_symmetry_group_IT_number 64
_symmetry_cell_setting 'orthorhombic'
loop_
_space_group_symop_operation_xyz
x,y,z
-x,1/2-y,1/2+z
x,-y,-z
-x,1/2+y,1/2-z
-x,-y,-z
x,1/2+y,1/2-z
-x,y,z
x,1/2-y,1/2+z
1/2+x,1/2+y,z
1/2-x,-y,1/2+z
1/2+x,1/2-y,-z
1/2-x,y,1/2-z
1/2-x,1/2-y,-z
1/2+x,y,1/2-z
1/2-x,1/2+y,z
1/2+x,-y,1/2+z
loop_
_atom_site_type_symbol
_atom_site_label
_atom_site_fract_x
_atom_site_fract_y
_atom_site_fract_z
Si Si1 0.894161 0.405967 0.562399
Si Si2 0.717208 0.978954 0.076555
Si Si3 0.893815 0.499506 0.219462
Si Si4 0.800872 0.810594 0.055445
Si Si5 0.103849 0.663181 0.296101
Si Si6 0.653405 0.174942 0.713766
O O1 0.816317 0.475797 0.574585
O O2 0.876971 0.359141 0.489276
O O3 0.868790 0.338445 0.622609
O O4 0.000000 0.432800 0.566842
O O5 0.661042 0.997019 0.146322
O O6 0.729284 0.880715 0.075939
O O7 0.675220 0.000000 0.000000
O O8 0.856776 0.582220 0.257999
O O9 0.885135 0.417515 0.270064
O O10 0.000000 0.506666 0.202789
O O11 0.841147 0.791341 0.133034
O O12 0.750000 0.750000 0.000000
O O13 0.110694 0.750248 0.257957
O O14 0.000000 0.641412 0.298565
O O15 0.750000 0.168044 0.750000
#
# Coordination Sequence:
#
# PCOD9481286 Si02
#       6
#    16  16  16  16  16  16
#     4  10  23  43  68  97 134 178 229 287 346 411
#     4  10  23  42  69  98 135 177 228 280 342 410
#     4  11  25  45  69 100 137 182 233 282 340 412
#     4  11  24  41  62  98 136 179 225 276 355 416
#     4  10  24  42  65  99 132 173 224 279 339 403
#     4  12  24  40  71  99 134 181 227 289 344 404
#
# _framework density 21.232042
#
# number of rings (size 3 to 8) (size 9 to 14) (size 15 to 20)
#    0.000    1.333    1.667    2.500    7.000    4.667 
#    0.000    0.000    0.000    0.000    0.000    0.000 
#    0.000    0.000    0.000    0.000    0.000    0.000 
#
# Total GULP energy -267276.599412 kJ/mol
# GULP energy per Si atom -5568.262488 kJ/mol
# Density = 2.118372 g / cm^3
# Si number density = 21.232042 Si / 1000 Ang^3
#
#
#
# Elastic Constant Matrix: (Units=GPa)
#
#
# Indices 1 2 3 4 5 6 
#
# 1 95.8345 7.6692 29.8801 0.0000 0.0000 0.0000
# 2 7.6692 55.7313 18.3505 0.0000 0.0000 0.0000
# 3 29.8801 18.3505 141.1986 0.0000 0.0000 0.0000
# 4 0.0000 0.0000 0.0000 41.4300 0.0000 0.0000
# 5 0.0000 0.0000 0.0000 0.0000 34.1513 0.0000
# 6 0.0000 0.0000 0.0000 0.0000 0.0000 22.4615
#
#
#
# Elastic Compliance Matrix: (Units=1/GPa)
#
#
# Indices 1 2 3 4 5 6 
#
# 1 0.011205 -0.000795 -0.002268 0.000000 0.000000 0.000000
# 2 -0.000795 0.018802 -0.002275 0.000000 0.000000 0.000000
# 3 -0.002268 -0.002275 0.007858 0.000000 0.000000 0.000000
# 4 0.000000 0.000000 0.000000 0.024137 0.000000 0.000000
# 5 0.000000 0.000000 0.000000 0.000000 0.029282 0.000000
# 6 0.000000 0.000000 0.000000 0.000000 0.000000 0.044521
#
#
# Mechanical properties :
#
#
# Convention : Reuss Voigt Hill
#
# Bulk Modulus (GPa) = 36.78049 44.95155 40.86602
# Shear Modulus (GPa) = 32.14529 35.39953 33.77241
#
# Velocity S-wave (km/s) = 3.89524 4.08765 3.99260
# Velocity P-wave (km/s) = 6.13117 6.59515 6.36739
#
# Compressibility (1/GPa) = 0.02718833
#
# Stress axis : x y z
#
# Youngs Moduli (GPa) = 89.24271 53.18627 127.26132
#
# Poissons Ratio (x) = 0.04229 0.28862
# Poissons Ratio (y) = 0.07097 0.28955
# Poissons Ratio (z) = 0.20239 0.12101
#
# Static dielectric constant tensor:
#      x y z
#    x 1.795300 0.000000 0.000000 
#    y 0.000000 2.013140 0.000000 
#    z 0.000000 0.000000 2.341410 
# 
# From -- ./inp_files/39213.got.cif
#   From: 2010.05.17/outbox.cif.g08.bks.cpg/sg64_20_cif.got.tgz:39213.got - 2010.06.03 16:29:19.
