data_PCOD9481316
_publ_section_title
;
Structure prediction by ZEFSAII (Michael W. Deem and Ramdas Pophale) SiO2 
 PCOD9481316
Probable space group: C M C A
;
_chemical_formula_sum "Si O2"
_cell_formula_units_Z 96
_cell_length_a 14.555100
_cell_length_b 19.392062
_cell_length_c 14.094223
_cell_angle_alpha 90.000000
_cell_angle_beta 90.000000
_cell_angle_gamma 90.000000
_cell_volume 3978.142385
_symmetry_space_group_name_H-M "C M C A"
_symmetry_group_IT_number 64
_symmetry_cell_setting 'orthorhombic'
loop_
_space_group_symop_operation_xyz
x,y,z
-x,1/2-y,1/2+z
x,-y,-z
-x,1/2+y,1/2-z
-x,-y,-z
x,1/2+y,1/2-z
-x,y,z
x,1/2-y,1/2+z
1/2+x,1/2+y,z
1/2-x,-y,1/2+z
1/2+x,1/2-y,-z
1/2-x,y,1/2-z
1/2-x,1/2-y,-z
1/2+x,y,1/2-z
1/2-x,1/2+y,z
1/2+x,-y,1/2+z
loop_
_atom_site_type_symbol
_atom_site_label
_atom_site_fract_x
_atom_site_fract_y
_atom_site_fract_z
Si Si1 0.642449 0.641230 0.761280
Si Si2 0.894416 0.730406 0.343782
Si Si3 0.753127 0.066093 0.451138
Si Si4 0.099866 0.514287 0.305446
Si Si5 0.605255 0.640025 0.332720
Si Si6 0.392609 0.159071 0.534758
O O1 0.750000 0.634678 0.750000
O O2 0.610589 0.688785 0.675342
O O3 0.604468 0.564740 0.773103
O O4 0.618277 0.683102 0.857531
O O5 0.856544 0.688547 0.252747
O O6 0.863719 0.708794 0.448454
O O7 0.000000 0.708056 0.340910
O O8 0.687296 0.038602 0.366428
O O9 0.823107 0.125074 0.416717
O O10 0.678062 0.096340 0.524132
O O11 0.799863 0.000000 0.500000
O O12 0.099374 0.564756 0.215898
O O13 0.000000 0.524524 0.355100
O O14 0.500000 0.660678 0.360584
O O15 0.500000 0.140785 0.523954
#
# Coordination Sequence:
#
# PCOD9481316 Si02
#       6
#    16  16  16  16  16  16
#     4  12  26  41  66  99 139 176 221 283 346 403
#     4  10  23  45  69  96 132 183 228 275 338 402
#     4  12  23  37  69 101 136 173 235 287 339 402
#     4  11  22  40  66  97 134 175 220 280 344 400
#     4  10  23  43  67  94 137 187 229 277 342 410
#     4  11  24  43  69 101 134 176 231 284 337 404
#
# _framework density 24.131865999999999
#
# number of rings (size 3 to 8) (size 9 to 14) (size 15 to 20)
#    0.000    1.000    3.333    3.500    2.333    1.667 
#    0.000    0.000    0.000    0.000    0.000    0.000 
#    0.000    0.000    0.000    0.000    0.000    0.000 
#
# Total GULP energy -268253.067941 kJ/mol
# GULP energy per Si atom -5588.605582 kJ/mol
# Density = 2.407694 g / cm^3
# Si number density = 24.131866 Si / 1000 Ang^3
#
#
#
# Elastic Constant Matrix: (Units=GPa)
#
#
# Indices 1 2 3 4 5 6 
#
# 1 119.1766 -2.0323 9.5166 0.0000 0.0000 0.0000
# 2 -2.0323 77.0322 25.4923 0.0000 0.0000 0.0000
# 3 9.5166 25.4923 25.5813 0.0000 0.0000 0.0000
# 4 0.0000 0.0000 0.0000 37.0803 0.0000 0.0000
# 5 0.0000 0.0000 0.0000 0.0000 19.2549 0.0000
# 6 0.0000 0.0000 0.0000 0.0000 0.0000 37.5928
#
#
#
# Elastic Compliance Matrix: (Units=1/GPa)
#
#
# Indices 1 2 3 4 5 6 
#
# 1 0.008844 0.001973 -0.005256 0.000000 0.000000 0.000000
# 2 0.001973 0.019809 -0.020474 0.000000 0.000000 0.000000
# 3 -0.005256 -0.020474 0.061449 0.000000 0.000000 0.000000
# 4 0.000000 0.000000 0.000000 0.026968 0.000000 0.000000
# 5 0.000000 0.000000 0.000000 0.000000 0.051935 0.000000
# 6 0.000000 0.000000 0.000000 0.000000 0.000000 0.026601
#
#
# Mechanical properties :
#
#
# Convention : Reuss Voigt Hill
#
# Bulk Modulus (GPa) = 23.48093 31.97146 27.72619
# Shear Modulus (GPa) = 19.43130 31.37319 25.40224
#
# Velocity S-wave (km/s) = 2.84071 3.60956 3.24797
# Velocity P-wave (km/s) = 4.52889 5.53619 5.05768
#
# Compressibility (1/GPa) = 0.04258776
#
# Stress axis : x y z
#
# Youngs Moduli (GPa) = 113.06771 50.48188 16.27366
#
# Poissons Ratio (x) = -0.09959 0.08553
# Poissons Ratio (y) = -0.22305 0.33319
# Poissons Ratio (z) = 0.59429 1.03357
#
# Static dielectric constant tensor:
#      x y z
#    x 1.964370 0.000000 0.000000 
#    y 0.000000 1.935880 0.000000 
#    z 0.000000 0.000000 1.947100 
# 
# From -- ./inp_files/23958.got.cif
#   From: 2010.05.17/outbox.cif.g08.bks.cpg/sg64_12_cif.got.tgz:23958.got - 2010.06.03 16:29:19.
