data_PCOD9481496
_publ_section_title
;
Structure prediction by ZEFSAII (Michael W. Deem and Ramdas Pophale) SiO2 
 PCOD9481496
Probable space group: C M C A
;
_chemical_formula_sum "Si O2"
_cell_formula_units_Z 56
_cell_length_a 14.998509
_cell_length_b 8.471018
_cell_length_c 20.133033
_cell_angle_alpha 90.000000
_cell_angle_beta 90.000000
_cell_angle_gamma 90.000000
_cell_volume 2557.954988
_symmetry_space_group_name_H-M "C M C A"
_symmetry_group_IT_number 64
_symmetry_cell_setting 'orthorhombic'
loop_
_space_group_symop_operation_xyz
x,y,z
-x,1/2-y,1/2+z
x,-y,-z
-x,1/2+y,1/2-z
-x,-y,-z
x,1/2+y,1/2-z
-x,y,z
x,1/2-y,1/2+z
1/2+x,1/2+y,z
1/2-x,-y,1/2+z
1/2+x,1/2-y,-z
1/2-x,y,1/2-z
1/2-x,1/2-y,-z
1/2+x,y,1/2-z
1/2-x,1/2+y,z
1/2+x,-y,1/2+z
loop_
_atom_site_type_symbol
_atom_site_label
_atom_site_fract_x
_atom_site_fract_y
_atom_site_fract_z
Si Si1 0.500000 0.169626 0.430960
Si Si2 0.500000 0.200127 0.589634
Si Si3 0.172429 0.844241 0.658423
Si Si4 0.750000 0.578595 0.750000
Si Si5 0.310408 0.143882 0.452040
O O1 0.500000 0.207139 0.510056
O O2 0.397585 0.222522 0.417595
O O3 0.500000 0.990449 0.401160
O O4 0.584348 0.289329 0.620783
O O5 0.211361 0.689022 0.693077
O O6 0.243457 0.908655 0.605178
O O7 0.172351 0.970931 0.717852
O O8 0.250000 0.250000 0.500000
O O9 0.341431 0.000000 0.500000
#
# Coordination Sequence:
#
# PCOD9481496 Si02
#       5
#     8   8  16   8  16
#     4  11  20  38  60 100 131 163 195 256 331 383
#     4  11  20  38  64  92 127 163 206 253 318 381
#     4  11  23  42  65  92 125 170 215 262 315 380
#     4  10  24  44  62  86 126 172 220 262 308 368
#     4  12  21  38  65  93 127 167 205 262 327 381
#
# _framework density 21.892488
#
# number of rings (size 3 to 8) (size 9 to 14) (size 15 to 20)
#    0.000    0.857    5.714    3.429    0.000    1.143 
#    0.000   12.857    0.000    0.000    0.000    0.000 
#    0.000    0.000    0.000    0.000    0.000    0.000 
#
# Total GULP energy -156051.865043 kJ/mol
# GULP energy per Si atom -5573.280894 kJ/mol
# Density = 2.184266 g / cm^3
# Si number density = 21.892488 Si / 1000 Ang^3
#
#
#
# Elastic Constant Matrix: (Units=GPa)
#
#
# Indices 1 2 3 4 5 6 
#
# 1 156.0613 12.6990 23.7850 0.0000 0.0000 0.0000
# 2 12.6990 54.6549 22.5818 0.0000 0.0000 0.0000
# 3 23.7850 22.5818 70.4304 0.0000 0.0000 0.0000
# 4 0.0000 0.0000 0.0000 40.6379 0.0000 0.0000
# 5 0.0000 0.0000 0.0000 0.0000 15.1157 0.0000
# 6 0.0000 0.0000 0.0000 0.0000 0.0000 9.8858
#
#
#
# Elastic Compliance Matrix: (Units=1/GPa)
#
#
# Indices 1 2 3 4 5 6 
#
# 1 0.006780 -0.000725 -0.002057 0.000000 0.000000 0.000000
# 2 -0.000725 0.021168 -0.006542 0.000000 0.000000 0.000000
# 3 -0.002057 -0.006542 0.016991 0.000000 0.000000 0.000000
# 4 0.000000 0.000000 0.000000 0.024608 0.000000 0.000000
# 5 0.000000 0.000000 0.000000 0.000000 0.066157 0.000000
# 6 0.000000 0.000000 0.000000 0.000000 0.000000 0.101155
#
#
# Mechanical properties :
#
#
# Convention : Reuss Voigt Hill
#
# Bulk Modulus (GPa) = 38.03757 44.36425 41.20091
# Shear Modulus (GPa) = 18.92000 27.93328 23.42664
#
# Velocity S-wave (km/s) = 2.94296 3.57589 3.27475
# Velocity P-wave (km/s) = 5.38149 6.11211 5.75840
#
# Compressibility (1/GPa) = 0.02628980
#
# Stress axis : x y z
#
# Youngs Moduli (GPa) = 147.48614 47.24080 58.85575
#
# Poissons Ratio (x) = 0.03427 0.12108
# Poissons Ratio (y) = 0.10699 0.38504
# Poissons Ratio (z) = 0.30341 0.30905
#
# Static dielectric constant tensor:
#      x y z
#    x 1.913070 0.000000 0.000000 
#    y 0.000000 1.842440 0.000000 
#    z 0.000000 0.000000 1.829870 
# 
# From -- ./inp_files/38788.got.cif
#   From: 2010.05.17/outbox.cif.g08.bks.cpg/sg64_20_cif.got.tgz:38788.got - 2010.06.03 16:29:19.
