data_PCOD9481584
_publ_section_title
;
Structure prediction by ZEFSAII (Michael W. Deem and Ramdas Pophale) SiO2 
 PCOD9481584
Probable space group: C M C A
;
_chemical_formula_sum "Si O2"
_cell_formula_units_Z 64
_cell_length_a 10.124830
_cell_length_b 9.004862
_cell_length_c 31.449753
_cell_angle_alpha 90.000000
_cell_angle_beta 90.000000
_cell_angle_gamma 90.000000
_cell_volume 2867.358799
_symmetry_space_group_name_H-M "C M C A"
_symmetry_group_IT_number 64
_symmetry_cell_setting 'orthorhombic'
loop_
_space_group_symop_operation_xyz
x,y,z
-x,1/2-y,1/2+z
x,-y,-z
-x,1/2+y,1/2-z
-x,-y,-z
x,1/2+y,1/2-z
-x,y,z
x,1/2-y,1/2+z
1/2+x,1/2+y,z
1/2-x,-y,1/2+z
1/2+x,1/2-y,-z
1/2-x,y,1/2-z
1/2-x,1/2-y,-z
1/2+x,y,1/2-z
1/2-x,1/2+y,z
1/2+x,-y,1/2+z
loop_
_atom_site_type_symbol
_atom_site_label
_atom_site_fract_x
_atom_site_fract_y
_atom_site_fract_z
Si Si1 0.500000 0.885529 0.938008
Si Si2 0.355084 0.346159 0.712610
Si Si3 0.760158 0.597119 0.652879
Si Si4 0.000000 0.729278 0.969035
Si Si5 0.295788 0.652303 0.093547
O O1 0.637460 0.855690 0.913756
O O2 0.500000 0.058952 0.952025
O O3 0.500000 0.785163 0.980457
O O4 0.500000 0.363817 0.731026
O O5 0.250000 0.339358 0.750000
O O6 0.321774 0.482482 0.681421
O O7 0.345202 0.197599 0.684444
O O8 0.674633 0.713776 0.625916
O O9 0.834224 0.498401 0.617608
O O10 0.126630 0.813664 0.949529
#
# Coordination Sequence:
#
# PCOD9481584 Si02
#       5
#     8  16  16   8  16
#     4  11  24  45  65 103 144 175 227 293 333 393
#     4  11  26  48  70 101 137 176 222 279 339 407
#     4  10  25  41  70  98 137 175 221 279 330 399
#     4  11  24  43  71  97 140 187 223 279 349 397
#     4  11  23  44  69 102 135 182 229 276 338 397
#
# _framework density 22.320194000000001
#
# number of rings (size 3 to 8) (size 9 to 14) (size 15 to 20)
#    0.000    1.250    2.500    1.500   10.500    4.000 
#    4.500    1.250    0.000    0.000    0.000    0.000 
#    0.000    0.000    0.000    0.000    0.000    0.000 
#
# Total GULP energy -178975.846679 kJ/mol
# GULP energy per Si atom -5592.995209 kJ/mol
# Density = 2.226939 g / cm^3
# Si number density = 22.320194 Si / 1000 Ang^3
#
#
#
# Elastic Constant Matrix: (Units=GPa)
#
#
# Indices 1 2 3 4 5 6 
#
# 1 143.3019 15.8058 38.0032 0.0000 0.0000 0.0000
# 2 15.8058 112.0637 18.0501 0.0000 0.0000 0.0000
# 3 38.0032 18.0501 94.8537 0.0000 0.0000 0.0000
# 4 0.0000 0.0000 0.0000 16.8728 0.0000 0.0000
# 5 0.0000 0.0000 0.0000 0.0000 22.7689 0.0000
# 6 0.0000 0.0000 0.0000 0.0000 0.0000 3.8594
#
#
#
# Elastic Compliance Matrix: (Units=1/GPa)
#
#
# Indices 1 2 3 4 5 6 
#
# 1 0.007849 -0.000620 -0.003027 0.000000 0.000000 0.000000
# 2 -0.000620 0.009255 -0.001513 0.000000 0.000000 0.000000
# 3 -0.003027 -0.001513 0.012043 0.000000 0.000000 0.000000
# 4 0.000000 0.000000 0.000000 0.059267 0.000000 0.000000
# 5 0.000000 0.000000 0.000000 0.000000 0.043920 0.000000
# 6 0.000000 0.000000 0.000000 0.000000 0.000000 0.259105
#
#
# Mechanical properties :
#
#
# Convention : Reuss Voigt Hill
#
# Bulk Modulus (GPa) = 53.11136 54.88195 53.99665
# Shear Modulus (GPa) = 12.25390 27.25757 19.75573
#
# Velocity S-wave (km/s) = 2.34563 3.49837 2.97830
# Velocity P-wave (km/s) = 5.58416 6.40000 6.00595
#
# Compressibility (1/GPa) = 0.01882837
#
# Stress axis : x y z
#
# Youngs Moduli (GPa) = 127.39917 108.05490 83.03452
#
# Poissons Ratio (x) = 0.06694 0.25134
# Poissons Ratio (y) = 0.07893 0.12562
# Poissons Ratio (z) = 0.38563 0.16347
#
# Static dielectric constant tensor:
#      x y z
#    x 1.800830 0.000000 0.000000 
#    y 0.000000 1.824990 0.000000 
#    z 0.000000 0.000000 1.787510 
# 
# From -- ./inp_files/52482.got.cif
#   From: 2010.05.17/outbox.cif.g08.bks.cpg/sg64_27_cif.got.tgz:52482.got - 2010.06.03 16:29:19.
