data_PCOD9481630
_publ_section_title
;
Structure prediction by ZEFSAII (Michael W. Deem and Ramdas Pophale) SiO2 
 PCOD9481630
Probable space group: C M C A
;
_chemical_formula_sum "Si O2"
_cell_formula_units_Z 56
_cell_length_a 27.277196
_cell_length_b 9.033521
_cell_length_c 8.475238
_cell_angle_alpha 90.000000
_cell_angle_beta 90.000000
_cell_angle_gamma 90.000000
_cell_volume 2088.375962
_symmetry_space_group_name_H-M "C M C A"
_symmetry_group_IT_number 64
_symmetry_cell_setting 'orthorhombic'
loop_
_space_group_symop_operation_xyz
x,y,z
-x,1/2-y,1/2+z
x,-y,-z
-x,1/2+y,1/2-z
-x,-y,-z
x,1/2+y,1/2-z
-x,y,z
x,1/2-y,1/2+z
1/2+x,1/2+y,z
1/2-x,-y,1/2+z
1/2+x,1/2-y,-z
1/2-x,y,1/2-z
1/2-x,1/2-y,-z
1/2+x,y,1/2-z
1/2-x,1/2+y,z
1/2+x,-y,1/2+z
loop_
_atom_site_type_symbol
_atom_site_label
_atom_site_fract_x
_atom_site_fract_y
_atom_site_fract_z
Si Si1 0.056100 0.092565 0.663025
Si Si2 0.250000 0.472593 0.750000
Si Si3 0.189048 0.729074 0.595562
Si Si4 0.381463 0.132162 0.326451
O O1 0.074960 0.256735 0.631581
O O2 0.000000 0.090594 0.717789
O O3 0.058557 0.000000 0.500000
O O4 0.092920 0.023342 0.793194
O O5 0.208192 0.590234 0.698722
O O6 0.230789 0.358982 0.887365
O O7 0.142999 0.817777 0.663992
O O8 0.164887 0.661932 0.439560
#
# Coordination Sequence:
#
# PCOD9481630 Si02
#       4
#    16   8  16  16
#     4  11  25  49  77 112 152 193 246 311 385 464
#     4  10  26  48  72 114 158 208 264 322 380 446
#     4  11  26  45  76 107 155 202 260 313 382 450
#     4  12  25  48  76 113 147 202 249 316 379 459
#
# _framework density 26.815096
#
# number of rings (size 3 to 8) (size 9 to 14) (size 15 to 20)
#    0.000    0.857    2.857    2.571    0.000   11.429 
#    0.000    1.429    0.000    0.000    0.000    0.000 
#    0.000    0.000    0.000    0.000    0.000    0.000 
#
# Total GULP energy -156777.603973 kJ/mol
# GULP energy per Si atom -5599.200142 kJ/mol
# Density = 2.675406 g / cm^3
# Si number density = 26.815096 Si / 1000 Ang^3
#
#
#
# Elastic Constant Matrix: (Units=GPa)
#
#
# Indices 1 2 3 4 5 6 
#
# 1 201.7220 57.6560 27.3487 0.0000 0.0000 0.0000
# 2 57.6560 168.9779 11.9230 0.0000 0.0000 0.0000
# 3 27.3487 11.9230 40.2976 0.0000 0.0000 0.0000
# 4 0.0000 0.0000 0.0000 46.9486 0.0000 0.0000
# 5 0.0000 0.0000 0.0000 0.0000 41.0274 0.0000
# 6 0.0000 0.0000 0.0000 0.0000 0.0000 45.9509
#
#
#
# Elastic Compliance Matrix: (Units=1/GPa)
#
#
# Indices 1 2 3 4 5 6 
#
# 1 0.005941 -0.001780 -0.003506 0.000000 0.000000 0.000000
# 2 -0.001780 0.006577 -0.000738 0.000000 0.000000 0.000000
# 3 -0.003506 -0.000738 0.027413 0.000000 0.000000 0.000000
# 4 0.000000 0.000000 0.000000 0.021300 0.000000 0.000000
# 5 0.000000 0.000000 0.000000 0.000000 0.024374 0.000000
# 6 0.000000 0.000000 0.000000 0.000000 0.000000 0.021762
#
#
# Mechanical properties :
#
#
# Convention : Reuss Voigt Hill
#
# Bulk Modulus (GPa) = 35.86236 67.20589 51.53412
# Shear Modulus (GPa) = 38.84717 47.72338 43.28527
#
# Velocity S-wave (km/s) = 3.81032 4.22325 4.02209
# Velocity P-wave (km/s) = 5.72372 6.99273 6.38981
#
# Compressibility (1/GPa) = 0.02788439
#
# Stress axis : x y z
#
# Youngs Moduli (GPa) = 168.31335 152.03785 36.47925
#
# Poissons Ratio (x) = 0.27060 0.12788
# Poissons Ratio (y) = 0.29957 0.02693
# Poissons Ratio (z) = 0.59003 0.11222
#
# Static dielectric constant tensor:
#      x y z
#    x 2.034140 0.000000 0.000000 
#    y 0.000000 2.071380 0.000000 
#    z 0.000000 0.000000 2.225590 
# 
# From -- ./inp_files/9892.got.cif
#   From: 2010.05.17/outbox.cif.g08.bks.cpg/sg64_5_cif.got.tgz:9892.got - 2010.06.03 16:29:19.
