data_PCOD9481056
_publ_section_title
;
Structure prediction by ZEFSAII (Michael W. Deem and Ramdas Pophale) SiO2 
 PCOD9481056
Probable space group: C M C A
;
_chemical_formula_sum "Si O2"
_cell_formula_units_Z 64
_cell_length_a 18.644814
_cell_length_b 11.312528
_cell_length_c 13.250927
_cell_angle_alpha 90.000000
_cell_angle_beta 90.000000
_cell_angle_gamma 90.000000
_cell_volume 2794.885264
_symmetry_space_group_name_H-M "C M C A"
_symmetry_group_IT_number 64
_symmetry_cell_setting 'orthorhombic'
loop_
_space_group_symop_operation_xyz
x,y,z
-x,1/2-y,1/2+z
x,-y,-z
-x,1/2+y,1/2-z
-x,-y,-z
x,1/2+y,1/2-z
-x,y,z
x,1/2-y,1/2+z
1/2+x,1/2+y,z
1/2-x,-y,1/2+z
1/2+x,1/2-y,-z
1/2-x,y,1/2-z
1/2-x,1/2-y,-z
1/2+x,y,1/2-z
1/2-x,1/2+y,z
1/2+x,-y,1/2+z
loop_
_atom_site_type_symbol
_atom_site_label
_atom_site_fract_x
_atom_site_fract_y
_atom_site_fract_z
Si Si1 0.330503 0.255379 0.285997
Si Si2 0.206458 0.125161 0.516351
Si Si3 0.579817 0.603869 0.075625
Si Si4 0.419527 0.292643 0.601279
O O1 0.250000 0.232609 0.250000
O O2 0.323531 0.356636 0.370634
O O3 0.364275 0.140176 0.339722
O O4 0.384348 0.280072 0.193612
O O5 0.250000 0.250000 0.500000
O O6 0.142484 0.118380 0.433995
O O7 0.245794 0.000000 0.500000
O O8 0.500000 0.581024 0.118113
O O9 0.598174 0.500000 0.000000
O O10 0.575072 0.713652 0.998912
O O11 0.500000 0.334888 0.625638
#
# Coordination Sequence:
#
# PCOD9481056 Si02
#       4
#    16  16  16  16
#     4  11  22  42  63 101 134 184 231 293 349 423
#     4  11  25  47  70 102 145 193 241 298 358 428
#     4   9  20  39  65  94 134 183 227 281 350 424
#     4  10  22  43  67 100 139 181 231 290 358 423
#
# _framework density 22.898972000000001
#
# number of rings (size 3 to 8) (size 9 to 14) (size 15 to 20)
#    0.000    1.750    2.500    0.750    0.000    7.500 
#    4.500    2.500    0.000    0.000    0.000    0.000 
#    0.000    0.000    0.000    0.000    0.000    0.000 
#
# Total GULP energy -178446.973131 kJ/mol
# GULP energy per Si atom -5576.467910 kJ/mol
# Density = 2.284685 g / cm^3
# Si number density = 22.898972 Si / 1000 Ang^3
#
#
#
# Elastic Constant Matrix: (Units=GPa)
#
#
# Indices 1 2 3 4 5 6 
#
# 1 182.3435 41.7389 54.5472 0.0000 0.0000 0.0000
# 2 41.7389 88.3922 5.6476 0.0000 0.0000 0.0000
# 3 54.5472 5.6476 104.2787 0.0000 0.0000 0.0000
# 4 0.0000 0.0000 0.0000 11.2527 0.0000 0.0000
# 5 0.0000 0.0000 0.0000 0.0000 -39.3126 0.0000
# 6 0.0000 0.0000 0.0000 0.0000 0.0000 21.3008
#
#
#
# Elastic Compliance Matrix: (Units=1/GPa)
#
#
# Indices 1 2 3 4 5 6 
#
# 1 0.007314 -0.003220 -0.003651 0.000000 0.000000 0.000000
# 2 -0.003220 0.012770 0.000993 0.000000 0.000000 0.000000
# 3 -0.003651 0.000993 0.011446 0.000000 0.000000 0.000000
# 4 0.000000 0.000000 0.000000 0.088868 0.000000 0.000000
# 5 0.000000 0.000000 0.000000 0.000000 -0.025437 0.000000
# 6 0.000000 0.000000 0.000000 0.000000 0.000000 0.046946
#
#
# Mechanical properties :
#
#
# Convention : Reuss Voigt Hill
#
# Bulk Modulus (GPa) = 50.57517 64.32019 57.44768
# Shear Modulus (GPa) = 31.20034 16.85357 24.02696
#
# Velocity S-wave (km/s) = 3.69524 2.71587 3.24274
# Velocity P-wave (km/s) = 6.35142 6.16314 6.25799
#
# Compressibility (1/GPa) = 0.01977255
#
# Stress axis : x y z
#
# Youngs Moduli (GPa) = 136.73330 78.30636 87.36797
#
# Poissons Ratio (x) = 0.25216 0.31900
# Poissons Ratio (y) = 0.44030 -0.08674
# Poissons Ratio (z) = 0.49924 -0.07774
#
# Static dielectric constant tensor:
#      x y z
#    x 1.966060 0.000000 0.000000 
#    y 0.000000 1.957260 0.000000 
#    z 0.000000 0.000000 1.881990 
# 
# From -- ./inp_files/16789.got.cif
#   From: 2010.05.17/outbox.cif.g08.bks.cpg/sg64_9_cif.got.tgz:16789.got - 2010.06.03 16:29:19.
