data_PCOD9481119
_publ_section_title
;
Structure prediction by ZEFSAII (Michael W. Deem and Ramdas Pophale) SiO2 
 PCOD9481119
Probable space group: C M C A
;
_chemical_formula_sum "Si O2"
_cell_formula_units_Z 56
_cell_length_a 17.405535
_cell_length_b 12.482397
_cell_length_c 11.085146
_cell_angle_alpha 90.000000
_cell_angle_beta 90.000000
_cell_angle_gamma 90.000000
_cell_volume 2408.389835
_symmetry_space_group_name_H-M "C M C A"
_symmetry_group_IT_number 64
_symmetry_cell_setting 'orthorhombic'
loop_
_space_group_symop_operation_xyz
x,y,z
-x,1/2-y,1/2+z
x,-y,-z
-x,1/2+y,1/2-z
-x,-y,-z
x,1/2+y,1/2-z
-x,y,z
x,1/2-y,1/2+z
1/2+x,1/2+y,z
1/2-x,-y,1/2+z
1/2+x,1/2-y,-z
1/2-x,y,1/2-z
1/2-x,1/2-y,-z
1/2+x,y,1/2-z
1/2-x,1/2+y,z
1/2+x,-y,1/2+z
loop_
_atom_site_type_symbol
_atom_site_label
_atom_site_fract_x
_atom_site_fract_y
_atom_site_fract_z
Si Si1 0.413493 0.478376 0.355768
Si Si2 0.089692 0.166576 0.847555
Si Si3 0.180499 0.500000 0.500000
Si Si4 0.796232 0.650081 0.140988
O O1 0.409147 0.500000 0.500000
O O2 0.500000 0.511467 0.319171
O O3 0.403328 0.360861 0.296642
O O4 0.346224 0.552568 0.306654
O O5 0.140408 0.264145 0.896922
O O6 0.000000 0.183838 0.873587
O O7 0.123990 0.061322 0.909613
O O8 0.237584 0.593161 0.449932
O O9 0.750000 0.702879 0.250000
#
# Coordination Sequence:
#
# PCOD9481119 Si02
#       4
#    16  16   8  16
#     4  10  22  44  70  98 139 187 232 283 347 423
#     4  11  26  47  70 104 143 186 235 288 356 425
#     4  12  25  46  75 104 140 184 232 298 353 426
#     4  12  25  42  73 103 142 179 238 288 357 411
#
# _framework density 23.252049
#
# number of rings (size 3 to 8) (size 9 to 14) (size 15 to 20)
#    0.000    0.857    4.286    2.143    4.000    2.286 
#    0.000    2.857    0.000    0.000    0.000    0.000 
#    0.000    0.000    0.000    0.000    0.000    0.000 
#
# Total GULP energy -156145.949466 kJ/mol
# GULP energy per Si atom -5576.641052 kJ/mol
# Density = 2.319913 g / cm^3
# Si number density = 23.252049 Si / 1000 Ang^3
#
#
#
# Elastic Constant Matrix: (Units=GPa)
#
#
# Indices 1 2 3 4 5 6 
#
# 1 144.5593 36.5935 37.2808 0.0000 0.0000 0.0000
# 2 36.5935 63.4956 32.2444 0.0000 0.0000 0.0000
# 3 37.2808 32.2444 69.6357 0.0000 0.0000 0.0000
# 4 0.0000 0.0000 0.0000 9.5874 0.0000 0.0000
# 5 0.0000 0.0000 0.0000 0.0000 -70.3671 0.0000
# 6 0.0000 0.0000 0.0000 0.0000 0.0000 39.5038
#
#
#
# Elastic Compliance Matrix: (Units=1/GPa)
#
#
# Indices 1 2 3 4 5 6 
#
# 1 0.008554 -0.003405 -0.003003 0.000000 0.000000 0.000000
# 2 -0.003405 0.021946 -0.008339 0.000000 0.000000 0.000000
# 3 -0.003003 -0.008339 0.019830 0.000000 0.000000 0.000000
# 4 0.000000 0.000000 0.000000 0.104303 0.000000 0.000000
# 5 0.000000 0.000000 0.000000 0.000000 -0.014211 0.000000
# 6 0.000000 0.000000 0.000000 0.000000 0.000000 0.025314
#
#
# Mechanical properties :
#
#
# Convention : Reuss Voigt Hill
#
# Bulk Modulus (GPa) = 47.99446 54.43646 51.21546
# Shear Modulus (GPa) = 24.73106 7.18294 15.95700
#
# Velocity S-wave (km/s) = 3.26484 1.75951 2.62250
# Velocity P-wave (km/s) = 5.90745 5.25263 5.58964
#
# Compressibility (1/GPa) = 0.02083574
#
# Stress axis : x y z
#
# Youngs Moduli (GPa) = 116.90586 45.56594 50.42976
#
# Poissons Ratio (x) = 0.15514 0.15144
# Poissons Ratio (y) = 0.39804 0.42055
# Poissons Ratio (z) = 0.35106 0.37999
#
# Static dielectric constant tensor:
#      x y z
#    x 1.842670 0.000000 0.000000 
#    y 0.000000 1.849180 0.000000 
#    z 0.000000 0.000000 2.047660 
# 
# From -- ./inp_files/23017.got.cif
#   From: 2010.05.17/outbox.cif.g08.bks.cpg/sg64_12_cif.got.tgz:23017.got - 2010.06.03 16:29:19.
