data_PCOD9481028
_publ_section_title
;
Structure prediction by ZEFSAII (Michael W. Deem and Ramdas Pophale) SiO2 
 PCOD9481028
Probable space group: C M C A
;
_chemical_formula_sum "Si O2"
_cell_formula_units_Z 64
_cell_length_a 17.897442
_cell_length_b 29.394070
_cell_length_c 5.022622
_cell_angle_alpha 90.000000
_cell_angle_beta 90.000000
_cell_angle_gamma 90.000000
_cell_volume 2642.294266
_symmetry_space_group_name_H-M "C M C A"
_symmetry_group_IT_number 64
_symmetry_cell_setting 'orthorhombic'
loop_
_space_group_symop_operation_xyz
x,y,z
-x,1/2-y,1/2+z
x,-y,-z
-x,1/2+y,1/2-z
-x,-y,-z
x,1/2+y,1/2-z
-x,y,z
x,1/2-y,1/2+z
1/2+x,1/2+y,z
1/2-x,-y,1/2+z
1/2+x,1/2-y,-z
1/2-x,y,1/2-z
1/2-x,1/2-y,-z
1/2+x,y,1/2-z
1/2-x,1/2+y,z
1/2+x,-y,1/2+z
loop_
_atom_site_type_symbol
_atom_site_label
_atom_site_fract_x
_atom_site_fract_y
_atom_site_fract_z
Si Si1 0.301161 0.407767 0.500561
Si Si2 0.916807 0.456340 0.683782
Si Si3 0.409319 0.723587 0.193500
Si Si4 0.914525 0.362731 0.347577
O O1 0.250000 0.420259 0.250000
O O2 0.353217 0.448717 0.600414
O O3 0.357962 0.369541 0.394138
O O4 0.250000 0.394209 0.750000
O O5 0.906090 0.500000 0.500000
O O6 0.914898 0.410856 0.502390
O O7 0.000000 0.458208 0.805422
O O8 0.500000 0.723613 0.203914
O O9 0.384570 0.763211 0.988293
O O10 0.390046 0.676481 0.050483
O O11 0.000000 0.353267 0.257619
#
# Coordination Sequence:
#
# PCOD9481028 Si02
#       4
#    16  16  16  16
#     4  12  25  46  67  99 139 183 227 277 333 409
#     4  10  23  46  74 105 139 179 231 283 337 404
#     4   9  19  34  60  97 129 163 217 283 342 396
#     4  10  22  42  69  98 136 180 227 283 343 401
#
# _framework density 24.221377
#
# number of rings (size 3 to 8) (size 9 to 14) (size 15 to 20)
#    0.000    1.750    2.500    0.750    3.500    1.000 
#    4.500    3.750    0.000    4.500    0.000    0.000 
#    0.000    0.000    0.000    0.000    0.000    0.000 
#
# Total GULP energy -179228.835118 kJ/mol
# GULP energy per Si atom -5600.901097 kJ/mol
# Density = 2.416625 g / cm^3
# Si number density = 24.221377 Si / 1000 Ang^3
#
#
#
# Elastic Constant Matrix: (Units=GPa)
#
#
# Indices 1 2 3 4 5 6 
#
# 1 128.9713 16.5054 63.0801 0.0000 0.0000 0.0000
# 2 16.5054 121.1973 15.8439 0.0000 0.0000 0.0000
# 3 63.0801 15.8439 131.8549 0.0000 0.0000 0.0000
# 4 0.0000 0.0000 0.0000 34.4133 0.0000 0.0000
# 5 0.0000 0.0000 0.0000 0.0000 -73.9438 0.0000
# 6 0.0000 0.0000 0.0000 0.0000 0.0000 -9.2730
#
#
#
# Elastic Compliance Matrix: (Units=1/GPa)
#
#
# Indices 1 2 3 4 5 6 
#
# 1 0.010191 -0.000762 -0.004784 0.000000 0.000000 0.000000
# 2 -0.000762 0.008440 -0.000649 0.000000 0.000000 0.000000
# 3 -0.004784 -0.000649 0.009951 0.000000 0.000000 0.000000
# 4 0.000000 0.000000 0.000000 0.029059 0.000000 0.000000
# 5 0.000000 0.000000 0.000000 0.000000 -0.013524 0.000000
# 6 0.000000 0.000000 0.000000 0.000000 0.000000 -0.107840
#
#
# Mechanical properties :
#
#
# Convention : Reuss Voigt Hill
#
# Bulk Modulus (GPa) = 61.76592 63.65359 62.70975
# Shear Modulus (GPa) = -108.84787 9.34559 -49.75114
#
# Velocity S-wave (km/s) = -6.71091 1.96641 -4.53704
# Velocity P-wave (km/s) = 5.87303 5.61183 1.22471
#
# Compressibility (1/GPa) = 0.01619016
#
# Stress axis : x y z
#
# Youngs Moduli (GPa) = 98.12564 118.48708 100.49522
#
# Poissons Ratio (x) = 0.09035 0.48075
# Poissons Ratio (y) = 0.07482 0.06526
# Poissons Ratio (z) = 0.46941 0.07694
#
# Static dielectric constant tensor:
#      x y z
#    x 1.944650 0.000000 0.000000 
#    y 0.000000 1.950280 0.000000 
#    z 0.000000 0.000000 1.944590 
# 
# From -- ./inp_files/1675.got.cif
#   From: 2010.05.17/outbox.cif.g08.bks.cpg/sg64_1_cif.got.tgz:1675.got - 2010.06.03 16:29:19.
