data_PCOD9481325
_publ_section_title
;
Structure prediction by ZEFSAII (Michael W. Deem and Ramdas Pophale) SiO2 
 PCOD9481325
Probable space group: C M C A
;
_chemical_formula_sum "Si O2"
_cell_formula_units_Z 56
_cell_length_a 14.023670
_cell_length_b 18.487887
_cell_length_c 9.157645
_cell_angle_alpha 90.000000
_cell_angle_beta 90.000000
_cell_angle_gamma 90.000000
_cell_volume 2374.284545
_symmetry_space_group_name_H-M "C M C A"
_symmetry_group_IT_number 64
_symmetry_cell_setting 'orthorhombic'
loop_
_space_group_symop_operation_xyz
x,y,z
-x,1/2-y,1/2+z
x,-y,-z
-x,1/2+y,1/2-z
-x,-y,-z
x,1/2+y,1/2-z
-x,y,z
x,1/2-y,1/2+z
1/2+x,1/2+y,z
1/2-x,-y,1/2+z
1/2+x,1/2-y,-z
1/2-x,y,1/2-z
1/2-x,1/2-y,-z
1/2+x,y,1/2-z
1/2-x,1/2+y,z
1/2+x,-y,1/2+z
loop_
_atom_site_type_symbol
_atom_site_label
_atom_site_fract_x
_atom_site_fract_y
_atom_site_fract_z
Si Si1 0.894315 0.009838 0.328343
Si Si2 0.250000 0.633130 0.250000
Si Si3 0.384204 0.221660 0.470118
Si Si4 0.113682 0.149345 0.721962
O O1 0.853863 0.933454 0.269013
O O2 0.000000 0.023032 0.263009
O O3 0.904936 0.000000 0.500000
O O4 0.827600 0.077945 0.312819
O O5 0.313489 0.678093 0.135513
O O6 0.500000 0.209419 0.446164
O O7 0.362628 0.197336 0.635620
O O8 0.365252 0.304804 0.423799
O O9 0.000000 0.142058 0.722152
#
# Coordination Sequence:
#
# PCOD9481325 Si02
#       4
#    16   8  16  16
#     4  10  24  44  66  95 135 178 218 270 335 397
#     4  12  26  38  66  98 132 174 220 280 324 396
#     4  10  23  43  68  98 131 173 222 275 332 391
#     4   9  21  43  69  94 131 174 218 271 329 394
#
# _framework density 23.586051000000001
#
# number of rings (size 3 to 8) (size 9 to 14) (size 15 to 20)
#    0.000    2.000    0.000    0.857    8.000    2.286 
#    0.000    4.286    0.000    0.000    0.000    0.000 
#    0.000    0.000    0.000    0.000    0.000    0.000 
#
# Total GULP energy -156400.212402 kJ/mol
# GULP energy per Si atom -5585.721871 kJ/mol
# Density = 2.353237 g / cm^3
# Si number density = 23.586051 Si / 1000 Ang^3
#
#
#
# Elastic Constant Matrix: (Units=GPa)
#
#
# Indices 1 2 3 4 5 6 
#
# 1 155.4863 54.9656 31.3109 0.0000 0.0000 0.0000
# 2 54.9656 120.8072 39.4084 0.0000 0.0000 0.0000
# 3 31.3109 39.4084 70.3989 0.0000 0.0000 0.0000
# 4 0.0000 0.0000 0.0000 31.1342 0.0000 0.0000
# 5 0.0000 0.0000 0.0000 0.0000 144.4556 0.0000
# 6 0.0000 0.0000 0.0000 0.0000 0.0000 25.1085
#
#
#
# Elastic Compliance Matrix: (Units=1/GPa)
#
#
# Indices 1 2 3 4 5 6 
#
# 1 0.007851 -0.002977 -0.001826 0.000000 0.000000 0.000000
# 2 -0.002977 0.011255 -0.004977 0.000000 0.000000 0.000000
# 3 -0.001826 -0.004977 0.017803 0.000000 0.000000 0.000000
# 4 0.000000 0.000000 0.000000 0.032119 0.000000 0.000000
# 5 0.000000 0.000000 0.000000 0.000000 0.006923 0.000000
# 6 0.000000 0.000000 0.000000 0.000000 0.000000 0.039827
#
#
# Mechanical properties :
#
#
# Convention : Reuss Voigt Hill
#
# Bulk Modulus (GPa) = 57.63268 66.45135 62.04202
# Shear Modulus (GPa) = 35.43079 54.87349 45.15214
#
# Velocity S-wave (km/s) = 3.88002 4.82864 4.38008
# Velocity P-wave (km/s) = 6.67539 7.70213 7.20707
#
# Compressibility (1/GPa) = 0.01735127
#
# Stress axis : x y z
#
# Youngs Moduli (GPa) = 127.36627 88.84574 56.17130
#
# Poissons Ratio (x) = 0.26447 0.10255
# Poissons Ratio (y) = 0.37913 0.27955
# Poissons Ratio (z) = 0.23253 0.44216
#
# Static dielectric constant tensor:
#      x y z
#    x 2.016770 0.000000 0.000000 
#    y 0.000000 1.935330 0.000000 
#    z 0.000000 0.000000 1.868650 
# 
# From -- ./inp_files/5235.got.cif
#   From: 2010.05.17/outbox.cif.g08.bks.cpg/sg64_3_cif.got.tgz:5235.got - 2010.06.03 16:29:19.
