data_PCOD9481306
_publ_section_title
;
Structure prediction by ZEFSAII (Michael W. Deem and Ramdas Pophale) SiO2 
 PCOD9481306
Probable space group: C M C A
;
_chemical_formula_sum "Si O2"
_cell_formula_units_Z 80
_cell_length_a 23.390529
_cell_length_b 8.527492
_cell_length_c 17.110296
_cell_angle_alpha 90.000000
_cell_angle_beta 90.000000
_cell_angle_gamma 90.000000
_cell_volume 3412.863253
_symmetry_space_group_name_H-M "C M C A"
_symmetry_group_IT_number 64
_symmetry_cell_setting 'orthorhombic'
loop_
_space_group_symop_operation_xyz
x,y,z
-x,1/2-y,1/2+z
x,-y,-z
-x,1/2+y,1/2-z
-x,-y,-z
x,1/2+y,1/2-z
-x,y,z
x,1/2-y,1/2+z
1/2+x,1/2+y,z
1/2-x,-y,1/2+z
1/2+x,1/2-y,-z
1/2-x,y,1/2-z
1/2-x,1/2-y,-z
1/2+x,y,1/2-z
1/2-x,1/2+y,z
1/2+x,-y,1/2+z
loop_
_atom_site_type_symbol
_atom_site_label
_atom_site_fract_x
_atom_site_fract_y
_atom_site_fract_z
Si Si1 0.174339 0.653975 0.963105
Si Si2 0.402079 0.137566 0.560482
Si Si3 0.562309 0.018296 0.109777
Si Si4 0.303290 0.212016 0.799277
Si Si5 0.381868 0.479112 0.772184
O O1 0.114739 0.581581 0.926189
O O2 0.210451 0.712799 0.890311
O O3 0.202096 0.500000 0.000000
O O4 0.155841 0.791386 0.021485
O O5 0.434614 0.302579 0.577531
O O6 0.422574 0.000000 0.500000
O O7 0.395438 0.061398 0.645993
O O8 0.500000 0.951187 0.091435
O O9 0.572085 0.020260 0.203237
O O10 0.250000 0.266205 0.750000
O O11 0.362847 0.303927 0.790327
O O12 0.323332 0.046971 0.764729
#
# Coordination Sequence:
#
# PCOD9481306 Si02
#       5
#    16  16  16  16  16
#     4   9  21  41  67  94 133 166 213 274 329 382
#     4  11  21  39  66  92 131 167 215 276 326 368
#     4  10  23  43  66  90 130 181 218 259 330 398
#     4  11  22  41  68  93 125 173 217 261 326 394
#     4  11  22  42  64  94 130 169 215 273 316 385
#
# _framework density 23.440728
#
# number of rings (size 3 to 8) (size 9 to 14) (size 15 to 20)
#    0.000    1.600    4.000    0.600    0.000    4.800 
#    0.000    2.000    0.000    0.000    0.000    0.000 
#    0.000    0.000    0.000    0.000    0.000    0.000 
#
# Total GULP energy -223152.146385 kJ/mol
# GULP energy per Si atom -5578.803660 kJ/mol
# Density = 2.338738 g / cm^3
# Si number density = 23.440728 Si / 1000 Ang^3
#
#
#
# Elastic Constant Matrix: (Units=GPa)
#
#
# Indices 1 2 3 4 5 6 
#
# 1 59.1094 17.2003 27.2082 0.0000 0.0000 0.0000
# 2 17.2003 71.7691 21.9180 0.0000 0.0000 0.0000
# 3 27.2082 21.9180 183.8038 0.0000 0.0000 0.0000
# 4 0.0000 0.0000 0.0000 50.2547 0.0000 0.0000
# 5 0.0000 0.0000 0.0000 0.0000 4.3798 0.0000
# 6 0.0000 0.0000 0.0000 0.0000 0.0000 61.6287
#
#
#
# Elastic Compliance Matrix: (Units=1/GPa)
#
#
# Indices 1 2 3 4 5 6 
#
# 1 0.019133 -0.003861 -0.002372 0.000000 0.000000 0.000000
# 2 -0.003861 0.015239 -0.001246 0.000000 0.000000 0.000000
# 3 -0.002372 -0.001246 0.005940 0.000000 0.000000 0.000000
# 4 0.000000 0.000000 0.000000 0.019899 0.000000 0.000000
# 5 0.000000 0.000000 0.000000 0.000000 0.228322 0.000000
# 6 0.000000 0.000000 0.000000 0.000000 0.000000 0.016226
#
#
# Mechanical properties :
#
#
# Convention : Reuss Voigt Hill
#
# Bulk Modulus (GPa) = 39.43930 49.70391 44.57161
# Shear Modulus (GPa) = 15.23608 39.80969 27.52289
#
# Velocity S-wave (km/s) = 2.55224 4.12553 3.43030
# Velocity P-wave (km/s) = 5.05439 6.62899 5.89450
#
# Compressibility (1/GPa) = 0.02535542
#
# Stress axis : x y z
#
# Youngs Moduli (GPa) = 52.26543 65.61947 168.34378
#
# Poissons Ratio (x) = 0.25337 0.39928
# Poissons Ratio (y) = 0.20180 0.20970
# Poissons Ratio (z) = 0.12396 0.08174
#
# Static dielectric constant tensor:
#      x y z
#    x 1.864740 0.000000 0.000000 
#    y 0.000000 1.892010 0.000000 
#    z 0.000000 0.000000 1.951420 
# 
# From -- ./inp_files/35367.got.cif
#   From: 2010.05.17/outbox.cif.g08.bks.cpg/sg64_18_cif.got.tgz:35367.got - 2010.06.03 16:29:19.
