data_PCOD9481402
_publ_section_title
;
Structure prediction by ZEFSAII (Michael W. Deem and Ramdas Pophale) SiO2 
 PCOD9481402
Probable space group: C M C A
;
_chemical_formula_sum "Si O2"
_cell_formula_units_Z 64
_cell_length_a 25.718018
_cell_length_b 16.468645
_cell_length_c 7.387782
_cell_angle_alpha 90.000000
_cell_angle_beta 90.000000
_cell_angle_gamma 90.000000
_cell_volume 3129.027900
_symmetry_space_group_name_H-M "C M C A"
_symmetry_group_IT_number 64
_symmetry_cell_setting 'orthorhombic'
loop_
_space_group_symop_operation_xyz
x,y,z
-x,1/2-y,1/2+z
x,-y,-z
-x,1/2+y,1/2-z
-x,-y,-z
x,1/2+y,1/2-z
-x,y,z
x,1/2-y,1/2+z
1/2+x,1/2+y,z
1/2-x,-y,1/2+z
1/2+x,1/2-y,-z
1/2-x,y,1/2-z
1/2-x,1/2-y,-z
1/2+x,y,1/2-z
1/2-x,1/2+y,z
1/2+x,-y,1/2+z
loop_
_atom_site_type_symbol
_atom_site_label
_atom_site_fract_x
_atom_site_fract_y
_atom_site_fract_z
Si Si1 0.693544 0.000000 0.500000
Si Si2 0.116947 0.370390 0.387106
Si Si3 0.363280 0.313049 0.707930
Si Si4 0.750000 0.376658 0.750000
Si Si5 0.941765 0.594140 0.946059
O O1 0.656756 0.053882 0.630449
O O2 0.729646 0.065228 0.406296
O O3 0.116163 0.350778 0.601728
O O4 0.132288 0.283702 0.303211
O O5 0.067509 0.396261 0.269121
O O6 0.301676 0.329661 0.690737
O O7 0.398232 0.355453 0.554559
O O8 0.000000 0.622355 0.993598
O O9 0.936979 0.500000 0.000000
#
# Coordination Sequence:
#
# PCOD9481402 Si02
#       5
#     8  16  16   8  16
#     4  10  24  38  65  98 131 178 216 274 332 404
#     4  11  23  45  65  98 136 172 224 276 332 397
#     4  11  24  43  66 102 135 176 221 277 333 401
#     4  10  24  38  64 102 130 180 216 270 338 402
#     4  11  25  45  71  96 130 179 222 278 339 394
#
# _framework density 20.453635999999999
#
# number of rings (size 3 to 8) (size 9 to 14) (size 15 to 20)
#    0.000    1.250    2.500    3.000    5.250    7.000 
#    0.000    3.125    0.000    0.000    0.000    0.000 
#    0.000    0.000    0.000    0.000    0.000    0.000 
#
# Total GULP energy -178478.286896 kJ/mol
# GULP energy per Si atom -5577.446465 kJ/mol
# Density = 2.040708 g / cm^3
# Si number density = 20.453636 Si / 1000 Ang^3
#
#
#
# Elastic Constant Matrix: (Units=GPa)
#
#
# Indices 1 2 3 4 5 6 
#
# 1 137.0013 46.9828 43.7609 0.0000 0.0000 0.0000
# 2 46.9828 99.2551 11.9203 0.0000 0.0000 0.0000
# 3 43.7609 11.9203 85.1277 0.0000 0.0000 0.0000
# 4 0.0000 0.0000 0.0000 13.2063 0.0000 0.0000
# 5 0.0000 0.0000 0.0000 0.0000 37.5263 0.0000
# 6 0.0000 0.0000 0.0000 0.0000 0.0000 7.2657
#
#
#
# Elastic Compliance Matrix: (Units=1/GPa)
#
#
# Indices 1 2 3 4 5 6 
#
# 1 0.010267 -0.004298 -0.004676 0.000000 0.000000 0.000000
# 2 -0.004298 0.012047 0.000523 0.000000 0.000000 0.000000
# 3 -0.004676 0.000523 0.014078 0.000000 0.000000 0.000000
# 4 0.000000 0.000000 0.000000 0.075721 0.000000 0.000000
# 5 0.000000 0.000000 0.000000 0.000000 0.026648 0.000000
# 6 0.000000 0.000000 0.000000 0.000000 0.000000 0.137634
#
#
# Mechanical properties :
#
#
# Convention : Reuss Voigt Hill
#
# Bulk Modulus (GPa) = 51.31291 58.52356 54.91823
# Shear Modulus (GPa) = 16.67815 26.18099 21.42957
#
# Velocity S-wave (km/s) = 2.85864 3.58161 3.24035
# Velocity P-wave (km/s) = 6.00314 6.76601 6.39596
#
# Compressibility (1/GPa) = 0.01948827
#
# Stress axis : x y z
#
# Youngs Moduli (GPa) = 97.40127 83.00899 71.03503
#
# Poissons Ratio (x) = 0.35680 0.33215
# Poissons Ratio (y) = 0.41866 -0.03713
# Poissons Ratio (z) = 0.45544 -0.04339
#
# Static dielectric constant tensor:
#      x y z
#    x 1.757060 0.000000 0.000000 
#    y 0.000000 1.712820 0.000000 
#    z 0.000000 0.000000 2.005160 
# 
# From -- ./inp_files/9971.got.cif
#   From: 2010.05.17/outbox.cif.g08.bks.cpg/sg64_5_cif.got.tgz:9971.got - 2010.06.03 16:29:19.
