data_PCOD9481655
_publ_section_title
;
Structure prediction by ZEFSAII (Michael W. Deem and Ramdas Pophale) SiO2 
 PCOD9481655
Probable space group: C M C A
;
_chemical_formula_sum "Si O2"
_cell_formula_units_Z 120
_cell_length_a 7.587616
_cell_length_b 22.838230
_cell_length_c 27.590923
_cell_angle_alpha 90.000000
_cell_angle_beta 90.000000
_cell_angle_gamma 90.000000
_cell_volume 4781.168122
_symmetry_space_group_name_H-M "C M C A"
_symmetry_group_IT_number 64
_symmetry_cell_setting 'orthorhombic'
loop_
_space_group_symop_operation_xyz
x,y,z
-x,1/2-y,1/2+z
x,-y,-z
-x,1/2+y,1/2-z
-x,-y,-z
x,1/2+y,1/2-z
-x,y,z
x,1/2-y,1/2+z
1/2+x,1/2+y,z
1/2-x,-y,1/2+z
1/2+x,1/2-y,-z
1/2-x,y,1/2-z
1/2-x,1/2-y,-z
1/2+x,y,1/2-z
1/2-x,1/2+y,z
1/2+x,-y,1/2+z
loop_
_atom_site_type_symbol
_atom_site_label
_atom_site_fract_x
_atom_site_fract_y
_atom_site_fract_z
Si Si1 0.297517 0.519500 0.885306
Si Si2 0.202905 0.234655 0.674007
Si Si3 0.283903 0.220159 0.934863
Si Si4 0.705322 0.094715 0.971867
Si Si5 0.706400 0.890624 0.300686
Si Si6 0.500000 0.941508 0.837144
Si Si7 0.709374 0.640576 0.179606
Si Si8 0.709802 0.849019 0.563899
O O1 0.290813 0.544329 0.939861
O O2 0.247813 0.572852 0.848335
O O3 0.000000 0.501193 0.624991
O O4 0.154505 0.472276 0.870943
O O5 0.277454 0.221266 0.620975
O O6 0.206672 0.173016 0.700391
O O7 0.272076 0.294506 0.696723
O O8 0.000000 0.250282 0.664784
O O9 0.500000 0.219499 0.937395
O O10 0.221633 0.158495 0.955816
O O11 0.224924 0.284337 0.953387
O O12 0.500000 0.091940 0.959280
O O13 0.721216 0.099363 0.029758
O O14 0.500000 0.880525 0.302451
O O15 0.750000 0.922363 0.250000
O O16 0.343255 0.909187 0.804818
O O17 0.500000 0.630153 0.186919
O O18 0.746922 0.645988 0.120900
O O19 0.500000 0.849696 0.559321
#
# Coordination Sequence:
#
# PCOD9481655 Si02
#       8
#    16  16  16  16  16   8  16  16
#     4  11  25  43  62  95 125 165 219 262 319 382
#     4   9  17  35  63  92 130 160 198 254 312 378
#     4   8  15  28  50  79 119 165 202 246 309 372
#     4  11  19  31  53  83 122 167 212 258 318 376
#     4  11  24  39  66 102 134 163 197 252 321 395
#     4  12  24  42  71  86 124 174 218 272 302 378
#     4   9  21  40  63  94 123 169 223 265 311 366
#     4   9  18  33  51  80 123 165 210 267 314 364
#
# _framework density 25.098469999999999
#
# number of rings (size 3 to 8) (size 9 to 14) (size 15 to 20)
#    0.000    2.133    2.000    3.200    3.733    0.000 
#    0.000    2.000    0.000    3.200    3.467    0.000 
#    0.000    0.000    0.000    0.000    0.000    0.000 
#
# Total GULP energy -334115.502792 kJ/mol
# GULP energy per Si atom -5568.591713 kJ/mol
# Density = 2.504134 g / cm^3
# Si number density = 25.098470 Si / 1000 Ang^3
#
#
#
# Elastic Constant Matrix: (Units=GPa)
#
#
# Indices 1 2 3 4 5 6 
#
# 1 103.2068 36.2149 7.7158 0.0000 0.0000 0.0000
# 2 36.2149 83.7163 9.9834 0.0000 0.0000 0.0000
# 3 7.7158 9.9834 77.7281 0.0000 0.0000 0.0000
# 4 0.0000 0.0000 0.0000 -37.6694 0.0000 0.0000
# 5 0.0000 0.0000 0.0000 0.0000 19.8417 0.0000
# 6 0.0000 0.0000 0.0000 0.0000 0.0000 -3.6268
#
#
#
# Elastic Compliance Matrix: (Units=1/GPa)
#
#
# Indices 1 2 3 4 5 6 
#
# 1 0.011443 -0.004890 -0.000508 0.000000 0.000000 0.000000
# 2 -0.004890 0.014220 -0.001341 0.000000 0.000000 0.000000
# 3 -0.000508 -0.001341 0.013088 0.000000 0.000000 0.000000
# 4 0.000000 0.000000 0.000000 -0.026547 0.000000 0.000000
# 5 0.000000 0.000000 0.000000 0.000000 0.050399 0.000000
# 6 0.000000 0.000000 0.000000 0.000000 0.000000 -0.275725
#
#
# Mechanical properties :
#
#
# Convention : Reuss Voigt Hill
#
# Bulk Modulus (GPa) = 39.56609 41.38660 40.47635
# Shear Modulus (GPa) = -26.14789 9.75824 -8.19483
#
# Velocity S-wave (km/s) = -3.23121 1.97394 -1.80891
# Velocity P-wave (km/s) = 1.37025 4.66055 3.43499
#
# Compressibility (1/GPa) = 0.02527417
#
# Stress axis : x y z
#
# Youngs Moduli (GPa) = 87.38972 70.32239 76.40569
#
# Poissons Ratio (x) = 0.34385 0.03881
# Poissons Ratio (y) = 0.42730 0.10247
# Poissons Ratio (z) = 0.04439 0.09431
#
# Static dielectric constant tensor:
#      x y z
#    x 1.943400 0.000000 0.000000 
#    y 0.000000 2.046180 0.000000 
#    z 0.000000 0.000000 2.014610 
# 
# From -- ./inp_files/48749.got.cif
#   From: 2010.05.17/outbox.cif.g08.bks.cpg/sg64_25_cif.got.tgz:48749.got - 2010.06.03 16:29:19.
