data_PCOD9481470
_publ_section_title
;
Structure prediction by ZEFSAII (Michael W. Deem and Ramdas Pophale) SiO2 
 PCOD9481470
Probable space group: C M C A
;
_chemical_formula_sum "Si O2"
_cell_formula_units_Z 72
_cell_length_a 26.749512
_cell_length_b 14.870027
_cell_length_c 8.441229
_cell_angle_alpha 90.000000
_cell_angle_beta 90.000000
_cell_angle_gamma 90.000000
_cell_volume 3357.633605
_symmetry_space_group_name_H-M "C M C A"
_symmetry_group_IT_number 64
_symmetry_cell_setting 'orthorhombic'
loop_
_space_group_symop_operation_xyz
x,y,z
-x,1/2-y,1/2+z
x,-y,-z
-x,1/2+y,1/2-z
-x,-y,-z
x,1/2+y,1/2-z
-x,y,z
x,1/2-y,1/2+z
1/2+x,1/2+y,z
1/2-x,-y,1/2+z
1/2+x,1/2-y,-z
1/2-x,y,1/2-z
1/2-x,1/2-y,-z
1/2+x,y,1/2-z
1/2-x,1/2+y,z
1/2+x,-y,1/2+z
loop_
_atom_site_type_symbol
_atom_site_label
_atom_site_fract_x
_atom_site_fract_y
_atom_site_fract_z
Si Si1 0.618610 0.477630 0.320736
Si Si2 0.110406 0.226453 0.603308
Si Si3 0.180344 0.000000 0.000000
Si Si4 0.782052 0.179997 0.095537
Si Si5 0.443158 0.851864 0.811449
O O1 0.639545 0.500000 0.500000
O O2 0.609069 0.370769 0.309891
O O3 0.650316 0.505084 0.166165
O O4 0.570491 0.542892 0.309736
O O5 0.163818 0.274462 0.623453
O O6 0.096977 0.196050 0.426037
O O7 0.068357 0.298693 0.651080
O O8 0.211347 0.090647 0.994016
O O9 0.750000 0.157311 0.250000
O O10 0.750000 0.250000 0.000000
O O11 0.500000 0.839718 0.863032
#
# Coordination Sequence:
#
# PCOD9481470 Si02
#       5
#    16  16   8  16  16
#     4  10  24  42  73  98 144 189 236 295 362 430
#     4  11  23  45  68  99 145 183 233 302 359 424
#     4  12  24  48  73 104 144 186 233 306 370 420
#     4  12  27  46  72 106 141 190 246 297 366 442
#     4  11  23  42  70 104 139 188 242 295 369 438
#
# _framework density 21.443674000000001
#
# number of rings (size 3 to 8) (size 9 to 14) (size 15 to 20)
#    0.000    0.889    2.222    4.667    3.111    7.556 
#    0.000    0.556    0.000    0.000    0.000    0.000 
#    0.000    0.000    0.000    0.000    0.000    0.000 
#
# Total GULP energy -200947.329808 kJ/mol
# GULP energy per Si atom -5581.870272 kJ/mol
# Density = 2.139487 g / cm^3
# Si number density = 21.443674 Si / 1000 Ang^3
#
#
#
# Elastic Constant Matrix: (Units=GPa)
#
#
# Indices 1 2 3 4 5 6 
#
# 1 105.4590 44.4038 25.6978 0.0000 0.0000 0.0000
# 2 44.4038 157.9339 11.7589 0.0000 0.0000 0.0000
# 3 25.6978 11.7589 70.3548 0.0000 0.0000 0.0000
# 4 0.0000 0.0000 0.0000 34.8219 0.0000 0.0000
# 5 0.0000 0.0000 0.0000 0.0000 22.1743 0.0000
# 6 0.0000 0.0000 0.0000 0.0000 0.0000 32.8460
#
#
#
# Elastic Compliance Matrix: (Units=1/GPa)
#
#
# Indices 1 2 3 4 5 6 
#
# 1 0.011661 -0.002999 -0.003758 0.000000 0.000000 0.000000
# 2 -0.002999 0.007183 -0.000105 0.000000 0.000000 0.000000
# 3 -0.003758 -0.000105 0.015604 0.000000 0.000000 0.000000
# 4 0.000000 0.000000 0.000000 0.028718 0.000000 0.000000
# 5 0.000000 0.000000 0.000000 0.000000 0.045097 0.000000
# 6 0.000000 0.000000 0.000000 0.000000 0.000000 0.030445
#
#
# Mechanical properties :
#
#
# Convention : Reuss Voigt Hill
#
# Bulk Modulus (GPa) = 48.25427 55.27431 51.76429
# Shear Modulus (GPa) = 31.37971 34.76093 33.07032
#
# Velocity S-wave (km/s) = 3.82953 4.03058 3.93134
# Velocity P-wave (km/s) = 6.48887 6.89153 6.69323
#
# Compressibility (1/GPa) = 0.02072356
#
# Stress axis : x y z
#
# Youngs Moduli (GPa) = 85.75826 139.22383 64.08651
#
# Poissons Ratio (x) = 0.41748 0.24084
# Poissons Ratio (y) = 0.25716 0.00674
# Poissons Ratio (z) = 0.32228 0.01465
#
# Static dielectric constant tensor:
#      x y z
#    x 1.594840 0.000000 0.000000 
#    y 0.000000 1.779540 0.000000 
#    z 0.000000 0.000000 1.860770 
# 
# From -- ./inp_files/10023.got.cif
#   From: 2010.05.17/outbox.cif.g08.bks.cpg/sg64_6_cif.got.tgz:10023.got - 2010.06.03 16:29:19.
