data_PCOD9481681
_publ_section_title
;
Structure prediction by ZEFSAII (Michael W. Deem and Ramdas Pophale) SiO2 
 PCOD9481681
Probable space group: C M C A
;
_chemical_formula_sum "Si O2"
_cell_formula_units_Z 96
_cell_length_a 22.206207
_cell_length_b 8.044184
_cell_length_c 25.384790
_cell_angle_alpha 90.000000
_cell_angle_beta 90.000000
_cell_angle_gamma 90.000000
_cell_volume 4534.505728
_symmetry_space_group_name_H-M "C M C A"
_symmetry_group_IT_number 64
_symmetry_cell_setting 'orthorhombic'
loop_
_space_group_symop_operation_xyz
x,y,z
-x,1/2-y,1/2+z
x,-y,-z
-x,1/2+y,1/2-z
-x,-y,-z
x,1/2+y,1/2-z
-x,y,z
x,1/2-y,1/2+z
1/2+x,1/2+y,z
1/2-x,-y,1/2+z
1/2+x,1/2-y,-z
1/2-x,y,1/2-z
1/2-x,1/2-y,-z
1/2+x,y,1/2-z
1/2-x,1/2+y,z
1/2+x,-y,1/2+z
loop_
_atom_site_type_symbol
_atom_site_label
_atom_site_fract_x
_atom_site_fract_y
_atom_site_fract_z
Si Si1 0.237882 0.261449 0.190051
Si Si2 0.571059 0.619785 0.725150
Si Si3 0.697430 0.070060 0.942241
Si Si4 0.655281 0.065624 0.153466
Si Si5 0.666104 0.959229 0.560810
Si Si6 0.625305 0.043625 0.324002
O O1 0.250000 0.299324 0.250000
O O2 0.301856 0.219617 0.165055
O O3 0.198292 0.407005 0.166304
O O4 0.193995 0.100837 0.187267
O O5 0.500000 0.608492 0.731217
O O6 0.597677 0.470723 0.688705
O O7 0.588280 0.790809 0.694956
O O8 0.602390 0.593155 0.782153
O O9 0.680288 0.262305 0.938042
O O10 0.651235 0.958390 0.908327
O O11 0.768755 0.046129 0.930006
O O12 0.692299 0.000000 0.000000
O O13 0.624236 0.991165 0.612820
O O14 0.646499 0.000000 0.500000
#
# Coordination Sequence:
#
# PCOD9481681 Si02
#       6
#    16  16  16  16  16  16
#     4  11  20  31  54  86 124 148 189 242 318 375
#     4  11  24  43  64  87 121 168 213 256 313 372
#     4  11  20  36  56  89 130 171 206 253 314 384
#     4  11  21  35  55  89 122 157 196 250 311 369
#     4  11  22  38  59  93 134 171 206 252 320 391
#     4  11  23  40  62  92 126 162 204 262 317 380
#
# _framework density 21.170997
#
# number of rings (size 3 to 8) (size 9 to 14) (size 15 to 20)
#    0.000    1.000    6.667    3.000    2.333    0.000 
#    6.000    0.000    0.000    2.500    0.000    0.000 
#    0.000    0.000    0.000    0.000    0.000    0.000 
#
# Total GULP energy -268089.921864 kJ/mol
# GULP energy per Si atom -5585.206706 kJ/mol
# Density = 2.112281 g / cm^3
# Si number density = 21.170997 Si / 1000 Ang^3
#
#
#
# Elastic Constant Matrix: (Units=GPa)
#
#
# Indices 1 2 3 4 5 6 
#
# 1 101.8172 13.1480 43.9907 0.0000 0.0000 0.0000
# 2 13.1480 62.6832 22.9552 0.0000 0.0000 0.0000
# 3 43.9907 22.9552 182.8997 0.0000 0.0000 0.0000
# 4 0.0000 0.0000 0.0000 36.8106 0.0000 0.0000
# 5 0.0000 0.0000 0.0000 0.0000 7.9275 0.0000
# 6 0.0000 0.0000 0.0000 0.0000 0.0000 20.2457
#
#
#
# Elastic Compliance Matrix: (Units=1/GPa)
#
#
# Indices 1 2 3 4 5 6 
#
# 1 0.011079 -0.001413 -0.002487 0.000000 0.000000 0.000000
# 2 -0.001413 0.016902 -0.001781 0.000000 0.000000 0.000000
# 3 -0.002487 -0.001781 0.006289 0.000000 0.000000 0.000000
# 4 0.000000 0.000000 0.000000 0.027166 0.000000 0.000000
# 5 0.000000 0.000000 0.000000 0.000000 0.126144 0.000000
# 6 0.000000 0.000000 0.000000 0.000000 0.000000 0.049393
#
#
# Mechanical properties :
#
#
# Convention : Reuss Voigt Hill
#
# Bulk Modulus (GPa) = 43.65560 56.39865 50.02713
# Shear Modulus (GPa) = 19.53341 30.81715 25.17528
#
# Velocity S-wave (km/s) = 3.04081 3.81941 3.45213
# Velocity P-wave (km/s) = 5.74404 6.79323 6.29054
#
# Compressibility (1/GPa) = 0.02290657
#
# Stress axis : x y z
#
# Youngs Moduli (GPa) = 90.26389 59.16460 159.00004
#
# Poissons Ratio (x) = 0.08359 0.39548
# Poissons Ratio (y) = 0.12753 0.28326
# Poissons Ratio (z) = 0.22451 0.10540
#
# Static dielectric constant tensor:
#      x y z
#    x 1.722750 0.000000 0.000000 
#    y 0.000000 1.900060 0.000000 
#    z 0.000000 0.000000 1.958840 
# 
# From -- ./inp_files/50676.got.cif
#   From: 2010.05.17/outbox.cif.g08.bks.cpg/sg64_26_cif.got.tgz:50676.got - 2010.06.03 16:29:19.
