data_PCOD9481953
_publ_section_title
;
Structure prediction by ZEFSAII (Michael W. Deem and Ramdas Pophale) SiO2 
 PCOD9481953
Probable space group: C M C A
;
_chemical_formula_sum "Si O2"
_cell_formula_units_Z 80
_cell_length_a 7.560132
_cell_length_b 14.854168
_cell_length_c 31.838249
_cell_angle_alpha 90.000000
_cell_angle_beta 90.000000
_cell_angle_gamma 90.000000
_cell_volume 3575.418515
_symmetry_space_group_name_H-M "C M C A"
_symmetry_group_IT_number 64
_symmetry_cell_setting 'orthorhombic'
loop_
_space_group_symop_operation_xyz
x,y,z
-x,1/2-y,1/2+z
x,-y,-z
-x,1/2+y,1/2-z
-x,-y,-z
x,1/2+y,1/2-z
-x,y,z
x,1/2-y,1/2+z
1/2+x,1/2+y,z
1/2-x,-y,1/2+z
1/2+x,1/2-y,-z
1/2-x,y,1/2-z
1/2-x,1/2-y,-z
1/2+x,y,1/2-z
1/2-x,1/2+y,z
1/2+x,-y,1/2+z
loop_
_atom_site_type_symbol
_atom_site_label
_atom_site_fract_x
_atom_site_fract_y
_atom_site_fract_z
Si Si1 0.210138 0.613247 0.456508
Si Si2 0.707721 0.241611 0.701196
Si Si3 0.782360 0.595950 0.637540
Si Si4 0.289863 0.605356 0.953657
Si Si5 0.288265 0.890299 0.633750
O O1 0.226612 0.503933 0.454359
O O2 0.285477 0.640489 0.502048
O O3 0.281968 0.645158 0.411481
O O4 0.000000 0.633147 0.457881
O O5 0.500000 0.230006 0.699309
O O6 0.750000 0.249086 0.750000
O O7 0.783375 0.156280 0.675848
O O8 0.751436 0.328004 0.673164
O O9 0.721675 0.633321 0.592022
O O10 0.725838 0.492294 0.641031
O O11 0.000000 0.595856 0.636680
O O12 0.500000 0.624112 0.954097
O O13 0.500000 0.895280 0.628918
#
# Coordination Sequence:
#
# PCOD9481953 Si02
#       5
#    16  16  16  16  16
#     4   7  10  18  40  72 102 128 159 195 231 274
#     4  11  23  38  53  72  97 128 165 211 260 304
#     4   8  16  31  52  75 102 133 167 204 245 291
#     4   7   9  18  39  70 101 129 160 195 231 276
#     4   9  17  33  55  79 104 132 165 203 243 291
#
# _framework density 22.375004000000001
#
# number of rings (size 3 to 8) (size 9 to 14) (size 15 to 20)
#    0.000    3.600    0.000    4.200    0.000    0.800 
#    0.000    5.000    0.000    0.000    0.000   12.600 
#    0.000    0.000    0.000    0.000    0.000    0.000 
#
# Total GULP energy -222942.581052 kJ/mol
# GULP energy per Si atom -5573.564526 kJ/mol
# Density = 2.232408 g / cm^3
# Si number density = 22.375004 Si / 1000 Ang^3
#
#
#
# Elastic Constant Matrix: (Units=GPa)
#
#
# Indices 1 2 3 4 5 6 
#
# 1 53.1895 1.8277 11.9179 0.0000 0.0000 0.0000
# 2 1.8277 96.1425 109.1998 0.0000 0.0000 0.0000
# 3 11.9179 109.1998 281.6974 0.0000 0.0000 0.0000
# 4 0.0000 0.0000 0.0000 46.6072 0.0000 0.0000
# 5 0.0000 0.0000 0.0000 0.0000 -45.4019 0.0000
# 6 0.0000 0.0000 0.0000 0.0000 0.0000 -366.1081
#
#
#
# Elastic Compliance Matrix: (Units=1/GPa)
#
#
# Indices 1 2 3 4 5 6 
#
# 1 0.019033 0.000988 -0.001188 0.000000 0.000000 0.000000
# 2 0.000988 0.018635 -0.007266 0.000000 0.000000 0.000000
# 3 -0.001188 -0.007266 0.006417 0.000000 0.000000 0.000000
# 4 0.000000 0.000000 0.000000 0.021456 0.000000 0.000000
# 5 0.000000 0.000000 0.000000 0.000000 -0.022026 0.000000
# 6 0.000000 0.000000 0.000000 0.000000 0.000000 -0.002731
#
#
# Mechanical properties :
#
#
# Convention : Reuss Voigt Hill
#
# Bulk Modulus (GPa) = 34.30254 75.21337 54.75795
# Shear Modulus (GPa) = 76.41442 -52.44163 11.98639
#
# Velocity S-wave (km/s) = 5.85028 -4.84649 2.31704
# Velocity P-wave (km/s) = 7.81015 1.53945 5.62887
#
# Compressibility (1/GPa) = 0.02915236
#
# Stress axis : x y z
#
# Youngs Moduli (GPa) = 52.54039 53.66336 155.84479
#
# Poissons Ratio (x) = -0.05300 0.18516
# Poissons Ratio (y) = -0.05189 1.13229
# Poissons Ratio (z) = 0.06242 0.38989
#
# Static dielectric constant tensor:
#      x y z
#    x 1.831660 0.000000 0.000000 
#    y 0.000000 1.908140 0.000000 
#    z 0.000000 0.000000 1.793610 
# 
# From -- ./inp_files/51756.got.cif
#   From: 2010.05.17/outbox.cif.g08.bks.cpg/sg64_26_cif.got.tgz:51756.got - 2010.06.03 16:29:19.
