data_PCOD9481115
_publ_section_title
;
Structure prediction by ZEFSAII (Michael W. Deem and Ramdas Pophale) SiO2 
 PCOD9481115
Probable space group: C M C A
;
_chemical_formula_sum "Si O2"
_cell_formula_units_Z 112
_cell_length_a 13.733034
_cell_length_b 27.446180
_cell_length_c 14.585446
_cell_angle_alpha 90.000000
_cell_angle_beta 90.000000
_cell_angle_gamma 90.000000
_cell_volume 5497.536434
_symmetry_space_group_name_H-M "C M C A"
_symmetry_group_IT_number 64
_symmetry_cell_setting 'orthorhombic'
loop_
_space_group_symop_operation_xyz
x,y,z
-x,1/2-y,1/2+z
x,-y,-z
-x,1/2+y,1/2-z
-x,-y,-z
x,1/2+y,1/2-z
-x,y,z
x,1/2-y,1/2+z
1/2+x,1/2+y,z
1/2-x,-y,1/2+z
1/2+x,1/2-y,-z
1/2-x,y,1/2-z
1/2-x,1/2-y,-z
1/2+x,y,1/2-z
1/2-x,1/2+y,z
1/2+x,-y,1/2+z
loop_
_atom_site_type_symbol
_atom_site_label
_atom_site_fract_x
_atom_site_fract_y
_atom_site_fract_z
Si Si1 0.617553 0.056599 0.505679
Si Si2 0.616410 0.330155 0.555985
Si Si3 0.618906 0.373942 0.167303
Si Si4 0.224600 0.886376 0.844444
Si Si5 0.114660 0.213020 0.153528
Si Si6 0.382067 0.321595 0.342078
Si Si7 0.114823 0.722898 0.566891
O O1 0.500000 0.060356 0.500917
O O2 0.649589 0.081990 0.601425
O O3 0.661435 0.085223 0.419220
O O4 0.644469 0.000000 0.500000
O O5 0.500000 0.333365 0.567223
O O6 0.675305 0.371046 0.607320
O O7 0.639613 0.331281 0.447981
O O8 0.651709 0.276691 0.589710
O O9 0.500000 0.375188 0.165340
O O10 0.646497 0.364579 0.272869
O O11 0.653547 0.324006 0.118373
O O12 0.250000 0.913205 0.750000
O O13 0.168678 0.836073 0.818244
O O14 0.148987 0.266611 0.185735
O O15 0.000000 0.208341 0.177316
O O16 0.122116 0.215404 0.042275
O O17 0.500000 0.318538 0.338493
O O18 0.000000 0.724481 0.588472
#
# Coordination Sequence:
#
# PCOD9481115 Si02
#       7
#    16  16  16  16  16  16  16
#     4  10  22  44  70  90 112 145 195 260 314 343
#     4   9  20  37  52  77 123 170 195 225 285 358
#     4   9  15  29  57  88 113 146 192 242 290 340
#     4  12  25  37  56  88 117 154 197 245 288 350
#     4   9  17  33  53  77 117 158 191 236 288 344
#     4   8  16  30  52  82 119 160 197 231 281 356
#     4   8  14  27  50  77 112 155 192 229 277 340
#
# _framework density 20.372762000000002
#
# number of rings (size 3 to 8) (size 9 to 14) (size 15 to 20)
#    0.000    2.714    1.429    2.143    2.000    3.429 
#    0.000    2.143    0.000    0.429    0.000    0.000 
#    0.000    0.000    0.000    0.000    0.000    0.000 
#
# Total GULP energy -312757.756919 kJ/mol
# GULP energy per Si atom -5584.959945 kJ/mol
# Density = 2.032639 g / cm^3
# Si number density = 20.372762 Si / 1000 Ang^3
#
#
#
# Elastic Constant Matrix: (Units=GPa)
#
#
# Indices 1 2 3 4 5 6 
#
# 1 72.3045 16.4291 8.9719 0.0000 0.0000 0.0000
# 2 16.4291 92.5097 55.5683 0.0000 0.0000 0.0000
# 3 8.9719 55.5683 97.9668 0.0000 0.0000 0.0000
# 4 0.0000 0.0000 0.0000 17.7143 0.0000 0.0000
# 5 0.0000 0.0000 0.0000 0.0000 21.9862 0.0000
# 6 0.0000 0.0000 0.0000 0.0000 0.0000 12.8704
#
#
#
# Elastic Compliance Matrix: (Units=1/GPa)
#
#
# Indices 1 2 3 4 5 6 
#
# 1 0.014415 -0.002680 0.000200 0.000000 0.000000 0.000000
# 2 -0.002680 0.016894 -0.009337 0.000000 0.000000 0.000000
# 3 0.000200 -0.009337 0.015485 0.000000 0.000000 0.000000
# 4 0.000000 0.000000 0.000000 0.056452 0.000000 0.000000
# 5 0.000000 0.000000 0.000000 0.000000 0.045483 0.000000
# 6 0.000000 0.000000 0.000000 0.000000 0.000000 0.077697
#
#
# Mechanical properties :
#
#
# Convention : Reuss Voigt Hill
#
# Bulk Modulus (GPa) = 43.17837 47.19108 45.18473
# Shear Modulus (GPa) = 19.39631 22.63496 21.01564
#
# Velocity S-wave (km/s) = 3.08891 3.33684 3.21527
# Velocity P-wave (km/s) = 5.82769 6.16929 6.00092
#
# Compressibility (1/GPa) = 0.02315974
#
# Stress axis : x y z
#
# Youngs Moduli (GPa) = 69.37438 59.19151 64.57673
#
# Poissons Ratio (x) = 0.15864 -0.01292
# Poissons Ratio (y) = 0.18593 0.60297
# Poissons Ratio (z) = -0.01388 0.55269
#
# Static dielectric constant tensor:
#      x y z
#    x 1.775810 0.000000 0.000000 
#    y 0.000000 1.686750 0.000000 
#    z 0.000000 0.000000 1.763400 
# 
# From -- ./inp_files/24443.got.cif
#   From: 2010.05.17/outbox.cif.g08.bks.cpg/sg64_13_cif.got.tgz:24443.got - 2010.06.03 16:29:19.
