data_PCOD9481114
_publ_section_title
;
Structure prediction by ZEFSAII (Michael W. Deem and Ramdas Pophale) SiO2 
 PCOD9481114
Probable space group: C M C A
;
_chemical_formula_sum "Si O2"
_cell_formula_units_Z 64
_cell_length_a 23.236506
_cell_length_b 11.299228
_cell_length_c 10.288954
_cell_angle_alpha 90.000000
_cell_angle_beta 90.000000
_cell_angle_gamma 90.000000
_cell_volume 2701.411988
_symmetry_space_group_name_H-M "C M C A"
_symmetry_group_IT_number 64
_symmetry_cell_setting 'orthorhombic'
loop_
_space_group_symop_operation_xyz
x,y,z
-x,1/2-y,1/2+z
x,-y,-z
-x,1/2+y,1/2-z
-x,-y,-z
x,1/2+y,1/2-z
-x,y,z
x,1/2-y,1/2+z
1/2+x,1/2+y,z
1/2-x,-y,1/2+z
1/2+x,1/2-y,-z
1/2-x,y,1/2-z
1/2-x,1/2-y,-z
1/2+x,y,1/2-z
1/2-x,1/2+y,z
1/2+x,-y,1/2+z
loop_
_atom_site_type_symbol
_atom_site_label
_atom_site_fract_x
_atom_site_fract_y
_atom_site_fract_z
Si Si1 0.500000 0.463763 0.295069
Si Si2 0.809042 0.000000 0.500000
Si Si3 0.911795 0.388025 0.412172
Si Si4 0.250000 0.392378 0.750000
Si Si5 0.000000 0.814525 0.552644
Si Si6 0.184716 0.240255 0.047743
O O1 0.558728 0.424526 0.222831
O O2 0.500000 0.396762 0.429495
O O3 0.500000 0.603760 0.319793
O O4 0.772678 0.029836 0.370080
O O5 0.839430 0.125470 0.535377
O O6 0.926472 0.500000 0.500000
O O7 0.847580 0.350309 0.451450
O O8 0.946275 0.271695 0.451334
O O9 0.196163 0.315083 0.691512
O O10 0.250000 0.250000 0.000000
#
# Coordination Sequence:
#
# PCOD9481114 Si02
#       6
#     8   8  16   8   8  16
#     4  10  24  49  79 111 156 186 265 326 404 483
#     4  10  22  44  70 101 148 201 262 332 384 468
#     4  11  26  45  76 109 156 205 253 328 404 470
#     4  10  22  44  72 104 156 202 276 328 400 466
#     4  10  24  47  77 121 144 200 257 328 402 491
#     4  10  24  45  70 110 152 212 270 323 395 477
#
# _framework density 23.691313999999998
#
# number of rings (size 3 to 8) (size 9 to 14) (size 15 to 20)
#    0.000    1.750    0.000    2.250   14.000    6.000 
#    4.500    0.000    0.000    0.000    0.000    0.000 
#    0.000    0.000    0.000    0.000    0.000    0.000 
#
# Total GULP energy -178496.130316 kJ/mol
# GULP energy per Si atom -5578.004072 kJ/mol
# Density = 2.363739 g / cm^3
# Si number density = 23.691314 Si / 1000 Ang^3
#
#
#
# Elastic Constant Matrix: (Units=GPa)
#
#
# Indices 1 2 3 4 5 6 
#
# 1 109.6824 38.9753 43.4914 0.0000 0.0000 0.0000
# 2 38.9753 170.7506 61.8854 0.0000 0.0000 0.0000
# 3 43.4914 61.8854 139.5487 0.0000 0.0000 0.0000
# 4 0.0000 0.0000 0.0000 75.6010 0.0000 0.0000
# 5 0.0000 0.0000 0.0000 0.0000 17.8167 0.0000
# 6 0.0000 0.0000 0.0000 0.0000 0.0000 60.0042
#
#
#
# Elastic Compliance Matrix: (Units=1/GPa)
#
#
# Indices 1 2 3 4 5 6 
#
# 1 0.010704 -0.001471 -0.002684 0.000000 0.000000 0.000000
# 2 -0.001471 0.007180 -0.002726 0.000000 0.000000 0.000000
# 3 -0.002684 -0.002726 0.009211 0.000000 0.000000 0.000000
# 4 0.000000 0.000000 0.000000 0.013227 0.000000 0.000000
# 5 0.000000 0.000000 0.000000 0.000000 0.056127 0.000000
# 6 0.000000 0.000000 0.000000 0.000000 0.000000 0.016666
#
#
# Mechanical properties :
#
#
# Convention : Reuss Voigt Hill
#
# Bulk Modulus (GPa) = 74.99154 78.74287 76.86721
# Shear Modulus (GPa) = 38.07475 49.05968 43.56721
#
# Velocity S-wave (km/s) = 4.01324 4.55553 4.29295
# Velocity P-wave (km/s) = 7.29363 7.80894 7.55568
#
# Compressibility (1/GPa) = 0.01333484
#
# Stress axis : x y z
#
# Youngs Moduli (GPa) = 93.42305 139.27403 108.56336
#
# Poissons Ratio (x) = 0.20481 0.29137
# Poissons Ratio (y) = 0.13739 0.29592
# Poissons Ratio (z) = 0.25073 0.37964
#
# Static dielectric constant tensor:
#      x y z
#    x 1.878630 0.000000 0.000000 
#    y 0.000000 1.976710 0.000000 
#    z 0.000000 0.000000 2.026700 
# 
# From -- ./inp_files/17949.got.cif
#   From: 2010.05.17/outbox.cif.g08.bks.cpg/sg64_9_cif.got.tgz:17949.got - 2010.06.03 16:29:19.
