data_PCOD9481982
_publ_section_title
;
Structure prediction by ZEFSAII (Michael W. Deem and Ramdas Pophale) SiO2 
 PCOD9481982
Probable space group: C M C A
;
_chemical_formula_sum "Si O2"
_cell_formula_units_Z 96
_cell_length_a 8.664930
_cell_length_b 29.377593
_cell_length_c 20.750405
_cell_angle_alpha 90.000000
_cell_angle_beta 90.000000
_cell_angle_gamma 90.000000
_cell_volume 5282.114923
_symmetry_space_group_name_H-M "C M C A"
_symmetry_group_IT_number 64
_symmetry_cell_setting 'orthorhombic'
loop_
_space_group_symop_operation_xyz
x,y,z
-x,1/2-y,1/2+z
x,-y,-z
-x,1/2+y,1/2-z
-x,-y,-z
x,1/2+y,1/2-z
-x,y,z
x,1/2-y,1/2+z
1/2+x,1/2+y,z
1/2-x,-y,1/2+z
1/2+x,1/2-y,-z
1/2-x,y,1/2-z
1/2-x,1/2-y,-z
1/2+x,y,1/2-z
1/2-x,1/2+y,z
1/2+x,-y,1/2+z
loop_
_atom_site_type_symbol
_atom_site_label
_atom_site_fract_x
_atom_site_fract_y
_atom_site_fract_z
Si Si1 0.684230 0.624387 0.482524
Si Si2 0.684650 0.781531 0.180943
Si Si3 0.184952 0.719489 0.441720
Si Si4 0.315540 0.529735 0.680130
Si Si5 0.184583 0.875886 0.127687
Si Si6 0.684833 0.970088 0.563895
O O1 0.500000 0.624310 0.488801
O O2 0.740283 0.669950 0.447140
O O3 0.758223 0.624515 0.553866
O O4 0.741707 0.579271 0.446577
O O5 0.500000 0.786994 0.184098
O O6 0.750000 0.767383 0.250000
O O7 0.719936 0.745296 0.124876
O O8 0.758951 0.829674 0.161124
O O9 0.250000 0.750000 0.500000
O O10 0.000000 0.715866 0.448313
O O11 0.500000 0.529441 0.680752
O O12 0.250000 0.517202 0.750000
O O13 0.255902 0.580167 0.662224
O O14 0.252861 0.496056 0.625227
O O15 0.000000 0.878874 0.129357
O O16 0.500000 0.966356 0.569659
O O17 0.718311 0.000000 0.500000
#
# Coordination Sequence:
#
# PCOD9481982 Si02
#       6
#    16  16  16  16  16  16
#     4  12  24  39  63  95 127 161 208 259 312 368
#     4  11  24  41  62  91 126 165 207 254 311 371
#     4  11  23  40  64  91 124 164 209 257 308 368
#     4  12  25  42  64  92 129 167 209 256 313 374
#     4  12  23  38  62  92 128 165 205 256 313 370
#     4  11  23  41  66  93 125 164 209 257 310 368
#
# _framework density 18.174538999999999
#
# number of rings (size 3 to 8) (size 9 to 14) (size 15 to 20)
#    0.000    0.500    3.333    6.500    0.000    2.667 
#    0.000    0.833    0.000    2.000    0.000    0.000 
#    0.000    0.000    0.000    0.000    0.000    0.000 
#
# Total GULP energy -268702.122423 kJ/mol
# GULP energy per Si atom -5597.960884 kJ/mol
# Density = 1.813317 g / cm^3
# Si number density = 18.174539 Si / 1000 Ang^3
#
#
#
# Elastic Constant Matrix: (Units=GPa)
#
#
# Indices 1 2 3 4 5 6 
#
# 1 117.3369 57.0781 69.4042 0.0000 0.0000 0.0000
# 2 57.0781 132.8636 65.3594 0.0000 0.0000 0.0000
# 3 69.4042 65.3594 157.7413 0.0000 0.0000 0.0000
# 4 0.0000 0.0000 0.0000 -36.5674 0.0000 0.0000
# 5 0.0000 0.0000 0.0000 0.0000 32.4985 0.0000
# 6 0.0000 0.0000 0.0000 0.0000 0.0000 33.5548
#
#
#
# Elastic Compliance Matrix: (Units=1/GPa)
#
#
# Indices 1 2 3 4 5 6 
#
# 1 0.012623 -0.003380 -0.004154 0.000000 0.000000 0.000000
# 2 -0.003380 0.010358 -0.002805 0.000000 0.000000 0.000000
# 3 -0.004154 -0.002805 0.009329 0.000000 0.000000 0.000000
# 4 0.000000 0.000000 0.000000 -0.027347 0.000000 0.000000
# 5 0.000000 0.000000 0.000000 0.000000 0.030771 0.000000
# 6 0.000000 0.000000 0.000000 0.000000 0.000000 0.029802
#
#
# Mechanical properties :
#
#
# Convention : Reuss Voigt Hill
#
# Bulk Modulus (GPa) = 85.95282 87.95836 86.95559
# Shear Modulus (GPa) = 55.49902 20.30384 37.90143
#
# Velocity S-wave (km/s) = 5.53200 3.34602 4.57159
# Velocity P-wave (km/s) = 9.39147 7.96425 8.70715
#
# Compressibility (1/GPa) = 0.01163429
#
# Stress axis : x y z
#
# Youngs Moduli (GPa) = 79.21761 96.54183 107.18897
#
# Poissons Ratio (x) = 0.32628 0.44524
# Poissons Ratio (y) = 0.26773 0.30065
# Poissons Ratio (z) = 0.32906 0.27079
#
# Static dielectric constant tensor:
#      x y z
#    x 1.605420 0.000000 0.000000 
#    y 0.000000 1.595840 0.000000 
#    z 0.000000 0.000000 1.603850 
# 
# From -- ./inp_files/36996.got.cif
#   From: 2010.05.17/outbox.cif.g08.bks.cpg/sg64_19_cif.got.tgz:36996.got - 2010.06.03 16:29:19.
