data_PCOD9481990
_publ_section_title
;
Structure prediction by ZEFSAII (Michael W. Deem and Ramdas Pophale) SiO2 
 PCOD9481990
Probable space group: C M C A
;
_chemical_formula_sum "Si O2"
_cell_formula_units_Z 96
_cell_length_a 22.678103
_cell_length_b 25.310345
_cell_length_c 9.032791
_cell_angle_alpha 90.000000
_cell_angle_beta 90.000000
_cell_angle_gamma 90.000000
_cell_volume 5184.737224
_symmetry_space_group_name_H-M "C M C A"
_symmetry_group_IT_number 64
_symmetry_cell_setting 'orthorhombic'
loop_
_space_group_symop_operation_xyz
x,y,z
-x,1/2-y,1/2+z
x,-y,-z
-x,1/2+y,1/2-z
-x,-y,-z
x,1/2+y,1/2-z
-x,y,z
x,1/2-y,1/2+z
1/2+x,1/2+y,z
1/2-x,-y,1/2+z
1/2+x,1/2-y,-z
1/2-x,y,1/2-z
1/2-x,1/2-y,-z
1/2+x,y,1/2-z
1/2-x,1/2+y,z
1/2+x,-y,1/2+z
loop_
_atom_site_type_symbol
_atom_site_label
_atom_site_fract_x
_atom_site_fract_y
_atom_site_fract_z
Si Si1 0.000000 0.289365 0.005196
Si Si2 0.796284 0.240447 0.873003
Si Si3 0.828537 0.554310 0.083736
Si Si4 0.114014 0.163870 0.341154
Si Si5 0.114903 0.847538 0.006582
Si Si6 0.193400 0.554951 0.434868
Si Si7 0.000000 0.321703 0.348015
O O1 0.000000 0.300275 0.180628
O O2 0.058964 0.313253 0.931725
O O3 0.000000 0.228044 0.960548
O O4 0.750000 0.220612 0.750000
O O5 0.830693 0.295193 0.838399
O O6 0.750000 0.250000 0.000000
O O7 0.846517 0.200434 0.927646
O O8 0.867195 0.608056 0.083073
O O9 0.817748 0.548568 0.259820
O O10 0.762056 0.564368 0.026763
O O11 0.849104 0.500000 0.000000
O O12 0.097587 0.159573 0.166817
O O13 0.156300 0.898022 0.001818
O O14 0.058477 0.853422 0.110653
O O15 0.174140 0.500000 0.500000
#
# Coordination Sequence:
#
# PCOD9481990 Si02
#       7
#     8  16  16  16  16  16   8
#     4  12  26  42  61  88 119 164 209 253 303 365
#     4  12  24  37  58  93 127 159 198 249 308 368
#     4   9  19  37  62  90 122 160 199 249 309 364
#     4  11  23  41  64  86 126 163 204 253 305 364
#     4  11  23  42  62  88 124 165 205 250 308 361
#     4   9  19  38  60  90 125 158 199 251 307 363
#     4  12  26  42  61  86 121 162 211 251 303 367
#
# _framework density 18.515885000000001
#
# number of rings (size 3 to 8) (size 9 to 14) (size 15 to 20)
#    0.000    1.333    3.333    2.500    4.667    1.333 
#    6.000    0.833    0.000    0.000    0.000    0.000 
#    0.000    0.000    0.000    0.000    0.000    0.000 
#
# Total GULP energy -267588.745669 kJ/mol
# GULP energy per Si atom -5574.765535 kJ/mol
# Density = 1.847374 g / cm^3
# Si number density = 18.515885 Si / 1000 Ang^3
#
#
#
# Elastic Constant Matrix: (Units=GPa)
#
#
# Indices 1 2 3 4 5 6 
#
# 1 71.2766 17.9028 22.6525 0.0000 0.0000 0.0000
# 2 17.9028 82.7426 11.7873 0.0000 0.0000 0.0000
# 3 22.6525 11.7873 60.6111 0.0000 0.0000 0.0000
# 4 0.0000 0.0000 0.0000 28.8173 0.0000 0.0000
# 5 0.0000 0.0000 0.0000 0.0000 33.0097 0.0000
# 6 0.0000 0.0000 0.0000 0.0000 0.0000 -115.7186
#
#
#
# Elastic Compliance Matrix: (Units=1/GPa)
#
#
# Indices 1 2 3 4 5 6 
#
# 1 0.016516 -0.002771 -0.005634 0.000000 0.000000 0.000000
# 2 -0.002771 0.012895 -0.001472 0.000000 0.000000 0.000000
# 3 -0.005634 -0.001472 0.018890 0.000000 0.000000 0.000000
# 4 0.000000 0.000000 0.000000 0.034701 0.000000 0.000000
# 5 0.000000 0.000000 0.000000 0.000000 0.030294 0.000000
# 6 0.000000 0.000000 0.000000 0.000000 0.000000 -0.008642
#
#
# Mechanical properties :
#
#
# Convention : Reuss Voigt Hill
#
# Bulk Modulus (GPa) = 35.02894 35.47951 35.25422
# Shear Modulus (GPa) = 37.33417 0.04084 18.68750
#
# Velocity S-wave (km/s) = 4.49523 0.14868 3.18035
# Velocity P-wave (km/s) = 6.77511 4.38551 5.70679
#
# Compressibility (1/GPa) = 0.02854782
#
# Stress axis : x y z
#
# Youngs Moduli (GPa) = 60.54605 77.54977 52.93670
#
# Poissons Ratio (x) = 0.21489 0.29824
# Poissons Ratio (y) = 0.16777 0.07793
# Poissons Ratio (z) = 0.34111 0.11416
#
# Static dielectric constant tensor:
#      x y z
#    x 1.618510 0.000000 0.000000 
#    y 0.000000 1.648430 0.000000 
#    z 0.000000 0.000000 1.588630 
# 
# From -- ./inp_files/9516.got.cif
#   From: 2010.05.17/outbox.cif.g08.bks.cpg/sg64_5_cif.got.tgz:9516.got - 2010.06.03 16:29:19.
