data_PCOD9481896
_publ_section_title
;
Structure prediction by ZEFSAII (Michael W. Deem and Ramdas Pophale) SiO2 
 PCOD9481896
Probable space group: C M C A
;
_chemical_formula_sum "Si O2"
_cell_formula_units_Z 88
_cell_length_a 24.720257
_cell_length_b 11.113952
_cell_length_c 13.669763
_cell_angle_alpha 90.000000
_cell_angle_beta 90.000000
_cell_angle_gamma 90.000000
_cell_volume 3755.627265
_symmetry_space_group_name_H-M "C M C A"
_symmetry_group_IT_number 64
_symmetry_cell_setting 'orthorhombic'
loop_
_space_group_symop_operation_xyz
x,y,z
-x,1/2-y,1/2+z
x,-y,-z
-x,1/2+y,1/2-z
-x,-y,-z
x,1/2+y,1/2-z
-x,y,z
x,1/2-y,1/2+z
1/2+x,1/2+y,z
1/2-x,-y,1/2+z
1/2+x,1/2-y,-z
1/2-x,y,1/2-z
1/2-x,1/2-y,-z
1/2+x,y,1/2-z
1/2-x,1/2+y,z
1/2+x,-y,1/2+z
loop_
_atom_site_type_symbol
_atom_site_label
_atom_site_fract_x
_atom_site_fract_y
_atom_site_fract_z
Si Si1 0.750000 0.479467 0.250000
Si Si2 0.558460 0.476299 0.828539
Si Si3 0.837695 0.184098 0.657286
Si Si4 0.438997 0.360193 0.474326
Si Si5 0.324971 0.420116 0.912018
Si Si6 0.914403 0.244208 0.314544
O O1 0.789857 0.405005 0.180073
O O2 0.709329 0.551522 0.183048
O O3 0.500000 0.458359 0.876710
O O4 0.611804 0.448602 0.891613
O O5 0.561633 0.619472 0.803106
O O6 0.561736 0.373980 0.742319
O O7 0.894684 0.144447 0.610895
O O8 0.818599 0.279279 0.576838
O O9 0.855790 0.240054 0.762684
O O10 0.442606 0.500000 0.500000
O O11 0.500000 0.319591 0.446664
O O12 0.419549 0.288145 0.571025
O O13 0.305839 0.500000 0.000000
#
# Coordination Sequence:
#
# PCOD9481896 Si02
#       6
#     8  16  16  16  16  16
#     4  12  26  52  68 100 140 194 244 304 350 426
#     4  11  22  40  71 105 146 188 229 295 365 435
#     4  11  26  45  74 101 141 189 241 301 361 427
#     4  11  25  44  73 111 148 191 238 291 370 455
#     4  11  26  47  71 105 138 182 244 297 362 429
#     4  11  23  44  70 106 146 189 234 290 363 435
#
# _framework density 23.431505999999999
#
# number of rings (size 3 to 8) (size 9 to 14) (size 15 to 20)
#    0.000    0.909    1.818    4.364    2.545    7.636 
#    0.000    0.000    0.000    0.000    0.000    0.000 
#    0.000    0.000    0.000    0.000    0.000    0.000 
#
# Total GULP energy -245551.086211 kJ/mol
# GULP energy per Si atom -5580.706505 kJ/mol
# Density = 2.337817 g / cm^3
# Si number density = 23.431506 Si / 1000 Ang^3
#
#
#
# Elastic Constant Matrix: (Units=GPa)
#
#
# Indices 1 2 3 4 5 6 
#
# 1 102.8874 6.4343 28.0282 0.0000 0.0000 0.0000
# 2 6.4343 109.6002 11.9398 0.0000 0.0000 0.0000
# 3 28.0282 11.9398 60.1316 0.0000 0.0000 0.0000
# 4 0.0000 0.0000 0.0000 25.5645 0.0000 0.0000
# 5 0.0000 0.0000 0.0000 0.0000 45.3544 0.0000
# 6 0.0000 0.0000 0.0000 0.0000 0.0000 97.4258
#
#
#
# Elastic Compliance Matrix: (Units=1/GPa)
#
#
# Indices 1 2 3 4 5 6 
#
# 1 0.011134 -0.000090 -0.005172 0.000000 0.000000 0.000000
# 2 -0.000090 0.009327 -0.001810 0.000000 0.000000 0.000000
# 3 -0.005172 -0.001810 0.019400 0.000000 0.000000 0.000000
# 4 0.000000 0.000000 0.000000 0.039117 0.000000 0.000000
# 5 0.000000 0.000000 0.000000 0.000000 0.022049 0.000000
# 6 0.000000 0.000000 0.000000 0.000000 0.000000 0.010264
#
#
# Mechanical properties :
#
#
# Convention : Reuss Voigt Hill
#
# Bulk Modulus (GPa) = 38.88481 40.60263 39.74372
# Shear Modulus (GPa) = 37.31178 48.75008 43.03093
#
# Velocity S-wave (km/s) = 3.99479 4.56624 4.29004
# Velocity P-wave (km/s) = 6.15702 6.72061 6.44498
#
# Compressibility (1/GPa) = 0.02571699
#
# Stress axis : x y z
#
# Youngs Moduli (GPa) = 89.81609 107.22098 51.54596
#
# Poissons Ratio (x) = 0.00967 0.26658
# Poissons Ratio (y) = 0.00810 0.09329
# Poissons Ratio (z) = 0.46450 0.19405
#
# Static dielectric constant tensor:
#      x y z
#    x 1.927900 0.000000 0.000000 
#    y 0.000000 1.944030 0.000000 
#    z 0.000000 0.000000 1.844530 
# 
# From -- ./inp_files/27947.got.cif
#   From: 2010.05.17/outbox.cif.g08.bks.cpg/sg64_14_cif.got.tgz:27947.got - 2010.06.03 16:29:19.
