data_PCOD9481377
_publ_section_title
;
Structure prediction by ZEFSAII (Michael W. Deem and Ramdas Pophale) SiO2 
 PCOD9481377
Probable space group: C M C A
;
_chemical_formula_sum "Si O2"
_cell_formula_units_Z 116
_cell_length_a 28.114175
_cell_length_b 11.088786
_cell_length_c 16.842764
_cell_angle_alpha 90.000000
_cell_angle_beta 90.000000
_cell_angle_gamma 90.000000
_cell_volume 5250.766544
_symmetry_space_group_name_H-M "C M C A"
_symmetry_group_IT_number 64
_symmetry_cell_setting 'orthorhombic'
loop_
_space_group_symop_operation_xyz
x,y,z
-x,1/2-y,1/2+z
x,-y,-z
-x,1/2+y,1/2-z
-x,-y,-z
x,1/2+y,1/2-z
-x,y,z
x,1/2-y,1/2+z
1/2+x,1/2+y,z
1/2-x,-y,1/2+z
1/2+x,1/2-y,-z
1/2-x,y,1/2-z
1/2-x,1/2-y,-z
1/2+x,y,1/2-z
1/2-x,1/2+y,z
1/2+x,-y,1/2+z
loop_
_atom_site_type_symbol
_atom_site_label
_atom_site_fract_x
_atom_site_fract_y
_atom_site_fract_z
Si Si1 0.292591 0.064824 0.696712
Si Si2 0.431684 0.785881 0.462422
Si Si3 0.052036 0.417685 0.077280
Si Si4 0.000000 0.000000 0.000000
Si Si5 0.745159 0.901244 0.568903
Si Si6 0.819855 0.729427 0.546551
Si Si7 0.945309 0.284466 0.786521
Si Si8 0.395292 0.036256 0.770541
O O1 0.250000 0.115956 0.750000
O O2 0.304850 0.149687 0.622250
O O3 0.340660 0.039704 0.744617
O O4 0.271983 0.946397 0.653542
O O5 0.447065 0.716550 0.542096
O O6 0.375016 0.790938 0.464871
O O7 0.444657 0.712402 0.382663
O O8 0.458592 0.911862 0.461427
O O9 0.094411 0.442982 0.136742
O O10 0.000000 0.439806 0.115798
O O11 0.055805 0.500000 0.000000
O O12 0.799592 0.859225 0.570095
O O13 0.708704 0.801643 0.534314
O O14 0.741174 0.000000 0.500000
O O15 0.918532 0.404015 0.753483
O O16 0.920869 0.155336 0.766888
O O17 0.000000 0.284753 0.758855
#
# Coordination Sequence:
#
# PCOD9481377 Si02
#       8
#    16  16  16   4  16  16  16  16
#     4  11  26  43  68 105 149 193 243 311 378 451
#     4  12  25  45  75 103 148 192 251 309 388 447
#     4  11  23  45  72 101 138 195 256 310 370 450
#     4  12  28  44  74 116 148 196 246 324 386 464
#     4   9  22  45  73 102 136 185 246 307 376 450
#     4  10  23  45  71 102 141 186 242 311 373 461
#     4  12  25  49  72 106 148 197 247 315 377 462
#     4  12  28  46  75 108 149 201 252 310 392 455
#
# _framework density 22.092012
#
# number of rings (size 3 to 8) (size 9 to 14) (size 15 to 20)
#    0.000    0.966    4.138    1.241    4.828    7.724 
#    2.483    0.000    0.000    0.000    0.000    0.000 
#    0.000    0.000    0.000    0.000    0.000    0.000 
#
# Total GULP energy -323447.911857 kJ/mol
# GULP energy per Si atom -5576.688135 kJ/mol
# Density = 2.204173 g / cm^3
# Si number density = 22.092012 Si / 1000 Ang^3
#
#
#
# Elastic Constant Matrix: (Units=GPa)
#
#
# Indices 1 2 3 4 5 6 
#
# 1 164.5305 35.3925 30.2988 0.0000 0.0000 0.0000
# 2 35.3925 77.2295 19.2850 0.0000 0.0000 0.0000
# 3 30.2988 19.2850 60.4378 0.0000 0.0000 0.0000
# 4 0.0000 0.0000 0.0000 30.4516 0.0000 0.0000
# 5 0.0000 0.0000 0.0000 0.0000 11.5903 0.0000
# 6 0.0000 0.0000 0.0000 0.0000 0.0000 39.5849
#
#
#
# Elastic Compliance Matrix: (Units=1/GPa)
#
#
# Indices 1 2 3 4 5 6 
#
# 1 0.007141 -0.002585 -0.002755 0.000000 0.000000 0.000000
# 2 -0.002585 0.015005 -0.003492 0.000000 0.000000 0.000000
# 3 -0.002755 -0.003492 0.019042 0.000000 0.000000 0.000000
# 4 0.000000 0.000000 0.000000 0.032839 0.000000 0.000000
# 5 0.000000 0.000000 0.000000 0.000000 0.086279 0.000000
# 6 0.000000 0.000000 0.000000 0.000000 0.000000 0.025262
#
#
# Mechanical properties :
#
#
# Convention : Reuss Voigt Hill
#
# Bulk Modulus (GPa) = 42.51076 52.46116 47.48596
# Shear Modulus (GPa) = 23.68844 30.80679 27.24761
#
# Velocity S-wave (km/s) = 3.27809 3.73832 3.51575
# Velocity P-wave (km/s) = 5.79761 6.51395 6.16619
#
# Compressibility (1/GPa) = 0.02352346
#
# Stress axis : x y z
#
# Youngs Moduli (GPa) = 140.03063 66.64474 52.51673
#
# Poissons Ratio (x) = 0.17225 0.14470
# Poissons Ratio (y) = 0.36193 0.18340
# Poissons Ratio (z) = 0.38583 0.23273
#
# Static dielectric constant tensor:
#      x y z
#    x 1.799420 0.000000 0.000000 
#    y 0.000000 1.906630 0.000000 
#    z 0.000000 0.000000 1.819710 
# 
# From -- ./inp_files/35513.got.cif
#   From: 2010.05.17/outbox.cif.g08.bks.cpg/sg64_18_cif.got.tgz:35513.got - 2010.06.03 16:29:19.
