data_PCOD9481726
_publ_section_title
;
Structure prediction by ZEFSAII (Michael W. Deem and Ramdas Pophale) SiO2 
 PCOD9481726
Probable space group: C M C A
;
_chemical_formula_sum "Si O2"
_cell_formula_units_Z 64
_cell_length_a 17.625481
_cell_length_b 14.588112
_cell_length_c 12.183807
_cell_angle_alpha 90.000000
_cell_angle_beta 90.000000
_cell_angle_gamma 90.000000
_cell_volume 3132.730804
_symmetry_space_group_name_H-M "C M C A"
_symmetry_group_IT_number 64
_symmetry_cell_setting 'orthorhombic'
loop_
_space_group_symop_operation_xyz
x,y,z
-x,1/2-y,1/2+z
x,-y,-z
-x,1/2+y,1/2-z
-x,-y,-z
x,1/2+y,1/2-z
-x,y,z
x,1/2-y,1/2+z
1/2+x,1/2+y,z
1/2-x,-y,1/2+z
1/2+x,1/2-y,-z
1/2-x,y,1/2-z
1/2-x,1/2-y,-z
1/2+x,y,1/2-z
1/2-x,1/2+y,z
1/2+x,-y,1/2+z
loop_
_atom_site_type_symbol
_atom_site_label
_atom_site_fract_x
_atom_site_fract_y
_atom_site_fract_z
Si Si1 0.210389 0.150288 0.489093
Si Si2 0.587341 0.674871 0.297871
Si Si3 0.817175 0.455855 0.661992
Si Si4 0.333445 0.647020 0.731846
O O1 0.250000 0.250000 0.500000
O O2 0.142918 0.156997 0.400649
O O3 0.277335 0.084044 0.446119
O O4 0.173478 0.118436 0.604419
O O5 0.500000 0.662073 0.326301
O O6 0.613535 0.607227 0.200447
O O7 0.604325 0.777460 0.255711
O O8 0.750000 0.441034 0.750000
O O9 0.839012 0.561351 0.685521
O O10 0.250000 0.691704 0.750000
#
# Coordination Sequence:
#
# PCOD9481726 Si02
#       4
#    16  16  16  16
#     4  11  20  42  68  89 125 168 218 258 318 375
#     4  11  23  39  59  94 135 169 207 264 325 381
#     4   9  21  38  63  95 122 161 217 270 305 381
#     4  11  21  39  67  93 122 165 219 269 318 375
#
# _framework density 20.429461
#
# number of rings (size 3 to 8) (size 9 to 14) (size 15 to 20)
#    0.000    1.500    5.000    0.750    0.000   11.000 
#    0.000    1.250    0.000    1.500    0.000    0.000 
#    0.000    0.000    0.000    0.000    0.000    0.000 
#
# Total GULP energy -178579.318284 kJ/mol
# GULP energy per Si atom -5580.603696 kJ/mol
# Density = 2.038296 g / cm^3
# Si number density = 20.429461 Si / 1000 Ang^3
#
#
#
# Elastic Constant Matrix: (Units=GPa)
#
#
# Indices 1 2 3 4 5 6 
#
# 1 117.8070 37.2581 20.6259 0.0000 0.0000 0.0000
# 2 37.2581 119.5231 28.4693 0.0000 0.0000 0.0000
# 3 20.6259 28.4693 109.8749 0.0000 0.0000 0.0000
# 4 0.0000 0.0000 0.0000 28.6787 0.0000 0.0000
# 5 0.0000 0.0000 0.0000 0.0000 20.1914 0.0000
# 6 0.0000 0.0000 0.0000 0.0000 0.0000 -0.2431
#
#
#
# Elastic Compliance Matrix: (Units=1/GPa)
#
#
# Indices 1 2 3 4 5 6 
#
# 1 0.009537 -0.002714 -0.001087 0.000000 0.000000 0.000000
# 2 -0.002714 0.009689 -0.002001 0.000000 0.000000 0.000000
# 3 -0.001087 -0.002001 0.009824 0.000000 0.000000 0.000000
# 4 0.000000 0.000000 0.000000 0.034869 0.000000 0.000000
# 5 0.000000 0.000000 0.000000 0.000000 0.049526 0.000000
# 6 0.000000 0.000000 0.000000 0.000000 0.000000 -4.113077
#
#
# Mechanical properties :
#
#
# Convention : Reuss Voigt Hill
#
# Bulk Modulus (GPa) = 57.32029 57.76796 57.54413
# Shear Modulus (GPa) = -1.25558 27.11550 12.92996
#
# Velocity S-wave (km/s) = -0.78481 3.64713 2.51849
# Velocity P-wave (km/s) = 5.22469 6.78775 6.05685
#
# Compressibility (1/GPa) = 0.01744583
#
# Stress axis : x y z
#
# Youngs Moduli (GPa) = 104.85332 103.20728 101.79339
#
# Poissons Ratio (x) = 0.28011 0.11066
# Poissons Ratio (y) = 0.28457 0.20369
# Poissons Ratio (z) = 0.11399 0.20652
#
# Static dielectric constant tensor:
#      x y z
#    x 1.675740 0.000000 0.000000 
#    y 0.000000 1.775850 0.000000 
#    z 0.000000 0.000000 1.824310 
# 
# From -- ./inp_files/15444.got.cif
#   From: 2010.05.17/outbox.cif.g08.bks.cpg/sg64_8_cif.got.tgz:15444.got - 2010.06.03 16:29:19.
