data_PCOD9481482
_publ_section_title
;
Structure prediction by ZEFSAII (Michael W. Deem and Ramdas Pophale) SiO2 
 PCOD9481482
Probable space group: C M C A
;
_chemical_formula_sum "Si O2"
_cell_formula_units_Z 88
_cell_length_a 29.253324
_cell_length_b 10.863751
_cell_length_c 12.782280
_cell_angle_alpha 90.000000
_cell_angle_beta 90.000000
_cell_angle_gamma 90.000000
_cell_volume 4062.219166
_symmetry_space_group_name_H-M "C M C A"
_symmetry_group_IT_number 64
_symmetry_cell_setting 'orthorhombic'
loop_
_space_group_symop_operation_xyz
x,y,z
-x,1/2-y,1/2+z
x,-y,-z
-x,1/2+y,1/2-z
-x,-y,-z
x,1/2+y,1/2-z
-x,y,z
x,1/2-y,1/2+z
1/2+x,1/2+y,z
1/2-x,-y,1/2+z
1/2+x,1/2-y,-z
1/2-x,y,1/2-z
1/2-x,1/2-y,-z
1/2+x,y,1/2-z
1/2-x,1/2+y,z
1/2+x,-y,1/2+z
loop_
_atom_site_type_symbol
_atom_site_label
_atom_site_fract_x
_atom_site_fract_y
_atom_site_fract_z
Si Si1 0.413482 0.544863 0.751281
Si Si2 0.706104 0.199251 0.561259
Si Si3 0.383892 0.630786 0.971550
Si Si4 0.750000 0.949520 0.250000
Si Si5 0.947766 0.712784 0.357716
Si Si6 0.669098 0.448252 0.615511
O O1 0.388703 0.616112 0.847148
O O2 0.443690 0.656398 0.703505
O O3 0.434640 0.412632 0.791117
O O4 0.375729 0.504266 0.666387
O O5 0.750000 0.250000 0.500000
O O6 0.669198 0.128384 0.490525
O O7 0.725402 0.129351 0.660672
O O8 0.670799 0.303572 0.599132
O O9 0.406135 0.500000 0.000000
O O10 0.413266 0.722203 0.042962
O O11 0.711647 0.025703 0.190704
O O12 0.000000 0.697034 0.392428
O O13 0.677816 0.500000 0.500000
#
# Coordination Sequence:
#
# PCOD9481482 Si02
#       6
#    16  16  16   8  16  16
#     4  11  24  45  72 101 145 186 232 303 369 428
#     4  12  25  41  68  99 139 188 236 290 345 424
#     4  10  24  43  69  98 140 184 238 293 359 429
#     4  12  26  42  66  98 140 186 232 288 348 410
#     4  11  25  45  73 106 139 188 245 303 369 443
#     4  12  25  43  67 101 140 184 237 291 352 423
#
# _framework density 21.663036000000002
#
# number of rings (size 3 to 8) (size 9 to 14) (size 15 to 20)
#    0.000    0.727    3.636    3.273    2.545    5.455 
#    0.000    0.000    0.000    4.364    0.000    0.000 
#    0.000    0.000    0.000    0.000    0.000    0.000 
#
# Total GULP energy -245170.562471 kJ/mol
# GULP energy per Si atom -5572.058238 kJ/mol
# Density = 2.161373 g / cm^3
# Si number density = 21.663036 Si / 1000 Ang^3
#
#
#
# Elastic Constant Matrix: (Units=GPa)
#
#
# Indices 1 2 3 4 5 6 
#
# 1 120.7684 17.5652 24.4284 0.0000 0.0000 0.0000
# 2 17.5652 94.6535 0.8507 0.0000 0.0000 0.0000
# 3 24.4284 0.8507 67.8449 0.0000 0.0000 0.0000
# 4 0.0000 0.0000 0.0000 -7.1697 0.0000 0.0000
# 5 0.0000 0.0000 0.0000 0.0000 26.0026 0.0000
# 6 0.0000 0.0000 0.0000 0.0000 0.0000 18.7473
#
#
#
# Elastic Compliance Matrix: (Units=1/GPa)
#
#
# Indices 1 2 3 4 5 6 
#
# 1 0.009189 -0.001676 -0.003288 0.000000 0.000000 0.000000
# 2 -0.001676 0.010872 0.000467 0.000000 0.000000 0.000000
# 3 -0.003288 0.000467 0.015917 0.000000 0.000000 0.000000
# 4 0.000000 0.000000 0.000000 -0.139476 0.000000 0.000000
# 5 0.000000 0.000000 0.000000 0.000000 0.038458 0.000000
# 6 0.000000 0.000000 0.000000 0.000000 0.000000 0.053341
#
#
# Mechanical properties :
#
#
# Convention : Reuss Voigt Hill
#
# Bulk Modulus (GPa) = 37.05694 40.99505 39.02599
# Shear Modulus (GPa) = 795.09713 23.54421 409.32067
#
# Velocity S-wave (km/s) = 19.17880 3.30030 13.76078
# Velocity P-wave (km/s) = 22.52949 5.78685 16.44788
#
# Compressibility (1/GPa) = 0.02698550
#
# Stress axis : x y z
#
# Youngs Moduli (GPa) = 108.82532 91.98266 62.82433
#
# Poissons Ratio (x) = 0.15414 0.20654
# Poissons Ratio (y) = 0.18236 -0.02934
# Poissons Ratio (z) = 0.35778 -0.04296
#
# Static dielectric constant tensor:
#      x y z
#    x 2.307260 0.000000 0.000000 
#    y 0.000000 2.007390 0.000000 
#    z 0.000000 0.000000 1.755320 
# 
# From -- ./inp_files/19663.got.cif
#   From: 2010.05.17/outbox.cif.g08.bks.cpg/sg64_10_cif.got.tgz:19663.got - 2010.06.03 16:29:19.
