data_PCOD9481007
_publ_section_title
;
Structure prediction by ZEFSAII (Michael W. Deem and Ramdas Pophale) SiO2 
 PCOD9481007
Probable space group: C M C A
;
_chemical_formula_sum "Si O2"
_cell_formula_units_Z 108
_cell_length_a 16.286324
_cell_length_b 23.103683
_cell_length_c 14.073510
_cell_angle_alpha 90.000000
_cell_angle_beta 90.000000
_cell_angle_gamma 90.000000
_cell_volume 5295.496844
_symmetry_space_group_name_H-M "C M C A"
_symmetry_group_IT_number 64
_symmetry_cell_setting 'orthorhombic'
loop_
_space_group_symop_operation_xyz
x,y,z
-x,1/2-y,1/2+z
x,-y,-z
-x,1/2+y,1/2-z
-x,-y,-z
x,1/2+y,1/2-z
-x,y,z
x,1/2-y,1/2+z
1/2+x,1/2+y,z
1/2-x,-y,1/2+z
1/2+x,1/2-y,-z
1/2-x,y,1/2-z
1/2-x,1/2-y,-z
1/2+x,y,1/2-z
1/2-x,1/2+y,z
1/2+x,-y,1/2+z
loop_
_atom_site_type_symbol
_atom_site_label
_atom_site_fract_x
_atom_site_fract_y
_atom_site_fract_z
Si Si1 0.589727 0.957816 0.730530
Si Si2 0.341529 0.342604 0.717643
Si Si3 0.099171 0.324699 0.981780
Si Si4 0.306236 0.437987 0.460849
Si Si5 0.250000 0.035726 0.750000
Si Si6 0.097696 0.209479 0.088259
Si Si7 0.628771 0.912978 0.524520
Si Si8 0.500000 0.000000 0.500000
O O1 0.500000 0.983381 0.750410
O O2 0.606988 0.901728 0.794305
O O3 0.588576 0.930057 0.625511
O O4 0.667716 0.998498 0.734681
O O5 0.250000 0.359442 0.750000
O O6 0.353407 0.312589 0.617117
O O7 0.372585 0.304901 0.805821
O O8 0.000000 0.324547 0.968429
O O9 0.131094 0.385997 0.021116
O O10 0.122522 0.272214 0.051606
O O11 0.338924 0.500000 0.500000
O O12 0.272735 0.435427 0.351792
O O13 0.223524 0.429068 0.522336
O O14 0.123611 0.156219 0.019585
O O15 0.000000 0.207794 0.089715
O O16 0.572628 0.954436 0.460448
#
# Coordination Sequence:
#
# PCOD9481007 Si02
#       8
#    16  16  16  16   8  16  16   4
#     4  11  20  37  65  95 130 171 226 274 327 402
#     4  11  21  38  69 100 129 172 230 285 335 403
#     4  11  25  46  68  95 136 185 230 277 340 413
#     4  12  25  42  66  96 137 177 220 283 335 408
#     4  12  24  42  60  96 138 176 222 276 352 410
#     4  10  22  42  67  97 131 170 230 279 329 406
#     4  11  20  37  66  97 126 164 210 276 336 393
#     4  12  16  32  64 100 126 152 200 276 352 376
#
# _framework density 20.394687000000001
#
# number of rings (size 3 to 8) (size 9 to 14) (size 15 to 20)
#    0.000    0.889    4.444    4.889    0.000    3.259 
#    4.000    0.000    0.000    0.000    0.000    0.000 
#    0.000    0.000    0.000    0.000    0.000    0.000 
#
# Total GULP energy -300773.447293 kJ/mol
# GULP energy per Si atom -5569.878654 kJ/mol
# Density = 2.034827 g / cm^3
# Si number density = 20.394687 Si / 1000 Ang^3
#
#
#
# Elastic Constant Matrix: (Units=GPa)
#
#
# Indices 1 2 3 4 5 6 
#
# 1 101.1209 39.7460 8.8485 0.0000 0.0000 0.0000
# 2 39.7460 132.5953 37.8014 0.0000 0.0000 0.0000
# 3 8.8485 37.8014 84.0176 0.0000 0.0000 0.0000
# 4 0.0000 0.0000 0.0000 16.2951 0.0000 0.0000
# 5 0.0000 0.0000 0.0000 0.0000 27.8919 0.0000
# 6 0.0000 0.0000 0.0000 0.0000 0.0000 30.0403
#
#
#
# Elastic Compliance Matrix: (Units=1/GPa)
#
#
# Indices 1 2 3 4 5 6 
#
# 1 0.011220 -0.003472 0.000380 0.000000 0.000000 0.000000
# 2 -0.003472 0.009726 -0.004010 0.000000 0.000000 0.000000
# 3 0.000380 -0.004010 0.013666 0.000000 0.000000 0.000000
# 4 0.000000 0.000000 0.000000 0.061368 0.000000 0.000000
# 5 0.000000 0.000000 0.000000 0.000000 0.035853 0.000000
# 6 0.000000 0.000000 0.000000 0.000000 0.000000 0.033289
#
#
# Mechanical properties :
#
#
# Convention : Reuss Voigt Hill
#
# Bulk Modulus (GPa) = 48.99712 54.50285 51.74999
# Shear Modulus (GPa) = 26.86316 30.26799 28.56558
#
# Velocity S-wave (km/s) = 3.63321 3.85660 3.74657
# Velocity P-wave (km/s) = 6.45577 6.82738 6.64417
#
# Compressibility (1/GPa) = 0.02040936
#
# Stress axis : x y z
#
# Youngs Moduli (GPa) = 89.12275 102.82049 73.17177
#
# Poissons Ratio (x) = 0.35697 -0.02783
# Poissons Ratio (y) = 0.30942 0.29343
# Poissons Ratio (z) = -0.03390 0.41233
#
# Static dielectric constant tensor:
#      x y z
#    x 1.732750 0.000000 0.000000 
#    y 0.000000 1.834760 0.000000 
#    z 0.000000 0.000000 1.883280 
# 
# From -- ./inp_files/24324.got.cif
#   From: 2010.05.17/outbox.cif.g08.bks.cpg/sg64_13_cif.got.tgz:24324.got - 2010.06.03 16:29:19.
