data_PCOD9481474
_publ_section_title
;
Structure prediction by ZEFSAII (Michael W. Deem and Ramdas Pophale) SiO2 
 PCOD9481474
Probable space group: C M C A
;
_chemical_formula_sum "Si O2"
_cell_formula_units_Z 96
_cell_length_a 22.824999
_cell_length_b 9.688020
_cell_length_c 17.535720
_cell_angle_alpha 90.000000
_cell_angle_beta 90.000000
_cell_angle_gamma 90.000000
_cell_volume 3877.657049
_symmetry_space_group_name_H-M "C M C A"
_symmetry_group_IT_number 64
_symmetry_cell_setting 'orthorhombic'
loop_
_space_group_symop_operation_xyz
x,y,z
-x,1/2-y,1/2+z
x,-y,-z
-x,1/2+y,1/2-z
-x,-y,-z
x,1/2+y,1/2-z
-x,y,z
x,1/2-y,1/2+z
1/2+x,1/2+y,z
1/2-x,-y,1/2+z
1/2+x,1/2-y,-z
1/2-x,y,1/2-z
1/2-x,1/2-y,-z
1/2+x,y,1/2-z
1/2-x,1/2+y,z
1/2+x,-y,1/2+z
loop_
_atom_site_type_symbol
_atom_site_label
_atom_site_fract_x
_atom_site_fract_y
_atom_site_fract_z
Si Si1 0.000000 0.276322 0.376583
Si Si2 0.000000 0.812870 0.949170
Si Si3 0.595808 0.374384 0.243781
Si Si4 0.253674 0.174153 0.095945
Si Si5 0.716960 0.431725 0.181502
Si Si6 0.500000 0.525643 0.646500
Si Si7 0.378045 0.241614 0.400932
Si Si8 0.845238 0.000000 0.500000
O O1 0.055389 0.309509 0.322407
O O2 0.000000 0.115376 0.397770
O O3 0.000000 0.341346 0.460400
O O4 0.065481 0.852202 0.921004
O O5 0.000000 0.659537 0.907475
O O6 0.650138 0.446581 0.203933
O O7 0.554478 0.470549 0.295056
O O8 0.619836 0.271646 0.309986
O O9 0.274223 0.329092 0.111114
O O10 0.184646 0.178375 0.075299
O O11 0.251565 0.071291 0.167281
O O12 0.301687 0.100542 0.045001
O O13 0.750000 0.357260 0.250000
O O14 0.379902 0.392056 0.445293
#
# Coordination Sequence:
#
# PCOD9481474 Si02
#       8
#     8   8  16  16  16   8  16   8
#     4  11  24  41  74  98 141 183 239 300 368 429
#     4  10  25  42  69 103 136 189 244 299 360 435
#     4  10  24  43  64 106 138 188 239 298 366 432
#     4  12  26  45  70 109 146 192 240 301 366 441
#     4  12  25  43  71 104 148 189 243 298 369 434
#     4   9  22  41  65 100 139 179 241 297 361 433
#     4  11  25  46  70 103 146 189 246 298 360 442
#     4  12  26  45  76 103 146 194 238 302 368 440
#
# _framework density 24.757218000000002
#
# number of rings (size 3 to 8) (size 9 to 14) (size 15 to 20)
#    0.000    1.000    3.333    1.750    9.333    0.000 
#    0.000    0.000    0.000    1.500    0.000    0.000 
#    0.000    0.000    0.000    0.000    0.000    0.000 
#
# Total GULP energy -268057.307669 kJ/mol
# GULP energy per Si atom -5584.527243 kJ/mol
# Density = 2.470087 g / cm^3
# Si number density = 24.757218 Si / 1000 Ang^3
#
#
#
# Elastic Constant Matrix: (Units=GPa)
#
#
# Indices 1 2 3 4 5 6 
#
# 1 144.4894 -7.2156 27.1153 0.0000 0.0000 0.0000
# 2 -7.2156 54.7439 8.1652 0.0000 0.0000 0.0000
# 3 27.1153 8.1652 109.1664 0.0000 0.0000 0.0000
# 4 0.0000 0.0000 0.0000 25.7669 0.0000 0.0000
# 5 0.0000 0.0000 0.0000 0.0000 42.0029 0.0000
# 6 0.0000 0.0000 0.0000 0.0000 0.0000 9.5053
#
#
#
# Elastic Compliance Matrix: (Units=1/GPa)
#
#
# Indices 1 2 3 4 5 6 
#
# 1 0.007343 0.001254 -0.001918 0.000000 0.000000 0.000000
# 2 0.001254 0.018687 -0.001709 0.000000 0.000000 0.000000
# 3 -0.001918 -0.001709 0.009765 0.000000 0.000000 0.000000
# 4 0.000000 0.000000 0.000000 0.038810 0.000000 0.000000
# 5 0.000000 0.000000 0.000000 0.000000 0.023808 0.000000
# 6 0.000000 0.000000 0.000000 0.000000 0.000000 0.105204
#
#
# Mechanical properties :
#
#
# Convention : Reuss Voigt Hill
#
# Bulk Modulus (GPa) = 32.20716 40.50329 36.35523
# Shear Modulus (GPa) = 22.86106 34.14401 28.50253
#
# Velocity S-wave (km/s) = 3.04206 3.71772 3.39674
# Velocity P-wave (km/s) = 5.03749 5.90122 5.48638
#
# Compressibility (1/GPa) = 0.03104899
#
# Stress axis : x y z
#
# Youngs Moduli (GPa) = 136.17590 53.51295 102.41161
#
# Poissons Ratio (x) = -0.06710 0.19640
# Poissons Ratio (y) = -0.17076 0.17504
# Poissons Ratio (z) = 0.26116 0.09146
#
# Static dielectric constant tensor:
#      x y z
#    x 1.959630 0.000000 0.000000 
#    y 0.000000 2.002130 0.000000 
#    z 0.000000 0.000000 2.012360 
# 
# From -- ./inp_files/35005.got.cif
#   From: 2010.05.17/outbox.cif.g08.bks.cpg/sg64_18_cif.got.tgz:35005.got - 2010.06.03 16:29:19.
