data_PCOD9481168
_publ_section_title
;
Structure prediction by ZEFSAII (Michael W. Deem and Ramdas Pophale) SiO2 
 PCOD9481168
Probable space group: C M C A
;
_chemical_formula_sum "Si O2"
_cell_formula_units_Z 96
_cell_length_a 26.321389
_cell_length_b 19.971912
_cell_length_c 8.659898
_cell_angle_alpha 90.000000
_cell_angle_beta 90.000000
_cell_angle_gamma 90.000000
_cell_volume 4552.408485
_symmetry_space_group_name_H-M "C M C A"
_symmetry_group_IT_number 64
_symmetry_cell_setting 'orthorhombic'
loop_
_space_group_symop_operation_xyz
x,y,z
-x,1/2-y,1/2+z
x,-y,-z
-x,1/2+y,1/2-z
-x,-y,-z
x,1/2+y,1/2-z
-x,y,z
x,1/2-y,1/2+z
1/2+x,1/2+y,z
1/2-x,-y,1/2+z
1/2+x,1/2-y,-z
1/2-x,y,1/2-z
1/2-x,1/2-y,-z
1/2+x,y,1/2-z
1/2-x,1/2+y,z
1/2+x,-y,1/2+z
loop_
_atom_site_type_symbol
_atom_site_label
_atom_site_fract_x
_atom_site_fract_y
_atom_site_fract_z
Si Si1 0.118387 0.978521 0.330576
Si Si2 0.110478 0.272124 0.842882
Si Si3 0.056909 0.064144 0.112678
Si Si4 0.059848 0.660894 0.876582
Si Si5 0.287835 0.944003 0.385362
Si Si6 0.351975 0.839293 0.559559
O O1 0.091099 0.906377 0.338672
O O2 0.163239 0.974471 0.204665
O O3 0.136514 0.000000 0.500000
O O4 0.078641 0.034071 0.271165
O O5 0.078795 0.221688 0.733173
O O6 0.146979 0.317057 0.736905
O O7 0.073714 0.315987 0.949911
O O8 0.143301 0.226168 0.955753
O O9 0.095577 0.118509 0.046637
O O10 0.000000 0.090847 0.126865
O O11 0.056239 0.000000 0.000000
O O12 0.000000 0.649556 0.856966
O O13 0.250000 0.922758 0.250000
O O14 0.307475 0.884561 0.493640
O O15 0.265998 0.000000 0.500000
#
# Coordination Sequence:
#
# PCOD9481168 Si02
#       6
#    16  16  16  16  16  16
#     4  12  23  39  63  97 135 167 215 277 332 392
#     4  10  23  38  63  89 132 183 221 261 309 370
#     4  11  21  37  64  94 135 182 216 260 331 394
#     4  11  22  37  60  95 136 180 228 264 308 381
#     4  12  25  48  72  99 121 161 213 277 348 406
#     4  11  21  44  64  92 133 169 221 266 320 385
#
# _framework density 21.087738999999999
#
# number of rings (size 3 to 8) (size 9 to 14) (size 15 to 20)
#    0.000    0.833    5.000    2.500    0.000    8.000 
#    0.000    0.833    0.000    0.000    0.000    0.000 
#    0.000    0.000    0.000    0.000    0.000    0.000 
#
# Total GULP energy -268485.179837 kJ/mol
# GULP energy per Si atom -5593.441247 kJ/mol
# Density = 2.103974 g / cm^3
# Si number density = 21.087739 Si / 1000 Ang^3
#
#
#
# Elastic Constant Matrix: (Units=GPa)
#
#
# Indices 1 2 3 4 5 6 
#
# 1 56.1555 12.6720 7.7531 0.0000 0.0000 0.0000
# 2 12.6720 54.8957 11.2857 0.0000 0.0000 0.0000
# 3 7.7531 11.2857 95.9875 0.0000 0.0000 0.0000
# 4 0.0000 0.0000 0.0000 47.9563 0.0000 0.0000
# 5 0.0000 0.0000 0.0000 0.0000 14.9281 0.0000
# 6 0.0000 0.0000 0.0000 0.0000 0.0000 5.8383
#
#
#
# Elastic Compliance Matrix: (Units=1/GPa)
#
#
# Indices 1 2 3 4 5 6 
#
# 1 0.018887 -0.004146 -0.001038 0.000000 0.000000 0.000000
# 2 -0.004146 0.019578 -0.001967 0.000000 0.000000 0.000000
# 3 -0.001038 -0.001967 0.010733 0.000000 0.000000 0.000000
# 4 0.000000 0.000000 0.000000 0.020852 0.000000 0.000000
# 5 0.000000 0.000000 0.000000 0.000000 0.066988 0.000000
# 6 0.000000 0.000000 0.000000 0.000000 0.000000 0.171283
#
#
# Mechanical properties :
#
#
# Convention : Reuss Voigt Hill
#
# Bulk Modulus (GPa) = 28.65737 30.05114 29.35426
# Shear Modulus (GPa) = 14.95864 25.43307 20.19585
#
# Velocity S-wave (km/s) = 2.66626 3.47660 3.09804
# Velocity P-wave (km/s) = 4.80600 5.51336 5.17179
#
# Compressibility (1/GPa) = 0.03489503
#
# Stress axis : x y z
#
# Youngs Moduli (GPa) = 52.94744 51.07806 93.16944
#
# Poissons Ratio (x) = 0.21179 0.09671
# Poissons Ratio (y) = 0.21954 0.18326
# Poissons Ratio (z) = 0.05496 0.10047
#
# Static dielectric constant tensor:
#      x y z
#    x 1.735720 0.000000 0.000000 
#    y 0.000000 1.750320 0.000000 
#    z 0.000000 0.000000 1.797250 
# 
# From -- ./inp_files/10370.got.cif
#   From: 2010.05.17/outbox.cif.g08.bks.cpg/sg64_6_cif.got.tgz:10370.got - 2010.06.03 16:29:19.
