data_PCOD9481260
_publ_section_title
;
Structure prediction by ZEFSAII (Michael W. Deem and Ramdas Pophale) SiO2 
 PCOD9481260
Probable space group: C M C A
;
_chemical_formula_sum "Si O2"
_cell_formula_units_Z 48
_cell_length_a 13.519923
_cell_length_b 13.266030
_cell_length_c 12.001839
_cell_angle_alpha 90.000000
_cell_angle_beta 90.000000
_cell_angle_gamma 90.000000
_cell_volume 2152.598285
_symmetry_space_group_name_H-M "C M C A"
_symmetry_group_IT_number 64
_symmetry_cell_setting 'orthorhombic'
loop_
_space_group_symop_operation_xyz
x,y,z
-x,1/2-y,1/2+z
x,-y,-z
-x,1/2+y,1/2-z
-x,-y,-z
x,1/2+y,1/2-z
-x,y,z
x,1/2-y,1/2+z
1/2+x,1/2+y,z
1/2-x,-y,1/2+z
1/2+x,1/2-y,-z
1/2-x,y,1/2-z
1/2-x,1/2-y,-z
1/2+x,y,1/2-z
1/2-x,1/2+y,z
1/2+x,-y,1/2+z
loop_
_atom_site_type_symbol
_atom_site_label
_atom_site_fract_x
_atom_site_fract_y
_atom_site_fract_z
Si Si1 0.809104 0.853499 0.410126
Si Si2 0.889353 0.925425 0.189001
Si Si3 0.204015 0.131665 0.128429
O O1 0.869690 0.920519 0.322395
O O2 0.696281 0.855976 0.362234
O O3 0.845050 0.738307 0.402968
O O4 0.790196 0.885813 0.536723
O O5 0.000000 0.893200 0.164414
O O6 0.867081 0.035463 0.137974
O O7 0.250000 0.141929 0.250000
#
# Coordination Sequence:
#
# PCOD9481260 Si02
#       3
#    16  16  16
#     4  10  23  42  65  90 132 170 212 262 322 385
#     4  11  23  40  67  97 125 164 215 267 320 379
#     4  11  21  41  66  90 127 174 208 260 323 383
#
# _framework density 22.298634
#
# number of rings (size 3 to 8) (size 9 to 14) (size 15 to 20)
#    0.000    1.333    6.667    1.000    0.000    4.000 
#    0.000    8.333    0.000    0.000    0.000    0.000 
#    0.000    0.000    0.000    0.000    0.000    0.000 
#
# Total GULP energy -133954.604047 kJ/mol
# GULP energy per Si atom -5581.441835 kJ/mol
# Density = 2.224788 g / cm^3
# Si number density = 22.298634 Si / 1000 Ang^3
#
#
#
# Elastic Constant Matrix: (Units=GPa)
#
#
# Indices 1 2 3 4 5 6 
#
# 1 68.3807 8.0256 -6.1637 0.0000 0.0000 0.0000
# 2 8.0256 114.0479 15.1497 0.0000 0.0000 0.0000
# 3 -6.1637 15.1497 142.1720 0.0000 0.0000 0.0000
# 4 0.0000 0.0000 0.0000 36.7795 0.0000 0.0000
# 5 0.0000 0.0000 0.0000 0.0000 5.3951 0.0000
# 6 0.0000 0.0000 0.0000 0.0000 0.0000 2.2686
#
#
#
# Elastic Compliance Matrix: (Units=1/GPa)
#
#
# Indices 1 2 3 4 5 6 
#
# 1 0.014827 -0.001145 0.000765 0.000000 0.000000 0.000000
# 2 -0.001145 0.008983 -0.001007 0.000000 0.000000 0.000000
# 3 0.000765 -0.001007 0.007174 0.000000 0.000000 0.000000
# 4 0.000000 0.000000 0.000000 0.027189 0.000000 0.000000
# 5 0.000000 0.000000 0.000000 0.000000 0.185355 0.000000
# 6 0.000000 0.000000 0.000000 0.000000 0.000000 0.440807
#
#
# Mechanical properties :
#
#
# Convention : Reuss Voigt Hill
#
# Bulk Modulus (GPa) = 35.44829 39.84710 37.64770
# Shear Modulus (GPa) = 7.17862 29.39455 18.28658
#
# Velocity S-wave (km/s) = 1.79619 3.63467 2.86680
# Velocity P-wave (km/s) = 4.49815 5.96012 5.27998
#
# Compressibility (1/GPa) = 0.02821010
#
# Stress axis : x y z
#
# Youngs Moduli (GPa) = 67.44299 111.32679 139.38882
#
# Poissons Ratio (x) = 0.12747 -0.10661
# Poissons Ratio (y) = 0.07722 0.14034
# Poissons Ratio (z) = -0.05158 0.11209
#
# Static dielectric constant tensor:
#      x y z
#    x 1.780380 0.000000 0.000000 
#    y 0.000000 1.895490 0.000000 
#    z 0.000000 0.000000 1.903670 
# 
# From -- ./inp_files/13593.got.cif
#   From: 2010.05.17/outbox.cif.g08.bks.cpg/sg64_7_cif.got.tgz:13593.got - 2010.06.03 16:29:19.
