data_PCOD9481497
_publ_section_title
;
Structure prediction by ZEFSAII (Michael W. Deem and Ramdas Pophale) SiO2 
 PCOD9481497
Probable space group: C M C A
;
_chemical_formula_sum "Si O2"
_cell_formula_units_Z 88
_cell_length_a 21.415820
_cell_length_b 11.450473
_cell_length_c 17.228528
_cell_angle_alpha 90.000000
_cell_angle_beta 90.000000
_cell_angle_gamma 90.000000
_cell_volume 4224.801494
_symmetry_space_group_name_H-M "C M C A"
_symmetry_group_IT_number 64
_symmetry_cell_setting 'orthorhombic'
loop_
_space_group_symop_operation_xyz
x,y,z
-x,1/2-y,1/2+z
x,-y,-z
-x,1/2+y,1/2-z
-x,-y,-z
x,1/2+y,1/2-z
-x,y,z
x,1/2-y,1/2+z
1/2+x,1/2+y,z
1/2-x,-y,1/2+z
1/2+x,1/2-y,-z
1/2-x,y,1/2-z
1/2-x,1/2-y,-z
1/2+x,y,1/2-z
1/2-x,1/2+y,z
1/2+x,-y,1/2+z
loop_
_atom_site_type_symbol
_atom_site_label
_atom_site_fract_x
_atom_site_fract_y
_atom_site_fract_z
Si Si1 0.930420 0.742963 0.475221
Si Si2 0.772297 0.154286 0.936097
Si Si3 0.882008 0.500000 0.500000
Si Si4 0.651121 0.397381 0.367782
Si Si5 0.314105 0.738776 0.275363
Si Si6 0.073694 0.869648 0.642728
O O1 0.924917 0.603461 0.468514
O O2 0.879774 0.794110 0.417205
O O3 0.920062 0.794034 0.562697
O O4 0.000000 0.781527 0.453217
O O5 0.832406 0.076040 0.952065
O O6 0.714229 0.071537 0.913721
O O7 0.791926 0.222360 0.859588
O O8 0.750000 0.250000 0.000000
O O9 0.671768 0.344720 0.284528
O O10 0.601804 0.501576 0.369601
O O11 0.250000 0.671617 0.250000
O O12 0.380487 0.677758 0.289862
O O13 0.000000 0.870413 0.662044
#
# Coordination Sequence:
#
# PCOD9481497 Si02
#       6
#    16  16   8  16  16  16
#     4  11  24  43  66  97 133 177 232 276 334 411
#     4  11  23  41  66  99 132 172 222 282 337 401
#     4  12  23  38  74  96 129 172 222 286 330 388
#     4  11  24  41  67  97 133 177 223 283 345 409
#     4  10  24  44  63  96 137 172 224 278 346 406
#     4  11  24  44  68  95 136 181 229 287 342 415
#
# _framework density 20.829381000000001
#
# number of rings (size 3 to 8) (size 9 to 14) (size 15 to 20)
#    0.000    1.091    3.636    1.364    5.091    6.545 
#    0.000    0.000    0.000    0.000    0.000    0.000 
#    0.000    0.000    0.000    0.000    0.000    0.000 
#
# Total GULP energy -245130.850646 kJ/mol
# GULP energy per Si atom -5571.155696 kJ/mol
# Density = 2.078197 g / cm^3
# Si number density = 20.829381 Si / 1000 Ang^3
#
#
#
# Elastic Constant Matrix: (Units=GPa)
#
#
# Indices 1 2 3 4 5 6 
#
# 1 157.9528 22.4078 41.5947 0.0000 0.0000 0.0000
# 2 22.4078 79.0174 16.6090 0.0000 0.0000 0.0000
# 3 41.5947 16.6090 70.0940 0.0000 0.0000 0.0000
# 4 0.0000 0.0000 0.0000 18.4957 0.0000 0.0000
# 5 0.0000 0.0000 0.0000 0.0000 32.1806 0.0000
# 6 0.0000 0.0000 0.0000 0.0000 0.0000 33.3263
#
#
#
# Elastic Compliance Matrix: (Units=1/GPa)
#
#
# Indices 1 2 3 4 5 6 
#
# 1 0.007624 -0.001274 -0.004222 0.000000 0.000000 0.000000
# 2 -0.001274 0.013532 -0.002450 0.000000 0.000000 0.000000
# 3 -0.004222 -0.002450 0.017352 0.000000 0.000000 0.000000
# 4 0.000000 0.000000 0.000000 0.054067 0.000000 0.000000
# 5 0.000000 0.000000 0.000000 0.000000 0.031075 0.000000
# 6 0.000000 0.000000 0.000000 0.000000 0.000000 0.030006
#
#
# Mechanical properties :
#
#
# Convention : Reuss Voigt Hill
#
# Bulk Modulus (GPa) = 44.21876 52.03190 48.12533
# Shear Modulus (GPa) = 28.23472 31.89735 30.06604
#
# Velocity S-wave (km/s) = 3.68574 3.91751 3.80339
# Velocity P-wave (km/s) = 6.27599 6.74513 6.51478
#
# Compressibility (1/GPa) = 0.02261483
#
# Stress axis : x y z
#
# Youngs Moduli (GPa) = 131.17162 73.89965 57.62859
#
# Poissons Ratio (x) = 0.09418 0.24331
# Poissons Ratio (y) = 0.16717 0.14120
# Poissons Ratio (z) = 0.55380 0.18106
#
# Static dielectric constant tensor:
#      x y z
#    x 0.845480 0.000000 0.000000 
#    y 0.000000 1.907050 0.000000 
#    z 0.000000 0.000000 1.728030 
# 
# From -- ./inp_files/34125.got.cif
#   From: 2010.05.17/outbox.cif.g08.bks.cpg/sg64_18_cif.got.tgz:34125.got - 2010.06.03 16:29:19.
