data_PCOD9481025
_publ_section_title
;
Structure prediction by ZEFSAII (Michael W. Deem and Ramdas Pophale) SiO2 
 PCOD9481025
Probable space group: C M C A
;
_chemical_formula_sum "Si O2"
_cell_formula_units_Z 72
_cell_length_a 28.754863
_cell_length_b 11.718826
_cell_length_c 8.802686
_cell_angle_alpha 90.000000
_cell_angle_beta 90.000000
_cell_angle_gamma 90.000000
_cell_volume 2966.269588
_symmetry_space_group_name_H-M "C M C A"
_symmetry_group_IT_number 64
_symmetry_cell_setting 'orthorhombic'
loop_
_space_group_symop_operation_xyz
x,y,z
-x,1/2-y,1/2+z
x,-y,-z
-x,1/2+y,1/2-z
-x,-y,-z
x,1/2+y,1/2-z
-x,y,z
x,1/2-y,1/2+z
1/2+x,1/2+y,z
1/2-x,-y,1/2+z
1/2+x,1/2-y,-z
1/2-x,y,1/2-z
1/2-x,1/2-y,-z
1/2+x,y,1/2-z
1/2-x,1/2+y,z
1/2+x,-y,1/2+z
loop_
_atom_site_type_symbol
_atom_site_label
_atom_site_fract_x
_atom_site_fract_y
_atom_site_fract_z
Si Si1 0.278564 0.000000 0.000000
Si Si2 0.500000 0.807953 0.140371
Si Si3 0.076312 0.500000 0.500000
Si Si4 0.500000 0.565270 0.241675
Si Si5 0.101393 0.224298 0.051253
Si Si6 0.335241 0.666279 0.323841
Si Si7 0.250000 0.830926 0.250000
O O1 0.251013 0.097478 0.908482
O O2 0.309009 0.949835 0.861684
O O3 0.500000 0.704080 0.271191
O O4 0.500000 0.945737 0.164574
O O5 0.550638 0.781588 0.065992
O O6 0.101015 0.612953 0.558922
O O7 0.043814 0.452908 0.632227
O O8 0.123315 0.172529 0.203806
O O9 0.139391 0.306609 0.981768
O O10 0.295527 0.752394 0.267544
#
# Coordination Sequence:
#
# PCOD9481025 Si02
#       7
#     8   8   8   8  16  16   8
#     4  12  28  47  80 106 144 191 237 302 387 438
#     4  10  22  42  69 106 145 200 244 300 366 435
#     4   9  20  37  66  97 134 196 239 288 365 429
#     4   9  18  38  65  95 137 191 250 298 358 432
#     4  11  25  43  73 104 150 191 245 302 361 442
#     4  12  27  47  70 112 144 187 244 306 364 450
#     4  12  28  52  74 108 146 186 242 310 374 452
#
# _framework density 24.27291
#
# number of rings (size 3 to 8) (size 9 to 14) (size 15 to 20)
#    0.000    1.111    2.222    3.333    6.222    4.444 
#    0.000    0.000    0.000   26.667    0.000    0.000 
#    0.000    0.000    0.000    0.000    0.000    0.000 
#
# Total GULP energy -200635.225819 kJ/mol
# GULP energy per Si atom -5573.200717 kJ/mol
# Density = 2.421766 g / cm^3
# Si number density = 24.272910 Si / 1000 Ang^3
#
#
#
# Elastic Constant Matrix: (Units=GPa)
#
#
# Indices 1 2 3 4 5 6 
#
# 1 147.6069 25.0761 31.5261 0.0000 0.0000 0.0000
# 2 25.0761 82.3139 2.3278 0.0000 0.0000 0.0000
# 3 31.5261 2.3278 70.7539 0.0000 0.0000 0.0000
# 4 0.0000 0.0000 0.0000 30.3500 0.0000 0.0000
# 5 0.0000 0.0000 0.0000 0.0000 28.6422 0.0000
# 6 0.0000 0.0000 0.0000 0.0000 0.0000 24.5289
#
#
#
# Elastic Compliance Matrix: (Units=1/GPa)
#
#
# Indices 1 2 3 4 5 6 
#
# 1 0.007903 -0.002310 -0.003445 0.000000 0.000000 0.000000
# 2 -0.002310 0.012835 0.000607 0.000000 0.000000 0.000000
# 3 -0.003445 0.000607 0.015649 0.000000 0.000000 0.000000
# 4 0.000000 0.000000 0.000000 0.032949 0.000000 0.000000
# 5 0.000000 0.000000 0.000000 0.000000 0.034913 0.000000
# 6 0.000000 0.000000 0.000000 0.000000 0.000000 0.040768
#
#
# Mechanical properties :
#
#
# Convention : Reuss Voigt Hill
#
# Bulk Modulus (GPa) = 38.32883 46.50386 42.41635
# Shear Modulus (GPa) = 30.48572 32.82056 31.65314
#
# Velocity S-wave (km/s) = 3.54779 3.68115 3.61508
# Velocity P-wave (km/s) = 5.71030 6.10476 5.91082
#
# Compressibility (1/GPa) = 0.02609002
#
# Stress axis : x y z
#
# Youngs Moduli (GPa) = 126.53289 77.91064 63.90306
#
# Poissons Ratio (x) = 0.17999 0.22017
# Poissons Ratio (y) = 0.29231 -0.03879
# Poissons Ratio (z) = 0.43596 -0.04730
#
# Static dielectric constant tensor:
#      x y z
#    x 1.850950 0.000000 0.000000 
#    y 0.000000 2.249300 0.000000 
#    z 0.000000 0.000000 2.182630 
# 
# From -- ./inp_files/18966.got.cif
#   From: 2010.05.17/outbox.cif.g08.bks.cpg/sg64_10_cif.got.tgz:18966.got - 2010.06.03 16:29:19.
