data_PCOD9481566
_publ_section_title
;
Structure prediction by ZEFSAII (Michael W. Deem and Ramdas Pophale) SiO2 
 PCOD9481566
Probable space group: C M C A
;
_chemical_formula_sum "Si O2"
_cell_formula_units_Z 60
_cell_length_a 24.945302
_cell_length_b 21.750321
_cell_length_c 4.956558
_cell_angle_alpha 90.000000
_cell_angle_beta 90.000000
_cell_angle_gamma 90.000000
_cell_volume 2689.271376
_symmetry_space_group_name_H-M "C M C A"
_symmetry_group_IT_number 64
_symmetry_cell_setting 'orthorhombic'
loop_
_space_group_symop_operation_xyz
x,y,z
-x,1/2-y,1/2+z
x,-y,-z
-x,1/2+y,1/2-z
-x,-y,-z
x,1/2+y,1/2-z
-x,y,z
x,1/2-y,1/2+z
1/2+x,1/2+y,z
1/2-x,-y,1/2+z
1/2+x,1/2-y,-z
1/2-x,y,1/2-z
1/2-x,1/2-y,-z
1/2+x,y,1/2-z
1/2-x,1/2+y,z
1/2+x,-y,1/2+z
loop_
_atom_site_type_symbol
_atom_site_label
_atom_site_fract_x
_atom_site_fract_y
_atom_site_fract_z
Si Si1 0.000000 0.500000 0.000000
Si Si2 0.750000 0.704737 0.250000
Si Si3 0.653505 0.391902 0.740520
Si Si4 0.500000 0.793487 0.205576
Si Si5 0.917298 0.099553 0.752635
Si Si6 0.280863 0.500000 0.000000
O O1 0.046761 0.540437 0.831008
O O2 0.750000 0.750000 0.500000
O O3 0.696009 0.663416 0.239859
O O4 0.634515 0.400446 0.435873
O O5 0.601223 0.391722 0.937572
O O6 0.684799 0.450674 0.843959
O O7 0.500000 0.761321 0.494094
O O8 0.549879 0.839271 0.175581
O O9 0.250000 0.531488 0.750000
#
# Coordination Sequence:
#
# PCOD9481566 Si02
#       6
#     4   8  16   8  16   8
#     4  10  24  48  68 110 140 176 226 290 380 416
#     4  12  28  46  68  98 144 190 240 298 342 418
#     4  12  25  45  68 104 133 186 234 280 359 412
#     4  11  24  43  66  97 132 175 228 285 342 399
#     4  11  25  42  72  98 139 177 227 291 345 435
#     4  12  24  41  70  95 136 175 219 286 334 418
#
# _framework density 22.310873999999998
#
# number of rings (size 3 to 8) (size 9 to 14) (size 15 to 20)
#    0.000    0.533    1.333    6.400    1.867   10.667 
#    0.000    0.000    0.000    0.000    0.000    0.000 
#    0.000    0.000    0.000    0.000    0.000    0.000 
#
# Total GULP energy -167259.589332 kJ/mol
# GULP energy per Si atom -5575.319644 kJ/mol
# Density = 2.226009 g / cm^3
# Si number density = 22.310874 Si / 1000 Ang^3
#
#
#
# Elastic Constant Matrix: (Units=GPa)
#
#
# Indices 1 2 3 4 5 6 
#
# 1 83.1554 31.9826 6.6450 0.0000 0.0000 0.0000
# 2 31.9826 91.1115 -0.4643 0.0000 0.0000 0.0000
# 3 6.6450 -0.4643 79.1044 0.0000 0.0000 0.0000
# 4 0.0000 0.0000 0.0000 33.5871 0.0000 0.0000
# 5 0.0000 0.0000 0.0000 0.0000 62.8751 0.0000
# 6 0.0000 0.0000 0.0000 0.0000 0.0000 -404.5951
#
#
#
# Elastic Compliance Matrix: (Units=1/GPa)
#
#
# Indices 1 2 3 4 5 6 
#
# 1 0.014017 -0.004926 -0.001206 0.000000 0.000000 0.000000
# 2 -0.004926 0.012707 0.000488 0.000000 0.000000 0.000000
# 3 -0.001206 0.000488 0.012746 0.000000 0.000000 0.000000
# 4 0.000000 0.000000 0.000000 0.029773 0.000000 0.000000
# 5 0.000000 0.000000 0.000000 0.000000 0.015905 0.000000
# 6 0.000000 0.000000 0.000000 0.000000 0.000000 -0.002472
#
#
# Mechanical properties :
#
#
# Convention : Reuss Voigt Hill
#
# Bulk Modulus (GPa) = 35.48470 36.63309 36.05889
# Shear Modulus (GPa) = 48.37521 -47.27939 0.54791
#
# Velocity S-wave (km/s) = 4.66148 -4.60838 0.49610
# Velocity P-wave (km/s) = 6.70162 3.44401 4.06513
#
# Compressibility (1/GPa) = 0.02818116
#
# Stress axis : x y z
#
# Youngs Moduli (GPa) = 71.34274 78.69455 78.45769
#
# Poissons Ratio (x) = 0.38768 0.09465
# Poissons Ratio (y) = 0.35147 -0.03832
# Poissons Ratio (z) = 0.08606 -0.03844
#
# Static dielectric constant tensor:
#      x y z
#    x -5.520220 0.000000 0.000000 
#    y 0.000000 1.763230 0.000000 
#    z 0.000000 0.000000 1.833730 
# 
# From -- ./inp_files/2155.got.cif
#   From: 2010.05.17/outbox.cif.g08.bks.cpg/sg64_2_cif.got.tgz:2155.got - 2010.06.03 16:29:19.
