data_PCOD9481654
_publ_section_title
;
Structure prediction by ZEFSAII (Michael W. Deem and Ramdas Pophale) SiO2 
 PCOD9481654
Probable space group: C M C A
;
_chemical_formula_sum "Si O2"
_cell_formula_units_Z 128
_cell_length_a 24.620321
_cell_length_b 10.763522
_cell_length_c 23.798735
_cell_angle_alpha 90.000000
_cell_angle_beta 90.000000
_cell_angle_gamma 90.000000
_cell_volume 6306.697301
_symmetry_space_group_name_H-M "C M C A"
_symmetry_group_IT_number 64
_symmetry_cell_setting 'orthorhombic'
loop_
_space_group_symop_operation_xyz
x,y,z
-x,1/2-y,1/2+z
x,-y,-z
-x,1/2+y,1/2-z
-x,-y,-z
x,1/2+y,1/2-z
-x,y,z
x,1/2-y,1/2+z
1/2+x,1/2+y,z
1/2-x,-y,1/2+z
1/2+x,1/2-y,-z
1/2-x,y,1/2-z
1/2-x,1/2-y,-z
1/2+x,y,1/2-z
1/2-x,1/2+y,z
1/2+x,-y,1/2+z
loop_
_atom_site_type_symbol
_atom_site_label
_atom_site_fract_x
_atom_site_fract_y
_atom_site_fract_z
Si Si1 0.938608 0.143664 0.707890
Si Si2 0.856680 0.726200 0.104124
Si Si3 0.739996 0.414908 0.545895
Si Si4 0.731415 0.592279 0.859584
Si Si5 0.595157 0.628562 0.289749
Si Si6 0.353901 0.145726 0.490420
Si Si7 0.653216 0.267232 0.371634
Si Si8 0.299177 0.396463 0.775222
O O1 0.922823 0.247637 0.755224
O O2 0.894347 0.155685 0.658190
O O3 0.000000 0.172658 0.689830
O O4 0.936729 0.997852 0.725082
O O5 0.806227 0.642642 0.083750
O O6 0.823209 0.826888 0.140560
O O7 0.900591 0.662832 0.144281
O O8 0.876322 0.784525 0.045324
O O9 0.711215 0.500000 0.500000
O O10 0.774685 0.497968 0.588632
O O11 0.787549 0.343076 0.512410
O O12 0.788362 0.661501 0.873336
O O13 0.730986 0.513139 0.803115
O O14 0.656519 0.590790 0.272567
O O15 0.366900 0.210696 0.430829
O O16 0.366651 0.000000 0.500000
O O17 0.667674 0.160774 0.326781
O O18 0.250000 0.314491 0.750000
#
# Coordination Sequence:
#
# PCOD9481654 Si02
#       8
#    16  16  16  16  16  16  16  16
#     4  11  25  48  72  93 123 160 217 288 341 389
#     4  12  21  34  56  86 131 169 213 255 302 383
#     4  11  19  30  47  78 124 178 209 240 289 353
#     4  12  19  31  51  81 128 172 204 250 301 374
#     4  11  25  42  66  98 122 167 215 262 335 401
#     4  11  20  36  55  88 134 182 219 262 304 380
#     4  11  22  36  59  90 121 167 222 258 322 383
#     4  11  21  34  50  83 129 165 202 255 311 382
#
# _framework density 20.295884000000001
#
# number of rings (size 3 to 8) (size 9 to 14) (size 15 to 20)
#    0.000    0.750    5.000    5.250    0.000    3.500 
#    0.000    0.000    0.000    2.625    0.000    0.000 
#    0.000    0.000    0.000    0.000    0.000    0.000 
#
# Total GULP energy -356684.518721 kJ/mol
# GULP energy per Si atom -5573.195605 kJ/mol
# Density = 2.024969 g / cm^3
# Si number density = 20.295884 Si / 1000 Ang^3
#
#
#
# Elastic Constant Matrix: (Units=GPa)
#
#
# Indices 1 2 3 4 5 6 
#
# 1 54.6116 5.1476 8.2119 0.0000 0.0000 0.0000
# 2 5.1476 81.9613 38.9808 0.0000 0.0000 0.0000
# 3 8.2119 38.9808 122.0050 0.0000 0.0000 0.0000
# 4 0.0000 0.0000 0.0000 29.8802 0.0000 0.0000
# 5 0.0000 0.0000 0.0000 0.0000 11.0234 0.0000
# 6 0.0000 0.0000 0.0000 0.0000 0.0000 8.0201
#
#
#
# Elastic Compliance Matrix: (Units=1/GPa)
#
#
# Indices 1 2 3 4 5 6 
#
# 1 0.018530 -0.000673 -0.001032 0.000000 0.000000 0.000000
# 2 -0.000673 0.014411 -0.004559 0.000000 0.000000 0.000000
# 3 -0.001032 -0.004559 0.009723 0.000000 0.000000 0.000000
# 4 0.000000 0.000000 0.000000 0.033467 0.000000 0.000000
# 5 0.000000 0.000000 0.000000 0.000000 0.090716 0.000000
# 6 0.000000 0.000000 0.000000 0.000000 0.000000 0.124687
#
#
# Mechanical properties :
#
#
# Convention : Reuss Voigt Hill
#
# Bulk Modulus (GPa) = 33.18373 40.36206 36.77290
# Shear Modulus (GPa) = 15.91812 23.53392 19.72602
#
# Velocity S-wave (km/s) = 2.80358 3.40890 3.12095
# Velocity P-wave (km/s) = 5.18320 5.95182 5.58076
#
# Compressibility (1/GPa) = 0.03013525
#
# Stress axis : x y z
#
# Youngs Moduli (GPa) = 53.96725 69.38907 102.85383
#
# Poissons Ratio (x) = 0.04669 0.10617
# Poissons Ratio (y) = 0.03631 0.46893
# Poissons Ratio (z) = 0.05571 0.31636
#
# Static dielectric constant tensor:
#      x y z
#    x 1.690750 0.000000 0.000000 
#    y 0.000000 1.883870 0.000000 
#    z 0.000000 0.000000 1.777500 
# 
# From -- ./inp_files/46734.got.cif
#   From: 2010.05.17/outbox.cif.g08.bks.cpg/sg64_24_cif.got.tgz:46734.got - 2010.06.03 16:29:19.
