data_PCOD9481489
_publ_section_title
;
Structure prediction by ZEFSAII (Michael W. Deem and Ramdas Pophale) SiO2 
 PCOD9481489
Probable space group: C M C A
;
_chemical_formula_sum "Si O2"
_cell_formula_units_Z 88
_cell_length_a 19.686540
_cell_length_b 21.744687
_cell_length_c 8.695807
_cell_angle_alpha 90.000000
_cell_angle_beta 90.000000
_cell_angle_gamma 90.000000
_cell_volume 3722.480629
_symmetry_space_group_name_H-M "C M C A"
_symmetry_group_IT_number 64
_symmetry_cell_setting 'orthorhombic'
loop_
_space_group_symop_operation_xyz
x,y,z
-x,1/2-y,1/2+z
x,-y,-z
-x,1/2+y,1/2-z
-x,-y,-z
x,1/2+y,1/2-z
-x,y,z
x,1/2-y,1/2+z
1/2+x,1/2+y,z
1/2-x,-y,1/2+z
1/2+x,1/2-y,-z
1/2-x,y,1/2-z
1/2-x,1/2-y,-z
1/2+x,y,1/2-z
1/2-x,1/2+y,z
1/2+x,-y,1/2+z
loop_
_atom_site_type_symbol
_atom_site_label
_atom_site_fract_x
_atom_site_fract_y
_atom_site_fract_z
Si Si1 0.500000 0.895490 0.484512
Si Si2 0.816554 0.811568 0.646715
Si Si3 0.500000 0.652572 0.661135
Si Si4 0.885741 0.572222 0.280782
Si Si5 0.717926 0.000000 0.500000
Si Si6 0.750000 0.907651 0.250000
Si Si7 0.352896 0.691813 0.682235
Si Si8 0.500000 0.016995 0.796538
O O1 0.434870 0.895856 0.592975
O O2 0.500000 0.956685 0.378604
O O3 0.500000 0.845535 0.349393
O O4 0.750000 0.817062 0.750000
O O5 0.855981 0.875019 0.674189
O O6 0.805068 0.801250 0.466697
O O7 0.853812 0.751632 0.713147
O O8 0.428228 0.680613 0.617700
O O9 0.500000 0.580790 0.612857
O O10 0.828758 0.535913 0.376692
O O11 0.933030 0.523810 0.191078
O O12 0.758435 0.950429 0.399678
O O13 0.682269 0.865897 0.268003
#
# Coordination Sequence:
#
# PCOD9481489 Si02
#       8
#     8  16   8  16   8   8  16   8
#     4   9  18  38  69 102 141 193 233 293 375 447
#     4  12  29  48  76 104 145 200 256 308 367 445
#     4  10  24  43  73 106 149 191 242 311 383 446
#     4  11  20  39  71 105 139 185 246 297 367 446
#     4  12  24  41  72 105 140 184 252 298 378 440
#     4  12  28  46  72 106 150 194 242 320 368 450
#     4  12  28  51  75 105 153 196 253 311 376 437
#     4   9  18  40  66 107 145 187 226 304 373 447
#
# _framework density 23.640149999999998
#
# number of rings (size 3 to 8) (size 9 to 14) (size 15 to 20)
#    0.545    0.364    2.727    4.364    8.909    3.636 
#    0.000    0.909    0.000    0.000    0.000    0.000 
#    0.000    0.000    0.000    0.000    0.000    0.000 
#
# Total GULP energy -246240.239507 kJ/mol
# GULP energy per Si atom -5596.369080 kJ/mol
# Density = 2.358634 g / cm^3
# Si number density = 23.640150 Si / 1000 Ang^3
#
#
#
# Elastic Constant Matrix: (Units=GPa)
#
#
# Indices 1 2 3 4 5 6 
#
# 1 75.4366 20.3284 -16.0940 0.0000 0.0000 0.0000
# 2 20.3284 107.7771 7.4406 0.0000 0.0000 0.0000
# 3 -16.0940 7.4406 61.6525 0.0000 0.0000 0.0000
# 4 0.0000 0.0000 0.0000 25.8173 0.0000 0.0000
# 5 0.0000 0.0000 0.0000 0.0000 -45.3447 0.0000
# 6 0.0000 0.0000 0.0000 0.0000 0.0000 16.2007
#
#
#
# Elastic Compliance Matrix: (Units=1/GPa)
#
#
# Indices 1 2 3 4 5 6 
#
# 1 0.015016 -0.003129 0.004297 0.000000 0.000000 0.000000
# 2 -0.003129 0.010008 -0.002025 0.000000 0.000000 0.000000
# 3 0.004297 -0.002025 0.017586 0.000000 0.000000 0.000000
# 4 0.000000 0.000000 0.000000 0.038734 0.000000 0.000000
# 5 0.000000 0.000000 0.000000 0.000000 -0.022053 0.000000
# 6 0.000000 0.000000 0.000000 0.000000 0.000000 0.061726
#
#
# Mechanical properties :
#
#
# Convention : Reuss Voigt Hill
#
# Bulk Modulus (GPa) = 24.45085 29.80181 27.12633
# Shear Modulus (GPa) = 36.66709 14.88073 25.77391
#
# Velocity S-wave (km/s) = 3.94261 2.51164 3.30549
# Velocity P-wave (km/s) = 5.57593 4.58748 5.10568
#
# Compressibility (1/GPa) = 0.04089838
#
# Stress axis : x y z
#
# Youngs Moduli (GPa) = 66.59483 99.91653 56.86304
#
# Poissons Ratio (x) = 0.31263 -0.24437
# Poissons Ratio (y) = 0.20837 0.11513
# Poissons Ratio (z) = -0.28619 0.20230
#
# Static dielectric constant tensor:
#      x y z
#    x 1.900340 0.000000 0.000000 
#    y 0.000000 1.904890 0.000000 
#    z 0.000000 0.000000 1.898250 
# 
# From -- ./inp_files/8310.got.cif
#   From: 2010.05.17/outbox.cif.g08.bks.cpg/sg64_5_cif.got.tgz:8310.got - 2010.06.03 16:29:19.
