data_PCOD9481799
_publ_section_title
;
Structure prediction by ZEFSAII (Michael W. Deem and Ramdas Pophale) SiO2 
 PCOD9481799
Probable space group: C M C A
;
_chemical_formula_sum "Si O2"
_cell_formula_units_Z 80
_cell_length_a 22.312703
_cell_length_b 14.013923
_cell_length_c 13.483591
_cell_angle_alpha 90.000000
_cell_angle_beta 90.000000
_cell_angle_gamma 90.000000
_cell_volume 4216.163868
_symmetry_space_group_name_H-M "C M C A"
_symmetry_group_IT_number 64
_symmetry_cell_setting 'orthorhombic'
loop_
_space_group_symop_operation_xyz
x,y,z
-x,1/2-y,1/2+z
x,-y,-z
-x,1/2+y,1/2-z
-x,-y,-z
x,1/2+y,1/2-z
-x,y,z
x,1/2-y,1/2+z
1/2+x,1/2+y,z
1/2-x,-y,1/2+z
1/2+x,1/2-y,-z
1/2-x,y,1/2-z
1/2-x,1/2-y,-z
1/2+x,y,1/2-z
1/2-x,1/2+y,z
1/2+x,-y,1/2+z
loop_
_atom_site_type_symbol
_atom_site_label
_atom_site_fract_x
_atom_site_fract_y
_atom_site_fract_z
Si Si1 0.500000 0.092878 0.131924
Si Si2 0.316292 0.587087 0.759950
Si Si3 0.123878 0.269359 0.118982
Si Si4 0.500000 0.130654 0.897348
Si Si5 0.129831 0.887410 0.721619
Si Si6 0.190981 0.249824 0.927076
O O1 0.437225 0.126512 0.178667
O O2 0.500000 0.977746 0.140140
O O3 0.500000 0.121177 0.016556
O O4 0.250000 0.546411 0.750000
O O5 0.330378 0.654950 0.666744
O O6 0.359691 0.497250 0.749660
O O7 0.315719 0.657060 0.855866
O O8 0.058676 0.313052 0.135617
O O9 0.133914 0.173405 0.178931
O O10 0.136801 0.253264 0.004704
O O11 0.178734 0.841641 0.644701
O O12 0.250000 0.250000 0.000000
#
# Coordination Sequence:
#
# PCOD9481799 Si02
#       6
#     8  16  16   8  16  16
#     4  11  21  40  66  97 122 166 226 269 320 388
#     4  11  24  41  64  96 128 168 215 260 325 390
#     4  11  23  43  65  91 132 170 208 269 320 383
#     4  11  21  40  68  93 126 168 220 265 330 386
#     4  11  25  41  67  95 132 172 215 271 328 381
#     4  11  24  43  64  93 132 169 216 265 325 391
#
# _framework density 18.974595000000001
#
# number of rings (size 3 to 8) (size 9 to 14) (size 15 to 20)
#    0.000    1.000    6.000    0.600    2.800    1.600 
#    0.000    1.000    0.000    2.400    0.000    0.000 
#    0.000    0.000    0.000    0.000    0.000    0.000 
#
# Total GULP energy -223057.286640 kJ/mol
# GULP energy per Si atom -5576.432166 kJ/mol
# Density = 1.893141 g / cm^3
# Si number density = 18.974595 Si / 1000 Ang^3
#
#
#
# Elastic Constant Matrix: (Units=GPa)
#
#
# Indices 1 2 3 4 5 6 
#
# 1 76.1859 4.0073 11.4715 0.0000 0.0000 0.0000
# 2 4.0073 101.8626 43.6844 0.0000 0.0000 0.0000
# 3 11.4715 43.6844 92.2740 0.0000 0.0000 0.0000
# 4 0.0000 0.0000 0.0000 10.7510 0.0000 0.0000
# 5 0.0000 0.0000 0.0000 0.0000 30.0583 0.0000
# 6 0.0000 0.0000 0.0000 0.0000 0.0000 27.5831
#
#
#
# Elastic Compliance Matrix: (Units=1/GPa)
#
#
# Indices 1 2 3 4 5 6 
#
# 1 0.013381 0.000235 -0.001775 0.000000 0.000000 0.000000
# 2 0.000235 0.012322 -0.005863 0.000000 0.000000 0.000000
# 3 -0.001775 -0.005863 0.013833 0.000000 0.000000 0.000000
# 4 0.000000 0.000000 0.000000 0.093014 0.000000 0.000000
# 5 0.000000 0.000000 0.000000 0.000000 0.033269 0.000000
# 6 0.000000 0.000000 0.000000 0.000000 0.000000 0.036254
#
#
# Mechanical properties :
#
#
# Convention : Reuss Voigt Hill
#
# Bulk Modulus (GPa) = 40.43518 43.18320 41.80919
# Shear Modulus (GPa) = 22.21012 27.75575 24.98294
#
# Velocity S-wave (km/s) = 3.42500 3.82879 3.63251
# Velocity P-wave (km/s) = 6.08253 6.50799 6.29886
#
# Compressibility (1/GPa) = 0.02473094
#
# Stress axis : x y z
#
# Youngs Moduli (GPa) = 74.73482 81.15435 72.28849
#
# Poissons Ratio (x) = -0.01904 0.12828
# Poissons Ratio (y) = -0.01754 0.42381
# Poissons Ratio (z) = 0.13262 0.47579
#
# Static dielectric constant tensor:
#      x y z
#    x 1.689000 0.000000 0.000000 
#    y 0.000000 1.660340 0.000000 
#    z 0.000000 0.000000 1.626040 
# 
# From -- ./inp_files/18109.got.cif
#   From: 2010.05.17/outbox.cif.g08.bks.cpg/sg64_10_cif.got.tgz:18109.got - 2010.06.03 16:29:19.
