data_PCOD9481423
_publ_section_title
;
Structure prediction by ZEFSAII (Michael W. Deem and Ramdas Pophale) SiO2 
 PCOD9481423
Probable space group: C M C A
;
_chemical_formula_sum "Si O2"
_cell_formula_units_Z 56
_cell_length_a 15.869904
_cell_length_b 8.019381
_cell_length_c 17.237556
_cell_angle_alpha 90.000000
_cell_angle_beta 90.000000
_cell_angle_gamma 90.000000
_cell_volume 2193.768706
_symmetry_space_group_name_H-M "C M C A"
_symmetry_group_IT_number 64
_symmetry_cell_setting 'orthorhombic'
loop_
_space_group_symop_operation_xyz
x,y,z
-x,1/2-y,1/2+z
x,-y,-z
-x,1/2+y,1/2-z
-x,-y,-z
x,1/2+y,1/2-z
-x,y,z
x,1/2-y,1/2+z
1/2+x,1/2+y,z
1/2-x,-y,1/2+z
1/2+x,1/2-y,-z
1/2-x,y,1/2-z
1/2-x,1/2-y,-z
1/2+x,y,1/2-z
1/2-x,1/2+y,z
1/2+x,-y,1/2+z
loop_
_atom_site_type_symbol
_atom_site_label
_atom_site_fract_x
_atom_site_fract_y
_atom_site_fract_z
Si Si1 0.349704 0.702984 0.502998
Si Si2 0.000000 0.531778 0.233280
Si Si3 0.750000 0.020346 0.250000
Si Si4 0.853547 0.254441 0.333741
Si Si5 0.000000 0.789327 0.879481
O O1 0.356781 0.500000 0.500000
O O2 0.250000 0.750000 0.500000
O O3 0.378372 0.781601 0.421382
O O4 0.414679 0.766240 0.569115
O O5 0.077307 0.643322 0.205756
O O6 0.000000 0.542201 0.327173
O O7 0.000000 0.363739 0.182740
O O8 0.825555 0.906121 0.219617
O O9 0.772122 0.133128 0.324192
#
# Coordination Sequence:
#
# PCOD9481423 Si02
#       5
#    16   8   8  16   8
#     4  12  26  49  77 112 154 206 247 319 387 463
#     4  12  25  46  77 103 146 195 252 314 373 450
#     4  10  24  40  72 108 146 186 250 300 360 450
#     4  11  23  43  71 103 144 194 243 307 367 447
#     4  12  28  53  75 113 151 206 260 314 390 449
#
# _framework density 25.526847
#
# number of rings (size 3 to 8) (size 9 to 14) (size 15 to 20)
#    0.000    0.571    2.857    4.714    8.000    0.000 
#    5.143    0.714    0.000    0.000    0.000    0.000 
#    0.000    0.000    0.000    0.000    0.000    0.000 
#
# Total GULP energy -156563.304686 kJ/mol
# GULP energy per Si atom -5591.546596 kJ/mol
# Density = 2.546875 g / cm^3
# Si number density = 25.526847 Si / 1000 Ang^3
#
#
#
# Elastic Constant Matrix: (Units=GPa)
#
#
# Indices 1 2 3 4 5 6 
#
# 1 132.6994 40.0487 71.3115 0.0000 0.0000 0.0000
# 2 40.0487 64.6635 58.1318 0.0000 0.0000 0.0000
# 3 71.3115 58.1318 211.2105 0.0000 0.0000 0.0000
# 4 0.0000 0.0000 0.0000 35.4125 0.0000 0.0000
# 5 0.0000 0.0000 0.0000 0.0000 42.0756 0.0000
# 6 0.0000 0.0000 0.0000 0.0000 0.0000 65.2908
#
#
#
# Elastic Compliance Matrix: (Units=1/GPa)
#
#
# Indices 1 2 3 4 5 6 
#
# 1 0.009995 -0.004194 -0.002220 0.000000 0.000000 0.000000
# 2 -0.004194 0.022309 -0.004724 0.000000 0.000000 0.000000
# 3 -0.002220 -0.004724 0.006784 0.000000 0.000000 0.000000
# 4 0.000000 0.000000 0.000000 0.028239 0.000000 0.000000
# 5 0.000000 0.000000 0.000000 0.000000 0.023767 0.000000
# 6 0.000000 0.000000 0.000000 0.000000 0.000000 0.015316
#
#
# Mechanical properties :
#
#
# Convention : Reuss Voigt Hill
#
# Bulk Modulus (GPa) = 59.48334 83.06194 71.27264
# Shear Modulus (GPa) = 37.23264 44.49454 40.86359
#
# Velocity S-wave (km/s) = 3.82326 4.17951 4.00535
# Velocity P-wave (km/s) = 6.54543 7.47668 7.02650
#
# Compressibility (1/GPa) = 0.01681143
#
# Stress axis : x y z
#
# Youngs Moduli (GPa) = 100.05258 44.82438 147.39616
#
# Poissons Ratio (x) = 0.18800 0.32724
# Poissons Ratio (y) = 0.41965 0.69632
# Poissons Ratio (z) = 0.22213 0.21176
#
# Static dielectric constant tensor:
#      x y z
#    x 2.040560 0.000000 0.000000 
#    y 0.000000 2.001480 0.000000 
#    z 0.000000 0.000000 1.987960 
# 
# From -- ./inp_files/32703.got.cif
#   From: 2010.05.17/outbox.cif.g08.bks.cpg/sg64_17_cif.got.tgz:32703.got - 2010.06.03 16:29:19.
