data_PCOD9481427
_publ_section_title
;
Structure prediction by ZEFSAII (Michael W. Deem and Ramdas Pophale) SiO2 
 PCOD9481427
Probable space group: C M C A
;
_chemical_formula_sum "Si O2"
_cell_formula_units_Z 96
_cell_length_a 26.283724
_cell_length_b 20.649534
_cell_length_c 8.828092
_cell_angle_alpha 90.000000
_cell_angle_beta 90.000000
_cell_angle_gamma 90.000000
_cell_volume 4791.417380
_symmetry_space_group_name_H-M "C M C A"
_symmetry_group_IT_number 64
_symmetry_cell_setting 'orthorhombic'
loop_
_space_group_symop_operation_xyz
x,y,z
-x,1/2-y,1/2+z
x,-y,-z
-x,1/2+y,1/2-z
-x,-y,-z
x,1/2+y,1/2-z
-x,y,z
x,1/2-y,1/2+z
1/2+x,1/2+y,z
1/2-x,-y,1/2+z
1/2+x,1/2-y,-z
1/2-x,y,1/2-z
1/2-x,1/2-y,-z
1/2+x,y,1/2-z
1/2-x,1/2+y,z
1/2+x,-y,1/2+z
loop_
_atom_site_type_symbol
_atom_site_label
_atom_site_fract_x
_atom_site_fract_y
_atom_site_fract_z
Si Si1 0.291369 0.929014 0.943655
Si Si2 0.357090 0.043661 0.358061
Si Si3 0.621305 0.154388 0.901070
Si Si4 0.059165 0.469234 0.166939
Si Si5 0.344582 0.256446 0.651420
Si Si6 0.806248 0.661336 0.412760
O O1 0.318879 0.945165 0.783591
O O2 0.241946 0.884149 0.936416
O O3 0.331258 0.892913 0.055180
O O4 0.277260 0.000000 0.000000
O O5 0.357223 0.116513 0.424591
O O6 0.340805 0.000000 0.500000
O O7 0.406186 0.009639 0.284391
O O8 0.577646 0.104683 0.852725
O O9 0.631686 0.204449 0.765809
O O10 0.617087 0.199394 0.051653
O O11 0.000000 0.473064 0.207504
O O12 0.066523 0.500000 0.000000
O O13 0.309554 0.217053 0.536367
O O14 0.310682 0.304273 0.751516
#
# Coordination Sequence:
#
# PCOD9481427 Si02
#       6
#    16  16  16  16  16  16
#     4  12  24  41  62  90 131 175 221 267 324 389
#     4  12  23  42  63  96 134 162 214 279 327 385
#     4  11  21  43  63  93 131 167 223 264 330 389
#     4  11  22  43  75  98 123 167 211 274 345 394
#     4  10  24  41  63  87 133 185 211 274 313 381
#     4  11  24  40  61  93 132 177 229 257 324 387
#
# _framework density 20.035824000000002
#
# number of rings (size 3 to 8) (size 9 to 14) (size 15 to 20)
#    0.000    0.833    5.000    2.000    0.000    5.000 
#    0.000    0.833    0.000    4.000    0.000    0.000 
#    0.000    0.000    0.000    0.000    0.000    0.000 
#
# Total GULP energy -268002.187471 kJ/mol
# GULP energy per Si atom -5583.378906 kJ/mol
# Density = 1.999022 g / cm^3
# Si number density = 20.035824 Si / 1000 Ang^3
#
#
#
# Elastic Constant Matrix: (Units=GPa)
#
#
# Indices 1 2 3 4 5 6 
#
# 1 80.2622 51.7988 32.0817 0.0000 0.0000 0.0000
# 2 51.7988 157.4906 53.8754 0.0000 0.0000 0.0000
# 3 32.0817 53.8754 84.4548 0.0000 0.0000 0.0000
# 4 0.0000 0.0000 0.0000 54.0671 0.0000 0.0000
# 5 0.0000 0.0000 0.0000 0.0000 13.4969 0.0000
# 6 0.0000 0.0000 0.0000 0.0000 0.0000 23.7320
#
#
#
# Elastic Compliance Matrix: (Units=1/GPa)
#
#
# Indices 1 2 3 4 5 6 
#
# 1 0.016639 -0.004234 -0.003619 0.000000 0.000000 0.000000
# 2 -0.004234 0.009200 -0.004260 0.000000 0.000000 0.000000
# 3 -0.003619 -0.004260 0.015933 0.000000 0.000000 0.000000
# 4 0.000000 0.000000 0.000000 0.018496 0.000000 0.000000
# 5 0.000000 0.000000 0.000000 0.000000 0.074091 0.000000
# 6 0.000000 0.000000 0.000000 0.000000 0.000000 0.042137
#
#
# Mechanical properties :
#
#
# Convention : Reuss Voigt Hill
#
# Bulk Modulus (GPa) = 57.00023 66.41327 61.70675
# Shear Modulus (GPa) = 24.20480 30.55597 27.38039
#
# Velocity S-wave (km/s) = 3.47951 3.90945 3.70073
# Velocity P-wave (km/s) = 6.68233 7.32104 7.00896
#
# Compressibility (1/GPa) = 0.01754379
#
# Stress axis : x y z
#
# Youngs Moduli (GPa) = 60.10141 108.70058 62.76231
#
# Poissons Ratio (x) = 0.46027 0.22716
# Poissons Ratio (y) = 0.25449 0.26738
# Poissons Ratio (z) = 0.21752 0.46308
#
# Static dielectric constant tensor:
#      x y z
#    x 1.700830 0.000000 0.000000 
#    y 0.000000 1.764930 0.000000 
#    z 0.000000 0.000000 1.761370 
# 
# From -- ./inp_files/10354.got.cif
#   From: 2010.05.17/outbox.cif.g08.bks.cpg/sg64_6_cif.got.tgz:10354.got - 2010.06.03 16:29:19.
