data_PCOD9481558
_publ_section_title
;
Structure prediction by ZEFSAII (Michael W. Deem and Ramdas Pophale) SiO2 
 PCOD9481558
Probable space group: C M C A
;
_chemical_formula_sum "Si O2"
_cell_formula_units_Z 72
_cell_length_a 26.376837
_cell_length_b 10.796886
_cell_length_c 10.613831
_cell_angle_alpha 90.000000
_cell_angle_beta 90.000000
_cell_angle_gamma 90.000000
_cell_volume 3022.688541
_symmetry_space_group_name_H-M "C M C A"
_symmetry_group_IT_number 64
_symmetry_cell_setting 'orthorhombic'
loop_
_space_group_symop_operation_xyz
x,y,z
-x,1/2-y,1/2+z
x,-y,-z
-x,1/2+y,1/2-z
-x,-y,-z
x,1/2+y,1/2-z
-x,y,z
x,1/2-y,1/2+z
1/2+x,1/2+y,z
1/2-x,-y,1/2+z
1/2+x,1/2-y,-z
1/2-x,y,1/2-z
1/2-x,1/2-y,-z
1/2+x,y,1/2-z
1/2-x,1/2+y,z
1/2+x,-y,1/2+z
loop_
_atom_site_type_symbol
_atom_site_label
_atom_site_fract_x
_atom_site_fract_y
_atom_site_fract_z
Si Si1 0.859859 0.344501 0.302304
Si Si2 0.750000 0.905865 0.250000
Si Si3 0.913025 0.500000 0.500000
Si Si4 0.110252 0.588047 0.146648
Si Si5 0.000000 0.838504 0.603421
Si Si6 0.196877 0.000000 0.500000
Si Si7 0.000000 0.355439 0.620235
O O1 0.799644 0.332112 0.291429
O O2 0.879480 0.392944 0.437689
O O3 0.883832 0.212622 0.271362
O O4 0.876352 0.459561 0.214248
O O5 0.768673 0.977127 0.376636
O O6 0.951233 0.443305 0.603527
O O7 0.053092 0.589686 0.096818
O O8 0.155413 0.603565 0.042867
O O9 0.000000 0.735428 0.497491
O O10 0.000000 0.787219 0.746804
#
# Coordination Sequence:
#
# PCOD9481558 Si02
#       7
#    16   8   8  16   8   8   8
#     4  11  24  44  73 107 150 206 248 324 370 471
#     4  10  24  46  80 110 154 196 268 312 400 446
#     4  11  21  40  67 102 153 196 263 295 388 454
#     4  11  26  45  74 111 160 193 259 311 394 456
#     4  12  24  47  76 111 157 204 244 320 382 474
#     4  10  25  49  73 118 147 201 255 328 380 468
#     4  11  24  40  72 107 145 205 254 302 385 466
#
# _framework density 23.819853999999999
#
# number of rings (size 3 to 8) (size 9 to 14) (size 15 to 20)
#    0.000    1.111    4.444    0.667    0.000   12.889 
#    0.000    0.000    0.000    0.000    0.000    0.000 
#    0.000    0.000    0.000    0.000    0.000    0.000 
#
# Total GULP energy -201024.119384 kJ/mol
# GULP energy per Si atom -5584.003316 kJ/mol
# Density = 2.376564 g / cm^3
# Si number density = 23.819854 Si / 1000 Ang^3
#
#
#
# Elastic Constant Matrix: (Units=GPa)
#
#
# Indices 1 2 3 4 5 6 
#
# 1 213.5785 54.3416 37.1978 0.0000 0.0000 0.0000
# 2 54.3416 132.3312 37.0667 0.0000 0.0000 0.0000
# 3 37.1978 37.0667 134.1624 0.0000 0.0000 0.0000
# 4 0.0000 0.0000 0.0000 44.9840 0.0000 0.0000
# 5 0.0000 0.0000 0.0000 0.0000 46.5262 0.0000
# 6 0.0000 0.0000 0.0000 0.0000 0.0000 52.5531
#
#
#
# Elastic Compliance Matrix: (Units=1/GPa)
#
#
# Indices 1 2 3 4 5 6 
#
# 1 0.005337 -0.001926 -0.000948 0.000000 0.000000 0.000000
# 2 -0.001926 0.008886 -0.001921 0.000000 0.000000 0.000000
# 3 -0.000948 -0.001921 0.008247 0.000000 0.000000 0.000000
# 4 0.000000 0.000000 0.000000 0.022230 0.000000 0.000000
# 5 0.000000 0.000000 0.000000 0.000000 0.021493 0.000000
# 6 0.000000 0.000000 0.000000 0.000000 0.000000 0.019028
#
#
# Mechanical properties :
#
#
# Convention : Reuss Voigt Hill
#
# Bulk Modulus (GPa) = 77.63623 81.92049 79.77836
# Shear Modulus (GPa) = 50.45141 52.24373 51.34757
#
# Velocity S-wave (km/s) = 4.60721 4.68833 4.64795
# Velocity P-wave (km/s) = 7.80805 7.98584 7.89745
#
# Compressibility (1/GPa) = 0.01288058
#
# Stress axis : x y z
#
# Youngs Moduli (GPa) = 187.36144 112.53792 121.25470
#
# Poissons Ratio (x) = 0.21678 0.11490
# Poissons Ratio (y) = 0.36092 0.23292
# Poissons Ratio (z) = 0.17754 0.21618
#
# Static dielectric constant tensor:
#      x y z
#    x 1.894870 0.000000 0.000000 
#    y 0.000000 1.874770 0.000000 
#    z 0.000000 0.000000 2.074550 
# 
# From -- ./inp_files/19575.got.cif
#   From: 2010.05.17/outbox.cif.g08.bks.cpg/sg64_10_cif.got.tgz:19575.got - 2010.06.03 16:29:19.
