data_PCOD9481136
_publ_section_title
;
Structure prediction by ZEFSAII (Michael W. Deem and Ramdas Pophale) SiO2 
 PCOD9481136
Probable space group: C M C A
;
_chemical_formula_sum "Si O2"
_cell_formula_units_Z 72
_cell_length_a 8.758040
_cell_length_b 21.740677
_cell_length_c 16.729238
_cell_angle_alpha 90.000000
_cell_angle_beta 90.000000
_cell_angle_gamma 90.000000
_cell_volume 3185.342586
_symmetry_space_group_name_H-M "C M C A"
_symmetry_group_IT_number 64
_symmetry_cell_setting 'orthorhombic'
loop_
_space_group_symop_operation_xyz
x,y,z
-x,1/2-y,1/2+z
x,-y,-z
-x,1/2+y,1/2-z
-x,-y,-z
x,1/2+y,1/2-z
-x,y,z
x,1/2-y,1/2+z
1/2+x,1/2+y,z
1/2-x,-y,1/2+z
1/2+x,1/2-y,-z
1/2-x,y,1/2-z
1/2-x,1/2-y,-z
1/2+x,y,1/2-z
1/2-x,1/2+y,z
1/2+x,-y,1/2+z
loop_
_atom_site_type_symbol
_atom_site_label
_atom_site_fract_x
_atom_site_fract_y
_atom_site_fract_z
Si Si1 0.000000 0.284886 0.609888
Si Si2 0.826406 0.126566 0.554974
Si Si3 0.500000 0.201203 0.566893
Si Si4 0.181159 0.987145 0.331308
Si Si5 0.000000 0.794668 0.713770
Si Si6 0.228255 0.378478 0.871679
O O1 0.000000 0.261526 0.517802
O O2 0.861027 0.331290 0.612410
O O3 0.000000 0.259536 0.701195
O O4 0.667406 0.165792 0.569573
O O5 0.798548 0.061602 0.598313
O O6 0.842118 0.117037 0.460341
O O7 0.000000 0.146702 0.584707
O O8 0.500000 0.245820 0.642325
O O9 0.250000 0.960062 0.250000
O O10 0.000000 0.000040 0.323349
O O11 0.262907 0.052184 0.346486
O O12 0.866843 0.842975 0.695177
#
# Coordination Sequence:
#
# PCOD9481136 Si02
#       6
#     8  16   8  16   8  16
#     4  10  24  41  66 102 130 172 232 275 338 398
#     4  10  22  45  68  97 133 180 224 271 334 404
#     4  10  26  45  70  98 133 186 227 272 336 402
#     4  11  23  38  66  98 135 175 216 276 338 399
#     4  12  22  44  69  96 139 170 221 287 331 396
#     4  11  22  41  68  99 131 171 223 280 340 392
#
# _framework density 22.603534
#
# number of rings (size 3 to 8) (size 9 to 14) (size 15 to 20)
#    0.000    1.333    2.222    2.667    3.111    5.333 
#    2.000    7.778    0.000    0.000    0.000    0.000 
#    0.000    0.000    0.000    0.000    0.000    0.000 
#
# Total GULP energy -200455.112724 kJ/mol
# GULP energy per Si atom -5568.197576 kJ/mol
# Density = 2.255209 g / cm^3
# Si number density = 22.603534 Si / 1000 Ang^3
#
#
#
# Elastic Constant Matrix: (Units=GPa)
#
#
# Indices 1 2 3 4 5 6 
#
# 1 69.8840 6.2139 19.3602 0.0000 0.0000 0.0000
# 2 6.2139 61.9567 37.3687 0.0000 0.0000 0.0000
# 3 19.3602 37.3687 174.7676 0.0000 0.0000 0.0000
# 4 0.0000 0.0000 0.0000 33.3608 0.0000 0.0000
# 5 0.0000 0.0000 0.0000 0.0000 28.4033 0.0000
# 6 0.0000 0.0000 0.0000 0.0000 0.0000 49.3103
#
#
#
# Elastic Compliance Matrix: (Units=1/GPa)
#
#
# Indices 1 2 3 4 5 6 
#
# 1 0.014780 -0.000568 -0.001516 0.000000 0.000000 0.000000
# 2 -0.000568 0.018552 -0.003904 0.000000 0.000000 0.000000
# 3 -0.001516 -0.003904 0.006725 0.000000 0.000000 0.000000
# 4 0.000000 0.000000 0.000000 0.029975 0.000000 0.000000
# 5 0.000000 0.000000 0.000000 0.000000 0.035207 0.000000
# 6 0.000000 0.000000 0.000000 0.000000 0.000000 0.020280
#
#
# Mechanical properties :
#
#
# Convention : Reuss Voigt Hill
#
# Bulk Modulus (GPa) = 35.61150 48.05488 41.83319
# Shear Modulus (GPa) = 34.04741 38.45926 36.25333
#
# Velocity S-wave (km/s) = 3.88530 4.12936 4.00919
# Velocity P-wave (km/s) = 5.99303 6.63638 6.32290
#
# Compressibility (1/GPa) = 0.02808082
#
# Stress axis : x y z
#
# Youngs Moduli (GPa) = 67.65958 53.90300 148.70968
#
# Poissons Ratio (x) = 0.03062 0.22541
# Poissons Ratio (y) = 0.03844 0.58054
# Poissons Ratio (z) = 0.10256 0.21043
#
# Static dielectric constant tensor:
#      x y z
#    x 1.883550 0.000000 0.000000 
#    y 0.000000 1.846780 0.000000 
#    z 0.000000 0.000000 1.880610 
# 
# From -- ./inp_files/29550.got.cif
#   From: 2010.05.17/outbox.cif.g08.bks.cpg/sg64_15_cif.got.tgz:29550.got - 2010.06.03 16:29:19.
