data_PCOD9481692
_publ_section_title
;
Structure prediction by ZEFSAII (Michael W. Deem and Ramdas Pophale) SiO2 
 PCOD9481692
Probable space group: C M C A
;
_chemical_formula_sum "Si O2"
_cell_formula_units_Z 80
_cell_length_a 25.958280
_cell_length_b 9.096267
_cell_length_c 17.156844
_cell_angle_alpha 90.000000
_cell_angle_beta 90.000000
_cell_angle_gamma 90.000000
_cell_volume 4051.133123
_symmetry_space_group_name_H-M "C M C A"
_symmetry_group_IT_number 64
_symmetry_cell_setting 'orthorhombic'
loop_
_space_group_symop_operation_xyz
x,y,z
-x,1/2-y,1/2+z
x,-y,-z
-x,1/2+y,1/2-z
-x,-y,-z
x,1/2+y,1/2-z
-x,y,z
x,1/2-y,1/2+z
1/2+x,1/2+y,z
1/2-x,-y,1/2+z
1/2+x,1/2-y,-z
1/2-x,y,1/2-z
1/2-x,1/2-y,-z
1/2+x,y,1/2-z
1/2-x,1/2+y,z
1/2+x,-y,1/2+z
loop_
_atom_site_type_symbol
_atom_site_label
_atom_site_fract_x
_atom_site_fract_y
_atom_site_fract_z
Si Si1 0.280995 0.326214 0.929713
Si Si2 0.111887 0.749770 0.482864
Si Si3 0.500000 0.744471 0.523609
Si Si4 0.887939 0.456296 0.872703
Si Si5 0.280647 0.953522 0.170891
Si Si6 0.000000 0.466702 0.870156
O O1 0.339580 0.345982 0.957869
O O2 0.249717 0.464388 0.898586
O O3 0.284179 0.213659 0.857365
O O4 0.250000 0.250000 0.000000
O O5 0.055350 0.678646 0.476261
O O6 0.118995 0.818538 0.568991
O O7 0.111073 0.896682 0.427506
O O8 0.500000 0.640309 0.446231
O O9 0.500000 0.631620 0.596011
O O10 0.837348 0.476231 0.821520
O O11 0.943966 0.443523 0.832222
O O12 0.250000 0.966429 0.250000
#
# Coordination Sequence:
#
# PCOD9481692 Si02
#       6
#    16  16   8  16  16   8
#     4  11  20  34  53  74  99 134 171 206 244 300
#     4   8  13  23  43  70  94 121 158 207 244 282
#     4   7  10  18  36  67  97 112 147 207 257 271
#     4   8  13  24  42  68  97 121 158 204 247 283
#     4  11  22  34  49  74 106 135 164 205 254 300
#     4   7  10  18  38  65  92 119 149 204 251 275
#
# _framework density 19.747561000000001
#
# number of rings (size 3 to 8) (size 9 to 14) (size 15 to 20)
#    0.000    3.000    2.000    3.600    0.000    0.000 
#    0.000    0.000    0.000    1.200    0.000    9.800 
#    0.000    0.000    0.000    0.000    0.000    0.000 
#
# Total GULP energy -222843.431811 kJ/mol
# GULP energy per Si atom -5571.085795 kJ/mol
# Density = 1.970261 g / cm^3
# Si number density = 19.747561 Si / 1000 Ang^3
#
#
#
# Elastic Constant Matrix: (Units=GPa)
#
#
# Indices 1 2 3 4 5 6 
#
# 1 210.2757 16.3447 37.2163 0.0000 0.0000 0.0000
# 2 16.3447 41.0617 2.5362 0.0000 0.0000 0.0000
# 3 37.2163 2.5362 52.7538 0.0000 0.0000 0.0000
# 4 0.0000 0.0000 0.0000 13.0009 0.0000 0.0000
# 5 0.0000 0.0000 0.0000 0.0000 28.3565 0.0000
# 6 0.0000 0.0000 0.0000 0.0000 0.0000 10.5339
#
#
#
# Elastic Compliance Matrix: (Units=1/GPa)
#
#
# Indices 1 2 3 4 5 6 
#
# 1 0.005591 -0.001988 -0.003849 0.000000 0.000000 0.000000
# 2 -0.001988 0.025133 0.000194 0.000000 0.000000 0.000000
# 3 -0.003849 0.000194 0.021662 0.000000 0.000000 0.000000
# 4 0.000000 0.000000 0.000000 0.076918 0.000000 0.000000
# 5 0.000000 0.000000 0.000000 0.000000 0.035265 0.000000
# 6 0.000000 0.000000 0.000000 0.000000 0.000000 0.094931
#
#
# Mechanical properties :
#
#
# Convention : Reuss Voigt Hill
#
# Bulk Modulus (GPa) = 24.33048 46.25395 35.29222
# Shear Modulus (GPa) = 17.57554 26.91121 22.24338
#
# Velocity S-wave (km/s) = 2.98654 3.69556 3.35981
# Velocity P-wave (km/s) = 4.92342 6.45624 5.74122
#
# Compressibility (1/GPa) = 0.04110070
#
# Stress axis : x y z
#
# Youngs Moduli (GPa) = 178.84579 39.78846 46.16376
#
# Poissons Ratio (x) = 0.07910 0.17768
# Poissons Ratio (y) = 0.35553 -0.00896
# Poissons Ratio (z) = 0.68838 -0.00772
#
# Static dielectric constant tensor:
#      x y z
#    x 1.762970 0.000000 0.000000 
#    y 0.000000 1.700480 0.000000 
#    z 0.000000 0.000000 1.675370 
# 
# From -- ./inp_files/27927.got.cif
#   From: 2010.05.17/outbox.cif.g08.bks.cpg/sg64_14_cif.got.tgz:27927.got - 2010.06.03 16:29:19.
