data_PCOD9481240
_publ_section_title
;
Structure prediction by ZEFSAII (Michael W. Deem and Ramdas Pophale) SiO2 
 PCOD9481240
Probable space group: C M C A
;
_chemical_formula_sum "Si O2"
_cell_formula_units_Z 96
_cell_length_a 18.921716
_cell_length_b 14.651974
_cell_length_c 14.536151
_cell_angle_alpha 90.000000
_cell_angle_beta 90.000000
_cell_angle_gamma 90.000000
_cell_volume 4030.009639
_symmetry_space_group_name_H-M "C M C A"
_symmetry_group_IT_number 64
_symmetry_cell_setting 'orthorhombic'
loop_
_space_group_symop_operation_xyz
x,y,z
-x,1/2-y,1/2+z
x,-y,-z
-x,1/2+y,1/2-z
-x,-y,-z
x,1/2+y,1/2-z
-x,y,z
x,1/2-y,1/2+z
1/2+x,1/2+y,z
1/2-x,-y,1/2+z
1/2+x,1/2-y,-z
1/2-x,y,1/2-z
1/2-x,1/2-y,-z
1/2+x,y,1/2-z
1/2-x,1/2+y,z
1/2+x,-y,1/2+z
loop_
_atom_site_type_symbol
_atom_site_label
_atom_site_fract_x
_atom_site_fract_y
_atom_site_fract_z
Si Si1 0.737674 0.553628 0.143399
Si Si2 0.853136 0.776759 0.812176
Si Si3 0.155955 0.739438 0.092328
Si Si4 0.000000 0.426856 0.382919
Si Si5 0.500000 0.127903 0.298532
Si Si6 0.881060 0.000000 0.000000
Si Si7 0.500000 0.767479 0.883769
Si Si8 0.712927 0.628314 0.563884
O O1 0.750000 0.524080 0.250000
O O2 0.712325 0.658409 0.162231
O O3 0.786856 0.475389 0.095313
O O4 0.667984 0.529953 0.083102
O O5 0.850499 0.763141 0.702422
O O6 0.928241 0.824065 0.833402
O O7 0.837517 0.685879 0.869089
O O8 0.208548 0.823765 0.069166
O O9 0.073713 0.734544 0.062038
O O10 0.189100 0.650576 0.040760
O O11 0.000000 0.520857 0.325227
O O12 0.066328 0.429399 0.451514
O O13 0.000000 0.331080 0.330205
O O14 0.500000 0.149520 0.188847
#
# Coordination Sequence:
#
# PCOD9481240 Si02
#       8
#    16  16  16   8   8   8   8  16
#     4  12  26  42  69 103 145 192 241 308 373 448
#     4  11  24  46  69 106 145 193 242 306 376 440
#     4  10  23  42  68 101 147 188 240 300 369 447
#     4  11  22  42  74 113 148 187 257 320 372 452
#     4  10  23  45  72 106 152 192 243 314 372 445
#     4  11  26  40  72 110 142 183 258 318 374 427
#     4  10  23  41  72 107 150 201 240 297 390 447
#     4  11  25  42  68 104 144 190 246 305 376 441
#
# _framework density 23.821283999999999
#
# number of rings (size 3 to 8) (size 9 to 14) (size 15 to 20)
#    0.000    1.167    1.667    3.500    9.333    2.000 
#    0.000    0.000    0.000    3.000    0.000    8.167 
#    0.000    0.000    0.000    0.000    0.000    0.000 
#
# Total GULP energy -267428.409097 kJ/mol
# GULP energy per Si atom -5571.425190 kJ/mol
# Density = 2.376707 g / cm^3
# Si number density = 23.821284 Si / 1000 Ang^3
#
#
#
# Elastic Constant Matrix: (Units=GPa)
#
#
# Indices 1 2 3 4 5 6 
#
# 1 96.8473 19.7528 -17.1801 0.0000 0.0000 0.0000
# 2 19.7528 142.2435 18.9751 0.0000 0.0000 0.0000
# 3 -17.1801 18.9751 87.1437 0.0000 0.0000 0.0000
# 4 0.0000 0.0000 0.0000 -62.7415 0.0000 0.0000
# 5 0.0000 0.0000 0.0000 0.0000 38.9806 0.0000
# 6 0.0000 0.0000 0.0000 0.0000 0.0000 18.4078
#
#
#
# Elastic Compliance Matrix: (Units=1/GPa)
#
#
# Indices 1 2 3 4 5 6 
#
# 1 0.011178 -0.001901 0.002618 0.000000 0.000000 0.000000
# 2 -0.001901 0.007564 -0.002022 0.000000 0.000000 0.000000
# 3 0.002618 -0.002022 0.012432 0.000000 0.000000 0.000000
# 4 0.000000 0.000000 0.000000 -0.015938 0.000000 0.000000
# 5 0.000000 0.000000 0.000000 0.000000 0.025654 0.000000
# 6 0.000000 0.000000 0.000000 0.000000 0.000000 0.054325
#
#
# Mechanical properties :
#
#
# Convention : Reuss Voigt Hill
#
# Bulk Modulus (GPa) = 35.01146 41.03669 38.02408
# Shear Modulus (GPa) = 46.57859 19.24181 32.91020
#
# Velocity S-wave (km/s) = 4.42671 2.84519 3.72095
# Velocity P-wave (km/s) = 6.39196 5.29696 5.87005
#
# Compressibility (1/GPa) = 0.02856207
#
# Stress axis : x y z
#
# Youngs Moduli (GPa) = 89.46384 132.20602 80.44005
#
# Poissons Ratio (x) = 0.25138 -0.21057
# Poissons Ratio (y) = 0.17011 0.16264
# Poissons Ratio (z) = -0.23419 0.26730
#
# Static dielectric constant tensor:
#      x y z
#    x 1.951320 0.000000 0.000000 
#    y 0.000000 2.114150 0.000000 
#    z 0.000000 0.000000 -11.835470 
# 
# From -- ./inp_files/26412.got.cif
#   From: 2010.05.17/outbox.cif.g08.bks.cpg/sg64_14_cif.got.tgz:26412.got - 2010.06.03 16:29:19.
