data_PCOD9481802
_publ_section_title
;
Structure prediction by ZEFSAII (Michael W. Deem and Ramdas Pophale) SiO2 
 PCOD9481802
Probable space group: C M C A
;
_chemical_formula_sum "Si O2"
_cell_formula_units_Z 96
_cell_length_a 14.572822
_cell_length_b 22.627947
_cell_length_c 13.908835
_cell_angle_alpha 90.000000
_cell_angle_beta 90.000000
_cell_angle_gamma 90.000000
_cell_volume 4586.480678
_symmetry_space_group_name_H-M "C M C A"
_symmetry_group_IT_number 64
_symmetry_cell_setting 'orthorhombic'
loop_
_space_group_symop_operation_xyz
x,y,z
-x,1/2-y,1/2+z
x,-y,-z
-x,1/2+y,1/2-z
-x,-y,-z
x,1/2+y,1/2-z
-x,y,z
x,1/2-y,1/2+z
1/2+x,1/2+y,z
1/2-x,-y,1/2+z
1/2+x,1/2-y,-z
1/2-x,y,1/2-z
1/2-x,1/2-y,-z
1/2+x,y,1/2-z
1/2-x,1/2+y,z
1/2+x,-y,1/2+z
loop_
_atom_site_type_symbol
_atom_site_label
_atom_site_fract_x
_atom_site_fract_y
_atom_site_fract_z
Si Si1 0.272167 0.279334 0.898797
Si Si2 0.894010 0.024020 0.876724
Si Si3 0.299365 0.588415 0.056293
Si Si4 0.643566 0.388323 0.278319
Si Si5 0.600952 0.428504 0.495298
Si Si6 0.396247 0.740220 0.766798
O O1 0.314298 0.344088 0.916958
O O2 0.350497 0.246735 0.838145
O O3 0.177626 0.271656 0.837156
O O4 0.250000 0.250000 0.000000
O O5 0.890576 0.053142 0.773613
O O6 0.000000 0.019987 0.905499
O O7 0.845776 0.960441 0.876492
O O8 0.838334 0.065855 0.952476
O O9 0.189470 0.585511 0.057956
O O10 0.750000 0.383043 0.250000
O O11 0.622552 0.399169 0.390647
O O12 0.601083 0.330985 0.226376
O O13 0.598321 0.500000 0.500000
O O14 0.500000 0.407275 0.525593
O O15 0.500000 0.763012 0.775522
#
# Coordination Sequence:
#
# PCOD9481802 Si02
#       6
#    16  16  16  16  16  16
#     4  11  24  43  69  94 132 180 227 279 340 398
#     4  11  23  40  66  99 127 168 218 265 336 404
#     4  11  21  41  62  90 133 166 206 275 321 390
#     4  12  20  41  69  91 126 168 214 271 328 390
#     4  11  22  38  60  95 128 161 208 259 324 396
#     4  11  25  45  67  99 133 173 233 285 330 404
#
# _framework density 20.931082
#
# number of rings (size 3 to 8) (size 9 to 14) (size 15 to 20)
#    0.000    0.833    5.000    4.500    0.000    2.667 
#    9.000    0.000    0.000    0.000    0.000    0.000 
#    0.000    0.000    0.000    0.000    0.000    0.000 
#
# Total GULP energy -267717.546971 kJ/mol
# GULP energy per Si atom -5577.448895 kJ/mol
# Density = 2.088344 g / cm^3
# Si number density = 20.931082 Si / 1000 Ang^3
#
#
#
# Elastic Constant Matrix: (Units=GPa)
#
#
# Indices 1 2 3 4 5 6 
#
# 1 161.7491 11.2222 17.3668 0.0000 0.0000 0.0000
# 2 11.2222 98.4545 30.0633 0.0000 0.0000 0.0000
# 3 17.3668 30.0633 38.9829 0.0000 0.0000 0.0000
# 4 0.0000 0.0000 0.0000 21.8203 0.0000 0.0000
# 5 0.0000 0.0000 0.0000 0.0000 -3.7347 0.0000
# 6 0.0000 0.0000 0.0000 0.0000 0.0000 12.5971
#
#
#
# Elastic Compliance Matrix: (Units=1/GPa)
#
#
# Indices 1 2 3 4 5 6 
#
# 1 0.006496 0.000187 -0.003038 0.000000 0.000000 0.000000
# 2 0.000187 0.013291 -0.010333 0.000000 0.000000 0.000000
# 3 -0.003038 -0.010333 0.034975 0.000000 0.000000 0.000000
# 4 0.000000 0.000000 0.000000 0.045829 0.000000 0.000000
# 5 0.000000 0.000000 0.000000 0.000000 -0.267760 0.000000
# 6 0.000000 0.000000 0.000000 0.000000 0.000000 0.079383
#
#
# Mechanical properties :
#
#
# Convention : Reuss Voigt Hill
#
# Bulk Modulus (GPa) = 35.22010 46.27678 40.74844
# Shear Modulus (GPa) = -96.23926 22.17216 -37.03355
#
# Velocity S-wave (km/s) = -6.78815 3.25821 -4.21088
# Velocity P-wave (km/s) = 6.67648 6.02592 2.03269
#
# Compressibility (1/GPa) = 0.02839288
#
# Stress axis : x y z
#
# Youngs Moduli (GPa) = 153.94960 75.23934 28.59201
#
# Poissons Ratio (x) = -0.01410 0.08687
# Poissons Ratio (y) = -0.02884 0.29545
# Poissons Ratio (z) = 0.46774 0.77747
#
# Static dielectric constant tensor:
#      x y z
#    x 1.983510 0.000000 0.000000 
#    y 0.000000 1.764550 0.000000 
#    z 0.000000 0.000000 1.767720 
# 
# From -- ./inp_files/23904.got.cif
#   From: 2010.05.17/outbox.cif.g08.bks.cpg/sg64_12_cif.got.tgz:23904.got - 2010.06.03 16:29:19.
