data_PCOD9481719
_publ_section_title
;
Structure prediction by ZEFSAII (Michael W. Deem and Ramdas Pophale) SiO2 
 PCOD9481719
Probable space group: C M C A
;
_chemical_formula_sum "Si O2"
_cell_formula_units_Z 80
_cell_length_a 15.070021
_cell_length_b 15.722099
_cell_length_c 17.728117
_cell_angle_alpha 90.000000
_cell_angle_beta 90.000000
_cell_angle_gamma 90.000000
_cell_volume 4200.364636
_symmetry_space_group_name_H-M "C M C A"
_symmetry_group_IT_number 64
_symmetry_cell_setting 'orthorhombic'
loop_
_space_group_symop_operation_xyz
x,y,z
-x,1/2-y,1/2+z
x,-y,-z
-x,1/2+y,1/2-z
-x,-y,-z
x,1/2+y,1/2-z
-x,y,z
x,1/2-y,1/2+z
1/2+x,1/2+y,z
1/2-x,-y,1/2+z
1/2+x,1/2-y,-z
1/2-x,y,1/2-z
1/2-x,1/2-y,-z
1/2+x,y,1/2-z
1/2-x,1/2+y,z
1/2+x,-y,1/2+z
loop_
_atom_site_type_symbol
_atom_site_label
_atom_site_fract_x
_atom_site_fract_y
_atom_site_fract_z
Si Si1 0.103890 0.946565 0.424453
Si Si2 0.403956 0.686711 0.819686
Si Si3 0.154111 0.668778 0.290672
Si Si4 0.772723 0.281226 0.082721
Si Si5 0.856084 0.488616 0.242001
O O1 0.166294 0.864593 0.419812
O O2 0.000000 0.922859 0.427600
O O3 0.124133 0.000000 0.500000
O O4 0.119998 0.997142 0.346312
O O5 0.500000 0.691739 0.858604
O O6 0.397988 0.761695 0.757973
O O7 0.318547 0.697697 0.872954
O O8 0.396504 0.597117 0.776170
O O9 0.250000 0.662109 0.250000
O O10 0.174670 0.708212 0.371746
O O11 0.116075 0.574092 0.285692
O O12 0.750000 0.250000 0.000000
O O13 0.750000 0.477955 0.250000
#
# Coordination Sequence:
#
# PCOD9481719 Si02
#       5
#    16  16  16  16  16
#     4  11  25  42  65  96 127 165 215 270 324 379
#     4  11  22  40  64  93 128 164 211 263 312 376
#     4   9  21  38  62  92 121 167 212 252 311 372
#     4  11  24  42  63  93 133 170 208 264 322 379
#     4  11  20  40  67  93 128 167 212 264 320 376
#
# _framework density 19.045964999999999
#
# number of rings (size 3 to 8) (size 9 to 14) (size 15 to 20)
#    0.000    1.400    4.000    1.200    8.400    2.400 
#    0.000    0.000    0.000    4.200    0.000    0.000 
#    0.000    0.000    0.000    0.000    0.000    0.000 
#
# Total GULP energy -223398.759624 kJ/mol
# GULP energy per Si atom -5584.968991 kJ/mol
# Density = 1.900262 g / cm^3
# Si number density = 19.045965 Si / 1000 Ang^3
#
#
#
# Elastic Constant Matrix: (Units=GPa)
#
#
# Indices 1 2 3 4 5 6 
#
# 1 98.6549 32.2727 26.6400 0.0000 0.0000 0.0000
# 2 32.2727 119.0541 29.1391 0.0000 0.0000 0.0000
# 3 26.6400 29.1391 117.2267 0.0000 0.0000 0.0000
# 4 0.0000 0.0000 0.0000 29.3325 0.0000 0.0000
# 5 0.0000 0.0000 0.0000 0.0000 20.2410 0.0000
# 6 0.0000 0.0000 0.0000 0.0000 0.0000 -10.8397
#
#
#
# Elastic Compliance Matrix: (Units=1/GPa)
#
#
# Indices 1 2 3 4 5 6 
#
# 1 0.011532 -0.002646 -0.001963 0.000000 0.000000 0.000000
# 2 -0.002646 0.009551 -0.001773 0.000000 0.000000 0.000000
# 3 -0.001963 -0.001773 0.009417 0.000000 0.000000 0.000000
# 4 0.000000 0.000000 0.000000 0.034092 0.000000 0.000000
# 5 0.000000 0.000000 0.000000 0.000000 0.049405 0.000000
# 6 0.000000 0.000000 0.000000 0.000000 0.000000 -0.092254
#
#
# Mechanical properties :
#
#
# Convention : Reuss Voigt Hill
#
# Bulk Modulus (GPa) = 56.37947 56.78214 56.58081
# Shear Modulus (GPa) = 123.70809 24.20569 73.95689
#
# Velocity S-wave (km/s) = 8.06805 3.56885 6.23819
# Velocity P-wave (km/s) = 10.79154 6.84545 9.03652
#
# Compressibility (1/GPa) = 0.01773695
#
# Stress axis : x y z
#
# Youngs Moduli (GPa) = 86.71633 104.70559 106.18814
#
# Poissons Ratio (x) = 0.27700 0.20845
# Poissons Ratio (y) = 0.22941 0.18825
# Poissons Ratio (z) = 0.17023 0.18562
#
# Static dielectric constant tensor:
#      x y z
#    x 1.737710 0.000000 0.000000 
#    y 0.000000 1.671400 0.000000 
#    z 0.000000 0.000000 1.638010 
# 
# From -- ./inp_files/32996.got.cif
#   From: 2010.05.17/outbox.cif.g08.bks.cpg/sg64_17_cif.got.tgz:32996.got - 2010.06.03 16:29:19.
