data_PCOD9481594
_publ_section_title
;
Structure prediction by ZEFSAII (Michael W. Deem and Ramdas Pophale) SiO2 
 PCOD9481594
Probable space group: C M C A
;
_chemical_formula_sum "Si O2"
_cell_formula_units_Z 112
_cell_length_a 15.289910
_cell_length_b 26.670816
_cell_length_c 11.366803
_cell_angle_alpha 90.000000
_cell_angle_beta 90.000000
_cell_angle_gamma 90.000000
_cell_volume 4635.318340
_symmetry_space_group_name_H-M "C M C A"
_symmetry_group_IT_number 64
_symmetry_cell_setting 'orthorhombic'
loop_
_space_group_symop_operation_xyz
x,y,z
-x,1/2-y,1/2+z
x,-y,-z
-x,1/2+y,1/2-z
-x,-y,-z
x,1/2+y,1/2-z
-x,y,z
x,1/2-y,1/2+z
1/2+x,1/2+y,z
1/2-x,-y,1/2+z
1/2+x,1/2-y,-z
1/2-x,y,1/2-z
1/2-x,1/2-y,-z
1/2+x,y,1/2-z
1/2-x,1/2+y,z
1/2+x,-y,1/2+z
loop_
_atom_site_type_symbol
_atom_site_label
_atom_site_fract_x
_atom_site_fract_y
_atom_site_fract_z
Si Si1 0.295558 0.384055 0.066401
Si Si2 0.654472 0.609707 0.293967
Si Si3 0.098950 0.906325 0.453146
Si Si4 0.148552 0.959980 0.237957
Si Si5 0.655664 0.724826 0.009885
Si Si6 0.400227 0.281566 0.721683
Si Si7 0.093556 0.053262 0.088455
O O1 0.191002 0.377241 0.076673
O O2 0.344734 0.403631 0.182709
O O3 0.335293 0.334809 0.008772
O O4 0.321274 0.432026 0.986362
O O5 0.750000 0.593688 0.250000
O O6 0.617380 0.583864 0.410112
O O7 0.656156 0.669409 0.310469
O O8 0.592858 0.595189 0.188054
O O9 0.104766 0.952940 0.364285
O O10 0.000000 0.884193 0.442000
O O11 0.250000 0.974938 0.250000
O O12 0.104206 0.000788 0.155226
O O13 0.622515 0.735647 0.143950
O O14 0.750000 0.750000 0.000000
O O15 0.608307 0.744631 0.890656
O O16 0.500000 0.298250 0.725431
O O17 0.000000 0.056094 0.024996
#
# Coordination Sequence:
#
# PCOD9481594 Si02
#       7
#    16  16  16  16  16  16  16
#     4  11  25  47  73 103 149 194 245 301 369 447
#     4  12  23  44  72 102 143 193 241 305 371 439
#     4  11  23  43  71 105 145 186 241 305 366 428
#     4  10  25  44  68 106 150 195 240 298 366 438
#     4  12  26  47  75 105 144 197 245 307 383 454
#     4  12  26  46  72 109 146 187 252 313 376 454
#     4  12  24  43  73 103 140 191 246 296 355 435
#
# _framework density 24.162310000000002
#
# number of rings (size 3 to 8) (size 9 to 14) (size 15 to 20)
#    0.000    0.571    2.857    5.143    0.000    7.429 
#    0.000    5.000    0.000    0.000    0.000    0.000 
#    0.000    0.000    0.000    0.000    0.000    0.000 
#
# Total GULP energy -312425.948863 kJ/mol
# GULP energy per Si atom -5579.034801 kJ/mol
# Density = 2.410732 g / cm^3
# Si number density = 24.162310 Si / 1000 Ang^3
#
#
#
# Elastic Constant Matrix: (Units=GPa)
#
#
# Indices 1 2 3 4 5 6 
#
# 1 128.1209 13.6280 38.7158 0.0000 0.0000 0.0000
# 2 13.6280 88.4325 47.1372 0.0000 0.0000 0.0000
# 3 38.7158 47.1372 167.9520 0.0000 0.0000 0.0000
# 4 0.0000 0.0000 0.0000 30.7367 0.0000 0.0000
# 5 0.0000 0.0000 0.0000 0.0000 26.2544 0.0000
# 6 0.0000 0.0000 0.0000 0.0000 0.0000 9.0812
#
#
#
# Elastic Compliance Matrix: (Units=1/GPa)
#
#
# Indices 1 2 3 4 5 6 
#
# 1 0.008397 -0.000308 -0.001849 0.000000 0.000000 0.000000
# 2 -0.000308 0.013309 -0.003664 0.000000 0.000000 0.000000
# 3 -0.001849 -0.003664 0.007409 0.000000 0.000000 0.000000
# 4 0.000000 0.000000 0.000000 0.032534 0.000000 0.000000
# 5 0.000000 0.000000 0.000000 0.000000 0.038089 0.000000
# 6 0.000000 0.000000 0.000000 0.000000 0.000000 0.110117
#
#
# Mechanical properties :
#
#
# Convention : Reuss Voigt Hill
#
# Bulk Modulus (GPa) = 57.23783 64.82975 61.03379
# Shear Modulus (GPa) = 21.99531 32.21609 27.10570
#
# Velocity S-wave (km/s) = 3.02042 3.65543 3.35299
# Velocity P-wave (km/s) = 5.99201 6.68621 6.34861
#
# Compressibility (1/GPa) = 0.01747096
#
# Stress axis : x y z
#
# Youngs Moduli (GPa) = 119.09481 75.13902 134.97689
#
# Poissons Ratio (x) = 0.02317 0.24958
# Poissons Ratio (y) = 0.03673 0.49457
# Poissons Ratio (z) = 0.22021 0.27532
#
# Static dielectric constant tensor:
#      x y z
#    x 1.790630 0.000000 0.000000 
#    y 0.000000 1.932890 0.000000 
#    z 0.000000 0.000000 2.047900 
# 
# From -- ./inp_files/14961.got.cif
#   From: 2010.05.17/outbox.cif.g08.bks.cpg/sg64_8_cif.got.tgz:14961.got - 2010.06.03 16:29:19.
