data_PCOD9481001
_publ_section_title
;
Structure prediction by ZEFSAII (Michael W. Deem and Ramdas Pophale) SiO2 
 PCOD9481001
Probable space group: C M C A
;
_chemical_formula_sum "Si O2"
_cell_formula_units_Z 88
_cell_length_a 14.072089
_cell_length_b 11.931677
_cell_length_c 24.196518
_cell_angle_alpha 90.000000
_cell_angle_beta 90.000000
_cell_angle_gamma 90.000000
_cell_volume 4062.682980
_symmetry_space_group_name_H-M "C M C A"
_symmetry_group_IT_number 64
_symmetry_cell_setting 'orthorhombic'
loop_
_space_group_symop_operation_xyz
x,y,z
-x,1/2-y,1/2+z
x,-y,-z
-x,1/2+y,1/2-z
-x,-y,-z
x,1/2+y,1/2-z
-x,y,z
x,1/2-y,1/2+z
1/2+x,1/2+y,z
1/2-x,-y,1/2+z
1/2+x,1/2-y,-z
1/2-x,y,1/2-z
1/2-x,1/2-y,-z
1/2+x,y,1/2-z
1/2-x,1/2+y,z
1/2+x,-y,1/2+z
loop_
_atom_site_type_symbol
_atom_site_label
_atom_site_fract_x
_atom_site_fract_y
_atom_site_fract_z
Si Si1 0.888675 0.015636 0.564837
Si Si2 0.889557 0.910022 0.833995
Si Si3 0.750000 0.479424 0.250000
Si Si4 0.111776 0.042832 0.942854
Si Si5 0.108169 0.768104 0.613977
Si Si6 0.198675 0.323322 0.152307
O O1 0.825682 0.106232 0.597149
O O2 0.000000 0.048800 0.569947
O O3 0.869033 0.000000 0.500000
O O4 0.878715 0.894022 0.593404
O O5 0.873583 0.779450 0.844521
O O6 0.000000 0.936285 0.824754
O O7 0.825850 0.947287 0.782918
O O8 0.854305 0.979405 0.887824
O O9 0.804174 0.403563 0.205040
O O10 0.115718 0.176375 0.935232
O O11 0.000000 0.012598 0.943992
O O12 0.154582 0.000000 0.000000
O O13 0.195429 0.730741 0.652016
O O14 0.000000 0.756005 0.636555
#
# Coordination Sequence:
#
# PCOD9481001 Si02
#       6
#    16  16   8  16  16  16
#     4  10  24  44  67 101 143 181 221 279 353 423
#     4  11  25  46  71 100 134 175 225 282 339 402
#     4  12  26  48  66  96 132 172 232 284 336 398
#     4   9  19  38  68 101 134 176 223 271 333 409
#     4  10  22  42  66  97 139 184 221 271 342 409
#     4  12  25  44  70 100 134 175 233 284 337 408
#
# _framework density 21.660561999999999
#
# number of rings (size 3 to 8) (size 9 to 14) (size 15 to 20)
#    0.000    1.455    1.818    2.182    2.545    2.909 
#    0.000    4.545    0.000    0.000    0.000    0.000 
#    0.000    0.000    0.000    0.000    0.000    0.000 
#
# Total GULP energy -245979.259529 kJ/mol
# GULP energy per Si atom -5590.437717 kJ/mol
# Density = 2.161126 g / cm^3
# Si number density = 21.660562 Si / 1000 Ang^3
#
#
#
# Elastic Constant Matrix: (Units=GPa)
#
#
# Indices 1 2 3 4 5 6 
#
# 1 127.4340 42.6367 46.4683 0.0000 0.0000 0.0000
# 2 42.6367 99.1912 42.2915 0.0000 0.0000 0.0000
# 3 46.4683 42.2915 106.9948 0.0000 0.0000 0.0000
# 4 0.0000 0.0000 0.0000 21.5578 0.0000 0.0000
# 5 0.0000 0.0000 0.0000 0.0000 24.0901 0.0000
# 6 0.0000 0.0000 0.0000 0.0000 0.0000 151.5443
#
#
#
# Elastic Compliance Matrix: (Units=1/GPa)
#
#
# Indices 1 2 3 4 5 6 
#
# 1 0.009989 -0.002939 -0.003176 0.000000 0.000000 0.000000
# 2 -0.002939 0.012990 -0.003858 0.000000 0.000000 0.000000
# 3 -0.003176 -0.003858 0.012251 0.000000 0.000000 0.000000
# 4 0.000000 0.000000 0.000000 0.046387 0.000000 0.000000
# 5 0.000000 0.000000 0.000000 0.000000 0.041511 0.000000
# 6 0.000000 0.000000 0.000000 0.000000 0.000000 0.006599
#
#
# Mechanical properties :
#
#
# Convention : Reuss Voigt Hill
#
# Bulk Modulus (GPa) = 65.43581 66.26811 65.85196
# Shear Modulus (GPa) = 32.30657 52.92000 42.61328
#
# Velocity S-wave (km/s) = 3.86617 4.94819 4.44026
# Velocity P-wave (km/s) = 7.08555 7.95653 7.53364
#
# Compressibility (1/GPa) = 0.01528215
#
# Stress axis : x y z
#
# Youngs Moduli (GPa) = 100.11107 76.98303 81.62825
#
# Poissons Ratio (x) = 0.22628 0.25928
# Poissons Ratio (y) = 0.29426 0.31491
# Poissons Ratio (z) = 0.31799 0.29699
#
# Static dielectric constant tensor:
#      x y z
#    x 1.831200 0.000000 0.000000 
#    y 0.000000 1.762860 0.000000 
#    z 0.000000 0.000000 1.753940 
# 
# From -- ./inp_files/45053.got.cif
#   From: 2010.05.17/outbox.cif.g08.bks.cpg/sg64_23_cif.got.tgz:45053.got - 2010.06.03 16:29:19.
