data_PCOD9481350
_publ_section_title
;
Structure prediction by ZEFSAII (Michael W. Deem and Ramdas Pophale) SiO2 
 PCOD9481350
Probable space group: C M C A
;
_chemical_formula_sum "Si O2"
_cell_formula_units_Z 96
_cell_length_a 19.533849
_cell_length_b 14.547530
_cell_length_c 14.454117
_cell_angle_alpha 90.000000
_cell_angle_beta 90.000000
_cell_angle_gamma 90.000000
_cell_volume 4107.415650
_symmetry_space_group_name_H-M "C M C A"
_symmetry_group_IT_number 64
_symmetry_cell_setting 'orthorhombic'
loop_
_space_group_symop_operation_xyz
x,y,z
-x,1/2-y,1/2+z
x,-y,-z
-x,1/2+y,1/2-z
-x,-y,-z
x,1/2+y,1/2-z
-x,y,z
x,1/2-y,1/2+z
1/2+x,1/2+y,z
1/2-x,-y,1/2+z
1/2+x,1/2-y,-z
1/2-x,y,1/2-z
1/2-x,1/2-y,-z
1/2+x,y,1/2-z
1/2-x,1/2+y,z
1/2+x,-y,1/2+z
loop_
_atom_site_type_symbol
_atom_site_label
_atom_site_fract_x
_atom_site_fract_y
_atom_site_fract_z
Si Si1 0.693106 0.566490 0.826775
Si Si2 0.605795 0.932481 0.578302
Si Si3 0.920804 0.086504 0.682259
Si Si4 0.423222 0.882119 0.791209
Si Si5 0.844019 0.743782 0.928515
Si Si6 0.795703 0.224973 0.375213
O O1 0.750000 0.541585 0.750000
O O2 0.676761 0.485814 0.897221
O O3 0.621814 0.587110 0.775998
O O4 0.709385 0.664544 0.868550
O O5 0.576733 0.909798 0.681711
O O6 0.612326 0.830775 0.537347
O O7 0.574485 0.000000 0.500000
O O8 0.886710 0.165074 0.620951
O O9 0.000000 0.106696 0.695082
O O10 0.915060 0.978966 0.653292
O O11 0.500000 0.844514 0.811511
O O12 0.357958 0.818940 0.816820
O O13 0.785753 0.791156 0.862915
O O14 0.811877 0.699090 0.019517
#
# Coordination Sequence:
#
# PCOD9481350 Si02
#       6
#    16  16  16  16  16  16
#     4  11  22  41  68  97 135 185 233 283 348 419
#     4  11  24  42  66  99 138 178 234 295 360 421
#     4  10  23  44  68  98 137 180 235 291 347 421
#     4  10  25  46  71 101 137 190 239 289 359 427
#     4  11  24  41  65 102 138 184 229 290 357 418
#     4  11  24  41  66 101 142 178 234 290 346 430
#
# _framework density 23.372361999999999
#
# number of rings (size 3 to 8) (size 9 to 14) (size 15 to 20)
#    0.000    1.333    3.333    1.000    4.667    4.333 
#    0.000    1.667    0.000    0.000    0.000    0.000 
#    0.000    0.000    0.000    0.000    0.000    0.000 
#
# Total GULP energy -267441.112944 kJ/mol
# GULP energy per Si atom -5571.689853 kJ/mol
# Density = 2.331917 g / cm^3
# Si number density = 23.372362 Si / 1000 Ang^3
#
#
#
# Elastic Constant Matrix: (Units=GPa)
#
#
# Indices 1 2 3 4 5 6 
#
# 1 134.8071 33.3704 56.8057 0.0000 0.0000 0.0000
# 2 33.3704 88.3349 18.4130 0.0000 0.0000 0.0000
# 3 56.8057 18.4130 81.1884 0.0000 0.0000 0.0000
# 4 0.0000 0.0000 0.0000 25.4659 0.0000 0.0000
# 5 0.0000 0.0000 0.0000 0.0000 10.2122 0.0000
# 6 0.0000 0.0000 0.0000 0.0000 0.0000 46.9459
#
#
#
# Elastic Compliance Matrix: (Units=1/GPa)
#
#
# Indices 1 2 3 4 5 6 
#
# 1 0.011102 -0.002703 -0.007155 0.000000 0.000000 0.000000
# 2 -0.002703 0.012540 -0.000953 0.000000 0.000000 0.000000
# 3 -0.007155 -0.000953 0.017539 0.000000 0.000000 0.000000
# 4 0.000000 0.000000 0.000000 0.039268 0.000000 0.000000
# 5 0.000000 0.000000 0.000000 0.000000 0.097922 0.000000
# 6 0.000000 0.000000 0.000000 0.000000 0.000000 0.021301
#
#
# Mechanical properties :
#
#
# Convention : Reuss Voigt Hill
#
# Bulk Modulus (GPa) = 51.12386 57.94539 54.53463
# Shear Modulus (GPa) = 21.94775 29.57420 25.76098
#
# Velocity S-wave (km/s) = 3.06771 3.56103 3.32354
# Velocity P-wave (km/s) = 5.87103 6.46174 6.17345
#
# Compressibility (1/GPa) = 0.01956034
#
# Stress axis : x y z
#
# Youngs Moduli (GPa) = 90.07400 79.74360 57.01479
#
# Poissons Ratio (x) = 0.21552 0.40793
# Poissons Ratio (y) = 0.24343 0.05434
# Poissons Ratio (z) = 0.64447 0.07600
#
# Static dielectric constant tensor:
#      x y z
#    x 1.940560 0.000000 0.000000 
#    y 0.000000 1.934400 0.000000 
#    z 0.000000 0.000000 1.846480 
# 
# From -- ./inp_files/26310.got.cif
#   From: 2010.05.17/outbox.cif.g08.bks.cpg/sg64_14_cif.got.tgz:26310.got - 2010.06.03 16:29:19.
