data_PCOD9481147
_publ_section_title
;
Structure prediction by ZEFSAII (Michael W. Deem and Ramdas Pophale) SiO2 
 PCOD9481147
Probable space group: C M C A
;
_chemical_formula_sum "Si O2"
_cell_formula_units_Z 104
_cell_length_a 22.078553
_cell_length_b 13.876358
_cell_length_c 15.456413
_cell_angle_alpha 90.000000
_cell_angle_beta 90.000000
_cell_angle_gamma 90.000000
_cell_volume 4735.379791
_symmetry_space_group_name_H-M "C M C A"
_symmetry_group_IT_number 64
_symmetry_cell_setting 'orthorhombic'
loop_
_space_group_symop_operation_xyz
x,y,z
-x,1/2-y,1/2+z
x,-y,-z
-x,1/2+y,1/2-z
-x,-y,-z
x,1/2+y,1/2-z
-x,y,z
x,1/2-y,1/2+z
1/2+x,1/2+y,z
1/2-x,-y,1/2+z
1/2+x,1/2-y,-z
1/2-x,y,1/2-z
1/2-x,1/2-y,-z
1/2+x,y,1/2-z
1/2-x,1/2+y,z
1/2+x,-y,1/2+z
loop_
_atom_site_type_symbol
_atom_site_label
_atom_site_fract_x
_atom_site_fract_y
_atom_site_fract_z
Si Si1 0.296109 0.582894 0.684884
Si Si2 0.630666 0.403620 0.616025
Si Si3 0.500000 0.768855 0.265639
Si Si4 0.500000 0.800178 0.577957
Si Si5 0.123764 0.116052 0.999460
Si Si6 0.000000 0.638874 0.060059
Si Si7 0.244039 0.884549 0.498928
Si Si8 0.875871 0.297522 0.306512
O O1 0.250000 0.529036 0.750000
O O2 0.344237 0.504450 0.651206
O O3 0.265585 0.633846 0.602448
O O4 0.324516 0.662686 0.745918
O O5 0.564466 0.413646 0.572630
O O6 0.683130 0.363504 0.551590
O O7 0.625203 0.318265 0.686161
O O8 0.500000 0.702520 0.181346
O O9 0.500000 0.715767 0.359376
O O10 0.439000 0.828685 0.263455
O O11 0.437038 0.847862 0.546078
O O12 0.500000 0.696259 0.530115
O O13 0.190539 0.149135 0.033722
O O14 0.123523 0.156599 0.901767
O O15 0.122081 0.000000 0.000000
O O16 0.248314 0.000000 0.500000
#
# Coordination Sequence:
#
# PCOD9481147 Si02
#       8
#    16  16   8   8  16   8  16  16
#     4  11  23  42  65  99 137 176 235 286 344 411
#     4  10  23  45  69  93 139 185 224 291 343 407
#     4  10  24  43  65  93 138 173 225 287 340 419
#     4  12  23  43  67 100 133 184 233 288 348 418
#     4  11  22  41  68  97 139 178 226 288 350 408
#     4  10  22  46  64  97 140 173 239 288 329 421
#     4   9  21  43  64  96 133 178 226 282 338 422
#     4  11  23  44  66 100 139 175 228 294 338 415
#
# _framework density 21.962336000000001
#
# number of rings (size 3 to 8) (size 9 to 14) (size 15 to 20)
#    0.000    1.538    4.615    0.231    2.154    4.308 
#    2.769    3.462    0.000    0.000    0.000    0.000 
#    0.000    0.000    0.000    0.000    0.000    0.000 
#
# Total GULP energy -290129.031692 kJ/mol
# GULP energy per Si atom -5579.404456 kJ/mol
# Density = 2.191235 g / cm^3
# Si number density = 21.962336 Si / 1000 Ang^3
#
#
#
# Elastic Constant Matrix: (Units=GPa)
#
#
# Indices 1 2 3 4 5 6 
#
# 1 186.9609 14.8028 22.0325 0.0000 0.0000 0.0000
# 2 14.8028 56.8723 -6.1834 0.0000 0.0000 0.0000
# 3 22.0325 -6.1834 55.0976 0.0000 0.0000 0.0000
# 4 0.0000 0.0000 0.0000 22.5143 0.0000 0.0000
# 5 0.0000 0.0000 0.0000 0.0000 3.8904 0.0000
# 6 0.0000 0.0000 0.0000 0.0000 0.0000 21.5382
#
#
#
# Elastic Compliance Matrix: (Units=1/GPa)
#
#
# Indices 1 2 3 4 5 6 
#
# 1 0.005786 -0.001779 -0.002513 0.000000 0.000000 0.000000
# 2 -0.001779 0.018348 0.002771 0.000000 0.000000 0.000000
# 3 -0.002513 0.002771 0.019466 0.000000 0.000000 0.000000
# 4 0.000000 0.000000 0.000000 0.044416 0.000000 0.000000
# 5 0.000000 0.000000 0.000000 0.000000 0.257040 0.000000
# 6 0.000000 0.000000 0.000000 0.000000 0.000000 0.046429
#
#
# Mechanical properties :
#
#
# Convention : Reuss Voigt Hill
#
# Bulk Modulus (GPa) = 24.65788 40.02608 32.34198
# Shear Modulus (GPa) = 12.25351 27.47384 19.86368
#
# Velocity S-wave (km/s) = 2.36462 3.54072 3.01066
# Velocity P-wave (km/s) = 4.32516 5.91439 5.18107
#
# Compressibility (1/GPa) = 0.04055499
#
# Stress axis : x y z
#
# Youngs Moduli (GPa) = 172.83810 54.50319 51.37280
#
# Poissons Ratio (x) = 0.09697 0.12911
# Poissons Ratio (y) = 0.30751 -0.14233
# Poissons Ratio (z) = 0.43439 -0.15100
#
# Static dielectric constant tensor:
#      x y z
#    x 1.887160 0.000000 0.000000 
#    y 0.000000 1.797320 0.000000 
#    z 0.000000 0.000000 1.821400 
# 
# From -- ./inp_files/34387.got.cif
#   From: 2010.05.17/outbox.cif.g08.bks.cpg/sg64_18_cif.got.tgz:34387.got - 2010.06.03 16:29:19.
