data_PCOD9481463
_publ_section_title
;
Structure prediction by ZEFSAII (Michael W. Deem and Ramdas Pophale) SiO2 
 PCOD9481463
Probable space group: C M C A
;
_chemical_formula_sum "Si O2"
_cell_formula_units_Z 64
_cell_length_a 29.971096
_cell_length_b 9.467564
_cell_length_c 10.084730
_cell_angle_alpha 90.000000
_cell_angle_beta 90.000000
_cell_angle_gamma 90.000000
_cell_volume 2861.575110
_symmetry_space_group_name_H-M "C M C A"
_symmetry_group_IT_number 64
_symmetry_cell_setting 'orthorhombic'
loop_
_space_group_symop_operation_xyz
x,y,z
-x,1/2-y,1/2+z
x,-y,-z
-x,1/2+y,1/2-z
-x,-y,-z
x,1/2+y,1/2-z
-x,y,z
x,1/2-y,1/2+z
1/2+x,1/2+y,z
1/2-x,-y,1/2+z
1/2+x,1/2-y,-z
1/2-x,y,1/2-z
1/2-x,1/2-y,-z
1/2+x,y,1/2-z
1/2-x,1/2+y,z
1/2+x,-y,1/2+z
loop_
_atom_site_type_symbol
_atom_site_label
_atom_site_fract_x
_atom_site_fract_y
_atom_site_fract_z
Si Si1 0.271095 0.365412 0.097490
Si Si2 0.952596 0.770063 0.412443
Si Si3 0.125602 0.783077 0.107216
Si Si4 0.421198 0.967294 0.766938
O O1 0.250000 0.376131 0.250000
O O2 0.323068 0.323037 0.107078
O O3 0.267332 0.500000 0.000000
O O4 0.250000 0.250000 0.000000
O O5 0.904705 0.738568 0.477774
O O6 0.952172 0.650654 0.299142
O O7 0.948499 0.930653 0.363979
O O8 0.000000 0.752115 0.487189
O O9 0.100788 0.915808 0.173466
O O10 0.118106 0.630285 0.174426
#
# Coordination Sequence:
#
# PCOD9481463 Si02
#       4
#    16  16  16  16
#     4  12  30  51  82 118 157 205 264 327 400 471
#     4  11  23  42  69 105 145 196 250 305 376 457
#     4  11  26  45  71 101 146 192 250 315 382 456
#     4  10  24  42  68  98 146 191 246 308 377 449
#
# _framework density 22.365306
#
# number of rings (size 3 to 8) (size 9 to 14) (size 15 to 20)
#    0.000    1.000    0.000    4.500   14.000    8.000 
#    0.000    0.000    0.000    0.000    0.000    0.000 
#    0.000    0.000    0.000    0.000    0.000    0.000 
#
# Total GULP energy -178203.410637 kJ/mol
# GULP energy per Si atom -5568.856582 kJ/mol
# Density = 2.231440 g / cm^3
# Si number density = 22.365306 Si / 1000 Ang^3
#
#
#
# Elastic Constant Matrix: (Units=GPa)
#
#
# Indices 1 2 3 4 5 6 
#
# 1 176.1566 41.9498 65.0570 0.0000 0.0000 0.0000
# 2 41.9498 194.1288 61.1190 0.0000 0.0000 0.0000
# 3 65.0570 61.1190 119.0059 0.0000 0.0000 0.0000
# 4 0.0000 0.0000 0.0000 45.3646 0.0000 0.0000
# 5 0.0000 0.0000 0.0000 0.0000 41.2286 0.0000
# 6 0.0000 0.0000 0.0000 0.0000 0.0000 42.2159
#
#
#
# Elastic Compliance Matrix: (Units=1/GPa)
#
#
# Indices 1 2 3 4 5 6 
#
# 1 0.007136 -0.000374 -0.003709 0.000000 0.000000 0.000000
# 2 -0.000374 0.006164 -0.002961 0.000000 0.000000 0.000000
# 3 -0.003709 -0.002961 0.011951 0.000000 0.000000 0.000000
# 4 0.000000 0.000000 0.000000 0.022044 0.000000 0.000000
# 5 0.000000 0.000000 0.000000 0.000000 0.024255 0.000000
# 6 0.000000 0.000000 0.000000 0.000000 0.000000 0.023688
#
#
# Mechanical properties :
#
#
# Convention : Reuss Voigt Hill
#
# Bulk Modulus (GPa) = 89.58335 91.72699 90.65517
# Shear Modulus (GPa) = 44.22950 47.17285 45.70117
#
# Velocity S-wave (km/s) = 4.45184 4.59758 4.52530
# Velocity P-wave (km/s) = 8.15884 8.32381 8.24174
#
# Compressibility (1/GPa) = 0.01116279
#
# Stress axis : x y z
#
# Youngs Moduli (GPa) = 140.14389 162.22087 83.67399
#
# Poissons Ratio (x) = 0.06073 0.31031
# Poissons Ratio (y) = 0.05246 0.24778
# Poissons Ratio (z) = 0.51973 0.48038
#
# Static dielectric constant tensor:
#      x y z
#    x 1.875000 0.000000 0.000000 
#    y 0.000000 1.997620 0.000000 
#    z 0.000000 0.000000 2.084350 
# 
# From -- ./inp_files/19487.got.cif
#   From: 2010.05.17/outbox.cif.g08.bks.cpg/sg64_10_cif.got.tgz:19487.got - 2010.06.03 16:29:19.
