data_PCOD9481436
_publ_section_title
;
Structure prediction by ZEFSAII (Michael W. Deem and Ramdas Pophale) SiO2 
 PCOD9481436
Probable space group: C M C A
;
_chemical_formula_sum "Si O2"
_cell_formula_units_Z 64
_cell_length_a 22.298128
_cell_length_b 12.839355
_cell_length_c 9.329279
_cell_angle_alpha 90.000000
_cell_angle_beta 90.000000
_cell_angle_gamma 90.000000
_cell_volume 2670.912695
_symmetry_space_group_name_H-M "C M C A"
_symmetry_group_IT_number 64
_symmetry_cell_setting 'orthorhombic'
loop_
_space_group_symop_operation_xyz
x,y,z
-x,1/2-y,1/2+z
x,-y,-z
-x,1/2+y,1/2-z
-x,-y,-z
x,1/2+y,1/2-z
-x,y,z
x,1/2-y,1/2+z
1/2+x,1/2+y,z
1/2-x,-y,1/2+z
1/2+x,1/2-y,-z
1/2-x,y,1/2-z
1/2-x,1/2-y,-z
1/2+x,y,1/2-z
1/2-x,1/2+y,z
1/2+x,-y,1/2+z
loop_
_atom_site_type_symbol
_atom_site_label
_atom_site_fract_x
_atom_site_fract_y
_atom_site_fract_z
Si Si1 0.500000 0.757522 0.394544
Si Si2 0.000000 0.119528 0.159240
Si Si3 0.879806 0.639402 0.730896
Si Si4 0.135309 0.000000 0.500000
Si Si5 0.895169 0.000000 0.000000
Si Si6 0.788994 0.309213 0.874408
O O1 0.500000 0.643624 0.326252
O O2 0.500000 0.773877 0.564375
O O3 0.441490 0.813972 0.331953
O O4 0.058968 0.061534 0.104226
O O5 0.855552 0.567369 0.603251
O O6 0.832086 0.732634 0.721843
O O7 0.893537 0.566042 0.867352
O O8 0.173119 0.903586 0.561923
O O9 0.750000 0.358891 0.750000
O O10 0.750000 0.250000 0.000000
#
# Coordination Sequence:
#
# PCOD9481436 Si02
#       6
#     8   8  16   8   8  16
#     4  10  24  41  70 104 153 188 235 304 366 452
#     4   9  20  38  64  98 137 199 227 286 363 426
#     4  11  27  47  73 114 143 199 242 308 372 445
#     4  12  30  46  80 113 139 203 247 304 384 438
#     4   9  22  41  68  97 145 190 239 287 364 436
#     4  12  29  52  74 107 148 193 251 313 370 440
#
# _framework density 23.961846000000001
#
# number of rings (size 3 to 8) (size 9 to 14) (size 15 to 20)
#    0.000    1.250    2.500    0.750   17.500    0.500 
#    0.000    0.000    0.000    0.000    0.000    0.000 
#    0.000    0.000    0.000    0.000    0.000    0.000 
#
# Total GULP energy -178394.577151 kJ/mol
# GULP energy per Si atom -5574.830536 kJ/mol
# Density = 2.390731 g / cm^3
# Si number density = 23.961846 Si / 1000 Ang^3
#
#
#
# Elastic Constant Matrix: (Units=GPa)
#
#
# Indices 1 2 3 4 5 6 
#
# 1 28.2622 -8.8033 2.4581 0.0000 0.0000 0.0000
# 2 -8.8033 72.6075 6.1777 0.0000 0.0000 0.0000
# 3 2.4581 6.1777 61.2218 0.0000 0.0000 0.0000
# 4 0.0000 0.0000 0.0000 58.3242 0.0000 0.0000
# 5 0.0000 0.0000 0.0000 0.0000 58.9569 0.0000
# 6 0.0000 0.0000 0.0000 0.0000 0.0000 -49.4015
#
#
#
# Elastic Compliance Matrix: (Units=1/GPa)
#
#
# Indices 1 2 3 4 5 6 
#
# 1 0.037002 0.004653 -0.001955 0.000000 0.000000 0.000000
# 2 0.004653 0.014477 -0.001648 0.000000 0.000000 0.000000
# 3 -0.001955 -0.001648 0.016579 0.000000 0.000000 0.000000
# 4 0.000000 0.000000 0.000000 0.017146 0.000000 0.000000
# 5 0.000000 0.000000 0.000000 0.000000 0.016962 0.000000
# 6 0.000000 0.000000 0.000000 0.000000 0.000000 -0.020242
#
#
# Mechanical properties :
#
#
# Convention : Reuss Voigt Hill
#
# Bulk Modulus (GPa) = 14.25355 17.97293 16.11324
# Shear Modulus (GPa) = 48.44542 24.39322 36.41932
#
# Velocity S-wave (km/s) = 4.50129 3.19408 3.90280
# Velocity P-wave (km/s) = 5.74255 4.59562 5.20080
#
# Compressibility (1/GPa) = 0.07015796
#
# Stress axis : x y z
#
# Youngs Moduli (GPa) = 27.02535 69.07515 60.31799
#
# Poissons Ratio (x) = -0.32139 0.11793
# Poissons Ratio (y) = -0.12574 0.09938
# Poissons Ratio (z) = 0.05284 0.11381
#
# Static dielectric constant tensor:
#      x y z
#    x 1.904330 0.000000 0.000000 
#    y 0.000000 1.971190 0.000000 
#    z 0.000000 0.000000 1.964250 
# 
# From -- ./inp_files/9037.got.cif
#   From: 2010.05.17/outbox.cif.g08.bks.cpg/sg64_5_cif.got.tgz:9037.got - 2010.06.03 16:29:19.
