data_PCOD9481058
_publ_section_title
;
Structure prediction by ZEFSAII (Michael W. Deem and Ramdas Pophale) SiO2 
 PCOD9481058
Probable space group: C M C A
;
_chemical_formula_sum "Si O2"
_cell_formula_units_Z 88
_cell_length_a 23.899560
_cell_length_b 19.797838
_cell_length_c 8.980348
_cell_angle_alpha 90.000000
_cell_angle_beta 90.000000
_cell_angle_gamma 90.000000
_cell_volume 4249.138022
_symmetry_space_group_name_H-M "C M C A"
_symmetry_group_IT_number 64
_symmetry_cell_setting 'orthorhombic'
loop_
_space_group_symop_operation_xyz
x,y,z
-x,1/2-y,1/2+z
x,-y,-z
-x,1/2+y,1/2-z
-x,-y,-z
x,1/2+y,1/2-z
-x,y,z
x,1/2-y,1/2+z
1/2+x,1/2+y,z
1/2-x,-y,1/2+z
1/2+x,1/2-y,-z
1/2-x,y,1/2-z
1/2-x,1/2-y,-z
1/2+x,y,1/2-z
1/2-x,1/2+y,z
1/2+x,-y,1/2+z
loop_
_atom_site_type_symbol
_atom_site_label
_atom_site_fract_x
_atom_site_fract_y
_atom_site_fract_z
Si Si1 0.124818 0.644687 0.070165
Si Si2 0.746275 0.000000 0.500000
Si Si3 0.827427 0.016738 0.256016
Si Si4 0.879195 0.880182 0.214050
Si Si5 0.000000 0.672511 0.701734
Si Si6 0.500000 0.318678 0.559203
Si Si7 0.795059 0.729142 0.622346
O O1 0.149328 0.578225 0.148848
O O2 0.160450 0.708781 0.129146
O O3 0.058850 0.648949 0.107862
O O4 0.127767 0.641605 0.889156
O O5 0.787739 0.974181 0.371563
O O6 0.706402 0.042328 0.389573
O O7 0.869943 0.960072 0.203393
O O8 0.834098 0.837298 0.119720
O O9 0.941965 0.863654 0.164694
O O10 0.000000 0.743665 0.621090
O O11 0.000000 0.681974 0.880189
O O12 0.750000 0.717572 0.750000
O O13 0.750000 0.750000 0.500000
#
# Coordination Sequence:
#
# PCOD9481058 Si02
#       7
#    16   8  16  16   8   8  16
#     4  11  23  43  66 100 128 176 220 276 329 393
#     4  10  24  40  64  92 138 176 204 256 334 406
#     4  11  24  42  67  97 133 174 219 267 337 393
#     4  11  23  43  67  97 132 171 225 272 331 392
#     4  10  22  43  67  94 124 176 219 276 331 383
#     4  10  22  43  67  92 130 170 225 270 331 387
#     4  12  26  37  63  97 135 169 219 272 327 389
#
# _framework density 20.710083000000001
#
# number of rings (size 3 to 8) (size 9 to 14) (size 15 to 20)
#    0.000    1.091    5.455    0.000    7.636    0.727 
#    3.273    2.727    0.000    1.091    0.000    0.000 
#    0.000    0.000    0.000    0.000    0.000    0.000 
#
# Total GULP energy -245069.994016 kJ/mol
# GULP energy per Si atom -5569.772591 kJ/mol
# Density = 2.066295 g / cm^3
# Si number density = 20.710083 Si / 1000 Ang^3
#
#
#
# Elastic Constant Matrix: (Units=GPa)
#
#
# Indices 1 2 3 4 5 6 
#
# 1 157.7462 39.5341 40.5869 0.0000 0.0000 0.0000
# 2 39.5341 86.9102 6.2493 0.0000 0.0000 0.0000
# 3 40.5869 6.2493 32.6227 0.0000 0.0000 0.0000
# 4 0.0000 0.0000 0.0000 22.5798 0.0000 0.0000
# 5 0.0000 0.0000 0.0000 0.0000 25.3122 0.0000
# 6 0.0000 0.0000 0.0000 0.0000 0.0000 5.6957
#
#
#
# Elastic Compliance Matrix: (Units=1/GPa)
#
#
# Indices 1 2 3 4 5 6 
#
# 1 0.010473 -0.003881 -0.012286 0.000000 0.000000 0.000000
# 2 -0.003881 0.013105 0.002318 0.000000 0.000000 0.000000
# 3 -0.012286 0.002318 0.045496 0.000000 0.000000 0.000000
# 4 0.000000 0.000000 0.000000 0.044287 0.000000 0.000000
# 5 0.000000 0.000000 0.000000 0.000000 0.039507 0.000000
# 6 0.000000 0.000000 0.000000 0.000000 0.000000 0.175572
#
#
# Mechanical properties :
#
#
# Convention : Reuss Voigt Hill
#
# Bulk Modulus (GPa) = 24.16959 50.00218 37.08589
# Shear Modulus (GPa) = 13.51607 23.44479 18.48043
#
# Velocity S-wave (km/s) = 2.55744 3.36824 2.99045
# Velocity P-wave (km/s) = 4.51846 6.27081 5.46532
#
# Compressibility (1/GPa) = 0.04137430
#
# Stress axis : x y z
#
# Youngs Moduli (GPa) = 95.48320 76.30857 21.98017
#
# Poissons Ratio (x) = 0.29612 0.27006
# Poissons Ratio (y) = 0.37053 -0.05094
# Poissons Ratio (z) = 1.17315 -0.17685
#
# Static dielectric constant tensor:
#      x y z
#    x 1.744370 0.000000 0.000000 
#    y 0.000000 1.710500 0.000000 
#    z 0.000000 0.000000 1.752470 
# 
# From -- ./inp_files/9378.got.cif
#   From: 2010.05.17/outbox.cif.g08.bks.cpg/sg64_5_cif.got.tgz:9378.got - 2010.06.03 16:29:19.
