data_PCOD9481339
_publ_section_title
;
Structure prediction by ZEFSAII (Michael W. Deem and Ramdas Pophale) SiO2 
 PCOD9481339
Probable space group: C M C A
;
_chemical_formula_sum "Si O2"
_cell_formula_units_Z 96
_cell_length_a 16.984843
_cell_length_b 19.519525
_cell_length_c 13.990054
_cell_angle_alpha 90.000000
_cell_angle_beta 90.000000
_cell_angle_gamma 90.000000
_cell_volume 4638.207488
_symmetry_space_group_name_H-M "C M C A"
_symmetry_group_IT_number 64
_symmetry_cell_setting 'orthorhombic'
loop_
_space_group_symop_operation_xyz
x,y,z
-x,1/2-y,1/2+z
x,-y,-z
-x,1/2+y,1/2-z
-x,-y,-z
x,1/2+y,1/2-z
-x,y,z
x,1/2-y,1/2+z
1/2+x,1/2+y,z
1/2-x,-y,1/2+z
1/2+x,1/2-y,-z
1/2-x,y,1/2-z
1/2-x,1/2-y,-z
1/2+x,y,1/2-z
1/2-x,1/2+y,z
1/2+x,-y,1/2+z
loop_
_atom_site_type_symbol
_atom_site_label
_atom_site_fract_x
_atom_site_fract_y
_atom_site_fract_z
Si Si1 0.591483 0.417828 0.359536
Si Si2 0.344974 0.047177 0.237259
Si Si3 0.160057 0.213632 0.736868
Si Si4 0.910369 0.257803 0.444259
Si Si5 0.350828 0.348650 0.894935
Si Si6 0.176828 0.380546 0.959434
O O1 0.500000 0.424407 0.386097
O O2 0.615565 0.474532 0.282010
O O3 0.609319 0.343112 0.317206
O O4 0.647769 0.425303 0.451736
O O5 0.250000 0.040439 0.250000
O O6 0.377616 0.089037 0.327694
O O7 0.356707 0.091119 0.140432
O O8 0.250000 0.189390 0.750000
O O9 0.122093 0.223378 0.840447
O O10 0.163700 0.284949 0.678061
O O11 0.903697 0.318989 0.520445
O O12 0.856712 0.195061 0.478170
O O13 0.000000 0.234411 0.437591
O O14 0.269637 0.372477 0.944411
#
# Coordination Sequence:
#
# PCOD9481339 Si02
#       6
#    16  16  16  16  16  16
#     4  12  26  41  62  99 138 171 212 268 341 397
#     4  10  23  44  66  92 127 175 224 268 320 394
#     4  12  22  42  67  92 125 172 221 272 318 388
#     4  12  24  37  62 101 133 163 211 277 335 383
#     4  11  22  43  69  95 127 174 228 268 324 398
#     4  11  21  41  67  95 130 167 219 274 322 393
#
# _framework density 20.697651
#
# number of rings (size 3 to 8) (size 9 to 14) (size 15 to 20)
#    0.000    0.667    5.000    4.000    0.000    3.333 
#    0.000    2.500    0.000    2.000    0.000    0.000 
#    0.000    0.000    0.000    0.000    0.000    0.000 
#
# Total GULP energy -268411.246940 kJ/mol
# GULP energy per Si atom -5591.900978 kJ/mol
# Density = 2.065054 g / cm^3
# Si number density = 20.697651 Si / 1000 Ang^3
#
#
#
# Elastic Constant Matrix: (Units=GPa)
#
#
# Indices 1 2 3 4 5 6 
#
# 1 40.1692 14.6591 25.9755 0.0000 0.0000 0.0000
# 2 14.6591 83.5820 35.8183 0.0000 0.0000 0.0000
# 3 25.9755 35.8183 108.2721 0.0000 0.0000 0.0000
# 4 0.0000 0.0000 0.0000 41.2423 0.0000 0.0000
# 5 0.0000 0.0000 0.0000 0.0000 -19.2304 0.0000
# 6 0.0000 0.0000 0.0000 0.0000 0.0000 784.6942
#
#
#
# Elastic Compliance Matrix: (Units=1/GPa)
#
#
# Indices 1 2 3 4 5 6 
#
# 1 0.029918 -0.002530 -0.006341 0.000000 0.000000 0.000000
# 2 -0.002530 0.014155 -0.004076 0.000000 0.000000 0.000000
# 3 -0.006341 -0.004076 0.012105 0.000000 0.000000 0.000000
# 4 0.000000 0.000000 0.000000 0.024247 0.000000 0.000000
# 5 0.000000 0.000000 0.000000 0.000000 -0.052001 0.000000
# 6 0.000000 0.000000 0.000000 0.000000 0.000000 0.001274
#
#
# Mechanical properties :
#
#
# Convention : Reuss Voigt Hill
#
# Bulk Modulus (GPa) = 33.01894 42.76989 37.89441
# Shear Modulus (GPa) = 76.11938 171.71258 123.91598
#
# Velocity S-wave (km/s) = 6.07097 9.11825 7.74594
# Velocity P-wave (km/s) = 8.07031 11.47020 9.91704
#
# Compressibility (1/GPa) = 0.03028565
#
# Stress axis : x y z
#
# Youngs Moduli (GPa) = 33.42454 70.64851 82.60734
#
# Poissons Ratio (x) = 0.17874 0.52379
# Poissons Ratio (y) = 0.08456 0.33668
# Poissons Ratio (z) = 0.21193 0.28794
#
# Static dielectric constant tensor:
#      x y z
#    x 1.693550 0.000000 0.000000 
#    y 0.000000 1.755620 0.000000 
#    z 0.000000 0.000000 1.753690 
# 
# From -- ./inp_files/23859.got.cif
#   From: 2010.05.17/outbox.cif.g08.bks.cpg/sg64_12_cif.got.tgz:23859.got - 2010.06.03 16:29:19.
