data_PCOD9481889
_publ_section_title
;
Structure prediction by ZEFSAII (Michael W. Deem and Ramdas Pophale) SiO2 
 PCOD9481889
Probable space group: C M C A
;
_chemical_formula_sum "Si O2"
_cell_formula_units_Z 56
_cell_length_a 18.652541
_cell_length_b 7.840073
_cell_length_c 15.309576
_cell_angle_alpha 90.000000
_cell_angle_beta 90.000000
_cell_angle_gamma 90.000000
_cell_volume 2238.830799
_symmetry_space_group_name_H-M "C M C A"
_symmetry_group_IT_number 64
_symmetry_cell_setting 'orthorhombic'
loop_
_space_group_symop_operation_xyz
x,y,z
-x,1/2-y,1/2+z
x,-y,-z
-x,1/2+y,1/2-z
-x,-y,-z
x,1/2+y,1/2-z
-x,y,z
x,1/2-y,1/2+z
1/2+x,1/2+y,z
1/2-x,-y,1/2+z
1/2+x,1/2-y,-z
1/2-x,y,1/2-z
1/2-x,1/2-y,-z
1/2+x,y,1/2-z
1/2-x,1/2+y,z
1/2+x,-y,1/2+z
loop_
_atom_site_type_symbol
_atom_site_label
_atom_site_fract_x
_atom_site_fract_y
_atom_site_fract_z
Si Si1 0.207254 0.789771 0.633853
Si Si2 0.000000 0.434122 0.328165
Si Si3 0.652056 0.922913 0.682157
Si Si4 0.000000 0.979401 0.629579
Si Si5 0.874196 0.000000 0.500000
O O1 0.186649 0.599342 0.653906
O O2 0.293266 0.792662 0.638256
O O3 0.167601 0.890008 0.714825
O O4 0.175742 0.859208 0.544379
O O5 0.929286 0.546562 0.347234
O O6 0.000000 0.431919 0.223160
O O7 0.000000 0.233896 0.361387
O O8 0.069363 0.041537 0.576833
#
# Coordination Sequence:
#
# PCOD9481889 Si02
#       5
#    16   8  16   8   8
#     4  11  23  41  67  95 136 168 232 264 331 383
#     4  12  20  44  68 100 120 180 216 278 306 424
#     4  11  22  40  65  97 123 181 217 271 313 412
#     4  11  24  40  74  97 136 168 228 261 348 378
#     4  11  22  42  64 105 130 178 206 289 328 390
#
# _framework density 25.013054
#
# number of rings (size 3 to 8) (size 9 to 14) (size 15 to 20)
#    0.000    0.857    5.714    3.429    0.000    1.143 
#    0.000    0.000    0.000    4.286    0.000    0.000 
#    0.000    0.000    0.000    0.000    0.000    0.000 
#
# Total GULP energy -156506.220516 kJ/mol
# GULP energy per Si atom -5589.507876 kJ/mol
# Density = 2.495612 g / cm^3
# Si number density = 25.013054 Si / 1000 Ang^3
#
#
#
# Elastic Constant Matrix: (Units=GPa)
#
#
# Indices 1 2 3 4 5 6 
#
# 1 222.5341 47.6853 31.8308 0.0000 0.0000 0.0000
# 2 47.6853 43.6288 -3.9161 0.0000 0.0000 0.0000
# 3 31.8308 -3.9161 76.5374 0.0000 0.0000 0.0000
# 4 0.0000 0.0000 0.0000 105.7844 0.0000 0.0000
# 5 0.0000 0.0000 0.0000 0.0000 40.2247 0.0000
# 6 0.0000 0.0000 0.0000 0.0000 0.0000 33.3541
#
#
#
# Elastic Compliance Matrix: (Units=1/GPa)
#
#
# Indices 1 2 3 4 5 6 
#
# 1 0.006523 -0.007407 -0.003092 0.000000 0.000000 0.000000
# 2 -0.007407 0.031438 0.004689 0.000000 0.000000 0.000000
# 3 -0.003092 0.004689 0.014591 0.000000 0.000000 0.000000
# 4 0.000000 0.000000 0.000000 0.009453 0.000000 0.000000
# 5 0.000000 0.000000 0.000000 0.000000 0.024860 0.000000
# 6 0.000000 0.000000 0.000000 0.000000 0.000000 0.029981
#
#
# Mechanical properties :
#
#
# Convention : Reuss Voigt Hill
#
# Bulk Modulus (GPa) = 24.43082 54.87780 39.65431
# Shear Modulus (GPa) = 35.18376 53.67931 44.43154
#
# Velocity S-wave (km/s) = 3.75456 4.63758 4.21923
# Velocity P-wave (km/s) = 5.34640 7.11783 6.29474
#
# Compressibility (1/GPa) = 0.04093191
#
# Stress axis : x y z
#
# Youngs Moduli (GPa) = 153.29898 31.80913 68.53398
#
# Poissons Ratio (x) = 0.23562 0.21190
# Poissons Ratio (y) = 1.13552 -0.32136
# Poissons Ratio (z) = 0.47399 -0.14916
#
# Static dielectric constant tensor:
#      x y z
#    x 2.104730 0.000000 0.000000 
#    y 0.000000 1.953670 0.000000 
#    z 0.000000 0.000000 1.994920 
# 
# From -- ./inp_files/25948.got.cif
#   From: 2010.05.17/outbox.cif.g08.bks.cpg/sg64_13_cif.got.tgz:25948.got - 2010.06.03 16:29:19.
