data_PCOD9481863
_publ_section_title
;
Structure prediction by ZEFSAII (Michael W. Deem and Ramdas Pophale) SiO2 
 PCOD9481863
Probable space group: C M C A
;
_chemical_formula_sum "Si O2"
_cell_formula_units_Z 64
_cell_length_a 8.722703
_cell_length_b 15.502414
_cell_length_c 23.535736
_cell_angle_alpha 90.000000
_cell_angle_beta 90.000000
_cell_angle_gamma 90.000000
_cell_volume 3182.571725
_symmetry_space_group_name_H-M "C M C A"
_symmetry_group_IT_number 64
_symmetry_cell_setting 'orthorhombic'
loop_
_space_group_symop_operation_xyz
x,y,z
-x,1/2-y,1/2+z
x,-y,-z
-x,1/2+y,1/2-z
-x,-y,-z
x,1/2+y,1/2-z
-x,y,z
x,1/2-y,1/2+z
1/2+x,1/2+y,z
1/2-x,-y,1/2+z
1/2+x,1/2-y,-z
1/2-x,y,1/2-z
1/2-x,1/2-y,-z
1/2+x,y,1/2-z
1/2-x,1/2+y,z
1/2+x,-y,1/2+z
loop_
_atom_site_type_symbol
_atom_site_label
_atom_site_fract_x
_atom_site_fract_y
_atom_site_fract_z
Si Si1 0.816879 0.755632 0.688244
Si Si2 0.182651 0.588403 0.868395
Si Si3 0.317311 0.846281 0.003486
Si Si4 0.817130 0.593101 0.388758
O O1 0.750000 0.776632 0.750000
O O2 0.760649 0.660708 0.670253
O O3 0.750022 0.823712 0.643226
O O4 0.000000 0.759696 0.688368
O O5 0.252318 0.493825 0.860917
O O6 0.000000 0.587604 0.858751
O O7 0.210069 0.616219 0.933932
O O8 0.500000 0.843961 0.993914
O O9 0.240024 0.901323 0.953735
O O10 0.250000 0.750000 0.000000
O O11 0.000000 0.594939 0.386777
#
# Coordination Sequence:
#
# PCOD9481863 Si02
#       4
#    16  16  16  16
#     4  12  26  46  70  95 128 169 218 271 326 384
#     4  11  24  43  67  98 133 171 217 266 322 386
#     4  11  22  38  65  97 134 173 215 264 322 387
#     4  12  25  42  66  98 134 173 218 266 322 385
#
# _framework density 20.109525000000001
#
# number of rings (size 3 to 8) (size 9 to 14) (size 15 to 20)
#    0.000    0.500    2.500    6.750    0.000    7.000 
#    0.000    5.000    0.000    0.000    0.000    0.000 
#    0.000    0.000    0.000    0.000    0.000    0.000 
#
# Total GULP energy -179234.282509 kJ/mol
# GULP energy per Si atom -5601.071328 kJ/mol
# Density = 2.006375 g / cm^3
# Si number density = 20.109525 Si / 1000 Ang^3
#
#
#
# Elastic Constant Matrix: (Units=GPa)
#
#
# Indices 1 2 3 4 5 6 
#
# 1 115.3550 8.8259 29.9382 0.0000 0.0000 0.0000
# 2 8.8259 77.2972 -20.9873 0.0000 0.0000 0.0000
# 3 29.9382 -20.9873 48.7869 0.0000 0.0000 0.0000
# 4 0.0000 0.0000 0.0000 12.0100 0.0000 0.0000
# 5 0.0000 0.0000 0.0000 0.0000 35.0453 0.0000
# 6 0.0000 0.0000 0.0000 0.0000 0.0000 36.5104
#
#
#
# Elastic Compliance Matrix: (Units=1/GPa)
#
#
# Indices 1 2 3 4 5 6 
#
# 1 0.011101 -0.003529 -0.008330 0.000000 0.000000 0.000000
# 2 -0.003529 0.015770 0.008950 0.000000 0.000000 0.000000
# 3 -0.008330 0.008950 0.029459 0.000000 0.000000 0.000000
# 4 0.000000 0.000000 0.000000 0.083264 0.000000 0.000000
# 5 0.000000 0.000000 0.000000 0.000000 0.028535 0.000000
# 6 0.000000 0.000000 0.000000 0.000000 0.000000 0.027389
#
#
# Mechanical properties :
#
#
# Convention : Reuss Voigt Hill
#
# Bulk Modulus (GPa) = 19.79792 30.77699 25.28745
# Shear Modulus (GPa) = 22.91744 31.62396 27.27070
#
# Velocity S-wave (km/s) = 3.37950 3.96989 3.68653
# Velocity P-wave (km/s) = 5.00944 6.02920 5.54282
#
# Compressibility (1/GPa) = 0.05051037
#
# Stress axis : x y z
#
# Youngs Moduli (GPa) = 90.08272 63.41141 33.94521
#
# Poissons Ratio (x) = 0.22380 0.28278
# Poissons Ratio (y) = 0.31793 -0.30380
# Poissons Ratio (z) = 0.75042 -0.56752
#
# Static dielectric constant tensor:
#      x y z
#    x 1.662730 0.000000 0.000000 
#    y 0.000000 1.701090 0.000000 
#    z 0.000000 0.000000 1.670210 
# 
# From -- ./inp_files/42470.got.cif
#   From: 2010.05.17/outbox.cif.g08.bks.cpg/sg64_22_cif.got.tgz:42470.got - 2010.06.03 16:29:19.
