data_PCOD9481973
_publ_section_title
;
Structure prediction by ZEFSAII (Michael W. Deem and Ramdas Pophale) SiO2 
 PCOD9481973
Probable space group: C M C A
;
_chemical_formula_sum "Si O2"
_cell_formula_units_Z 48
_cell_length_a 14.453544
_cell_length_b 25.882386
_cell_length_c 4.929610
_cell_angle_alpha 90.000000
_cell_angle_beta 90.000000
_cell_angle_gamma 90.000000
_cell_volume 1844.128674
_symmetry_space_group_name_H-M "C M C A"
_symmetry_group_IT_number 64
_symmetry_cell_setting 'orthorhombic'
loop_
_space_group_symop_operation_xyz
x,y,z
-x,1/2-y,1/2+z
x,-y,-z
-x,1/2+y,1/2-z
-x,-y,-z
x,1/2+y,1/2-z
-x,y,z
x,1/2-y,1/2+z
1/2+x,1/2+y,z
1/2-x,-y,1/2+z
1/2+x,1/2-y,-z
1/2-x,y,1/2-z
1/2-x,1/2-y,-z
1/2+x,y,1/2-z
1/2-x,1/2+y,z
1/2+x,-y,1/2+z
loop_
_atom_site_type_symbol
_atom_site_label
_atom_site_fract_x
_atom_site_fract_y
_atom_site_fract_z
Si Si1 0.113004 0.780746 0.887352
Si Si2 0.851092 0.048741 0.347514
Si Si3 0.394364 0.885672 0.341391
O O1 0.141029 0.733903 0.085284
O O2 0.144278 0.834382 0.016426
O O3 0.000000 0.783295 0.884331
O O4 0.750000 0.032301 0.250000
O O5 0.844098 0.092894 0.576620
O O6 0.895387 0.000000 0.500000
O O7 0.896833 0.071573 0.079053
O O8 0.500000 0.874865 0.250554
#
# Coordination Sequence:
#
# PCOD9481973 Si02
#       3
#    16  16  16
#     4   9  17  32  56  87 122 156 192 239 298 360
#     4  12  25  43  63  85 122 168 206 244 307 379
#     4  11  23  39  65  97 122 154 206 261 301 343
#
# _framework density 26.028552000000001
#
# number of rings (size 3 to 8) (size 9 to 14) (size 15 to 20)
#    0.000    1.333    0.000    7.000    0.000    9.333 
#    0.000    0.000    0.000   20.000    0.000    0.000 
#    0.000    0.000    0.000    0.000    0.000    0.000 
#
# Total GULP energy -134499.807122 kJ/mol
# GULP energy per Si atom -5604.158630 kJ/mol
# Density = 2.596931 g / cm^3
# Si number density = 26.028552 Si / 1000 Ang^3
#
#
#
# Elastic Constant Matrix: (Units=GPa)
#
#
# Indices 1 2 3 4 5 6 
#
# 1 63.0988 10.2914 15.1049 0.0000 0.0000 0.0000
# 2 10.2914 81.5466 15.7451 0.0000 0.0000 0.0000
# 3 15.1049 15.7451 145.5522 0.0000 0.0000 0.0000
# 4 0.0000 0.0000 0.0000 50.6586 0.0000 0.0000
# 5 0.0000 0.0000 0.0000 0.0000 25.5956 0.0000
# 6 0.0000 0.0000 0.0000 0.0000 0.0000 31.8352
#
#
#
# Elastic Compliance Matrix: (Units=1/GPa)
#
#
# Indices 1 2 3 4 5 6 
#
# 1 0.016504 -0.001789 -0.001519 0.000000 0.000000 0.000000
# 2 -0.001789 0.012719 -0.001190 0.000000 0.000000 0.000000
# 3 -0.001519 -0.001190 0.007157 0.000000 0.000000 0.000000
# 4 0.000000 0.000000 0.000000 0.019740 0.000000 0.000000
# 5 0.000000 0.000000 0.000000 0.000000 0.039069 0.000000
# 6 0.000000 0.000000 0.000000 0.000000 0.000000 0.031412
#
#
# Mechanical properties :
#
#
# Convention : Reuss Voigt Hill
#
# Bulk Modulus (GPa) = 36.52094 41.38671 38.95383
# Shear Modulus (GPa) = 34.54838 38.22163 36.38500
#
# Velocity S-wave (km/s) = 3.64720 3.83619 3.74289
# Velocity P-wave (km/s) = 5.63894 5.96296 5.80321
#
# Compressibility (1/GPa) = 0.02738155
#
# Stress axis : x y z
#
# Youngs Moduli (GPa) = 60.59254 78.62527 139.72770
#
# Poissons Ratio (x) = 0.14070 0.21226
# Poissons Ratio (y) = 0.10843 0.16629
# Poissons Ratio (z) = 0.09205 0.09357
#
# Static dielectric constant tensor:
#      x y z
#    x 2.032180 0.000000 0.000000 
#    y 0.000000 2.052370 0.000000 
#    z 0.000000 0.000000 1.922620 
# 
# From -- ./inp_files/655.got.cif
#   From: 2010.05.17/outbox.cif.g08.bks.cpg/sg64_1_cif.got.tgz:655.got - 2010.06.03 16:29:19.
