data_PCOD9481069
_publ_section_title
;
Structure prediction by ZEFSAII (Michael W. Deem and Ramdas Pophale) SiO2 
 PCOD9481069
Probable space group: C M C A
;
_chemical_formula_sum "Si O2"
_cell_formula_units_Z 72
_cell_length_a 25.653254
_cell_length_b 13.571979
_cell_length_c 8.922629
_cell_angle_alpha 90.000000
_cell_angle_beta 90.000000
_cell_angle_gamma 90.000000
_cell_volume 3106.550914
_symmetry_space_group_name_H-M "C M C A"
_symmetry_group_IT_number 64
_symmetry_cell_setting 'orthorhombic'
loop_
_space_group_symop_operation_xyz
x,y,z
-x,1/2-y,1/2+z
x,-y,-z
-x,1/2+y,1/2-z
-x,-y,-z
x,1/2+y,1/2-z
-x,y,z
x,1/2-y,1/2+z
1/2+x,1/2+y,z
1/2-x,-y,1/2+z
1/2+x,1/2-y,-z
1/2-x,y,1/2-z
1/2-x,1/2-y,-z
1/2+x,y,1/2-z
1/2-x,1/2+y,z
1/2+x,-y,1/2+z
loop_
_atom_site_type_symbol
_atom_site_label
_atom_site_fract_x
_atom_site_fract_y
_atom_site_fract_z
Si Si1 0.284667 0.147184 0.443258
Si Si2 0.827162 0.564696 0.163986
Si Si3 0.000000 0.294602 0.573777
Si Si4 0.325310 0.158042 0.778590
Si Si5 0.917997 0.788132 0.671708
O O1 0.227230 0.110658 0.395407
O O2 0.323024 0.079282 0.345212
O O3 0.295858 0.143872 0.619364
O O4 0.201339 0.244762 0.623393
O O5 0.828767 0.447928 0.143077
O O6 0.877372 0.628318 0.119363
O O7 0.045508 0.326146 0.695340
O O8 0.045413 0.253861 0.457723
O O9 0.381765 0.200102 0.734667
#
# Coordination Sequence:
#
# PCOD9481069 Si02
#       5
#    16  16   8  16  16
#     4  10  24  40  66 101 140 182 223 275 345 415
#     4  10  23  40  66 101 139 184 231 276 338 427
#     4  10  22  44  68  94 134 170 232 304 348 398
#     4  11  23  45  68 100 142 183 231 284 342 422
#     4  10  22  43  68  96 132 184 230 287 355 406
#
# _framework density 23.176829999999999
#
# number of rings (size 3 to 8) (size 9 to 14) (size 15 to 20)
#    0.000    1.778    0.000    3.333    0.000   18.667 
#    0.000   18.889    0.000    0.000    0.000    0.000 
#    0.000    0.000    0.000    0.000    0.000    0.000 
#
# Total GULP energy -200479.284768 kJ/mol
# GULP energy per Si atom -5568.869021 kJ/mol
# Density = 2.312408 g / cm^3
# Si number density = 23.176830 Si / 1000 Ang^3
#
#
#
# Elastic Constant Matrix: (Units=GPa)
#
#
# Indices 1 2 3 4 5 6 
#
# 1 195.5055 71.0361 47.0705 0.0000 0.0000 0.0000
# 2 71.0361 172.3058 35.8569 0.0000 0.0000 0.0000
# 3 47.0705 35.8569 107.0474 0.0000 0.0000 0.0000
# 4 0.0000 0.0000 0.0000 42.4666 0.0000 0.0000
# 5 0.0000 0.0000 0.0000 0.0000 54.4761 0.0000
# 6 0.0000 0.0000 0.0000 0.0000 0.0000 2.2068
#
#
#
# Elastic Compliance Matrix: (Units=1/GPa)
#
#
# Indices 1 2 3 4 5 6 
#
# 1 0.006420 -0.002214 -0.002082 0.000000 0.000000 0.000000
# 2 -0.002214 0.007002 -0.001372 0.000000 0.000000 0.000000
# 3 -0.002082 -0.001372 0.010717 0.000000 0.000000 0.000000
# 4 0.000000 0.000000 0.000000 0.023548 0.000000 0.000000
# 5 0.000000 0.000000 0.000000 0.000000 0.018357 0.000000
# 6 0.000000 0.000000 0.000000 0.000000 0.000000 0.453139
#
#
# Mechanical properties :
#
#
# Convention : Reuss Voigt Hill
#
# Bulk Modulus (GPa) = 78.09975 86.97619 82.53797
# Shear Modulus (GPa) = 9.34955 41.22291 25.28623
#
# Velocity S-wave (km/s) = 2.01066 4.22195 3.30663
# Velocity P-wave (km/s) = 6.25786 7.83423 7.08999
#
# Compressibility (1/GPa) = 0.01280414
#
# Stress axis : x y z
#
# Youngs Moduli (GPa) = 155.75116 142.82052 93.31367
#
# Poissons Ratio (x) = 0.31617 0.19425
# Poissons Ratio (y) = 0.34480 0.12802
# Poissons Ratio (z) = 0.32422 0.19594
#
# Static dielectric constant tensor:
#      x y z
#    x 1.829270 0.000000 0.000000 
#    y 0.000000 1.909580 0.000000 
#    z 0.000000 0.000000 2.045300 
# 
# From -- ./inp_files/10110.got.cif
#   From: 2010.05.17/outbox.cif.g08.bks.cpg/sg64_6_cif.got.tgz:10110.got - 2010.06.03 16:29:19.
