data_PCOD9481813
_publ_section_title
;
Structure prediction by ZEFSAII (Michael W. Deem and Ramdas Pophale) SiO2 
 PCOD9481813
Probable space group: C M C A
;
_chemical_formula_sum "Si O2"
_cell_formula_units_Z 88
_cell_length_a 19.273042
_cell_length_b 22.353722
_cell_length_c 9.406815
_cell_angle_alpha 90.000000
_cell_angle_beta 90.000000
_cell_angle_gamma 90.000000
_cell_volume 4052.683763
_symmetry_space_group_name_H-M "C M C A"
_symmetry_group_IT_number 64
_symmetry_cell_setting 'orthorhombic'
loop_
_space_group_symop_operation_xyz
x,y,z
-x,1/2-y,1/2+z
x,-y,-z
-x,1/2+y,1/2-z
-x,-y,-z
x,1/2+y,1/2-z
-x,y,z
x,1/2-y,1/2+z
1/2+x,1/2+y,z
1/2-x,-y,1/2+z
1/2+x,1/2-y,-z
1/2-x,y,1/2-z
1/2-x,1/2-y,-z
1/2+x,y,1/2-z
1/2-x,1/2+y,z
1/2+x,-y,1/2+z
loop_
_atom_site_type_symbol
_atom_site_label
_atom_site_fract_x
_atom_site_fract_y
_atom_site_fract_z
Si Si1 0.000000 0.192226 0.883744
Si Si2 0.651912 0.092478 0.867489
Si Si3 0.302214 0.065586 0.544890
Si Si4 0.615827 0.164314 0.382333
Si Si5 0.500000 0.396272 0.382905
Si Si6 0.201116 0.721674 0.878372
Si Si7 0.500000 0.169004 0.172742
O O1 0.000000 0.141807 0.762930
O O2 0.000000 0.258689 0.818593
O O3 0.933240 0.182857 0.984955
O O4 0.668842 0.082763 0.700537
O O5 0.718573 0.065878 0.947481
O O6 0.573780 0.070111 0.892505
O O7 0.656102 0.163038 0.910307
O O8 0.330295 0.115130 0.436090
O O9 0.326555 0.000000 0.500000
O O10 0.653764 0.223805 0.330439
O O11 0.566250 0.143615 0.256232
O O12 0.500000 0.349791 0.511683
O O13 0.250000 0.702000 0.750000
O O14 0.250000 0.750000 0.000000
#
# Coordination Sequence:
#
# PCOD9481813 Si02
#       7
#     8  16  16  16   8  16   8
#     4  11  21  43  68  96 149 194 226 285 365 435
#     4  11  23  47  72 106 132 180 249 285 369 422
#     4  11  24  49  75  95 139 193 247 291 338 428
#     4  11  24  42  68 108 141 187 244 282 360 434
#     4  12  24  42  72  95 144 182 217 304 359 418
#     4  12  23  39  69 106 147 181 229 307 356 430
#     4  11  25  37  62 112 148 182 229 285 367 431
#
# _framework density 21.714006000000001
#
# number of rings (size 3 to 8) (size 9 to 14) (size 15 to 20)
#    0.000    0.727    5.455    3.273    5.091    0.000 
#    9.818    4.545    0.000    0.000    0.000    0.000 
#    0.000    0.000    0.000    0.000    0.000    0.000 
#
# Total GULP energy -246054.038980 kJ/mol
# GULP energy per Si atom -5592.137250 kJ/mol
# Density = 2.166458 g / cm^3
# Si number density = 21.714006 Si / 1000 Ang^3
#
#
#
# Elastic Constant Matrix: (Units=GPa)
#
#
# Indices 1 2 3 4 5 6 
#
# 1 148.8102 13.4881 19.6566 0.0000 0.0000 0.0000
# 2 13.4881 86.9565 6.8208 0.0000 0.0000 0.0000
# 3 19.6566 6.8208 45.4696 0.0000 0.0000 0.0000
# 4 0.0000 0.0000 0.0000 15.4504 0.0000 0.0000
# 5 0.0000 0.0000 0.0000 0.0000 9.5585 0.0000
# 6 0.0000 0.0000 0.0000 0.0000 0.0000 -6.3174
#
#
#
# Elastic Compliance Matrix: (Units=1/GPa)
#
#
# Indices 1 2 3 4 5 6 
#
# 1 0.007193 -0.000882 -0.002977 0.000000 0.000000 0.000000
# 2 -0.000882 0.011745 -0.001380 0.000000 0.000000 0.000000
# 3 -0.002977 -0.001380 0.023487 0.000000 0.000000 0.000000
# 4 0.000000 0.000000 0.000000 0.064723 0.000000 0.000000
# 5 0.000000 0.000000 0.000000 0.000000 0.104619 0.000000
# 6 0.000000 0.000000 0.000000 0.000000 0.000000 -0.158293
#
#
# Mechanical properties :
#
#
# Convention : Reuss Voigt Hill
#
# Bulk Modulus (GPa) = 31.30358 40.12970 35.71664
# Shear Modulus (GPa) = 67.02202 19.82303 43.42253
#
# Velocity S-wave (km/s) = 5.56173 3.02473 4.47670
# Velocity P-wave (km/s) = 7.46266 5.54254 6.57309
#
# Compressibility (1/GPa) = 0.03194523
#
# Stress axis : x y z
#
# Youngs Moduli (GPa) = 139.02006 85.14168 42.57696
#
# Poissons Ratio (x) = 0.07511 0.12676
# Poissons Ratio (y) = 0.12265 0.05878
# Poissons Ratio (z) = 0.41390 0.11754
#
# Static dielectric constant tensor:
#      x y z
#    x 1.835920 0.000000 0.000000 
#    y 0.000000 1.730700 0.000000 
#    z 0.000000 0.000000 1.758500 
# 
# From -- ./inp_files/8295.got.cif
#   From: 2010.05.17/outbox.cif.g08.bks.cpg/sg64_5_cif.got.tgz:8295.got - 2010.06.03 16:29:19.
