data_PCOD9481530
_publ_section_title
;
Structure prediction by ZEFSAII (Michael W. Deem and Ramdas Pophale) SiO2 
 PCOD9481530
Probable space group: C M C A
;
_chemical_formula_sum "Si O2"
_cell_formula_units_Z 88
_cell_length_a 28.618376
_cell_length_b 9.938380
_cell_length_c 14.640534
_cell_angle_alpha 90.000000
_cell_angle_beta 90.000000
_cell_angle_gamma 90.000000
_cell_volume 4164.065009
_symmetry_space_group_name_H-M "C M C A"
_symmetry_group_IT_number 64
_symmetry_cell_setting 'orthorhombic'
loop_
_space_group_symop_operation_xyz
x,y,z
-x,1/2-y,1/2+z
x,-y,-z
-x,1/2+y,1/2-z
-x,-y,-z
x,1/2+y,1/2-z
-x,y,z
x,1/2-y,1/2+z
1/2+x,1/2+y,z
1/2-x,-y,1/2+z
1/2+x,1/2-y,-z
1/2-x,y,1/2-z
1/2-x,1/2-y,-z
1/2+x,y,1/2-z
1/2-x,1/2+y,z
1/2+x,-y,1/2+z
loop_
_atom_site_type_symbol
_atom_site_label
_atom_site_fract_x
_atom_site_fract_y
_atom_site_fract_z
Si Si1 0.500000 0.391048 0.651489
Si Si2 0.860526 0.801919 0.753195
Si Si3 0.826181 0.500000 0.000000
Si Si4 0.085175 0.095654 0.070677
Si Si5 0.000000 0.561131 0.662383
Si Si6 0.797925 0.447597 0.195656
Si Si7 0.590360 0.818231 0.930019
O O1 0.500000 0.485669 0.739965
O O2 0.451772 0.416729 0.597941
O O3 0.500000 0.225430 0.668739
O O4 0.889430 0.841046 0.842667
O O5 0.822957 0.689807 0.777010
O O6 0.892786 0.757558 0.667740
O O7 0.833365 0.934895 0.723229
O O8 0.795090 0.542422 0.913898
O O9 0.862777 0.383370 0.971500
O O10 0.044155 0.001370 0.108735
O O11 0.070338 0.218700 0.006166
O O12 0.114011 0.000000 0.000000
O O13 0.750000 0.462614 0.250000
#
# Coordination Sequence:
#
# PCOD9481530 Si02
#       7
#     8  16   8  16   8  16  16
#     4  12  25  41  66  99 139 189 226 290 328 396
#     4  11  24  43  72 100 134 180 223 286 346 411
#     4  10  24  45  72 100 136 180 220 281 348 420
#     4  12  22  41  68  97 133 181 231 280 333 404
#     4  12  26  39  65  98 142 183 242 278 338 393
#     4  11  24  47  69 102 136 172 224 288 350 414
#     4  11  23  42  67  99 136 178 230 269 343 398
#
# _framework density 21.133196000000002
#
# number of rings (size 3 to 8) (size 9 to 14) (size 15 to 20)
#    0.000    0.727    5.455    2.455    0.000    1.818 
#    4.909    2.727    0.000    0.000    0.000    0.000 
#    0.000    0.000    0.000    0.000    0.000    0.000 
#
# Total GULP energy -245747.609791 kJ/mol
# GULP energy per Si atom -5585.172950 kJ/mol
# Density = 2.108510 g / cm^3
# Si number density = 21.133196 Si / 1000 Ang^3
#
#
#
# Elastic Constant Matrix: (Units=GPa)
#
#
# Indices 1 2 3 4 5 6 
#
# 1 213.8853 158.4965 88.7818 0.0000 0.0000 0.0000
# 2 158.4965 265.9336 76.6238 0.0000 0.0000 0.0000
# 3 88.7818 76.6238 179.8696 0.0000 0.0000 0.0000
# 4 0.0000 0.0000 0.0000 31.9669 0.0000 0.0000
# 5 0.0000 0.0000 0.0000 0.0000 118.2392 0.0000
# 6 0.0000 0.0000 0.0000 0.0000 0.0000 60.8367
#
#
#
# Elastic Compliance Matrix: (Units=1/GPa)
#
#
# Indices 1 2 3 4 5 6 
#
# 1 0.009290 -0.004806 -0.002538 0.000000 0.000000 0.000000
# 2 -0.004806 0.006772 -0.000513 0.000000 0.000000 0.000000
# 3 -0.002538 -0.000513 0.007031 0.000000 0.000000 0.000000
# 4 0.000000 0.000000 0.000000 0.031282 0.000000 0.000000
# 5 0.000000 0.000000 0.000000 0.000000 0.008457 0.000000
# 6 0.000000 0.000000 0.000000 0.000000 0.000000 0.016437
#
#
# Mechanical properties :
#
#
# Convention : Reuss Voigt Hill
#
# Bulk Modulus (GPa) = 135.50848 145.27695 140.39271
# Shear Modulus (GPa) = 51.31139 64.59433 57.95286
#
# Velocity S-wave (km/s) = 4.93282 5.53459 5.24235
# Velocity P-wave (km/s) = 9.83382 10.47545 10.15970
#
# Compressibility (1/GPa) = 0.00737961
#
# Stress axis : x y z
#
# Youngs Moduli (GPa) = 107.64114 147.66157 142.22664
#
# Poissons Ratio (x) = 0.70959 0.36102
# Poissons Ratio (y) = 0.51727 0.07296
# Poissons Ratio (z) = 0.27323 0.07575
#
# Static dielectric constant tensor:
#      x y z
#    x 1.733830 0.000000 0.000000 
#    y 0.000000 1.781980 0.000000 
#    z 0.000000 0.000000 1.798930 
# 
# From -- ./inp_files/19714.got.cif
#   From: 2010.05.17/outbox.cif.g08.bks.cpg/sg64_10_cif.got.tgz:19714.got - 2010.06.03 16:29:19.
