data_PCOD9481289
_publ_section_title
;
Structure prediction by ZEFSAII (Michael W. Deem and Ramdas Pophale) SiO2 
 PCOD9481289
Probable space group: C M C A
;
_chemical_formula_sum "Si O2"
_cell_formula_units_Z 116
_cell_length_a 18.138938
_cell_length_b 10.805704
_cell_length_c 26.186141
_cell_angle_alpha 90.000000
_cell_angle_beta 90.000000
_cell_angle_gamma 90.000000
_cell_volume 5132.588247
_symmetry_space_group_name_H-M "C M C A"
_symmetry_group_IT_number 64
_symmetry_cell_setting 'orthorhombic'
loop_
_space_group_symop_operation_xyz
x,y,z
-x,1/2-y,1/2+z
x,-y,-z
-x,1/2+y,1/2-z
-x,-y,-z
x,1/2+y,1/2-z
-x,y,z
x,1/2-y,1/2+z
1/2+x,1/2+y,z
1/2-x,-y,1/2+z
1/2+x,1/2-y,-z
1/2-x,y,1/2-z
1/2-x,1/2-y,-z
1/2+x,y,1/2-z
1/2-x,1/2+y,z
1/2+x,-y,1/2+z
loop_
_atom_site_type_symbol
_atom_site_label
_atom_site_fract_x
_atom_site_fract_y
_atom_site_fract_z
Si Si1 0.200741 0.178898 0.648648
Si Si2 0.129370 0.472329 0.914714
Si Si3 0.413175 0.289865 0.103732
Si Si4 0.736287 0.178998 0.447373
Si Si5 0.000000 0.500000 0.000000
Si Si6 0.154158 0.389659 0.299715
Si Si7 0.081913 0.644225 0.488926
Si Si8 0.336090 0.150973 0.264612
O O1 0.247681 0.236211 0.602154
O O2 0.257930 0.114527 0.687817
O O3 0.162844 0.289776 0.678978
O O4 0.145161 0.083952 0.623222
O O5 0.106431 0.350969 0.883039
O O6 0.208412 0.436394 0.941089
O O7 0.065685 0.497734 0.955607
O O8 0.500000 0.307611 0.104264
O O9 0.381013 0.385472 0.144055
O O10 0.394117 0.299415 0.043459
O O11 0.750000 0.250000 0.500000
O O12 0.648281 0.155184 0.449308
O O13 0.133970 0.260769 0.271611
O O14 0.133297 0.512059 0.268276
O O15 0.074032 0.500000 0.500000
O O16 0.000000 0.696505 0.475736
O O17 0.250000 0.138691 0.250000
#
# Coordination Sequence:
#
# PCOD9481289 Si02
#       8
#    16  16  16  16   4  16  16  16
#     4  11  24  39  67 102 139 178 231 298 359 440
#     4  12  25  41  68  98 143 191 247 298 360 425
#     4  11  24  45  67  91 136 193 239 290 366 430
#     4  12  23  38  63  99 135 184 241 296 346 430
#     4  12  28  44  64 104 148 204 252 300 358 424
#     4  11  23  43  72 103 140 177 235 297 369 443
#     4  10  24  42  63  93 137 188 235 289 359 431
#     4  10  23  42  71 107 139 172 224 297 376 434
#
# _framework density 22.600683
#
# number of rings (size 3 to 8) (size 9 to 14) (size 15 to 20)
#    0.000    0.966    3.448    2.897   10.621    0.000 
#    0.000    0.690    3.034    0.000    0.000    0.000 
#    0.000    0.000    0.000    0.000    0.000    0.000 
#
# Total GULP energy -323547.976025 kJ/mol
# GULP energy per Si atom -5578.413380 kJ/mol
# Density = 2.254924 g / cm^3
# Si number density = 22.600683 Si / 1000 Ang^3
#
#
#
# Elastic Constant Matrix: (Units=GPa)
#
#
# Indices 1 2 3 4 5 6 
#
# 1 97.7225 21.6629 36.9541 0.0000 0.0000 0.0000
# 2 21.6629 106.2266 42.5568 0.0000 0.0000 0.0000
# 3 36.9541 42.5568 93.0919 0.0000 0.0000 0.0000
# 4 0.0000 0.0000 0.0000 33.9677 0.0000 0.0000
# 5 0.0000 0.0000 0.0000 0.0000 35.1248 0.0000
# 6 0.0000 0.0000 0.0000 0.0000 0.0000 26.1792
#
#
#
# Elastic Compliance Matrix: (Units=1/GPa)
#
#
# Indices 1 2 3 4 5 6 
#
# 1 0.012079 -0.000664 -0.004491 0.000000 0.000000 0.000000
# 2 -0.000664 0.011561 -0.005022 0.000000 0.000000 0.000000
# 3 -0.004491 -0.005022 0.014821 0.000000 0.000000 0.000000
# 4 0.000000 0.000000 0.000000 0.029440 0.000000 0.000000
# 5 0.000000 0.000000 0.000000 0.000000 0.028470 0.000000
# 6 0.000000 0.000000 0.000000 0.000000 0.000000 0.038198
#
#
# Mechanical properties :
#
#
# Convention : Reuss Voigt Hill
#
# Bulk Modulus (GPa) = 55.22817 55.48764 55.35790
# Shear Modulus (GPa) = 31.06420 32.11216 31.58818
#
# Velocity S-wave (km/s) = 3.71142 3.77350 3.74259
# Velocity P-wave (km/s) = 6.54643 6.60230 6.57443
#
# Compressibility (1/GPa) = 0.01810670
#
# Stress axis : x y z
#
# Youngs Moduli (GPa) = 82.79093 86.49800 67.47396
#
# Poissons Ratio (x) = 0.05743 0.30304
# Poissons Ratio (y) = 0.05496 0.33882
# Poissons Ratio (z) = 0.37184 0.43435
#
# Static dielectric constant tensor:
#      x y z
#    x 1.904700 0.000000 0.000000 
#    y 0.000000 1.961180 0.000000 
#    z 0.000000 0.000000 1.894700 
# 
# From -- ./inp_files/50478.got.cif
#   From: 2010.05.17/outbox.cif.g08.bks.cpg/sg64_26_cif.got.tgz:50478.got - 2010.06.03 16:29:19.
