data_PCOD9481880
_publ_section_title
;
Structure prediction by ZEFSAII (Michael W. Deem and Ramdas Pophale) SiO2 
 PCOD9481880
Probable space group: C M C A
;
_chemical_formula_sum "Si O2"
_cell_formula_units_Z 96
_cell_length_a 16.841204
_cell_length_b 9.314117
_cell_length_c 27.523812
_cell_angle_alpha 90.000000
_cell_angle_beta 90.000000
_cell_angle_gamma 90.000000
_cell_volume 4317.411146
_symmetry_space_group_name_H-M "C M C A"
_symmetry_group_IT_number 64
_symmetry_cell_setting 'orthorhombic'
loop_
_space_group_symop_operation_xyz
x,y,z
-x,1/2-y,1/2+z
x,-y,-z
-x,1/2+y,1/2-z
-x,-y,-z
x,1/2+y,1/2-z
-x,y,z
x,1/2-y,1/2+z
1/2+x,1/2+y,z
1/2-x,-y,1/2+z
1/2+x,1/2-y,-z
1/2-x,y,1/2-z
1/2-x,1/2-y,-z
1/2+x,y,1/2-z
1/2-x,1/2+y,z
1/2+x,-y,1/2+z
loop_
_atom_site_type_symbol
_atom_site_label
_atom_site_fract_x
_atom_site_fract_y
_atom_site_fract_z
Si Si1 0.407118 0.011244 0.858528
Si Si2 0.818370 0.094318 0.544214
Si Si3 0.909795 0.732550 0.772425
Si Si4 0.154164 0.426961 0.652697
Si Si5 0.347563 0.074489 0.455041
Si Si6 0.814276 0.751482 0.675525
O O1 0.500000 0.022133 0.866966
O O2 0.362265 0.072930 0.904929
O O3 0.391251 0.100122 0.808834
O O4 0.379188 0.848961 0.851377
O O5 0.822086 0.262909 0.532503
O O6 0.854149 0.000000 0.500000
O O7 0.730678 0.026417 0.550589
O O8 0.843380 0.749591 0.731343
O O9 0.000000 0.715891 0.753148
O O10 0.905704 0.873640 0.806171
O O11 0.117643 0.415881 0.598961
O O12 0.183292 0.587828 0.659874
O O13 0.231214 0.325580 0.661424
O O14 0.392657 0.000000 0.500000
#
# Coordination Sequence:
#
# PCOD9481880 Si02
#       6
#    16  16  16  16  16  16
#     4  11  24  43  66  94 132 177 222 272 331 395
#     4  11  22  39  67  95 131 169 214 275 333 394
#     4  11  25  46  66  92 135 178 217 269 334 394
#     4  12  24  42  69 100 133 170 222 277 330 385
#     4  11  22  39  67 101 131 169 214 274 337 392
#     4  12  25  41  67  98 130 172 223 272 322 397
#
# _framework density 22.235545999999999
#
# number of rings (size 3 to 8) (size 9 to 14) (size 15 to 20)
#    0.000    0.667    3.333    6.000    2.333    4.333 
#    0.000    0.000    0.000    1.000    0.000    0.000 
#    0.000    0.000    0.000    0.000    0.000    0.000 
#
# Total GULP energy -268412.325071 kJ/mol
# GULP energy per Si atom -5591.923439 kJ/mol
# Density = 2.218494 g / cm^3
# Si number density = 22.235546 Si / 1000 Ang^3
#
#
#
# Elastic Constant Matrix: (Units=GPa)
#
#
# Indices 1 2 3 4 5 6 
#
# 1 33.2600 3.8404 23.4822 0.0000 0.0000 0.0000
# 2 3.8404 160.4664 9.3281 0.0000 0.0000 0.0000
# 3 23.4822 9.3281 120.0382 0.0000 0.0000 0.0000
# 4 0.0000 0.0000 0.0000 -176.5533 0.0000 0.0000
# 5 0.0000 0.0000 0.0000 0.0000 9.3405 0.0000
# 6 0.0000 0.0000 0.0000 0.0000 0.0000 15.9164
#
#
#
# Elastic Compliance Matrix: (Units=1/GPa)
#
#
# Indices 1 2 3 4 5 6 
#
# 1 0.034915 -0.000441 -0.006796 0.000000 0.000000 0.000000
# 2 -0.000441 0.006266 -0.000401 0.000000 0.000000 0.000000
# 3 -0.006796 -0.000401 0.009691 0.000000 0.000000 0.000000
# 4 0.000000 0.000000 0.000000 -0.005664 0.000000 0.000000
# 5 0.000000 0.000000 0.000000 0.000000 0.107061 0.000000
# 6 0.000000 0.000000 0.000000 0.000000 0.000000 0.062828
#
#
# Mechanical properties :
#
#
# Convention : Reuss Voigt Hill
#
# Bulk Modulus (GPa) = 28.09180 43.00732 35.54956
# Shear Modulus (GPa) = 20.64095 -11.78501 4.42797
#
# Velocity S-wave (km/s) = 3.05008 -2.30469 1.41270
# Velocity P-wave (km/s) = 5.00651 3.50736 4.32243
#
# Compressibility (1/GPa) = 0.03559757
#
# Stress axis : x y z
#
# Youngs Moduli (GPa) = 28.64096 159.59980 103.18583
#
# Poissons Ratio (x) = 0.07031 0.70124
# Poissons Ratio (y) = 0.01262 0.04135
# Poissons Ratio (z) = 0.19464 0.06395
#
# Static dielectric constant tensor:
#      x y z
#    x 1.815970 0.000000 0.000000 
#    y 0.000000 1.807450 0.000000 
#    z 0.000000 0.000000 1.882150 
# 
# From -- ./inp_files/50656.got.cif
#   From: 2010.05.17/outbox.cif.g08.bks.cpg/sg64_26_cif.got.tgz:50656.got - 2010.06.03 16:29:19.
