data_PCOD9481680
_publ_section_title
;
Structure prediction by ZEFSAII (Michael W. Deem and Ramdas Pophale) SiO2 
 PCOD9481680
Probable space group: C M C A
;
_chemical_formula_sum "Si O2"
_cell_formula_units_Z 48
_cell_length_a 20.663670
_cell_length_b 22.663501
_cell_length_c 4.932344
_cell_angle_alpha 90.000000
_cell_angle_beta 90.000000
_cell_angle_gamma 90.000000
_cell_volume 2309.871472
_symmetry_space_group_name_H-M "C M C A"
_symmetry_group_IT_number 64
_symmetry_cell_setting 'orthorhombic'
loop_
_space_group_symop_operation_xyz
x,y,z
-x,1/2-y,1/2+z
x,-y,-z
-x,1/2+y,1/2-z
-x,-y,-z
x,1/2+y,1/2-z
-x,y,z
x,1/2-y,1/2+z
1/2+x,1/2+y,z
1/2-x,-y,1/2+z
1/2+x,1/2-y,-z
1/2-x,y,1/2-z
1/2-x,1/2-y,-z
1/2+x,y,1/2-z
1/2-x,1/2+y,z
1/2+x,-y,1/2+z
loop_
_atom_site_type_symbol
_atom_site_label
_atom_site_fract_x
_atom_site_fract_y
_atom_site_fract_z
Si Si1 0.386008 0.378825 0.887288
Si Si2 0.500000 0.041149 0.245475
Si Si3 0.181440 0.930921 0.408732
Si Si4 0.000000 0.287929 0.490044
O O1 0.437231 0.420176 0.741840
O O2 0.327385 0.386816 0.669048
O O3 0.366673 0.407714 0.173683
O O4 0.432206 0.322012 0.943353
O O5 0.500000 0.000000 0.500000
O O6 0.500000 0.000000 0.000000
O O7 0.250000 0.928205 0.250000
O O8 0.173125 0.000000 0.500000
O O9 0.000000 0.229682 0.675851
#
# Coordination Sequence:
#
# PCOD9481680 Si02
#       4
#    16   8  16   8
#     4  11  23  38  60  89 119 159 206 251 304 365
#     4  11  20  31  52  82 118 148 182 240 299 360
#     4  12  23  38  60  91 132 171 199 231 288 371
#     4  11  24  45  69  90 115 156 210 274 330 358
#
# _framework density 20.780377000000001
#
# number of rings (size 3 to 8) (size 9 to 14) (size 15 to 20)
#    0.000    0.667    0.000   11.000    0.000    5.333 
#    0.000    2.500    0.000   20.000    0.000    0.000 
#    0.000    0.000    0.000    0.000    0.000    0.000 
#
# Total GULP energy -133729.024901 kJ/mol
# GULP energy per Si atom -5572.042704 kJ/mol
# Density = 2.073308 g / cm^3
# Si number density = 20.780377 Si / 1000 Ang^3
#
#
#
# Elastic Constant Matrix: (Units=GPa)
#
#
# Indices 1 2 3 4 5 6 
#
# 1 101.1839 33.8831 28.7340 0.0000 0.0000 0.0000
# 2 33.8831 52.6236 15.7890 0.0000 0.0000 0.0000
# 3 28.7340 15.7890 138.9553 0.0000 0.0000 0.0000
# 4 0.0000 0.0000 0.0000 36.8156 0.0000 0.0000
# 5 0.0000 0.0000 0.0000 0.0000 -141.0235 0.0000
# 6 0.0000 0.0000 0.0000 0.0000 0.0000 32.7615
#
#
#
# Elastic Compliance Matrix: (Units=1/GPa)
#
#
# Indices 1 2 3 4 5 6 
#
# 1 0.013021 -0.007843 -0.001801 0.000000 0.000000 0.000000
# 2 -0.007843 0.024398 -0.001150 0.000000 0.000000 0.000000
# 3 -0.001801 -0.001150 0.007700 0.000000 0.000000 0.000000
# 4 0.000000 0.000000 0.000000 0.027162 0.000000 0.000000
# 5 0.000000 0.000000 0.000000 0.000000 -0.007091 0.000000
# 6 0.000000 0.000000 0.000000 0.000000 0.000000 0.030524
#
#
# Mechanical properties :
#
#
# Convention : Reuss Voigt Hill
#
# Bulk Modulus (GPa) = 42.50128 49.95276 46.22702
# Shear Modulus (GPa) = 39.95289 0.00117 19.97703
#
# Velocity S-wave (km/s) = 4.38953 0.02375 3.10391
# Velocity P-wave (km/s) = 6.79615 4.90830 5.92786
#
# Compressibility (1/GPa) = 0.02352870
#
# Stress axis : x y z
#
# Youngs Moduli (GPa) = 76.79865 40.98652 129.87413
#
# Poissons Ratio (x) = 0.32148 0.23395
# Poissons Ratio (y) = 0.60237 0.14940
# Poissons Ratio (z) = 0.13834 0.04715
#
# Static dielectric constant tensor:
#      x y z
#    x 1.828300 0.000000 0.000000 
#    y 0.000000 1.740410 0.000000 
#    z 0.000000 0.000000 1.775210 
# 
# From -- ./inp_files/1535.got.cif
#   From: 2010.05.17/outbox.cif.g08.bks.cpg/sg64_1_cif.got.tgz:1535.got - 2010.06.03 16:29:19.
