data_PCOD9481131
_publ_section_title
;
Structure prediction by ZEFSAII (Michael W. Deem and Ramdas Pophale) SiO2 
 PCOD9481131
Probable space group: C M C A
;
_chemical_formula_sum "Si O2"
_cell_formula_units_Z 72
_cell_length_a 15.184535
_cell_length_b 25.883745
_cell_length_c 7.466749
_cell_angle_alpha 90.000000
_cell_angle_beta 90.000000
_cell_angle_gamma 90.000000
_cell_volume 2934.676011
_symmetry_space_group_name_H-M "C M C A"
_symmetry_group_IT_number 64
_symmetry_cell_setting 'orthorhombic'
loop_
_space_group_symop_operation_xyz
x,y,z
-x,1/2-y,1/2+z
x,-y,-z
-x,1/2+y,1/2-z
-x,-y,-z
x,1/2+y,1/2-z
-x,y,z
x,1/2-y,1/2+z
1/2+x,1/2+y,z
1/2-x,-y,1/2+z
1/2+x,1/2-y,-z
1/2-x,y,1/2-z
1/2-x,1/2-y,-z
1/2+x,y,1/2-z
1/2-x,1/2+y,z
1/2+x,-y,1/2+z
loop_
_atom_site_type_symbol
_atom_site_label
_atom_site_fract_x
_atom_site_fract_y
_atom_site_fract_z
Si Si1 0.804581 0.703410 0.921546
Si Si2 0.325997 0.898484 0.915185
Si Si3 0.840634 0.440666 0.509089
Si Si4 0.000000 0.126510 0.948448
Si Si5 0.000000 0.351913 0.868179
Si Si6 0.500000 0.767845 0.235838
O O1 0.750000 0.684535 0.750000
O O2 0.904182 0.722443 0.864352
O O3 0.750000 0.750000 0.000000
O O4 0.788545 0.659290 0.070060
O O5 0.262863 0.933391 0.036071
O O6 0.337188 0.922526 0.718294
O O7 0.421462 0.879690 0.973584
O O8 0.867200 0.500000 0.500000
O O9 0.910675 0.405022 0.406830
O O10 0.000000 0.184593 0.876025
O O11 0.000000 0.129035 0.164175
O O12 0.000000 0.289703 0.825111
#
# Coordination Sequence:
#
# PCOD9481131 Si02
#       6
#    16  16  16   8   8   8
#     4  12  28  44  73 111 154 206 250 304 380 467
#     4  10  23  44  69 105 142 185 248 309 369 448
#     4  10  22  44  76 100 137 193 255 315 377 439
#     4  10  23  44  71 103 142 193 248 312 380 459
#     4  10  23  41  74 104 149 196 236 299 388 467
#     4  12  27  43  70 109 158 196 247 301 386 468
#
# _framework density 24.534226
#
# number of rings (size 3 to 8) (size 9 to 14) (size 15 to 20)
#    0.000    1.333    0.000    3.667   18.667    0.000 
#   12.000    0.556    0.000    0.000    0.000    0.000 
#    0.000    0.000    0.000    0.000    0.000    0.000 
#
# Total GULP energy -200438.922450 kJ/mol
# GULP energy per Si atom -5567.747846 kJ/mol
# Density = 2.447838 g / cm^3
# Si number density = 24.534226 Si / 1000 Ang^3
#
#
#
# Elastic Constant Matrix: (Units=GPa)
#
#
# Indices 1 2 3 4 5 6 
#
# 1 137.8320 61.5736 58.6806 0.0000 0.0000 0.0000
# 2 61.5736 117.0945 19.2141 0.0000 0.0000 0.0000
# 3 58.6806 19.2141 82.7266 0.0000 0.0000 0.0000
# 4 0.0000 0.0000 0.0000 32.6231 0.0000 0.0000
# 5 0.0000 0.0000 0.0000 0.0000 16.0321 0.0000
# 6 0.0000 0.0000 0.0000 0.0000 0.0000 29.1591
#
#
#
# Elastic Compliance Matrix: (Units=1/GPa)
#
#
# Indices 1 2 3 4 5 6 
#
# 1 0.013193 -0.005616 -0.008054 0.000000 0.000000 0.000000
# 2 -0.005616 0.011269 0.001366 0.000000 0.000000 0.000000
# 3 -0.008054 0.001366 0.017483 0.000000 0.000000 0.000000
# 4 0.000000 0.000000 0.000000 0.030653 0.000000 0.000000
# 5 0.000000 0.000000 0.000000 0.000000 0.062375 0.000000
# 6 0.000000 0.000000 0.000000 0.000000 0.000000 0.034295
#
#
# Mechanical properties :
#
#
# Convention : Reuss Voigt Hill
#
# Bulk Modulus (GPa) = 57.67529 68.50996 63.09263
# Shear Modulus (GPa) = 25.04333 28.77518 26.90926
#
# Velocity S-wave (km/s) = 3.19839 3.42842 3.31540
# Velocity P-wave (km/s) = 6.09907 6.60734 6.35829
#
# Compressibility (1/GPa) = 0.01733845
#
# Stress axis : x y z
#
# Youngs Moduli (GPa) = 75.79919 88.73908 57.19685
#
# Poissons Ratio (x) = 0.49834 0.46065
# Poissons Ratio (y) = 0.42567 -0.07814
# Poissons Ratio (z) = 0.61047 -0.12123
#
# Static dielectric constant tensor:
#      x y z
#    x 5.507700 0.000000 0.000000 
#    y 0.000000 1.863080 0.000000 
#    z 0.000000 0.000000 2.098600 
# 
# From -- ./inp_files/5890.got.cif
#   From: 2010.05.17/outbox.cif.g08.bks.cpg/sg64_3_cif.got.tgz:5890.got - 2010.06.03 16:29:19.
