data_PCOD9481766
_publ_section_title
;
Structure prediction by ZEFSAII (Michael W. Deem and Ramdas Pophale) SiO2 
 PCOD9481766
Probable space group: C M C A
;
_chemical_formula_sum "Si O2"
_cell_formula_units_Z 96
_cell_length_a 13.809379
_cell_length_b 26.890112
_cell_length_c 13.689462
_cell_angle_alpha 90.000000
_cell_angle_beta 90.000000
_cell_angle_gamma 90.000000
_cell_volume 5083.386611
_symmetry_space_group_name_H-M "C M C A"
_symmetry_group_IT_number 64
_symmetry_cell_setting 'orthorhombic'
loop_
_space_group_symop_operation_xyz
x,y,z
-x,1/2-y,1/2+z
x,-y,-z
-x,1/2+y,1/2-z
-x,-y,-z
x,1/2+y,1/2-z
-x,y,z
x,1/2-y,1/2+z
1/2+x,1/2+y,z
1/2-x,-y,1/2+z
1/2+x,1/2-y,-z
1/2-x,y,1/2-z
1/2-x,1/2-y,-z
1/2+x,y,1/2-z
1/2-x,1/2+y,z
1/2+x,-y,1/2+z
loop_
_atom_site_type_symbol
_atom_site_label
_atom_site_fract_x
_atom_site_fract_y
_atom_site_fract_z
Si Si1 0.694543 0.239626 0.850020
Si Si2 0.797970 0.071922 0.481886
Si Si3 0.500000 0.571329 0.591966
Si Si4 0.000000 0.023325 0.805416
Si Si5 0.500000 0.320686 0.305742
Si Si6 0.289281 0.492602 0.147846
Si Si7 0.192908 0.328552 0.503230
Si Si8 0.000000 0.631758 0.594093
O O1 0.750000 0.250194 0.750000
O O2 0.595250 0.210537 0.830619
O O3 0.762211 0.203685 0.915104
O O4 0.675682 0.289939 0.909713
O O5 0.773862 0.039695 0.386315
O O6 0.770086 0.128965 0.468980
O O7 0.904805 0.064242 0.525785
O O8 0.727665 0.048291 0.564602
O O9 0.500000 0.536627 0.689306
O O10 0.500000 0.627553 0.634175
O O11 0.000000 0.075642 0.864459
O O12 0.098153 0.995944 0.836524
O O13 0.500000 0.334628 0.191695
O O14 0.250000 0.472067 0.250000
O O15 0.094961 0.354930 0.467772
#
# Coordination Sequence:
#
# PCOD9481766 Si02
#       8
#    16  16   8   8   8  16  16   8
#     4  11  23  40  63  92 128 166 210 260 317 373
#     4  11  24  41  65  93 128 169 213 261 328 377
#     4  11  22  39  69  97 123 167 218 273 315 381
#     4  11  22  38  68  97 124 167 217 268 324 375
#     4  11  21  37  65  96 124 162 215 266 311 371
#     4  11  24  41  64  94 131 167 212 268 318 387
#     4  11  23  40  62  93 128 166 209 262 314 383
#     4  11  21  36  66  94 123 162 216 261 322 371
#
# _framework density 18.885047
#
# number of rings (size 3 to 8) (size 9 to 14) (size 15 to 20)
#    0.000    1.000    6.667    0.500    0.000    5.333 
#    0.000    0.833    0.000    2.000    0.000    0.000 
#    0.000    0.000    0.000    0.000    0.000    0.000 
#
# Total GULP energy -268211.022714 kJ/mol
# GULP energy per Si atom -5587.729640 kJ/mol
# Density = 1.884206 g / cm^3
# Si number density = 18.885047 Si / 1000 Ang^3
#
#
#
# Elastic Constant Matrix: (Units=GPa)
#
#
# Indices 1 2 3 4 5 6 
#
# 1 138.6046 12.6979 29.7320 0.0000 0.0000 0.0000
# 2 12.6979 72.6350 24.7059 0.0000 0.0000 0.0000
# 3 29.7320 24.7059 63.0034 0.0000 0.0000 0.0000
# 4 0.0000 0.0000 0.0000 24.4063 0.0000 0.0000
# 5 0.0000 0.0000 0.0000 0.0000 12.0025 0.0000
# 6 0.0000 0.0000 0.0000 0.0000 0.0000 -3.4244
#
#
#
# Elastic Compliance Matrix: (Units=1/GPa)
#
#
# Indices 1 2 3 4 5 6 
#
# 1 0.008028 -0.000133 -0.003737 0.000000 0.000000 0.000000
# 2 -0.000133 0.015889 -0.006168 0.000000 0.000000 0.000000
# 3 -0.003737 -0.006168 0.020054 0.000000 0.000000 0.000000
# 4 0.000000 0.000000 0.000000 0.040973 0.000000 0.000000
# 5 0.000000 0.000000 0.000000 0.000000 0.083316 0.000000
# 6 0.000000 0.000000 0.000000 0.000000 0.000000 -0.292024
#
#
# Mechanical properties :
#
#
# Convention : Reuss Voigt Hill
#
# Bulk Modulus (GPa) = 41.84650 45.39051 43.61850
# Shear Modulus (GPa) = -52.23389 20.40403 -15.91493
#
# Velocity S-wave (km/s) = -5.26487 3.29056 -2.90612
# Velocity P-wave (km/s) = 3.84082 6.20680 3.44764
#
# Compressibility (1/GPa) = 0.02389686
#
# Stress axis : x y z
#
# Youngs Moduli (GPa) = 124.55656 62.93820 49.86471
#
# Poissons Ratio (x) = 0.00834 0.18633
# Poissons Ratio (y) = 0.01650 0.30756
# Poissons Ratio (z) = 0.46544 0.38820
#
# Static dielectric constant tensor:
#      x y z
#    x 1.651040 0.000000 0.000000 
#    y 0.000000 1.643040 0.000000 
#    z 0.000000 0.000000 1.638540 
# 
# From -- ./inp_files/22704.got.cif
#   From: 2010.05.17/outbox.cif.g08.bks.cpg/sg64_12_cif.got.tgz:22704.got - 2010.06.03 16:29:19.
