data_PCOD9481586
_publ_section_title
;
Structure prediction by ZEFSAII (Michael W. Deem and Ramdas Pophale) SiO2 
 PCOD9481586
Probable space group: C M C A
;
_chemical_formula_sum "Si O2"
_cell_formula_units_Z 56
_cell_length_a 24.310450
_cell_length_b 8.106247
_cell_length_c 11.674883
_cell_angle_alpha 90.000000
_cell_angle_beta 90.000000
_cell_angle_gamma 90.000000
_cell_volume 2300.728475
_symmetry_space_group_name_H-M "C M C A"
_symmetry_group_IT_number 64
_symmetry_cell_setting 'orthorhombic'
loop_
_space_group_symop_operation_xyz
x,y,z
-x,1/2-y,1/2+z
x,-y,-z
-x,1/2+y,1/2-z
-x,-y,-z
x,1/2+y,1/2-z
-x,y,z
x,1/2-y,1/2+z
1/2+x,1/2+y,z
1/2-x,-y,1/2+z
1/2+x,1/2-y,-z
1/2-x,y,1/2-z
1/2-x,1/2-y,-z
1/2+x,y,1/2-z
1/2-x,1/2+y,z
1/2+x,-y,1/2+z
loop_
_atom_site_type_symbol
_atom_site_label
_atom_site_fract_x
_atom_site_fract_y
_atom_site_fract_z
Si Si1 0.604533 0.097359 0.615265
Si Si2 0.063213 0.030985 0.346840
Si Si3 0.850635 0.500000 0.000000
Si Si4 0.280198 0.756418 0.874290
O O1 0.578096 0.279643 0.623867
O O2 0.670767 0.122062 0.628508
O O3 0.594266 0.000000 0.500000
O O4 0.578222 0.994567 0.716487
O O5 0.104411 0.911421 0.418105
O O6 0.000000 0.994705 0.369176
O O7 0.812613 0.574559 0.098821
O O8 0.250000 0.758024 0.750000
O O9 0.250000 0.750000 0.000000
#
# Coordination Sequence:
#
# PCOD9481586 Si02
#       4
#    16  16   8  16
#     4  11  28  48  74 110 154 195 258 317 374 471
#     4  11  25  47  76 107 152 203 253 313 386 450
#     4  10  25  42  72 108 146 188 253 312 364 458
#     4  11  26  46  77 109 154 205 254 316 389 459
#
# _framework density 24.340116999999999
#
# number of rings (size 3 to 8) (size 9 to 14) (size 15 to 20)
#    0.000    1.143    0.000    3.000   18.000    3.429 
#    0.000    0.000    0.000    0.000    0.000    0.000 
#    0.000    0.000    0.000    0.000    0.000    0.000 
#
# Total GULP energy -156053.816566 kJ/mol
# GULP energy per Si atom -5573.350592 kJ/mol
# Density = 2.428472 g / cm^3
# Si number density = 24.340117 Si / 1000 Ang^3
#
#
#
# Elastic Constant Matrix: (Units=GPa)
#
#
# Indices 1 2 3 4 5 6 
#
# 1 113.3172 -7.8194 62.7931 0.0000 0.0000 0.0000
# 2 -7.8194 73.5357 52.1815 0.0000 0.0000 0.0000
# 3 62.7931 52.1815 246.0245 0.0000 0.0000 0.0000
# 4 0.0000 0.0000 0.0000 49.1836 0.0000 0.0000
# 5 0.0000 0.0000 0.0000 0.0000 10.7955 0.0000
# 6 0.0000 0.0000 0.0000 0.0000 0.0000 16.4114
#
#
#
# Elastic Compliance Matrix: (Units=1/GPa)
#
#
# Indices 1 2 3 4 5 6 
#
# 1 0.011094 0.003754 -0.003628 0.000000 0.000000 0.000000
# 2 0.003754 0.017278 -0.004623 0.000000 0.000000 0.000000
# 3 -0.003628 -0.004623 0.005971 0.000000 0.000000 0.000000
# 4 0.000000 0.000000 0.000000 0.020332 0.000000 0.000000
# 5 0.000000 0.000000 0.000000 0.000000 0.092631 0.000000
# 6 0.000000 0.000000 0.000000 0.000000 0.000000 0.060933
#
#
# Mechanical properties :
#
#
# Convention : Reuss Voigt Hill
#
# Bulk Modulus (GPa) = 39.44727 71.90975 55.67851
# Shear Modulus (GPa) = 22.15494 36.99291 29.57392
#
# Velocity S-wave (km/s) = 3.02026 3.90273 3.48951
# Velocity P-wave (km/s) = 5.32959 7.06515 6.25783
#
# Compressibility (1/GPa) = 0.02535030
#
# Stress axis : x y z
#
# Youngs Moduli (GPa) = 90.13789 57.87562 167.47442
#
# Poissons Ratio (x) = -0.21726 0.60756
# Poissons Ratio (y) = -0.33838 0.77421
# Poissons Ratio (z) = 0.32700 0.26755
#
# Static dielectric constant tensor:
#      x y z
#    x 2.063100 0.000000 0.000000 
#    y 0.000000 1.732550 0.000000 
#    z 0.000000 0.000000 1.993840 
# 
# From -- ./inp_files/18843.got.cif
#   From: 2010.05.17/outbox.cif.g08.bks.cpg/sg64_10_cif.got.tgz:18843.got - 2010.06.03 16:29:19.
