data_PCOD9481666
_publ_section_title
;
Structure prediction by ZEFSAII (Michael W. Deem and Ramdas Pophale) SiO2 
 PCOD9481666
Probable space group: C M C A
;
_chemical_formula_sum "Si O2"
_cell_formula_units_Z 80
_cell_length_a 10.225304
_cell_length_b 20.720643
_cell_length_c 21.116332
_cell_angle_alpha 90.000000
_cell_angle_beta 90.000000
_cell_angle_gamma 90.000000
_cell_volume 4474.020177
_symmetry_space_group_name_H-M "C M C A"
_symmetry_group_IT_number 64
_symmetry_cell_setting 'orthorhombic'
loop_
_space_group_symop_operation_xyz
x,y,z
-x,1/2-y,1/2+z
x,-y,-z
-x,1/2+y,1/2-z
-x,-y,-z
x,1/2+y,1/2-z
-x,y,z
x,1/2-y,1/2+z
1/2+x,1/2+y,z
1/2-x,-y,1/2+z
1/2+x,1/2-y,-z
1/2-x,y,1/2-z
1/2-x,1/2-y,-z
1/2+x,y,1/2-z
1/2-x,1/2+y,z
1/2+x,-y,1/2+z
loop_
_atom_site_type_symbol
_atom_site_label
_atom_site_fract_x
_atom_site_fract_y
_atom_site_fract_z
Si Si1 0.337326 0.666833 0.186486
Si Si2 0.500000 0.390892 0.513381
Si Si3 0.000000 0.104192 0.018736
Si Si4 0.000000 0.973801 0.102138
Si Si5 0.500000 0.016785 0.900087
Si Si6 0.753664 0.808603 0.950145
Si Si7 0.740289 0.984373 0.676514
O O1 0.500000 0.671974 0.192856
O O2 0.250000 0.682398 0.250000
O O3 0.281822 0.705397 0.124768
O O4 0.300566 0.591538 0.171912
O O5 0.500000 0.416335 0.440319
O O6 0.500000 0.457255 0.551590
O O7 0.375761 0.349723 0.535475
O O8 0.874370 0.145773 0.033246
O O9 0.000000 0.039653 0.060778
O O10 0.000000 0.083902 0.946396
O O11 0.873305 0.975304 0.144551
O O12 0.627189 0.004235 0.857893
O O13 0.750000 0.750000 0.000000
O O14 0.750000 0.998314 0.750000
#
# Coordination Sequence:
#
# PCOD9481666 Si02
#       7
#    16   8   8   8   8  16  16
#     4  11  23  39  60  90 125 155 202 257 310 358
#     4  11  23  36  58  89 120 160 191 247 315 352
#     4  11  21  38  58  87 116 156 195 241 313 350
#     4  11  19  36  60  81 120 150 191 249 299 376
#     4  11  21  36  54  87 128 148 193 247 303 382
#     4  12  23  40  62  90 122 157 209 255 295 360
#     4  11  20  32  55  85 121 153 194 247 306 360
#
# _framework density 17.881011000000001
#
# number of rings (size 3 to 8) (size 9 to 14) (size 15 to 20)
#    0.000    0.800    6.000    2.400    5.600    3.200 
#    0.000    0.000    0.000    7.200    0.000    0.000 
#    0.000    0.000    0.000    0.000    0.000    0.000 
#
# Total GULP energy -222991.098046 kJ/mol
# GULP energy per Si atom -5574.777451 kJ/mol
# Density = 1.784031 g / cm^3
# Si number density = 17.881011 Si / 1000 Ang^3
#
#
#
# Elastic Constant Matrix: (Units=GPa)
#
#
# Indices 1 2 3 4 5 6 
#
# 1 184.6583 32.5529 72.5250 0.0000 0.0000 0.0000
# 2 32.5529 35.2551 38.3597 0.0000 0.0000 0.0000
# 3 72.5250 38.3597 172.1117 0.0000 0.0000 0.0000
# 4 0.0000 0.0000 0.0000 32.0801 0.0000 0.0000
# 5 0.0000 0.0000 0.0000 0.0000 36.0590 0.0000
# 6 0.0000 0.0000 0.0000 0.0000 0.0000 -49.1529
#
#
#
# Elastic Compliance Matrix: (Units=1/GPa)
#
#
# Indices 1 2 3 4 5 6 
#
# 1 0.006943 -0.004261 -0.001976 0.000000 0.000000 0.000000
# 2 -0.004261 0.040060 -0.007133 0.000000 0.000000 0.000000
# 3 -0.001976 -0.007133 0.008233 0.000000 0.000000 0.000000
# 4 0.000000 0.000000 0.000000 0.031172 0.000000 0.000000
# 5 0.000000 0.000000 0.000000 0.000000 0.027732 0.000000
# 6 0.000000 0.000000 0.000000 0.000000 0.000000 -0.020345
#
#
# Mechanical properties :
#
#
# Convention : Reuss Voigt Hill
#
# Bulk Modulus (GPa) = 35.09269 75.43336 55.26303
# Shear Modulus (GPa) = 38.45200 20.36973 29.41087
#
# Velocity S-wave (km/s) = 4.64231 3.37884 4.06003
# Velocity P-wave (km/s) = 6.95723 7.58287 7.27678
#
# Compressibility (1/GPa) = 0.02849596
#
# Stress axis : x y z
#
# Youngs Moduli (GPa) = 144.03993 24.96266 121.46848
#
# Poissons Ratio (x) = 0.10635 0.24001
# Poissons Ratio (y) = 0.61368 0.86645
# Poissons Ratio (z) = 0.28461 0.17806
#
# Static dielectric constant tensor:
#      x y z
#    x 1.623290 0.000000 0.000000 
#    y 0.000000 1.590780 0.000000 
#    z 0.000000 0.000000 1.651730 
# 
# From -- ./inp_files/36746.got.cif
#   From: 2010.05.17/outbox.cif.g08.bks.cpg/sg64_19_cif.got.tgz:36746.got - 2010.06.03 16:29:19.
