data_PCOD9481774
_publ_section_title
;
Structure prediction by ZEFSAII (Michael W. Deem and Ramdas Pophale) SiO2 
 PCOD9481774
Probable space group: C M C A
;
_chemical_formula_sum "Si O2"
_cell_formula_units_Z 112
_cell_length_a 29.937135
_cell_length_b 11.760045
_cell_length_c 18.083421
_cell_angle_alpha 90.000000
_cell_angle_beta 90.000000
_cell_angle_gamma 90.000000
_cell_volume 6366.486355
_symmetry_space_group_name_H-M "C M C A"
_symmetry_group_IT_number 64
_symmetry_cell_setting 'orthorhombic'
loop_
_space_group_symop_operation_xyz
x,y,z
-x,1/2-y,1/2+z
x,-y,-z
-x,1/2+y,1/2-z
-x,-y,-z
x,1/2+y,1/2-z
-x,y,z
x,1/2-y,1/2+z
1/2+x,1/2+y,z
1/2-x,-y,1/2+z
1/2+x,1/2-y,-z
1/2-x,y,1/2-z
1/2-x,1/2-y,-z
1/2+x,y,1/2-z
1/2-x,1/2+y,z
1/2+x,-y,1/2+z
loop_
_atom_site_type_symbol
_atom_site_label
_atom_site_fract_x
_atom_site_fract_y
_atom_site_fract_z
Si Si1 0.549765 0.692067 0.994337
Si Si2 0.213738 0.936594 0.578312
Si Si3 0.450166 0.983221 0.623252
Si Si4 0.857129 0.755724 0.551568
Si Si5 0.356392 0.545410 0.835065
Si Si6 0.192210 0.172191 0.096434
Si Si7 0.794622 0.123785 0.703847
O O1 0.500000 0.742944 0.993420
O O2 0.549714 0.588269 0.935041
O O3 0.591430 0.769885 0.973045
O O4 0.556862 0.629248 0.073073
O O5 0.167895 0.866297 0.581428
O O6 0.255478 0.851590 0.583998
O O7 0.216335 0.000000 0.500000
O O8 0.216969 0.027785 0.643615
O O9 0.500000 0.977944 0.656470
O O10 0.407685 0.005517 0.674422
O O11 0.855244 0.655850 0.612182
O O12 0.830295 0.714528 0.478992
O O13 0.330792 0.444171 0.877317
O O14 0.331146 0.575540 0.760188
O O15 0.188088 0.266888 0.159679
O O16 0.750000 0.152242 0.750000
#
# Coordination Sequence:
#
# PCOD9481774 Si02
#       7
#    16  16  16  16  16  16  16
#     4   8  14  27  52  88 118 141 183 240 290 338
#     4  12  25  41  58  82 116 157 195 238 285 353
#     4   8  14  28  53  85 117 145 182 237 292 338
#     4  11  21  37  62  87 114 151 194 243 292 343
#     4  11  22  36  62  87 118 149 192 243 297 342
#     4  12  24  39  58  83 117 150 197 237 289 347
#     4  12  27  41  54  82 118 159 193 237 291 349
#
# _framework density 17.592122
#
# number of rings (size 3 to 8) (size 9 to 14) (size 15 to 20)
#    0.000    1.429    4.286    3.429    4.000    0.000 
#    0.000    0.000    0.000    3.000    0.000    0.000 
#    0.000    0.000    0.000    0.000    0.000    0.000 
#
# Total GULP energy -312637.105453 kJ/mol
# GULP energy per Si atom -5582.805455 kJ/mol
# Density = 1.755208 g / cm^3
# Si number density = 17.592122 Si / 1000 Ang^3
#
#
#
# Elastic Constant Matrix: (Units=GPa)
#
#
# Indices 1 2 3 4 5 6 
#
# 1 91.1049 -17.0415 5.4693 0.0000 0.0000 0.0000
# 2 -17.0415 16.6565 -1.7630 0.0000 0.0000 0.0000
# 3 5.4693 -1.7630 61.0808 0.0000 0.0000 0.0000
# 4 0.0000 0.0000 0.0000 15.7735 0.0000 0.0000
# 5 0.0000 0.0000 0.0000 0.0000 21.3035 0.0000
# 6 0.0000 0.0000 0.0000 0.0000 0.0000 21.4989
#
#
#
# Elastic Compliance Matrix: (Units=1/GPa)
#
#
# Indices 1 2 3 4 5 6 
#
# 1 0.013615 0.013843 -0.000820 0.000000 0.000000 0.000000
# 2 0.013843 0.074295 0.000905 0.000000 0.000000 0.000000
# 3 -0.000820 0.000905 0.016471 0.000000 0.000000 0.000000
# 4 0.000000 0.000000 0.000000 0.063397 0.000000 0.000000
# 5 0.000000 0.000000 0.000000 0.000000 0.046941 0.000000
# 6 0.000000 0.000000 0.000000 0.000000 0.000000 0.046514
#
#
# Mechanical properties :
#
#
# Convention : Reuss Voigt Hill
#
# Bulk Modulus (GPa) = 7.56216 15.79687 11.67952
# Shear Modulus (GPa) = 18.02087 23.86033 20.94060
#
# Velocity S-wave (km/s) = 3.20405 3.68680 3.45387
# Velocity P-wave (km/s) = 4.24215 5.20791 4.74964
#
# Compressibility (1/GPa) = 0.13223740
#
# Stress axis : x y z
#
# Youngs Moduli (GPa) = 73.44896 13.45987 60.71186
#
# Poissons Ratio (x) = -0.18632 0.04976
# Poissons Ratio (y) = -1.01674 -0.05494
# Poissons Ratio (z) = 0.06019 -0.01218
#
# Static dielectric constant tensor:
#      x y z
#    x 1.625950 0.000000 0.000000 
#    y 0.000000 1.581740 0.000000 
#    z 0.000000 0.000000 1.579560 
# 
# From -- ./inp_files/28408.got.cif
#   From: 2010.05.17/outbox.cif.g08.bks.cpg/sg64_15_cif.got.tgz:28408.got - 2010.06.03 16:29:19.
