data_PCOD9481623
_publ_section_title
;
Structure prediction by ZEFSAII (Michael W. Deem and Ramdas Pophale) SiO2 
 PCOD9481623
Probable space group: C M C A
;
_chemical_formula_sum "Si O2"
_cell_formula_units_Z 88
_cell_length_a 22.836962
_cell_length_b 21.171952
_cell_length_c 8.682461
_cell_angle_alpha 90.000000
_cell_angle_beta 90.000000
_cell_angle_gamma 90.000000
_cell_volume 4197.996490
_symmetry_space_group_name_H-M "C M C A"
_symmetry_group_IT_number 64
_symmetry_cell_setting 'orthorhombic'
loop_
_space_group_symop_operation_xyz
x,y,z
-x,1/2-y,1/2+z
x,-y,-z
-x,1/2+y,1/2-z
-x,-y,-z
x,1/2+y,1/2-z
-x,y,z
x,1/2-y,1/2+z
1/2+x,1/2+y,z
1/2-x,-y,1/2+z
1/2+x,1/2-y,-z
1/2-x,y,1/2-z
1/2-x,1/2-y,-z
1/2+x,y,1/2-z
1/2-x,1/2+y,z
1/2+x,-y,1/2+z
loop_
_atom_site_type_symbol
_atom_site_label
_atom_site_fract_x
_atom_site_fract_y
_atom_site_fract_z
Si Si1 0.877518 0.840542 0.324954
Si Si2 0.000000 0.204033 0.209286
Si Si3 0.882593 0.000000 0.000000
Si Si4 0.704516 0.719370 0.116431
Si Si5 0.000000 0.164764 0.556759
Si Si6 0.685666 0.028028 0.821730
Si Si7 0.898303 0.640766 0.479906
O O1 0.844477 0.775009 0.363971
O O2 0.831695 0.898006 0.334243
O O3 0.935339 0.863720 0.417751
O O4 0.899479 0.832112 0.150957
O O5 0.000000 0.277019 0.172746
O O6 0.943333 0.173798 0.131728
O O7 0.000000 0.191421 0.387142
O O8 0.913628 0.932683 0.992044
O O9 0.851742 0.002794 0.828080
O O10 0.750000 0.703255 0.250000
O O11 0.667889 0.657119 0.072733
O O12 0.750000 0.750000 0.000000
O O13 0.750000 0.021142 0.750000
O O14 0.680635 0.000000 0.000000
#
# Coordination Sequence:
#
# PCOD9481623 Si02
#       7
#    16   8   8  16   8  16  16
#     4  11  25  46  68 102 138 184 230 295 355 416
#     4  12  26  43  73 100 135 188 233 295 353 429
#     4  10  26  45  68 104 140 187 234 286 346 430
#     4  12  25  39  66 101 138 175 225 285 345 419
#     4  12  26  44  70 104 141 181 239 293 363 426
#     4  11  24  44  73 102 144 189 235 287 352 427
#     4  11  25  47  70  99 138 181 234 286 355 413
#
# _framework density 20.96238
#
# number of rings (size 3 to 8) (size 9 to 14) (size 15 to 20)
#    0.000    0.727    4.545    2.182    7.636    1.091 
#    0.000    1.364    0.000    0.000    0.000    0.000 
#    0.000    0.000    0.000    0.000    0.000    0.000 
#
# Total GULP energy -245028.129933 kJ/mol
# GULP energy per Si atom -5568.821135 kJ/mol
# Density = 2.091467 g / cm^3
# Si number density = 20.962380 Si / 1000 Ang^3
#
#
#
# Elastic Constant Matrix: (Units=GPa)
#
#
# Indices 1 2 3 4 5 6 
#
# 1 65.9398 7.6290 16.5497 0.0000 0.0000 0.0000
# 2 7.6290 58.7247 -4.5814 0.0000 0.0000 0.0000
# 3 16.5497 -4.5814 120.1616 0.0000 0.0000 0.0000
# 4 0.0000 0.0000 0.0000 66.2136 0.0000 0.0000
# 5 0.0000 0.0000 0.0000 0.0000 33.7671 0.0000
# 6 0.0000 0.0000 0.0000 0.0000 0.0000 8.3065
#
#
#
# Elastic Compliance Matrix: (Units=1/GPa)
#
#
# Indices 1 2 3 4 5 6 
#
# 1 0.016001 -0.002257 -0.002290 0.000000 0.000000 0.000000
# 2 -0.002257 0.017398 0.000974 0.000000 0.000000 0.000000
# 3 -0.002290 0.000974 0.008675 0.000000 0.000000 0.000000
# 4 0.000000 0.000000 0.000000 0.015103 0.000000 0.000000
# 5 0.000000 0.000000 0.000000 0.000000 0.029615 0.000000
# 6 0.000000 0.000000 0.000000 0.000000 0.000000 0.120388
#
#
# Mechanical properties :
#
#
# Convention : Reuss Voigt Hill
#
# Bulk Modulus (GPa) = 28.63060 31.55786 30.09423
# Shear Modulus (GPa) = 22.12705 36.67268 29.39986
#
# Velocity S-wave (km/s) = 3.25246 4.18718 3.74907
# Velocity P-wave (km/s) = 5.27185 6.20192 5.75571
#
# Compressibility (1/GPa) = 0.03492767
#
# Stress axis : x y z
#
# Youngs Moduli (GPa) = 62.49517 57.47832 115.27829
#
# Poissons Ratio (x) = 0.12975 0.26398
# Poissons Ratio (y) = 0.14108 -0.11231
# Poissons Ratio (z) = 0.14311 -0.05600
#
# Static dielectric constant tensor:
#      x y z
#    x 1.815850 0.000000 0.000000 
#    y 0.000000 1.767190 0.000000 
#    z 0.000000 0.000000 1.751630 
# 
# From -- ./inp_files/8287.got.cif
#   From: 2010.05.17/outbox.cif.g08.bks.cpg/sg64_5_cif.got.tgz:8287.got - 2010.06.03 16:29:19.
