data_PCOD9481139
_publ_section_title
;
Structure prediction by ZEFSAII (Michael W. Deem and Ramdas Pophale) SiO2 
 PCOD9481139
Probable space group: C M C A
;
_chemical_formula_sum "Si O2"
_cell_formula_units_Z 88
_cell_length_a 13.290148
_cell_length_b 25.797714
_cell_length_c 14.945930
_cell_angle_alpha 90.000000
_cell_angle_beta 90.000000
_cell_angle_gamma 90.000000
_cell_volume 5124.293363
_symmetry_space_group_name_H-M "C M C A"
_symmetry_group_IT_number 64
_symmetry_cell_setting 'orthorhombic'
loop_
_space_group_symop_operation_xyz
x,y,z
-x,1/2-y,1/2+z
x,-y,-z
-x,1/2+y,1/2-z
-x,-y,-z
x,1/2+y,1/2-z
-x,y,z
x,1/2-y,1/2+z
1/2+x,1/2+y,z
1/2-x,-y,1/2+z
1/2+x,1/2-y,-z
1/2-x,y,1/2-z
1/2-x,1/2-y,-z
1/2+x,y,1/2-z
1/2-x,1/2+y,z
1/2+x,-y,1/2+z
loop_
_atom_site_type_symbol
_atom_site_label
_atom_site_fract_x
_atom_site_fract_y
_atom_site_fract_z
Si Si1 0.500000 0.561004 0.897745
Si Si2 0.678075 0.133814 0.668314
Si Si3 0.500000 0.789031 0.289399
Si Si4 0.500000 0.214176 0.357504
Si Si5 0.675514 0.863120 0.666775
Si Si6 0.000000 0.060038 0.112297
Si Si7 0.000000 0.225996 0.469672
Si Si8 0.782676 0.688822 0.998630
O O1 0.398013 0.588814 0.863963
O O2 0.500000 0.501019 0.869768
O O3 0.500000 0.566388 0.005052
O O4 0.750000 0.118238 0.750000
O O5 0.600305 0.178184 0.697808
O O6 0.743543 0.159710 0.589448
O O7 0.500000 0.768899 0.189159
O O8 0.500000 0.745640 0.367452
O O9 0.597093 0.184141 0.322143
O O10 0.500000 0.223028 0.464404
O O11 0.750000 0.870429 0.750000
O O12 0.600468 0.911329 0.648429
O O13 0.737996 0.844269 0.580655
O O14 0.901746 0.193226 0.491414
O O15 0.750000 0.750000 0.000000
#
# Coordination Sequence:
#
# PCOD9481139 Si02
#       8
#     8  16   8   8  16   8   8  16
#     4  10  22  45  71  89 113 156 214 270 310 365
#     4  11  23  37  59  91 122 159 206 255 304 365
#     4  11  21  33  51  79 120 163 209 229 281 362
#     4  11  21  33  51  79 120 163 209 229 281 362
#     4  11  23  37  59  91 122 159 206 255 304 365
#     4  10  22  45  71  89 113 156 214 270 310 365
#     4  12  22  32  52  78 116 180 204 234 276 352
#     4  12  22  36  56  81 130 170 203 245 297 357
#
# _framework density 17.173099000000001
#
# number of rings (size 3 to 8) (size 9 to 14) (size 15 to 20)
#    0.000    0.909    5.455    2.182    2.545    2.182 
#    0.000    0.000    0.000    0.000    0.000    2.545 
#    0.000    0.000    0.000    0.000    0.000    0.000 
#
# Total GULP energy -245559.988111 kJ/mol
# GULP energy per Si atom -5580.908821 kJ/mol
# Density = 1.713401 g / cm^3
# Si number density = 17.173099 Si / 1000 Ang^3
#
#
#
# Elastic Constant Matrix: (Units=GPa)
#
#
# Indices 1 2 3 4 5 6 
#
# 1 149.3285 47.2564 39.3202 0.0000 0.0000 0.0000
# 2 47.2564 77.0258 36.2627 0.0000 0.0000 0.0000
# 3 39.3202 36.2627 84.0930 0.0000 0.0000 0.0000
# 4 0.0000 0.0000 0.0000 20.5911 0.0000 0.0000
# 5 0.0000 0.0000 0.0000 0.0000 31.5704 0.0000
# 6 0.0000 0.0000 0.0000 0.0000 0.0000 33.1661
#
#
#
# Elastic Compliance Matrix: (Units=1/GPa)
#
#
# Indices 1 2 3 4 5 6 
#
# 1 0.008622 -0.004256 -0.002196 0.000000 0.000000 0.000000
# 2 -0.004256 0.018390 -0.005940 0.000000 0.000000 0.000000
# 3 -0.002196 -0.005940 0.015480 0.000000 0.000000 0.000000
# 4 0.000000 0.000000 0.000000 0.048565 0.000000 0.000000
# 5 0.000000 0.000000 0.000000 0.000000 0.031675 0.000000
# 6 0.000000 0.000000 0.000000 0.000000 0.000000 0.030151
#
#
# Mechanical properties :
#
#
# Convention : Reuss Voigt Hill
#
# Bulk Modulus (GPa) = 56.47302 61.79175 59.13239
# Shear Modulus (GPa) = 27.23753 29.57270 28.40512
#
# Velocity S-wave (km/s) = 3.98686 4.15424 4.07141
# Velocity P-wave (km/s) = 7.35862 7.68571 7.52394
#
# Compressibility (1/GPa) = 0.01770757
#
# Stress axis : x y z
#
# Youngs Moduli (GPa) = 115.98708 54.37685 64.59887
#
# Poissons Ratio (x) = 0.23140 0.14187
# Poissons Ratio (y) = 0.49359 0.38375
# Poissons Ratio (z) = 0.25473 0.32302
#
# Static dielectric constant tensor:
#      x y z
#    x 1.619530 0.000000 0.000000 
#    y 0.000000 1.568560 0.000000 
#    z 0.000000 0.000000 1.405070 
# 
# From -- ./inp_files/22485.got.cif
#   From: 2010.05.17/outbox.cif.g08.bks.cpg/sg64_12_cif.got.tgz:22485.got - 2010.06.03 16:29:19.
