data_PCOD9481885
_publ_section_title
;
Structure prediction by ZEFSAII (Michael W. Deem and Ramdas Pophale) SiO2 
 PCOD9481885
Probable space group: C M C A
;
_chemical_formula_sum "Si O2"
_cell_formula_units_Z 88
_cell_length_a 22.197381
_cell_length_b 12.695486
_cell_length_c 14.099413
_cell_angle_alpha 90.000000
_cell_angle_beta 90.000000
_cell_angle_gamma 90.000000
_cell_volume 3973.306790
_symmetry_space_group_name_H-M "C M C A"
_symmetry_group_IT_number 64
_symmetry_cell_setting 'orthorhombic'
loop_
_space_group_symop_operation_xyz
x,y,z
-x,1/2-y,1/2+z
x,-y,-z
-x,1/2+y,1/2-z
-x,-y,-z
x,1/2+y,1/2-z
-x,y,z
x,1/2-y,1/2+z
1/2+x,1/2+y,z
1/2-x,-y,1/2+z
1/2+x,1/2-y,-z
1/2-x,y,1/2-z
1/2-x,1/2-y,-z
1/2+x,y,1/2-z
1/2-x,1/2+y,z
1/2+x,-y,1/2+z
loop_
_atom_site_type_symbol
_atom_site_label
_atom_site_fract_x
_atom_site_fract_y
_atom_site_fract_z
Si Si1 0.500000 0.421427 0.713094
Si Si2 0.806220 0.000000 0.500000
Si Si3 0.091175 0.068427 0.805844
Si Si4 0.000000 0.725174 0.601378
Si Si5 0.364007 0.832650 0.141443
Si Si6 0.715041 0.662165 0.057691
Si Si7 0.874168 0.000000 0.000000
Si Si8 0.000000 0.245115 0.116500
O O1 0.556127 0.497556 0.729243
O O2 0.500000 0.349734 0.620040
O O3 0.500000 0.339193 0.799649
O O4 0.843737 0.915013 0.439820
O O5 0.762987 0.932495 0.571980
O O6 0.145361 0.114382 0.744527
O O7 0.094862 0.995948 0.898784
O O8 0.055503 0.169258 0.846182
O O9 0.000000 0.700155 0.490427
O O10 0.323459 0.726764 0.134532
O O11 0.435195 0.804440 0.127419
O O12 0.750000 0.750000 0.000000
O O13 0.665502 0.604838 0.992729
#
# Coordination Sequence:
#
# PCOD9481885 Si02
#       8
#     8   8  16   8  16  16   8   8
#     4  11  22  40  56  90 139 170 220 263 317 419
#     4   9  22  41  66  95 134 182 222 269 342 397
#     4  11  23  39  61  95 128 175 223 270 330 400
#     4  11  23  38  59  89 137 179 215 258 330 410
#     4  11  22  41  65  99 136 167 221 282 328 407
#     4   9  20  44  67  91 129 172 224 277 329 390
#     4  11  22  41  68  90 120 173 224 275 330 397
#     4  12  23  40  67  96 135 179 207 274 343 391
#
# _framework density 22.147798999999999
#
# number of rings (size 3 to 8) (size 9 to 14) (size 15 to 20)
#    0.000    1.455    1.818    3.818    2.545    1.818 
#    0.000   10.000    0.000    0.000    0.000    0.000 
#    0.000    0.000    0.000    0.000    0.000    0.000 
#
# Total GULP energy -245167.886974 kJ/mol
# GULP energy per Si atom -5571.997431 kJ/mol
# Density = 2.209739 g / cm^3
# Si number density = 22.147799 Si / 1000 Ang^3
#
#
#
# Elastic Constant Matrix: (Units=GPa)
#
#
# Indices 1 2 3 4 5 6 
#
# 1 75.0348 35.4948 14.4046 0.0000 0.0000 0.0000
# 2 35.4948 107.7858 14.5114 0.0000 0.0000 0.0000
# 3 14.4046 14.5114 80.8142 0.0000 0.0000 0.0000
# 4 0.0000 0.0000 0.0000 41.0906 0.0000 0.0000
# 5 0.0000 0.0000 0.0000 0.0000 -4.1813 0.0000
# 6 0.0000 0.0000 0.0000 0.0000 0.0000 19.0353
#
#
#
# Elastic Compliance Matrix: (Units=1/GPa)
#
#
# Indices 1 2 3 4 5 6 
#
# 1 0.016085 -0.005032 -0.001963 0.000000 0.000000 0.000000
# 2 -0.005032 0.011082 -0.001093 0.000000 0.000000 0.000000
# 3 -0.001963 -0.001093 0.012920 0.000000 0.000000 0.000000
# 4 0.000000 0.000000 0.000000 0.024336 0.000000 0.000000
# 5 0.000000 0.000000 0.000000 0.000000 -0.239163 0.000000
# 6 0.000000 0.000000 0.000000 0.000000 0.000000 0.052534
#
#
# Mechanical properties :
#
#
# Convention : Reuss Voigt Hill
#
# Bulk Modulus (GPa) = 41.82446 43.60627 42.71536
# Shear Modulus (GPa) = -50.99014 24.47054 -13.25980
#
# Velocity S-wave (km/s) = -4.80340 3.32757 -2.44948
# Velocity P-wave (km/s) = 3.44068 5.87326 3.36577
#
# Compressibility (1/GPa) = 0.02390945
#
# Stress axis : x y z
#
# Youngs Moduli (GPa) = 62.17108 90.23603 77.39784
#
# Poissons Ratio (x) = 0.45411 0.15196
# Poissons Ratio (y) = 0.31288 0.08459
# Poissons Ratio (z) = 0.12206 0.09862
#
# Static dielectric constant tensor:
#      x y z
#    x 1.884850 0.000000 0.000000 
#    y 0.000000 1.842590 0.000000 
#    z 0.000000 0.000000 1.845920 
# 
# From -- ./inp_files/27261.got.cif
#   From: 2010.05.17/outbox.cif.g08.bks.cpg/sg64_14_cif.got.tgz:27261.got - 2010.06.03 16:29:19.
