data_PCOD9481728
_publ_section_title
;
Structure prediction by ZEFSAII (Michael W. Deem and Ramdas Pophale) SiO2 
 PCOD9481728
Probable space group: C M C A
;
_chemical_formula_sum "Si O2"
_cell_formula_units_Z 64
_cell_length_a 20.789691
_cell_length_b 13.697440
_cell_length_c 8.475445
_cell_angle_alpha 90.000000
_cell_angle_beta 90.000000
_cell_angle_gamma 90.000000
_cell_volume 2413.514715
_symmetry_space_group_name_H-M "C M C A"
_symmetry_group_IT_number 64
_symmetry_cell_setting 'orthorhombic'
loop_
_space_group_symop_operation_xyz
x,y,z
-x,1/2-y,1/2+z
x,-y,-z
-x,1/2+y,1/2-z
-x,-y,-z
x,1/2+y,1/2-z
-x,y,z
x,1/2-y,1/2+z
1/2+x,1/2+y,z
1/2-x,-y,1/2+z
1/2+x,1/2-y,-z
1/2-x,y,1/2-z
1/2-x,1/2-y,-z
1/2+x,y,1/2-z
1/2-x,1/2+y,z
1/2+x,-y,1/2+z
loop_
_atom_site_type_symbol
_atom_site_label
_atom_site_fract_x
_atom_site_fract_y
_atom_site_fract_z
Si Si1 0.241348 0.109680 0.060987
Si Si2 0.107487 0.545009 0.351770
Si Si3 0.147027 0.353376 0.165238
Si Si4 0.929373 0.210389 0.370021
O O1 0.250000 0.125257 0.250000
O O2 0.164463 0.105888 0.062069
O O3 0.285991 0.165234 0.931522
O O4 0.258331 0.000000 0.000000
O O5 0.071424 0.500000 0.500000
O O6 0.138937 0.461420 0.239765
O O7 0.068960 0.618949 0.246919
O O8 0.127028 0.277980 0.300723
O O9 0.092191 0.333882 0.035706
O O10 0.000000 0.257598 0.378347
#
# Coordination Sequence:
#
# PCOD9481728 Si02
#       4
#    16  16  16  16
#     4  11  20  42  72 108 147 187 241 312 387 467
#     4  11  25  45  75 105 146 195 250 317 391 454
#     4  12  25  47  72 107 151 198 252 320 382 455
#     4  12  27  46  70 104 148 202 263 313 369 453
#
# _framework density 26.517343
#
# number of rings (size 3 to 8) (size 9 to 14) (size 15 to 20)
#    0.000    0.500    5.000    3.000    0.000    4.500 
#    0.000    2.500    0.000    1.500    0.000    0.000 
#    0.000    0.000    0.000    0.000    0.000    0.000 
#
# Total GULP energy -178845.782529 kJ/mol
# GULP energy per Si atom -5588.930704 kJ/mol
# Density = 2.645699 g / cm^3
# Si number density = 26.517343 Si / 1000 Ang^3
#
#
#
# Elastic Constant Matrix: (Units=GPa)
#
#
# Indices 1 2 3 4 5 6 
#
# 1 137.9695 40.4035 64.3854 0.0000 0.0000 0.0000
# 2 40.4035 91.7512 63.8284 0.0000 0.0000 0.0000
# 3 64.3854 63.8284 200.7592 0.0000 0.0000 0.0000
# 4 0.0000 0.0000 0.0000 60.4044 0.0000 0.0000
# 5 0.0000 0.0000 0.0000 0.0000 -53.8712 0.0000
# 6 0.0000 0.0000 0.0000 0.0000 0.0000 9.3210
#
#
#
# Elastic Compliance Matrix: (Units=1/GPa)
#
#
# Indices 1 2 3 4 5 6 
#
# 1 0.008948 -0.002496 -0.002076 0.000000 0.000000 0.000000
# 2 -0.002496 0.014690 -0.003870 0.000000 0.000000 0.000000
# 3 -0.002076 -0.003870 0.006877 0.000000 0.000000 0.000000
# 4 0.000000 0.000000 0.000000 0.016555 0.000000 0.000000
# 5 0.000000 0.000000 0.000000 0.000000 -0.018563 0.000000
# 6 0.000000 0.000000 0.000000 0.000000 0.000000 0.107285
#
#
# Mechanical properties :
#
#
# Convention : Reuss Voigt Hill
#
# Bulk Modulus (GPa) = 73.36094 85.30163 79.33129
# Shear Modulus (GPa) = 31.80238 20.62833 26.21536
#
# Velocity S-wave (km/s) = 3.46686 2.79214 3.14763
# Velocity P-wave (km/s) = 6.61444 6.52938 6.57205
#
# Compressibility (1/GPa) = 0.01363123
#
# Stress axis : x y z
#
# Youngs Moduli (GPa) = 111.76018 68.07122 145.40450
#
# Poissons Ratio (x) = 0.16990 0.30187
# Poissons Ratio (y) = 0.27895 0.56274
# Poissons Ratio (z) = 0.23202 0.26345
#
# Static dielectric constant tensor:
#      x y z
#    x 2.059630 0.000000 0.000000 
#    y 0.000000 2.177550 0.000000 
#    z 0.000000 0.000000 2.084280 
# 
# From -- ./inp_files/8979.got.cif
#   From: 2010.05.17/outbox.cif.g08.bks.cpg/sg64_5_cif.got.tgz:8979.got - 2010.06.03 16:29:19.
