data_PCOD9481701
_publ_section_title
;
Structure prediction by ZEFSAII (Michael W. Deem and Ramdas Pophale) SiO2 
 PCOD9481701
Probable space group: C M C A
;
_chemical_formula_sum "Si O2"
_cell_formula_units_Z 64
_cell_length_a 18.353682
_cell_length_b 33.028069
_cell_length_c 4.826930
_cell_angle_alpha 90.000000
_cell_angle_beta 90.000000
_cell_angle_gamma 90.000000
_cell_volume 2926.020650
_symmetry_space_group_name_H-M "C M C A"
_symmetry_group_IT_number 64
_symmetry_cell_setting 'orthorhombic'
loop_
_space_group_symop_operation_xyz
x,y,z
-x,1/2-y,1/2+z
x,-y,-z
-x,1/2+y,1/2-z
-x,-y,-z
x,1/2+y,1/2-z
-x,y,z
x,1/2-y,1/2+z
1/2+x,1/2+y,z
1/2-x,-y,1/2+z
1/2+x,1/2-y,-z
1/2-x,y,1/2-z
1/2-x,1/2-y,-z
1/2+x,y,1/2-z
1/2-x,1/2+y,z
1/2+x,-y,1/2+z
loop_
_atom_site_type_symbol
_atom_site_label
_atom_site_fract_x
_atom_site_fract_y
_atom_site_fract_z
Si Si1 0.082794 0.471521 0.263716
Si Si2 0.250000 0.282193 0.250000
Si Si3 0.500000 0.277137 0.901565
Si Si4 0.415939 0.389057 0.503684
Si Si5 0.877605 0.836872 0.996347
O O1 0.117548 0.500000 0.500000
O O2 0.114047 0.429725 0.143364
O O3 0.000000 0.461135 0.363890
O O4 0.077013 0.500000 0.000000
O O5 0.250000 0.250000 0.500000
O O6 0.188364 0.313198 0.360639
O O7 0.500000 0.262571 0.216635
O O8 0.429032 0.303739 0.850552
O O9 0.500000 0.396320 0.600327
O O10 0.417906 0.357210 0.254563
O O11 0.369075 0.371134 0.758467
#
# Coordination Sequence:
#
# PCOD9481701 Si02
#       5
#    16   8   8  16  16
#     4   9  17  29  49  81 122 162 193 232 294 360
#     4  12  26  46  62  82 118 160 214 272 330 400
#     4  12  22  36  56  82 108 144 198 258 328 384
#     4  11  20  36  58  89 124 158 203 258 309 375
#     4  12  23  39  60  86 116 160 205 265 325 381
#
# _framework density 21.872706999999998
#
# number of rings (size 3 to 8) (size 9 to 14) (size 15 to 20)
#    0.000    1.000    2.500    6.000    0.000    4.000 
#    0.000    0.000    0.000    0.000    0.000    5.250 
#    0.000    0.000    0.000    0.000    0.000    0.000 
#
# Total GULP energy -178383.522513 kJ/mol
# GULP energy per Si atom -5574.485079 kJ/mol
# Density = 2.182292 g / cm^3
# Si number density = 21.872707 Si / 1000 Ang^3
#
#
#
# Elastic Constant Matrix: (Units=GPa)
#
#
# Indices 1 2 3 4 5 6 
#
# 1 48.7882 55.2871 25.8614 0.0000 0.0000 0.0000
# 2 55.2871 149.7244 66.2196 0.0000 0.0000 0.0000
# 3 25.8614 66.2196 155.3451 0.0000 0.0000 0.0000
# 4 0.0000 0.0000 0.0000 74.2324 0.0000 0.0000
# 5 0.0000 0.0000 0.0000 0.0000 4.9340 0.0000
# 6 0.0000 0.0000 0.0000 0.0000 0.0000 -97.1162
#
#
#
# Elastic Compliance Matrix: (Units=1/GPa)
#
#
# Indices 1 2 3 4 5 6 
#
# 1 0.035264 -0.012847 -0.000394 0.000000 0.000000 0.000000
# 2 -0.012847 0.012911 -0.003365 0.000000 0.000000 0.000000
# 3 -0.000394 -0.003365 0.007937 0.000000 0.000000 0.000000
# 4 0.000000 0.000000 0.000000 0.013471 0.000000 0.000000
# 5 0.000000 0.000000 0.000000 0.000000 0.202675 0.000000
# 6 0.000000 0.000000 0.000000 0.000000 0.000000 -0.010297
#
#
# Mechanical properties :
#
#
# Convention : Reuss Voigt Hill
#
# Bulk Modulus (GPa) = 43.66833 72.06600 57.86717
# Shear Modulus (GPa) = 16.51210 10.17604 13.34407
#
# Velocity S-wave (km/s) = 2.75056 2.15928 2.47266
# Velocity P-wave (km/s) = 5.48594 6.26387 5.88777
#
# Compressibility (1/GPa) = 0.02289989
#
# Stress axis : x y z
#
# Youngs Moduli (GPa) = 28.35721 77.45248 125.98777
#
# Poissons Ratio (x) = 0.99506 0.04967
# Poissons Ratio (y) = 0.36431 0.42394
# Poissons Ratio (z) = 0.01118 0.26062
#
# Static dielectric constant tensor:
#      x y z
#    x 1.818110 0.000000 0.000000 
#    y 0.000000 1.222040 0.000000 
#    z 0.000000 0.000000 1.781060 
# 
# From -- ./inp_files/1352.got.cif
#   From: 2010.05.17/outbox.cif.g08.bks.cpg/sg64_1_cif.got.tgz:1352.got - 2010.06.03 16:29:19.
