data_PCOD9481505
_publ_section_title
;
Structure prediction by ZEFSAII (Michael W. Deem and Ramdas Pophale) SiO2 
 PCOD9481505
Probable space group: C M C A
;
_chemical_formula_sum "Si O2"
_cell_formula_units_Z 88
_cell_length_a 24.050933
_cell_length_b 12.603722
_cell_length_c 12.886922
_cell_angle_alpha 90.000000
_cell_angle_beta 90.000000
_cell_angle_gamma 90.000000
_cell_volume 3906.429076
_symmetry_space_group_name_H-M "C M C A"
_symmetry_group_IT_number 64
_symmetry_cell_setting 'orthorhombic'
loop_
_space_group_symop_operation_xyz
x,y,z
-x,1/2-y,1/2+z
x,-y,-z
-x,1/2+y,1/2-z
-x,-y,-z
x,1/2+y,1/2-z
-x,y,z
x,1/2-y,1/2+z
1/2+x,1/2+y,z
1/2-x,-y,1/2+z
1/2+x,1/2-y,-z
1/2-x,y,1/2-z
1/2-x,1/2-y,-z
1/2+x,y,1/2-z
1/2-x,1/2+y,z
1/2+x,-y,1/2+z
loop_
_atom_site_type_symbol
_atom_site_label
_atom_site_fract_x
_atom_site_fract_y
_atom_site_fract_z
Si Si1 0.290096 0.838896 0.846822
Si Si2 0.106936 0.947951 0.738807
Si Si3 0.141831 0.620223 0.631319
Si Si4 0.433036 0.831976 0.555711
Si Si5 0.231030 0.000000 0.000000
Si Si6 0.564498 0.609308 0.473463
O O1 0.250000 0.811869 0.750000
O O2 0.331993 0.924895 0.801797
O O3 0.328652 0.734994 0.865121
O O4 0.237302 0.898321 0.553013
O O5 0.067849 0.896225 0.650846
O O6 0.110643 0.072534 0.767688
O O7 0.092512 0.884868 0.843220
O O8 0.093540 0.616154 0.545621
O O9 0.191220 0.544113 0.591124
O O10 0.500000 0.839804 0.557144
O O11 0.414758 0.710027 0.536017
O O12 0.594757 0.500000 0.500000
O O13 0.500000 0.604432 0.504174
#
# Coordination Sequence:
#
# PCOD9481505 Si02
#       6
#    16  16  16  16   8  16
#     4  12  27  46  72 102 140 189 239 301 361 427
#     4  12  25  44  70 105 141 188 240 294 362 438
#     4  12  25  47  71 106 145 183 246 297 359 434
#     4  11  24  46  73 103 145 188 235 296 360 433
#     4  12  26  50  69 104 139 190 240 302 360 420
#     4  10  24  44  68 104 144 189 240 297 363 430
#
# _framework density 22.526968
#
# number of rings (size 3 to 8) (size 9 to 14) (size 15 to 20)
#    0.000    0.545    5.455    1.091    6.364    2.182 
#    0.000    0.000    0.000    0.000    0.000    0.000 
#    0.000    0.000    0.000    0.000    0.000    0.000 
#
# Total GULP energy -245248.019857 kJ/mol
# GULP energy per Si atom -5573.818633 kJ/mol
# Density = 2.247570 g / cm^3
# Si number density = 22.526968 Si / 1000 Ang^3
#
#
#
# Elastic Constant Matrix: (Units=GPa)
#
#
# Indices 1 2 3 4 5 6 
#
# 1 59.5746 3.6832 12.9798 0.0000 0.0000 0.0000
# 2 3.6832 102.9763 39.6864 0.0000 0.0000 0.0000
# 3 12.9798 39.6864 69.8493 0.0000 0.0000 0.0000
# 4 0.0000 0.0000 0.0000 32.4675 0.0000 0.0000
# 5 0.0000 0.0000 0.0000 0.0000 28.0145 0.0000
# 6 0.0000 0.0000 0.0000 0.0000 0.0000 20.1591
#
#
#
# Elastic Compliance Matrix: (Units=1/GPa)
#
#
# Indices 1 2 3 4 5 6 
#
# 1 0.017546 0.000805 -0.003718 0.000000 0.000000 0.000000
# 2 0.000805 0.012471 -0.007235 0.000000 0.000000 0.000000
# 3 -0.003718 -0.007235 0.019118 0.000000 0.000000 0.000000
# 4 0.000000 0.000000 0.000000 0.030800 0.000000 0.000000
# 5 0.000000 0.000000 0.000000 0.000000 0.035696 0.000000
# 6 0.000000 0.000000 0.000000 0.000000 0.000000 0.049605
#
#
# Mechanical properties :
#
#
# Convention : Reuss Voigt Hill
#
# Bulk Modulus (GPa) = 34.67510 38.34433 36.50972
# Shear Modulus (GPa) = 25.62203 27.86493 26.74348
#
# Velocity S-wave (km/s) = 3.37619 3.52086 3.44928
# Velocity P-wave (km/s) = 5.53392 5.79543 5.66619
#
# Compressibility (1/GPa) = 0.02883914
#
# Stress axis : x y z
#
# Youngs Moduli (GPa) = 56.99316 80.18915 52.30618
#
# Poissons Ratio (x) = -0.06458 0.19448
# Poissons Ratio (y) = -0.04590 0.37844
# Poissons Ratio (z) = 0.21190 0.58017
#
# Static dielectric constant tensor:
#      x y z
#    x 1.818270 0.000000 0.000000 
#    y 0.000000 1.933670 0.000000 
#    z 0.000000 0.000000 1.904790 
# 
# From -- ./inp_files/19691.got.cif
#   From: 2010.05.17/outbox.cif.g08.bks.cpg/sg64_10_cif.got.tgz:19691.got - 2010.06.03 16:29:19.
