data_PCOD9481869
_publ_section_title
;
Structure prediction by ZEFSAII (Michael W. Deem and Ramdas Pophale) SiO2 
 PCOD9481869
Probable space group: C M C A
;
_chemical_formula_sum "Si O2"
_cell_formula_units_Z 64
_cell_length_a 15.913684
_cell_length_b 19.315969
_cell_length_c 8.305750
_cell_angle_alpha 90.000000
_cell_angle_beta 90.000000
_cell_angle_gamma 90.000000
_cell_volume 2553.089765
_symmetry_space_group_name_H-M "C M C A"
_symmetry_group_IT_number 64
_symmetry_cell_setting 'orthorhombic'
loop_
_space_group_symop_operation_xyz
x,y,z
-x,1/2-y,1/2+z
x,-y,-z
-x,1/2+y,1/2-z
-x,-y,-z
x,1/2+y,1/2-z
-x,y,z
x,1/2-y,1/2+z
1/2+x,1/2+y,z
1/2-x,-y,1/2+z
1/2+x,1/2-y,-z
1/2-x,y,1/2-z
1/2-x,1/2-y,-z
1/2+x,y,1/2-z
1/2-x,1/2+y,z
1/2+x,-y,1/2+z
loop_
_atom_site_type_symbol
_atom_site_label
_atom_site_fract_x
_atom_site_fract_y
_atom_site_fract_z
Si Si1 0.404100 0.648088 0.457257
Si Si2 0.897961 0.527485 0.245729
Si Si3 0.101483 0.394371 0.421612
Si Si4 0.656039 0.736751 0.756061
O O1 0.500000 0.636303 0.508178
O O2 0.366608 0.574620 0.401052
O O3 0.402362 0.698940 0.301626
O O4 0.362608 0.692883 0.596648
O O5 0.879147 0.569305 0.409710
O O6 0.872474 0.448933 0.281729
O O7 0.000000 0.526099 0.231417
O O8 0.144685 0.321428 0.394096
O O9 0.000000 0.385235 0.413572
O O10 0.750000 0.763913 0.750000
#
# Coordination Sequence:
#
# PCOD9481869 Si02
#       4
#    16  16  16  16
#     4  11  22  39  62  86 111 153 203 245 288 348
#     4   8  17  34  61  89 112 143 193 245 288 335
#     4   9  17  36  61  85 114 151 191 238 289 346
#     4  12  25  39  55  84 121 153 189 242 301 353
#
# _framework density 25.067665999999999
#
# number of rings (size 3 to 8) (size 9 to 14) (size 15 to 20)
#    0.000    2.000    0.000    6.000    0.000    3.000 
#    0.000   10.000    0.000    0.000    0.000    0.000 
#    0.000    0.000    0.000    0.000    0.000    0.000 
#
# Total GULP energy -179043.149203 kJ/mol
# GULP energy per Si atom -5595.098413 kJ/mol
# Density = 2.501061 g / cm^3
# Si number density = 25.067666 Si / 1000 Ang^3
#
#
#
# Elastic Constant Matrix: (Units=GPa)
#
#
# Indices 1 2 3 4 5 6 
#
# 1 42.2071 -7.4684 4.9239 0.0000 0.0000 0.0000
# 2 -7.4684 113.3139 6.1505 0.0000 0.0000 0.0000
# 3 4.9239 6.1505 76.2803 0.0000 0.0000 0.0000
# 4 0.0000 0.0000 0.0000 44.1572 0.0000 0.0000
# 5 0.0000 0.0000 0.0000 0.0000 30.1413 0.0000
# 6 0.0000 0.0000 0.0000 0.0000 0.0000 25.5348
#
#
#
# Elastic Compliance Matrix: (Units=1/GPa)
#
#
# Indices 1 2 3 4 5 6 
#
# 1 0.024189 0.001686 -0.001697 0.000000 0.000000 0.000000
# 2 0.001686 0.008981 -0.000833 0.000000 0.000000 0.000000
# 3 -0.001697 -0.000833 0.013286 0.000000 0.000000 0.000000
# 4 0.000000 0.000000 0.000000 0.022646 0.000000 0.000000
# 5 0.000000 0.000000 0.000000 0.000000 0.033177 0.000000
# 6 0.000000 0.000000 0.000000 0.000000 0.000000 0.039162
#
#
# Mechanical properties :
#
#
# Convention : Reuss Voigt Hill
#
# Bulk Modulus (GPa) = 22.33698 26.55702 24.44700
# Shear Modulus (GPa) = 31.63489 35.17969 33.40729
#
# Velocity S-wave (km/s) = 3.55629 3.75025 3.65456
# Velocity P-wave (km/s) = 5.07868 5.41937 5.25179
#
# Compressibility (1/GPa) = 0.04476882
#
# Stress axis : x y z
#
# Youngs Moduli (GPa) = 41.34087 111.34107 75.26560
#
# Poissons Ratio (x) = -0.18777 0.12776
# Poissons Ratio (y) = -0.06972 0.06270
# Poissons Ratio (z) = 0.07017 0.09275
#
# Static dielectric constant tensor:
#      x y z
#    x 1.901940 0.000000 0.000000 
#    y 0.000000 1.935130 0.000000 
#    z 0.000000 0.000000 2.106390 
# 
# From -- ./inp_files/5581.got.cif
#   From: 2010.05.17/outbox.cif.g08.bks.cpg/sg64_3_cif.got.tgz:5581.got - 2010.06.03 16:29:19.
