data_PCOD9481300
_publ_section_title
;
Structure prediction by ZEFSAII (Michael W. Deem and Ramdas Pophale) SiO2 
 PCOD9481300
Probable space group: C M C A
;
_chemical_formula_sum "Si O2"
_cell_formula_units_Z 96
_cell_length_a 13.970291
_cell_length_b 19.489654
_cell_length_c 14.060262
_cell_angle_alpha 90.000000
_cell_angle_beta 90.000000
_cell_angle_gamma 90.000000
_cell_volume 3828.273835
_symmetry_space_group_name_H-M "C M C A"
_symmetry_group_IT_number 64
_symmetry_cell_setting 'orthorhombic'
loop_
_space_group_symop_operation_xyz
x,y,z
-x,1/2-y,1/2+z
x,-y,-z
-x,1/2+y,1/2-z
-x,-y,-z
x,1/2+y,1/2-z
-x,y,z
x,1/2-y,1/2+z
1/2+x,1/2+y,z
1/2-x,-y,1/2+z
1/2+x,1/2-y,-z
1/2-x,y,1/2-z
1/2-x,1/2-y,-z
1/2+x,y,1/2-z
1/2-x,1/2+y,z
1/2+x,-y,1/2+z
loop_
_atom_site_type_symbol
_atom_site_label
_atom_site_fract_x
_atom_site_fract_y
_atom_site_fract_z
Si Si1 0.384515 0.138875 0.284227
Si Si2 0.892358 0.502185 0.613824
Si Si3 0.888516 0.123414 0.430797
Si Si4 0.758299 0.611160 0.910268
Si Si5 0.109507 0.711128 0.795235
Si Si6 0.604792 0.284072 0.065122
O O1 0.500000 0.149108 0.274596
O O2 0.350799 0.122200 0.177201
O O3 0.351250 0.213008 0.321107
O O4 0.370073 0.072982 0.347892
O O5 0.895182 0.500000 0.500000
O O6 0.810325 0.556036 0.638431
O O7 0.000000 0.522058 0.647855
O O8 0.826960 0.082960 0.507332
O O9 0.885332 0.204352 0.460106
O O10 0.000000 0.102693 0.431090
O O11 0.687892 0.665070 0.962987
O O12 0.676267 0.847022 0.162759
O O13 0.106360 0.712002 0.680562
O O14 0.000000 0.702000 0.828877
O O15 0.500000 0.308259 0.031506
#
# Coordination Sequence:
#
# PCOD9481300 Si02
#       6
#    16  16  16  16  16  16
#     4   8  17  40  68  90 123 174 223 264 314 379
#     4  10  23  43  65  91 125 168 219 270 319 377
#     4   9  19  36  61  94 129 166 212 265 319 383
#     4  12  21  34  61 101 134 160 205 270 336 384
#     4   9  19  37  64  95 128 170 216 266 321 380
#     4   9  19  36  56  86 130 175 219 263 313 374
#
# _framework density 25.076574999999998
#
# number of rings (size 3 to 8) (size 9 to 14) (size 15 to 20)
#    0.000    2.500    0.000    4.000    0.000    2.667 
#    0.000    9.167    0.000    4.000    0.000   15.167 
#    0.000    0.000    0.000    0.000    0.000    0.000 
#
# Total GULP energy -269057.338220 kJ/mol
# GULP energy per Si atom -5605.361213 kJ/mol
# Density = 2.501950 g / cm^3
# Si number density = 25.076575 Si / 1000 Ang^3
#
#
#
# Elastic Constant Matrix: (Units=GPa)
#
#
# Indices 1 2 3 4 5 6 
#
# 1 147.7604 68.6034 36.3772 0.0000 0.0000 0.0000
# 2 68.6034 117.8092 48.1335 0.0000 0.0000 0.0000
# 3 36.3772 48.1335 75.6952 0.0000 0.0000 0.0000
# 4 0.0000 0.0000 0.0000 23.1921 0.0000 0.0000
# 5 0.0000 0.0000 0.0000 0.0000 25.2141 0.0000
# 6 0.0000 0.0000 0.0000 0.0000 0.0000 37.8979
#
#
#
# Elastic Compliance Matrix: (Units=1/GPa)
#
#
# Indices 1 2 3 4 5 6 
#
# 1 0.009384 -0.004893 -0.001398 0.000000 0.000000 0.000000
# 2 -0.004893 0.014019 -0.006563 0.000000 0.000000 0.000000
# 3 -0.001398 -0.006563 0.018056 0.000000 0.000000 0.000000
# 4 0.000000 0.000000 0.000000 0.043118 0.000000 0.000000
# 5 0.000000 0.000000 0.000000 0.000000 0.039660 0.000000
# 6 0.000000 0.000000 0.000000 0.000000 0.000000 0.026387
#
#
# Mechanical properties :
#
#
# Convention : Reuss Voigt Hill
#
# Bulk Modulus (GPa) = 63.49047 71.94367 67.71707
# Shear Modulus (GPa) = 27.53559 29.80420 28.66989
#
# Velocity S-wave (km/s) = 3.31729 3.45124 3.38493
# Velocity P-wave (km/s) = 6.32821 6.68082 6.50690
#
# Compressibility (1/GPa) = 0.01575040
#
# Stress axis : x y z
#
# Youngs Moduli (GPa) = 106.56706 71.33057 55.38283
#
# Poissons Ratio (x) = 0.34903 0.07743
# Poissons Ratio (y) = 0.52145 0.36348
# Poissons Ratio (z) = 0.14899 0.46815
#
# Static dielectric constant tensor:
#      x y z
#    x 2.027480 0.000000 0.000000 
#    y 0.000000 1.943850 0.000000 
#    z 0.000000 0.000000 1.983750 
# 
# From -- ./inp_files/23955.got.cif
#   From: 2010.05.17/outbox.cif.g08.bks.cpg/sg64_12_cif.got.tgz:23955.got - 2010.06.03 16:29:19.
