data_PCOD9481454
_publ_section_title
;
Structure prediction by ZEFSAII (Michael W. Deem and Ramdas Pophale) SiO2 
 PCOD9481454
Probable space group: C M C A
;
_chemical_formula_sum "Si O2"
_cell_formula_units_Z 68
_cell_length_a 27.098717
_cell_length_b 5.033326
_cell_length_c 18.414217
_cell_angle_alpha 90.000000
_cell_angle_beta 90.000000
_cell_angle_gamma 90.000000
_cell_volume 2511.638005
_symmetry_space_group_name_H-M "C M C A"
_symmetry_group_IT_number 64
_symmetry_cell_setting 'orthorhombic'
loop_
_space_group_symop_operation_xyz
x,y,z
-x,1/2-y,1/2+z
x,-y,-z
-x,1/2+y,1/2-z
-x,-y,-z
x,1/2+y,1/2-z
-x,y,z
x,1/2-y,1/2+z
1/2+x,1/2+y,z
1/2-x,-y,1/2+z
1/2+x,1/2-y,-z
1/2-x,y,1/2-z
1/2-x,1/2-y,-z
1/2+x,y,1/2-z
1/2-x,1/2+y,z
1/2+x,-y,1/2+z
loop_
_atom_site_type_symbol
_atom_site_label
_atom_site_fract_x
_atom_site_fract_y
_atom_site_fract_z
Si Si1 0.166651 0.500000 0.500000
Si Si2 0.000000 0.500000 0.000000
Si Si3 0.500000 0.404292 0.303008
Si Si4 0.281883 0.256356 0.630187
Si Si5 0.574239 0.830898 0.581324
Si Si6 0.887098 0.819414 0.199541
O O1 0.199674 0.309462 0.451001
O O2 0.130348 0.322411 0.551199
O O3 0.957154 0.731468 0.987578
O O4 0.500000 0.183670 0.238956
O O5 0.544905 0.350597 0.359576
O O6 0.262467 0.550682 0.643874
O O7 0.330062 0.190869 0.676669
O O8 0.580036 0.100638 0.629559
O O9 0.895454 0.054535 0.256050
#
# Coordination Sequence:
#
# PCOD9481454 Si02
#       6
#     8   4   8  16  16  16
#     4  10  24  43  65  98 140 184 235 291 356 428
#     4  10  24  42  66 100 138 182 242 302 360 436
#     4  11  24  44  70  98 133 176 228 288 354 429
#     4  11  24  43  69 101 139 185 234 290 352 422
#     4  10  24  42  67 101 138 183 234 296 361 428
#     4  11  24  43  69 101 140 183 232 291 356 426
#
# _framework density 27.073965999999999
#
# number of rings (size 3 to 8) (size 9 to 14) (size 15 to 20)
#    0.000    1.412    0.000    3.529    0.000   16.000 
#    0.000    0.000    0.000    0.000    0.000    0.000 
#    0.000    0.000    0.000    0.000    0.000    0.000 
#
# Total GULP energy -189549.041713 kJ/mol
# GULP energy per Si atom -5574.971815 kJ/mol
# Density = 2.701234 g / cm^3
# Si number density = 27.073966 Si / 1000 Ang^3
#
#
#
# Elastic Constant Matrix: (Units=GPa)
#
#
# Indices 1 2 3 4 5 6 
#
# 1 120.0562 34.7950 53.5081 0.0000 0.0000 0.0000
# 2 34.7950 134.3581 38.9462 0.0000 0.0000 0.0000
# 3 53.5081 38.9462 140.5805 0.0000 0.0000 0.0000
# 4 0.0000 0.0000 0.0000 22.4486 0.0000 0.0000
# 5 0.0000 0.0000 0.0000 0.0000 170.1535 0.0000
# 6 0.0000 0.0000 0.0000 0.0000 0.0000 -102.3598
#
#
#
# Elastic Compliance Matrix: (Units=1/GPa)
#
#
# Indices 1 2 3 4 5 6 
#
# 1 0.010367 -0.001675 -0.003482 0.000000 0.000000 0.000000
# 2 -0.001675 0.008363 -0.001679 0.000000 0.000000 0.000000
# 3 -0.003482 -0.001679 0.008904 0.000000 0.000000 0.000000
# 4 0.000000 0.000000 0.000000 0.044546 0.000000 0.000000
# 5 0.000000 0.000000 0.000000 0.000000 0.005877 0.000000
# 6 0.000000 0.000000 0.000000 0.000000 0.000000 -0.009769
#
#
# Mechanical properties :
#
#
# Convention : Reuss Voigt Hill
#
# Bulk Modulus (GPa) = 71.62707 72.16592 71.89650
# Shear Modulus (GPa) = 57.72719 35.89816 46.81268
#
# Velocity S-wave (km/s) = 4.62259 3.64528 4.16272
# Velocity P-wave (km/s) = 7.41651 6.66561 7.05106
#
# Compressibility (1/GPa) = 0.01396120
#
# Stress axis : x y z
#
# Youngs Moduli (GPa) = 96.46209 119.56761 112.31183
#
# Poissons Ratio (x) = 0.20033 0.39103
# Poissons Ratio (y) = 0.16162 0.18860
# Poissons Ratio (z) = 0.33585 0.20079
#
# Static dielectric constant tensor:
#      x y z
#    x 2.079970 0.000000 0.000000 
#    y 0.000000 2.724220 0.000000 
#    z 0.000000 0.000000 7.210370 
# 
# From -- ./inp_files/41742.got.cif
#   From: 2010.05.17/outbox.cif.g08.bks.cpg/sg64_21_cif.got.tgz:41742.got - 2010.06.03 16:29:19.
