data_PCOD9481003
_publ_section_title
;
Structure prediction by ZEFSAII (Michael W. Deem and Ramdas Pophale) SiO2 
 PCOD9481003
Probable space group: C M C A
;
_chemical_formula_sum "Si O2"
_cell_formula_units_Z 80
_cell_length_a 16.403084
_cell_length_b 8.401035
_cell_length_c 23.782239
_cell_angle_alpha 90.000000
_cell_angle_beta 90.000000
_cell_angle_gamma 90.000000
_cell_volume 3277.261093
_symmetry_space_group_name_H-M "C M C A"
_symmetry_group_IT_number 64
_symmetry_cell_setting 'orthorhombic'
loop_
_space_group_symop_operation_xyz
x,y,z
-x,1/2-y,1/2+z
x,-y,-z
-x,1/2+y,1/2-z
-x,-y,-z
x,1/2+y,1/2-z
-x,y,z
x,1/2-y,1/2+z
1/2+x,1/2+y,z
1/2-x,-y,1/2+z
1/2+x,1/2-y,-z
1/2-x,y,1/2-z
1/2-x,1/2-y,-z
1/2+x,y,1/2-z
1/2-x,1/2+y,z
1/2+x,-y,1/2+z
loop_
_atom_site_type_symbol
_atom_site_label
_atom_site_fract_x
_atom_site_fract_y
_atom_site_fract_z
Si Si1 0.268956 0.903570 0.447033
Si Si2 0.655381 0.878229 0.883944
Si Si3 0.409649 0.176078 0.936075
Si Si4 0.841078 0.810652 0.227195
Si Si5 0.408575 0.125624 0.323858
O O1 0.237166 0.020045 0.397349
O O2 0.301709 0.000000 0.500000
O O3 0.330937 0.781147 0.419829
O O4 0.179471 0.831458 0.466358
O O5 0.645395 0.823260 0.820499
O O6 0.589266 0.999857 0.907935
O O7 0.500000 0.202431 0.962416
O O8 0.397702 0.303258 0.886066
O O9 0.750000 0.800393 0.250000
O O10 0.896899 0.771308 0.280595
O O11 0.855158 0.981489 0.199334
O O12 0.500000 0.062561 0.321402
#
# Coordination Sequence:
#
# PCOD9481003 Si02
#       5
#    16  16  16  16  16
#     4  10  22  42  67  91 121 164 208 258 315 369
#     4  10  24  38  65  92 125 158 208 252 310 366
#     4   9  22  41  62  91 124 159 204 252 306 366
#     4  12  25  38  61  92 126 163 208 253 297 365
#     4  11  24  42  62  89 129 170 202 245 309 373
#
# _framework density 24.410629
#
# number of rings (size 3 to 8) (size 9 to 14) (size 15 to 20)
#    1.200    0.400    0.000    4.200    8.400    3.600 
#    0.000    0.000    0.000    0.600    0.000    0.000 
#    0.000    0.000    0.000    0.000    0.000    0.000 
#
# Total GULP energy -223432.047744 kJ/mol
# GULP energy per Si atom -5585.801194 kJ/mol
# Density = 2.435507 g / cm^3
# Si number density = 24.410629 Si / 1000 Ang^3
#
#
#
# Elastic Constant Matrix: (Units=GPa)
#
#
# Indices 1 2 3 4 5 6 
#
# 1 59.6578 -12.2825 -7.1899 0.0000 0.0000 0.0000
# 2 -12.2825 77.5288 -13.9422 0.0000 0.0000 0.0000
# 3 -7.1899 -13.9422 49.1718 0.0000 0.0000 0.0000
# 4 0.0000 0.0000 0.0000 38.2789 0.0000 0.0000
# 5 0.0000 0.0000 0.0000 0.0000 15.2815 0.0000
# 6 0.0000 0.0000 0.0000 0.0000 0.0000 5.1785
#
#
#
# Elastic Compliance Matrix: (Units=1/GPa)
#
#
# Indices 1 2 3 4 5 6 
#
# 1 0.017915 0.003487 0.003608 0.000000 0.000000 0.000000
# 2 0.003487 0.014270 0.004556 0.000000 0.000000 0.000000
# 3 0.003608 0.004556 0.022156 0.000000 0.000000 0.000000
# 4 0.000000 0.000000 0.000000 0.026124 0.000000 0.000000
# 5 0.000000 0.000000 0.000000 0.000000 0.065439 0.000000
# 6 0.000000 0.000000 0.000000 0.000000 0.000000 0.193105
#
#
# Mechanical properties :
#
#
# Convention : Reuss Voigt Hill
#
# Bulk Modulus (GPa) = 12.87926 13.28105 13.08015
# Shear Modulus (GPa) = 14.63751 26.39931 20.51841
#
# Velocity S-wave (km/s) = 2.45140 3.29214 2.90237
# Velocity P-wave (km/s) = 3.64692 4.46132 4.07452
#
# Compressibility (1/GPa) = 0.07764420
#
# Stress axis : x y z
#
# Youngs Moduli (GPa) = 55.81897 70.07615 45.13397
#
# Poissons Ratio (x) = -0.24436 -0.16285
# Poissons Ratio (y) = -0.19464 -0.20563
# Poissons Ratio (z) = -0.20141 -0.31927
#
# Static dielectric constant tensor:
#      x y z
#    x 1.961550 0.000000 0.000000 
#    y 0.000000 1.980980 0.000000 
#    z 0.000000 0.000000 1.952910 
# 
# From -- ./inp_files/50308.got.cif
#   From: 2010.05.17/outbox.cif.g08.bks.cpg/sg64_26_cif.got.tgz:50308.got - 2010.06.03 16:29:19.
