data_PCOD9481228
_publ_section_title
;
Structure prediction by ZEFSAII (Michael W. Deem and Ramdas Pophale) SiO2 
 PCOD9481228
Probable space group: C M C A
;
_chemical_formula_sum "Si O2"
_cell_formula_units_Z 56
_cell_length_a 23.686975
_cell_length_b 5.319192
_cell_length_c 16.981151
_cell_angle_alpha 90.000000
_cell_angle_beta 90.000000
_cell_angle_gamma 90.000000
_cell_volume 2139.549764
_symmetry_space_group_name_H-M "C M C A"
_symmetry_group_IT_number 64
_symmetry_cell_setting 'orthorhombic'
loop_
_space_group_symop_operation_xyz
x,y,z
-x,1/2-y,1/2+z
x,-y,-z
-x,1/2+y,1/2-z
-x,-y,-z
x,1/2+y,1/2-z
-x,y,z
x,1/2-y,1/2+z
1/2+x,1/2+y,z
1/2-x,-y,1/2+z
1/2+x,1/2-y,-z
1/2-x,y,1/2-z
1/2-x,1/2-y,-z
1/2+x,y,1/2-z
1/2-x,1/2+y,z
1/2+x,-y,1/2+z
loop_
_atom_site_type_symbol
_atom_site_label
_atom_site_fract_x
_atom_site_fract_y
_atom_site_fract_z
Si Si1 0.933394 0.815183 0.699820
Si Si2 0.500000 0.249494 0.947945
Si Si3 0.772327 0.729702 0.840927
Si Si4 0.383332 0.960280 0.591291
O O1 0.922044 0.567817 0.753246
O O2 0.898372 0.737431 0.623741
O O3 0.000000 0.816623 0.680045
O O4 0.559180 0.291783 0.903289
O O5 0.500000 0.500000 0.000000
O O6 0.500000 0.000000 0.000000
O O7 0.750000 0.701360 0.750000
O O8 0.766055 0.452553 0.875882
O O9 0.834192 0.836651 0.857057
O O10 0.367698 0.000000 0.500000
#
# Coordination Sequence:
#
# PCOD9481228 Si02
#       4
#    16   8  16  16
#     4  10  23  41  66 102 143 189 239 291 361 451
#     4  10  24  44  68 110 154 184 221 292 381 446
#     4  10  25  46  71 100 140 194 250 307 366 431
#     4  11  25  46  75 109 148 193 245 311 379 448
#
# _framework density 26.173732000000001
#
# number of rings (size 3 to 8) (size 9 to 14) (size 15 to 20)
#    0.000    1.714    1.429    0.000    8.000   10.286 
#    0.000    0.000    0.000    0.000    0.000    0.000 
#    0.000    0.000    0.000    0.000    0.000    0.000 
#
# Total GULP energy -156777.876031 kJ/mol
# GULP energy per Si atom -5599.209858 kJ/mol
# Density = 2.611416 g / cm^3
# Si number density = 26.173732 Si / 1000 Ang^3
#
#
#
# Elastic Constant Matrix: (Units=GPa)
#
#
# Indices 1 2 3 4 5 6 
#
# 1 146.1061 5.5129 40.7078 0.0000 0.0000 0.0000
# 2 5.5129 127.5391 19.0848 0.0000 0.0000 0.0000
# 3 40.7078 19.0848 118.8668 0.0000 0.0000 0.0000
# 4 0.0000 0.0000 0.0000 33.8207 0.0000 0.0000
# 5 0.0000 0.0000 0.0000 0.0000 46.2648 0.0000
# 6 0.0000 0.0000 0.0000 0.0000 0.0000 38.3067
#
#
#
# Elastic Compliance Matrix: (Units=1/GPa)
#
#
# Indices 1 2 3 4 5 6 
#
# 1 0.007567 0.000062 -0.002601 0.000000 0.000000 0.000000
# 2 0.000062 0.008034 -0.001311 0.000000 0.000000 0.000000
# 3 -0.002601 -0.001311 0.009514 0.000000 0.000000 0.000000
# 4 0.000000 0.000000 0.000000 0.029568 0.000000 0.000000
# 5 0.000000 0.000000 0.000000 0.000000 0.021615 0.000000
# 6 0.000000 0.000000 0.000000 0.000000 0.000000 0.026105
#
#
# Mechanical properties :
#
#
# Convention : Reuss Voigt Hill
#
# Bulk Modulus (GPa) = 57.42374 58.12479 57.77427
# Shear Modulus (GPa) = 43.13754 45.49220 44.31487
#
# Velocity S-wave (km/s) = 4.06411 4.17356 4.11920
# Velocity P-wave (km/s) = 6.63399 6.74391 6.68917
#
# Compressibility (1/GPa) = 0.01741440
#
# Stress axis : x y z
#
# Youngs Moduli (GPa) = 132.15662 124.46704 105.10629
#
# Poissons Ratio (x) = -0.00774 0.27342
# Poissons Ratio (y) = -0.00822 0.13782
# Poissons Ratio (z) = 0.34379 0.16321
#
# Static dielectric constant tensor:
#      x y z
#    x 2.127610 0.000000 0.000000 
#    y 0.000000 2.138320 0.000000 
#    z 0.000000 0.000000 1.979640 
# 
# From -- ./inp_files/35245.got.cif
#   From: 2010.05.17/outbox.cif.g08.bks.cpg/sg64_18_cif.got.tgz:35245.got - 2010.06.03 16:29:19.
