data_PCOD9481542
_publ_section_title
;
Structure prediction by ZEFSAII (Michael W. Deem and Ramdas Pophale) SiO2 
 PCOD9481542
Probable space group: C M C A
;
_chemical_formula_sum "Si O2"
_cell_formula_units_Z 68
_cell_length_a 18.504695
_cell_length_b 9.307795
_cell_length_c 16.216672
_cell_angle_alpha 90.000000
_cell_angle_beta 90.000000
_cell_angle_gamma 90.000000
_cell_volume 2793.125653
_symmetry_space_group_name_H-M "C M C A"
_symmetry_group_IT_number 64
_symmetry_cell_setting 'orthorhombic'
loop_
_space_group_symop_operation_xyz
x,y,z
-x,1/2-y,1/2+z
x,-y,-z
-x,1/2+y,1/2-z
-x,-y,-z
x,1/2+y,1/2-z
-x,y,z
x,1/2-y,1/2+z
1/2+x,1/2+y,z
1/2-x,-y,1/2+z
1/2+x,1/2-y,-z
1/2-x,y,1/2-z
1/2-x,1/2-y,-z
1/2+x,y,1/2-z
1/2-x,1/2+y,z
1/2+x,-y,1/2+z
loop_
_atom_site_type_symbol
_atom_site_label
_atom_site_fract_x
_atom_site_fract_y
_atom_site_fract_z
Si Si1 0.500000 0.214947 0.403714
Si Si2 0.223140 0.500000 0.000000
Si Si3 0.610956 0.512811 0.165863
Si Si4 0.000000 0.000000 0.500000
Si Si5 0.324983 0.732679 0.904520
Si Si6 0.000000 0.019204 0.693031
Si Si7 0.250000 0.864125 0.750000
O O1 0.500000 0.329122 0.475546
O O2 0.500000 0.309377 0.320112
O O3 0.426861 0.123450 0.396688
O O4 0.274608 0.615614 0.953178
O O5 0.172707 0.387851 0.949490
O O6 0.606053 0.359991 0.120547
O O7 0.568003 0.517904 0.251156
O O8 0.691950 0.551112 0.194241
O O9 0.000000 0.963544 0.600555
O O10 0.290261 0.768581 0.816627
#
# Coordination Sequence:
#
# PCOD9481542 Si02
#       7
#     8   8  16   4  16   8   8
#     4   9  21  44  73 112 151 213 267 327 392 475
#     4  10  24  46  67 102 158 209 254 314 408 454
#     4  11  22  42  77 110 159 209 273 315 405 480
#     4   8  20  48  74 112 158 196 270 330 400 454
#     4  11  23  45  69 107 155 209 257 322 390 478
#     4   9  21  46  75 112 151 212 262 332 380 481
#     4  12  24  42  70 122 156 216 256 330 394 498
#
# _framework density 24.345486999999999
#
# number of rings (size 3 to 8) (size 9 to 14) (size 15 to 20)
#    0.706    0.941    2.353    2.118    0.000    0.000 
#    4.235    2.353    0.000    4.235    0.000    0.000 
#    0.000    0.000    0.000    0.000    0.000    0.000 
#
# Total GULP energy -189333.995125 kJ/mol
# GULP energy per Si atom -5568.646915 kJ/mol
# Density = 2.429008 g / cm^3
# Si number density = 24.345487 Si / 1000 Ang^3
#
#
#
# Elastic Constant Matrix: (Units=GPa)
#
#
# Indices 1 2 3 4 5 6 
#
# 1 68.8667 47.8099 11.3712 0.0000 0.0000 0.0000
# 2 47.8099 211.4387 95.3269 0.0000 0.0000 0.0000
# 3 11.3712 95.3269 129.8379 0.0000 0.0000 0.0000
# 4 0.0000 0.0000 0.0000 61.2427 0.0000 0.0000
# 5 0.0000 0.0000 0.0000 0.0000 2.1849 0.0000
# 6 0.0000 0.0000 0.0000 0.0000 0.0000 34.1315
#
#
#
# Elastic Compliance Matrix: (Units=1/GPa)
#
#
# Indices 1 2 3 4 5 6 
#
# 1 0.017586 -0.004906 0.002062 0.000000 0.000000 0.000000
# 2 -0.004906 0.008438 -0.005766 0.000000 0.000000 0.000000
# 3 0.002062 -0.005766 0.011755 0.000000 0.000000 0.000000
# 4 0.000000 0.000000 0.000000 0.016328 0.000000 0.000000
# 5 0.000000 0.000000 0.000000 0.000000 0.457679 0.000000
# 6 0.000000 0.000000 0.000000 0.000000 0.000000 0.029298
#
#
# Mechanical properties :
#
#
# Convention : Reuss Voigt Hill
#
# Bulk Modulus (GPa) = 48.63992 79.90659 64.27325
# Shear Modulus (GPa) = 8.84708 36.55418 22.70063
#
# Velocity S-wave (km/s) = 1.90837 3.87909 3.05690
# Velocity P-wave (km/s) = 4.98781 7.27711 6.23837
#
# Compressibility (1/GPa) = 0.02055925
#
# Stress axis : x y z
#
# Youngs Moduli (GPa) = 56.86205 118.50627 85.07340
#
# Poissons Ratio (x) = 0.58142 -0.17542
# Poissons Ratio (y) = 0.27898 0.49051
# Poissons Ratio (z) = -0.11725 0.68328
#
# Static dielectric constant tensor:
#      x y z
#    x 1.029470 0.000000 0.000000 
#    y 0.000000 1.983710 0.000000 
#    z 0.000000 0.000000 1.907200 
# 
# From -- ./inp_files/33976.got.cif
#   From: 2010.05.17/outbox.cif.g08.bks.cpg/sg64_17_cif.got.tgz:33976.got - 2010.06.03 16:29:19.
