data_PCOD9481923
_publ_section_title
;
Structure prediction by ZEFSAII (Michael W. Deem and Ramdas Pophale) SiO2 
 PCOD9481923
Probable space group: C M C A
;
_chemical_formula_sum "Si O2"
_cell_formula_units_Z 80
_cell_length_a 12.882690
_cell_length_b 13.437972
_cell_length_c 22.775910
_cell_angle_alpha 90.000000
_cell_angle_beta 90.000000
_cell_angle_gamma 90.000000
_cell_volume 3942.902393
_symmetry_space_group_name_H-M "C M C A"
_symmetry_group_IT_number 64
_symmetry_cell_setting 'orthorhombic'
loop_
_space_group_symop_operation_xyz
x,y,z
-x,1/2-y,1/2+z
x,-y,-z
-x,1/2+y,1/2-z
-x,-y,-z
x,1/2+y,1/2-z
-x,y,z
x,1/2-y,1/2+z
1/2+x,1/2+y,z
1/2-x,-y,1/2+z
1/2+x,1/2-y,-z
1/2-x,y,1/2-z
1/2-x,1/2-y,-z
1/2+x,y,1/2-z
1/2-x,1/2+y,z
1/2+x,-y,1/2+z
loop_
_atom_site_type_symbol
_atom_site_label
_atom_site_fract_x
_atom_site_fract_y
_atom_site_fract_z
Si Si1 0.323061 0.500000 0.500000
Si Si2 0.827227 0.894409 0.695917
Si Si3 0.500000 0.077012 0.580156
Si Si4 0.500000 0.935014 0.203801
Si Si5 0.000000 0.703805 0.460718
Si Si6 0.179126 0.589323 0.415991
Si Si7 0.500000 0.224005 0.690288
Si Si8 0.000000 0.588810 0.929284
O O1 0.248020 0.584110 0.474762
O O2 0.397564 0.471025 0.446645
O O3 0.750000 0.882806 0.750000
O O4 0.754995 0.906211 0.638880
O O5 0.901358 0.798075 0.691033
O O6 0.900825 0.990720 0.706124
O O7 0.500000 0.132091 0.517160
O O8 0.500000 0.157649 0.631624
O O9 0.601442 0.006082 0.585684
O O10 0.500000 0.852610 0.254778
O O11 0.500000 0.886446 0.138990
O O12 0.898891 0.680780 0.422155
O O13 0.000000 0.819082 0.474118
#
# Coordination Sequence:
#
# PCOD9481923 Si02
#       8
#     8  16   8   8   8  16   8   8
#     4  11  22  43  66  98 128 175 210 263 332 396
#     4  11  26  45  69  93 125 176 221 271 324 389
#     4  11  23  43  65  98 134 177 209 274 328 384
#     4  11  24  49  64  94 134 174 214 274 334 384
#     4  11  25  39  65 101 136 166 220 267 323 392
#     4  11  22  44  67  93 134 173 217 260 328 392
#     4  11  28  43  68  98 130 163 229 273 320 393
#     4  11  26  38  68  98 136 168 213 279 327 388
#
# _framework density 20.289622999999999
#
# number of rings (size 3 to 8) (size 9 to 14) (size 15 to 20)
#    0.000    1.000    4.000    1.800    5.600    6.400 
#    0.000    0.000    0.000    0.000    0.000    0.000 
#    0.000    0.000    0.000    0.000    0.000    0.000 
#
# Total GULP energy -223445.822253 kJ/mol
# GULP energy per Si atom -5586.145556 kJ/mol
# Density = 2.024344 g / cm^3
# Si number density = 20.289623 Si / 1000 Ang^3
#
#
#
# Elastic Constant Matrix: (Units=GPa)
#
#
# Indices 1 2 3 4 5 6 
#
# 1 141.0707 34.5106 56.7650 0.0000 0.0000 0.0000
# 2 34.5106 78.1432 32.7126 0.0000 0.0000 0.0000
# 3 56.7650 32.7126 117.0052 0.0000 0.0000 0.0000
# 4 0.0000 0.0000 0.0000 28.8675 0.0000 0.0000
# 5 0.0000 0.0000 0.0000 0.0000 20.6845 0.0000
# 6 0.0000 0.0000 0.0000 0.0000 0.0000 13.1771
#
#
#
# Elastic Compliance Matrix: (Units=1/GPa)
#
#
# Indices 1 2 3 4 5 6 
#
# 1 0.009217 -0.002490 -0.003775 0.000000 0.000000 0.000000
# 2 -0.002490 0.015166 -0.003032 0.000000 0.000000 0.000000
# 3 -0.003775 -0.003032 0.011226 0.000000 0.000000 0.000000
# 4 0.000000 0.000000 0.000000 0.034641 0.000000 0.000000
# 5 0.000000 0.000000 0.000000 0.000000 0.048345 0.000000
# 6 0.000000 0.000000 0.000000 0.000000 0.000000 0.075889
#
#
# Mechanical properties :
#
#
# Convention : Reuss Voigt Hill
#
# Bulk Modulus (GPa) = 58.77570 64.91059 61.84315
# Shear Modulus (GPa) = 22.85703 26.69455 24.77579
#
# Velocity S-wave (km/s) = 3.36004 3.63116 3.49822
# Velocity P-wave (km/s) = 6.63961 7.04570 6.84566
#
# Compressibility (1/GPa) = 0.01701383
#
# Stress axis : x y z
#
# Youngs Moduli (GPa) = 108.49552 65.93688 89.07889
#
# Poissons Ratio (x) = 0.16418 0.33631
# Poissons Ratio (y) = 0.27016 0.27010
# Poissons Ratio (z) = 0.40962 0.19993
#
# Static dielectric constant tensor:
#      x y z
#    x 1.709160 0.000000 0.000000 
#    y 0.000000 1.707270 0.000000 
#    z 0.000000 0.000000 1.696430 
# 
# From -- ./inp_files/44032.got.cif
#   From: 2010.05.17/outbox.cif.g08.bks.cpg/sg64_23_cif.got.tgz:44032.got - 2010.06.03 16:29:19.
