data_PCOD9481120
_publ_section_title
;
Structure prediction by ZEFSAII (Michael W. Deem and Ramdas Pophale) SiO2 
 PCOD9481120
Probable space group: C M C A
;
_chemical_formula_sum "Si O2"
_cell_formula_units_Z 96
_cell_length_a 19.534069
_cell_length_b 9.790989
_cell_length_c 26.347690
_cell_angle_alpha 90.000000
_cell_angle_beta 90.000000
_cell_angle_gamma 90.000000
_cell_volume 5039.202666
_symmetry_space_group_name_H-M "C M C A"
_symmetry_group_IT_number 64
_symmetry_cell_setting 'orthorhombic'
loop_
_space_group_symop_operation_xyz
x,y,z
-x,1/2-y,1/2+z
x,-y,-z
-x,1/2+y,1/2-z
-x,-y,-z
x,1/2+y,1/2-z
-x,y,z
x,1/2-y,1/2+z
1/2+x,1/2+y,z
1/2-x,-y,1/2+z
1/2+x,1/2-y,-z
1/2-x,y,1/2-z
1/2-x,1/2-y,-z
1/2+x,y,1/2-z
1/2-x,1/2+y,z
1/2+x,-y,1/2+z
loop_
_atom_site_type_symbol
_atom_site_label
_atom_site_fract_x
_atom_site_fract_y
_atom_site_fract_z
Si Si1 0.077346 0.786965 0.879100
Si Si2 0.208690 0.753119 0.313362
Si Si3 0.837634 0.489535 0.759439
Si Si4 0.079702 0.465942 0.058256
Si Si5 0.579145 0.917687 0.337945
Si Si6 0.851966 0.147062 0.358351
O O1 0.139953 0.735720 0.845773
O O2 0.082936 0.696720 0.929876
O O3 0.000000 0.759910 0.859032
O O4 0.086056 0.949944 0.874387
O O5 0.190510 0.642326 0.270476
O O6 0.273794 0.695995 0.344776
O O7 0.212584 0.904620 0.289376
O O8 0.879817 0.564756 0.715161
O O9 0.878703 0.424748 0.806635
O O10 0.131617 0.546519 0.095283
O O11 0.000000 0.506420 0.069245
O O12 0.093772 0.500000 0.000000
O O13 0.500000 0.903104 0.325158
O O14 0.607298 0.786148 0.366044
#
# Coordination Sequence:
#
# PCOD9481120 Si02
#       6
#    16  16  16  16  16  16
#     4   9  20  40  62  87 123 162 204 256 313 372
#     4  11  24  37  60  89 125 168 203 247 304 378
#     4  11  23  37  56  87 125 168 206 240 301 370
#     4  10  22  44  71  94 118 159 215 272 328 378
#     4  10  23  38  55  89 128 166 207 249 306 375
#     4  12  24  37  63  89 126 164 209 261 310 375
#
# _framework density 19.050633999999999
#
# number of rings (size 3 to 8) (size 9 to 14) (size 15 to 20)
#    0.000    1.500    3.333    1.000    7.000    2.000 
#    0.000    1.667    0.000    4.000    0.000    0.000 
#    0.000    0.000    0.000    0.000    0.000    0.000 
#
# Total GULP energy -267225.269726 kJ/mol
# GULP energy per Si atom -5567.193119 kJ/mol
# Density = 1.900727 g / cm^3
# Si number density = 19.050634 Si / 1000 Ang^3
#
#
#
# Elastic Constant Matrix: (Units=GPa)
#
#
# Indices 1 2 3 4 5 6 
#
# 1 43.1834 32.6239 23.3794 0.0000 0.0000 0.0000
# 2 32.6239 117.6421 41.6368 0.0000 0.0000 0.0000
# 3 23.3794 41.6368 73.9470 0.0000 0.0000 0.0000
# 4 0.0000 0.0000 0.0000 21.1512 0.0000 0.0000
# 5 0.0000 0.0000 0.0000 0.0000 23.4440 0.0000
# 6 0.0000 0.0000 0.0000 0.0000 0.0000 26.9798
#
#
#
# Elastic Compliance Matrix: (Units=1/GPa)
#
#
# Indices 1 2 3 4 5 6 
#
# 1 0.031475 -0.006502 -0.006290 0.000000 0.000000 0.000000
# 2 -0.006502 0.011959 -0.004678 0.000000 0.000000 0.000000
# 3 -0.006290 -0.004678 0.018146 0.000000 0.000000 0.000000
# 4 0.000000 0.000000 0.000000 0.047279 0.000000 0.000000
# 5 0.000000 0.000000 0.000000 0.000000 0.042655 0.000000
# 6 0.000000 0.000000 0.000000 0.000000 0.000000 0.037065
#
#
# Mechanical properties :
#
#
# Convention : Reuss Voigt Hill
#
# Bulk Modulus (GPa) = 37.53850 47.78363 42.66107
# Shear Modulus (GPa) = 21.51480 23.45717 22.48599
#
# Velocity S-wave (km/s) = 3.36422 3.51280 3.43932
# Velocity P-wave (km/s) = 5.90238 6.44903 6.18175
#
# Compressibility (1/GPa) = 0.02663931
#
# Stress axis : x y z
#
# Youngs Moduli (GPa) = 31.77154 83.61775 55.10891
#
# Poissons Ratio (x) = 0.54370 0.34664
# Poissons Ratio (y) = 0.20658 0.25780
# Poissons Ratio (z) = 0.19984 0.39116
#
# Static dielectric constant tensor:
#      x y z
#    x 1.738840 0.000000 0.000000 
#    y 0.000000 1.714840 0.000000 
#    z 0.000000 0.000000 1.638800 
# 
# From -- ./inp_files/50652.got.cif
#   From: 2010.05.17/outbox.cif.g08.bks.cpg/sg64_26_cif.got.tgz:50652.got - 2010.06.03 16:29:19.
