data_PCOD9481976
_publ_section_title
;
Structure prediction by ZEFSAII (Michael W. Deem and Ramdas Pophale) SiO2 
 PCOD9481976
Probable space group: C M C A
;
_chemical_formula_sum "Si O2"
_cell_formula_units_Z 104
_cell_length_a 27.593538
_cell_length_b 7.798137
_cell_length_c 25.155340
_cell_angle_alpha 90.000000
_cell_angle_beta 90.000000
_cell_angle_gamma 90.000000
_cell_volume 5412.880521
_symmetry_space_group_name_H-M "C M C A"
_symmetry_group_IT_number 64
_symmetry_cell_setting 'orthorhombic'
loop_
_space_group_symop_operation_xyz
x,y,z
-x,1/2-y,1/2+z
x,-y,-z
-x,1/2+y,1/2-z
-x,-y,-z
x,1/2+y,1/2-z
-x,y,z
x,1/2-y,1/2+z
1/2+x,1/2+y,z
1/2-x,-y,1/2+z
1/2+x,1/2-y,-z
1/2-x,y,1/2-z
1/2-x,1/2-y,-z
1/2+x,y,1/2-z
1/2-x,1/2+y,z
1/2+x,-y,1/2+z
loop_
_atom_site_type_symbol
_atom_site_label
_atom_site_fract_x
_atom_site_fract_y
_atom_site_fract_z
Si Si1 0.945359 0.522241 0.280249
Si Si2 0.785769 0.649890 0.538320
Si Si3 0.750000 0.477848 0.250000
Si Si4 0.285078 0.373206 0.360620
Si Si5 0.947142 0.144664 0.333074
Si Si6 0.651158 0.703698 0.379014
Si Si7 0.660150 0.935553 0.683213
O O1 0.946176 0.332504 0.305142
O O2 0.940341 0.517255 0.216525
O O3 0.895295 0.608069 0.300566
O O4 0.000000 0.596646 0.290741
O O5 0.803367 0.500000 0.500000
O O6 0.750000 0.750000 0.500000
O O7 0.752125 0.613608 0.590338
O O8 0.830821 0.751037 0.562253
O O9 0.741357 0.373326 0.303887
O O10 0.697759 0.562720 0.233416
O O11 0.315501 0.547359 0.360507
O O12 0.317856 0.202422 0.358453
O O13 0.903576 0.142091 0.373718
O O14 0.000000 0.117744 0.356851
O O15 0.657204 0.875670 0.343414
#
# Coordination Sequence:
#
# PCOD9481976 Si02
#       7
#    16  16   8  16  16  16  16
#     4   9  19  34  53  80 117 164 204 240 290 353
#     4  12  23  43  64  85 119 157 208 258 300 365
#     4  12  24  36  56  86 130 160 194 238 306 376
#     4  12  25  39  58  89 122 162 198 245 304 369
#     4   9  19  35  55  82 119 157 203 249 294 359
#     4  11  23  40  59  86 115 157 203 243 307 353
#     4  11  24  36  55  86 124 162 197 243 295 364
#
# _framework density 19.213429999999999
#
# number of rings (size 3 to 8) (size 9 to 14) (size 15 to 20)
#    0.000    1.231    3.077    3.231    8.615    0.000 
#    0.000    0.000    0.000    0.462    0.000    3.231 
#    0.000    0.000    0.000    0.000    0.000    0.000 
#
# Total GULP energy -289900.877305 kJ/mol
# GULP energy per Si atom -5575.016871 kJ/mol
# Density = 1.916970 g / cm^3
# Si number density = 19.213430 Si / 1000 Ang^3
#
#
#
# Elastic Constant Matrix: (Units=GPa)
#
#
# Indices 1 2 3 4 5 6 
#
# 1 149.4557 18.6112 49.7056 0.0000 0.0000 0.0000
# 2 18.6112 47.5242 11.3391 0.0000 0.0000 0.0000
# 3 49.7056 11.3391 91.7231 0.0000 0.0000 0.0000
# 4 0.0000 0.0000 0.0000 31.5129 0.0000 0.0000
# 5 0.0000 0.0000 0.0000 0.0000 28.7286 0.0000
# 6 0.0000 0.0000 0.0000 0.0000 0.0000 10.1878
#
#
#
# Elastic Compliance Matrix: (Units=1/GPa)
#
#
# Indices 1 2 3 4 5 6 
#
# 1 0.008393 -0.002268 -0.004268 0.000000 0.000000 0.000000
# 2 -0.002268 0.022295 -0.001527 0.000000 0.000000 0.000000
# 3 -0.004268 -0.001527 0.013404 0.000000 0.000000 0.000000
# 4 0.000000 0.000000 0.000000 0.031733 0.000000 0.000000
# 5 0.000000 0.000000 0.000000 0.000000 0.034809 0.000000
# 6 0.000000 0.000000 0.000000 0.000000 0.000000 0.098157
#
#
# Mechanical properties :
#
#
# Convention : Reuss Voigt Hill
#
# Bulk Modulus (GPa) = 35.75870 49.77941 42.76905
# Shear Modulus (GPa) = 21.34587 28.02232 24.68409
#
# Velocity S-wave (km/s) = 3.33676 3.82314 3.58820
# Velocity P-wave (km/s) = 5.78766 6.74192 6.28293
#
# Compressibility (1/GPa) = 0.02796522
#
# Stress axis : x y z
#
# Youngs Moduli (GPa) = 119.15026 44.85391 74.60558
#
# Poissons Ratio (x) = 0.10175 0.31839
# Poissons Ratio (y) = 0.27029 0.11391
# Poissons Ratio (z) = 0.50849 0.06848
#
# Static dielectric constant tensor:
#      x y z
#    x 1.713430 0.000000 0.000000 
#    y 0.000000 1.232180 0.000000 
#    z 0.000000 0.000000 1.472720 
# 
# From -- ./inp_files/46889.got.cif
#   From: 2010.05.17/outbox.cif.g08.bks.cpg/sg64_24_cif.got.tgz:46889.got - 2010.06.03 16:29:19.
