data_PCOD9481898
_publ_section_title
;
Structure prediction by ZEFSAII (Michael W. Deem and Ramdas Pophale) SiO2 
 PCOD9481898
Probable space group: C M C A
;
_chemical_formula_sum "Si O2"
_cell_formula_units_Z 72
_cell_length_a 7.400845
_cell_length_b 24.374815
_cell_length_c 16.529204
_cell_angle_alpha 90.000000
_cell_angle_beta 90.000000
_cell_angle_gamma 90.000000
_cell_volume 2981.772990
_symmetry_space_group_name_H-M "C M C A"
_symmetry_group_IT_number 64
_symmetry_cell_setting 'orthorhombic'
loop_
_space_group_symop_operation_xyz
x,y,z
-x,1/2-y,1/2+z
x,-y,-z
-x,1/2+y,1/2-z
-x,-y,-z
x,1/2+y,1/2-z
-x,y,z
x,1/2-y,1/2+z
1/2+x,1/2+y,z
1/2-x,-y,1/2+z
1/2+x,1/2-y,-z
1/2-x,y,1/2-z
1/2-x,1/2-y,-z
1/2+x,y,1/2-z
1/2-x,1/2+y,z
1/2+x,-y,1/2+z
loop_
_atom_site_type_symbol
_atom_site_label
_atom_site_fract_x
_atom_site_fract_y
_atom_site_fract_z
Si Si1 0.285772 0.323874 0.839951
Si Si2 0.000000 0.128833 0.640879
Si Si3 0.282014 0.428182 0.933558
Si Si4 0.799764 0.783550 0.081283
Si Si5 0.283462 0.044639 0.619666
O O1 0.500000 0.316950 0.852469
O O2 0.250000 0.344361 0.750000
O O3 0.216756 0.369861 0.901809
O O4 0.199054 0.264746 0.852316
O O5 0.157125 0.171621 0.607578
O O6 0.158095 0.084885 0.668771
O O7 0.500000 0.427067 0.932647
O O8 0.233216 0.480134 0.877918
O O9 0.231299 0.439218 0.026129
O O10 0.000000 0.807837 0.071405
O O11 0.750000 0.750000 0.000000
O O12 0.500000 0.050308 0.629169
#
# Coordination Sequence:
#
# PCOD9481898 Si02
#       5
#    16   8  16  16  16
#     4  11  22  41  63  96 130 171 219 274 332 391
#     4  12  22  35  58  88 128 157 220 256 320 381
#     4   8  17  34  60  87 127 162 204 260 323 377
#     4  12  24  41  61  93 130 170 216 274 330 390
#     4   9  18  36  59  93 126 164 202 261 320 382
#
# _framework density 24.146706999999999
#
# number of rings (size 3 to 8) (size 9 to 14) (size 15 to 20)
#    0.000    1.778    2.222    4.000    0.000    3.556 
#    6.000    0.000    0.000    1.333    5.778    0.000 
#    0.000    0.000    0.000    0.000    0.000    0.000 
#
# Total GULP energy -200414.767303 kJ/mol
# GULP energy per Si atom -5567.076870 kJ/mol
# Density = 2.409175 g / cm^3
# Si number density = 24.146707 Si / 1000 Ang^3
#
#
#
# Elastic Constant Matrix: (Units=GPa)
#
#
# Indices 1 2 3 4 5 6 
#
# 1 186.4354 49.1368 5.9695 0.0000 0.0000 0.0000
# 2 49.1368 127.2269 7.6208 0.0000 0.0000 0.0000
# 3 5.9695 7.6208 41.1094 0.0000 0.0000 0.0000
# 4 0.0000 0.0000 0.0000 2.5533 0.0000 0.0000
# 5 0.0000 0.0000 0.0000 0.0000 5.7754 0.0000
# 6 0.0000 0.0000 0.0000 0.0000 0.0000 69.9227
#
#
#
# Elastic Compliance Matrix: (Units=1/GPa)
#
#
# Indices 1 2 3 4 5 6 
#
# 1 0.005980 -0.002283 -0.000445 0.000000 0.000000 0.000000
# 2 -0.002283 0.008820 -0.001303 0.000000 0.000000 0.000000
# 3 -0.000445 -0.001303 0.024632 0.000000 0.000000 0.000000
# 4 0.000000 0.000000 0.000000 0.391655 0.000000 0.000000
# 5 0.000000 0.000000 0.000000 0.000000 0.173147 0.000000
# 6 0.000000 0.000000 0.000000 0.000000 0.000000 0.014302
#
#
# Mechanical properties :
#
#
# Convention : Reuss Voigt Hill
#
# Bulk Modulus (GPa) = 31.87944 53.35842 42.61893
# Shear Modulus (GPa) = 7.84864 35.11993 21.48429
#
# Velocity S-wave (km/s) = 1.80484 3.81785 2.98609
# Velocity P-wave (km/s) = 4.19217 6.44827 5.43850
#
# Compressibility (1/GPa) = 0.03136818
#
# Stress axis : x y z
#
# Youngs Moduli (GPa) = 167.23279 113.38269 40.59823
#
# Poissons Ratio (x) = 0.25883 0.01807
# Poissons Ratio (y) = 0.38175 0.05292
# Poissons Ratio (z) = 0.07444 0.14779
#
# Static dielectric constant tensor:
#      x y z
#    x 1.942120 0.000000 0.000000 
#    y 0.000000 1.916690 0.000000 
#    z 0.000000 0.000000 1.997780 
# 
# From -- ./inp_files/29548.got.cif
#   From: 2010.05.17/outbox.cif.g08.bks.cpg/sg64_15_cif.got.tgz:29548.got - 2010.06.03 16:29:19.
