data_PCOD9481304
_publ_section_title
;
Structure prediction by ZEFSAII (Michael W. Deem and Ramdas Pophale) SiO2 
 PCOD9481304
Probable space group: C M C A
;
_chemical_formula_sum "Si O2"
_cell_formula_units_Z 48
_cell_length_a 12.516329
_cell_length_b 7.079864
_cell_length_c 17.745236
_cell_angle_alpha 90.000000
_cell_angle_beta 90.000000
_cell_angle_gamma 90.000000
_cell_volume 1572.474694
_symmetry_space_group_name_H-M "C M C A"
_symmetry_group_IT_number 64
_symmetry_cell_setting 'orthorhombic'
loop_
_space_group_symop_operation_xyz
x,y,z
-x,1/2-y,1/2+z
x,-y,-z
-x,1/2+y,1/2-z
-x,-y,-z
x,1/2+y,1/2-z
-x,y,z
x,1/2-y,1/2+z
1/2+x,1/2+y,z
1/2-x,-y,1/2+z
1/2+x,1/2-y,-z
1/2-x,y,1/2-z
1/2-x,1/2-y,-z
1/2+x,y,1/2-z
1/2-x,1/2+y,z
1/2+x,-y,1/2+z
loop_
_atom_site_type_symbol
_atom_site_label
_atom_site_fract_x
_atom_site_fract_y
_atom_site_fract_z
Si Si1 0.153412 0.863124 0.931709
Si Si2 0.612578 0.941630 0.900985
Si Si3 0.374777 0.168423 0.262910
O O1 0.110300 0.651344 0.933967
O O2 0.281634 0.842354 0.928883
O O3 0.126729 0.928388 0.846004
O O4 0.123381 0.000000 0.000000
O O5 0.500000 0.844343 0.914650
O O6 0.624126 0.965669 0.811125
O O7 0.500000 0.243910 0.257815
O O8 0.250000 0.246636 0.250000
#
# Coordination Sequence:
#
# PCOD9481304 Si02
#       3
#    16  16  16
#     4  11  23  42  68 101 138 175 224 287 348 406
#     4  10  23  43  65  94 134 180 230 279 337 414
#     4   9  20  38  62  92 128 173 223 273 329 400
#
# _framework density 30.525130999999998
#
# number of rings (size 3 to 8) (size 9 to 14) (size 15 to 20)
#    0.000    2.000    0.000    2.000    0.000   15.333 
#    0.000   15.000    0.000    0.000    0.000    0.000 
#    0.000    0.000    0.000    0.000    0.000    0.000 
#
# Total GULP energy -134176.571360 kJ/mol
# GULP energy per Si atom -5590.690473 kJ/mol
# Density = 3.045565 g / cm^3
# Si number density = 30.525131 Si / 1000 Ang^3
#
#
#
# Elastic Constant Matrix: (Units=GPa)
#
#
# Indices 1 2 3 4 5 6 
#
# 1 373.7502 74.3893 59.9034 0.0000 0.0000 0.0000
# 2 74.3893 73.4942 18.9162 0.0000 0.0000 0.0000
# 3 59.9034 18.9162 231.0755 0.0000 0.0000 0.0000
# 4 0.0000 0.0000 0.0000 43.1638 0.0000 0.0000
# 5 0.0000 0.0000 0.0000 0.0000 45.1834 0.0000
# 6 0.0000 0.0000 0.0000 0.0000 0.0000 56.2458
#
#
#
# Elastic Compliance Matrix: (Units=1/GPa)
#
#
# Indices 1 2 3 4 5 6 
#
# 1 0.003435 -0.003318 -0.000619 0.000000 0.000000 0.000000
# 2 -0.003318 0.017104 -0.000540 0.000000 0.000000 0.000000
# 3 -0.000619 -0.000540 0.004532 0.000000 0.000000 0.000000
# 4 0.000000 0.000000 0.000000 0.023168 0.000000 0.000000
# 5 0.000000 0.000000 0.000000 0.000000 0.022132 0.000000
# 6 0.000000 0.000000 0.000000 0.000000 0.000000 0.017779
#
#
# Mechanical properties :
#
#
# Convention : Reuss Voigt Hill
#
# Bulk Modulus (GPa) = 62.04377 109.41530 85.72953
# Shear Modulus (GPa) = 48.79220 63.92602 56.35911
#
# Velocity S-wave (km/s) = 4.00237 4.58122 4.30154
# Velocity P-wave (km/s) = 6.45974 7.99410 7.26752
#
# Compressibility (1/GPa) = 0.01611765
#
# Stress axis : x y z
#
# Youngs Moduli (GPa) = 291.11152 58.46735 220.64108
#
# Poissons Ratio (x) = 0.19397 0.13656
# Poissons Ratio (y) = 0.96580 0.11916
# Poissons Ratio (z) = 0.18018 0.03158
#
# Static dielectric constant tensor:
#      x y z
#    x 2.830840 0.000000 0.000000 
#    y 0.000000 2.519770 0.000000 
#    z 0.000000 0.000000 2.473700 
# 
# From -- ./inp_files/30249.got.cif
#   From: 2010.05.17/outbox.cif.g08.bks.cpg/sg64_16_cif.got.tgz:30249.got - 2010.06.03 16:29:19.
