data_PCOD9481071
_publ_section_title
;
Structure prediction by ZEFSAII (Michael W. Deem and Ramdas Pophale) SiO2 
 PCOD9481071
Probable space group: C M C A
;
_chemical_formula_sum "Si O2"
_cell_formula_units_Z 84
_cell_length_a 22.354484
_cell_length_b 11.878791
_cell_length_c 15.404581
_cell_angle_alpha 90.000000
_cell_angle_beta 90.000000
_cell_angle_gamma 90.000000
_cell_volume 4090.597806
_symmetry_space_group_name_H-M "C M C A"
_symmetry_group_IT_number 64
_symmetry_cell_setting 'orthorhombic'
loop_
_space_group_symop_operation_xyz
x,y,z
-x,1/2-y,1/2+z
x,-y,-z
-x,1/2+y,1/2-z
-x,-y,-z
x,1/2+y,1/2-z
-x,y,z
x,1/2-y,1/2+z
1/2+x,1/2+y,z
1/2-x,-y,1/2+z
1/2+x,1/2-y,-z
1/2-x,y,1/2-z
1/2-x,1/2-y,-z
1/2+x,y,1/2-z
1/2-x,1/2+y,z
1/2+x,-y,1/2+z
loop_
_atom_site_type_symbol
_atom_site_label
_atom_site_fract_x
_atom_site_fract_y
_atom_site_fract_z
Si Si1 0.500000 0.000000 0.000000
Si Si2 0.399965 0.852497 0.936761
Si Si3 0.378192 0.211458 0.874540
Si Si4 0.069474 0.150405 0.808753
Si Si5 0.797966 0.495852 0.868163
Si Si6 0.833725 0.540927 0.330879
O O1 0.447676 0.952661 0.933906
O O2 0.412518 0.760493 0.863862
O O3 0.334976 0.908621 0.926874
O O4 0.409243 0.798857 0.031930
O O5 0.418850 0.176939 0.792704
O O6 0.354935 0.336856 0.859901
O O7 0.324170 0.121265 0.875465
O O8 0.000000 0.123875 0.823181
O O9 0.113475 0.050027 0.837540
O O10 0.814875 0.457230 0.770399
O O11 0.727103 0.492844 0.880259
#
# Coordination Sequence:
#
# PCOD9481071 Si02
#       6
#     4  16  16  16  16  16
#     4  12  24  44  72 102 136 178 240 290 342 416
#     4  12  24  44  69 103 135 180 238 291 340 416
#     4  11  24  43  68 100 132 185 232 282 349 419
#     4  11  26  45  68 102 144 182 228 292 354 418
#     4  10  22  43  68  98 135 180 236 290 336 412
#     4  10  24  42  69  99 139 185 226 283 358 416
#
# _framework density 20.534896
#
# number of rings (size 3 to 8) (size 9 to 14) (size 15 to 20)
#    0.000    1.143    4.762    0.000    4.000    3.810 
#    3.429    0.952    0.000    0.000    0.000    0.000 
#    0.000    0.000    0.000    0.000    0.000    0.000 
#
# Total GULP energy -234231.663913 kJ/mol
# GULP energy per Si atom -5576.944379 kJ/mol
# Density = 2.048816 g / cm^3
# Si number density = 20.534896 Si / 1000 Ang^3
#
#
#
# Elastic Constant Matrix: (Units=GPa)
#
#
# Indices 1 2 3 4 5 6 
#
# 1 164.4984 59.6376 31.0065 0.0000 0.0000 0.0000
# 2 59.6376 107.7814 37.8765 0.0000 0.0000 0.0000
# 3 31.0065 37.8765 98.5856 0.0000 0.0000 0.0000
# 4 0.0000 0.0000 0.0000 34.8515 0.0000 0.0000
# 5 0.0000 0.0000 0.0000 0.0000 9.9502 0.0000
# 6 0.0000 0.0000 0.0000 0.0000 0.0000 103.6717
#
#
#
# Elastic Compliance Matrix: (Units=1/GPa)
#
#
# Indices 1 2 3 4 5 6 
#
# 1 0.007674 -0.003928 -0.000904 0.000000 0.000000 0.000000
# 2 -0.003928 0.012737 -0.003658 0.000000 0.000000 0.000000
# 3 -0.000904 -0.003658 0.011833 0.000000 0.000000 0.000000
# 4 0.000000 0.000000 0.000000 0.028693 0.000000 0.000000
# 5 0.000000 0.000000 0.000000 0.000000 0.100501 0.000000
# 6 0.000000 0.000000 0.000000 0.000000 0.000000 0.009646
#
#
# Mechanical properties :
#
#
# Convention : Reuss Voigt Hill
#
# Bulk Modulus (GPa) = 65.51819 69.76739 67.64279
# Shear Modulus (GPa) = 25.88627 45.85101 35.86864
#
# Velocity S-wave (km/s) = 3.55434 4.73041 4.18391
# Velocity P-wave (km/s) = 6.98710 7.99278 7.50680
#
# Compressibility (1/GPa) = 0.01526294
#
# Stress axis : x y z
#
# Youngs Moduli (GPa) = 130.31564 78.51055 84.50712
#
# Poissons Ratio (x) = 0.30841 0.07642
# Poissons Ratio (y) = 0.51191 0.30914
# Poissons Ratio (z) = 0.11784 0.28720
#
# Static dielectric constant tensor:
#      x y z
#    x 1.647150 0.000000 0.000000 
#    y 0.000000 1.712250 0.000000 
#    z 0.000000 0.000000 1.761820 
# 
# From -- ./inp_files/27185.got.cif
#   From: 2010.05.17/outbox.cif.g08.bks.cpg/sg64_14_cif.got.tgz:27185.got - 2010.06.03 16:29:19.
