data_PCOD9481064
_publ_section_title
;
Structure prediction by ZEFSAII (Michael W. Deem and Ramdas Pophale) SiO2 
 PCOD9481064
Probable space group: C M C A
;
_chemical_formula_sum "Si O2"
_cell_formula_units_Z 72
_cell_length_a 26.357586
_cell_length_b 12.468704
_cell_length_c 9.604489
_cell_angle_alpha 90.000000
_cell_angle_beta 90.000000
_cell_angle_gamma 90.000000
_cell_volume 3156.466692
_symmetry_space_group_name_H-M "C M C A"
_symmetry_group_IT_number 64
_symmetry_cell_setting 'orthorhombic'
loop_
_space_group_symop_operation_xyz
x,y,z
-x,1/2-y,1/2+z
x,-y,-z
-x,1/2+y,1/2-z
-x,-y,-z
x,1/2+y,1/2-z
-x,y,z
x,1/2-y,1/2+z
1/2+x,1/2+y,z
1/2-x,-y,1/2+z
1/2+x,1/2-y,-z
1/2-x,y,1/2-z
1/2-x,1/2-y,-z
1/2+x,y,1/2-z
1/2-x,1/2+y,z
1/2+x,-y,1/2+z
loop_
_atom_site_type_symbol
_atom_site_label
_atom_site_fract_x
_atom_site_fract_y
_atom_site_fract_z
Si Si1 0.940601 0.228054 0.197240
Si Si2 0.059307 0.606868 0.578426
Si Si3 0.294346 0.819727 0.068206
Si Si4 0.250000 0.498884 0.250000
Si Si5 0.159637 0.153138 0.277468
O O1 0.925029 0.340208 0.273416
O O2 0.899887 0.141978 0.252706
O O3 0.000000 0.209345 0.232028
O O4 0.936720 0.205959 0.031696
O O5 0.081354 0.500000 0.500000
O O6 0.000000 0.580707 0.598806
O O7 0.267152 0.923874 0.125450
O O8 0.321641 0.759377 0.195165
O O9 0.250000 0.750000 0.000000
O O10 0.331636 0.841324 0.941474
O O11 0.199952 0.567854 0.281347
#
# Coordination Sequence:
#
# PCOD9481064 Si02
#       5
#    16  16  16   8  16
#     4  10  22  43  68 101 143 184 232 290 340 418
#     4   9  19  40  67  95 135 186 236 283 344 404
#     4  12  23  45  65  98 138 167 225 286 342 412
#     4  12  24  42  70  94 134 174 222 280 342 408
#     4  12  25  41  69 102 136 180 227 277 346 418
#
# _framework density 22.810314000000002
#
# number of rings (size 3 to 8) (size 9 to 14) (size 15 to 20)
#    0.000    1.111    4.444    2.000    0.000    1.778 
#    4.000    3.333    0.000   12.000    0.000    0.000 
#    0.000    0.000    0.000    0.000    0.000    0.000 
#
# Total GULP energy -200719.226501 kJ/mol
# GULP energy per Si atom -5575.534069 kJ/mol
# Density = 2.275840 g / cm^3
# Si number density = 22.810314 Si / 1000 Ang^3
#
#
#
# Elastic Constant Matrix: (Units=GPa)
#
#
# Indices 1 2 3 4 5 6 
#
# 1 123.7299 32.6986 6.8598 0.0000 0.0000 0.0000
# 2 32.6986 101.7102 47.3143 0.0000 0.0000 0.0000
# 3 6.8598 47.3143 85.7967 0.0000 0.0000 0.0000
# 4 0.0000 0.0000 0.0000 52.6491 0.0000 0.0000
# 5 0.0000 0.0000 0.0000 0.0000 31.8080 0.0000
# 6 0.0000 0.0000 0.0000 0.0000 0.0000 -3.2112
#
#
#
# Elastic Compliance Matrix: (Units=1/GPa)
#
#
# Indices 1 2 3 4 5 6 
#
# 1 0.008919 -0.003410 0.001168 0.000000 0.000000 0.000000
# 2 -0.003410 0.014529 -0.007739 0.000000 0.000000 0.000000
# 3 0.001168 -0.007739 0.015830 0.000000 0.000000 0.000000
# 4 0.000000 0.000000 0.000000 0.018994 0.000000 0.000000
# 5 0.000000 0.000000 0.000000 0.000000 0.031439 0.000000
# 6 0.000000 0.000000 0.000000 0.000000 0.000000 -0.311412
#
#
# Mechanical properties :
#
#
# Convention : Reuss Voigt Hill
#
# Bulk Modulus (GPa) = 51.77842 53.88691 52.83266
# Shear Modulus (GPa) = -25.60159 31.20680 2.80260
#
# Velocity S-wave (km/s) = -3.35381 3.70280 1.10965
# Velocity P-wave (km/s) = 2.78414 6.47736 4.98536
#
# Compressibility (1/GPa) = 0.01931307
#
# Stress axis : x y z
#
# Youngs Moduli (GPa) = 112.12429 68.83020 63.17074
#
# Poissons Ratio (x) = 0.23474 -0.07376
# Poissons Ratio (y) = 0.38239 0.48890
# Poissons Ratio (z) = -0.13092 0.53270
#
# Static dielectric constant tensor:
#      x y z
#    x 1.873100 0.000000 0.000000 
#    y 0.000000 1.964750 0.000000 
#    z 0.000000 0.000000 1.798420 
# 
# From -- ./inp_files/19549.got.cif
#   From: 2010.05.17/outbox.cif.g08.bks.cpg/sg64_10_cif.got.tgz:19549.got - 2010.06.03 16:29:19.
