data_PCOD9481265
_publ_section_title
;
Structure prediction by ZEFSAII (Michael W. Deem and Ramdas Pophale) SiO2 
 PCOD9481265
Probable space group: C M C A
;
_chemical_formula_sum "Si O2"
_cell_formula_units_Z 104
_cell_length_a 9.718146
_cell_length_b 29.468459
_cell_length_c 18.704210
_cell_angle_alpha 90.000000
_cell_angle_beta 90.000000
_cell_angle_gamma 90.000000
_cell_volume 5356.488971
_symmetry_space_group_name_H-M "C M C A"
_symmetry_group_IT_number 64
_symmetry_cell_setting 'orthorhombic'
loop_
_space_group_symop_operation_xyz
x,y,z
-x,1/2-y,1/2+z
x,-y,-z
-x,1/2+y,1/2-z
-x,-y,-z
x,1/2+y,1/2-z
-x,y,z
x,1/2-y,1/2+z
1/2+x,1/2+y,z
1/2-x,-y,1/2+z
1/2+x,1/2-y,-z
1/2-x,y,1/2-z
1/2-x,1/2-y,-z
1/2+x,y,1/2-z
1/2-x,1/2+y,z
1/2+x,-y,1/2+z
loop_
_atom_site_type_symbol
_atom_site_label
_atom_site_fract_x
_atom_site_fract_y
_atom_site_fract_z
Si Si1 0.500000 0.444362 0.084312
Si Si2 0.222812 0.426560 0.167629
Si Si3 0.161876 0.321149 0.178364
Si Si4 0.000000 0.553816 0.417715
Si Si5 0.653874 0.181332 0.184043
Si Si6 0.726993 0.422230 0.665592
Si Si7 0.000000 0.497820 0.868655
Si Si8 0.335979 0.261338 0.070808
O O1 0.365502 0.426842 0.124891
O O2 0.500000 0.499151 0.087786
O O3 0.500000 0.432433 0.000700
O O4 0.250000 0.440967 0.250000
O O5 0.164584 0.375683 0.170325
O O6 0.119572 0.462410 0.133304
O O7 0.250000 0.310347 0.250000
O O8 0.249423 0.299162 0.114113
O O9 0.000000 0.306692 0.181888
O O10 0.132626 0.571744 0.376925
O O11 0.500000 0.183761 0.212344
O O12 0.750000 0.192888 0.250000
O O13 0.680527 0.129831 0.159886
O O14 0.668269 0.216587 0.120253
O O15 0.750000 0.431668 0.750000
O O16 0.618705 0.458060 0.636048
O O17 0.500000 0.272461 0.059714
O O18 0.250000 0.250000 0.000000
#
# Coordination Sequence:
#
# PCOD9481265 Si02
#       8
#     8  16  16   8  16  16   8  16
#     4  11  25  43  60  88 137 174 224 277 343 405
#     4  11  24  39  67  99 133 180 229 284 334 406
#     4  11  24  43  67 101 138 173 226 284 343 407
#     4  11  25  43  58  90 133 178 218 279 339 401
#     4  10  23  42  65  99 134 168 218 279 336 404
#     4  11  23  39  66  98 132 176 228 278 333 404
#     4  12  20  38  65  96 131 176 226 276 336 380
#     4  11  25  46  71  98 132 178 225 281 351 421
#
# _framework density 19.415703000000001
#
# number of rings (size 3 to 8) (size 9 to 14) (size 15 to 20)
#    0.000    1.077    3.077    2.769    9.692    3.692 
#    0.000    1.538    0.000    0.000    0.000    0.000 
#    0.000    0.000    0.000    0.000    0.000    0.000 
#
# Total GULP energy -289528.453712 kJ/mol
# GULP energy per Si atom -5567.854879 kJ/mol
# Density = 1.937151 g / cm^3
# Si number density = 19.415703 Si / 1000 Ang^3
#
#
#
# Elastic Constant Matrix: (Units=GPa)
#
#
# Indices 1 2 3 4 5 6 
#
# 1 216.6372 39.7534 67.4663 0.0000 0.0000 0.0000
# 2 39.7534 58.9654 8.4325 0.0000 0.0000 0.0000
# 3 67.4663 8.4325 82.7219 0.0000 0.0000 0.0000
# 4 0.0000 0.0000 0.0000 38.9149 0.0000 0.0000
# 5 0.0000 0.0000 0.0000 0.0000 32.0140 0.0000
# 6 0.0000 0.0000 0.0000 0.0000 0.0000 33.5151
#
#
#
# Elastic Compliance Matrix: (Units=1/GPa)
#
#
# Indices 1 2 3 4 5 6 
#
# 1 0.006992 -0.003956 -0.005300 0.000000 0.000000 0.000000
# 2 -0.003956 0.019448 0.001244 0.000000 0.000000 0.000000
# 3 -0.005300 0.001244 0.016284 0.000000 0.000000 0.000000
# 4 0.000000 0.000000 0.000000 0.025697 0.000000 0.000000
# 5 0.000000 0.000000 0.000000 0.000000 0.031236 0.000000
# 6 0.000000 0.000000 0.000000 0.000000 0.000000 0.029837
#
#
# Mechanical properties :
#
#
# Convention : Reuss Voigt Hill
#
# Bulk Modulus (GPa) = 37.45107 65.51432 51.48270
# Shear Modulus (GPa) = 32.37928 37.06694 34.72311
#
# Velocity S-wave (km/s) = 4.08816 4.37409 4.23354
# Velocity P-wave (km/s) = 6.45097 7.70236 7.10427
#
# Compressibility (1/GPa) = 0.02670150
#
# Stress axis : x y z
#
# Youngs Moduli (GPa) = 143.01186 51.41802 61.40958
#
# Poissons Ratio (x) = 0.20342 0.32545
# Poissons Ratio (y) = 0.56580 -0.07640
# Poissons Ratio (z) = 0.75790 -0.06397
#
# Static dielectric constant tensor:
#      x y z
#    x 1.656900 0.000000 0.000000 
#    y 0.000000 1.673650 0.000000 
#    z 0.000000 0.000000 1.668640 
# 
# From -- ./inp_files/37293.got.cif
#   From: 2010.05.17/outbox.cif.g08.bks.cpg/sg64_19_cif.got.tgz:37293.got - 2010.06.03 16:29:19.
