data_PCOD9481093
_publ_section_title
;
Structure prediction by ZEFSAII (Michael W. Deem and Ramdas Pophale) SiO2 
 PCOD9481093
Probable space group: C M C A
;
_chemical_formula_sum "Si O2"
_cell_formula_units_Z 48
_cell_length_a 16.754044
_cell_length_b 8.459248
_cell_length_c 14.722992
_cell_angle_alpha 90.000000
_cell_angle_beta 90.000000
_cell_angle_gamma 90.000000
_cell_volume 2086.639792
_symmetry_space_group_name_H-M "C M C A"
_symmetry_group_IT_number 64
_symmetry_cell_setting 'orthorhombic'
loop_
_space_group_symop_operation_xyz
x,y,z
-x,1/2-y,1/2+z
x,-y,-z
-x,1/2+y,1/2-z
-x,-y,-z
x,1/2+y,1/2-z
-x,y,z
x,1/2-y,1/2+z
1/2+x,1/2+y,z
1/2-x,-y,1/2+z
1/2+x,1/2-y,-z
1/2-x,y,1/2-z
1/2-x,1/2-y,-z
1/2+x,y,1/2-z
1/2-x,1/2+y,z
1/2+x,-y,1/2+z
loop_
_atom_site_type_symbol
_atom_site_label
_atom_site_fract_x
_atom_site_fract_y
_atom_site_fract_z
Si Si1 0.904096 0.332477 0.545208
Si Si2 0.660297 0.329767 0.284274
Si Si3 0.092580 0.857639 0.629977
O O1 0.885023 0.500000 0.500000
O O2 0.858574 0.297883 0.637669
O O3 0.884438 0.199261 0.470250
O O4 0.000000 0.327460 0.561564
O O5 0.750000 0.320864 0.250000
O O6 0.641713 0.498110 0.329047
O O7 0.604296 0.289067 0.198674
O O8 0.000000 0.904894 0.627659
#
# Coordination Sequence:
#
# PCOD9481093 Si02
#       3
#    16  16  16
#     4  10  22  43  73 104 134 177 234 288 336 399
#     4  12  25  42  65 100 141 177 218 277 346 406
#     4  11  23  42  70  98 131 179 230 278 330 401
#
# _framework density 23.003492999999999
#
# number of rings (size 3 to 8) (size 9 to 14) (size 15 to 20)
#    0.000    1.000    0.000    7.000    0.000    6.667 
#    0.000    5.000    0.000    0.000    0.000    0.000 
#    0.000    0.000    0.000    0.000    0.000    0.000 
#
# Total GULP energy -134554.913644 kJ/mol
# GULP energy per Si atom -5606.454735 kJ/mol
# Density = 2.295114 g / cm^3
# Si number density = 23.003493 Si / 1000 Ang^3
#
#
#
# Elastic Constant Matrix: (Units=GPa)
#
#
# Indices 1 2 3 4 5 6 
#
# 1 61.4920 32.6450 57.4294 0.0000 0.0000 0.0000
# 2 32.6450 88.4071 18.9679 0.0000 0.0000 0.0000
# 3 57.4294 18.9679 136.4681 0.0000 0.0000 0.0000
# 4 0.0000 0.0000 0.0000 47.9477 0.0000 0.0000
# 5 0.0000 0.0000 0.0000 0.0000 41.8073 0.0000
# 6 0.0000 0.0000 0.0000 0.0000 0.0000 83.9997
#
#
#
# Elastic Compliance Matrix: (Units=1/GPa)
#
#
# Indices 1 2 3 4 5 6 
#
# 1 0.033077 -0.009511 -0.012598 0.000000 0.000000 0.000000
# 2 -0.009511 0.014394 0.002002 0.000000 0.000000 0.000000
# 3 -0.012598 0.002002 0.012351 0.000000 0.000000 0.000000
# 4 0.000000 0.000000 0.000000 0.020856 0.000000 0.000000
# 5 0.000000 0.000000 0.000000 0.000000 0.023919 0.000000
# 6 0.000000 0.000000 0.000000 0.000000 0.000000 0.011905
#
#
# Mechanical properties :
#
#
# Convention : Reuss Voigt Hill
#
# Bulk Modulus (GPa) = 50.99971 56.05021 53.52496
# Shear Modulus (GPa) = 30.62754 46.57258 38.60006
#
# Velocity S-wave (km/s) = 3.65284 4.50442 4.10079
# Velocity P-wave (km/s) = 6.32531 7.17440 6.76319
#
# Compressibility (1/GPa) = 0.01960795
#
# Stress axis : x y z
#
# Youngs Moduli (GPa) = 30.23248 69.47414 80.96553
#
# Poissons Ratio (x) = 0.66077 1.01998
# Poissons Ratio (y) = 0.28754 -0.16208
# Poissons Ratio (z) = 0.38086 -0.13908
#
# Static dielectric constant tensor:
#      x y z
#    x 1.804800 0.000000 0.000000 
#    y 0.000000 1.901570 0.000000 
#    z 0.000000 0.000000 1.812860 
# 
# From -- ./inp_files/24597.got.cif
#   From: 2010.05.17/outbox.cif.g08.bks.cpg/sg64_13_cif.got.tgz:24597.got - 2010.06.03 16:29:19.
