data_PCOD9481531
_publ_section_title
;
Structure prediction by ZEFSAII (Michael W. Deem and Ramdas Pophale) SiO2 
 PCOD9481531
Probable space group: C M C A
;
_chemical_formula_sum "Si O2"
_cell_formula_units_Z 64
_cell_length_a 14.979081
_cell_length_b 14.821343
_cell_length_c 12.105282
_cell_angle_alpha 90.000000
_cell_angle_beta 90.000000
_cell_angle_gamma 90.000000
_cell_volume 2687.494835
_symmetry_space_group_name_H-M "C M C A"
_symmetry_group_IT_number 64
_symmetry_cell_setting 'orthorhombic'
loop_
_space_group_symop_operation_xyz
x,y,z
-x,1/2-y,1/2+z
x,-y,-z
-x,1/2+y,1/2-z
-x,-y,-z
x,1/2+y,1/2-z
-x,y,z
x,1/2-y,1/2+z
1/2+x,1/2+y,z
1/2-x,-y,1/2+z
1/2+x,1/2-y,-z
1/2-x,y,1/2-z
1/2-x,1/2-y,-z
1/2+x,y,1/2-z
1/2-x,1/2+y,z
1/2+x,-y,1/2+z
loop_
_atom_site_type_symbol
_atom_site_label
_atom_site_fract_x
_atom_site_fract_y
_atom_site_fract_z
Si Si1 0.397527 0.897593 0.994897
Si Si2 0.599297 0.394795 0.031327
Si Si3 0.241619 0.163745 0.146192
Si Si4 0.399467 0.191785 0.766937
O O1 0.500000 0.899303 0.954275
O O2 0.397972 0.864233 0.120196
O O3 0.336138 0.835243 0.917948
O O4 0.362202 0.000000 0.000000
O O5 0.500000 0.356705 0.005197
O O6 0.616945 0.369892 0.159072
O O7 0.596153 0.500000 0.000000
O O8 0.676522 0.357077 0.955344
O O9 0.250000 0.093818 0.250000
O O10 0.176685 0.234640 0.212614
O O11 0.500000 0.230022 0.755130
#
# Coordination Sequence:
#
# PCOD9481531 Si02
#       4
#    16  16  16  16
#     4  10  24  46  72 102 142 192 245 303 363 427
#     4  10  24  47  74 104 143 192 245 299 367 446
#     4  12  27  42  68 106 144 187 236 294 366 440
#     4  10  24  45  72 103 141 185 237 301 365 439
#
# _framework density 23.814
#
# number of rings (size 3 to 8) (size 9 to 14) (size 15 to 20)
#    0.000    1.500    0.000    2.250   10.500    2.000 
#    0.000    0.000    0.000    0.000    0.000    0.000 
#    0.000    0.000    0.000    0.000    0.000    0.000 
#
# Total GULP energy -178535.550422 kJ/mol
# GULP energy per Si atom -5579.235951 kJ/mol
# Density = 2.375980 g / cm^3
# Si number density = 23.814000 Si / 1000 Ang^3
#
#
#
# Elastic Constant Matrix: (Units=GPa)
#
#
# Indices 1 2 3 4 5 6 
#
# 1 161.1727 46.5073 80.4167 0.0000 0.0000 0.0000
# 2 46.5073 70.1509 39.4499 0.0000 0.0000 0.0000
# 3 80.4167 39.4499 183.3734 0.0000 0.0000 0.0000
# 4 0.0000 0.0000 0.0000 21.7120 0.0000 0.0000
# 5 0.0000 0.0000 0.0000 0.0000 43.6586 0.0000
# 6 0.0000 0.0000 0.0000 0.0000 0.0000 -9.4438
#
#
#
# Elastic Compliance Matrix: (Units=1/GPa)
#
#
# Indices 1 2 3 4 5 6 
#
# 1 0.008923 -0.004226 -0.003004 0.000000 0.000000 0.000000
# 2 -0.004226 0.018219 -0.002066 0.000000 0.000000 0.000000
# 3 -0.003004 -0.002066 0.007215 0.000000 0.000000 0.000000
# 4 0.000000 0.000000 0.000000 0.046058 0.000000 0.000000
# 5 0.000000 0.000000 0.000000 0.000000 0.022905 0.000000
# 6 0.000000 0.000000 0.000000 0.000000 0.000000 -0.105889
#
#
# Mechanical properties :
#
#
# Convention : Reuss Voigt Hill
#
# Bulk Modulus (GPa) = 63.43425 83.04943 73.24184
# Shear Modulus (GPa) = 234.99553 27.74021 131.36787
#
# Velocity S-wave (km/s) = 9.94454 3.41672 7.43531
# Velocity P-wave (km/s) = 12.59181 7.10741 10.22421
#
# Compressibility (1/GPa) = 0.01576435
#
# Stress axis : x y z
#
# Youngs Moduli (GPa) = 112.07292 54.88866 138.59784
#
# Poissons Ratio (x) = 0.23197 0.41632
# Poissons Ratio (y) = 0.47365 0.28635
# Poissons Ratio (z) = 0.33664 0.11340
#
# Static dielectric constant tensor:
#      x y z
#    x 2.012610 0.000000 0.000000 
#    y 0.000000 1.710590 0.000000 
#    z 0.000000 0.000000 5.924450 
# 
# From -- ./inp_files/14001.got.cif
#   From: 2010.05.17/outbox.cif.g08.bks.cpg/sg64_8_cif.got.tgz:14001.got - 2010.06.03 16:29:19.
