data_PCOD9481491
_publ_section_title
;
Structure prediction by ZEFSAII (Michael W. Deem and Ramdas Pophale) SiO2 
 PCOD9481491
Probable space group: C M C A
;
_chemical_formula_sum "Si O2"
_cell_formula_units_Z 56
_cell_length_a 27.722152
_cell_length_b 9.820169
_cell_length_c 7.862226
_cell_angle_alpha 90.000000
_cell_angle_beta 90.000000
_cell_angle_gamma 90.000000
_cell_volume 2140.382669
_symmetry_space_group_name_H-M "C M C A"
_symmetry_group_IT_number 64
_symmetry_cell_setting 'orthorhombic'
loop_
_space_group_symop_operation_xyz
x,y,z
-x,1/2-y,1/2+z
x,-y,-z
-x,1/2+y,1/2-z
-x,-y,-z
x,1/2+y,1/2-z
-x,y,z
x,1/2-y,1/2+z
1/2+x,1/2+y,z
1/2-x,-y,1/2+z
1/2+x,1/2-y,-z
1/2-x,y,1/2-z
1/2-x,1/2-y,-z
1/2+x,y,1/2-z
1/2-x,1/2+y,z
1/2+x,-y,1/2+z
loop_
_atom_site_type_symbol
_atom_site_label
_atom_site_fract_x
_atom_site_fract_y
_atom_site_fract_z
Si Si1 0.141801 0.690911 0.549855
Si Si2 0.924497 0.870554 0.747819
Si Si3 0.000000 0.118308 0.722244
Si Si4 0.201080 0.615199 0.856242
O O1 0.103094 0.625457 0.425928
O O2 0.115666 0.829914 0.610991
O O3 0.158793 0.606578 0.713386
O O4 0.188661 0.740517 0.445904
O O5 0.957832 0.999272 0.711921
O O6 0.958797 0.737825 0.758198
O O7 0.250000 0.615564 0.750000
O O8 0.202717 0.500000 0.000000
#
# Coordination Sequence:
#
# PCOD9481491 Si02
#       4
#    16  16   8  16
#     4  10  25  47  74 108 160 205 249 333 392 483
#     4  10  24  43  73 111 162 207 263 320 395 457
#     4  10  24  44  72 114 154 211 268 323 386 465
#     4  11  26  50  79 114 150 203 260 326 403 483
#
# _framework density 26.163547000000001
#
# number of rings (size 3 to 8) (size 9 to 14) (size 15 to 20)
#    0.000    1.714    0.000    0.857    8.000   13.714 
#    5.143    0.000    0.000    0.000    0.000    0.000 
#    0.000    0.000    0.000    0.000    0.000    0.000 
#
# Total GULP energy -155929.811882 kJ/mol
# GULP energy per Si atom -5568.921853 kJ/mol
# Density = 2.610400 g / cm^3
# Si number density = 26.163547 Si / 1000 Ang^3
#
#
#
# Elastic Constant Matrix: (Units=GPa)
#
#
# Indices 1 2 3 4 5 6 
#
# 1 158.1897 59.8582 62.3260 0.0000 0.0000 0.0000
# 2 59.8582 193.4831 21.3208 0.0000 0.0000 0.0000
# 3 62.3260 21.3208 129.0094 0.0000 0.0000 0.0000
# 4 0.0000 0.0000 0.0000 29.2703 0.0000 0.0000
# 5 0.0000 0.0000 0.0000 0.0000 -294.9344 0.0000
# 6 0.0000 0.0000 0.0000 0.0000 0.0000 20.5414
#
#
#
# Elastic Compliance Matrix: (Units=1/GPa)
#
#
# Indices 1 2 3 4 5 6 
#
# 1 0.008684 -0.002266 -0.003821 0.000000 0.000000 0.000000
# 2 -0.002266 0.005855 0.000127 0.000000 0.000000 0.000000
# 3 -0.003821 0.000127 0.009576 0.000000 0.000000 0.000000
# 4 0.000000 0.000000 0.000000 0.034164 0.000000 0.000000
# 5 0.000000 0.000000 0.000000 0.000000 -0.003391 0.000000
# 6 0.000000 0.000000 0.000000 0.000000 0.000000 0.048682
#
#
# Mechanical properties :
#
#
# Convention : Reuss Voigt Hill
#
# Bulk Modulus (GPa) = 81.99126 85.29913 83.64519
# Shear Modulus (GPa) = 41.82104 -26.54605 7.63750
#
# Velocity S-wave (km/s) = 4.00240 -3.18877 1.71040
# Velocity P-wave (km/s) = 7.26395 4.37212 5.99501
#
# Compressibility (1/GPa) = 0.01219642
#
# Stress axis : x y z
#
# Youngs Moduli (GPa) = 115.15032 170.78399 104.42332
#
# Poissons Ratio (x) = 0.38693 0.39901
# Poissons Ratio (y) = 0.26089 -0.01325
# Poissons Ratio (z) = 0.44000 -0.02167
#
# Static dielectric constant tensor:
#      x y z
#    x 2.001310 0.000000 0.000000 
#    y 0.000000 2.111830 0.000000 
#    z 0.000000 0.000000 2.141900 
# 
# From -- ./inp_files/9880.got.cif
#   From: 2010.05.17/outbox.cif.g08.bks.cpg/sg64_5_cif.got.tgz:9880.got - 2010.06.03 16:29:19.
