data_PCOD9481263
_publ_section_title
;
Structure prediction by ZEFSAII (Michael W. Deem and Ramdas Pophale) SiO2 
 PCOD9481263
Probable space group: C M C A
;
_chemical_formula_sum "Si O2"
_cell_formula_units_Z 80
_cell_length_a 8.691312
_cell_length_b 16.029852
_cell_length_c 29.268035
_cell_angle_alpha 90.000000
_cell_angle_beta 90.000000
_cell_angle_gamma 90.000000
_cell_volume 4077.635662
_symmetry_space_group_name_H-M "C M C A"
_symmetry_group_IT_number 64
_symmetry_cell_setting 'orthorhombic'
loop_
_space_group_symop_operation_xyz
x,y,z
-x,1/2-y,1/2+z
x,-y,-z
-x,1/2+y,1/2-z
-x,-y,-z
x,1/2+y,1/2-z
-x,y,z
x,1/2-y,1/2+z
1/2+x,1/2+y,z
1/2-x,-y,1/2+z
1/2+x,1/2-y,-z
1/2-x,y,1/2-z
1/2-x,1/2-y,-z
1/2+x,y,1/2-z
1/2-x,1/2+y,z
1/2+x,-y,1/2+z
loop_
_atom_site_type_symbol
_atom_site_label
_atom_site_fract_x
_atom_site_fract_y
_atom_site_fract_z
Si Si1 0.316503 0.279024 0.357297
Si Si2 0.185430 0.464966 0.138753
Si Si3 0.184132 0.124580 0.300809
Si Si4 0.182144 0.278411 0.951626
Si Si5 0.818324 0.960300 0.950311
O O1 0.500000 0.268971 0.355299
O O2 0.276928 0.373246 0.342311
O O3 0.240693 0.206439 0.327535
O O4 0.261001 0.268322 0.409393
O O5 0.231439 0.541422 0.171400
O O6 0.266151 0.478989 0.090124
O O7 0.000000 0.468444 0.132400
O O8 0.250000 0.123264 0.250000
O O9 0.000000 0.125618 0.299109
O O10 0.221680 0.375806 0.945605
O O11 0.000000 0.264457 0.950633
O O12 0.250000 0.250000 0.000000
O O13 0.000000 0.941086 0.946075
O O14 0.792496 0.000000 0.000000
#
# Coordination Sequence:
#
# PCOD9481263 Si02
#       5
#    16  16  16  16  16
#     4  11  23  42  67  97 131 170 214 269 327 386
#     4  10  23  42  65  94 130 169 213 265 324 386
#     4  11  24  44  68  96 129 171 217 271 329 386
#     4  12  24  39  60  90 129 173 218 267 321 383
#     4  11  23  38  60  92 128 169 217 264 318 384
#
# _framework density 19.619213999999999
#
# number of rings (size 3 to 8) (size 9 to 14) (size 15 to 20)
#    0.000    1.000    2.000    4.800    0.000    8.000 
#    0.000    2.000    0.000    0.000    0.000    0.000 
#    0.000    0.000    0.000    0.000    0.000    0.000 
#
# Total GULP energy -223783.531897 kJ/mol
# GULP energy per Si atom -5594.588297 kJ/mol
# Density = 1.957456 g / cm^3
# Si number density = 19.619214 Si / 1000 Ang^3
#
#
#
# Elastic Constant Matrix: (Units=GPa)
#
#
# Indices 1 2 3 4 5 6 
#
# 1 54.8066 42.0994 35.9252 0.0000 0.0000 0.0000
# 2 42.0994 148.9357 64.8907 0.0000 0.0000 0.0000
# 3 35.9252 64.8907 139.4947 0.0000 0.0000 0.0000
# 4 0.0000 0.0000 0.0000 21.9714 0.0000 0.0000
# 5 0.0000 0.0000 0.0000 0.0000 34.7279 0.0000
# 6 0.0000 0.0000 0.0000 0.0000 0.0000 28.9976
#
#
#
# Elastic Compliance Matrix: (Units=1/GPa)
#
#
# Indices 1 2 3 4 5 6 
#
# 1 0.024921 -0.005328 -0.003940 0.000000 0.000000 0.000000
# 2 -0.005328 0.009560 -0.003075 0.000000 0.000000 0.000000
# 3 -0.003940 -0.003075 0.009614 0.000000 0.000000 0.000000
# 4 0.000000 0.000000 0.000000 0.045514 0.000000 0.000000
# 5 0.000000 0.000000 0.000000 0.000000 0.028795 0.000000
# 6 0.000000 0.000000 0.000000 0.000000 0.000000 0.034486
#
#
# Mechanical properties :
#
#
# Convention : Reuss Voigt Hill
#
# Bulk Modulus (GPa) = 51.52068 69.89640 60.70854
# Shear Modulus (GPa) = 27.16731 30.49416 28.83074
#
# Velocity S-wave (km/s) = 3.72523 3.94674 3.83758
# Velocity P-wave (km/s) = 6.69481 7.51484 7.11665
#
# Compressibility (1/GPa) = 0.01940968
#
# Stress axis : x y z
#
# Youngs Moduli (GPa) = 40.12687 104.60100 104.01693
#
# Poissons Ratio (x) = 0.55730 0.40979
# Poissons Ratio (y) = 0.21379 0.31986
# Poissons Ratio (z) = 0.15809 0.32166
#
# Static dielectric constant tensor:
#      x y z
#    x 1.655780 0.000000 0.000000 
#    y 0.000000 1.715460 0.000000 
#    z 0.000000 0.000000 1.658500 
# 
# From -- ./inp_files/47806.got.cif
#   From: 2010.05.17/outbox.cif.g08.bks.cpg/sg64_24_cif.got.tgz:47806.got - 2010.06.03 16:29:19.
