data_PCOD9481088
_publ_section_title
;
Structure prediction by ZEFSAII (Michael W. Deem and Ramdas Pophale) SiO2 
 PCOD9481088
Probable space group: C M C A
;
_chemical_formula_sum "Si O2"
_cell_formula_units_Z 72
_cell_length_a 18.479288
_cell_length_b 18.972005
_cell_length_c 9.309547
_cell_angle_alpha 90.000000
_cell_angle_beta 90.000000
_cell_angle_gamma 90.000000
_cell_volume 3263.826117
_symmetry_space_group_name_H-M "C M C A"
_symmetry_group_IT_number 64
_symmetry_cell_setting 'orthorhombic'
loop_
_space_group_symop_operation_xyz
x,y,z
-x,1/2-y,1/2+z
x,-y,-z
-x,1/2+y,1/2-z
-x,-y,-z
x,1/2+y,1/2-z
-x,y,z
x,1/2-y,1/2+z
1/2+x,1/2+y,z
1/2-x,-y,1/2+z
1/2+x,1/2-y,-z
1/2-x,y,1/2-z
1/2-x,1/2-y,-z
1/2+x,y,1/2-z
1/2-x,1/2+y,z
1/2+x,-y,1/2+z
loop_
_atom_site_type_symbol
_atom_site_label
_atom_site_fract_x
_atom_site_fract_y
_atom_site_fract_z
Si Si1 0.915488 0.326606 0.768153
Si Si2 0.000000 0.070130 0.910122
Si Si3 0.750000 0.850303 0.250000
Si Si4 0.649408 0.084697 0.993837
Si Si5 0.500000 0.931709 0.096915
Si Si6 0.383225 0.808338 0.441749
O O1 0.860404 0.381480 0.847308
O O2 0.881722 0.303441 0.614824
O O3 0.920474 0.259198 0.871576
O O4 0.000000 0.352426 0.746923
O O5 0.069629 0.120620 0.922560
O O6 0.000000 0.039164 0.753099
O O7 0.000000 0.000000 0.000000
O O8 0.792409 0.892209 0.375980
O O9 0.690796 0.811535 0.350025
O O10 0.572501 0.110003 0.929267
O O11 0.652470 0.000000 0.000000
O O12 0.500000 0.000000 0.000000
#
# Coordination Sequence:
#
# PCOD9481088 Si02
#       6
#    16   8   8  16   8  16
#     4  12  25  47  77 109 142 187 256 312 360 429
#     4  12  26  43  75 111 144 188 254 304 354 427
#     4  12  28  50  66 108 156 196 240 296 378 450
#     4  11  26  44  76 105 146 192 245 300 370 435
#     4  10  22  43  71 103 139 188 239 294 353 415
#     4  12  28  45  75 107 148 195 241 304 369 436
#
# _framework density 22.059999000000001
#
# number of rings (size 3 to 8) (size 9 to 14) (size 15 to 20)
#    0.000    0.444    5.556    1.333    6.222    7.111 
#    0.000    0.000    0.000    0.000    0.000    0.000 
#    0.000    0.000    0.000    0.000    0.000    0.000 
#
# Total GULP energy -200709.285445 kJ/mol
# GULP energy per Si atom -5575.257929 kJ/mol
# Density = 2.200979 g / cm^3
# Si number density = 22.059999 Si / 1000 Ang^3
#
#
#
# Elastic Constant Matrix: (Units=GPa)
#
#
# Indices 1 2 3 4 5 6 
#
# 1 115.9738 32.3711 37.6827 0.0000 0.0000 0.0000
# 2 32.3711 115.1800 61.2961 0.0000 0.0000 0.0000
# 3 37.6827 61.2961 215.5458 0.0000 0.0000 0.0000
# 4 0.0000 0.0000 0.0000 36.6419 0.0000 0.0000
# 5 0.0000 0.0000 0.0000 0.0000 46.6607 0.0000
# 6 0.0000 0.0000 0.0000 0.0000 0.0000 8.7295
#
#
#
# Elastic Compliance Matrix: (Units=1/GPa)
#
#
# Indices 1 2 3 4 5 6 
#
# 1 0.009561 -0.002118 -0.001069 0.000000 0.000000 0.000000
# 2 -0.002118 0.010700 -0.002672 0.000000 0.000000 0.000000
# 3 -0.001069 -0.002672 0.005586 0.000000 0.000000 0.000000
# 4 0.000000 0.000000 0.000000 0.027291 0.000000 0.000000
# 5 0.000000 0.000000 0.000000 0.000000 0.021431 0.000000
# 6 0.000000 0.000000 0.000000 0.000000 0.000000 0.114555
#
#
# Mechanical properties :
#
#
# Convention : Reuss Voigt Hill
#
# Bulk Modulus (GPa) = 70.78350 78.82218 74.80284
# Shear Modulus (GPa) = 24.32464 39.42973 31.87718
#
# Velocity S-wave (km/s) = 3.32423 4.23233 3.80547
# Velocity P-wave (km/s) = 6.84766 7.72606 7.30008
#
# Compressibility (1/GPa) = 0.01412759
#
# Stress axis : x y z
#
# Youngs Moduli (GPa) = 104.58856 93.46188 179.01040
#
# Poissons Ratio (x) = 0.19797 0.19140
# Poissons Ratio (y) = 0.22154 0.47838
# Poissons Ratio (z) = 0.11182 0.24977
#
# Static dielectric constant tensor:
#      x y z
#    x 6.953780 0.000000 0.000000 
#    y 0.000000 1.908360 0.000000 
#    z 0.000000 0.000000 1.864960 
# 
# From -- ./inp_files/8057.got.cif
#   From: 2010.05.17/outbox.cif.g08.bks.cpg/sg64_5_cif.got.tgz:8057.got - 2010.06.03 16:29:19.
