data_PCOD9481595
_publ_section_title
;
Structure prediction by ZEFSAII (Michael W. Deem and Ramdas Pophale) SiO2 
 PCOD9481595
Probable space group: C M C A
;
_chemical_formula_sum "Si O2"
_cell_formula_units_Z 52
_cell_length_a 7.655256
_cell_length_b 10.141647
_cell_length_c 28.125692
_cell_angle_alpha 90.000000
_cell_angle_beta 90.000000
_cell_angle_gamma 90.000000
_cell_volume 2183.591651
_symmetry_space_group_name_H-M "C M C A"
_symmetry_group_IT_number 64
_symmetry_cell_setting 'orthorhombic'
loop_
_space_group_symop_operation_xyz
x,y,z
-x,1/2-y,1/2+z
x,-y,-z
-x,1/2+y,1/2-z
-x,-y,-z
x,1/2+y,1/2-z
-x,y,z
x,1/2-y,1/2+z
1/2+x,1/2+y,z
1/2-x,-y,1/2+z
1/2+x,1/2-y,-z
1/2-x,y,1/2-z
1/2-x,1/2-y,-z
1/2+x,y,1/2-z
1/2-x,1/2+y,z
1/2+x,-y,1/2+z
loop_
_atom_site_type_symbol
_atom_site_label
_atom_site_fract_x
_atom_site_fract_y
_atom_site_fract_z
Si Si1 0.500000 0.000000 0.000000
Si Si2 0.789849 0.803219 0.356613
Si Si3 0.791337 0.157731 0.045477
Si Si4 0.797928 0.057850 0.197576
O O1 0.655763 0.960857 0.961338
O O2 0.748874 0.743345 0.408021
O O3 0.716472 0.696114 0.318905
O O4 0.727454 0.947146 0.342246
O O5 0.000000 0.810131 0.354422
O O6 0.000000 0.125401 0.045977
O O7 0.750000 0.250000 0.000000
O O8 0.750000 0.010111 0.250000
O O9 0.000000 0.086406 0.200484
#
# Coordination Sequence:
#
# PCOD9481595 Si02
#       4
#     4  16  16  16
#     4  12  26  44  72  96 140 192 222 292 350 410
#     4  10  25  44  68  99 133 177 228 285 339 413
#     4  11  25  45  69 103 140 183 238 289 346 418
#     4  11  24  43  67  97 132 173 222 279 344 411
#
# _framework density 23.813977000000001
#
# number of rings (size 3 to 8) (size 9 to 14) (size 15 to 20)
#    0.000    1.231    1.538    2.308    6.462    4.923 
#    0.000    0.000    0.000    0.000    0.000    0.000 
#    0.000    0.000    0.000    0.000    0.000    0.000 
#
# Total GULP energy -144836.988801 kJ/mol
# GULP energy per Si atom -5570.653415 kJ/mol
# Density = 2.375977 g / cm^3
# Si number density = 23.813977 Si / 1000 Ang^3
#
#
#
# Elastic Constant Matrix: (Units=GPa)
#
#
# Indices 1 2 3 4 5 6 
#
# 1 106.8285 -2.9542 18.2070 0.0000 0.0000 0.0000
# 2 -2.9542 55.8251 -9.9750 0.0000 0.0000 0.0000
# 3 18.2070 -9.9750 82.9283 0.0000 0.0000 0.0000
# 4 0.0000 0.0000 0.0000 34.9816 0.0000 0.0000
# 5 0.0000 0.0000 0.0000 0.0000 28.4249 0.0000
# 6 0.0000 0.0000 0.0000 0.0000 0.0000 16.8147
#
#
#
# Elastic Compliance Matrix: (Units=1/GPa)
#
#
# Indices 1 2 3 4 5 6 
#
# 1 0.009726 0.000136 -0.002119 0.000000 0.000000 0.000000
# 2 0.000136 0.018308 0.002172 0.000000 0.000000 0.000000
# 3 -0.002119 0.002172 0.012785 0.000000 0.000000 0.000000
# 4 0.000000 0.000000 0.000000 0.028586 0.000000 0.000000
# 5 0.000000 0.000000 0.000000 0.000000 0.035180 0.000000
# 6 0.000000 0.000000 0.000000 0.000000 0.000000 0.059472
#
#
# Mechanical properties :
#
#
# Convention : Reuss Voigt Hill
#
# Bulk Modulus (GPa) = 24.27287 28.45971 26.36629
# Shear Modulus (GPa) = 28.18306 32.06452 30.12379
#
# Velocity S-wave (km/s) = 3.44389 3.67339 3.56049
# Velocity P-wave (km/s) = 5.10183 5.47435 5.29137
#
# Compressibility (1/GPa) = 0.04119825
#
# Stress axis : x y z
#
# Youngs Moduli (GPa) = 102.82047 54.61957 78.21593
#
# Poissons Ratio (x) = -0.00743 0.16573
# Poissons Ratio (y) = -0.01399 -0.16991
# Poissons Ratio (z) = 0.21787 -0.11865
#
# Static dielectric constant tensor:
#      x y z
#    x 1.869540 0.000000 0.000000 
#    y 0.000000 2.004230 0.000000 
#    z 0.000000 0.000000 1.977100 
# 
# From -- ./inp_files/47368.got.cif
#   From: 2010.05.17/outbox.cif.g08.bks.cpg/sg64_24_cif.got.tgz:47368.got - 2010.06.03 16:29:19.
