data_PCOD9481187
_publ_section_title
;
Structure prediction by ZEFSAII (Michael W. Deem and Ramdas Pophale) SiO2 
 PCOD9481187
Probable space group: C M C A
;
_chemical_formula_sum "Si O2"
_cell_formula_units_Z 56
_cell_length_a 25.964915
_cell_length_b 17.941446
_cell_length_c 5.140290
_cell_angle_alpha 90.000000
_cell_angle_beta 90.000000
_cell_angle_gamma 90.000000
_cell_volume 2394.594435
_symmetry_space_group_name_H-M "C M C A"
_symmetry_group_IT_number 64
_symmetry_cell_setting 'orthorhombic'
loop_
_space_group_symop_operation_xyz
x,y,z
-x,1/2-y,1/2+z
x,-y,-z
-x,1/2+y,1/2-z
-x,-y,-z
x,1/2+y,1/2-z
-x,y,z
x,1/2-y,1/2+z
1/2+x,1/2+y,z
1/2-x,-y,1/2+z
1/2+x,1/2-y,-z
1/2-x,y,1/2-z
1/2-x,1/2-y,-z
1/2+x,y,1/2-z
1/2-x,1/2+y,z
1/2+x,-y,1/2+z
loop_
_atom_site_type_symbol
_atom_site_label
_atom_site_fract_x
_atom_site_fract_y
_atom_site_fract_z
Si Si1 0.690310 0.801389 0.279450
Si Si2 0.940041 0.301243 0.723311
Si Si3 0.641624 0.913109 0.942862
Si Si4 0.750000 0.448475 0.750000
O O1 0.682653 0.758228 0.546850
O O2 0.750000 0.825805 0.250000
O O3 0.653698 0.870014 0.211685
O O4 0.931941 0.261826 0.445599
O O5 0.903203 0.369889 0.793745
O O6 0.000000 0.324157 0.738016
O O7 0.696398 0.906310 0.791652
O O8 0.631816 0.000000 0.000000
O O9 0.756248 0.500000 0.500000
#
# Coordination Sequence:
#
# PCOD9481187 Si02
#       4
#    16  16  16   8
#     4  10  23  40  59  85 123 169 218 261 310 380
#     4  10  23  47  73  97 130 173 224 282 340 397
#     4  11  25  41  68  98 137 177 221 276 331 402
#     4  10  26  42  58  92 144 184 210 260 334 398
#
# _framework density 23.386005999999998
#
# number of rings (size 3 to 8) (size 9 to 14) (size 15 to 20)
#    0.000    1.714    0.000    1.714   14.000    5.143 
#    0.000    0.000    0.000    6.000    0.000    0.000 
#    0.000    0.000    0.000    0.000    0.000    0.000 
#
# Total GULP energy -157050.173144 kJ/mol
# GULP energy per Si atom -5608.934755 kJ/mol
# Density = 2.333278 g / cm^3
# Si number density = 23.386006 Si / 1000 Ang^3
#
#
#
# Elastic Constant Matrix: (Units=GPa)
#
#
# Indices 1 2 3 4 5 6 
#
# 1 151.8358 52.3660 6.0592 0.0000 0.0000 0.0000
# 2 52.3660 172.6633 48.3501 0.0000 0.0000 0.0000
# 3 6.0592 48.3501 141.2311 0.0000 0.0000 0.0000
# 4 0.0000 0.0000 0.0000 32.5978 0.0000 0.0000
# 5 0.0000 0.0000 0.0000 0.0000 31.3383 0.0000
# 6 0.0000 0.0000 0.0000 0.0000 0.0000 26.2523
#
#
#
# Elastic Compliance Matrix: (Units=1/GPa)
#
#
# Indices 1 2 3 4 5 6 
#
# 1 0.007387 -0.002380 0.000498 0.000000 0.000000 0.000000
# 2 -0.002380 0.007172 -0.002353 0.000000 0.000000 0.000000
# 3 0.000498 -0.002353 0.007865 0.000000 0.000000 0.000000
# 4 0.000000 0.000000 0.000000 0.030677 0.000000 0.000000
# 5 0.000000 0.000000 0.000000 0.000000 0.031910 0.000000
# 6 0.000000 0.000000 0.000000 0.000000 0.000000 0.038092
#
#
# Mechanical properties :
#
#
# Convention : Reuss Voigt Hill
#
# Bulk Modulus (GPa) = 71.66610 75.47563 73.57087
# Shear Modulus (GPa) = 36.70409 41.96801 39.33605
#
# Velocity S-wave (km/s) = 3.96598 4.24084 4.10571
# Velocity P-wave (km/s) = 7.18911 7.50490 7.34870
#
# Compressibility (1/GPa) = 0.01395360
#
# Stress axis : x y z
#
# Youngs Moduli (GPa) = 135.37417 139.42439 127.14723
#
# Poissons Ratio (x) = 0.33179 -0.06329
# Poissons Ratio (y) = 0.32215 0.29922
# Poissons Ratio (z) = -0.06739 0.32811
#
# Static dielectric constant tensor:
#      x y z
#    x 1.932220 0.000000 0.000000 
#    y 0.000000 1.874290 0.000000 
#    z 0.000000 0.000000 2.005390 
# 
# From -- ./inp_files/2634.got.cif
#   From: 2010.05.17/outbox.cif.g08.bks.cpg/sg64_2_cif.got.tgz:2634.got - 2010.06.03 16:29:19.
