data_PCOD9481592
_publ_section_title
;
Structure prediction by ZEFSAII (Michael W. Deem and Ramdas Pophale) SiO2 
 PCOD9481592
Probable space group: C M C A
;
_chemical_formula_sum "Si O2"
_cell_formula_units_Z 96
_cell_length_a 14.485103
_cell_length_b 20.768589
_cell_length_c 14.447569
_cell_angle_alpha 90.000000
_cell_angle_beta 90.000000
_cell_angle_gamma 90.000000
_cell_volume 4346.336599
_symmetry_space_group_name_H-M "C M C A"
_symmetry_group_IT_number 64
_symmetry_cell_setting 'orthorhombic'
loop_
_space_group_symop_operation_xyz
x,y,z
-x,1/2-y,1/2+z
x,-y,-z
-x,1/2+y,1/2-z
-x,-y,-z
x,1/2+y,1/2-z
-x,y,z
x,1/2-y,1/2+z
1/2+x,1/2+y,z
1/2-x,-y,1/2+z
1/2+x,1/2-y,-z
1/2-x,y,1/2-z
1/2-x,1/2-y,-z
1/2+x,y,1/2-z
1/2-x,1/2+y,z
1/2+x,-y,1/2+z
loop_
_atom_site_type_symbol
_atom_site_label
_atom_site_fract_x
_atom_site_fract_y
_atom_site_fract_z
Si Si1 0.104948 0.701122 0.633897
Si Si2 0.393973 0.658826 0.380669
Si Si3 0.107164 0.404144 0.505909
Si Si4 0.309680 0.429995 0.466715
Si Si5 0.642113 0.420519 0.264332
Si Si6 0.642029 0.062606 0.280478
O O1 0.150942 0.770916 0.638987
O O2 0.114012 0.668728 0.532789
O O3 0.119582 0.642972 0.705978
O O4 0.000000 0.718836 0.650914
O O5 0.500000 0.662087 0.417177
O O6 0.332007 0.621496 0.454972
O O7 0.397521 0.615784 0.288667
O O8 0.197477 0.434762 0.455316
O O9 0.124128 0.416506 0.613995
O O10 0.000000 0.424116 0.483212
O O11 0.340852 0.500000 0.500000
O O12 0.364551 0.411846 0.374302
O O13 0.750000 0.427907 0.250000
O O14 0.603342 0.490203 0.235080
O O15 0.750000 0.061006 0.250000
#
# Coordination Sequence:
#
# PCOD9481592 Si02
#       6
#    16  16  16  16  16  16
#     4  10  25  44  64  98 137 173 229 282 330 406
#     4  11  25  45  66  96 140 180 223 282 336 395
#     4  11  24  43  69 100 135 179 225 279 344 401
#     4  12  23  45  69 100 137 175 228 283 334 408
#     4  11  22  42  69  98 132 172 219 278 340 395
#     4  11  22  43  69  98 133 173 224 281 336 402
#
# _framework density 22.087565999999999
#
# number of rings (size 3 to 8) (size 9 to 14) (size 15 to 20)
#    0.000    1.000    5.000    1.500    0.000    5.333 
#    0.000    3.333    0.000    0.000    0.000    0.000 
#    0.000    0.000    0.000    0.000    0.000    0.000 
#
# Total GULP energy -267607.926040 kJ/mol
# GULP energy per Si atom -5575.165126 kJ/mol
# Density = 2.203729 g / cm^3
# Si number density = 22.087566 Si / 1000 Ang^3
#
#
#
# Elastic Constant Matrix: (Units=GPa)
#
#
# Indices 1 2 3 4 5 6 
#
# 1 84.0307 16.3623 10.2746 0.0000 0.0000 0.0000
# 2 16.3623 207.2244 86.6293 0.0000 0.0000 0.0000
# 3 10.2746 86.6293 160.4647 0.0000 0.0000 0.0000
# 4 0.0000 0.0000 0.0000 22.8710 0.0000 0.0000
# 5 0.0000 0.0000 0.0000 0.0000 2.9010 0.0000
# 6 0.0000 0.0000 0.0000 0.0000 0.0000 19.6514
#
#
#
# Elastic Compliance Matrix: (Units=1/GPa)
#
#
# Indices 1 2 3 4 5 6 
#
# 1 0.012100 -0.000816 -0.000334 0.000000 0.000000 0.000000
# 2 -0.000816 0.006287 -0.003342 0.000000 0.000000 0.000000
# 3 -0.000334 -0.003342 0.008058 0.000000 0.000000 0.000000
# 4 0.000000 0.000000 0.000000 0.043723 0.000000 0.000000
# 5 0.000000 0.000000 0.000000 0.000000 0.344704 0.000000
# 6 0.000000 0.000000 0.000000 0.000000 0.000000 0.050887
#
#
# Mechanical properties :
#
#
# Convention : Reuss Voigt Hill
#
# Bulk Modulus (GPa) = 57.27139 75.36135 66.31637
# Shear Modulus (GPa) = 10.40445 31.64825 21.02635
#
# Velocity S-wave (km/s) = 2.17273 3.78941 3.08872
# Velocity P-wave (km/s) = 5.68154 7.30340 6.54292
#
# Compressibility (1/GPa) = 0.01746073
#
# Stress axis : x y z
#
# Youngs Moduli (GPa) = 82.64377 159.05323 124.10710
#
# Poissons Ratio (x) = 0.12972 0.04151
# Poissons Ratio (y) = 0.06740 0.41477
# Poissons Ratio (z) = 0.02764 0.53156
#
# Static dielectric constant tensor:
#      x y z
#    x 1.887060 0.000000 0.000000 
#    y 0.000000 1.914200 0.000000 
#    z 0.000000 0.000000 1.869920 
# 
# From -- ./inp_files/23957.got.cif
#   From: 2010.05.17/outbox.cif.g08.bks.cpg/sg64_12_cif.got.tgz:23957.got - 2010.06.03 16:29:19.
