data_PCOD9481239
_publ_section_title
;
Structure prediction by ZEFSAII (Michael W. Deem and Ramdas Pophale) SiO2 
 PCOD9481239
Probable space group: C M C A
;
_chemical_formula_sum "Si O2"
_cell_formula_units_Z 40
_cell_length_a 22.899397
_cell_length_b 14.107692
_cell_length_c 5.117072
_cell_angle_alpha 90.000000
_cell_angle_beta 90.000000
_cell_angle_gamma 90.000000
_cell_volume 1653.109203
_symmetry_space_group_name_H-M "C M C A"
_symmetry_group_IT_number 64
_symmetry_cell_setting 'orthorhombic'
loop_
_space_group_symop_operation_xyz
x,y,z
-x,1/2-y,1/2+z
x,-y,-z
-x,1/2+y,1/2-z
-x,-y,-z
x,1/2+y,1/2-z
-x,y,z
x,1/2-y,1/2+z
1/2+x,1/2+y,z
1/2-x,-y,1/2+z
1/2+x,1/2-y,-z
1/2-x,y,1/2-z
1/2-x,1/2-y,-z
1/2+x,y,1/2-z
1/2-x,1/2+y,z
1/2+x,-y,1/2+z
loop_
_atom_site_type_symbol
_atom_site_label
_atom_site_fract_x
_atom_site_fract_y
_atom_site_fract_z
Si Si1 0.000000 0.811078 0.567778
Si Si2 0.108018 0.935654 0.754602
Si Si3 0.777968 0.644095 0.492472
O O1 0.056799 0.872414 0.636265
O O2 0.000000 0.777105 0.269133
O O3 0.154839 0.867150 0.908789
O O4 0.127931 0.000000 0.500000
O O5 0.087835 0.000000 0.000000
O O6 0.750000 0.593177 0.250000
O O7 0.750000 0.750000 0.500000
O O8 0.750000 0.602875 0.750000
#
# Coordination Sequence:
#
# PCOD9481239 Si02
#       3
#     8  16  16
#     4  12  28  46  80 108 150 204 264 310 390 468
#     4  12  26  47  75 110 156 197 253 325 391 447
#     4  10  23  41  71 102 147 189 248 299 371 449
#
# _framework density 24.196829999999999
#
# number of rings (size 3 to 8) (size 9 to 14) (size 15 to 20)
#    0.000    0.800    0.000    6.000   11.200    3.200 
#    0.000    0.000    0.000    0.000    0.000    0.000 
#    0.000    0.000    0.000    0.000    0.000    0.000 
#
# Total GULP energy -111342.626759 kJ/mol
# GULP energy per Si atom -5567.131338 kJ/mol
# Density = 2.414176 g / cm^3
# Si number density = 24.196830 Si / 1000 Ang^3
#
#
#
# Elastic Constant Matrix: (Units=GPa)
#
#
# Indices 1 2 3 4 5 6 
#
# 1 134.3158 41.4384 8.9113 0.0000 0.0000 0.0000
# 2 41.4384 145.2327 21.6720 0.0000 0.0000 0.0000
# 3 8.9113 21.6720 199.6137 0.0000 0.0000 0.0000
# 4 0.0000 0.0000 0.0000 -21.3290 0.0000 0.0000
# 5 0.0000 0.0000 0.0000 0.0000 36.3031 0.0000
# 6 0.0000 0.0000 0.0000 0.0000 0.0000 29.7522
#
#
#
# Elastic Compliance Matrix: (Units=1/GPa)
#
#
# Indices 1 2 3 4 5 6 
#
# 1 0.008166 -0.002313 -0.000113 0.000000 0.000000 0.000000
# 2 -0.002313 0.007654 -0.000728 0.000000 0.000000 0.000000
# 3 -0.000113 -0.000728 0.005094 0.000000 0.000000 0.000000
# 4 0.000000 0.000000 0.000000 -0.046885 0.000000 0.000000
# 5 0.000000 0.000000 0.000000 0.000000 0.027546 0.000000
# 6 0.000000 0.000000 0.000000 0.000000 0.000000 0.033611
#
#
# Mechanical properties :
#
#
# Convention : Reuss Voigt Hill
#
# Bulk Modulus (GPa) = 68.46708 69.24508 68.85608
# Shear Modulus (GPa) = 107.84353 36.08797 71.96575
#
# Velocity S-wave (km/s) = 6.68327 3.86610 5.45952
# Velocity P-wave (km/s) = 9.37614 6.97198 8.26198
#
# Compressibility (1/GPa) = 0.01460556
#
# Stress axis : x y z
#
# Youngs Moduli (GPa) = 122.45454 130.64917 196.31898
#
# Poissons Ratio (x) = 0.30221 0.02227
# Poissons Ratio (y) = 0.28325 0.14287
# Poissons Ratio (z) = 0.01389 0.09508
#
# Static dielectric constant tensor:
#      x y z
#    x 2.012660 0.000000 0.000000 
#    y 0.000000 1.923750 0.000000 
#    z 0.000000 0.000000 1.992640 
# 
# From -- ./inp_files/2008.got.cif
#   From: 2010.05.17/outbox.cif.g08.bks.cpg/sg64_2_cif.got.tgz:2008.got - 2010.06.03 16:29:19.
