data_PCOD9481690
_publ_section_title
;
Structure prediction by ZEFSAII (Michael W. Deem and Ramdas Pophale) SiO2 
 PCOD9481690
Probable space group: C M C A
;
_chemical_formula_sum "Si O2"
_cell_formula_units_Z 112
_cell_length_a 15.668574
_cell_length_b 23.930318
_cell_length_c 15.086431
_cell_angle_alpha 90.000000
_cell_angle_beta 90.000000
_cell_angle_gamma 90.000000
_cell_volume 5656.717022
_symmetry_space_group_name_H-M "C M C A"
_symmetry_group_IT_number 64
_symmetry_cell_setting 'orthorhombic'
loop_
_space_group_symop_operation_xyz
x,y,z
-x,1/2-y,1/2+z
x,-y,-z
-x,1/2+y,1/2-z
-x,-y,-z
x,1/2+y,1/2-z
-x,y,z
x,1/2-y,1/2+z
1/2+x,1/2+y,z
1/2-x,-y,1/2+z
1/2+x,1/2-y,-z
1/2-x,y,1/2-z
1/2-x,1/2-y,-z
1/2+x,y,1/2-z
1/2-x,1/2+y,z
1/2+x,-y,1/2+z
loop_
_atom_site_type_symbol
_atom_site_label
_atom_site_fract_x
_atom_site_fract_y
_atom_site_fract_z
Si Si1 0.286946 0.945018 0.161588
Si Si2 0.595262 0.049124 0.225369
Si Si3 0.647436 0.976267 0.586246
Si Si4 0.350421 0.324001 0.754112
Si Si5 0.594422 0.301474 0.572813
Si Si6 0.258629 0.379871 0.502335
Si Si7 0.596980 0.188240 0.461407
O O1 0.250000 0.916858 0.250000
O O2 0.309454 0.902673 0.083597
O O3 0.350081 0.996927 0.185827
O O4 0.203427 0.972957 0.120669
O O5 0.500000 0.048503 0.187523
O O6 0.592185 0.041367 0.331465
O O7 0.633919 0.111484 0.222754
O O8 0.719019 0.930031 0.561191
O O9 0.601758 0.000000 0.500000
O O10 0.250000 0.313058 0.750000
O O11 0.395717 0.287499 0.677556
O O12 0.382310 0.314514 0.855358
O O13 0.500000 0.327211 0.561501
O O14 0.673726 0.341203 0.551488
O O15 0.599047 0.249410 0.505555
O O16 0.171377 0.345290 0.487541
O O17 0.500000 0.166058 0.472894
#
# Coordination Sequence:
#
# PCOD9481690 Si02
#       7
#    16  16  16  16  16  16  16
#     4   9  20  37  54  83 122 163 201 242 302 375
#     4  11  20  33  57  89 121 155 206 255 303 371
#     4   9  18  33  56  81 112 153 199 252 306 358
#     4  12  22  39  68  92 121 163 208 258 316 374
#     4  11  24  41  61  91 125 158 207 263 316 375
#     4  11  20  38  63  87 122 166 203 256 314 373
#     4  11  24  42  64  94 124 157 214 272 313 367
#
# _framework density 19.799471
#
# number of rings (size 3 to 8) (size 9 to 14) (size 15 to 20)
#    0.000    1.429    2.857    3.857    0.000    0.857 
#    2.571    5.714    0.000    4.286    0.000    0.000 
#    0.000    0.000    0.000    0.000    0.000    0.000 
#
# Total GULP energy -311745.227190 kJ/mol
# GULP energy per Si atom -5566.879057 kJ/mol
# Density = 1.975441 g / cm^3
# Si number density = 19.799471 Si / 1000 Ang^3
#
#
#
# Elastic Constant Matrix: (Units=GPa)
#
#
# Indices 1 2 3 4 5 6 
#
# 1 99.2355 12.8205 36.7124 0.0000 0.0000 0.0000
# 2 12.8205 41.0518 51.0400 0.0000 0.0000 0.0000
# 3 36.7124 51.0400 98.1927 0.0000 0.0000 0.0000
# 4 0.0000 0.0000 0.0000 30.4380 0.0000 0.0000
# 5 0.0000 0.0000 0.0000 0.0000 -8.0422 0.0000
# 6 0.0000 0.0000 0.0000 0.0000 0.0000 -34.5634
#
#
#
# Elastic Compliance Matrix: (Units=1/GPa)
#
#
# Indices 1 2 3 4 5 6 
#
# 1 0.012076 0.005208 -0.007222 0.000000 0.000000 0.000000
# 2 0.005208 0.071109 -0.038909 0.000000 0.000000 0.000000
# 3 -0.007222 -0.038909 0.033109 0.000000 0.000000 0.000000
# 4 0.000000 0.000000 0.000000 0.032854 0.000000 0.000000
# 5 0.000000 0.000000 0.000000 0.000000 -0.124345 0.000000
# 6 0.000000 0.000000 0.000000 0.000000 0.000000 -0.028932
#
#
# Mechanical properties :
#
#
# Convention : Reuss Voigt Hill
#
# Bulk Modulus (GPa) = 29.02984 48.84732 38.93858
# Shear Modulus (GPa) = 56.05382 6.76028 31.40705
#
# Velocity S-wave (km/s) = 5.32656 1.84981 3.98710
# Velocity P-wave (km/s) = 7.24730 5.41174 6.39572
#
# Compressibility (1/GPa) = 0.03444732
#
# Stress axis : x y z
#
# Youngs Moduli (GPa) = 82.80889 14.06289 30.20333
#
# Poissons Ratio (x) = -0.07324 0.21813
# Poissons Ratio (y) = -0.43124 1.17519
# Poissons Ratio (z) = 0.59804 0.54718
#
# Static dielectric constant tensor:
#      x y z
#    x 1.761910 0.000000 0.000000 
#    y 0.000000 1.758020 0.000000 
#    z 0.000000 0.000000 1.857830 
# 
# From -- ./inp_files/24228.got.cif
#   From: 2010.05.17/outbox.cif.g08.bks.cpg/sg64_13_cif.got.tgz:24228.got - 2010.06.03 16:29:19.
