data_PCOD9481211
_publ_section_title
;
Structure prediction by ZEFSAII (Michael W. Deem and Ramdas Pophale) SiO2 
 PCOD9481211
Probable space group: C M C A
;
_chemical_formula_sum "Si O2"
_cell_formula_units_Z 80
_cell_length_a 13.479276
_cell_length_b 13.714961
_cell_length_c 23.356585
_cell_angle_alpha 90.000000
_cell_angle_beta 90.000000
_cell_angle_gamma 90.000000
_cell_volume 4317.879192
_symmetry_space_group_name_H-M "C M C A"
_symmetry_group_IT_number 64
_symmetry_cell_setting 'orthorhombic'
loop_
_space_group_symop_operation_xyz
x,y,z
-x,1/2-y,1/2+z
x,-y,-z
-x,1/2+y,1/2-z
-x,-y,-z
x,1/2+y,1/2-z
-x,y,z
x,1/2-y,1/2+z
1/2+x,1/2+y,z
1/2-x,-y,1/2+z
1/2+x,1/2-y,-z
1/2-x,y,1/2-z
1/2-x,1/2-y,-z
1/2+x,y,1/2-z
1/2-x,1/2+y,z
1/2+x,-y,1/2+z
loop_
_atom_site_type_symbol
_atom_site_label
_atom_site_fract_x
_atom_site_fract_y
_atom_site_fract_z
Si Si1 0.885735 0.253779 0.286566
Si Si2 0.795717 0.100726 0.965338
Si Si3 0.884500 0.741531 0.950857
Si Si4 0.308781 0.829431 0.668429
Si Si5 0.617391 0.043388 0.657534
O O1 0.807182 0.196438 0.325795
O O2 0.861275 0.224533 0.221615
O O3 0.869578 0.368400 0.297954
O O4 0.000000 0.231461 0.300117
O O5 0.687459 0.149531 0.959954
O O6 0.841065 0.080170 0.903160
O O7 0.861267 0.179502 0.999765
O O8 0.792854 0.000000 0.000000
O O9 0.852665 0.791612 0.891093
O O10 0.000000 0.716660 0.950088
O O11 0.328149 0.944096 0.674063
O O12 0.500000 0.022605 0.652366
#
# Coordination Sequence:
#
# PCOD9481211 Si02
#       5
#    16  16  16  16  16
#     4  10  23  41  62  88 124 163 200 250 307 359
#     4  11  23  40  62  91 124 161 205 254 303 366
#     4  11  23  40  64  92 124 161 202 255 309 361
#     4  11  22  40  66  92 123 157 211 254 299 362
#     4  11  22  40  64  91 122 163 208 251 301 364
#
# _framework density 18.527615000000001
#
# number of rings (size 3 to 8) (size 9 to 14) (size 15 to 20)
#    0.000    1.200    4.000    2.400    0.000    4.400 
#    0.000    1.000    0.000    0.000    0.000    0.000 
#    0.000    0.000    0.000    0.000    0.000    0.000 
#
# Total GULP energy -223566.770281 kJ/mol
# GULP energy per Si atom -5589.169257 kJ/mol
# Density = 1.848545 g / cm^3
# Si number density = 18.527615 Si / 1000 Ang^3
#
#
#
# Elastic Constant Matrix: (Units=GPa)
#
#
# Indices 1 2 3 4 5 6 
#
# 1 116.8952 23.9094 -3.4425 0.0000 0.0000 0.0000
# 2 23.9094 83.1340 14.3076 0.0000 0.0000 0.0000
# 3 -3.4425 14.3076 66.9850 0.0000 0.0000 0.0000
# 4 0.0000 0.0000 0.0000 38.0675 0.0000 0.0000
# 5 0.0000 0.0000 0.0000 0.0000 15.7512 0.0000
# 6 0.0000 0.0000 0.0000 0.0000 0.0000 20.1049
#
#
#
# Elastic Compliance Matrix: (Units=1/GPa)
#
#
# Indices 1 2 3 4 5 6 
#
# 1 0.009163 -0.002820 0.001073 0.000000 0.000000 0.000000
# 2 -0.002820 0.013356 -0.002998 0.000000 0.000000 0.000000
# 3 0.001073 -0.002998 0.015624 0.000000 0.000000 0.000000
# 4 0.000000 0.000000 0.000000 0.026269 0.000000 0.000000
# 5 0.000000 0.000000 0.000000 0.000000 0.063487 0.000000
# 6 0.000000 0.000000 0.000000 0.000000 0.000000 0.049739
#
#
# Mechanical properties :
#
#
# Convention : Reuss Voigt Hill
#
# Bulk Modulus (GPa) = 34.89898 37.39593 36.14745
# Shear Modulus (GPa) = 25.42219 30.26736 27.84478
#
# Velocity S-wave (km/s) = 3.70824 4.04621 3.88091
# Velocity P-wave (km/s) = 6.10015 6.48512 6.29558
#
# Compressibility (1/GPa) = 0.02865413
#
# Stress axis : x y z
#
# Youngs Moduli (GPa) = 109.13364 74.87429 64.00343
#
# Poissons Ratio (x) = 0.21115 -0.06869
# Poissons Ratio (y) = 0.30776 0.19186
# Poissons Ratio (z) = -0.11713 0.22445
#
# Static dielectric constant tensor:
#      x y z
#    x 1.633150 0.000000 0.000000 
#    y 0.000000 1.611970 0.000000 
#    z 0.000000 0.000000 1.626000 
# 
# From -- ./inp_files/43955.got.cif
#   From: 2010.05.17/outbox.cif.g08.bks.cpg/sg64_22_cif.got.tgz:43955.got - 2010.06.03 16:29:19.
