data_PCOD9481450
_publ_section_title
;
Structure prediction by ZEFSAII (Michael W. Deem and Ramdas Pophale) SiO2 
 PCOD9481450
Probable space group: C M C A
;
_chemical_formula_sum "Si O2"
_cell_formula_units_Z 56
_cell_length_a 19.608626
_cell_length_b 23.286832
_cell_length_c 5.108034
_cell_angle_alpha 90.000000
_cell_angle_beta 90.000000
_cell_angle_gamma 90.000000
_cell_volume 2332.444682
_symmetry_space_group_name_H-M "C M C A"
_symmetry_group_IT_number 64
_symmetry_cell_setting 'orthorhombic'
loop_
_space_group_symop_operation_xyz
x,y,z
-x,1/2-y,1/2+z
x,-y,-z
-x,1/2+y,1/2-z
-x,-y,-z
x,1/2+y,1/2-z
-x,y,z
x,1/2-y,1/2+z
1/2+x,1/2+y,z
1/2-x,-y,1/2+z
1/2+x,1/2-y,-z
1/2-x,y,1/2-z
1/2-x,1/2-y,-z
1/2+x,y,1/2-z
1/2-x,1/2+y,z
1/2+x,-y,1/2+z
loop_
_atom_site_type_symbol
_atom_site_label
_atom_site_fract_x
_atom_site_fract_y
_atom_site_fract_z
Si Si1 0.835460 0.438120 0.969714
Si Si2 0.576263 0.915066 0.464771
Si Si3 0.250000 0.341987 0.250000
Si Si4 0.612263 0.213636 0.614729
O O1 0.869810 0.431042 0.688550
O O2 0.800302 0.500000 0.000000
O O3 0.895272 0.437106 0.188148
O O4 0.787462 0.384804 0.046274
O O5 0.500000 0.934907 0.523171
O O6 0.576086 0.846080 0.443862
O O7 0.307653 0.303376 0.116657
O O8 0.596406 0.260851 0.397985
#
# Coordination Sequence:
#
# PCOD9481450 Si02
#       4
#    16  16   8  16
#     4  11  25  43  67  96 129 170 211 263 324 377
#     4  11  25  44  65  95 130 167 218 266 311 379
#     4  10  24  42  64  96 132 164 214 266 316 386
#     4  11  23  40  64  92 126 168 209 259 318 374
#
# _framework density 24.009145
#
# number of rings (size 3 to 8) (size 9 to 14) (size 15 to 20)
#    0.000    1.143    0.000    6.000    0.000   18.286 
#    0.000    0.000    0.000    0.000    0.000    0.000 
#    0.000    0.000    0.000    0.000    0.000    0.000 
#
# Total GULP energy -156970.274702 kJ/mol
# GULP energy per Si atom -5606.081239 kJ/mol
# Density = 2.395450 g / cm^3
# Si number density = 24.009145 Si / 1000 Ang^3
#
#
#
# Elastic Constant Matrix: (Units=GPa)
#
#
# Indices 1 2 3 4 5 6 
#
# 1 71.6775 -11.2623 13.3975 0.0000 0.0000 0.0000
# 2 -11.2623 94.2306 2.1154 0.0000 0.0000 0.0000
# 3 13.3975 2.1154 93.7116 0.0000 0.0000 0.0000
# 4 0.0000 0.0000 0.0000 68.8225 0.0000 0.0000
# 5 0.0000 0.0000 0.0000 0.0000 21.8705 0.0000
# 6 0.0000 0.0000 0.0000 0.0000 0.0000 -28.7829
#
#
#
# Elastic Compliance Matrix: (Units=1/GPa)
#
#
# Indices 1 2 3 4 5 6 
#
# 1 0.014632 0.001797 -0.002132 0.000000 0.000000 0.000000
# 2 0.001797 0.010838 -0.000502 0.000000 0.000000 0.000000
# 3 -0.002132 -0.000502 0.010987 0.000000 0.000000 0.000000
# 4 0.000000 0.000000 0.000000 0.014530 0.000000 0.000000
# 5 0.000000 0.000000 0.000000 0.000000 0.045724 0.000000
# 6 0.000000 0.000000 0.000000 0.000000 0.000000 -0.034743
#
#
# Mechanical properties :
#
#
# Convention : Reuss Voigt Hill
#
# Bulk Modulus (GPa) = 28.74954 29.79123 29.27038
# Shear Modulus (GPa) = 66.45603 29.40663 47.93133
#
# Velocity S-wave (km/s) = 5.26684 3.50352 4.47293
# Velocity P-wave (km/s) = 6.99903 5.36670 6.23650
#
# Compressibility (1/GPa) = 0.03478317
#
# Stress axis : x y z
#
# Youngs Moduli (GPa) = 68.34211 92.26572 91.01476
#
# Poissons Ratio (x) = -0.16577 0.19409
# Poissons Ratio (y) = -0.12279 0.04565
# Poissons Ratio (z) = 0.14574 0.04627
#
# Static dielectric constant tensor:
#      x y z
#    x 1.952060 0.000000 0.000000 
#    y 0.000000 1.905790 0.000000 
#    z 0.000000 0.000000 1.848840 
# 
# From -- ./inp_files/1632.got.cif
#   From: 2010.05.17/outbox.cif.g08.bks.cpg/sg64_1_cif.got.tgz:1632.got - 2010.06.03 16:29:19.
