data_PCOD9481280
_publ_section_title
;
Structure prediction by ZEFSAII (Michael W. Deem and Ramdas Pophale) SiO2 
 PCOD9481280
Probable space group: C M C A
;
_chemical_formula_sum "Si O2"
_cell_formula_units_Z 72
_cell_length_a 25.218479
_cell_length_b 9.761777
_cell_length_c 15.581944
_cell_angle_alpha 90.000000
_cell_angle_beta 90.000000
_cell_angle_gamma 90.000000
_cell_volume 3835.918850
_symmetry_space_group_name_H-M "C M C A"
_symmetry_group_IT_number 64
_symmetry_cell_setting 'orthorhombic'
loop_
_space_group_symop_operation_xyz
x,y,z
-x,1/2-y,1/2+z
x,-y,-z
-x,1/2+y,1/2-z
-x,-y,-z
x,1/2+y,1/2-z
-x,y,z
x,1/2-y,1/2+z
1/2+x,1/2+y,z
1/2-x,-y,1/2+z
1/2+x,1/2-y,-z
1/2-x,y,1/2-z
1/2-x,1/2-y,-z
1/2+x,y,1/2-z
1/2-x,1/2+y,z
1/2+x,-y,1/2+z
loop_
_atom_site_type_symbol
_atom_site_label
_atom_site_fract_x
_atom_site_fract_y
_atom_site_fract_z
Si Si1 0.629193 0.000000 0.500000
Si Si2 0.885428 0.096686 0.719016
Si Si3 0.702873 0.479516 0.601773
Si Si4 0.801988 0.336045 0.367610
Si Si5 0.562723 0.377823 0.842645
O O1 0.666302 0.890956 0.451031
O O2 0.593614 0.926297 0.571923
O O3 0.852557 0.024940 0.643265
O O4 0.841474 0.145779 0.787964
O O5 0.917107 0.228193 0.685622
O O6 0.921591 0.986420 0.768429
O O7 0.702054 0.500000 0.500000
O O8 0.750009 0.571279 0.639964
O O9 0.713268 0.321304 0.622163
O O10 0.500000 0.377941 0.856606
#
# Coordination Sequence:
#
# PCOD9481280 Si02
#       5
#     8  16  16  16  16
#     4  10  23  42  68  96 126 168 213 264 324 386
#     4  11  24  41  65  93 130 165 214 263 317 379
#     4  12  24  39  64  94 132 169 205 256 313 384
#     4  11  24  40  62  96 131 169 208 251 317 384
#     4  11  23  44  68  91 123 168 219 272 322 373
#
# _framework density 18.769947999999999
#
# number of rings (size 3 to 8) (size 9 to 14) (size 15 to 20)
#    0.000    0.889    3.333    3.667    6.222    1.778 
#    0.000    0.000    0.000    2.667    0.000    0.000 
#    0.000    0.000    0.000    0.000    0.000    0.000 
#
# Total GULP energy -201433.819657 kJ/mol
# GULP energy per Si atom -5595.383879 kJ/mol
# Density = 1.872723 g / cm^3
# Si number density = 18.769948 Si / 1000 Ang^3
#
#
#
# Elastic Constant Matrix: (Units=GPa)
#
#
# Indices 1 2 3 4 5 6 
#
# 1 89.8145 54.6483 26.7307 0.0000 0.0000 0.0000
# 2 54.6483 168.4801 25.8980 0.0000 0.0000 0.0000
# 3 26.7307 25.8980 56.1135 0.0000 0.0000 0.0000
# 4 0.0000 0.0000 0.0000 21.9166 0.0000 0.0000
# 5 0.0000 0.0000 0.0000 0.0000 19.9493 0.0000
# 6 0.0000 0.0000 0.0000 0.0000 0.0000 44.2352
#
#
#
# Elastic Compliance Matrix: (Units=1/GPa)
#
#
# Indices 1 2 3 4 5 6 
#
# 1 0.015234 -0.004118 -0.005356 0.000000 0.000000 0.000000
# 2 -0.004118 0.007502 -0.001501 0.000000 0.000000 0.000000
# 3 -0.005356 -0.001501 0.021065 0.000000 0.000000 0.000000
# 4 0.000000 0.000000 0.000000 0.045627 0.000000 0.000000
# 5 0.000000 0.000000 0.000000 0.000000 0.050127 0.000000
# 6 0.000000 0.000000 0.000000 0.000000 0.000000 0.022606
#
#
# Mechanical properties :
#
#
# Convention : Reuss Voigt Hill
#
# Bulk Modulus (GPa) = 45.76457 58.77358 52.26907
# Shear Modulus (GPa) = 26.12397 31.02898 28.57647
#
# Velocity S-wave (km/s) = 3.73473 4.07027 3.90610
# Velocity P-wave (km/s) = 6.55990 7.31232 6.94631
#
# Compressibility (1/GPa) = 0.02185097
#
# Stress axis : x y z
#
# Youngs Moduli (GPa) = 65.64355 133.30186 47.47157
#
# Poissons Ratio (x) = 0.54892 0.25428
# Poissons Ratio (y) = 0.27031 0.07124
# Poissons Ratio (z) = 0.35161 0.20004
#
# Static dielectric constant tensor:
#      x y z
#    x 1.613810 0.000000 0.000000 
#    y 0.000000 1.621790 0.000000 
#    z 0.000000 0.000000 1.646060 
# 
# From -- ./inp_files/27795.got.cif
#   From: 2010.05.17/outbox.cif.g08.bks.cpg/sg64_14_cif.got.tgz:27795.got - 2010.06.03 16:29:19.
