data_PCOD9481856
_publ_section_title
;
Structure prediction by ZEFSAII (Michael W. Deem and Ramdas Pophale) SiO2 
 PCOD9481856
Probable space group: C M C A
;
_chemical_formula_sum "Si O2"
_cell_formula_units_Z 96
_cell_length_a 19.123610
_cell_length_b 9.455998
_cell_length_c 29.478269
_cell_angle_alpha 90.000000
_cell_angle_beta 90.000000
_cell_angle_gamma 90.000000
_cell_volume 5330.638450
_symmetry_space_group_name_H-M "C M C A"
_symmetry_group_IT_number 64
_symmetry_cell_setting 'orthorhombic'
loop_
_space_group_symop_operation_xyz
x,y,z
-x,1/2-y,1/2+z
x,-y,-z
-x,1/2+y,1/2-z
-x,-y,-z
x,1/2+y,1/2-z
-x,y,z
x,1/2-y,1/2+z
1/2+x,1/2+y,z
1/2-x,-y,1/2+z
1/2+x,1/2-y,-z
1/2-x,y,1/2-z
1/2-x,1/2-y,-z
1/2+x,y,1/2-z
1/2-x,1/2+y,z
1/2+x,-y,1/2+z
loop_
_atom_site_type_symbol
_atom_site_label
_atom_site_fract_x
_atom_site_fract_y
_atom_site_fract_z
Si Si1 0.320402 0.663462 0.988335
Si Si2 0.918013 0.998436 0.285251
Si Si3 0.669381 0.547631 0.626570
Si Si4 0.918128 0.830145 0.195926
Si Si5 0.083030 0.123955 0.536953
Si Si6 0.812696 0.714344 0.616313
O O1 0.334489 0.680392 0.935028
O O2 0.310133 0.500000 0.000000
O O3 0.250000 0.750000 0.000000
O O4 0.381999 0.734865 0.017153
O O5 0.872392 0.938133 0.326395
O O6 0.897837 0.933977 0.236801
O O7 0.000000 0.963623 0.292511
O O8 0.911666 0.168264 0.286677
O O9 0.619977 0.584394 0.584047
O O10 0.737730 0.644218 0.624918
O O11 0.690826 0.383443 0.621716
O O12 0.868932 0.842730 0.152385
O O13 0.000000 0.853622 0.184631
O O14 0.000000 0.136806 0.542637
O O15 0.096715 0.000000 0.500000
#
# Coordination Sequence:
#
# PCOD9481856 Si02
#       6
#    16  16  16  16  16  16
#     4  12  23  40  63  87 125 163 201 245 299 357
#     4   9  19  38  61  83 115 151 192 243 296 353
#     4  11  22  38  60  89 117 154 201 241 299 357
#     4   9  20  39  61  86 114 153 197 243 299 355
#     4  11  23  40  63  89 118 156 201 247 295 355
#     4  11  23  37  61  88 118 159 196 247 300 353
#
# _framework density 18.009098999999999
#
# number of rings (size 3 to 8) (size 9 to 14) (size 15 to 20)
#    0.000    1.500    3.333    2.000    0.000    3.667 
#    0.000    3.333    0.000    0.000    0.000    0.000 
#    0.000    0.000    0.000    0.000    0.000    0.000 
#
# Total GULP energy -268202.959836 kJ/mol
# GULP energy per Si atom -5587.561663 kJ/mol
# Density = 1.796811 g / cm^3
# Si number density = 18.009099 Si / 1000 Ang^3
#
#
#
# Elastic Constant Matrix: (Units=GPa)
#
#
# Indices 1 2 3 4 5 6 
#
# 1 104.1414 52.9624 73.5998 0.0000 0.0000 0.0000
# 2 52.9624 87.2564 51.4917 0.0000 0.0000 0.0000
# 3 73.5998 51.4917 149.5218 0.0000 0.0000 0.0000
# 4 0.0000 0.0000 0.0000 30.2187 0.0000 0.0000
# 5 0.0000 0.0000 0.0000 0.0000 32.6413 0.0000
# 6 0.0000 0.0000 0.0000 0.0000 0.0000 25.1870
#
#
#
# Elastic Compliance Matrix: (Units=1/GPa)
#
#
# Indices 1 2 3 4 5 6 
#
# 1 0.017561 -0.006976 -0.006242 0.000000 0.000000 0.000000
# 2 -0.006976 0.017154 -0.002474 0.000000 0.000000 0.000000
# 3 -0.006242 -0.002474 0.010612 0.000000 0.000000 0.000000
# 4 0.000000 0.000000 0.000000 0.033092 0.000000 0.000000
# 5 0.000000 0.000000 0.000000 0.000000 0.030636 0.000000
# 6 0.000000 0.000000 0.000000 0.000000 0.000000 0.039703
#
#
# Mechanical properties :
#
#
# Convention : Reuss Voigt Hill
#
# Bulk Modulus (GPa) = 71.71038 77.44748 74.57893
# Shear Modulus (GPa) = 27.05760 28.46713 27.76236
#
# Velocity S-wave (km/s) = 3.88034 3.98013 3.93055
# Velocity P-wave (km/s) = 7.74477 8.01373 7.88040
#
# Compressibility (1/GPa) = 0.01394498
#
# Stress axis : x y z
#
# Youngs Moduli (GPa) = 56.94320 58.29389 94.22878
#
# Poissons Ratio (x) = 0.40664 0.58818
# Poissons Ratio (y) = 0.39722 0.23311
# Poissons Ratio (z) = 0.35544 0.14421
#
# Static dielectric constant tensor:
#      x y z
#    x 1.596960 0.000000 0.000000 
#    y 0.000000 1.604720 0.000000 
#    z 0.000000 0.000000 1.596290 
# 
# From -- ./inp_files/50686.got.cif
#   From: 2010.05.17/outbox.cif.g08.bks.cpg/sg64_26_cif.got.tgz:50686.got - 2010.06.03 16:29:19.
