data_PCOD9481044
_publ_section_title
;
Structure prediction by ZEFSAII (Michael W. Deem and Ramdas Pophale) SiO2 
 PCOD9481044
Probable space group: C M C A
;
_chemical_formula_sum "Si O2"
_cell_formula_units_Z 116
_cell_length_a 20.853118
_cell_length_b 16.728880
_cell_length_c 17.081752
_cell_angle_alpha 90.000000
_cell_angle_beta 90.000000
_cell_angle_gamma 90.000000
_cell_volume 5958.957376
_symmetry_space_group_name_H-M "C M C A"
_symmetry_group_IT_number 64
_symmetry_cell_setting 'orthorhombic'
loop_
_space_group_symop_operation_xyz
x,y,z
-x,1/2-y,1/2+z
x,-y,-z
-x,1/2+y,1/2-z
-x,-y,-z
x,1/2+y,1/2-z
-x,y,z
x,1/2-y,1/2+z
1/2+x,1/2+y,z
1/2-x,-y,1/2+z
1/2+x,1/2-y,-z
1/2-x,y,1/2-z
1/2-x,1/2-y,-z
1/2+x,y,1/2-z
1/2-x,1/2+y,z
1/2+x,-y,1/2+z
loop_
_atom_site_type_symbol
_atom_site_label
_atom_site_fract_x
_atom_site_fract_y
_atom_site_fract_z
Si Si1 0.278737 0.705702 0.423596
Si Si2 0.430232 0.713869 0.264392
Si Si3 0.426705 0.094822 0.512872
Si Si4 0.890066 0.086299 0.393508
Si Si5 0.144222 0.842800 0.162114
Si Si6 0.324754 0.497606 0.253366
Si Si7 0.000000 0.500000 0.000000
Si Si8 0.851324 0.363442 0.639224
O O1 0.250000 0.750000 0.500000
O O2 0.336786 0.642279 0.436888
O O3 0.305962 0.773818 0.364653
O O4 0.220606 0.656306 0.385869
O O5 0.500000 0.706478 0.227980
O O6 0.422201 0.647018 0.331161
O O7 0.417721 0.798230 0.303821
O O8 0.375925 0.702052 0.200013
O O9 0.500000 0.121537 0.526833
O O10 0.379349 0.114131 0.583714
O O11 0.396773 0.134272 0.435771
O O12 0.427610 0.000000 0.500000
O O13 0.854445 0.020996 0.337495
O O14 0.942934 0.046775 0.448709
O O15 0.167982 0.906767 0.225092
O O16 0.250000 0.518584 0.250000
O O17 0.356735 0.554037 0.187348
#
# Coordination Sequence:
#
# PCOD9481044 Si02
#       8
#    16  16  16  16  16  16   4  16
#     4  11  23  43  67 100 135 177 224 284 356 406
#     4  10  22  43  64  93 132 179 213 274 345 401
#     4  11  22  40  63  96 124 166 214 272 324 387
#     4  10  24  44  70  96 136 184 223 286 337 417
#     4  11  24  39  65  93 133 172 216 275 333 403
#     4  11  23  42  67  98 131 171 224 279 338 397
#     4  12  24  52  72 100 136 194 252 268 354 426
#     4  11  22  42  68  94 126 169 223 271 337 408
#
# _framework density 19.466491999999999
#
# number of rings (size 3 to 8) (size 9 to 14) (size 15 to 20)
#    0.000    1.241    4.828    0.828    1.931    1.103 
#    3.724    0.000    0.000    0.000    0.000    0.000 
#    0.000    0.000    0.000    0.000    0.000    0.000 
#
# Total GULP energy -323122.653519 kJ/mol
# GULP energy per Si atom -5571.080233 kJ/mol
# Density = 1.942219 g / cm^3
# Si number density = 19.466492 Si / 1000 Ang^3
#
#
#
# Elastic Constant Matrix: (Units=GPa)
#
#
# Indices 1 2 3 4 5 6 
#
# 1 95.2402 15.3320 36.3394 0.0000 0.0000 0.0000
# 2 15.3320 69.5288 40.9742 0.0000 0.0000 0.0000
# 3 36.3394 40.9742 81.1543 0.0000 0.0000 0.0000
# 4 0.0000 0.0000 0.0000 32.5027 0.0000 0.0000
# 5 0.0000 0.0000 0.0000 0.0000 27.8399 0.0000
# 6 0.0000 0.0000 0.0000 0.0000 0.0000 23.6422
#
#
#
# Elastic Compliance Matrix: (Units=1/GPa)
#
#
# Indices 1 2 3 4 5 6 
#
# 1 0.012693 0.000784 -0.006079 0.000000 0.000000 0.000000
# 2 0.000784 0.020523 -0.010713 0.000000 0.000000 0.000000
# 3 -0.006079 -0.010713 0.020453 0.000000 0.000000 0.000000
# 4 0.000000 0.000000 0.000000 0.030767 0.000000 0.000000
# 5 0.000000 0.000000 0.000000 0.000000 0.035920 0.000000
# 6 0.000000 0.000000 0.000000 0.000000 0.000000 0.042297
#
#
# Mechanical properties :
#
#
# Convention : Reuss Voigt Hill
#
# Bulk Modulus (GPa) = 46.18450 47.91275 47.04862
# Shear Modulus (GPa) = 24.76625 27.01548 25.89086
#
# Velocity S-wave (km/s) = 3.57073 3.72935 3.65090
# Velocity P-wave (km/s) = 6.38567 6.57347 6.48025
#
# Compressibility (1/GPa) = 0.02165228
#
# Stress axis : x y z
#
# Youngs Moduli (GPa) = 78.78187 48.72611 48.89190
#
# Poissons Ratio (x) = -0.03819 0.29724
# Poissons Ratio (y) = -0.06174 0.52377
# Poissons Ratio (z) = 0.47895 0.52199
#
# Static dielectric constant tensor:
#      x y z
#    x 1.675230 0.000000 0.000000 
#    y 0.000000 1.689860 0.000000 
#    z 0.000000 0.000000 1.677680 
# 
# From -- ./inp_files/33460.got.cif
#   From: 2010.05.17/outbox.cif.g08.bks.cpg/sg64_17_cif.got.tgz:33460.got - 2010.06.03 16:29:19.
