data_PCOD9481274
_publ_section_title
;
Structure prediction by ZEFSAII (Michael W. Deem and Ramdas Pophale) SiO2 
 PCOD9481274
Probable space group: C M C A
;
_chemical_formula_sum "Si O2"
_cell_formula_units_Z 64
_cell_length_a 14.409775
_cell_length_b 10.118815
_cell_length_c 17.404098
_cell_angle_alpha 90.000000
_cell_angle_beta 90.000000
_cell_angle_gamma 90.000000
_cell_volume 2537.688874
_symmetry_space_group_name_H-M "C M C A"
_symmetry_group_IT_number 64
_symmetry_cell_setting 'orthorhombic'
loop_
_space_group_symop_operation_xyz
x,y,z
-x,1/2-y,1/2+z
x,-y,-z
-x,1/2+y,1/2-z
-x,-y,-z
x,1/2+y,1/2-z
-x,y,z
x,1/2-y,1/2+z
1/2+x,1/2+y,z
1/2-x,-y,1/2+z
1/2+x,1/2-y,-z
1/2-x,y,1/2-z
1/2-x,1/2-y,-z
1/2+x,y,1/2-z
1/2-x,1/2+y,z
1/2+x,-y,1/2+z
loop_
_atom_site_type_symbol
_atom_site_label
_atom_site_fract_x
_atom_site_fract_y
_atom_site_fract_z
Si Si1 0.351436 0.000000 0.500000
Si Si2 0.500000 0.913740 0.802976
Si Si3 0.000000 0.947675 0.870698
Si Si4 0.500000 0.344384 0.419873
Si Si5 0.703111 0.150860 0.927877
Si Si6 0.296345 0.122083 0.169271
O O1 0.413804 0.009283 0.423873
O O2 0.284783 0.125000 0.511491
O O3 0.500000 0.981998 0.718536
O O4 0.403588 0.836764 0.815664
O O5 0.500000 0.029379 0.865946
O O6 0.000000 0.788530 0.870007
O O7 0.401165 0.339821 0.462388
O O8 0.735549 0.261790 0.868147
O O9 0.702315 0.011164 0.881086
O O10 0.250000 0.087705 0.250000
#
# Coordination Sequence:
#
# PCOD9481274 Si02
#       6
#     8   8   8   8  16  16
#     4  11  26  43  64  92 132 181 224 261 320 404
#     4  10  23  42  67 100 129 164 217 274 335 387
#     4  11  24  43  65  94 133 174 219 274 327 391
#     4  10  23  42  68  97 130 168 216 281 334 385
#     4  11  24  43  66  97 133 174 218 267 331 395
#     4  11  23  41  68  98 130 167 215 276 332 385
#
# _framework density 25.219798999999998
#
# number of rings (size 3 to 8) (size 9 to 14) (size 15 to 20)
#    0.000    1.250    0.000    5.250    0.000   12.500 
#    0.000    3.750    0.000    0.000    0.000    0.000 
#    0.000    0.000    0.000    0.000    0.000    0.000 
#
# Total GULP energy -179210.743216 kJ/mol
# GULP energy per Si atom -5600.335726 kJ/mol
# Density = 2.516240 g / cm^3
# Si number density = 25.219799 Si / 1000 Ang^3
#
#
#
# Elastic Constant Matrix: (Units=GPa)
#
#
# Indices 1 2 3 4 5 6 
#
# 1 249.6075 37.1804 47.8791 0.0000 0.0000 0.0000
# 2 37.1804 65.0829 -3.2436 0.0000 0.0000 0.0000
# 3 47.8791 -3.2436 90.4818 0.0000 0.0000 0.0000
# 4 0.0000 0.0000 0.0000 20.6276 0.0000 0.0000
# 5 0.0000 0.0000 0.0000 0.0000 33.0163 0.0000
# 6 0.0000 0.0000 0.0000 0.0000 0.0000 29.3809
#
#
#
# Elastic Compliance Matrix: (Units=1/GPa)
#
#
# Indices 1 2 3 4 5 6 
#
# 1 0.004976 -0.002979 -0.002740 0.000000 0.000000 0.000000
# 2 -0.002979 0.017176 0.002192 0.000000 0.000000 0.000000
# 3 -0.002740 0.002192 0.012580 0.000000 0.000000 0.000000
# 4 0.000000 0.000000 0.000000 0.048479 0.000000 0.000000
# 5 0.000000 0.000000 0.000000 0.000000 0.030288 0.000000
# 6 0.000000 0.000000 0.000000 0.000000 0.000000 0.034036
#
#
# Mechanical properties :
#
#
# Convention : Reuss Voigt Hill
#
# Bulk Modulus (GPa) = 36.12876 63.20043 49.66459
# Shear Modulus (GPa) = 30.52249 38.16204 34.34227
#
# Velocity S-wave (km/s) = 3.48265 3.89418 3.69415
# Velocity P-wave (km/s) = 5.52526 6.73303 6.15882
#
# Compressibility (1/GPa) = 0.02767878
#
# Stress axis : x y z
#
# Youngs Moduli (GPa) = 200.98375 58.22056 79.48990
#
# Poissons Ratio (x) = 0.17344 0.21777
# Poissons Ratio (y) = 0.59872 -0.17425
# Poissons Ratio (z) = 0.55062 -0.12762
#
# Static dielectric constant tensor:
#      x y z
#    x 2.072020 0.000000 0.000000 
#    y 0.000000 2.055250 0.000000 
#    z 0.000000 0.000000 2.041430 
# 
# From -- ./inp_files/31712.got.cif
#   From: 2010.05.17/outbox.cif.g08.bks.cpg/sg64_16_cif.got.tgz:31712.got - 2010.06.03 16:29:19.
