data_PCOD9481253
_publ_section_title
;
Structure prediction by ZEFSAII (Michael W. Deem and Ramdas Pophale) SiO2 
 PCOD9481253
Probable space group: C M C A
;
_chemical_formula_sum "Si O2"
_cell_formula_units_Z 64
_cell_length_a 8.898225
_cell_length_b 20.096074
_cell_length_c 17.486516
_cell_angle_alpha 90.000000
_cell_angle_beta 90.000000
_cell_angle_gamma 90.000000
_cell_volume 3126.928091
_symmetry_space_group_name_H-M "C M C A"
_symmetry_group_IT_number 64
_symmetry_cell_setting 'orthorhombic'
loop_
_space_group_symop_operation_xyz
x,y,z
-x,1/2-y,1/2+z
x,-y,-z
-x,1/2+y,1/2-z
-x,-y,-z
x,1/2+y,1/2-z
-x,y,z
x,1/2-y,1/2+z
1/2+x,1/2+y,z
1/2-x,-y,1/2+z
1/2+x,1/2-y,-z
1/2-x,y,1/2-z
1/2-x,1/2-y,-z
1/2+x,y,1/2-z
1/2-x,1/2+y,z
1/2+x,-y,1/2+z
loop_
_atom_site_type_symbol
_atom_site_label
_atom_site_fract_x
_atom_site_fract_y
_atom_site_fract_z
Si Si1 0.679188 0.771840 0.331420
Si Si2 0.177548 0.379275 0.879676
Si Si3 0.678742 0.119216 0.938746
Si Si4 0.322104 0.513042 0.829623
O O1 0.500000 0.782133 0.330210
O O2 0.750000 0.790157 0.250000
O O3 0.708720 0.694083 0.347781
O O4 0.751266 0.816753 0.397329
O O5 0.276011 0.436469 0.841650
O O6 0.000000 0.394119 0.867022
O O7 0.205196 0.379454 0.970670
O O8 0.500000 0.117676 0.926177
O O9 0.752734 0.055435 0.898734
O O10 0.500000 0.521118 0.827235
O O11 0.250000 0.536674 0.750000
#
# Coordination Sequence:
#
# PCOD9481253 Si02
#       4
#    16  16  16  16
#     4  11  23  40  62  90 123 159 202 248 299 357
#     4  10  23  42  64  91 123 159 199 248 303 359
#     4  11  23  41  64  90 123 160 200 248 302 358
#     4  12  25  41  63  90 122 160 203 250 300 357
#
# _framework density 20.467371
#
# number of rings (size 3 to 8) (size 9 to 14) (size 15 to 20)
#    0.000    1.000    0.000    6.750    0.000    9.000 
#    0.000    0.000    0.000    0.000    0.000    0.000 
#    0.000    0.000    0.000    0.000    0.000    0.000 
#
# Total GULP energy -179226.026443 kJ/mol
# GULP energy per Si atom -5600.813326 kJ/mol
# Density = 2.042079 g / cm^3
# Si number density = 20.467371 Si / 1000 Ang^3
#
#
#
# Elastic Constant Matrix: (Units=GPa)
#
#
# Indices 1 2 3 4 5 6 
#
# 1 93.8119 41.4961 46.9822 0.0000 0.0000 0.0000
# 2 41.4961 70.0281 9.4235 0.0000 0.0000 0.0000
# 3 46.9822 9.4235 76.1428 0.0000 0.0000 0.0000
# 4 0.0000 0.0000 0.0000 39.3359 0.0000 0.0000
# 5 0.0000 0.0000 0.0000 0.0000 25.5520 0.0000
# 6 0.0000 0.0000 0.0000 0.0000 0.0000 39.1191
#
#
#
# Elastic Compliance Matrix: (Units=1/GPa)
#
#
# Indices 1 2 3 4 5 6 
#
# 1 0.021583 -0.011183 -0.011933 0.000000 0.000000 0.000000
# 2 -0.011183 0.020317 0.004386 0.000000 0.000000 0.000000
# 3 -0.011933 0.004386 0.019953 0.000000 0.000000 0.000000
# 4 0.000000 0.000000 0.000000 0.025422 0.000000 0.000000
# 5 0.000000 0.000000 0.000000 0.000000 0.039136 0.000000
# 6 0.000000 0.000000 0.000000 0.000000 0.000000 0.025563
#
#
# Mechanical properties :
#
#
# Convention : Reuss Voigt Hill
#
# Bulk Modulus (GPa) = 40.99708 48.42072 44.70890
# Shear Modulus (GPa) = 25.30821 30.27348 27.79084
#
# Velocity S-wave (km/s) = 3.52023 3.85009 3.68885
# Velocity P-wave (km/s) = 6.04951 6.59342 6.32731
#
# Compressibility (1/GPa) = 0.02439198
#
# Stress axis : x y z
#
# Youngs Moduli (GPa) = 46.33381 49.22101 50.11683
#
# Poissons Ratio (x) = 0.55045 0.59804
# Poissons Ratio (y) = 0.51816 -0.21981
# Poissons Ratio (z) = 0.55290 -0.21588
#
# Static dielectric constant tensor:
#      x y z
#    x 1.681120 0.000000 0.000000 
#    y 0.000000 1.721030 0.000000 
#    z 0.000000 0.000000 1.693760 
# 
# From -- ./inp_files/20886.got.cif
#   From: 2010.05.17/outbox.cif.g08.bks.cpg/sg64_11_cif.got.tgz:20886.got - 2010.06.03 16:29:19.
