data_PCOD9481042
_publ_section_title
;
Structure prediction by ZEFSAII (Michael W. Deem and Ramdas Pophale) SiO2 
 PCOD9481042
Probable space group: C M C A
;
_chemical_formula_sum "Si O2"
_cell_formula_units_Z 80
_cell_length_a 22.342024
_cell_length_b 12.010598
_cell_length_c 14.427926
_cell_angle_alpha 90.000000
_cell_angle_beta 90.000000
_cell_angle_gamma 90.000000
_cell_volume 3871.605083
_symmetry_space_group_name_H-M "C M C A"
_symmetry_group_IT_number 64
_symmetry_cell_setting 'orthorhombic'
loop_
_space_group_symop_operation_xyz
x,y,z
-x,1/2-y,1/2+z
x,-y,-z
-x,1/2+y,1/2-z
-x,-y,-z
x,1/2+y,1/2-z
-x,y,z
x,1/2-y,1/2+z
1/2+x,1/2+y,z
1/2-x,-y,1/2+z
1/2+x,1/2-y,-z
1/2-x,y,1/2-z
1/2-x,1/2-y,-z
1/2+x,y,1/2-z
1/2-x,1/2+y,z
1/2+x,-y,1/2+z
loop_
_atom_site_type_symbol
_atom_site_label
_atom_site_fract_x
_atom_site_fract_y
_atom_site_fract_z
Si Si1 0.312331 0.621934 0.000632
Si Si2 0.065793 0.287531 0.468118
Si Si3 0.500000 0.482079 0.299635
Si Si4 0.114260 0.921033 0.416276
Si Si5 0.500000 0.266851 0.706793
Si Si6 0.276950 0.784356 0.148991
O O1 0.381517 0.625039 0.972576
O O2 0.276485 0.688467 0.922393
O O3 0.286939 0.500000 0.000000
O O4 0.305531 0.675281 0.101947
O O5 0.084704 0.187036 0.535000
O O6 0.000000 0.330042 0.495035
O O7 0.056180 0.240868 0.364271
O O8 0.560924 0.479059 0.359809
O O9 0.500000 0.355703 0.255304
O O10 0.500000 0.606801 0.250886
O O11 0.170906 0.877811 0.357552
O O12 0.134821 0.000000 0.500000
O O13 0.250000 0.770955 0.250000
#
# Coordination Sequence:
#
# PCOD9481042 Si02
#       6
#    16  16   8  16   8  16
#     4  10  22  43  62  91 136 174 222 284 350 413
#     4   9  19  39  62  90 127 172 224 274 334 402
#     4  12  22  41  66 103 137 173 235 285 357 410
#     4  11  19  40  73  93 125 186 233 277 333 433
#     4  10  23  40  60 101 141 169 223 295 336 420
#     4  10  24  41  65  97 128 173 231 281 346 415
#
# _framework density 20.663264999999999
#
# number of rings (size 3 to 8) (size 9 to 14) (size 15 to 20)
#    0.600    1.200    3.000    0.900    2.800    1.200 
#    7.200    0.000    0.000    0.000    0.000    0.000 
#    0.000    0.000    0.000    0.000    0.000    0.000 
#
# Total GULP energy -222733.911915 kJ/mol
# GULP energy per Si atom -5568.347798 kJ/mol
# Density = 2.061623 g / cm^3
# Si number density = 20.663265 Si / 1000 Ang^3
#
#
#
# Elastic Constant Matrix: (Units=GPa)
#
#
# Indices 1 2 3 4 5 6 
#
# 1 114.2989 17.2697 32.9186 0.0000 0.0000 0.0000
# 2 17.2697 100.9093 38.3651 0.0000 0.0000 0.0000
# 3 32.9186 38.3651 96.9343 0.0000 0.0000 0.0000
# 4 0.0000 0.0000 0.0000 15.2657 0.0000 0.0000
# 5 0.0000 0.0000 0.0000 0.0000 30.8577 0.0000
# 6 0.0000 0.0000 0.0000 0.0000 0.0000 -18.9216
#
#
#
# Elastic Compliance Matrix: (Units=1/GPa)
#
#
# Indices 1 2 3 4 5 6 
#
# 1 0.009717 -0.000481 -0.003110 0.000000 0.000000 0.000000
# 2 -0.000481 0.011689 -0.004463 0.000000 0.000000 0.000000
# 3 -0.003110 -0.004463 0.013139 0.000000 0.000000 0.000000
# 4 0.000000 0.000000 0.000000 0.065506 0.000000 0.000000
# 5 0.000000 0.000000 0.000000 0.000000 0.032407 0.000000
# 6 0.000000 0.000000 0.000000 0.000000 0.000000 -0.052850
#
#
# Mechanical properties :
#
#
# Convention : Reuss Voigt Hill
#
# Bulk Modulus (GPa) = 54.23586 54.36103 54.29845
# Shear Modulus (GPa) = 49.08642 20.34631 34.71637
#
# Velocity S-wave (km/s) = 4.87924 3.14134 4.10335
# Velocity P-wave (km/s) = 7.61886 6.28669 6.98461
#
# Compressibility (1/GPa) = 0.01843798
#
# Stress axis : x y z
#
# Youngs Moduli (GPa) = 102.91009 85.55054 76.11092
#
# Poissons Ratio (x) = 0.04113 0.23668
# Poissons Ratio (y) = 0.04947 0.33969
# Poissons Ratio (z) = 0.32002 0.38182
#
# Static dielectric constant tensor:
#      x y z
#    x 1.760610 0.000000 0.000000 
#    y 0.000000 1.771710 0.000000 
#    z 0.000000 0.000000 1.734650 
# 
# From -- ./inp_files/27121.got.cif
#   From: 2010.05.17/outbox.cif.g08.bks.cpg/sg64_14_cif.got.tgz:27121.got - 2010.06.03 16:29:19.
