data_PCOD9481521
_publ_section_title
;
Structure prediction by ZEFSAII (Michael W. Deem and Ramdas Pophale) SiO2 
 PCOD9481521
Probable space group: C M C A
;
_chemical_formula_sum "Si O2"
_cell_formula_units_Z 72
_cell_length_a 25.942319
_cell_length_b 8.930422
_cell_length_c 13.987162
_cell_angle_alpha 90.000000
_cell_angle_beta 90.000000
_cell_angle_gamma 90.000000
_cell_volume 3240.487734
_symmetry_space_group_name_H-M "C M C A"
_symmetry_group_IT_number 64
_symmetry_cell_setting 'orthorhombic'
loop_
_space_group_symop_operation_xyz
x,y,z
-x,1/2-y,1/2+z
x,-y,-z
-x,1/2+y,1/2-z
-x,-y,-z
x,1/2+y,1/2-z
-x,y,z
x,1/2-y,1/2+z
1/2+x,1/2+y,z
1/2-x,-y,1/2+z
1/2+x,1/2-y,-z
1/2-x,y,1/2-z
1/2-x,1/2-y,-z
1/2+x,y,1/2-z
1/2-x,1/2+y,z
1/2+x,-y,1/2+z
loop_
_atom_site_type_symbol
_atom_site_label
_atom_site_fract_x
_atom_site_fract_y
_atom_site_fract_z
Si Si1 0.258160 0.000000 0.500000
Si Si2 0.610312 0.040254 0.797460
Si Si3 0.500000 0.327343 0.024971
Si Si4 0.110250 0.778917 0.116708
Si Si5 0.500000 0.923560 0.107009
Si Si6 0.179209 0.749193 0.928989
O O1 0.222292 0.876579 0.450355
O O2 0.291081 0.907309 0.578813
O O3 0.615381 0.080251 0.686706
O O4 0.551189 0.046982 0.833260
O O5 0.642267 0.169181 0.852747
O O6 0.625780 0.873217 0.827849
O O7 0.550890 0.279085 0.082489
O O8 0.500000 0.500000 0.000000
O O9 0.500000 0.248645 0.922405
O O10 0.144765 0.778609 0.022848
O O11 0.500000 0.000000 0.000000
#
# Coordination Sequence:
#
# PCOD9481521 Si02
#       6
#     8  16   8  16   8  16
#     4  10  24  44  76  96 130 184 234 300 346 418
#     4  12  25  43  70 102 141 185 224 288 344 424
#     4  12  27  42  70 103 139 185 231 273 334 411
#     4  12  26  44  69 105 142 181 231 278 351 417
#     4  12  21  44  70  93 139 185 216 274 338 404
#     4  11  23  48  71  98 138 181 235 287 362 402
#
# _framework density 22.218878
#
# number of rings (size 3 to 8) (size 9 to 14) (size 15 to 20)
#    0.000    0.444    6.667    0.667    7.778    0.000 
#    0.000    6.667    0.000    0.000    0.000    0.000 
#    0.000    0.000    0.000    0.000    0.000    0.000 
#
# Total GULP energy -201210.425972 kJ/mol
# GULP energy per Si atom -5589.178499 kJ/mol
# Density = 2.216831 g / cm^3
# Si number density = 22.218878 Si / 1000 Ang^3
#
#
#
# Elastic Constant Matrix: (Units=GPa)
#
#
# Indices 1 2 3 4 5 6 
#
# 1 120.7116 28.0586 31.4728 0.0000 0.0000 0.0000
# 2 28.0586 80.2045 6.8746 0.0000 0.0000 0.0000
# 3 31.4728 6.8746 64.9398 0.0000 0.0000 0.0000
# 4 0.0000 0.0000 0.0000 35.6310 0.0000 0.0000
# 5 0.0000 0.0000 0.0000 0.0000 -31.3478 0.0000
# 6 0.0000 0.0000 0.0000 0.0000 0.0000 33.8845
#
#
#
# Elastic Compliance Matrix: (Units=1/GPa)
#
#
# Indices 1 2 3 4 5 6 
#
# 1 0.010229 -0.003182 -0.004620 0.000000 0.000000 0.000000
# 2 -0.003182 0.013572 0.000106 0.000000 0.000000 0.000000
# 3 -0.004620 0.000106 0.017627 0.000000 0.000000 0.000000
# 4 0.000000 0.000000 0.000000 0.028065 0.000000 0.000000
# 5 0.000000 0.000000 0.000000 0.000000 -0.031900 0.000000
# 6 0.000000 0.000000 0.000000 0.000000 0.000000 0.029512
#
#
# Mechanical properties :
#
#
# Convention : Reuss Voigt Hill
#
# Bulk Modulus (GPa) = 38.41192 44.29643 41.35417
# Shear Modulus (GPa) = 54.83817 20.93019 37.88418
#
# Velocity S-wave (km/s) = 4.97338 3.07253 4.13370
# Velocity P-wave (km/s) = 7.09259 5.70675 6.43707
#
# Compressibility (1/GPa) = 0.02603358
#
# Stress axis : x y z
#
# Youngs Moduli (GPa) = 97.76540 73.67898 56.73141
#
# Poissons Ratio (x) = 0.23447 0.26212
# Poissons Ratio (y) = 0.31112 -0.00599
# Poissons Ratio (z) = 0.45171 -0.00777
#
# Static dielectric constant tensor:
#      x y z
#    x 1.824610 0.000000 0.000000 
#    y 0.000000 1.856020 0.000000 
#    z 0.000000 0.000000 1.780040 
# 
# From -- ./inp_files/27847.got.cif
#   From: 2010.05.17/outbox.cif.g08.bks.cpg/sg64_14_cif.got.tgz:27847.got - 2010.06.03 16:29:19.
