data_PCOD9481695
_publ_section_title
;
Structure prediction by ZEFSAII (Michael W. Deem and Ramdas Pophale) SiO2 
 PCOD9481695
Probable space group: C M C A
;
_chemical_formula_sum "Si O2"
_cell_formula_units_Z 128
_cell_length_a 24.768713
_cell_length_b 21.467203
_cell_length_c 12.281258
_cell_angle_alpha 90.000000
_cell_angle_beta 90.000000
_cell_angle_gamma 90.000000
_cell_volume 6530.128975
_symmetry_space_group_name_H-M "C M C A"
_symmetry_group_IT_number 64
_symmetry_cell_setting 'orthorhombic'
loop_
_space_group_symop_operation_xyz
x,y,z
-x,1/2-y,1/2+z
x,-y,-z
-x,1/2+y,1/2-z
-x,-y,-z
x,1/2+y,1/2-z
-x,y,z
x,1/2-y,1/2+z
1/2+x,1/2+y,z
1/2-x,-y,1/2+z
1/2+x,1/2-y,-z
1/2-x,y,1/2-z
1/2-x,1/2-y,-z
1/2+x,y,1/2-z
1/2-x,1/2+y,z
1/2+x,-y,1/2+z
loop_
_atom_site_type_symbol
_atom_site_label
_atom_site_fract_x
_atom_site_fract_y
_atom_site_fract_z
Si Si1 0.262756 0.117575 0.504846
Si Si2 0.192036 0.462306 0.311469
Si Si3 0.436108 0.161128 0.479543
Si Si4 0.062174 0.191452 0.560241
Si Si5 0.708970 0.767786 0.342675
Si Si6 0.842073 0.146361 0.417400
Si Si7 0.152620 0.397258 0.671582
Si Si8 0.112624 0.149282 0.779394
O O1 0.293412 0.063165 0.568834
O O2 0.266674 0.175402 0.587943
O O3 0.201597 0.101405 0.473903
O O4 0.297010 0.130840 0.396380
O O5 0.250000 0.462920 0.250000
O O6 0.165707 0.529868 0.316264
O O7 0.148988 0.412674 0.263331
O O8 0.500000 0.149261 0.469796
O O9 0.426638 0.234280 0.450885
O O10 0.400093 0.119896 0.398298
O O11 0.416288 0.148218 0.602975
O O12 0.103165 0.155261 0.482110
O O13 0.073028 0.165834 0.681316
O O14 0.000000 0.182203 0.529442
O O15 0.750000 0.747658 0.250000
O O16 0.689779 0.711990 0.417913
O O17 0.655911 0.795040 0.285191
O O18 0.851215 0.129851 0.292322
#
# Coordination Sequence:
#
# PCOD9481695 Si02
#       8
#    16  16  16  16  16  16  16  16
#     4  11  21  37  61  90 131 168 210 264 326 390
#     4  11  23  41  66  93 133 175 218 264 328 384
#     4  11  24  43  67  97 130 171 217 277 334 381
#     4  11  24  43  68  96 129 170 215 271 334 397
#     4  11  20  34  59  92 134 163 203 262 332 394
#     4  12  23  38  60  96 133 165 218 258 336 394
#     4  12  24  41  61  95 131 175 218 271 314 394
#     4  11  21  43  66  95 128 168 221 265 322 396
#
# _framework density 19.60145
#
# number of rings (size 3 to 8) (size 9 to 14) (size 15 to 20)
#    0.000    0.750    3.750    6.750    0.000    0.500 
#    0.000    3.750    0.000    0.750    0.000    0.000 
#    0.000    0.000    0.000    0.000    0.000    0.000 
#
# Total GULP energy -357826.516719 kJ/mol
# GULP energy per Si atom -5591.039324 kJ/mol
# Density = 1.955684 g / cm^3
# Si number density = 19.601450 Si / 1000 Ang^3
#
#
#
# Elastic Constant Matrix: (Units=GPa)
#
#
# Indices 1 2 3 4 5 6 
#
# 1 126.7343 42.8695 40.3767 0.0000 0.0000 0.0000
# 2 42.8695 62.0361 32.2909 0.0000 0.0000 0.0000
# 3 40.3767 32.2909 99.6906 0.0000 0.0000 0.0000
# 4 0.0000 0.0000 0.0000 14.8114 0.0000 0.0000
# 5 0.0000 0.0000 0.0000 0.0000 27.4567 0.0000
# 6 0.0000 0.0000 0.0000 0.0000 0.0000 21.0490
#
#
#
# Elastic Compliance Matrix: (Units=1/GPa)
#
#
# Indices 1 2 3 4 5 6 
#
# 1 0.010733 -0.006199 -0.002339 0.000000 0.000000 0.000000
# 2 -0.006199 0.022969 -0.004929 0.000000 0.000000 0.000000
# 3 -0.002339 -0.004929 0.012575 0.000000 0.000000 0.000000
# 4 0.000000 0.000000 0.000000 0.067516 0.000000 0.000000
# 5 0.000000 0.000000 0.000000 0.000000 0.036421 0.000000
# 6 0.000000 0.000000 0.000000 0.000000 0.000000 0.047508
#
#
# Mechanical properties :
#
#
# Convention : Reuss Voigt Hill
#
# Bulk Modulus (GPa) = 51.70045 57.72612 54.71329
# Shear Modulus (GPa) = 21.63527 24.19167 22.91347
#
# Velocity S-wave (km/s) = 3.32589 3.51690 3.42273
# Velocity P-wave (km/s) = 6.41731 6.78272 6.60254
#
# Compressibility (1/GPa) = 0.01934219
#
# Stress axis : x y z
#
# Youngs Moduli (GPa) = 93.17339 43.53627 79.52303
#
# Poissons Ratio (x) = 0.26989 0.18600
# Poissons Ratio (y) = 0.57761 0.39199
# Poissons Ratio (z) = 0.21793 0.21460
#
# Static dielectric constant tensor:
#      x y z
#    x 1.681350 0.000000 0.000000 
#    y 0.000000 1.712990 0.000000 
#    z 0.000000 0.000000 1.703470 
# 
# From -- ./inp_files/18696.got.cif
#   From: 2010.05.17/outbox.cif.g08.bks.cpg/sg64_10_cif.got.tgz:18696.got - 2010.06.03 16:29:19.
