data_PCOD9481344
_publ_section_title
;
Structure prediction by ZEFSAII (Michael W. Deem and Ramdas Pophale) SiO2 
 PCOD9481344
Probable space group: C M C A
;
_chemical_formula_sum "Si O2"
_cell_formula_units_Z 64
_cell_length_a 26.810965
_cell_length_b 11.804253
_cell_length_c 9.966333
_cell_angle_alpha 90.000000
_cell_angle_beta 90.000000
_cell_angle_gamma 90.000000
_cell_volume 3154.179093
_symmetry_space_group_name_H-M "C M C A"
_symmetry_group_IT_number 64
_symmetry_cell_setting 'orthorhombic'
loop_
_space_group_symop_operation_xyz
x,y,z
-x,1/2-y,1/2+z
x,-y,-z
-x,1/2+y,1/2-z
-x,-y,-z
x,1/2+y,1/2-z
-x,y,z
x,1/2-y,1/2+z
1/2+x,1/2+y,z
1/2-x,-y,1/2+z
1/2+x,1/2-y,-z
1/2-x,y,1/2-z
1/2-x,1/2-y,-z
1/2+x,y,1/2-z
1/2-x,1/2+y,z
1/2+x,-y,1/2+z
loop_
_atom_site_type_symbol
_atom_site_label
_atom_site_fract_x
_atom_site_fract_y
_atom_site_fract_z
Si Si1 0.000000 0.304509 0.442910
Si Si2 0.187324 0.173592 0.354621
Si Si3 0.924365 0.393948 0.905648
Si Si4 0.000000 0.971493 0.807868
Si Si5 0.793272 0.119990 0.049615
O O1 0.047282 0.221220 0.446745
O O2 0.000000 0.392051 0.318392
O O3 0.000000 0.394830 0.560683
O O4 0.134174 0.127033 0.399061
O O5 0.197358 0.294263 0.426567
O O6 0.186995 0.170336 0.191734
O O7 0.234777 0.104846 0.411733
O O8 0.950408 0.431282 0.768223
O O9 0.935528 0.500000 0.000000
O O10 0.814116 0.000000 0.000000
#
# Coordination Sequence:
#
# PCOD9481344 Si02
#       5
#     8  16  16   8  16
#     4  10  24  43  65  91 126 168 217 266 338 389
#     4  10  24  42  67  99 134 175 230 273 331 408
#     4  11  25  40  68  94 129 169 217 274 331 400
#     4  10  24  43  63  91 128 168 209 276 322 397
#     4  10  23  44  67  97 138 180 220 280 335 395
#
# _framework density 20.290541999999999
#
# number of rings (size 3 to 8) (size 9 to 14) (size 15 to 20)
#    0.000    1.750    0.000    2.250   10.500   12.000 
#    0.000    0.000    0.000    0.000    0.000    0.000 
#    0.000    0.000    0.000    0.000    0.000    0.000 
#
# Total GULP energy -178397.420825 kJ/mol
# GULP energy per Si atom -5574.919401 kJ/mol
# Density = 2.024436 g / cm^3
# Si number density = 20.290542 Si / 1000 Ang^3
#
#
#
# Elastic Constant Matrix: (Units=GPa)
#
#
# Indices 1 2 3 4 5 6 
#
# 1 89.1986 24.4660 13.5673 0.0000 0.0000 0.0000
# 2 24.4660 135.8021 73.2158 0.0000 0.0000 0.0000
# 3 13.5673 73.2158 112.2374 0.0000 0.0000 0.0000
# 4 0.0000 0.0000 0.0000 35.7681 0.0000 0.0000
# 5 0.0000 0.0000 0.0000 0.0000 -15.9195 0.0000
# 6 0.0000 0.0000 0.0000 0.0000 0.0000 17.0073
#
#
#
# Elastic Compliance Matrix: (Units=1/GPa)
#
#
# Indices 1 2 3 4 5 6 
#
# 1 0.011794 -0.002092 -0.000061 0.000000 0.000000 0.000000
# 2 -0.002092 0.011729 -0.007399 0.000000 0.000000 0.000000
# 3 -0.000061 -0.007399 0.013743 0.000000 0.000000 0.000000
# 4 0.000000 0.000000 0.000000 0.027958 0.000000 0.000000
# 5 0.000000 0.000000 0.000000 0.000000 -0.062816 0.000000
# 6 0.000000 0.000000 0.000000 0.000000 0.000000 0.058798
#
#
# Mechanical properties :
#
#
# Convention : Reuss Voigt Hill
#
# Bulk Modulus (GPa) = 55.05476 62.19292 58.62384
# Shear Modulus (GPa) = 57.89437 22.43713 40.16575
#
# Velocity S-wave (km/s) = 5.34739 3.32895 4.45402
# Velocity P-wave (km/s) = 8.08197 6.74490 7.44352
#
# Compressibility (1/GPa) = 0.01816373
#
# Stress axis : x y z
#
# Youngs Moduli (GPa) = 84.78891 85.25636 72.76250
#
# Poissons Ratio (x) = 0.17835 0.00444
# Poissons Ratio (y) = 0.17737 0.53833
# Poissons Ratio (z) = 0.00518 0.63077
#
# Static dielectric constant tensor:
#      x y z
#    x 1.738420 0.000000 0.000000 
#    y 0.000000 1.708930 0.000000 
#    z 0.000000 0.000000 1.845820 
# 
# From -- ./inp_files/10897.got.cif
#   From: 2010.05.17/outbox.cif.g08.bks.cpg/sg64_6_cif.got.tgz:10897.got - 2010.06.03 16:29:19.
