data_PCOD9481281
_publ_section_title
;
Structure prediction by ZEFSAII (Michael W. Deem and Ramdas Pophale) SiO2 
 PCOD9481281
Probable space group: C M C A
;
_chemical_formula_sum "Si O2"
_cell_formula_units_Z 48
_cell_length_a 15.215454
_cell_length_b 11.496285
_cell_length_c 12.492893
_cell_angle_alpha 90.000000
_cell_angle_beta 90.000000
_cell_angle_gamma 90.000000
_cell_volume 2185.271780
_symmetry_space_group_name_H-M "C M C A"
_symmetry_group_IT_number 64
_symmetry_cell_setting 'orthorhombic'
loop_
_space_group_symop_operation_xyz
x,y,z
-x,1/2-y,1/2+z
x,-y,-z
-x,1/2+y,1/2-z
-x,-y,-z
x,1/2+y,1/2-z
-x,y,z
x,1/2-y,1/2+z
1/2+x,1/2+y,z
1/2-x,-y,1/2+z
1/2+x,1/2-y,-z
1/2-x,y,1/2-z
1/2-x,1/2-y,-z
1/2+x,y,1/2-z
1/2-x,1/2+y,z
1/2+x,-y,1/2+z
loop_
_atom_site_type_symbol
_atom_site_label
_atom_site_fract_x
_atom_site_fract_y
_atom_site_fract_z
Si Si1 0.894426 0.477009 0.161978
Si Si2 0.100599 0.932563 0.099416
Si Si3 0.656720 0.308736 0.522944
O O1 0.862654 0.455112 0.282760
O O2 0.878078 0.365193 0.086948
O O3 0.000000 0.499249 0.159764
O O4 0.846479 0.586187 0.107598
O O5 0.000000 0.975215 0.106183
O O6 0.101068 0.797376 0.070373
O O7 0.144333 0.000000 0.000000
O O8 0.750000 0.250000 0.500000
#
# Coordination Sequence:
#
# PCOD9481281 Si02
#       3
#    16  16  16
#     4  10  23  46  72  94 130 181 226 273 329 400
#     4  10  23  42  68  98 128 170 228 276 323 396
#     4  11  24  42  65  99 134 174 217 273 340 399
#
# _framework density 21.965230999999999
#
# number of rings (size 3 to 8) (size 9 to 14) (size 15 to 20)
#    0.000    1.667    0.000    4.000    9.333    1.333 
#    0.000    0.000    0.000    0.000    0.000    0.000 
#    0.000    0.000    0.000    0.000    0.000    0.000 
#
# Total GULP energy -134121.600375 kJ/mol
# GULP energy per Si atom -5588.400016 kJ/mol
# Density = 2.191524 g / cm^3
# Si number density = 21.965231 Si / 1000 Ang^3
#
#
#
# Elastic Constant Matrix: (Units=GPa)
#
#
# Indices 1 2 3 4 5 6 
#
# 1 88.3072 25.4326 28.9382 0.0000 0.0000 0.0000
# 2 25.4326 125.2452 97.9866 0.0000 0.0000 0.0000
# 3 28.9382 97.9866 250.7697 0.0000 0.0000 0.0000
# 4 0.0000 0.0000 0.0000 20.4784 0.0000 0.0000
# 5 0.0000 0.0000 0.0000 0.0000 -14.7955 0.0000
# 6 0.0000 0.0000 0.0000 0.0000 0.0000 40.0895
#
#
#
# Elastic Compliance Matrix: (Units=1/GPa)
#
#
# Indices 1 2 3 4 5 6 
#
# 1 0.012096 -0.001965 -0.000628 0.000000 0.000000 0.000000
# 2 -0.001965 0.011819 -0.004391 0.000000 0.000000 0.000000
# 3 -0.000628 -0.004391 0.005776 0.000000 0.000000 0.000000
# 4 0.000000 0.000000 0.000000 0.048832 0.000000 0.000000
# 5 0.000000 0.000000 0.000000 0.000000 -0.067588 0.000000
# 6 0.000000 0.000000 0.000000 0.000000 0.000000 0.024944
#
#
# Mechanical properties :
#
#
# Convention : Reuss Voigt Hill
#
# Bulk Modulus (GPa) = 63.60425 85.44854 74.52640
# Shear Modulus (GPa) = 90.76288 29.95212 60.35750
#
# Velocity S-wave (km/s) = 6.43513 3.69672 5.24770
# Velocity P-wave (km/s) = 9.17792 7.56354 8.40956
#
# Compressibility (1/GPa) = 0.01572222
#
# Stress axis : x y z
#
# Youngs Moduli (GPa) = 82.67337 84.60937 173.12595
#
# Poissons Ratio (x) = 0.16624 0.10874
# Poissons Ratio (y) = 0.16244 0.76028
# Poissons Ratio (z) = 0.05193 0.37156
#
# Static dielectric constant tensor:
#      x y z
#    x 1.873020 0.000000 0.000000 
#    y 0.000000 1.759700 0.000000 
#    z 0.000000 0.000000 1.817010 
# 
# From -- ./inp_files/15188.got.cif
#   From: 2010.05.17/outbox.cif.g08.bks.cpg/sg64_8_cif.got.tgz:15188.got - 2010.06.03 16:29:19.
