data_PCOD9481219
_publ_section_title
;
Structure prediction by ZEFSAII (Michael W. Deem and Ramdas Pophale) SiO2 
 PCOD9481219
Probable space group: C M C A
;
_chemical_formula_sum "Si O2"
_cell_formula_units_Z 88
_cell_length_a 22.940598
_cell_length_b 8.291745
_cell_length_c 22.976098
_cell_angle_alpha 90.000000
_cell_angle_beta 90.000000
_cell_angle_gamma 90.000000
_cell_volume 4370.457961
_symmetry_space_group_name_H-M "C M C A"
_symmetry_group_IT_number 64
_symmetry_cell_setting 'orthorhombic'
loop_
_space_group_symop_operation_xyz
x,y,z
-x,1/2-y,1/2+z
x,-y,-z
-x,1/2+y,1/2-z
-x,-y,-z
x,1/2+y,1/2-z
-x,y,z
x,1/2-y,1/2+z
1/2+x,1/2+y,z
1/2-x,-y,1/2+z
1/2+x,1/2-y,-z
1/2-x,y,1/2-z
1/2-x,1/2-y,-z
1/2+x,y,1/2-z
1/2-x,1/2+y,z
1/2+x,-y,1/2+z
loop_
_atom_site_type_symbol
_atom_site_label
_atom_site_fract_x
_atom_site_fract_y
_atom_site_fract_z
Si Si1 0.283235 0.409955 0.061539
Si Si2 0.066443 0.921937 0.660606
Si Si3 0.336895 0.054832 0.062256
Si Si4 0.250000 0.696091 0.750000
Si Si5 0.322164 0.555304 0.180297
Si Si6 0.066732 0.235517 0.224062
O O1 0.304670 0.227102 0.056905
O O2 0.214522 0.427703 0.076150
O O3 0.315654 0.496951 0.114613
O O4 0.292231 0.500000 0.000000
O O5 0.114231 0.930972 0.610852
O O6 0.077114 0.779012 0.706725
O O7 0.000000 0.909595 0.638382
O O8 0.070638 0.085594 0.698501
O O9 0.361679 0.000000 0.000000
O O10 0.301371 0.587772 0.776665
O O11 0.276123 0.805193 0.698561
O O12 0.385419 0.625072 0.193481
O O13 0.000000 0.178531 0.214836
#
# Coordination Sequence:
#
# PCOD9481219 Si02
#       6
#    16  16  16   8  16  16
#     4  11  25  42  64  96 126 172 211 260 318 377
#     4  10  24  44  67  94 127 169 213 259 315 377
#     4  11  25  43  67  93 128 168 214 263 314 380
#     4  10  24  36  58 100 126 164 192 266 318 374
#     4  11  23  39  62  91 131 159 210 252 318 380
#     4  10  23  41  64  91 127 168 207 256 313 376
#
# _framework density 20.135190999999999
#
# number of rings (size 3 to 8) (size 9 to 14) (size 15 to 20)
#    0.000    1.455    0.000    4.364   17.818    0.364 
#    0.000    0.000    0.000    1.091    0.000    0.000 
#    0.000    0.000    0.000    0.000    0.000    0.000 
#
# Total GULP energy -246206.075388 kJ/mol
# GULP energy per Si atom -5595.592622 kJ/mol
# Density = 2.008936 g / cm^3
# Si number density = 20.135191 Si / 1000 Ang^3
#
#
#
# Elastic Constant Matrix: (Units=GPa)
#
#
# Indices 1 2 3 4 5 6 
#
# 1 120.4638 41.9414 58.0128 0.0000 0.0000 0.0000
# 2 41.9414 96.7931 35.1051 0.0000 0.0000 0.0000
# 3 58.0128 35.1051 109.0829 0.0000 0.0000 0.0000
# 4 0.0000 0.0000 0.0000 30.3347 0.0000 0.0000
# 5 0.0000 0.0000 0.0000 0.0000 37.1369 0.0000
# 6 0.0000 0.0000 0.0000 0.0000 0.0000 23.5508
#
#
#
# Elastic Compliance Matrix: (Units=1/GPa)
#
#
# Indices 1 2 3 4 5 6 
#
# 1 0.012008 -0.003269 -0.005334 0.000000 0.000000 0.000000
# 2 -0.003269 0.012586 -0.002312 0.000000 0.000000 0.000000
# 3 -0.005334 -0.002312 0.012748 0.000000 0.000000 0.000000
# 4 0.000000 0.000000 0.000000 0.032966 0.000000 0.000000
# 5 0.000000 0.000000 0.000000 0.000000 0.026927 0.000000
# 6 0.000000 0.000000 0.000000 0.000000 0.000000 0.042461
#
#
# Mechanical properties :
#
#
# Convention : Reuss Voigt Hill
#
# Bulk Modulus (GPa) = 64.46396 66.27314 65.36855
# Shear Modulus (GPa) = 29.99434 30.95651 30.47543
#
# Velocity S-wave (km/s) = 3.86378 3.92527 3.89465
# Velocity P-wave (km/s) = 7.21042 7.31636 7.26358
#
# Compressibility (1/GPa) = 0.01551254
#
# Stress axis : x y z
#
# Youngs Moduli (GPa) = 83.27677 79.45205 78.44145
#
# Poissons Ratio (x) = 0.25970 0.41843
# Poissons Ratio (y) = 0.27220 0.18137
# Poissons Ratio (z) = 0.44422 0.18371
#
# Static dielectric constant tensor:
#      x y z
#    x 1.709290 0.000000 0.000000 
#    y 0.000000 1.761260 0.000000 
#    z 0.000000 0.000000 1.705140 
# 
# From -- ./inp_files/41352.got.cif
#   From: 2010.05.17/outbox.cif.g08.bks.cpg/sg64_21_cif.got.tgz:41352.got - 2010.06.03 16:29:19.
