data_PCOD9481883
_publ_section_title
;
Structure prediction by ZEFSAII (Michael W. Deem and Ramdas Pophale) SiO2 
 PCOD9481883
Probable space group: C M C A
;
_chemical_formula_sum "Si O2"
_cell_formula_units_Z 72
_cell_length_a 21.137817
_cell_length_b 9.869896
_cell_length_c 17.446352
_cell_angle_alpha 90.000000
_cell_angle_beta 90.000000
_cell_angle_gamma 90.000000
_cell_volume 3639.798493
_symmetry_space_group_name_H-M "C M C A"
_symmetry_group_IT_number 64
_symmetry_cell_setting 'orthorhombic'
loop_
_space_group_symop_operation_xyz
x,y,z
-x,1/2-y,1/2+z
x,-y,-z
-x,1/2+y,1/2-z
-x,-y,-z
x,1/2+y,1/2-z
-x,y,z
x,1/2-y,1/2+z
1/2+x,1/2+y,z
1/2-x,-y,1/2+z
1/2+x,1/2-y,-z
1/2-x,y,1/2-z
1/2-x,1/2-y,-z
1/2+x,y,1/2-z
1/2-x,1/2+y,z
1/2+x,-y,1/2+z
loop_
_atom_site_type_symbol
_atom_site_label
_atom_site_fract_x
_atom_site_fract_y
_atom_site_fract_z
Si Si1 0.750000 0.148299 0.750000
Si Si2 0.336425 0.635258 0.032436
Si Si3 0.875037 0.511078 0.211685
Si Si4 0.927153 0.771820 0.833486
Si Si5 0.209252 0.673418 0.104639
O O1 0.811465 0.054946 0.745954
O O2 0.761686 0.240732 0.824558
O O3 0.381011 0.706050 0.094406
O O4 0.269942 0.593495 0.072523
O O5 0.367809 0.500000 0.000000
O O6 0.317299 0.732672 0.962826
O O7 0.919156 0.382722 0.195028
O O8 0.904426 0.623159 0.267719
O O9 0.848011 0.583534 0.135965
O O10 0.000000 0.798604 0.852487
#
# Coordination Sequence:
#
# PCOD9481883 Si02
#       5
#     8  16  16  16  16
#     4  12  20  42  70 106 136 166 218 290 338 406
#     4  11  24  41  65 101 138 175 212 276 357 410
#     4  12  23  43  69 102 130 177 229 287 341 394
#     4  12  27  46  67  94 137 185 237 276 325 413
#     4  11  22  39  69 103 137 166 218 285 350 406
#
# _framework density 19.781316
#
# number of rings (size 3 to 8) (size 9 to 14) (size 15 to 20)
#    0.000    0.444    4.444    5.333    3.111    0.444 
#    0.000    3.333    0.000    0.000    0.000    0.000 
#    0.000    0.000    0.000    0.000    0.000    0.000 
#
# Total GULP energy -201315.109983 kJ/mol
# GULP energy per Si atom -5592.086388 kJ/mol
# Density = 1.973629 g / cm^3
# Si number density = 19.781316 Si / 1000 Ang^3
#
#
#
# Elastic Constant Matrix: (Units=GPa)
#
#
# Indices 1 2 3 4 5 6 
#
# 1 97.3576 26.5933 35.6678 0.0000 0.0000 0.0000
# 2 26.5933 104.5651 51.5245 0.0000 0.0000 0.0000
# 3 35.6678 51.5245 113.4628 0.0000 0.0000 0.0000
# 4 0.0000 0.0000 0.0000 32.2881 0.0000 0.0000
# 5 0.0000 0.0000 0.0000 0.0000 9.1834 0.0000
# 6 0.0000 0.0000 0.0000 0.0000 0.0000 2.4627
#
#
#
# Elastic Compliance Matrix: (Units=1/GPa)
#
#
# Indices 1 2 3 4 5 6 
#
# 1 0.011791 -0.001510 -0.003021 0.000000 0.000000 0.000000
# 2 -0.001510 0.012514 -0.005208 0.000000 0.000000 0.000000
# 3 -0.003021 -0.005208 0.012128 0.000000 0.000000 0.000000
# 4 0.000000 0.000000 0.000000 0.030971 0.000000 0.000000
# 5 0.000000 0.000000 0.000000 0.000000 0.108892 0.000000
# 6 0.000000 0.000000 0.000000 0.000000 0.000000 0.406066
#
#
# Mechanical properties :
#
#
# Convention : Reuss Voigt Hill
#
# Bulk Modulus (GPa) = 58.98022 60.32850 59.65436
# Shear Modulus (GPa) = 8.23058 22.22684 15.22871
#
# Velocity S-wave (km/s) = 2.04201 3.35569 2.77763
# Velocity P-wave (km/s) = 5.95320 6.75116 6.36470
#
# Compressibility (1/GPa) = 0.01695484
#
# Stress axis : x y z
#
# Youngs Moduli (GPa) = 84.81365 79.91269 82.45414
#
# Poissons Ratio (x) = 0.12068 0.24907
# Poissons Ratio (y) = 0.12808 0.42941
# Poissons Ratio (z) = 0.25619 0.41617
#
# Static dielectric constant tensor:
#      x y z
#    x 1.655490 0.000000 0.000000 
#    y 0.000000 1.754320 0.000000 
#    z 0.000000 0.000000 1.715880 
# 
# From -- ./inp_files/34847.got.cif
#   From: 2010.05.17/outbox.cif.g08.bks.cpg/sg64_18_cif.got.tgz:34847.got - 2010.06.03 16:29:19.
