data_PCOD9481218
_publ_section_title
;
Structure prediction by ZEFSAII (Michael W. Deem and Ramdas Pophale) SiO2 
 PCOD9481218
Probable space group: C M C A
;
_chemical_formula_sum "Si O2"
_cell_formula_units_Z 116
_cell_length_a 30.553367
_cell_length_b 22.253198
_cell_length_c 8.479170
_cell_angle_alpha 90.000000
_cell_angle_beta 90.000000
_cell_angle_gamma 90.000000
_cell_volume 5765.073538
_symmetry_space_group_name_H-M "C M C A"
_symmetry_group_IT_number 64
_symmetry_cell_setting 'orthorhombic'
loop_
_space_group_symop_operation_xyz
x,y,z
-x,1/2-y,1/2+z
x,-y,-z
-x,1/2+y,1/2-z
-x,-y,-z
x,1/2+y,1/2-z
-x,y,z
x,1/2-y,1/2+z
1/2+x,1/2+y,z
1/2-x,-y,1/2+z
1/2+x,1/2-y,-z
1/2-x,y,1/2-z
1/2-x,1/2-y,-z
1/2+x,y,1/2-z
1/2-x,1/2+y,z
1/2+x,-y,1/2+z
loop_
_atom_site_type_symbol
_atom_site_label
_atom_site_fract_x
_atom_site_fract_y
_atom_site_fract_z
Si Si1 0.000000 0.500000 0.500000
Si Si2 0.665444 0.240853 0.022424
Si Si3 0.117656 0.415876 0.171669
Si Si4 0.545544 0.158396 0.674828
Si Si5 0.430271 0.767959 0.626050
Si Si6 0.592519 0.471681 0.842741
Si Si7 0.799611 0.338299 0.243256
Si Si8 0.389313 0.856138 0.834661
O O1 0.040343 0.474463 0.618596
O O2 0.683340 0.299990 0.106600
O O3 0.652801 0.186974 0.143863
O O4 0.618985 0.253499 0.935108
O O5 0.697295 0.210863 0.896911
O O6 0.086299 0.384120 0.300355
O O7 0.107571 0.485229 0.199696
O O8 0.166192 0.391303 0.205204
O O9 0.104626 0.390011 0.000432
O O10 0.500000 0.122437 0.677313
O O11 0.548100 0.206870 0.815176
O O12 0.548244 0.194929 0.513501
O O13 0.426670 0.809592 0.781048
O O14 0.609849 0.405837 0.801257
O O15 0.613653 0.500000 0.000000
O O16 0.750000 0.359523 0.250000
#
# Coordination Sequence:
#
# PCOD9481218 Si02
#       8
#     4  16  16  16  16  16  16  16
#     4   8  24  44  62  92 120 160 226 272 296 360
#     4  11  19  37  62  89 126 160 205 255 318 378
#     4  11  22  41  61  88 125 163 208 261 312 375
#     4  12  23  35  56  83 119 165 205 254 310 367
#     4  12  19  39  57  84 124 161 207 253 307 372
#     4  10  23  41  64  89 121 168 211 263 310 362
#     4  11  22  37  64  94 124 163 205 262 319 379
#     4  11  21  38  63  87 121 169 202 254 314 368
#
# _framework density 20.121165999999999
#
# number of rings (size 3 to 8) (size 9 to 14) (size 15 to 20)
#    0.414    0.552    6.897    2.069    0.966    0.000 
#    2.483    0.690    0.000    4.138    0.000    0.000 
#    0.000    0.000    0.000    0.000    0.000    0.000 
#
# Total GULP energy -323071.377778 kJ/mol
# GULP energy per Si atom -5570.196169 kJ/mol
# Density = 2.007537 g / cm^3
# Si number density = 20.121166 Si / 1000 Ang^3
#
#
#
# Elastic Constant Matrix: (Units=GPa)
#
#
# Indices 1 2 3 4 5 6 
#
# 1 106.3886 14.5926 23.8903 0.0000 0.0000 0.0000
# 2 14.5926 58.6727 0.6389 0.0000 0.0000 0.0000
# 3 23.8903 0.6389 68.0147 0.0000 0.0000 0.0000
# 4 0.0000 0.0000 0.0000 37.3090 0.0000 0.0000
# 5 0.0000 0.0000 0.0000 0.0000 9.0328 0.0000
# 6 0.0000 0.0000 0.0000 0.0000 0.0000 7.7232
#
#
#
# Elastic Compliance Matrix: (Units=1/GPa)
#
#
# Indices 1 2 3 4 5 6 
#
# 1 0.010584 -0.002592 -0.003693 0.000000 0.000000 0.000000
# 2 -0.002592 0.017680 0.000744 0.000000 0.000000 0.000000
# 3 -0.003693 0.000744 0.015993 0.000000 0.000000 0.000000
# 4 0.000000 0.000000 0.000000 0.026803 0.000000 0.000000
# 5 0.000000 0.000000 0.000000 0.000000 0.110708 0.000000
# 6 0.000000 0.000000 0.000000 0.000000 0.000000 0.129480
#
#
# Mechanical properties :
#
#
# Convention : Reuss Voigt Hill
#
# Bulk Modulus (GPa) = 30.14294 34.59109 32.36702
# Shear Modulus (GPa) = 14.99745 23.74326 19.37036
#
# Velocity S-wave (km/s) = 2.73308 3.43886 3.10608
# Velocity P-wave (km/s) = 4.99729 5.74425 5.38374
#
# Compressibility (1/GPa) = 0.03317527
#
# Stress axis : x y z
#
# Youngs Moduli (GPa) = 94.47810 56.56002 62.52720
#
# Poissons Ratio (x) = 0.14662 0.23094
# Poissons Ratio (y) = 0.24491 -0.04655
# Poissons Ratio (z) = 0.34895 -0.04211
#
# Static dielectric constant tensor:
#      x y z
#    x 1.708450 0.000000 0.000000 
#    y 0.000000 1.997930 0.000000 
#    z 0.000000 0.000000 1.786020 
# 
# From -- ./inp_files/11313.got.cif
#   From: 2010.05.17/outbox.cif.g08.bks.cpg/sg64_6_cif.got.tgz:11313.got - 2010.06.03 16:29:19.
