data_PCOD9481936
_publ_section_title
;
Structure prediction by ZEFSAII (Michael W. Deem and Ramdas Pophale) SiO2 
 PCOD9481936
Probable space group: C M C A
;
_chemical_formula_sum "Si O2"
_cell_formula_units_Z 68
_cell_length_a 19.485277
_cell_length_b 16.273068
_cell_length_c 9.847397
_cell_angle_alpha 90.000000
_cell_angle_beta 90.000000
_cell_angle_gamma 90.000000
_cell_volume 3122.464218
_symmetry_space_group_name_H-M "C M C A"
_symmetry_group_IT_number 64
_symmetry_cell_setting 'orthorhombic'
loop_
_space_group_symop_operation_xyz
x,y,z
-x,1/2-y,1/2+z
x,-y,-z
-x,1/2+y,1/2-z
-x,-y,-z
x,1/2+y,1/2-z
-x,y,z
x,1/2-y,1/2+z
1/2+x,1/2+y,z
1/2-x,-y,1/2+z
1/2+x,1/2-y,-z
1/2-x,y,1/2-z
1/2-x,1/2-y,-z
1/2+x,y,1/2-z
1/2-x,1/2+y,z
1/2+x,-y,1/2+z
loop_
_atom_site_type_symbol
_atom_site_label
_atom_site_fract_x
_atom_site_fract_y
_atom_site_fract_z
Si Si1 0.884425 0.938594 0.300236
Si Si2 0.419330 0.680536 0.477078
Si Si3 0.000000 0.500000 0.000000
Si Si4 0.577263 0.623025 0.997397
Si Si5 0.673227 0.400604 0.750354
O O1 0.881334 0.856624 0.391356
O O2 0.940999 0.989453 0.381773
O O3 0.823538 0.004243 0.297621
O O4 0.907113 0.914165 0.149822
O O5 0.500000 0.647269 0.476428
O O6 0.422960 0.778077 0.484279
O O7 0.376407 0.651615 0.347940
O O8 0.500000 0.598771 0.041909
O O9 0.635190 0.599288 0.104959
O O10 0.750000 0.366299 0.750000
#
# Coordination Sequence:
#
# PCOD9481936 Si02
#       5
#    16  16   4  16  16
#     4  12  22  41  69  95 134 173 225 278 348 409
#     4  11  22  44  71  98 129 174 226 287 352 410
#     4  12  20  40  70 100 124 180 216 290 350 400
#     4  11  25  41  70 105 131 165 229 295 340 402
#     4  12  27  43  63  96 139 182 226 275 340 420
#
# _framework density 21.777671999999999
#
# number of rings (size 3 to 8) (size 9 to 14) (size 15 to 20)
#    0.000    0.471    4.706    2.824    1.647    9.412 
#    0.000    2.353    0.000    0.000    0.000    0.000 
#    0.000    0.000    0.000    0.000    0.000    0.000 
#
# Total GULP energy -189612.243289 kJ/mol
# GULP energy per Si atom -5576.830685 kJ/mol
# Density = 2.172811 g / cm^3
# Si number density = 21.777672 Si / 1000 Ang^3
#
#
#
# Elastic Constant Matrix: (Units=GPa)
#
#
# Indices 1 2 3 4 5 6 
#
# 1 82.3740 16.8025 52.0331 0.0000 0.0000 0.0000
# 2 16.8025 91.6877 17.3150 0.0000 0.0000 0.0000
# 3 52.0331 17.3150 159.4793 0.0000 0.0000 0.0000
# 4 0.0000 0.0000 0.0000 27.9627 0.0000 0.0000
# 5 0.0000 0.0000 0.0000 0.0000 43.6774 0.0000
# 6 0.0000 0.0000 0.0000 0.0000 0.0000 15.3070
#
#
#
# Elastic Compliance Matrix: (Units=1/GPa)
#
#
# Indices 1 2 3 4 5 6 
#
# 1 0.015622 -0.001940 -0.004886 0.000000 0.000000 0.000000
# 2 -0.001940 0.011376 -0.000602 0.000000 0.000000 0.000000
# 3 -0.004886 -0.000602 0.007930 0.000000 0.000000 0.000000
# 4 0.000000 0.000000 0.000000 0.035762 0.000000 0.000000
# 5 0.000000 0.000000 0.000000 0.000000 0.022895 0.000000
# 6 0.000000 0.000000 0.000000 0.000000 0.000000 0.065330
#
#
# Mechanical properties :
#
#
# Convention : Reuss Voigt Hill
#
# Bulk Modulus (GPa) = 49.82356 56.20471 53.01414
# Shear Modulus (GPa) = 27.70666 33.88212 30.79439
#
# Velocity S-wave (km/s) = 3.57073 3.94867 3.76445
# Velocity P-wave (km/s) = 6.31887 6.83035 6.57958
#
# Compressibility (1/GPa) = 0.02007082
#
# Stress axis : x y z
#
# Youngs Moduli (GPa) = 64.01215 87.90564 126.10280
#
# Poissons Ratio (x) = 0.17054 0.61618
# Poissons Ratio (y) = 0.12419 0.07593
# Poissons Ratio (z) = 0.31279 0.05293
#
# Static dielectric constant tensor:
#      x y z
#    x 1.418420 0.000000 0.000000 
#    y 0.000000 1.619760 0.000000 
#    z 0.000000 0.000000 1.754190 
# 
# From -- ./inp_files/6713.got.cif
#   From: 2010.05.17/outbox.cif.g08.bks.cpg/sg64_4_cif.got.tgz:6713.got - 2010.06.03 16:29:19.
