data_PCOD9481857
_publ_section_title
;
Structure prediction by ZEFSAII (Michael W. Deem and Ramdas Pophale) SiO2 
 PCOD9481857
Probable space group: C M C A
;
_chemical_formula_sum "Si O2"
_cell_formula_units_Z 116
_cell_length_a 8.208490
_cell_length_b 24.401151
_cell_length_c 24.328588
_cell_angle_alpha 90.000000
_cell_angle_beta 90.000000
_cell_angle_gamma 90.000000
_cell_volume 4872.933556
_symmetry_space_group_name_H-M "C M C A"
_symmetry_group_IT_number 64
_symmetry_cell_setting 'orthorhombic'
loop_
_space_group_symop_operation_xyz
x,y,z
-x,1/2-y,1/2+z
x,-y,-z
-x,1/2+y,1/2-z
-x,-y,-z
x,1/2+y,1/2-z
-x,y,z
x,1/2-y,1/2+z
1/2+x,1/2+y,z
1/2-x,-y,1/2+z
1/2+x,1/2-y,-z
1/2-x,y,1/2-z
1/2-x,1/2-y,-z
1/2+x,y,1/2-z
1/2-x,1/2+y,z
1/2+x,-y,1/2+z
loop_
_atom_site_type_symbol
_atom_site_label
_atom_site_fract_x
_atom_site_fract_y
_atom_site_fract_z
Si Si1 0.315111 0.927504 0.008243
Si Si2 0.311967 0.810662 0.514527
Si Si3 0.192091 0.446979 0.312770
Si Si4 0.500000 0.000000 0.500000
Si Si5 0.194384 0.676066 0.811889
Si Si6 0.685946 0.719362 0.372438
Si Si7 0.678722 0.955114 0.879093
Si Si8 0.681887 0.129390 0.304665
O O1 0.500000 0.939964 0.030450
O O2 0.286133 0.861976 0.010155
O O3 0.321359 0.944359 0.943656
O O4 0.147543 0.958718 0.024636
O O5 0.500000 0.816752 0.499465
O O6 0.250000 0.750000 0.500000
O O7 0.290865 0.809716 0.580424
O O8 0.250000 0.458215 0.250000
O O9 0.229930 0.383320 0.323545
O O10 0.284623 0.484766 0.356501
O O11 0.000000 0.457241 0.316149
O O12 0.250000 0.691725 0.750000
O O13 0.252738 0.721133 0.855266
O O14 0.000000 0.671854 0.812524
O O15 0.500000 0.721263 0.391283
O O16 0.704989 0.680217 0.320142
O O17 0.500000 0.937952 0.858480
O O18 0.809431 0.915671 0.851765
O O19 0.500000 0.149824 0.297490
O O20 0.750000 0.102119 0.250000
#
# Coordination Sequence:
#
# PCOD9481857 Si02
#       8
#    16  16  16   4  16  16  16  16
#     4  11  25  48  75 107 143 184 233 298 369 437
#     4  12  25  47  75 105 139 182 233 295 366 438
#     4  11  22  38  61  89 128 176 226 275 330 398
#     4  12  26  48  80 106 144 184 234 290 360 442
#     4  11  22  40  62  90 130 176 225 278 334 401
#     4  12  24  42  65  96 132 174 222 277 342 409
#     4  11  23  41  65  94 133 174 219 275 338 406
#     4  12  24  38  61  95 134 176 223 273 330 405
#
# _framework density 23.804963000000001
#
# number of rings (size 3 to 8) (size 9 to 14) (size 15 to 20)
#    0.000    0.552    2.069    8.483    1.931    0.000 
#    2.483    0.000    0.000    0.000    0.000    0.000 
#    0.000    0.000    0.000    0.000    0.000    0.000 
#
# Total GULP energy -324089.545546 kJ/mol
# GULP energy per Si atom -5587.750785 kJ/mol
# Density = 2.375078 g / cm^3
# Si number density = 23.804963 Si / 1000 Ang^3
#
#
#
# Elastic Constant Matrix: (Units=GPa)
#
#
# Indices 1 2 3 4 5 6 
#
# 1 169.4339 25.1308 12.2003 0.0000 0.0000 0.0000
# 2 25.1308 115.4749 0.2885 0.0000 0.0000 0.0000
# 3 12.2003 0.2885 21.4920 0.0000 0.0000 0.0000
# 4 0.0000 0.0000 0.0000 9.9434 0.0000 0.0000
# 5 0.0000 0.0000 0.0000 0.0000 23.6656 0.0000
# 6 0.0000 0.0000 0.0000 0.0000 0.0000 40.1001
#
#
#
# Elastic Compliance Matrix: (Units=1/GPa)
#
#
# Indices 1 2 3 4 5 6 
#
# 1 0.006365 -0.001376 -0.003595 0.000000 0.000000 0.000000
# 2 -0.001376 0.008958 0.000661 0.000000 0.000000 0.000000
# 3 -0.003595 0.000661 0.048561 0.000000 0.000000 0.000000
# 4 0.000000 0.000000 0.000000 0.100569 0.000000 0.000000
# 5 0.000000 0.000000 0.000000 0.000000 0.042255 0.000000
# 6 0.000000 0.000000 0.000000 0.000000 0.000000 0.024938
#
#
# Mechanical properties :
#
#
# Convention : Reuss Voigt Hill
#
# Bulk Modulus (GPa) = 18.09510 42.40443 30.24976
# Shear Modulus (GPa) = 19.32840 32.66055 25.99448
#
# Velocity S-wave (km/s) = 2.85256 3.70808 3.30809
# Velocity P-wave (km/s) = 4.29737 6.01540 5.22745
#
# Compressibility (1/GPa) = 0.05526358
#
# Stress axis : x y z
#
# Youngs Moduli (GPa) = 157.10982 111.63525 20.59276
#
# Poissons Ratio (x) = 0.15364 0.07403
# Poissons Ratio (y) = 0.21622 -0.01361
# Poissons Ratio (z) = 0.56477 -0.07379
#
# Static dielectric constant tensor:
#      x y z
#    x 1.835840 0.000000 0.000000 
#    y 0.000000 1.909780 0.000000 
#    z 0.000000 0.000000 2.042690 
# 
# From -- ./inp_files/48591.got.cif
#   From: 2010.05.17/outbox.cif.g08.bks.cpg/sg64_25_cif.got.tgz:48591.got - 2010.06.03 16:29:19.
