data_PCOD9481430
_publ_section_title
;
Structure prediction by ZEFSAII (Michael W. Deem and Ramdas Pophale) SiO2 
 PCOD9481430
Probable space group: C M C A
;
_chemical_formula_sum "Si O2"
_cell_formula_units_Z 104
_cell_length_a 22.260053
_cell_length_b 7.724995
_cell_length_c 25.545087
_cell_angle_alpha 90.000000
_cell_angle_beta 90.000000
_cell_angle_gamma 90.000000
_cell_volume 4392.702459
_symmetry_space_group_name_H-M "C M C A"
_symmetry_group_IT_number 64
_symmetry_cell_setting 'orthorhombic'
loop_
_space_group_symop_operation_xyz
x,y,z
-x,1/2-y,1/2+z
x,-y,-z
-x,1/2+y,1/2-z
-x,-y,-z
x,1/2+y,1/2-z
-x,y,z
x,1/2-y,1/2+z
1/2+x,1/2+y,z
1/2-x,-y,1/2+z
1/2+x,1/2-y,-z
1/2-x,y,1/2-z
1/2-x,1/2-y,-z
1/2+x,y,1/2-z
1/2-x,1/2+y,z
1/2+x,-y,1/2+z
loop_
_atom_site_type_symbol
_atom_site_label
_atom_site_fract_x
_atom_site_fract_y
_atom_site_fract_z
Si Si1 0.000000 0.055056 0.370739
Si Si2 0.067942 0.896491 0.947231
Si Si3 0.816888 0.114228 0.355451
Si Si4 0.115095 0.958195 0.439744
Si Si5 0.687770 0.983149 0.317615
Si Si6 0.500000 0.391791 0.256258
Si Si7 0.631978 0.666273 0.718555
Si Si8 0.500000 0.951911 0.355220
O O1 0.057344 0.023466 0.407377
O O2 0.000000 0.943354 0.317920
O O3 0.000000 0.248312 0.349694
O O4 0.114723 0.748118 0.935680
O O5 0.000000 0.820661 0.958312
O O6 0.055020 0.997605 0.893394
O O7 0.082743 0.000000 0.000000
O O8 0.827491 0.044018 0.413502
O O9 0.752002 0.061213 0.333285
O O10 0.862835 0.999054 0.320006
O O11 0.826429 0.320058 0.354853
O O12 0.107864 0.000000 0.500000
O O13 0.681130 0.880281 0.262550
O O14 0.647037 0.153832 0.309782
O O15 0.567758 0.317739 0.253025
O O16 0.500000 0.518541 0.204359
#
# Coordination Sequence:
#
# PCOD9481430 Si02
#       8
#     8  16  16  16  16   8  16   8
#     4  12  24  45  69 105 164 215 256 327 408 503
#     4   9  20  45  70 103 146 211 276 318 391 488
#     4  12  27  51  78 116 148 209 277 341 388 463
#     4  12  26  48  74 106 151 207 273 339 414 482
#     4  12  27  50  81 111 153 214 273 318 395 477
#     4  12  30  46  70 123 173 205 248 322 417 488
#     4  12  27  49  76 113 165 208 260 318 393 500
#     4  10  24  41  65 104 159 210 255 311 385 483
#
# _framework density 23.675630000000002
#
# number of rings (size 3 to 8) (size 9 to 14) (size 15 to 20)
#    0.462    0.154    5.385    1.615    4.308    2.462 
#    2.769    2.308    0.000    0.000    0.000    0.000 
#    0.000    0.000    0.000    0.000    0.000    0.000 
#
# Total GULP energy -290530.484341 kJ/mol
# GULP energy per Si atom -5587.124699 kJ/mol
# Density = 2.362174 g / cm^3
# Si number density = 23.675630 Si / 1000 Ang^3
#
#
#
# Elastic Constant Matrix: (Units=GPa)
#
#
# Indices 1 2 3 4 5 6 
#
# 1 121.5268 53.7269 64.0761 0.0000 0.0000 0.0000
# 2 53.7269 108.7392 5.8682 0.0000 0.0000 0.0000
# 3 64.0761 5.8682 142.7892 0.0000 0.0000 0.0000
# 4 0.0000 0.0000 0.0000 39.8128 0.0000 0.0000
# 5 0.0000 0.0000 0.0000 0.0000 29.8345 0.0000
# 6 0.0000 0.0000 0.0000 0.0000 0.0000 20.0381
#
#
#
# Elastic Compliance Matrix: (Units=1/GPa)
#
#
# Indices 1 2 3 4 5 6 
#
# 1 0.014553 -0.006853 -0.006249 0.000000 0.000000 0.000000
# 2 -0.006853 0.012444 0.002564 0.000000 0.000000 0.000000
# 3 -0.006249 0.002564 0.009702 0.000000 0.000000 0.000000
# 4 0.000000 0.000000 0.000000 0.025118 0.000000 0.000000
# 5 0.000000 0.000000 0.000000 0.000000 0.033518 0.000000
# 6 0.000000 0.000000 0.000000 0.000000 0.000000 0.049905
#
#
# Mechanical properties :
#
#
# Convention : Reuss Voigt Hill
#
# Bulk Modulus (GPa) = 64.00931 68.93307 66.47119
# Shear Modulus (GPa) = 29.15021 34.56269 31.85645
#
# Velocity S-wave (km/s) = 3.51270 3.82493 3.67214
# Velocity P-wave (km/s) = 6.59899 6.97751 6.79089
#
# Compressibility (1/GPa) = 0.01562273
#
# Stress axis : x y z
#
# Youngs Moduli (GPa) = 68.71204 80.35884 103.06896
#
# Poissons Ratio (x) = 0.55074 0.64409
# Poissons Ratio (y) = 0.47092 -0.26428
# Poissons Ratio (z) = 0.42939 -0.20604
#
# Static dielectric constant tensor:
#      x y z
#    x 1.906450 0.000000 0.000000 
#    y 0.000000 1.926450 0.000000 
#    z 0.000000 0.000000 2.065830 
# 
# From -- ./inp_files/51064.got.cif
#   From: 2010.05.17/outbox.cif.g08.bks.cpg/sg64_26_cif.got.tgz:51064.got - 2010.06.03 16:29:19.
