data_PCOD9481290
_publ_section_title
;
Structure prediction by ZEFSAII (Michael W. Deem and Ramdas Pophale) SiO2 
 PCOD9481290
Probable space group: C M C A
;
_chemical_formula_sum "Si O2"
_cell_formula_units_Z 96
_cell_length_a 16.410878
_cell_length_b 27.297435
_cell_length_c 10.219697
_cell_angle_alpha 90.000000
_cell_angle_beta 90.000000
_cell_angle_gamma 90.000000
_cell_volume 4578.167491
_symmetry_space_group_name_H-M "C M C A"
_symmetry_group_IT_number 64
_symmetry_cell_setting 'orthorhombic'
loop_
_space_group_symop_operation_xyz
x,y,z
-x,1/2-y,1/2+z
x,-y,-z
-x,1/2+y,1/2-z
-x,-y,-z
x,1/2+y,1/2-z
-x,y,z
x,1/2-y,1/2+z
1/2+x,1/2+y,z
1/2-x,-y,1/2+z
1/2+x,1/2-y,-z
1/2-x,y,1/2-z
1/2-x,1/2-y,-z
1/2+x,y,1/2-z
1/2-x,1/2+y,z
1/2+x,-y,1/2+z
loop_
_atom_site_type_symbol
_atom_site_label
_atom_site_fract_x
_atom_site_fract_y
_atom_site_fract_z
Si Si1 0.091705 0.616421 0.065822
Si Si2 0.000000 0.808795 0.707610
Si Si3 0.000000 0.373251 0.532617
Si Si4 0.780159 0.000000 0.500000
Si Si5 0.635283 0.941230 0.425101
Si Si6 0.337177 0.861155 0.200016
Si Si7 0.907072 0.518336 0.217127
Si Si8 0.000000 0.192856 0.774434
O O1 0.155361 0.619604 0.948713
O O2 0.104631 0.575886 0.179452
O O3 0.000000 0.603949 0.010803
O O4 0.077562 0.669676 0.128859
O O5 0.000000 0.751221 0.719263
O O6 0.000000 0.839976 0.840345
O O7 0.075297 0.410439 0.516353
O O8 0.000000 0.335080 0.413106
O O9 0.718863 0.045552 0.503824
O O10 0.838103 0.003847 0.624218
O O11 0.750000 0.840336 0.250000
O O12 0.603182 0.991791 0.357294
O O13 0.648185 0.905593 0.300918
O O14 0.415348 0.825239 0.210056
O O15 0.000000 0.506790 0.177485
#
# Coordination Sequence:
#
# PCOD9481290 Si02
#       8
#    16   8   8   8  16  16  16   8
#     4   9  21  37  66  93 127 175 221 277 330 394
#     4  10  23  43  71  94 132 169 223 287 350 401
#     4  10  24  42  71  98 132 185 219 278 352 410
#     4  12  25  35  62  94 142 178 218 281 319 384
#     4  11  24  40  63  98 140 179 226 271 334 397
#     4  11  21  41  68 100 133 171 226 284 338 403
#     4  11  21  38  60  93 129 181 232 263 326 396
#     4  10  23  42  71  98 122 175 222 282 354 417
#
# _framework density 20.969087999999999
#
# number of rings (size 3 to 8) (size 9 to 14) (size 15 to 20)
#    0.500    1.000    1.667    3.750    4.667    1.667 
#    0.000    0.833    3.667    0.000    0.000    0.000 
#    0.000    0.000    0.000    0.000    0.000    0.000 
#
# Total GULP energy -267616.570078 kJ/mol
# GULP energy per Si atom -5575.345210 kJ/mol
# Density = 2.092136 g / cm^3
# Si number density = 20.969088 Si / 1000 Ang^3
#
#
#
# Elastic Constant Matrix: (Units=GPa)
#
#
# Indices 1 2 3 4 5 6 
#
# 1 146.7796 67.9305 54.0752 0.0000 0.0000 0.0000
# 2 67.9305 142.9610 35.1861 0.0000 0.0000 0.0000
# 3 54.0752 35.1861 105.2705 0.0000 0.0000 0.0000
# 4 0.0000 0.0000 0.0000 16.0254 0.0000 0.0000
# 5 0.0000 0.0000 0.0000 0.0000 26.1038 0.0000
# 6 0.0000 0.0000 0.0000 0.0000 0.0000 24.4103
#
#
#
# Elastic Compliance Matrix: (Units=1/GPa)
#
#
# Indices 1 2 3 4 5 6 
#
# 1 0.009994 -0.003798 -0.003864 0.000000 0.000000 0.000000
# 2 -0.003798 0.009065 -0.001079 0.000000 0.000000 0.000000
# 3 -0.003864 -0.001079 0.011845 0.000000 0.000000 0.000000
# 4 0.000000 0.000000 0.000000 0.062401 0.000000 0.000000
# 5 0.000000 0.000000 0.000000 0.000000 0.038309 0.000000
# 6 0.000000 0.000000 0.000000 0.000000 0.000000 0.040966
#
#
# Mechanical properties :
#
#
# Convention : Reuss Voigt Hill
#
# Bulk Modulus (GPa) = 74.50596 78.82165 76.66380
# Shear Modulus (GPa) = 25.70203 29.16251 27.43227
#
# Velocity S-wave (km/s) = 3.50481 3.73331 3.62086
# Velocity P-wave (km/s) = 7.21018 7.50030 7.35667
#
# Compressibility (1/GPa) = 0.01342174
#
# Stress axis : x y z
#
# Youngs Moduli (GPa) = 100.05693 110.31288 84.42307
#
# Poissons Ratio (x) = 0.41895 0.32625
# Poissons Ratio (y) = 0.38000 0.09110
# Poissons Ratio (z) = 0.38666 0.11904
#
# Static dielectric constant tensor:
#      x y z
#    x 1.781590 0.000000 0.000000 
#    y 0.000000 1.749460 0.000000 
#    z 0.000000 0.000000 1.818080 
# 
# From -- ./inp_files/16392.got.cif
#   From: 2010.05.17/outbox.cif.g08.bks.cpg/sg64_9_cif.got.tgz:16392.got - 2010.06.03 16:29:19.
