data_PCOD9481282
_publ_section_title
;
Structure prediction by ZEFSAII (Michael W. Deem and Ramdas Pophale) SiO2 
 PCOD9481282
Probable space group: C M C A
;
_chemical_formula_sum "Si O2"
_cell_formula_units_Z 72
_cell_length_a 23.088139
_cell_length_b 17.240626
_cell_length_c 9.083368
_cell_angle_alpha 90.000000
_cell_angle_beta 90.000000
_cell_angle_gamma 90.000000
_cell_volume 3615.670689
_symmetry_space_group_name_H-M "C M C A"
_symmetry_group_IT_number 64
_symmetry_cell_setting 'orthorhombic'
loop_
_space_group_symop_operation_xyz
x,y,z
-x,1/2-y,1/2+z
x,-y,-z
-x,1/2+y,1/2-z
-x,-y,-z
x,1/2+y,1/2-z
-x,y,z
x,1/2-y,1/2+z
1/2+x,1/2+y,z
1/2-x,-y,1/2+z
1/2+x,1/2-y,-z
1/2-x,y,1/2-z
1/2-x,1/2-y,-z
1/2+x,y,1/2-z
1/2-x,1/2+y,z
1/2+x,-y,1/2+z
loop_
_atom_site_type_symbol
_atom_site_label
_atom_site_fract_x
_atom_site_fract_y
_atom_site_fract_z
Si Si1 0.906958 0.000000 0.000000
Si Si2 0.878338 0.189564 0.638413
Si Si3 0.772884 0.581081 0.915125
Si Si4 0.000000 0.480025 0.756449
Si Si5 0.158232 0.661020 0.530369
Si Si6 0.500000 0.627570 0.529004
O O1 0.946002 0.989882 0.854068
O O2 0.868859 0.076718 0.995144
O O3 0.835547 0.121163 0.582528
O O4 0.868787 0.187074 0.813515
O O5 0.858029 0.273279 0.584191
O O6 0.942273 0.173498 0.575887
O O7 0.750000 0.565039 0.750000
O O8 0.726785 0.644902 0.970453
O O9 0.772603 0.500000 0.000000
O O10 0.000000 0.551319 0.868704
O O11 0.000000 0.403027 0.859332
#
# Coordination Sequence:
#
# PCOD9481282 Si02
#       6
#     8  16  16   8  16   8
#     4  11  22  44  68  94 130 179 220 268 332 381
#     4  11  26  42  66  98 137 170 222 267 331 390
#     4  10  23  42  68  99 130 169 219 273 329 390
#     4  10  24  40  66  93 135 173 216 271 321 390
#     4  11  24  45  67  97 133 170 223 274 327 390
#     4  11  24  42  64  98 135 168 223 264 322 396
#
# _framework density 19.913316999999999
#
# number of rings (size 3 to 8) (size 9 to 14) (size 15 to 20)
#    0.000    1.333    3.333    0.667    6.222    4.444 
#    0.000    0.000    0.000    0.000    0.000    0.000 
#    0.000    0.000    0.000    0.000    0.000    0.000 
#
# Total GULP energy -201099.995306 kJ/mol
# GULP energy per Si atom -5586.110981 kJ/mol
# Density = 1.986799 g / cm^3
# Si number density = 19.913317 Si / 1000 Ang^3
#
#
#
# Elastic Constant Matrix: (Units=GPa)
#
#
# Indices 1 2 3 4 5 6 
#
# 1 114.8699 27.0152 22.6363 0.0000 0.0000 0.0000
# 2 27.0152 125.1356 51.0339 0.0000 0.0000 0.0000
# 3 22.6363 51.0339 67.6951 0.0000 0.0000 0.0000
# 4 0.0000 0.0000 0.0000 5.7769 0.0000 0.0000
# 5 0.0000 0.0000 0.0000 0.0000 17.8413 0.0000
# 6 0.0000 0.0000 0.0000 0.0000 0.0000 44.8176
#
#
#
# Elastic Compliance Matrix: (Units=1/GPa)
#
#
# Indices 1 2 3 4 5 6 
#
# 1 0.009420 -0.001082 -0.002335 0.000000 0.000000 0.000000
# 2 -0.001082 0.011663 -0.008431 0.000000 0.000000 0.000000
# 3 -0.002335 -0.008431 0.021909 0.000000 0.000000 0.000000
# 4 0.000000 0.000000 0.000000 0.173104 0.000000 0.000000
# 5 0.000000 0.000000 0.000000 0.000000 0.056050 0.000000
# 6 0.000000 0.000000 0.000000 0.000000 0.000000 0.022313
#
#
# Mechanical properties :
#
#
# Convention : Reuss Voigt Hill
#
# Bulk Modulus (GPa) = 51.81972 56.56347 54.19159
# Shear Modulus (GPa) = 15.40429 27.48817 21.44623
#
# Velocity S-wave (km/s) = 2.78433 3.71939 3.28530
# Velocity P-wave (km/s) = 6.03455 6.84921 6.45474
#
# Compressibility (1/GPa) = 0.01929767
#
# Stress axis : x y z
#
# Youngs Moduli (GPa) = 106.15821 85.73954 45.64400
#
# Poissons Ratio (x) = 0.09273 0.10656
# Poissons Ratio (y) = 0.11482 0.38482
# Poissons Ratio (z) = 0.24783 0.72287
#
# Static dielectric constant tensor:
#      x y z
#    x 1.760850 0.000000 0.000000 
#    y 0.000000 1.645140 0.000000 
#    z 0.000000 0.000000 1.707050 
# 
# From -- ./inp_files/9190.got.cif
#   From: 2010.05.17/outbox.cif.g08.bks.cpg/sg64_5_cif.got.tgz:9190.got - 2010.06.03 16:29:19.
