data_PCOD9481603
_publ_section_title
;
Structure prediction by ZEFSAII (Michael W. Deem and Ramdas Pophale) SiO2 
 PCOD9481603
Probable space group: C M C A
;
_chemical_formula_sum "Si O2"
_cell_formula_units_Z 104
_cell_length_a 19.750488
_cell_length_b 8.197564
_cell_length_c 29.192597
_cell_angle_alpha 90.000000
_cell_angle_beta 90.000000
_cell_angle_gamma 90.000000
_cell_volume 4726.453382
_symmetry_space_group_name_H-M "C M C A"
_symmetry_group_IT_number 64
_symmetry_cell_setting 'orthorhombic'
loop_
_space_group_symop_operation_xyz
x,y,z
-x,1/2-y,1/2+z
x,-y,-z
-x,1/2+y,1/2-z
-x,-y,-z
x,1/2+y,1/2-z
-x,y,z
x,1/2-y,1/2+z
1/2+x,1/2+y,z
1/2-x,-y,1/2+z
1/2+x,1/2-y,-z
1/2-x,y,1/2-z
1/2-x,1/2-y,-z
1/2+x,y,1/2-z
1/2-x,1/2+y,z
1/2+x,-y,1/2+z
loop_
_atom_site_type_symbol
_atom_site_label
_atom_site_fract_x
_atom_site_fract_y
_atom_site_fract_z
Si Si1 0.833924 0.447510 0.298202
Si Si2 0.771974 0.581145 0.550001
Si Si3 0.370966 0.422125 0.396563
Si Si4 0.822110 0.941141 0.698243
Si Si5 0.109776 0.061367 0.108630
Si Si6 0.000000 0.867590 0.049490
Si Si7 0.116194 0.657307 0.032342
O O1 0.830821 0.253026 0.304161
O O2 0.851847 0.493415 0.246128
O O3 0.757909 0.518545 0.303526
O O4 0.880468 0.521368 0.337918
O O5 0.769837 0.500000 0.500000
O O6 0.699739 0.599450 0.574849
O O7 0.818205 0.476032 0.584347
O O8 0.813636 0.749446 0.541908
O O9 0.354317 0.470029 0.345006
O O10 0.407609 0.250013 0.398452
O O11 0.408259 0.574587 0.420195
O O12 0.058406 0.945520 0.082578
O O13 0.060066 0.786017 0.016986
O O14 0.119548 0.500000 0.000000
#
# Coordination Sequence:
#
# PCOD9481603 Si02
#       7
#    16  16  16  16  16   8  16
#     4  11  21  37  60  93 132 170 211 258 323 391
#     4  11  23  40  63  95 133 166 205 265 340 405
#     4  12  23  38  65  97 131 165 209 272 342 405
#     4  11  21  35  60  95 131 167 203 256 325 403
#     4  11  23  41  64  91 128 170 217 269 322 384
#     4  10  25  46  65  86 122 174 229 274 314 368
#     4  11  24  43  65  93 126 174 226 276 329 392
#
# _framework density 22.003813999999998
#
# number of rings (size 3 to 8) (size 9 to 14) (size 15 to 20)
#    0.000    0.923    1.538    8.077    0.000    2.462 
#    0.000   13.077    0.000    8.308    0.000    0.000 
#    0.000    0.000    0.000    0.000    0.000    0.000 
#
# Total GULP energy -289961.597701 kJ/mol
# GULP energy per Si atom -5576.184571 kJ/mol
# Density = 2.195373 g / cm^3
# Si number density = 22.003814 Si / 1000 Ang^3
#
#
#
# Elastic Constant Matrix: (Units=GPa)
#
#
# Indices 1 2 3 4 5 6 
#
# 1 45.8853 1.9357 3.4048 0.0000 0.0000 0.0000
# 2 1.9357 125.1323 30.4402 0.0000 0.0000 0.0000
# 3 3.4048 30.4402 141.4867 0.0000 0.0000 0.0000
# 4 0.0000 0.0000 0.0000 41.5358 0.0000 0.0000
# 5 0.0000 0.0000 0.0000 0.0000 1.8175 0.0000
# 6 0.0000 0.0000 0.0000 0.0000 0.0000 -42.0723
#
#
#
# Elastic Compliance Matrix: (Units=1/GPa)
#
#
# Indices 1 2 3 4 5 6 
#
# 1 0.021838 -0.000222 -0.000478 0.000000 0.000000 0.000000
# 2 -0.000222 0.008435 -0.001809 0.000000 0.000000 0.000000
# 3 -0.000478 -0.001809 0.007469 0.000000 0.000000 0.000000
# 4 0.000000 0.000000 0.000000 0.024076 0.000000 0.000000
# 5 0.000000 0.000000 0.000000 0.000000 0.550197 0.000000
# 6 0.000000 0.000000 0.000000 0.000000 0.000000 -0.023769
#
#
# Mechanical properties :
#
#
# Convention : Reuss Voigt Hill
#
# Bulk Modulus (GPa) = 30.55838 42.67397 36.61618
# Shear Modulus (GPa) = 8.27579 18.70445 13.49012
#
# Velocity S-wave (km/s) = 1.94145 2.91873 2.47873
# Velocity P-wave (km/s) = 4.35242 5.54929 4.98689
#
# Compressibility (1/GPa) = 0.03272425
#
# Stress axis : x y z
#
# Youngs Moduli (GPa) = 45.79118 118.55166 133.89401
#
# Poissons Ratio (x) = 0.02627 0.06398
# Poissons Ratio (y) = 0.01015 0.24227
# Poissons Ratio (z) = 0.02188 0.21451
#
# Static dielectric constant tensor:
#      x y z
#    x 1.779970 0.000000 0.000000 
#    y 0.000000 1.901740 0.000000 
#    z 0.000000 0.000000 1.829880 
# 
# From -- ./inp_files/50765.got.cif
#   From: 2010.05.17/outbox.cif.g08.bks.cpg/sg64_26_cif.got.tgz:50765.got - 2010.06.03 16:29:19.
