data_PCOD9481391
_publ_section_title
;
Structure prediction by ZEFSAII (Michael W. Deem and Ramdas Pophale) SiO2 
 PCOD9481391
Probable space group: C M C A
;
_chemical_formula_sum "Si O2"
_cell_formula_units_Z 88
_cell_length_a 21.105889
_cell_length_b 11.257424
_cell_length_c 16.789084
_cell_angle_alpha 90.000000
_cell_angle_beta 90.000000
_cell_angle_gamma 90.000000
_cell_volume 3989.051796
_symmetry_space_group_name_H-M "C M C A"
_symmetry_group_IT_number 64
_symmetry_cell_setting 'orthorhombic'
loop_
_space_group_symop_operation_xyz
x,y,z
-x,1/2-y,1/2+z
x,-y,-z
-x,1/2+y,1/2-z
-x,-y,-z
x,1/2+y,1/2-z
-x,y,z
x,1/2-y,1/2+z
1/2+x,1/2+y,z
1/2-x,-y,1/2+z
1/2+x,1/2-y,-z
1/2-x,y,1/2-z
1/2-x,1/2-y,-z
1/2+x,y,1/2-z
1/2-x,1/2+y,z
1/2+x,-y,1/2+z
loop_
_atom_site_type_symbol
_atom_site_label
_atom_site_fract_x
_atom_site_fract_y
_atom_site_fract_z
Si Si1 0.391571 0.459099 0.867832
Si Si2 0.796984 0.661038 0.609477
Si Si3 0.396765 0.741956 0.005942
Si Si4 0.000000 0.152835 0.889434
Si Si5 0.833122 0.439393 0.082583
Si Si6 0.178380 0.629629 0.220220
O O1 0.327811 0.530828 0.889976
O O2 0.411626 0.371015 0.938453
O O3 0.444616 0.559348 0.858546
O O4 0.372380 0.385728 0.790101
O O5 0.827203 0.723445 0.532407
O O6 0.722079 0.648817 0.611065
O O7 0.818750 0.738539 0.684578
O O8 0.393583 0.860379 0.058319
O O9 0.444971 0.735054 0.933216
O O10 0.840130 0.538663 0.149767
O O11 0.811723 0.500000 0.000000
O O12 0.250000 0.600762 0.250000
#
# Coordination Sequence:
#
# PCOD9481391 Si02
#       6
#    16  16  16   8  16  16
#     4  11  23  41  71  97 136 178 233 294 351 411
#     4  11  23  40  64  97 137 179 229 279 352 427
#     4  11  22  42  73  94 128 178 242 286 341 414
#     4  10  23  48  73 100 124 180 240 291 338 416
#     4  12  24  41  64  99 141 186 231 285 357 426
#     4  12  26  40  60 101 145 182 220 290 358 424
#
# _framework density 22.060381
#
# number of rings (size 3 to 8) (size 9 to 14) (size 15 to 20)
#    0.000    0.727    3.636    6.000    5.091    0.000 
#    0.000    5.000    0.000    0.000    0.000    0.000 
#    0.000    0.000    0.000    0.000    0.000    0.000 
#
# Total GULP energy -244942.497530 kJ/mol
# GULP energy per Si atom -5566.874944 kJ/mol
# Density = 2.201017 g / cm^3
# Si number density = 22.060381 Si / 1000 Ang^3
#
#
#
# Elastic Constant Matrix: (Units=GPa)
#
#
# Indices 1 2 3 4 5 6 
#
# 1 67.3417 3.3860 -4.7196 0.0000 0.0000 0.0000
# 2 3.3860 67.5939 8.5090 0.0000 0.0000 0.0000
# 3 -4.7196 8.5090 45.1233 0.0000 0.0000 0.0000
# 4 0.0000 0.0000 0.0000 42.0548 0.0000 0.0000
# 5 0.0000 0.0000 0.0000 0.0000 2.2223 0.0000
# 6 0.0000 0.0000 0.0000 0.0000 0.0000 -3.2031
#
#
#
# Elastic Compliance Matrix: (Units=1/GPa)
#
#
# Indices 1 2 3 4 5 6 
#
# 1 0.015022 -0.000973 0.001755 0.000000 0.000000 0.000000
# 2 -0.000973 0.015217 -0.002971 0.000000 0.000000 0.000000
# 3 0.001755 -0.002971 0.022905 0.000000 0.000000 0.000000
# 4 0.000000 0.000000 0.000000 0.023778 0.000000 0.000000
# 5 0.000000 0.000000 0.000000 0.000000 0.449981 0.000000
# 6 0.000000 0.000000 0.000000 0.000000 0.000000 -0.312197
#
#
# Mechanical properties :
#
#
# Convention : Reuss Voigt Hill
#
# Bulk Modulus (GPa) = 20.50694 21.60107 21.05400
# Shear Modulus (GPa) = 21.24572 19.74037 20.49305
#
# Velocity S-wave (km/s) = 3.10671 2.99462 3.05118
# Velocity P-wave (km/s) = 4.71008 4.66584 4.68801
#
# Compressibility (1/GPa) = 0.04876399
#
# Stress axis : x y z
#
# Youngs Moduli (GPa) = 66.57097 65.71580 43.65797
#
# Poissons Ratio (x) = 0.06397 -0.07661
# Poissons Ratio (y) = 0.06480 0.12972
# Poissons Ratio (z) = -0.11681 0.19526
#
# Static dielectric constant tensor:
#      x y z
#    x 1.768600 0.000000 0.000000 
#    y 0.000000 1.843490 0.000000 
#    z 0.000000 0.000000 1.849450 
# 
# From -- ./inp_files/27175.got.cif
#   From: 2010.05.17/outbox.cif.g08.bks.cpg/sg64_14_cif.got.tgz:27175.got - 2010.06.03 16:29:19.
