data_PCOD9481638
_publ_section_title
;
Structure prediction by ZEFSAII (Michael W. Deem and Ramdas Pophale) SiO2 
 PCOD9481638
Probable space group: C M C A
;
_chemical_formula_sum "Si O2"
_cell_formula_units_Z 112
_cell_length_a 22.458638
_cell_length_b 25.002523
_cell_length_c 12.993410
_cell_angle_alpha 90.000000
_cell_angle_beta 90.000000
_cell_angle_gamma 90.000000
_cell_volume 7296.093537
_symmetry_space_group_name_H-M "C M C A"
_symmetry_group_IT_number 64
_symmetry_cell_setting 'orthorhombic'
loop_
_space_group_symop_operation_xyz
x,y,z
-x,1/2-y,1/2+z
x,-y,-z
-x,1/2+y,1/2-z
-x,-y,-z
x,1/2+y,1/2-z
-x,y,z
x,1/2-y,1/2+z
1/2+x,1/2+y,z
1/2-x,-y,1/2+z
1/2+x,1/2-y,-z
1/2-x,y,1/2-z
1/2-x,1/2-y,-z
1/2+x,y,1/2-z
1/2-x,1/2+y,z
1/2+x,-y,1/2+z
loop_
_atom_site_type_symbol
_atom_site_label
_atom_site_fract_x
_atom_site_fract_y
_atom_site_fract_z
Si Si1 0.866504 0.659469 0.918368
Si Si2 0.432861 0.371404 0.714121
Si Si3 0.570449 0.060047 0.017422
Si Si4 0.261185 0.312287 0.022260
Si Si5 0.340249 0.211215 0.708194
Si Si6 0.812131 0.829026 0.804339
Si Si7 0.433287 0.766854 0.932455
O O1 0.802590 0.659559 0.974351
O O2 0.858144 0.671632 0.798889
O O3 0.899112 0.604877 0.946858
O O4 0.902105 0.710217 0.965771
O O5 0.500000 0.376171 0.761576
O O6 0.423206 0.420396 0.635398
O O7 0.372912 0.360971 0.778902
O O8 0.436026 0.319057 0.640826
O O9 0.500000 0.061098 0.994611
O O10 0.592700 0.000000 0.000000
O O11 0.289872 0.313339 0.134952
O O12 0.250000 0.250000 0.000000
O O13 0.300588 0.330680 0.926313
O O14 0.321506 0.268026 0.760984
O O15 0.393368 0.225123 0.629203
O O16 0.750000 0.847436 0.750000
O O17 0.500000 0.747984 0.953067
#
# Coordination Sequence:
#
# PCOD9481638 Si02
#       7
#    16  16  16  16  16  16  16
#     4  11  19  30  49  68  98 130 164 207 253 293
#     4   8  16  29  46  69  96 124 157 205 259 300
#     4   9  18  34  55  77  97 122 166 217 259 301
#     4  12  19  30  45  68  98 135 176 205 233 301
#     4  11  19  29  43  67  97 132 164 201 242 294
#     4  11  17  27  47  69  97 134 174 202 240 298
#     4   9  17  28  41  63  94 125 157 193 238 299
#
# _framework density 15.350681
#
# number of rings (size 3 to 8) (size 9 to 14) (size 15 to 20)
#    0.000    1.857    4.286    3.429    0.000    1.143 
#    0.000    3.571    0.000    5.143    0.000    0.000 
#    0.000    3.429    0.000    0.000    0.000    0.000 
#
# Total GULP energy -311946.888869 kJ/mol
# GULP energy per Si atom -5570.480158 kJ/mol
# Density = 1.531574 g / cm^3
# Si number density = 15.350681 Si / 1000 Ang^3
#
#
#
# Elastic Constant Matrix: (Units=GPa)
#
#
# Indices 1 2 3 4 5 6 
#
# 1 99.4859 33.3343 34.4526 0.0000 0.0000 0.0000
# 2 33.3343 57.5657 23.1575 0.0000 0.0000 0.0000
# 3 34.4526 23.1575 74.0179 0.0000 0.0000 0.0000
# 4 0.0000 0.0000 0.0000 9.8723 0.0000 0.0000
# 5 0.0000 0.0000 0.0000 0.0000 19.7522 0.0000
# 6 0.0000 0.0000 0.0000 0.0000 0.0000 14.2638
#
#
#
# Elastic Compliance Matrix: (Units=1/GPa)
#
#
# Indices 1 2 3 4 5 6 
#
# 1 0.013635 -0.006112 -0.004435 0.000000 0.000000 0.000000
# 2 -0.006112 0.022612 -0.004230 0.000000 0.000000 0.000000
# 3 -0.004435 -0.004230 0.016898 0.000000 0.000000 0.000000
# 4 0.000000 0.000000 0.000000 0.101293 0.000000 0.000000
# 5 0.000000 0.000000 0.000000 0.000000 0.050627 0.000000
# 6 0.000000 0.000000 0.000000 0.000000 0.000000 0.070107
#
#
# Mechanical properties :
#
#
# Convention : Reuss Voigt Hill
#
# Bulk Modulus (GPa) = 42.38550 45.88427 44.13488
# Shear Modulus (GPa) = 15.99544 18.11935 17.05740
#
# Velocity S-wave (km/s) = 3.23151 3.43937 3.33706
# Velocity P-wave (km/s) = 6.44941 6.76224 6.60768
#
# Compressibility (1/GPa) = 0.02359298
#
# Stress axis : x y z
#
# Youngs Moduli (GPa) = 73.33949 44.22417 59.17970
#
# Poissons Ratio (x) = 0.27029 0.26244
# Poissons Ratio (y) = 0.44823 0.25031
# Poissons Ratio (z) = 0.32523 0.18706
#
# Static dielectric constant tensor:
#      x y z
#    x 1.566240 0.000000 0.000000 
#    y 0.000000 1.484670 0.000000 
#    z 0.000000 0.000000 1.536690 
# 
# From -- ./inp_files/17673.got.cif
#   From: 2010.05.17/outbox.cif.g08.bks.cpg/sg64_9_cif.got.tgz:17673.got - 2010.06.03 16:29:19.
