data_PCOD9481737
_publ_section_title
;
Structure prediction by ZEFSAII (Michael W. Deem and Ramdas Pophale) SiO2 
 PCOD9481737
Probable space group: C M C A
;
_chemical_formula_sum "Si O2"
_cell_formula_units_Z 64
_cell_length_a 28.488805
_cell_length_b 25.807493
_cell_length_c 5.068891
_cell_angle_alpha 90.000000
_cell_angle_beta 90.000000
_cell_angle_gamma 90.000000
_cell_volume 3726.773538
_symmetry_space_group_name_H-M "C M C A"
_symmetry_group_IT_number 64
_symmetry_cell_setting 'orthorhombic'
loop_
_space_group_symop_operation_xyz
x,y,z
-x,1/2-y,1/2+z
x,-y,-z
-x,1/2+y,1/2-z
-x,-y,-z
x,1/2+y,1/2-z
-x,y,z
x,1/2-y,1/2+z
1/2+x,1/2+y,z
1/2-x,-y,1/2+z
1/2+x,1/2-y,-z
1/2-x,y,1/2-z
1/2-x,1/2-y,-z
1/2+x,y,1/2-z
1/2-x,1/2+y,z
1/2+x,-y,1/2+z
loop_
_atom_site_type_symbol
_atom_site_label
_atom_site_fract_x
_atom_site_fract_y
_atom_site_fract_z
Si Si1 0.555590 0.891571 0.903477
Si Si2 0.098501 0.441165 0.391879
Si Si3 0.057024 0.280240 0.130766
Si Si4 0.300833 0.962105 0.251215
O O1 0.500000 0.889557 0.847596
O O2 0.581939 0.906004 0.634990
O O3 0.571007 0.836309 0.023991
O O4 0.566351 0.932390 0.136086
O O5 0.096490 0.500000 0.500000
O O6 0.151765 0.430282 0.296067
O O7 0.071981 0.236402 0.921682
O O8 0.000000 0.280990 0.135482
O O9 0.250000 0.934491 0.250000
O O10 0.297311 0.000000 0.500000
O O11 0.307096 0.000000 0.000000
#
# Coordination Sequence:
#
# PCOD9481737 Si02
#       4
#    16  16  16  16
#     4  11  22  33  47  69  98 132 165 193 226 278
#     4  11  21  33  47  68 100 133 163 191 224 276
#     4   9  17  31  49  66  86 115 155 205 249 272
#     4   9  17  31  50  68  88 119 159 203 244 270
#
# _framework density 17.173031999999999
#
# number of rings (size 3 to 8) (size 9 to 14) (size 15 to 20)
#    0.000    2.000    0.000    6.000    0.000    7.000 
#    0.000    0.000    0.000    0.000    0.000    0.000 
#    0.000   20.000    0.000    0.000    0.000    0.000 
#
# Total GULP energy -178388.678764 kJ/mol
# GULP energy per Si atom -5574.646211 kJ/mol
# Density = 1.713395 g / cm^3
# Si number density = 17.173032 Si / 1000 Ang^3
#
#
#
# Elastic Constant Matrix: (Units=GPa)
#
#
# Indices 1 2 3 4 5 6 
#
# 1 59.1273 15.7171 6.3533 0.0000 0.0000 0.0000
# 2 15.7171 34.8425 -2.2197 0.0000 0.0000 0.0000
# 3 6.3533 -2.2197 92.4511 0.0000 0.0000 0.0000
# 4 0.0000 0.0000 0.0000 22.7644 0.0000 0.0000
# 5 0.0000 0.0000 0.0000 0.0000 25.2643 0.0000
# 6 0.0000 0.0000 0.0000 0.0000 0.0000 -2.5921
#
#
#
# Elastic Compliance Matrix: (Units=1/GPa)
#
#
# Indices 1 2 3 4 5 6 
#
# 1 0.019436 -0.008866 -0.001549 0.000000 0.000000 0.000000
# 2 -0.008866 0.032789 0.001397 0.000000 0.000000 0.000000
# 3 -0.001549 0.001397 0.010956 0.000000 0.000000 0.000000
# 4 0.000000 0.000000 0.000000 0.043928 0.000000 0.000000
# 5 0.000000 0.000000 0.000000 0.000000 0.039581 0.000000
# 6 0.000000 0.000000 0.000000 0.000000 0.000000 -0.385793
#
#
# Mechanical properties :
#
#
# Convention : Reuss Voigt Hill
#
# Bulk Modulus (GPa) = 22.15072 25.12471 23.63772
# Shear Modulus (GPa) = -24.26978 20.19201 -2.03889
#
# Velocity S-wave (km/s) = -3.76340 3.43271 -1.09080
# Velocity P-wave (km/s) = 2.44084 5.51121 3.49398
#
# Compressibility (1/GPa) = 0.04514526
#
# Stress axis : x y z
#
# Youngs Moduli (GPa) = 51.45152 30.49815 91.27026
#
# Poissons Ratio (x) = 0.27039 0.14133
# Poissons Ratio (y) = 0.45617 -0.12746
# Poissons Ratio (z) = 0.07967 -0.04259
#
# Static dielectric constant tensor:
#      x y z
#    x 1.627930 0.000000 0.000000 
#    y 0.000000 1.591710 0.000000 
#    z 0.000000 0.000000 1.587630 
# 
# From -- ./inp_files/2240.got.cif
#   From: 2010.05.17/outbox.cif.g08.bks.cpg/sg64_2_cif.got.tgz:2240.got - 2010.06.03 16:29:19.
