data_PCOD9481396
_publ_section_title
;
Structure prediction by ZEFSAII (Michael W. Deem and Ramdas Pophale) SiO2 
 PCOD9481396
Probable space group: C M C A
;
_chemical_formula_sum "Si O2"
_cell_formula_units_Z 72
_cell_length_a 27.384879
_cell_length_b 8.710704
_cell_length_c 11.607664
_cell_angle_alpha 90.000000
_cell_angle_beta 90.000000
_cell_angle_gamma 90.000000
_cell_volume 2768.910453
_symmetry_space_group_name_H-M "C M C A"
_symmetry_group_IT_number 64
_symmetry_cell_setting 'orthorhombic'
loop_
_space_group_symop_operation_xyz
x,y,z
-x,1/2-y,1/2+z
x,-y,-z
-x,1/2+y,1/2-z
-x,-y,-z
x,1/2+y,1/2-z
-x,y,z
x,1/2-y,1/2+z
1/2+x,1/2+y,z
1/2-x,-y,1/2+z
1/2+x,1/2-y,-z
1/2-x,y,1/2-z
1/2-x,1/2-y,-z
1/2+x,y,1/2-z
1/2-x,1/2+y,z
1/2+x,-y,1/2+z
loop_
_atom_site_type_symbol
_atom_site_label
_atom_site_fract_x
_atom_site_fract_y
_atom_site_fract_z
Si Si1 0.000000 0.001558 0.808454
Si Si2 0.895035 0.508147 0.305376
Si Si3 0.500000 0.759616 0.991344
Si Si4 0.187892 0.088189 0.366306
Si Si5 0.250000 0.852352 0.250000
Si Si6 0.108262 0.756614 0.500953
O O1 0.051533 0.986570 0.747798
O O2 0.000000 0.165962 0.871395
O O3 0.000000 0.872897 0.909083
O O4 0.853912 0.512654 0.211742
O O5 0.893488 0.364614 0.392238
O O6 0.888124 0.657023 0.385524
O O7 0.445984 0.830645 0.001668
O O8 0.209828 0.239557 0.304389
O O9 0.157597 0.148999 0.476444
O O10 0.231387 0.964171 0.353214
#
# Coordination Sequence:
#
# PCOD9481396 Si02
#       6
#     8  16   8  16   8  16
#     4   7  12  25  48  81 114 137 168 211 253 314
#     4   9  17  32  56  83 110 143 177 212 262 325
#     4   7  12  25  48  81 114 137 168 211 253 314
#     4  11  20  39  56  76 106 143 178 233 270 320
#     4  10  24  38  54  76 108 136 180 242 286 288
#     4   9  17  32  56  83 110 143 177 212 262 325
#
# _framework density 26.003007
#
# number of rings (size 3 to 8) (size 9 to 14) (size 15 to 20)
#    0.000    2.889    2.222    2.667    0.000    0.889 
#    0.000    7.778    0.000    0.000    0.000    4.667 
#    0.000    0.000    0.000    0.000    0.000    0.000 
#
# Total GULP energy -201287.572013 kJ/mol
# GULP energy per Si atom -5591.321445 kJ/mol
# Density = 2.594382 g / cm^3
# Si number density = 26.003007 Si / 1000 Ang^3
#
#
#
# Elastic Constant Matrix: (Units=GPa)
#
#
# Indices 1 2 3 4 5 6 
#
# 1 136.1098 42.4956 22.7044 0.0000 0.0000 0.0000
# 2 42.4956 127.4906 21.4780 0.0000 0.0000 0.0000
# 3 22.7044 21.4780 82.8941 0.0000 0.0000 0.0000
# 4 0.0000 0.0000 0.0000 24.5985 0.0000 0.0000
# 5 0.0000 0.0000 0.0000 0.0000 -0.3981 0.0000
# 6 0.0000 0.0000 0.0000 0.0000 0.0000 -799.0679
#
#
#
# Elastic Compliance Matrix: (Units=1/GPa)
#
#
# Indices 1 2 3 4 5 6 
#
# 1 0.008411 -0.002526 -0.001649 0.000000 0.000000 0.000000
# 2 -0.002526 0.008960 -0.001630 0.000000 0.000000 0.000000
# 3 -0.001649 -0.001630 0.012938 0.000000 0.000000 0.000000
# 4 0.000000 0.000000 0.000000 0.040653 0.000000 0.000000
# 5 0.000000 0.000000 0.000000 0.000000 -2.512107 0.000000
# 6 0.000000 0.000000 0.000000 0.000000 0.000000 -0.001251
#
#
# Mechanical properties :
#
#
# Convention : Reuss Voigt Hill
#
# Bulk Modulus (GPa) = 53.47884 57.76117 55.62000
# Shear Modulus (GPa) = -2.06223 -137.65240 -69.85732
#
# Velocity S-wave (km/s) = -0.89151 -7.28368 -5.18878
# Velocity P-wave (km/s) = 4.42169 6.96237 3.80284
#
# Compressibility (1/GPa) = 0.01869899
#
# Stress axis : x y z
#
# Youngs Moduli (GPa) = 118.89666 111.60547 77.29404
#
# Poissons Ratio (x) = 0.28187 0.12748
# Poissons Ratio (y) = 0.30029 0.12598
# Poissons Ratio (z) = 0.19609 0.18190
#
# Static dielectric constant tensor:
#      x y z
#    x 2.032990 0.000000 0.000000 
#    y 0.000000 2.049420 0.000000 
#    z 0.000000 0.000000 2.077950 
# 
# From -- ./inp_files/19569.got.cif
#   From: 2010.05.17/outbox.cif.g08.bks.cpg/sg64_10_cif.got.tgz:19569.got - 2010.06.03 16:29:19.
