data_PCOD9481501
_publ_section_title
;
Structure prediction by ZEFSAII (Michael W. Deem and Ramdas Pophale) SiO2 
 PCOD9481501
Probable space group: C M C A
;
_chemical_formula_sum "Si O2"
_cell_formula_units_Z 72
_cell_length_a 8.751166
_cell_length_b 26.437640
_cell_length_c 14.815947
_cell_angle_alpha 90.000000
_cell_angle_beta 90.000000
_cell_angle_gamma 90.000000
_cell_volume 3427.820110
_symmetry_space_group_name_H-M "C M C A"
_symmetry_group_IT_number 64
_symmetry_cell_setting 'orthorhombic'
loop_
_space_group_symop_operation_xyz
x,y,z
-x,1/2-y,1/2+z
x,-y,-z
-x,1/2+y,1/2-z
-x,-y,-z
x,1/2+y,1/2-z
-x,y,z
x,1/2-y,1/2+z
1/2+x,1/2+y,z
1/2-x,-y,1/2+z
1/2+x,1/2-y,-z
1/2-x,y,1/2-z
1/2-x,1/2-y,-z
1/2+x,y,1/2-z
1/2-x,1/2+y,z
1/2+x,-y,1/2+z
loop_
_atom_site_type_symbol
_atom_site_label
_atom_site_fract_x
_atom_site_fract_y
_atom_site_fract_z
Si Si1 0.664089 0.331222 0.587290
Si Si2 0.822012 0.239680 0.654592
Si Si3 0.000000 0.049811 0.124945
Si Si4 0.000000 0.569310 0.587523
Si Si5 0.817478 0.624689 0.898863
Si Si6 0.250000 0.601180 0.250000
O O1 0.500000 0.305805 0.573923
O O2 0.781193 0.285270 0.587850
O O3 0.681138 0.371122 0.507238
O O4 0.667048 0.361673 0.680034
O O5 0.750000 0.252928 0.750000
O O6 0.780249 0.182236 0.630425
O O7 0.000000 0.239139 0.665854
O O8 0.857850 0.068178 0.185575
O O9 0.000000 0.989756 0.112105
O O10 0.000000 0.072941 0.023042
O O11 0.836660 0.592440 0.623509
O O12 0.000000 0.612588 0.872549
#
# Coordination Sequence:
#
# PCOD9481501 Si02
#       6
#    16  16   8   8  16   8
#     4  11  22  37  64  95 130 172 211 269 330 387
#     4  11  24  38  58  95 138 179 222 263 321 398
#     4  11  26  46  69 103 124 172 223 293 346 394
#     4  11  24  48  73  92 134 176 229 276 349 399
#     4  10  24  44  66  98 133 178 221 271 331 402
#     4  12  22  42  64  98 134 156 220 280 328 392
#
# _framework density 21.004602999999999
#
# number of rings (size 3 to 8) (size 9 to 14) (size 15 to 20)
#    0.000    1.111    4.444    1.333    6.222    0.000 
#    4.000    1.111    0.000    0.000    0.000    0.000 
#    0.000    0.000    0.000    0.000    0.000    0.000 
#
# Total GULP energy -200597.924993 kJ/mol
# GULP energy per Si atom -5572.164583 kJ/mol
# Density = 2.095680 g / cm^3
# Si number density = 21.004603 Si / 1000 Ang^3
#
#
#
# Elastic Constant Matrix: (Units=GPa)
#
#
# Indices 1 2 3 4 5 6 
#
# 1 111.0209 71.4041 3.7944 0.0000 0.0000 0.0000
# 2 71.4041 85.4106 2.2872 0.0000 0.0000 0.0000
# 3 3.7944 2.2872 31.4197 0.0000 0.0000 0.0000
# 4 0.0000 0.0000 0.0000 28.6563 0.0000 0.0000
# 5 0.0000 0.0000 0.0000 0.0000 21.1132 0.0000
# 6 0.0000 0.0000 0.0000 0.0000 0.0000 25.0586
#
#
#
# Elastic Compliance Matrix: (Units=1/GPa)
#
#
# Indices 1 2 3 4 5 6 
#
# 1 0.019526 -0.016293 -0.001172 0.000000 0.000000 0.000000
# 2 -0.016293 0.025326 0.000124 0.000000 0.000000 0.000000
# 3 -0.001172 0.000124 0.031960 0.000000 0.000000 0.000000
# 4 0.000000 0.000000 0.000000 0.034896 0.000000 0.000000
# 5 0.000000 0.000000 0.000000 0.000000 0.047364 0.000000
# 6 0.000000 0.000000 0.000000 0.000000 0.000000 0.039906
#
#
# Mechanical properties :
#
#
# Convention : Reuss Voigt Hill
#
# Bulk Modulus (GPa) = 23.73602 42.53585 33.13594
# Shear Modulus (GPa) = 20.18547 24.98998 22.58772
#
# Velocity S-wave (km/s) = 3.10337 3.45300 3.28284
# Velocity P-wave (km/s) = 4.91590 6.01600 5.49356
#
# Compressibility (1/GPa) = 0.04213006
#
# Stress axis : x y z
#
# Youngs Moduli (GPa) = 51.21337 39.48567 31.28941
#
# Poissons Ratio (x) = 0.64333 0.03667
# Poissons Ratio (y) = 0.83440 -0.00388
# Poissons Ratio (z) = 0.06002 -0.00490
#
# Static dielectric constant tensor:
#      x y z
#    x 1.829550 0.000000 0.000000 
#    y 0.000000 1.714320 0.000000 
#    z 0.000000 0.000000 1.804970 
# 
# From -- ./inp_files/29562.got.cif
#   From: 2010.05.17/outbox.cif.g08.bks.cpg/sg64_15_cif.got.tgz:29562.got - 2010.06.03 16:29:19.
