data_PCOD9481961
_publ_section_title
;
Structure prediction by ZEFSAII (Michael W. Deem and Ramdas Pophale) SiO2 
 PCOD9481961
Probable space group: C M C A
;
_chemical_formula_sum "Si O2"
_cell_formula_units_Z 80
_cell_length_a 8.945630
_cell_length_b 14.488505
_cell_length_c 30.692449
_cell_angle_alpha 90.000000
_cell_angle_beta 90.000000
_cell_angle_gamma 90.000000
_cell_volume 3978.011637
_symmetry_space_group_name_H-M "C M C A"
_symmetry_group_IT_number 64
_symmetry_cell_setting 'orthorhombic'
loop_
_space_group_symop_operation_xyz
x,y,z
-x,1/2-y,1/2+z
x,-y,-z
-x,1/2+y,1/2-z
-x,-y,-z
x,1/2+y,1/2-z
-x,y,z
x,1/2-y,1/2+z
1/2+x,1/2+y,z
1/2-x,-y,1/2+z
1/2+x,1/2-y,-z
1/2-x,y,1/2-z
1/2-x,1/2-y,-z
1/2+x,y,1/2-z
1/2-x,1/2+y,z
1/2+x,-y,1/2+z
loop_
_atom_site_type_symbol
_atom_site_label
_atom_site_fract_x
_atom_site_fract_y
_atom_site_fract_z
Si Si1 0.672332 0.378897 0.034925
Si Si2 0.820934 0.539988 0.203580
Si Si3 0.318055 0.588995 0.869872
Si Si4 0.681237 0.800992 0.855603
Si Si5 0.672475 0.843979 0.948086
O O1 0.500000 0.405187 0.031035
O O2 0.732118 0.423391 0.079679
O O3 0.676328 0.267425 0.043458
O O4 0.749559 0.392540 0.988631
O O5 0.750000 0.518163 0.250000
O O6 0.757956 0.475774 0.165297
O O7 0.778557 0.643049 0.187361
O O8 0.000000 0.532611 0.205879
O O9 0.500000 0.580731 0.868816
O O10 0.277497 0.694282 0.857033
O O11 0.500000 0.803242 0.859276
O O12 0.738893 0.851489 0.899548
O O13 0.500000 0.872709 0.947722
#
# Coordination Sequence:
#
# PCOD9481961 Si02
#       5
#    16  16  16  16  16
#     4   8  14  25  45  74 106 137 168 206 251 296
#     4  11  23  39  57  78 103 132 172 221 270 317
#     4   9  18  36  58  79 107 142 176 212 258 309
#     4   8  17  35  57  78 105 141 176 213 259 310
#     4   8  13  25  47  73 101 136 174 207 244 296
#
# _framework density 20.110548999999999
#
# number of rings (size 3 to 8) (size 9 to 14) (size 15 to 20)
#    0.000    3.200    0.000    3.000    0.000    1.600 
#    0.000   10.000    0.000    6.000    0.000    0.000 
#    0.000    0.000    0.000    0.000    0.000    0.000 
#
# Total GULP energy -223038.249010 kJ/mol
# GULP energy per Si atom -5575.956225 kJ/mol
# Density = 2.006478 g / cm^3
# Si number density = 20.110549 Si / 1000 Ang^3
#
#
#
# Elastic Constant Matrix: (Units=GPa)
#
#
# Indices 1 2 3 4 5 6 
#
# 1 32.3893 5.4474 34.5056 0.0000 0.0000 0.0000
# 2 5.4474 53.0810 28.1239 0.0000 0.0000 0.0000
# 3 34.5056 28.1239 127.3879 0.0000 0.0000 0.0000
# 4 0.0000 0.0000 0.0000 33.4597 0.0000 0.0000
# 5 0.0000 0.0000 0.0000 0.0000 30.1339 0.0000
# 6 0.0000 0.0000 0.0000 0.0000 0.0000 11.3761
#
#
#
# Elastic Compliance Matrix: (Units=1/GPa)
#
#
# Indices 1 2 3 4 5 6 
#
# 1 0.043588 0.002018 -0.012252 0.000000 0.000000 0.000000
# 2 0.002018 0.021428 -0.005278 0.000000 0.000000 0.000000
# 3 -0.012252 -0.005278 0.012334 0.000000 0.000000 0.000000
# 4 0.000000 0.000000 0.000000 0.029887 0.000000 0.000000
# 5 0.000000 0.000000 0.000000 0.000000 0.033185 0.000000
# 6 0.000000 0.000000 0.000000 0.000000 0.000000 0.087904
#
#
# Mechanical properties :
#
#
# Convention : Reuss Voigt Hill
#
# Bulk Modulus (GPa) = 21.58557 38.77910 30.18233
# Shear Modulus (GPa) = 18.19568 24.64602 21.42085
#
# Velocity S-wave (km/s) = 3.01122 3.50455 3.26721
# Velocity P-wave (km/s) = 4.77982 5.97500 5.41052
#
# Compressibility (1/GPa) = 0.04632725
#
# Stress axis : x y z
#
# Youngs Moduli (GPa) = 22.94223 46.66749 81.07717
#
# Poissons Ratio (x) = -0.09419 0.99338
# Poissons Ratio (y) = -0.04631 0.42789
# Poissons Ratio (z) = 0.28109 0.24629
#
# Static dielectric constant tensor:
#      x y z
#    x 1.678210 0.000000 0.000000 
#    y 0.000000 1.760100 0.000000 
#    z 0.000000 0.000000 1.720010 
# 
# From -- ./inp_files/51766.got.cif
#   From: 2010.05.17/outbox.cif.g08.bks.cpg/sg64_26_cif.got.tgz:51766.got - 2010.06.03 16:29:19.
