data_PCOD9481937
_publ_section_title
;
Structure prediction by ZEFSAII (Michael W. Deem and Ramdas Pophale) SiO2 
 PCOD9481937
Probable space group: C M C A
;
_chemical_formula_sum "Si O2"
_cell_formula_units_Z 64
_cell_length_a 15.643730
_cell_length_b 13.983627
_cell_length_c 12.443072
_cell_angle_alpha 90.000000
_cell_angle_beta 90.000000
_cell_angle_gamma 90.000000
_cell_volume 2721.997719
_symmetry_space_group_name_H-M "C M C A"
_symmetry_group_IT_number 64
_symmetry_cell_setting 'orthorhombic'
loop_
_space_group_symop_operation_xyz
x,y,z
-x,1/2-y,1/2+z
x,-y,-z
-x,1/2+y,1/2-z
-x,-y,-z
x,1/2+y,1/2-z
-x,y,z
x,1/2-y,1/2+z
1/2+x,1/2+y,z
1/2-x,-y,1/2+z
1/2+x,1/2-y,-z
1/2-x,y,1/2-z
1/2-x,1/2-y,-z
1/2+x,y,1/2-z
1/2-x,1/2+y,z
1/2+x,-y,1/2+z
loop_
_atom_site_type_symbol
_atom_site_label
_atom_site_fract_x
_atom_site_fract_y
_atom_site_fract_z
Si Si1 0.500000 0.091786 0.783072
Si Si2 0.313174 0.846442 0.153609
Si Si3 0.141267 0.645799 0.382259
Si Si4 0.500000 0.317669 0.060614
Si Si5 0.000000 0.626839 0.200964
Si Si6 0.245877 0.000000 0.000000
O O1 0.413036 0.144097 0.816981
O O2 0.500000 0.101432 0.653402
O O3 0.500000 0.984814 0.830661
O O4 0.250000 0.874878 0.250000
O O5 0.296165 0.735552 0.129319
O O6 0.298146 0.915017 0.053344
O O7 0.082768 0.638134 0.277188
O O8 0.188704 0.548022 0.407844
O O9 0.081442 0.668119 0.484654
O O10 0.500000 0.212212 0.114511
#
# Coordination Sequence:
#
# PCOD9481937 Si02
#       6
#     8  16  16   8   8   8
#     4  12  25  46  73 106 149 189 245 306 363 450
#     4  12  27  48  73 109 149 193 248 311 376 437
#     4  11  24  46  70 107 142 193 248 303 374 445
#     4  11  22  44  74 104 141 188 244 307 373 435
#     4  11  23  40  77 101 141 195 233 308 378 432
#     4  12  28  44  70 104 144 204 248 303 366 453
#
# _framework density 23.512143999999999
#
# number of rings (size 3 to 8) (size 9 to 14) (size 15 to 20)
#    0.000    0.500    2.500    6.000    3.500    5.500 
#    0.000    0.000    0.000    0.000    0.000    0.000 
#    0.000    0.000    0.000    0.000    0.000    0.000 
#
# Total GULP energy -179322.444720 kJ/mol
# GULP energy per Si atom -5603.826397 kJ/mol
# Density = 2.345863 g / cm^3
# Si number density = 23.512144 Si / 1000 Ang^3
#
#
#
# Elastic Constant Matrix: (Units=GPa)
#
#
# Indices 1 2 3 4 5 6 
#
# 1 79.9912 14.9456 17.7520 0.0000 0.0000 0.0000
# 2 14.9456 108.5357 -8.9925 0.0000 0.0000 0.0000
# 3 17.7520 -8.9925 32.6016 0.0000 0.0000 0.0000
# 4 0.0000 0.0000 0.0000 43.3945 0.0000 0.0000
# 5 0.0000 0.0000 0.0000 0.0000 -21.0412 0.0000
# 6 0.0000 0.0000 0.0000 0.0000 0.0000 19.6889
#
#
#
# Elastic Compliance Matrix: (Units=1/GPa)
#
#
# Indices 1 2 3 4 5 6 
#
# 1 0.015012 -0.002809 -0.008949 0.000000 0.000000 0.000000
# 2 -0.002809 0.009955 0.004275 0.000000 0.000000 0.000000
# 3 -0.008949 0.004275 0.036725 0.000000 0.000000 0.000000
# 4 0.000000 0.000000 0.000000 0.023044 0.000000 0.000000
# 5 0.000000 0.000000 0.000000 0.000000 -0.047526 0.000000
# 6 0.000000 0.000000 0.000000 0.000000 0.000000 0.050790
#
#
# Mechanical properties :
#
#
# Convention : Reuss Voigt Hill
#
# Bulk Modulus (GPa) = 21.40092 29.83764 25.61928
# Shear Modulus (GPa) = 42.17931 21.57001 31.87466
#
# Velocity S-wave (km/s) = 4.24008 3.03214 3.68593
# Velocity P-wave (km/s) = 5.75264 4.99764 5.38838
#
# Compressibility (1/GPa) = 0.04672696
#
# Stress axis : x y z
#
# Youngs Moduli (GPa) = 66.61265 100.45687 27.22907
#
# Poissons Ratio (x) = 0.28215 0.24367
# Poissons Ratio (y) = 0.18709 -0.11641
# Poissons Ratio (z) = 0.59612 -0.42946
#
# Static dielectric constant tensor:
#      x y z
#    x 1.917250 0.000000 0.000000 
#    y 0.000000 1.874740 0.000000 
#    z 0.000000 0.000000 1.873450 
# 
# From -- ./inp_files/15587.got.cif
#   From: 2010.05.17/outbox.cif.g08.bks.cpg/sg64_8_cif.got.tgz:15587.got - 2010.06.03 16:29:19.
