data_PCOD9481551
_publ_section_title
;
Structure prediction by ZEFSAII (Michael W. Deem and Ramdas Pophale) SiO2 
 PCOD9481551
Probable space group: C M C A
;
_chemical_formula_sum "Si O2"
_cell_formula_units_Z 88
_cell_length_a 23.254827
_cell_length_b 15.800970
_cell_length_c 11.864828
_cell_angle_alpha 90.000000
_cell_angle_beta 90.000000
_cell_angle_gamma 90.000000
_cell_volume 4359.717093
_symmetry_space_group_name_H-M "C M C A"
_symmetry_group_IT_number 64
_symmetry_cell_setting 'orthorhombic'
loop_
_space_group_symop_operation_xyz
x,y,z
-x,1/2-y,1/2+z
x,-y,-z
-x,1/2+y,1/2-z
-x,-y,-z
x,1/2+y,1/2-z
-x,y,z
x,1/2-y,1/2+z
1/2+x,1/2+y,z
1/2-x,-y,1/2+z
1/2+x,1/2-y,-z
1/2-x,y,1/2-z
1/2-x,1/2-y,-z
1/2+x,y,1/2-z
1/2-x,1/2+y,z
1/2+x,-y,1/2+z
loop_
_atom_site_type_symbol
_atom_site_label
_atom_site_fract_x
_atom_site_fract_y
_atom_site_fract_z
Si Si1 0.124815 0.591851 0.843409
Si Si2 0.279831 0.470416 0.630477
Si Si3 0.500000 0.019907 0.870471
Si Si4 0.000000 0.396756 0.499113
Si Si5 0.093915 0.702104 0.643942
Si Si6 0.194317 0.303279 0.968936
Si Si7 0.500000 0.667078 0.255895
O O1 0.154869 0.501394 0.852053
O O2 0.056820 0.575839 0.852177
O O3 0.128628 0.643902 0.730018
O O4 0.162988 0.643334 0.932733
O O5 0.260381 0.500000 0.500000
O O6 0.250000 0.497676 0.750000
O O7 0.282743 0.370216 0.622032
O O8 0.500000 0.928031 0.809383
O O9 0.500000 0.000000 0.000000
O O10 0.000000 0.500000 0.500000
O O11 0.945986 0.359039 0.430842
O O12 0.000000 0.354071 0.622914
O O13 0.142313 0.746857 0.572444
O O14 0.054143 0.774418 0.704251
O O15 0.250000 0.250000 0.000000
#
# Coordination Sequence:
#
# PCOD9481551 Si02
#       7
#    16  16   8   8  16  16   8
#     4  11  24  43  68 101 137 180 239 285 359 436
#     4  10  24  46  71 100 140 183 245 292 358 434
#     4  12  22  42  72  96 132 180 226 289 353 436
#     4  11  24  45  63 103 142 176 232 284 361 428
#     4  11  24  41  69  98 136 183 226 289 359 425
#     4  11  26  44  66 101 136 183 241 300 350 428
#     4  11  22  41  70 101 139 180 228 295 354 430
#
# _framework density 20.184797
#
# number of rings (size 3 to 8) (size 9 to 14) (size 15 to 20)
#    0.000    1.091    0.000    7.091    7.636    2.182 
#    6.545    0.000    0.000    0.000    0.000    0.000 
#    0.000    0.000    0.000    0.000    0.000    0.000 
#
# Total GULP energy -245108.977246 kJ/mol
# GULP energy per Si atom -5570.658574 kJ/mol
# Density = 2.013886 g / cm^3
# Si number density = 20.184797 Si / 1000 Ang^3
#
#
#
# Elastic Constant Matrix: (Units=GPa)
#
#
# Indices 1 2 3 4 5 6 
#
# 1 106.9381 48.4908 30.1464 0.0000 0.0000 0.0000
# 2 48.4908 110.2336 33.8950 0.0000 0.0000 0.0000
# 3 30.1464 33.8950 109.3985 0.0000 0.0000 0.0000
# 4 0.0000 0.0000 0.0000 -5.4789 0.0000 0.0000
# 5 0.0000 0.0000 0.0000 0.0000 72.0493 0.0000
# 6 0.0000 0.0000 0.0000 0.0000 0.0000 8.8847
#
#
#
# Elastic Compliance Matrix: (Units=1/GPa)
#
#
# Indices 1 2 3 4 5 6 
#
# 1 0.012010 -0.004715 -0.001849 0.000000 0.000000 0.000000
# 2 -0.004715 0.011878 -0.002381 0.000000 0.000000 0.000000
# 3 -0.001849 -0.002381 0.010388 0.000000 0.000000 0.000000
# 4 0.000000 0.000000 0.000000 -0.182519 0.000000 0.000000
# 5 0.000000 0.000000 0.000000 0.000000 0.013879 0.000000
# 6 0.000000 0.000000 0.000000 0.000000 0.000000 0.112553
#
#
# Mechanical properties :
#
#
# Convention : Reuss Voigt Hill
#
# Bulk Modulus (GPa) = 61.02346 61.29273 61.15809
# Shear Modulus (GPa) = 3244.20123 29.36022 1636.78072
#
# Velocity S-wave (km/s) = 40.13401 3.81802 28.50716
# Velocity P-wave (km/s) = 46.66851 7.06173 33.37528
#
# Compressibility (1/GPa) = 0.01638714
#
# Stress axis : x y z
#
# Youngs Moduli (GPa) = 83.26202 84.19151 96.26464
#
# Poissons Ratio (x) = 0.39694 0.17798
# Poissons Ratio (y) = 0.39256 0.22919
# Poissons Ratio (z) = 0.15394 0.20045
#
# Static dielectric constant tensor:
#      x y z
#    x 1.712240 0.000000 0.000000 
#    y 0.000000 1.465160 0.000000 
#    z 0.000000 0.000000 1.860150 
# 
# From -- ./inp_files/18266.got.cif
#   From: 2010.05.17/outbox.cif.g08.bks.cpg/sg64_10_cif.got.tgz:18266.got - 2010.06.03 16:29:19.
