data_PCOD9481077
_publ_section_title
;
Structure prediction by ZEFSAII (Michael W. Deem and Ramdas Pophale) SiO2 
 PCOD9481077
Probable space group: C M C A
;
_chemical_formula_sum "Si O2"
_cell_formula_units_Z 80
_cell_length_a 27.252649
_cell_length_b 12.381095
_cell_length_c 11.260794
_cell_angle_alpha 90.000000
_cell_angle_beta 90.000000
_cell_angle_gamma 90.000000
_cell_volume 3799.590494
_symmetry_space_group_name_H-M "C M C A"
_symmetry_group_IT_number 64
_symmetry_cell_setting 'orthorhombic'
loop_
_space_group_symop_operation_xyz
x,y,z
-x,1/2-y,1/2+z
x,-y,-z
-x,1/2+y,1/2-z
-x,-y,-z
x,1/2+y,1/2-z
-x,y,z
x,1/2-y,1/2+z
1/2+x,1/2+y,z
1/2-x,-y,1/2+z
1/2+x,1/2-y,-z
1/2-x,y,1/2-z
1/2-x,1/2-y,-z
1/2+x,y,1/2-z
1/2-x,1/2+y,z
1/2+x,-y,1/2+z
loop_
_atom_site_type_symbol
_atom_site_label
_atom_site_fract_x
_atom_site_fract_y
_atom_site_fract_z
Si Si1 0.805616 0.663938 0.118508
Si Si2 0.056213 0.835852 0.440600
Si Si3 0.805805 0.181945 0.111971
Si Si4 0.903285 0.035698 0.342761
Si Si5 0.591286 0.595794 0.082252
O O1 0.811163 0.722232 0.249521
O O2 0.748541 0.630733 0.110054
O O3 0.847587 0.572937 0.127795
O O4 0.811510 0.733497 0.997356
O O5 0.063859 0.900126 0.562650
O O6 0.073227 0.713607 0.454419
O O7 0.000000 0.839703 0.402107
O O8 0.089712 0.907411 0.353184
O O9 0.849499 0.099249 0.088148
O O10 0.922270 0.073734 0.216858
O O11 0.573546 0.500000 0.000000
#
# Coordination Sequence:
#
# PCOD9481077 Si02
#       5
#    16  16  16  16  16
#     4   9  17  35  64  95 135 178 219 264 327 390
#     4  11  25  45  68  96 128 173 224 276 337 394
#     4   9  18  35  61  98 135 176 220 265 322 396
#     4  10  22  43  69  94 132 172 219 274 333 391
#     4  11  25  43  67  99 134 170 219 274 332 398
#
# _framework density 21.054898999999999
#
# number of rings (size 3 to 8) (size 9 to 14) (size 15 to 20)
#    0.000    2.000    2.000    1.200    2.800    2.000 
#    3.600    0.000    0.000    4.800    0.000    0.000 
#    0.000    0.000    0.000    0.000    0.000    0.000 
#
# Total GULP energy -222891.760362 kJ/mol
# GULP energy per Si atom -5572.294009 kJ/mol
# Density = 2.100698 g / cm^3
# Si number density = 21.054899 Si / 1000 Ang^3
#
#
#
# Elastic Constant Matrix: (Units=GPa)
#
#
# Indices 1 2 3 4 5 6 
#
# 1 93.5641 34.9039 17.5257 0.0000 0.0000 0.0000
# 2 34.9039 125.2785 44.2079 0.0000 0.0000 0.0000
# 3 17.5257 44.2079 104.5851 0.0000 0.0000 0.0000
# 4 0.0000 0.0000 0.0000 23.3805 0.0000 0.0000
# 5 0.0000 0.0000 0.0000 0.0000 -68.0407 0.0000
# 6 0.0000 0.0000 0.0000 0.0000 0.0000 0.3889
#
#
#
# Elastic Compliance Matrix: (Units=1/GPa)
#
#
# Indices 1 2 3 4 5 6 
#
# 1 0.011971 -0.003088 -0.000701 0.000000 0.000000 0.000000
# 2 -0.003088 0.010178 -0.003785 0.000000 0.000000 0.000000
# 3 -0.000701 -0.003785 0.011279 0.000000 0.000000 0.000000
# 4 0.000000 0.000000 0.000000 0.042771 0.000000 0.000000
# 5 0.000000 0.000000 0.000000 0.000000 -0.014697 0.000000
# 6 0.000000 0.000000 0.000000 0.000000 0.000000 2.571495
#
#
# Mechanical properties :
#
#
# Convention : Reuss Voigt Hill
#
# Bulk Modulus (GPa) = 54.70171 57.41142 56.05657
# Shear Modulus (GPa) = 1.88378 6.26508 4.07443
#
# Velocity S-wave (km/s) = 0.94691 1.72686 1.39260
# Velocity P-wave (km/s) = 5.21847 5.59489 5.40995
#
# Compressibility (1/GPa) = 0.01828096
#
# Stress axis : x y z
#
# Youngs Moduli (GPa) = 83.53458 98.24979 88.66157
#
# Poissons Ratio (x) = 0.30340 0.06213
# Poissons Ratio (y) = 0.25795 0.33557
# Poissons Ratio (z) = 0.05854 0.37186
#
# Static dielectric constant tensor:
#      x y z
#    x 1.794050 0.000000 0.000000 
#    y 0.000000 1.771420 0.000000 
#    z 0.000000 0.000000 1.822350 
# 
# From -- ./inp_files/19616.got.cif
#   From: 2010.05.17/outbox.cif.g08.bks.cpg/sg64_10_cif.got.tgz:19616.got - 2010.06.03 16:29:19.
