data_PCOD9481220
_publ_section_title
;
Structure prediction by ZEFSAII (Michael W. Deem and Ramdas Pophale) SiO2 
 PCOD9481220
Probable space group: C M C A
;
_chemical_formula_sum "Si O2"
_cell_formula_units_Z 112
_cell_length_a 15.096276
_cell_length_b 21.267226
_cell_length_c 15.922159
_cell_angle_alpha 90.000000
_cell_angle_beta 90.000000
_cell_angle_gamma 90.000000
_cell_volume 5111.903302
_symmetry_space_group_name_H-M "C M C A"
_symmetry_group_IT_number 64
_symmetry_cell_setting 'orthorhombic'
loop_
_space_group_symop_operation_xyz
x,y,z
-x,1/2-y,1/2+z
x,-y,-z
-x,1/2+y,1/2-z
-x,-y,-z
x,1/2+y,1/2-z
-x,y,z
x,1/2-y,1/2+z
1/2+x,1/2+y,z
1/2-x,-y,1/2+z
1/2+x,1/2-y,-z
1/2-x,y,1/2-z
1/2-x,1/2-y,-z
1/2+x,y,1/2-z
1/2-x,1/2+y,z
1/2+x,-y,1/2+z
loop_
_atom_site_type_symbol
_atom_site_label
_atom_site_fract_x
_atom_site_fract_y
_atom_site_fract_z
Si Si1 0.099233 0.970379 0.082337
Si Si2 0.402018 0.600095 0.180463
Si Si3 0.902564 0.193730 0.623802
Si Si4 0.261426 0.300344 0.850475
Si Si5 0.895005 0.024931 0.341119
Si Si6 0.652594 0.599985 0.754846
Si Si7 0.604360 0.634520 0.446060
O O1 0.092026 0.032124 0.139141
O O2 0.000000 0.949261 0.055449
O O3 0.132830 0.918876 0.148859
O O4 0.145777 0.000000 0.000000
O O5 0.500000 0.629273 0.178307
O O6 0.327520 0.640782 0.137654
O O7 0.378553 0.582292 0.275728
O O8 0.820045 0.241021 0.621334
O O9 0.904148 0.152664 0.708732
O O10 0.891494 0.147396 0.544848
O O11 0.000000 0.224501 0.614476
O O12 0.250000 0.294208 0.750000
O O13 0.171008 0.317024 0.899376
O O14 0.871780 0.061537 0.426018
O O15 0.000000 0.010092 0.340286
O O16 0.849475 0.963324 0.303338
O O17 0.750000 0.626463 0.750000
O O18 0.500000 0.642753 0.420704
#
# Coordination Sequence:
#
# PCOD9481220 Si02
#       7
#    16  16  16  16  16  16  16
#     4   9  19  37  62  91 125 163 208 263 318 377
#     4   9  18  33  58  92 122 159 207 256 315 373
#     4  11  25  45  63  89 130 174 214 265 327 399
#     4  12  23  38  67  89 125 163 220 269 325 379
#     4   9  18  36  62  90 118 158 204 256 314 370
#     4  11  23  38  61  93 132 166 209 256 326 390
#     4  10  23  41  64  94 128 166 219 270 319 383
#
# _framework density 21.909648000000001
#
# number of rings (size 3 to 8) (size 9 to 14) (size 15 to 20)
#    0.000    1.857    1.429    3.429    4.000    2.286 
#    0.000    3.571    0.000    1.714    0.000    0.000 
#    0.000    0.000    0.000    0.000    0.000    0.000 
#
# Total GULP energy -312117.208968 kJ/mol
# GULP energy per Si atom -5573.521589 kJ/mol
# Density = 2.185978 g / cm^3
# Si number density = 21.909648 Si / 1000 Ang^3
#
#
#
# Elastic Constant Matrix: (Units=GPa)
#
#
# Indices 1 2 3 4 5 6 
#
# 1 90.8688 12.6113 10.6842 0.0000 0.0000 0.0000
# 2 12.6113 31.1282 -6.5157 0.0000 0.0000 0.0000
# 3 10.6842 -6.5157 58.0131 0.0000 0.0000 0.0000
# 4 0.0000 0.0000 0.0000 12.9776 0.0000 0.0000
# 5 0.0000 0.0000 0.0000 0.0000 18.8623 0.0000
# 6 0.0000 0.0000 0.0000 0.0000 0.0000 27.4243
#
#
#
# Elastic Compliance Matrix: (Units=1/GPa)
#
#
# Indices 1 2 3 4 5 6 
#
# 1 0.012103 -0.005499 -0.002847 0.000000 0.000000 0.000000
# 2 -0.005499 0.035397 0.004988 0.000000 0.000000 0.000000
# 3 -0.002847 0.004988 0.018322 0.000000 0.000000 0.000000
# 4 0.000000 0.000000 0.000000 0.077056 0.000000 0.000000
# 5 0.000000 0.000000 0.000000 0.000000 0.053016 0.000000
# 6 0.000000 0.000000 0.000000 0.000000 0.000000 0.036464
#
#
# Mechanical properties :
#
#
# Convention : Reuss Voigt Hill
#
# Bulk Modulus (GPa) = 16.91836 23.72997 20.32417
# Shear Modulus (GPa) = 19.32179 22.73486 21.02833
#
# Velocity S-wave (km/s) = 2.97288 3.22477 3.10138
# Velocity P-wave (km/s) = 4.41844 4.97191 4.70333
#
# Compressibility (1/GPa) = 0.05910739
#
# Stress axis : x y z
#
# Youngs Moduli (GPa) = 82.62567 28.25070 54.57919
#
# Poissons Ratio (x) = 0.15536 0.15536
# Poissons Ratio (y) = 0.45437 -0.27226
# Poissons Ratio (z) = 0.23520 -0.14093
#
# Static dielectric constant tensor:
#      x y z
#    x 1.823170 0.000000 0.000000 
#    y 0.000000 1.796550 0.000000 
#    z 0.000000 0.000000 1.939190 
# 
# From -- ./inp_files/24263.got.cif
#   From: 2010.05.17/outbox.cif.g08.bks.cpg/sg64_13_cif.got.tgz:24263.got - 2010.06.03 16:29:19.
