data_PCOD9481582
_publ_section_title
;
Structure prediction by ZEFSAII (Michael W. Deem and Ramdas Pophale) SiO2 
 PCOD9481582
Probable space group: C M C A
;
_chemical_formula_sum "Si O2"
_cell_formula_units_Z 104
_cell_length_a 26.396138
_cell_length_b 8.987410
_cell_length_c 21.167803
_cell_angle_alpha 90.000000
_cell_angle_beta 90.000000
_cell_angle_gamma 90.000000
_cell_volume 5021.699602
_symmetry_space_group_name_H-M "C M C A"
_symmetry_group_IT_number 64
_symmetry_cell_setting 'orthorhombic'
loop_
_space_group_symop_operation_xyz
x,y,z
-x,1/2-y,1/2+z
x,-y,-z
-x,1/2+y,1/2-z
-x,-y,-z
x,1/2+y,1/2-z
-x,y,z
x,1/2-y,1/2+z
1/2+x,1/2+y,z
1/2-x,-y,1/2+z
1/2+x,1/2-y,-z
1/2-x,y,1/2-z
1/2-x,1/2-y,-z
1/2+x,y,1/2-z
1/2-x,1/2+y,z
1/2+x,-y,1/2+z
loop_
_atom_site_type_symbol
_atom_site_label
_atom_site_fract_x
_atom_site_fract_y
_atom_site_fract_z
Si Si1 0.500000 0.295122 0.535174
Si Si2 0.944452 0.420605 0.333700
Si Si3 0.105297 0.367836 0.450092
Si Si4 0.000000 0.886221 0.394606
Si Si5 0.612051 0.358368 0.339015
Si Si6 0.757984 0.500000 0.500000
Si Si7 0.594001 0.639742 0.269337
Si Si8 0.320492 0.741004 0.542888
O O1 0.552750 0.219580 0.551484
O O2 0.500000 0.292146 0.458894
O O3 0.500000 0.450097 0.573283
O O4 0.896669 0.438954 0.380618
O O5 0.937404 0.528807 0.274758
O O6 0.940496 0.252478 0.308719
O O7 0.000000 0.454600 0.360828
O O8 0.102065 0.500000 0.500000
O O9 0.148242 0.258780 0.476852
O O10 0.051696 0.857410 0.356146
O O11 0.623348 0.527702 0.316327
O O12 0.622586 0.247789 0.280209
O O13 0.642304 0.304679 0.400712
O O14 0.722326 0.383549 0.464266
O O15 0.792967 0.401537 0.546532
#
# Coordination Sequence:
#
# PCOD9481582 Si02
#       8
#     8  16  16   8  16   8  16  16
#     4  11  23  36  50 102 134 172 221 250 334 392
#     4  11  23  36  57  86 133 179 227 258 302 373
#     4  12  23  37  63  96 135 169 214 267 339 394
#     4  11  24  34  60  92 135 185 217 268 304 391
#     4  11  24  41  66  91 141 173 225 262 319 377
#     4  10  26  46  72 104 122 154 212 268 376 414
#     4  10  25  39  56  91 124 192 224 260 297 379
#     4  11  24  46  71 101 126 163 205 289 344 411
#
# _framework density 20.71012
#
# number of rings (size 3 to 8) (size 9 to 14) (size 15 to 20)
#    0.000    1.077    3.077    2.538   10.769    0.000 
#    0.000    0.000    0.000    2.769    0.000    0.000 
#    0.000    0.000    0.000    0.000    0.000    0.000 
#
# Total GULP energy -290174.336692 kJ/mol
# GULP energy per Si atom -5580.275706 kJ/mol
# Density = 2.066298 g / cm^3
# Si number density = 20.710120 Si / 1000 Ang^3
#
#
#
# Elastic Constant Matrix: (Units=GPa)
#
#
# Indices 1 2 3 4 5 6 
#
# 1 88.2212 30.0819 27.7014 0.0000 0.0000 0.0000
# 2 30.0819 106.1343 26.1368 0.0000 0.0000 0.0000
# 3 27.7014 26.1368 99.0778 0.0000 0.0000 0.0000
# 4 0.0000 0.0000 0.0000 35.1804 0.0000 0.0000
# 5 0.0000 0.0000 0.0000 0.0000 7.3999 0.0000
# 6 0.0000 0.0000 0.0000 0.0000 0.0000 9.9542
#
#
#
# Elastic Compliance Matrix: (Units=1/GPa)
#
#
# Indices 1 2 3 4 5 6 
#
# 1 0.013289 -0.003050 -0.002911 0.000000 0.000000 0.000000
# 2 -0.003050 0.010777 -0.001990 0.000000 0.000000 0.000000
# 3 -0.002911 -0.001990 0.011432 0.000000 0.000000 0.000000
# 4 0.000000 0.000000 0.000000 0.028425 0.000000 0.000000
# 5 0.000000 0.000000 0.000000 0.000000 0.135137 0.000000
# 6 0.000000 0.000000 0.000000 0.000000 0.000000 0.100460
#
#
# Mechanical properties :
#
#
# Convention : Reuss Voigt Hill
#
# Bulk Modulus (GPa) = 51.03133 51.25264 51.14198
# Shear Modulus (GPa) = 15.53019 24.47445 20.00232
#
# Velocity S-wave (km/s) = 2.74137 3.44141 3.11114
# Velocity P-wave (km/s) = 5.89189 6.37122 6.13624
#
# Compressibility (1/GPa) = 0.01959580
#
# Stress axis : x y z
#
# Youngs Moduli (GPa) = 75.24971 92.79440 87.47383
#
# Poissons Ratio (x) = 0.28299 0.25464
# Poissons Ratio (y) = 0.22949 0.17409
# Poissons Ratio (z) = 0.21905 0.18468
#
# Static dielectric constant tensor:
#      x y z
#    x 1.717710 0.000000 0.000000 
#    y 0.000000 1.807180 0.000000 
#    z 0.000000 0.000000 1.820090 
# 
# From -- ./inp_files/42093.got.cif
#   From: 2010.05.17/outbox.cif.g08.bks.cpg/sg64_22_cif.got.tgz:42093.got - 2010.06.03 16:29:19.
