data_PCOD9481769
_publ_section_title
;
Structure prediction by ZEFSAII (Michael W. Deem and Ramdas Pophale) SiO2 
 PCOD9481769
Probable space group: C M C A
;
_chemical_formula_sum "Si O2"
_cell_formula_units_Z 96
_cell_length_a 7.962312
_cell_length_b 31.187634
_cell_length_c 19.866677
_cell_angle_alpha 90.000000
_cell_angle_beta 90.000000
_cell_angle_gamma 90.000000
_cell_volume 4933.405925
_symmetry_space_group_name_H-M "C M C A"
_symmetry_group_IT_number 64
_symmetry_cell_setting 'orthorhombic'
loop_
_space_group_symop_operation_xyz
x,y,z
-x,1/2-y,1/2+z
x,-y,-z
-x,1/2+y,1/2-z
-x,-y,-z
x,1/2+y,1/2-z
-x,y,z
x,1/2-y,1/2+z
1/2+x,1/2+y,z
1/2-x,-y,1/2+z
1/2+x,1/2-y,-z
1/2-x,y,1/2-z
1/2-x,1/2-y,-z
1/2+x,y,1/2-z
1/2-x,1/2+y,z
1/2+x,-y,1/2+z
loop_
_atom_site_type_symbol
_atom_site_label
_atom_site_fract_x
_atom_site_fract_y
_atom_site_fract_z
Si Si1 0.202463 0.532691 0.673423
Si Si2 0.205884 0.866965 0.936061
Si Si3 0.300818 0.195747 0.672415
Si Si4 0.794127 0.613500 0.588558
Si Si5 0.300133 0.230203 0.428122
Si Si6 0.297411 0.935587 0.673540
O O1 0.250000 0.543985 0.750000
O O2 0.262258 0.569146 0.622368
O O3 0.263788 0.484232 0.659995
O O4 0.000000 0.531808 0.669590
O O5 0.264284 0.818468 0.922069
O O6 0.263201 0.900932 0.880323
O O7 0.000000 0.866815 0.935043
O O8 0.256723 0.880440 0.011306
O O9 0.500000 0.192316 0.670194
O O10 0.250000 0.196897 0.750000
O O11 0.234185 0.153838 0.633035
O O12 0.253146 0.238144 0.631242
O O13 0.000000 0.613592 0.589291
O O14 0.500000 0.227771 0.427316
O O15 0.250000 0.250000 0.500000
O O16 0.500000 0.936508 0.669645
O O17 0.250000 0.924465 0.750000
#
# Coordination Sequence:
#
# PCOD9481769 Si02
#       6
#    16  16  16  16  16  16
#     4   9  17  30  51  76 103 137 173 212 259 312
#     4   9  18  33  54  78 104 135 172 219 267 313
#     4  11  22  37  56  81 111 143 180 225 270 320
#     4   9  17  31  52  78 107 136 172 217 264 313
#     4  11  21  37  58  79 107 144 181 223 273 325
#     4   9  18  33  53  76 103 136 174 215 261 311
#
# _framework density 19.459173
#
# number of rings (size 3 to 8) (size 9 to 14) (size 15 to 20)
#    0.000    2.333    1.667    1.500    0.000    1.333 
#    0.000    7.500    0.000    0.000    0.000    4.667 
#    0.000    0.000    0.000    0.000    0.000    0.000 
#
# Total GULP energy -267934.010692 kJ/mol
# GULP energy per Si atom -5581.958556 kJ/mol
# Density = 1.941488 g / cm^3
# Si number density = 19.459173 Si / 1000 Ang^3
#
#
#
# Elastic Constant Matrix: (Units=GPa)
#
#
# Indices 1 2 3 4 5 6 
#
# 1 19.0891 11.3329 9.1836 0.0000 0.0000 0.0000
# 2 11.3329 193.9745 147.8271 0.0000 0.0000 0.0000
# 3 9.1836 147.8271 194.9910 0.0000 0.0000 0.0000
# 4 0.0000 0.0000 0.0000 46.0643 0.0000 0.0000
# 5 0.0000 0.0000 0.0000 0.0000 28.5644 0.0000
# 6 0.0000 0.0000 0.0000 0.0000 0.0000 15.5114
#
#
#
# Elastic Compliance Matrix: (Units=1/GPa)
#
#
# Indices 1 2 3 4 5 6 
#
# 1 0.054279 -0.002896 -0.000361 0.000000 0.000000 0.000000
# 2 -0.002896 0.012364 -0.009237 0.000000 0.000000 0.000000
# 3 -0.000361 -0.009237 0.012148 0.000000 0.000000 0.000000
# 4 0.000000 0.000000 0.000000 0.021709 0.000000 0.000000
# 5 0.000000 0.000000 0.000000 0.000000 0.035009 0.000000
# 6 0.000000 0.000000 0.000000 0.000000 0.000000 0.064469
#
#
# Mechanical properties :
#
#
# Convention : Reuss Voigt Hill
#
# Bulk Modulus (GPa) = 18.58629 82.74909 50.66769
# Shear Modulus (GPa) = 20.58461 34.00876 27.29669
#
# Velocity S-wave (km/s) = 3.25597 4.18508 3.74942
# Velocity P-wave (km/s) = 4.86901 8.12219 6.69617
#
# Compressibility (1/GPa) = 0.05380309
#
# Stress axis : x y z
#
# Youngs Moduli (GPa) = 18.42338 80.87951 82.31636
#
# Poissons Ratio (x) = 0.23427 0.02968
# Poissons Ratio (y) = 0.05336 0.76036
# Poissons Ratio (z) = 0.00664 0.74709
#
# Static dielectric constant tensor:
#      x y z
#    x 1.491640 0.000000 0.000000 
#    y 0.000000 1.686810 0.000000 
#    z 0.000000 0.000000 1.628570 
# 
# From -- ./inp_files/31162.got.cif
#   From: 2010.05.17/outbox.cif.g08.bks.cpg/sg64_16_cif.got.tgz:31162.got - 2010.06.03 16:29:19.
