data_PCOD9481849
_publ_section_title
;
Structure prediction by ZEFSAII (Michael W. Deem and Ramdas Pophale) SiO2 
 PCOD9481849
Probable space group: C M C A
;
_chemical_formula_sum "Si O2"
_cell_formula_units_Z 56
_cell_length_a 15.965286
_cell_length_b 32.523633
_cell_length_c 4.778365
_cell_angle_alpha 90.000000
_cell_angle_beta 90.000000
_cell_angle_gamma 90.000000
_cell_volume 2481.161738
_symmetry_space_group_name_H-M "C M C A"
_symmetry_group_IT_number 64
_symmetry_cell_setting 'orthorhombic'
loop_
_space_group_symop_operation_xyz
x,y,z
-x,1/2-y,1/2+z
x,-y,-z
-x,1/2+y,1/2-z
-x,-y,-z
x,1/2+y,1/2-z
-x,y,z
x,1/2-y,1/2+z
1/2+x,1/2+y,z
1/2-x,-y,1/2+z
1/2+x,1/2-y,-z
1/2-x,y,1/2-z
1/2-x,1/2-y,-z
1/2+x,y,1/2-z
1/2-x,1/2+y,z
1/2+x,-y,1/2+z
loop_
_atom_site_type_symbol
_atom_site_label
_atom_site_fract_x
_atom_site_fract_y
_atom_site_fract_z
Si Si1 0.398114 0.275308 0.224625
Si Si2 0.095946 0.357005 0.963672
Si Si3 0.250000 0.472104 0.750000
Si Si4 0.832650 0.600560 0.564906
O O1 0.500000 0.277286 0.222631
O O2 0.372279 0.263534 0.914533
O O3 0.370926 0.317423 0.367029
O O4 0.147152 0.368834 0.689113
O O5 0.000000 0.349032 0.876176
O O6 0.098489 0.393537 0.194209
O O7 0.286159 0.500000 0.500000
O O8 0.183947 0.442518 0.591857
O O9 0.750000 0.608811 0.750000
#
# Coordination Sequence:
#
# PCOD9481849 Si02
#       4
#    16  16   8  16
#     4   9  17  31  52  82 117 160 210 252 288 338
#     4  11  22  37  63  94 127 160 204 260 306 349
#     4  12  22  42  70  94 110 152 210 250 282 368
#     4  12  22  41  63  95 120 161 200 252 298 370
#
# _framework density 22.570070000000001
#
# number of rings (size 3 to 8) (size 9 to 14) (size 15 to 20)
#    0.000    1.143    4.286    2.571    0.000    4.571 
#    0.000    0.000    0.000   34.286    0.000    0.000 
#    0.000    0.000    0.000    0.000    0.000    0.000 
#
# Total GULP energy -156273.496753 kJ/mol
# GULP energy per Si atom -5581.196313 kJ/mol
# Density = 2.251870 g / cm^3
# Si number density = 22.570070 Si / 1000 Ang^3
#
#
#
# Elastic Constant Matrix: (Units=GPa)
#
#
# Indices 1 2 3 4 5 6 
#
# 1 36.7038 16.8157 12.6945 0.0000 0.0000 0.0000
# 2 16.8157 91.8859 44.0853 0.0000 0.0000 0.0000
# 3 12.6945 44.0853 162.1821 0.0000 0.0000 0.0000
# 4 0.0000 0.0000 0.0000 69.0089 0.0000 0.0000
# 5 0.0000 0.0000 0.0000 0.0000 34.8576 0.0000
# 6 0.0000 0.0000 0.0000 0.0000 0.0000 15.6102
#
#
#
# Elastic Compliance Matrix: (Units=1/GPa)
#
#
# Indices 1 2 3 4 5 6 
#
# 1 0.029873 -0.004997 -0.000980 0.000000 0.000000 0.000000
# 2 -0.004997 0.013351 -0.003238 0.000000 0.000000 0.000000
# 3 -0.000980 -0.003238 0.007123 0.000000 0.000000 0.000000
# 4 0.000000 0.000000 0.000000 0.014491 0.000000 0.000000
# 5 0.000000 0.000000 0.000000 0.000000 0.028688 0.000000
# 6 0.000000 0.000000 0.000000 0.000000 0.000000 0.064061
#
#
# Mechanical properties :
#
#
# Convention : Reuss Voigt Hill
#
# Bulk Modulus (GPa) = 31.33078 48.66253 39.99666
# Shear Modulus (GPa) = 26.78723 38.37375 32.58049
#
# Velocity S-wave (km/s) = 3.44880 4.12783 3.80350
# Velocity P-wave (km/s) = 5.45625 6.65778 6.08674
#
# Compressibility (1/GPa) = 0.03191749
#
# Stress axis : x y z
#
# Youngs Moduli (GPa) = 33.47460 74.90026 140.39416
#
# Poissons Ratio (x) = 0.37426 0.13759
# Poissons Ratio (y) = 0.16727 0.45460
# Poissons Ratio (z) = 0.03281 0.24253
#
# Static dielectric constant tensor:
#      x y z
#    x 1.866570 0.000000 0.000000 
#    y 0.000000 1.917060 0.000000 
#    z 0.000000 0.000000 1.817340 
# 
# From -- ./inp_files/870.got.cif
#   From: 2010.05.17/outbox.cif.g08.bks.cpg/sg64_1_cif.got.tgz:870.got - 2010.06.03 16:29:19.
