data_PCOD9481238
_publ_section_title
;
Structure prediction by ZEFSAII (Michael W. Deem and Ramdas Pophale) SiO2 
 PCOD9481238
Probable space group: C M C A
;
_chemical_formula_sum "Si O2"
_cell_formula_units_Z 72
_cell_length_a 17.155003
_cell_length_b 25.643514
_cell_length_c 7.563571
_cell_angle_alpha 90.000000
_cell_angle_beta 90.000000
_cell_angle_gamma 90.000000
_cell_volume 3327.325005
_symmetry_space_group_name_H-M "C M C A"
_symmetry_group_IT_number 64
_symmetry_cell_setting 'orthorhombic'
loop_
_space_group_symop_operation_xyz
x,y,z
-x,1/2-y,1/2+z
x,-y,-z
-x,1/2+y,1/2-z
-x,-y,-z
x,1/2+y,1/2-z
-x,y,z
x,1/2-y,1/2+z
1/2+x,1/2+y,z
1/2-x,-y,1/2+z
1/2+x,1/2-y,-z
1/2-x,y,1/2-z
1/2-x,1/2-y,-z
1/2+x,y,1/2-z
1/2-x,1/2+y,z
1/2+x,-y,1/2+z
loop_
_atom_site_type_symbol
_atom_site_label
_atom_site_fract_x
_atom_site_fract_y
_atom_site_fract_z
Si Si1 0.734742 0.809764 0.542431
Si Si2 0.218466 0.000000 0.000000
Si Si3 0.084727 0.542698 0.708559
Si Si4 0.662951 0.404220 0.525506
Si Si5 0.088035 0.628081 0.399461
O O1 0.750000 0.815806 0.750000
O O2 0.750000 0.750000 0.500000
O O3 0.794529 0.851370 0.457736
O O4 0.646276 0.828802 0.519800
O O5 0.159867 0.992045 0.165632
O O6 0.269900 0.948418 0.973140
O O7 0.100165 0.573961 0.887646
O O8 0.084559 0.582384 0.544181
O O9 0.000000 0.515823 0.715659
O O10 0.624092 0.392462 0.714763
O O11 0.000000 0.647079 0.369439
#
# Coordination Sequence:
#
# PCOD9481238 Si02
#       5
#    16   8  16  16  16
#     4  10  23  41  69  97 128 175 226 278 336 405
#     4  12  25  40  67 102 136 178 230 276 335 412
#     4  11  25  42  66  96 134 177 220 278 337 398
#     4  11  25  43  67  96 134 180 228 276 335 410
#     4  10  23  45  66  97 136 170 223 280 333 397
#
# _framework density 21.639002999999999
#
# number of rings (size 3 to 8) (size 9 to 14) (size 15 to 20)
#    0.000    1.333    2.222    1.667    9.333    0.000 
#    0.000    6.667    0.000    0.000    0.000    0.000 
#    0.000    0.000    0.000    0.000    0.000    0.000 
#
# Total GULP energy -201356.892491 kJ/mol
# GULP energy per Si atom -5593.247014 kJ/mol
# Density = 2.158975 g / cm^3
# Si number density = 21.639003 Si / 1000 Ang^3
#
#
#
# Elastic Constant Matrix: (Units=GPa)
#
#
# Indices 1 2 3 4 5 6 
#
# 1 156.9430 46.0706 22.3240 0.0000 0.0000 0.0000
# 2 46.0706 103.8958 4.2832 0.0000 0.0000 0.0000
# 3 22.3240 4.2832 80.8585 0.0000 0.0000 0.0000
# 4 0.0000 0.0000 0.0000 33.8821 0.0000 0.0000
# 5 0.0000 0.0000 0.0000 0.0000 28.4921 0.0000
# 6 0.0000 0.0000 0.0000 0.0000 0.0000 20.4547
#
#
#
# Elastic Compliance Matrix: (Units=1/GPa)
#
#
# Indices 1 2 3 4 5 6 
#
# 1 0.007614 -0.003297 -0.001927 0.000000 0.000000 0.000000
# 2 -0.003297 0.011074 0.000324 0.000000 0.000000 0.000000
# 3 -0.001927 0.000324 0.012882 0.000000 0.000000 0.000000
# 4 0.000000 0.000000 0.000000 0.029514 0.000000 0.000000
# 5 0.000000 0.000000 0.000000 0.000000 0.035097 0.000000
# 6 0.000000 0.000000 0.000000 0.000000 0.000000 0.048888
#
#
# Mechanical properties :
#
#
# Convention : Reuss Voigt Hill
#
# Bulk Modulus (GPa) = 45.93797 54.11698 50.02748
# Shear Modulus (GPa) = 30.84011 34.50042 32.67026
#
# Velocity S-wave (km/s) = 3.77929 3.99728 3.88981
# Velocity P-wave (km/s) = 6.34975 6.80938 6.58358
#
# Compressibility (1/GPa) = 0.02176849
#
# Stress axis : x y z
#
# Youngs Moduli (GPa) = 131.34339 90.30545 77.62609
#
# Poissons Ratio (x) = 0.29771 0.14962
# Poissons Ratio (y) = 0.43299 -0.02512
# Poissons Ratio (z) = 0.25315 -0.02922
#
# Static dielectric constant tensor:
#      x y z
#    x 1.839950 0.000000 0.000000 
#    y 0.000000 1.862850 0.000000 
#    z 0.000000 0.000000 1.822220 
# 
# From -- ./inp_files/6883.got.cif
#   From: 2010.05.17/outbox.cif.g08.bks.cpg/sg64_4_cif.got.tgz:6883.got - 2010.06.03 16:29:19.
