data_PCOD9481030
_publ_section_title
;
Structure prediction by ZEFSAII (Michael W. Deem and Ramdas Pophale) SiO2 
 PCOD9481030
Probable space group: C M C A
;
_chemical_formula_sum "Si O2"
_cell_formula_units_Z 72
_cell_length_a 27.454298
_cell_length_b 12.807291
_cell_length_c 8.843659
_cell_angle_alpha 90.000000
_cell_angle_beta 90.000000
_cell_angle_gamma 90.000000
_cell_volume 3109.564784
_symmetry_space_group_name_H-M "C M C A"
_symmetry_group_IT_number 64
_symmetry_cell_setting 'orthorhombic'
loop_
_space_group_symop_operation_xyz
x,y,z
-x,1/2-y,1/2+z
x,-y,-z
-x,1/2+y,1/2-z
-x,-y,-z
x,1/2+y,1/2-z
-x,y,z
x,1/2-y,1/2+z
1/2+x,1/2+y,z
1/2-x,-y,1/2+z
1/2+x,1/2-y,-z
1/2-x,y,1/2-z
1/2-x,1/2-y,-z
1/2+x,y,1/2-z
1/2-x,1/2+y,z
1/2+x,-y,1/2+z
loop_
_atom_site_type_symbol
_atom_site_label
_atom_site_fract_x
_atom_site_fract_y
_atom_site_fract_z
Si Si1 0.000000 0.024297 0.246070
Si Si2 0.919675 0.500000 0.000000
Si Si3 0.000000 0.677132 0.530206
Si Si4 0.334801 0.322675 0.850851
Si Si5 0.603016 0.211425 0.072458
Si Si6 0.718593 0.500000 0.000000
Si Si7 0.750000 0.836465 0.250000
O O1 0.046083 0.021755 0.356688
O O2 0.000000 0.122753 0.134299
O O3 0.000000 0.918813 0.147640
O O4 0.890831 0.394054 0.025422
O O5 0.951332 0.744758 0.554135
O O6 0.380621 0.317983 0.739478
O O7 0.312071 0.436015 0.875102
O O8 0.294468 0.241821 0.790717
O O9 0.357720 0.292183 0.010989
O O10 0.744786 0.410914 0.101394
#
# Coordination Sequence:
#
# PCOD9481030 Si02
#       7
#     8   8   8  16  16   8   8
#     4  10  22  42  70  96 141 197 260 306 382 434
#     4  11  24  39  66 105 140 198 249 312 377 441
#     4  11  24  47  70 103 149 202 248 319 369 447
#     4  12  28  50  74 116 151 200 255 320 387 472
#     4  12  27  45  74 106 155 197 258 315 381 459
#     4  12  28  49  88 112 152 201 251 318 409 470
#     4  12  28  54  80 116 154 194 254 330 398 472
#
# _framework density 23.154366
#
# number of rings (size 3 to 8) (size 9 to 14) (size 15 to 20)
#    0.000    0.444    2.222    5.333    6.222    6.222 
#    0.000    0.000    0.000    0.667    0.000    0.000 
#    0.000    0.000    0.000    0.000    0.000    0.000 
#
# Total GULP energy -201444.253375 kJ/mol
# GULP energy per Si atom -5595.673705 kJ/mol
# Density = 2.310167 g / cm^3
# Si number density = 23.154366 Si / 1000 Ang^3
#
#
#
# Elastic Constant Matrix: (Units=GPa)
#
#
# Indices 1 2 3 4 5 6 
#
# 1 99.3728 51.0846 27.3629 0.0000 0.0000 0.0000
# 2 51.0846 137.5417 24.4874 0.0000 0.0000 0.0000
# 3 27.3629 24.4874 108.6925 0.0000 0.0000 0.0000
# 4 0.0000 0.0000 0.0000 37.1325 0.0000 0.0000
# 5 0.0000 0.0000 0.0000 0.0000 22.8847 0.0000
# 6 0.0000 0.0000 0.0000 0.0000 0.0000 24.0517
#
#
#
# Elastic Compliance Matrix: (Units=1/GPa)
#
#
# Indices 1 2 3 4 5 6 
#
# 1 0.012953 -0.004407 -0.002268 0.000000 0.000000 0.000000
# 2 -0.004407 0.009074 -0.000935 0.000000 0.000000 0.000000
# 3 -0.002268 -0.000935 0.009982 0.000000 0.000000 0.000000
# 4 0.000000 0.000000 0.000000 0.026931 0.000000 0.000000
# 5 0.000000 0.000000 0.000000 0.000000 0.043697 0.000000
# 6 0.000000 0.000000 0.000000 0.000000 0.000000 0.041577
#
#
# Mechanical properties :
#
#
# Convention : Reuss Voigt Hill
#
# Bulk Modulus (GPa) = 59.56302 61.27520 60.41911
# Shear Modulus (GPa) = 30.29751 32.99192 31.64471
#
# Velocity S-wave (km/s) = 3.62124 3.77884 3.70088
# Velocity P-wave (km/s) = 6.57759 6.74987 6.66429
#
# Compressibility (1/GPa) = 0.01678894
#
# Stress axis : x y z
#
# Youngs Moduli (GPa) = 77.20076 110.20707 100.18207
#
# Poissons Ratio (x) = 0.48570 0.22722
# Poissons Ratio (y) = 0.34024 0.09365
# Poissons Ratio (z) = 0.17509 0.10302
#
# Static dielectric constant tensor:
#      x y z
#    x 1.826350 0.000000 0.000000 
#    y 0.000000 1.937120 0.000000 
#    z 0.000000 0.000000 1.908800 
# 
# From -- ./inp_files/10074.got.cif
#   From: 2010.05.17/outbox.cif.g08.bks.cpg/sg64_6_cif.got.tgz:10074.got - 2010.06.03 16:29:19.
