data_PCOD9481287
_publ_section_title
;
Structure prediction by ZEFSAII (Michael W. Deem and Ramdas Pophale) SiO2 
 PCOD9481287
Probable space group: C M C A
;
_chemical_formula_sum "Si O2"
_cell_formula_units_Z 116
_cell_length_a 14.895419
_cell_length_b 15.915952
_cell_length_c 23.467731
_cell_angle_alpha 90.000000
_cell_angle_beta 90.000000
_cell_angle_gamma 90.000000
_cell_volume 5563.607019
_symmetry_space_group_name_H-M "C M C A"
_symmetry_group_IT_number 64
_symmetry_cell_setting 'orthorhombic'
loop_
_space_group_symop_operation_xyz
x,y,z
-x,1/2-y,1/2+z
x,-y,-z
-x,1/2+y,1/2-z
-x,-y,-z
x,1/2+y,1/2-z
-x,y,z
x,1/2-y,1/2+z
1/2+x,1/2+y,z
1/2-x,-y,1/2+z
1/2+x,1/2-y,-z
1/2-x,y,1/2-z
1/2-x,1/2-y,-z
1/2+x,y,1/2-z
1/2-x,1/2+y,z
1/2+x,-y,1/2+z
loop_
_atom_site_type_symbol
_atom_site_label
_atom_site_fract_x
_atom_site_fract_y
_atom_site_fract_z
Si Si1 0.000000 0.000000 0.000000
Si Si2 0.305008 0.167393 0.019276
Si Si3 0.098702 0.459939 0.817743
Si Si4 0.188661 0.586283 0.902266
Si Si5 0.403117 0.777039 0.872063
Si Si6 0.334386 0.459391 0.918991
Si Si7 0.774615 0.716518 0.810260
Si Si8 0.890682 0.385576 0.702198
O O1 0.078837 0.036529 0.042194
O O2 0.379347 0.200659 0.063017
O O3 0.238351 0.104082 0.052883
O O4 0.250000 0.250000 0.000000
O O5 0.342640 0.118751 0.963886
O O6 0.146091 0.508470 0.868656
O O7 0.091168 0.364927 0.839289
O O8 0.136934 0.446853 0.754428
O O9 0.000000 0.498399 0.811115
O O10 0.289368 0.551818 0.913831
O O11 0.176166 0.659639 0.856391
O O12 0.500000 0.733275 0.867729
O O13 0.318858 0.734115 0.842421
O O14 0.362243 0.427070 0.856994
O O15 0.750000 0.674640 0.750000
O O16 0.834300 0.798575 0.795526
O O17 0.000000 0.372878 0.705563
#
# Coordination Sequence:
#
# PCOD9481287 Si02
#       8
#     4  16  16  16  16  16  16  16
#     4  12  24  44  68 104 134 176 222 282 344 408
#     4  12  23  45  67  98 136 181 230 281 340 413
#     4  10  23  42  69  99 135 175 225 280 338 407
#     4  12  25  42  68  99 139 175 227 280 341 410
#     4  11  23  44  70  99 134 182 228 283 345 406
#     4  12  24  43  68  98 133 174 222 279 338 407
#     4  12  25  43  68 100 136 181 226 278 346 406
#     4  11  23  43  71  98 131 178 227 278 340 408
#
# _framework density 20.849782999999999
#
# number of rings (size 3 to 8) (size 9 to 14) (size 15 to 20)
#    0.000    0.552    7.586    0.000    1.931    1.103 
#    4.966    1.379    0.000    0.000    0.000    0.000 
#    0.000    0.000    0.000    0.000    0.000    0.000 
#
# Total GULP energy -323203.651479 kJ/mol
# GULP energy per Si atom -5572.476750 kJ/mol
# Density = 2.080233 g / cm^3
# Si number density = 20.849783 Si / 1000 Ang^3
#
#
#
# Elastic Constant Matrix: (Units=GPa)
#
#
# Indices 1 2 3 4 5 6 
#
# 1 58.3156 1.0958 13.4361 0.0000 0.0000 0.0000
# 2 1.0958 31.9726 21.2748 0.0000 0.0000 0.0000
# 3 13.4361 21.2748 149.0605 0.0000 0.0000 0.0000
# 4 0.0000 0.0000 0.0000 37.6190 0.0000 0.0000
# 5 0.0000 0.0000 0.0000 0.0000 7.6792 0.0000
# 6 0.0000 0.0000 0.0000 0.0000 0.0000 27.5156
#
#
#
# Elastic Compliance Matrix: (Units=1/GPa)
#
#
# Indices 1 2 3 4 5 6 
#
# 1 0.017519 0.000498 -0.001650 0.000000 0.000000 0.000000
# 2 0.000498 0.034573 -0.004979 0.000000 0.000000 0.000000
# 3 -0.001650 -0.004979 0.007568 0.000000 0.000000 0.000000
# 4 0.000000 0.000000 0.000000 0.026582 0.000000 0.000000
# 5 0.000000 0.000000 0.000000 0.000000 0.130222 0.000000
# 6 0.000000 0.000000 0.000000 0.000000 0.000000 0.036343
#
#
# Mechanical properties :
#
#
# Convention : Reuss Voigt Hill
#
# Bulk Modulus (GPa) = 21.09868 34.55135 27.82501
# Shear Modulus (GPa) = 17.80184 28.13223 22.96704
#
# Velocity S-wave (km/s) = 2.92518 3.67724 3.32256
# Velocity P-wave (km/s) = 4.64222 5.88532 5.30034
#
# Compressibility (1/GPa) = 0.04739633
#
# Stress axis : x y z
#
# Youngs Moduli (GPa) = 57.08115 28.92426 132.13340
#
# Poissons Ratio (x) = -0.01439 0.21804
# Poissons Ratio (y) = -0.02840 0.65794
# Poissons Ratio (z) = 0.09419 0.14402
#
# Static dielectric constant tensor:
#      x y z
#    x 1.328730 0.000000 0.000000 
#    y 0.000000 1.765940 0.000000 
#    z 0.000000 0.000000 1.748420 
# 
# From -- ./inp_files/45458.got.cif
#   From: 2010.05.17/outbox.cif.g08.bks.cpg/sg64_23_cif.got.tgz:45458.got - 2010.06.03 16:29:19.
