data_PCOD9481733
_publ_section_title
;
Structure prediction by ZEFSAII (Michael W. Deem and Ramdas Pophale) SiO2 
 PCOD9481733
Probable space group: C M C A
;
_chemical_formula_sum "Si O2"
_cell_formula_units_Z 80
_cell_length_a 7.859177
_cell_length_b 28.573367
_cell_length_c 18.835481
_cell_angle_alpha 90.000000
_cell_angle_beta 90.000000
_cell_angle_gamma 90.000000
_cell_volume 4229.754921
_symmetry_space_group_name_H-M "C M C A"
_symmetry_group_IT_number 64
_symmetry_cell_setting 'orthorhombic'
loop_
_space_group_symop_operation_xyz
x,y,z
-x,1/2-y,1/2+z
x,-y,-z
-x,1/2+y,1/2-z
-x,-y,-z
x,1/2+y,1/2-z
-x,y,z
x,1/2-y,1/2+z
1/2+x,1/2+y,z
1/2-x,-y,1/2+z
1/2+x,1/2-y,-z
1/2-x,y,1/2-z
1/2-x,1/2-y,-z
1/2+x,y,1/2-z
1/2-x,1/2+y,z
1/2+x,-y,1/2+z
loop_
_atom_site_type_symbol
_atom_site_label
_atom_site_fract_x
_atom_site_fract_y
_atom_site_fract_z
Si Si1 0.296205 0.096816 0.670610
Si Si2 0.708288 0.193955 0.603708
Si Si3 0.791589 0.449782 0.472722
Si Si4 0.296034 0.353073 0.960039
Si Si5 0.298542 0.291177 0.668336
O O1 0.500000 0.097900 0.665991
O O2 0.250000 0.083348 0.750000
O O3 0.237624 0.149516 0.651354
O O4 0.237101 0.062825 0.607483
O O5 0.500000 0.194989 0.603733
O O6 0.763450 0.181733 0.523308
O O7 0.772627 0.242701 0.635206
O O8 0.732523 0.500000 0.500000
O O9 0.737287 0.405456 0.520640
O O10 0.000000 0.450592 0.473574
O O11 0.500000 0.354040 0.964951
O O12 0.250043 0.333266 0.883713
O O13 0.500000 0.286911 0.666158
O O14 0.250000 0.297293 0.750000
#
# Coordination Sequence:
#
# PCOD9481733 Si02
#       5
#    16  16  16  16  16
#     4   9  16  28  47  71  96 119 149 190 234 277
#     4   8  16  30  48  69  93 123 156 190 229 278
#     4   8  15  30  52  72  91 122 159 190 228 282
#     4   9  17  32  52  71  92 120 157 197 234 275
#     4  11  21  32  46  67  97 129 160 191 228 275
#
# _framework density 18.913623999999999
#
# number of rings (size 3 to 8) (size 9 to 14) (size 15 to 20)
#    0.000    3.000    0.000    4.200    0.000    0.000 
#    0.000    7.000    0.000    4.800    0.000    0.000 
#    0.000    0.000    0.000    0.000    0.000    0.000 
#
# Total GULP energy -223031.791437 kJ/mol
# GULP energy per Si atom -5575.794786 kJ/mol
# Density = 1.887058 g / cm^3
# Si number density = 18.913624 Si / 1000 Ang^3
#
#
#
# Elastic Constant Matrix: (Units=GPa)
#
#
# Indices 1 2 3 4 5 6 
#
# 1 17.1675 10.1865 6.3539 0.0000 0.0000 0.0000
# 2 10.1865 142.8520 117.0252 0.0000 0.0000 0.0000
# 3 6.3539 117.0252 172.6365 0.0000 0.0000 0.0000
# 4 0.0000 0.0000 0.0000 20.4244 0.0000 0.0000
# 5 0.0000 0.0000 0.0000 0.0000 15.8450 0.0000
# 6 0.0000 0.0000 0.0000 0.0000 0.0000 8.6699
#
#
#
# Elastic Compliance Matrix: (Units=1/GPa)
#
#
# Indices 1 2 3 4 5 6 
#
# 1 0.061015 -0.005647 0.001582 0.000000 0.000000 0.000000
# 2 -0.005647 0.016265 -0.010818 0.000000 0.000000 0.000000
# 3 0.001582 -0.010818 0.013067 0.000000 0.000000 0.000000
# 4 0.000000 0.000000 0.000000 0.048961 0.000000 0.000000
# 5 0.000000 0.000000 0.000000 0.000000 0.063111 0.000000
# 6 0.000000 0.000000 0.000000 0.000000 0.000000 0.115342
#
#
# Mechanical properties :
#
#
# Convention : Reuss Voigt Hill
#
# Bulk Modulus (GPa) = 16.50657 66.64302 41.57480
# Shear Modulus (GPa) = 13.59733 22.26055 17.92894
#
# Velocity S-wave (km/s) = 2.68417 3.43440 3.08220
# Velocity P-wave (km/s) = 4.28400 7.14414 5.89031
#
# Compressibility (1/GPa) = 0.06058193
#
# Stress axis : x y z
#
# Youngs Moduli (GPa) = 16.38952 61.48277 76.52768
#
# Poissons Ratio (x) = 0.34720 -0.12109
# Poissons Ratio (y) = 0.09255 0.82784
# Poissons Ratio (z) = -0.02593 0.66509
#
# Static dielectric constant tensor:
#      x y z
#    x 1.683600 0.000000 0.000000 
#    y 0.000000 1.656780 0.000000 
#    z 0.000000 0.000000 1.591020 
# 
# From -- ./inp_files/22330.got.cif
#   From: 2010.05.17/outbox.cif.g08.bks.cpg/sg64_12_cif.got.tgz:22330.got - 2010.06.03 16:29:19.
