data_PCOD9481357
_publ_section_title
;
Structure prediction by ZEFSAII (Michael W. Deem and Ramdas Pophale) SiO2 
 PCOD9481357
Probable space group: C M C A
;
_chemical_formula_sum "Si O2"
_cell_formula_units_Z 64
_cell_length_a 16.248845
_cell_length_b 13.748257
_cell_length_c 12.184732
_cell_angle_alpha 90.000000
_cell_angle_beta 90.000000
_cell_angle_gamma 90.000000
_cell_volume 2721.987455
_symmetry_space_group_name_H-M "C M C A"
_symmetry_group_IT_number 64
_symmetry_cell_setting 'orthorhombic'
loop_
_space_group_symop_operation_xyz
x,y,z
-x,1/2-y,1/2+z
x,-y,-z
-x,1/2+y,1/2-z
-x,-y,-z
x,1/2+y,1/2-z
-x,y,z
x,1/2-y,1/2+z
1/2+x,1/2+y,z
1/2-x,-y,1/2+z
1/2+x,1/2-y,-z
1/2-x,y,1/2-z
1/2-x,1/2-y,-z
1/2+x,y,1/2-z
1/2-x,1/2+y,z
1/2+x,-y,1/2+z
loop_
_atom_site_type_symbol
_atom_site_label
_atom_site_fract_x
_atom_site_fract_y
_atom_site_fract_z
Si Si1 0.500000 0.103300 0.829777
Si Si2 0.326112 0.857400 0.175673
Si Si3 0.140047 0.644836 0.394880
Si Si4 0.500000 0.263695 0.025428
Si Si5 0.000000 0.611802 0.216607
Si Si6 0.267113 0.000000 0.000000
O O1 0.414742 0.127179 0.769319
O O2 0.500000 0.988465 0.850351
O O3 0.500000 0.178761 0.931151
O O4 0.250000 0.884474 0.250000
O O5 0.317771 0.745988 0.139221
O O6 0.322267 0.927290 0.070679
O O7 0.079334 0.614496 0.296197
O O8 0.207122 0.565431 0.425244
O O9 0.080231 0.671866 0.497318
O O10 0.500000 0.204465 0.137427
#
# Coordination Sequence:
#
# PCOD9481357 Si02
#       6
#     8  16  16   8   8   8
#     4  10  23  44  71 107 139 188 243 289 356 431
#     4  11  26  46  73 106 145 189 241 299 364 430
#     4  10  25  45  66 109 140 192 243 293 371 423
#     4   9  22  41  71 101 147 187 233 305 352 426
#     4  11  22  41  76 101 142 193 236 295 365 429
#     4  12  26  46  68 102 146 192 238 307 352 435
#
# _framework density 23.512233999999999
#
# number of rings (size 3 to 8) (size 9 to 14) (size 15 to 20)
#    0.000    1.500    0.000    3.375   10.500    5.000 
#    9.000    0.000    0.000    0.000    0.000    0.000 
#    0.000    0.000    0.000    0.000    0.000    0.000 
#
# Total GULP energy -179209.536948 kJ/mol
# GULP energy per Si atom -5600.298030 kJ/mol
# Density = 2.345872 g / cm^3
# Si number density = 23.512234 Si / 1000 Ang^3
#
#
#
# Elastic Constant Matrix: (Units=GPa)
#
#
# Indices 1 2 3 4 5 6 
#
# 1 120.1734 21.7753 26.7016 0.0000 0.0000 0.0000
# 2 21.7753 117.0912 5.3025 0.0000 0.0000 0.0000
# 3 26.7016 5.3025 50.9705 0.0000 0.0000 0.0000
# 4 0.0000 0.0000 0.0000 23.7437 0.0000 0.0000
# 5 0.0000 0.0000 0.0000 0.0000 101.1293 0.0000
# 6 0.0000 0.0000 0.0000 0.0000 0.0000 6.2673
#
#
#
# Elastic Compliance Matrix: (Units=1/GPa)
#
#
# Indices 1 2 3 4 5 6 
#
# 1 0.009700 -0.001581 -0.004917 0.000000 0.000000 0.000000
# 2 -0.001581 0.008839 -0.000091 0.000000 0.000000 0.000000
# 3 -0.004917 -0.000091 0.022205 0.000000 0.000000 0.000000
# 4 0.000000 0.000000 0.000000 0.042116 0.000000 0.000000
# 5 0.000000 0.000000 0.000000 0.000000 0.009888 0.000000
# 6 0.000000 0.000000 0.000000 0.000000 0.000000 0.159559
#
#
# Mechanical properties :
#
#
# Convention : Reuss Voigt Hill
#
# Bulk Modulus (GPa) = 36.27868 43.97711 40.12789
# Shear Modulus (GPa) = 18.20338 41.85844 30.03091
#
# Velocity S-wave (km/s) = 2.78548 4.22392 3.57774
# Velocity P-wave (km/s) = 5.08020 6.52175 5.84558
#
# Compressibility (1/GPa) = 0.02756440
#
# Stress axis : x y z
#
# Youngs Moduli (GPa) = 103.08851 113.14076 45.03565
#
# Poissons Ratio (x) = 0.17891 0.22145
# Poissons Ratio (y) = 0.16301 0.00410
# Poissons Ratio (z) = 0.50691 0.01031
#
# Static dielectric constant tensor:
#      x y z
#    x 1.896180 0.000000 0.000000 
#    y 0.000000 1.841020 0.000000 
#    z 0.000000 0.000000 1.912330 
# 
# From -- ./inp_files/15586.got.cif
#   From: 2010.05.17/outbox.cif.g08.bks.cpg/sg64_8_cif.got.tgz:15586.got - 2010.06.03 16:29:19.
