data_PCOD9481632
_publ_section_title
;
Structure prediction by ZEFSAII (Michael W. Deem and Ramdas Pophale) SiO2 
 PCOD9481632
Probable space group: C M C A
;
_chemical_formula_sum "Si O2"
_cell_formula_units_Z 60
_cell_length_a 17.721345
_cell_length_b 9.307087
_cell_length_c 13.710613
_cell_angle_alpha 90.000000
_cell_angle_beta 90.000000
_cell_angle_gamma 90.000000
_cell_volume 2261.347611
_symmetry_space_group_name_H-M "C M C A"
_symmetry_group_IT_number 64
_symmetry_cell_setting 'orthorhombic'
loop_
_space_group_symop_operation_xyz
x,y,z
-x,1/2-y,1/2+z
x,-y,-z
-x,1/2+y,1/2-z
-x,-y,-z
x,1/2+y,1/2-z
-x,y,z
x,1/2-y,1/2+z
1/2+x,1/2+y,z
1/2-x,-y,1/2+z
1/2+x,1/2-y,-z
1/2-x,y,1/2-z
1/2-x,1/2-y,-z
1/2+x,y,1/2-z
1/2-x,1/2+y,z
1/2+x,-y,1/2+z
loop_
_atom_site_type_symbol
_atom_site_label
_atom_site_fract_x
_atom_site_fract_y
_atom_site_fract_z
Si Si1 0.500000 0.853978 0.617532
Si Si2 0.669825 0.652440 0.047560
Si Si3 0.000000 0.850768 0.219578
Si Si4 0.374803 0.845666 0.879238
Si Si5 0.250000 0.124610 0.250000
Si Si6 0.500000 0.000000 0.000000
O O1 0.421896 0.862296 0.560241
O O2 0.500000 0.700598 0.669608
O O3 0.500000 0.982010 0.695664
O O4 0.704446 0.687791 0.154777
O O5 0.695244 0.500000 0.000000
O O6 0.674700 0.773947 0.965063
O O7 0.923602 0.780108 0.173839
O O8 0.321418 0.936444 0.807279
O O9 0.435230 0.943069 0.926988
#
# Coordination Sequence:
#
# PCOD9481632 Si02
#       6
#     8  16   8  16   8   4
#     4  12  23  47  78 111 148 206 270 326 394 475
#     4  12  26  49  79 106 153 202 255 318 396 474
#     4  11  23  46  77 110 147 201 267 328 390 466
#     4  11  25  51  74 110 152 201 256 329 393 472
#     4  12  28  50  72 116 154 200 258 326 400 482
#     4  10  26  50  78 112 154 200 268 320 394 470
#
# _framework density 26.532851999999998
#
# number of rings (size 3 to 8) (size 9 to 14) (size 15 to 20)
#    0.000    0.533    5.333    2.800    1.867    5.333 
#    4.800    0.000    0.000    0.000    0.000    0.000 
#    0.000    0.000    0.000    0.000    0.000    0.000 
#
# Total GULP energy -167218.874654 kJ/mol
# GULP energy per Si atom -5573.962488 kJ/mol
# Density = 2.647246 g / cm^3
# Si number density = 26.532852 Si / 1000 Ang^3
#
#
#
# Elastic Constant Matrix: (Units=GPa)
#
#
# Indices 1 2 3 4 5 6 
#
# 1 154.0014 18.3222 67.8495 0.0000 0.0000 0.0000
# 2 18.3222 108.4040 59.2591 0.0000 0.0000 0.0000
# 3 67.8495 59.2591 132.3235 0.0000 0.0000 0.0000
# 4 0.0000 0.0000 0.0000 39.6988 0.0000 0.0000
# 5 0.0000 0.0000 0.0000 0.0000 111.0100 0.0000
# 6 0.0000 0.0000 0.0000 0.0000 0.0000 55.5803
#
#
#
# Elastic Compliance Matrix: (Units=1/GPa)
#
#
# Indices 1 2 3 4 5 6 
#
# 1 0.008515 0.001255 -0.004928 0.000000 0.000000 0.000000
# 2 0.001255 0.012400 -0.006197 0.000000 0.000000 0.000000
# 3 -0.004928 -0.006197 0.012859 0.000000 0.000000 0.000000
# 4 0.000000 0.000000 0.000000 0.025190 0.000000 0.000000
# 5 0.000000 0.000000 0.000000 0.000000 0.009008 0.000000
# 6 0.000000 0.000000 0.000000 0.000000 0.000000 0.017992
#
#
# Mechanical properties :
#
#
# Convention : Reuss Voigt Hill
#
# Bulk Modulus (GPa) = 71.25229 76.17673 73.71451
# Shear Modulus (GPa) = 45.29687 57.87769 51.58728
#
# Velocity S-wave (km/s) = 4.13631 4.67557 4.41418
# Velocity P-wave (km/s) = 7.05158 7.61056 7.33639
#
# Compressibility (1/GPa) = 0.01403464
#
# Stress axis : x y z
#
# Youngs Moduli (GPa) = 117.43371 80.64501 77.76494
#
# Poissons Ratio (x) = -0.10119 0.38325
# Poissons Ratio (y) = -0.14735 0.48188
# Poissons Ratio (z) = 0.57875 0.49972
#
# Static dielectric constant tensor:
#      x y z
#    x 2.122380 0.000000 0.000000 
#    y 0.000000 2.045190 0.000000 
#    z 0.000000 0.000000 2.093010 
# 
# From -- ./inp_files/16837.got.cif
#   From: 2010.05.17/outbox.cif.g08.bks.cpg/sg64_9_cif.got.tgz:16837.got - 2010.06.03 16:29:19.
