data_PCOD9481237
_publ_section_title
;
Structure prediction by ZEFSAII (Michael W. Deem and Ramdas Pophale) SiO2 
 PCOD9481237
Probable space group: C M C A
;
_chemical_formula_sum "Si O2"
_cell_formula_units_Z 108
_cell_length_a 15.014648
_cell_length_b 23.720524
_cell_length_c 13.917109
_cell_angle_alpha 90.000000
_cell_angle_beta 90.000000
_cell_angle_gamma 90.000000
_cell_volume 4956.652385
_symmetry_space_group_name_H-M "C M C A"
_symmetry_group_IT_number 64
_symmetry_cell_setting 'orthorhombic'
loop_
_space_group_symop_operation_xyz
x,y,z
-x,1/2-y,1/2+z
x,-y,-z
-x,1/2+y,1/2-z
-x,-y,-z
x,1/2+y,1/2-z
-x,y,z
x,1/2-y,1/2+z
1/2+x,1/2+y,z
1/2-x,-y,1/2+z
1/2+x,1/2-y,-z
1/2-x,y,1/2-z
1/2-x,1/2-y,-z
1/2+x,y,1/2-z
1/2-x,1/2+y,z
1/2+x,-y,1/2+z
loop_
_atom_site_type_symbol
_atom_site_label
_atom_site_fract_x
_atom_site_fract_y
_atom_site_fract_z
Si Si1 0.099768 0.922272 0.886232
Si Si2 0.599968 0.364481 0.089428
Si Si3 0.699825 0.965058 0.351550
Si Si4 0.000000 0.500000 0.000000
Si Si5 0.250000 0.775434 0.750000
Si Si6 0.225828 0.295196 0.081823
Si Si7 0.604868 0.360907 0.681748
Si Si8 0.846389 0.911609 0.485940
O O1 0.104937 0.889221 0.786428
O O2 0.000000 0.946116 0.896693
O O3 0.166955 0.973596 0.880055
O O4 0.111592 0.881187 0.976705
O O5 0.500000 0.343123 0.103579
O O6 0.617327 0.421522 0.149385
O O7 0.679813 0.322686 0.112562
O O8 0.750000 0.965290 0.250000
O O9 0.762541 0.939731 0.434119
O O10 0.076052 0.544879 0.962018
O O11 0.194163 0.738661 0.825484
O O12 0.321807 0.812032 0.809307
O O13 0.160991 0.346169 0.049873
O O14 0.250000 0.250000 0.000000
O O15 0.500000 0.347193 0.659099
O O16 0.641445 0.403602 0.600692
#
# Coordination Sequence:
#
# PCOD9481237 Si02
#       8
#    16  16  16   4   8  16  16  16
#     4  10  23  41  68 102 139 180 242 301 357 442
#     4  10  23  44  67  98 136 182 233 302 368 436
#     4  11  26  39  66 101 141 193 240 292 371 437
#     4  12  28  48  72 108 154 198 248 290 376 468
#     4  12  26  46  78 102 144 186 252 320 368 452
#     4  11  24  46  72 105 137 184 242 305 376 435
#     4  11  25  47  73 108 140 192 253 306 379 449
#     4  11  27  46  71 103 148 198 241 305 369 452
#
# _framework density 21.788899000000001
#
# number of rings (size 3 to 8) (size 9 to 14) (size 15 to 20)
#    0.000    1.185    2.222    1.778   13.481    1.778 
#    4.000    0.000    0.000    0.000    0.000    0.000 
#    0.000    0.000    0.000    0.000    0.000    0.000 
#
# Total GULP energy -301061.373479 kJ/mol
# GULP energy per Si atom -5575.210620 kJ/mol
# Density = 2.173931 g / cm^3
# Si number density = 21.788899 Si / 1000 Ang^3
#
#
#
# Elastic Constant Matrix: (Units=GPa)
#
#
# Indices 1 2 3 4 5 6 
#
# 1 100.0947 28.1132 14.4011 0.0000 0.0000 0.0000
# 2 28.1132 68.8310 -1.2392 0.0000 0.0000 0.0000
# 3 14.4011 -1.2392 80.9368 0.0000 0.0000 0.0000
# 4 0.0000 0.0000 0.0000 30.5870 0.0000 0.0000
# 5 0.0000 0.0000 0.0000 0.0000 8.1341 0.0000
# 6 0.0000 0.0000 0.0000 0.0000 0.0000 -3.6208
#
#
#
# Elastic Compliance Matrix: (Units=1/GPa)
#
#
# Indices 1 2 3 4 5 6 
#
# 1 0.011646 -0.004795 -0.002146 0.000000 0.000000 0.000000
# 2 -0.004795 0.016507 0.001106 0.000000 0.000000 0.000000
# 3 -0.002146 0.001106 0.012754 0.000000 0.000000 0.000000
# 4 0.000000 0.000000 0.000000 0.032694 0.000000 0.000000
# 5 0.000000 0.000000 0.000000 0.000000 0.122939 0.000000
# 6 0.000000 0.000000 0.000000 0.000000 0.000000 -0.276181
#
#
# Mechanical properties :
#
#
# Convention : Reuss Voigt Hill
#
# Bulk Modulus (GPa) = 34.20325 36.93475 35.56900
# Shear Modulus (GPa) = -85.87251 20.92589 -32.47331
#
# Velocity S-wave (km/s) = -6.28464 3.10238 -3.86471
# Velocity P-wave (km/s) = 6.07706 5.46086 1.88542
#
# Compressibility (1/GPa) = 0.02923699
#
# Stress axis : x y z
#
# Youngs Moduli (GPa) = 85.86572 60.58091 78.40662
#
# Poissons Ratio (x) = 0.29051 0.16823
# Poissons Ratio (y) = 0.41175 -0.08671
# Poissons Ratio (z) = 0.18423 -0.06700
#
# Static dielectric constant tensor:
#      x y z
#    x 1.883850 0.000000 0.000000 
#    y 0.000000 1.811260 0.000000 
#    z 0.000000 0.000000 1.805040 
# 
# From -- ./inp_files/24293.got.cif
#   From: 2010.05.17/outbox.cif.g08.bks.cpg/sg64_13_cif.got.tgz:24293.got - 2010.06.03 16:29:19.
