data_PCOD9481659
_publ_section_title
;
Structure prediction by ZEFSAII (Michael W. Deem and Ramdas Pophale) SiO2 
 PCOD9481659
Probable space group: C M C A
;
_chemical_formula_sum "Si O2"
_cell_formula_units_Z 112
_cell_length_a 14.293086
_cell_length_b 21.800205
_cell_length_c 15.987456
_cell_angle_alpha 90.000000
_cell_angle_beta 90.000000
_cell_angle_gamma 90.000000
_cell_volume 4981.566666
_symmetry_space_group_name_H-M "C M C A"
_symmetry_group_IT_number 64
_symmetry_cell_setting 'orthorhombic'
loop_
_space_group_symop_operation_xyz
x,y,z
-x,1/2-y,1/2+z
x,-y,-z
-x,1/2+y,1/2-z
-x,-y,-z
x,1/2+y,1/2-z
-x,y,z
x,1/2-y,1/2+z
1/2+x,1/2+y,z
1/2-x,-y,1/2+z
1/2+x,1/2-y,-z
1/2-x,y,1/2-z
1/2-x,1/2-y,-z
1/2+x,y,1/2-z
1/2-x,1/2+y,z
1/2+x,-y,1/2+z
loop_
_atom_site_type_symbol
_atom_site_label
_atom_site_fract_x
_atom_site_fract_y
_atom_site_fract_z
Si Si1 0.362704 0.854806 0.250000
Si Si2 0.604594 0.733092 0.601741
Si Si3 0.893497 0.996873 0.250000
Si Si4 0.604594 0.266909 0.101741
Si Si5 0.750000 0.645874 0.522031
Si Si6 0.750000 0.486185 0.100864
Si Si7 0.250000 0.834062 0.656488
O O1 0.250000 0.850032 0.250000
O O2 0.399477 0.818765 0.171522
O O3 0.395522 0.923609 0.250000
O O4 0.399477 0.818766 0.328479
O O5 0.500000 0.753140 0.582389
O O6 0.662517 0.692712 0.533524
O O7 0.662806 0.788236 0.643283
O O8 0.836567 0.007512 0.338136
O O9 0.836567 0.007512 0.161865
O O10 0.000000 0.021960 0.250000
O O11 0.500000 0.246860 0.082389
O O12 0.662806 0.211764 0.143283
O O13 0.662518 0.307288 0.033523
O O14 0.750000 0.589463 0.587708
O O15 0.750000 0.623376 0.425776
O O16 0.750000 0.500000 0.000000
O O17 0.250000 0.860581 0.750000
#
# Coordination Sequence:
#
# PCOD9481659 Si02
#       7
#    16  16  16  16  16  16  16
#     4  12  16  31  59  90 120 147 190 242 293 335
#     4  11  19  33  58  85 115 152 193 238 284 334
#     4  11  21  40  69  93 117 153 197 253 315 362
#     4  11  19  33  58  85 115 152 193 238 284 334
#     4  11  23  38  55  84 117 148 196 246 295 346
#     4  11  24  43  64  95 123 152 200 254 313 370
#     4  11  23  37  49  76 120 163 199 228 276 353
#
# _framework density 22.482887000000002
#
# number of rings (size 3 to 8) (size 9 to 14) (size 15 to 20)
#    0.000    0.857    8.571    3.000    0.000    2.857 
#    2.571    0.000    0.000    0.000    0.000    0.000 
#    0.000    0.000    0.000    0.000    0.000    0.000 
#
# Total GULP energy -311954.167121 kJ/mol
# GULP energy per Si atom -5570.610127 kJ/mol
# Density = 2.243171 g / cm^3
# Si number density = 22.482887 Si / 1000 Ang^3
#
#
#
# Elastic Constant Matrix: (Units=GPa)
#
#
# Indices 1 2 3 4 5 6 
#
# 1 203.8047 8.8927 38.1121 0.0000 0.0000 0.0000
# 2 8.8927 34.2277 18.4893 0.0000 0.0000 0.0000
# 3 38.1121 18.4893 209.5714 0.0000 0.0000 0.0000
# 4 0.0000 0.0000 0.0000 49.0318 0.0000 0.0000
# 5 0.0000 0.0000 0.0000 0.0000 -7.3834 0.0000
# 6 0.0000 0.0000 0.0000 0.0000 0.0000 -14.1847
#
#
#
# Elastic Compliance Matrix: (Units=1/GPa)
#
#
# Indices 1 2 3 4 5 6 
#
# 1 0.005104 -0.000866 -0.000852 0.000000 0.000000 0.000000
# 2 -0.000866 0.030825 -0.002562 0.000000 0.000000 0.000000
# 3 -0.000852 -0.002562 0.005153 0.000000 0.000000 0.000000
# 4 0.000000 0.000000 0.000000 0.020395 0.000000 0.000000
# 5 0.000000 0.000000 0.000000 0.000000 -0.135438 0.000000
# 6 0.000000 0.000000 0.000000 0.000000 0.000000 -0.070499
#
#
# Mechanical properties :
#
#
# Convention : Reuss Voigt Hill
#
# Bulk Modulus (GPa) = 30.74847 64.28801 47.51824
# Shear Modulus (GPa) = -39.98058 30.96671 -4.50693
#
# Velocity S-wave (km/s) = -4.22153 3.71529 -1.41738
# Velocity P-wave (km/s) = 3.17106 6.86008 4.30146
#
# Compressibility (1/GPa) = 0.03252194
#
# Stress axis : x y z
#
# Youngs Moduli (GPa) = 195.93551 32.44115 194.07761
#
# Poissons Ratio (x) = 0.02809 0.16531
# Poissons Ratio (y) = 0.16966 0.49724
# Poissons Ratio (z) = 0.16689 0.08312
#
# Static dielectric constant tensor:
#      x y z
#    x 1.884910 0.000000 0.000000 
#    y 0.000000 1.827360 0.000000 
#    z 0.000000 0.000000 2.038580 
# 
# From -- ./inp_files/24438.got.cif
#   From: 2010.05.17/outbox.cif.g08.bks.cpg/sg64_13_cif.got.tgz:24438.got - 2010.06.03 16:29:19.
