data_PCOD9481164
_publ_section_title
;
Structure prediction by ZEFSAII (Michael W. Deem and Ramdas Pophale) SiO2 
 PCOD9481164
Probable space group: C M C A
;
_chemical_formula_sum "Si O2"
_cell_formula_units_Z 80
_cell_length_a 31.556170
_cell_length_b 11.208088
_cell_length_c 12.435052
_cell_angle_alpha 90.000000
_cell_angle_beta 90.000000
_cell_angle_gamma 90.000000
_cell_volume 4398.083039
_symmetry_space_group_name_H-M "C M C A"
_symmetry_group_IT_number 64
_symmetry_cell_setting 'orthorhombic'
loop_
_space_group_symop_operation_xyz
x,y,z
-x,1/2-y,1/2+z
x,-y,-z
-x,1/2+y,1/2-z
-x,-y,-z
x,1/2+y,1/2-z
-x,y,z
x,1/2-y,1/2+z
1/2+x,1/2+y,z
1/2-x,-y,1/2+z
1/2+x,1/2-y,-z
1/2-x,y,1/2-z
1/2-x,1/2-y,-z
1/2+x,y,1/2-z
1/2-x,1/2+y,z
1/2+x,-y,1/2+z
loop_
_atom_site_type_symbol
_atom_site_label
_atom_site_fract_x
_atom_site_fract_y
_atom_site_fract_z
Si Si1 0.428772 0.133434 0.971229
Si Si2 0.308052 0.951075 0.845282
Si Si3 0.500000 0.815525 0.854035
Si Si4 0.837821 0.188068 0.533902
Si Si5 0.500000 0.413426 0.296181
Si Si6 0.291664 0.421392 0.896812
O O1 0.387562 0.212761 0.950489
O O2 0.459044 0.116669 0.869074
O O3 0.458924 0.174964 0.068450
O O4 0.412797 0.000000 0.000000
O O5 0.312851 0.952573 0.717372
O O6 0.258494 0.935233 0.875366
O O7 0.324944 0.072529 0.896868
O O8 0.331071 0.844282 0.908509
O O9 0.500000 0.687060 0.796301
O O10 0.500000 0.940446 0.783333
O O11 0.806291 0.290015 0.571628
O O12 0.303204 0.500000 0.000000
#
# Coordination Sequence:
#
# PCOD9481164 Si02
#       6
#    16  16   8  16   8  16
#     4   9  18  38  60  83 115 158 199 228 292 376
#     4  10  23  38  60  80 115 167 200 247 315 351
#     4   9  19  37  62  88 120 153 195 239 302 365
#     4  11  21  40  60  85 120 158 211 252 297 370
#     4   9  19  37  62  90 114 155 191 241 298 365
#     4  11  24  38  58  89 118 158 208 258 307 353
#
# _framework density 18.189743
#
# number of rings (size 3 to 8) (size 9 to 14) (size 15 to 20)
#    0.000    2.000    4.000    1.800    2.800    3.200 
#    0.000    2.000    0.000    0.000    0.000    0.000 
#    0.000    0.000    0.000    0.000    0.000    0.000 
#
# Total GULP energy -222891.842108 kJ/mol
# GULP energy per Si atom -5572.296053 kJ/mol
# Density = 1.814834 g / cm^3
# Si number density = 18.189743 Si / 1000 Ang^3
#
#
#
# Elastic Constant Matrix: (Units=GPa)
#
#
# Indices 1 2 3 4 5 6 
#
# 1 84.9576 23.0399 24.4491 0.0000 0.0000 0.0000
# 2 23.0399 74.5738 35.7860 0.0000 0.0000 0.0000
# 3 24.4491 35.7860 105.2443 0.0000 0.0000 0.0000
# 4 0.0000 0.0000 0.0000 25.5409 0.0000 0.0000
# 5 0.0000 0.0000 0.0000 0.0000 3.0111 0.0000
# 6 0.0000 0.0000 0.0000 0.0000 0.0000 37.9301
#
#
#
# Elastic Compliance Matrix: (Units=1/GPa)
#
#
# Indices 1 2 3 4 5 6 
#
# 1 0.013192 -0.003113 -0.002006 0.000000 0.000000 0.000000
# 2 -0.003113 0.016759 -0.004975 0.000000 0.000000 0.000000
# 3 -0.002006 -0.004975 0.011659 0.000000 0.000000 0.000000
# 4 0.000000 0.000000 0.000000 0.039153 0.000000 0.000000
# 5 0.000000 0.000000 0.000000 0.000000 0.332106 0.000000
# 6 0.000000 0.000000 0.000000 0.000000 0.000000 0.026364
#
#
# Mechanical properties :
#
#
# Convention : Reuss Voigt Hill
#
# Bulk Modulus (GPa) = 46.68206 47.92509 47.30357
# Shear Modulus (GPa) = 10.71666 25.39646 18.05656
#
# Velocity S-wave (km/s) = 2.42989 3.74063 3.15410
# Velocity P-wave (km/s) = 5.79588 6.71274 6.27109
#
# Compressibility (1/GPa) = 0.02142151
#
# Stress axis : x y z
#
# Youngs Moduli (GPa) = 75.80273 59.67005 85.76722
#
# Poissons Ratio (x) = 0.18576 0.17206
# Poissons Ratio (y) = 0.23598 0.42672
# Poissons Ratio (z) = 0.15207 0.29687
#
# Static dielectric constant tensor:
#      x y z
#    x 1.629810 0.000000 0.000000 
#    y 0.000000 1.646750 0.000000 
#    z 0.000000 0.000000 1.635130 
# 
# From -- ./inp_files/19645.got.cif
#   From: 2010.05.17/outbox.cif.g08.bks.cpg/sg64_10_cif.got.tgz:19645.got - 2010.06.03 16:29:19.
