data_PCOD9481319
_publ_section_title
;
Structure prediction by ZEFSAII (Michael W. Deem and Ramdas Pophale) SiO2 
 PCOD9481319
Probable space group: C M C A
;
_chemical_formula_sum "Si O2"
_cell_formula_units_Z 44
_cell_length_a 17.937463
_cell_length_b 21.188922
_cell_length_c 4.885238
_cell_angle_alpha 90.000000
_cell_angle_beta 90.000000
_cell_angle_gamma 90.000000
_cell_volume 1856.759297
_symmetry_space_group_name_H-M "C M C A"
_symmetry_group_IT_number 64
_symmetry_cell_setting 'orthorhombic'
loop_
_space_group_symop_operation_xyz
x,y,z
-x,1/2-y,1/2+z
x,-y,-z
-x,1/2+y,1/2-z
-x,-y,-z
x,1/2+y,1/2-z
-x,y,z
x,1/2-y,1/2+z
1/2+x,1/2+y,z
1/2-x,-y,1/2+z
1/2+x,1/2-y,-z
1/2-x,y,1/2-z
1/2-x,1/2-y,-z
1/2+x,y,1/2-z
1/2-x,1/2+y,z
1/2+x,-y,1/2+z
loop_
_atom_site_type_symbol
_atom_site_label
_atom_site_fract_x
_atom_site_fract_y
_atom_site_fract_z
Si Si1 0.198776 0.000000 0.000000
Si Si2 0.500000 0.000000 0.000000
Si Si3 0.834954 0.792143 0.694432
Si Si4 0.920089 0.909049 0.912472
O O1 0.250000 0.980926 0.750000
O O2 0.147190 0.940109 0.074948
O O3 0.562800 0.041592 0.170167
O O4 0.843329 0.770306 0.382801
O O5 0.750000 0.814498 0.750000
O O6 0.894870 0.843119 0.789025
O O7 0.000000 0.907095 0.072045
#
# Coordination Sequence:
#
# PCOD9481319 Si02
#       4
#     8   4  16  16
#     4  12  26  44  71 103 140 190 242 294 368 430
#     4   8  22  42  68 100 140 178 226 286 354 422
#     4  10  23  43  67  99 137 183 238 291 349 423
#     4  10  23  45  69 103 144 185 234 298 357 428
#
# _framework density 23.697202999999998
#
# number of rings (size 3 to 8) (size 9 to 14) (size 15 to 20)
#    1.091    0.727    0.000    2.727    0.000   11.636 
#    0.000    0.000    0.000    0.000    0.000    0.000 
#    0.000    0.000    0.000    0.000    0.000    0.000 
#
# Total GULP energy -122525.068617 kJ/mol
# GULP energy per Si atom -5569.321301 kJ/mol
# Density = 2.364327 g / cm^3
# Si number density = 23.697203 Si / 1000 Ang^3
#
#
#
# Elastic Constant Matrix: (Units=GPa)
#
#
# Indices 1 2 3 4 5 6 
#
# 1 128.4211 33.1000 2.9601 0.0000 0.0000 0.0000
# 2 33.1000 62.9933 -13.5475 0.0000 0.0000 0.0000
# 3 2.9601 -13.5475 45.7205 0.0000 0.0000 0.0000
# 4 0.0000 0.0000 0.0000 9.8064 0.0000 0.0000
# 5 0.0000 0.0000 0.0000 0.0000 22.0145 0.0000
# 6 0.0000 0.0000 0.0000 0.0000 0.0000 94.4120
#
#
#
# Elastic Compliance Matrix: (Units=1/GPa)
#
#
# Indices 1 2 3 4 5 6 
#
# 1 0.009203 -0.005302 -0.002167 0.000000 0.000000 0.000000
# 2 -0.005302 0.020010 0.006272 0.000000 0.000000 0.000000
# 3 -0.002167 0.006272 0.023871 0.000000 0.000000 0.000000
# 4 0.000000 0.000000 0.000000 0.101974 0.000000 0.000000
# 5 0.000000 0.000000 0.000000 0.000000 0.045425 0.000000
# 6 0.000000 0.000000 0.000000 0.000000 0.000000 0.010592
#
#
# Mechanical properties :
#
#
# Convention : Reuss Voigt Hill
#
# Bulk Modulus (GPa) = 19.72743 31.35112 25.53927
# Shear Modulus (GPa) = 21.70471 39.55473 30.62972
#
# Velocity S-wave (km/s) = 3.02970 4.08998 3.59910
# Velocity P-wave (km/s) = 4.53670 5.96344 5.29831
#
# Compressibility (1/GPa) = 0.05069084
#
# Stress axis : x y z
#
# Youngs Moduli (GPa) = 108.65564 49.97605 41.89200
#
# Poissons Ratio (x) = 0.26497 0.09078
# Poissons Ratio (y) = 0.57609 -0.26276
# Poissons Ratio (z) = 0.23544 -0.31347
#
# Static dielectric constant tensor:
#      x y z
#    x 1.960690 0.000000 0.000000 
#    y 0.000000 1.895860 0.000000 
#    z 0.000000 0.000000 1.862760 
# 
# From -- ./inp_files/1083.got.cif
#   From: 2010.05.17/outbox.cif.g08.bks.cpg/sg64_1_cif.got.tgz:1083.got - 2010.06.03 16:29:19.
