data_PCOD9481101
_publ_section_title
;
Structure prediction by ZEFSAII (Michael W. Deem and Ramdas Pophale) SiO2 
 PCOD9481101
Probable space group: C M C A
;
_chemical_formula_sum "Si O2"
_cell_formula_units_Z 96
_cell_length_a 23.765746
_cell_length_b 21.722670
_cell_length_c 9.108352
_cell_angle_alpha 90.000000
_cell_angle_beta 90.000000
_cell_angle_gamma 90.000000
_cell_volume 4702.236430
_symmetry_space_group_name_H-M "C M C A"
_symmetry_group_IT_number 64
_symmetry_cell_setting 'orthorhombic'
loop_
_space_group_symop_operation_xyz
x,y,z
-x,1/2-y,1/2+z
x,-y,-z
-x,1/2+y,1/2-z
-x,-y,-z
x,1/2+y,1/2-z
-x,y,z
x,1/2-y,1/2+z
1/2+x,1/2+y,z
1/2-x,-y,1/2+z
1/2+x,1/2-y,-z
1/2-x,y,1/2-z
1/2-x,1/2-y,-z
1/2+x,y,1/2-z
1/2-x,1/2+y,z
1/2+x,-y,1/2+z
loop_
_atom_site_type_symbol
_atom_site_label
_atom_site_fract_x
_atom_site_fract_y
_atom_site_fract_z
Si Si1 0.304256 0.864646 0.673012
Si Si2 0.190224 0.502382 0.179025
Si Si3 0.779299 0.695224 0.597578
Si Si4 0.938486 0.680948 0.917560
Si Si5 0.884076 0.269331 0.800416
Si Si6 0.564393 0.462592 0.345492
O O1 0.250000 0.834340 0.750000
O O2 0.313038 0.927995 0.756996
O O3 0.286881 0.864623 0.503884
O O4 0.355985 0.818796 0.692259
O O5 0.250000 0.478754 0.250000
O O6 0.127262 0.476685 0.219758
O O7 0.194782 0.500000 0.000000
O O8 0.750000 0.681318 0.750000
O O9 0.750000 0.750000 0.500000
O O10 0.839004 0.719987 0.647631
O O11 0.929283 0.729733 0.787752
O O12 0.934109 0.610775 0.867539
O O13 0.000000 0.690458 0.981516
O O14 0.898035 0.694227 0.052318
O O15 0.564461 0.500000 0.500000
O O16 0.500000 0.476036 0.281698
#
# Coordination Sequence:
#
# PCOD9481101 Si02
#       6
#    16  16  16  16  16  16
#     4  11  22  39  64  96 137 167 220 276 335 428
#     4  10  22  44  66  99 135 172 232 294 346 400
#     4  12  20  37  60  96 139 175 216 260 338 421
#     4  11  24  39  61  94 131 172 224 283 341 413
#     4  12  20  37  60  93 134 170 208 270 345 411
#     4   9  19  42  70  92 120 174 238 282 332 405
#
# _framework density 20.415818000000002
#
# number of rings (size 3 to 8) (size 9 to 14) (size 15 to 20)
#    0.000    1.167    5.000    2.500    0.000    0.000 
#    6.000    1.667    0.000    0.500    0.000    0.000 
#    0.000    0.000    0.000    0.000    0.000    0.000 
#
# Total GULP energy -267240.492122 kJ/mol
# GULP energy per Si atom -5567.510253 kJ/mol
# Density = 2.036935 g / cm^3
# Si number density = 20.415818 Si / 1000 Ang^3
#
#
#
# Elastic Constant Matrix: (Units=GPa)
#
#
# Indices 1 2 3 4 5 6 
#
# 1 124.1341 19.8221 19.4059 0.0000 0.0000 0.0000
# 2 19.8221 87.9349 34.4650 0.0000 0.0000 0.0000
# 3 19.4059 34.4650 104.9459 0.0000 0.0000 0.0000
# 4 0.0000 0.0000 0.0000 39.0675 0.0000 0.0000
# 5 0.0000 0.0000 0.0000 0.0000 33.1375 0.0000
# 6 0.0000 0.0000 0.0000 0.0000 0.0000 41.8579
#
#
#
# Elastic Compliance Matrix: (Units=1/GPa)
#
#
# Indices 1 2 3 4 5 6 
#
# 1 0.008461 -0.001485 -0.001077 0.000000 0.000000 0.000000
# 2 -0.001485 0.013313 -0.004097 0.000000 0.000000 0.000000
# 3 -0.001077 -0.004097 0.011073 0.000000 0.000000 0.000000
# 4 0.000000 0.000000 0.000000 0.025597 0.000000 0.000000
# 5 0.000000 0.000000 0.000000 0.000000 0.030177 0.000000
# 6 0.000000 0.000000 0.000000 0.000000 0.000000 0.023890
#
#
# Mechanical properties :
#
#
# Convention : Reuss Voigt Hill
#
# Bulk Modulus (GPa) = 51.20703 51.60013 51.40358
# Shear Modulus (GPa) = 37.78136 39.03404 38.40770
#
# Velocity S-wave (km/s) = 4.30652 4.37733 4.34207
# Velocity P-wave (km/s) = 7.06149 7.13284 7.09726
#
# Compressibility (1/GPa) = 0.01952857
#
# Stress axis : x y z
#
# Youngs Moduli (GPa) = 118.18487 75.11585 90.30615
#
# Poissons Ratio (x) = 0.11157 0.09724
# Poissons Ratio (y) = 0.17554 0.37002
# Poissons Ratio (z) = 0.12727 0.30778
#
# Static dielectric constant tensor:
#      x y z
#    x 1.796420 0.000000 0.000000 
#    y 0.000000 1.810040 0.000000 
#    z 0.000000 0.000000 13.764800 
# 
# From -- ./inp_files/9491.got.cif
#   From: 2010.05.17/outbox.cif.g08.bks.cpg/sg64_5_cif.got.tgz:9491.got - 2010.06.03 16:29:19.
