data_PCOD9481997
_publ_section_title
;
Structure prediction by ZEFSAII (Michael W. Deem and Ramdas Pophale) SiO2 
 PCOD9481997
Probable space group: C M C A
;
_chemical_formula_sum "Si O2"
_cell_formula_units_Z 44
_cell_length_a 9.569195
_cell_length_b 27.791802
_cell_length_c 7.555207
_cell_angle_alpha 90.000000
_cell_angle_beta 90.000000
_cell_angle_gamma 90.000000
_cell_volume 2009.270831
_symmetry_space_group_name_H-M "C M C A"
_symmetry_group_IT_number 64
_symmetry_cell_setting 'orthorhombic'
loop_
_space_group_symop_operation_xyz
x,y,z
-x,1/2-y,1/2+z
x,-y,-z
-x,1/2+y,1/2-z
-x,-y,-z
x,1/2+y,1/2-z
-x,y,z
x,1/2-y,1/2+z
1/2+x,1/2+y,z
1/2-x,-y,1/2+z
1/2+x,1/2-y,-z
1/2-x,y,1/2-z
1/2-x,1/2-y,-z
1/2+x,y,1/2-z
1/2-x,1/2+y,z
1/2+x,-y,1/2+z
loop_
_atom_site_type_symbol
_atom_site_label
_atom_site_fract_x
_atom_site_fract_y
_atom_site_fract_z
Si Si1 0.656873 0.600962 0.414182
Si Si2 0.250000 0.539274 0.750000
Si Si3 0.834682 0.795477 0.425505
Si Si4 0.500000 0.500000 0.000000
O O1 0.500000 0.590796 0.360566
O O2 0.750000 0.587040 0.250000
O O3 0.689674 0.573287 0.594218
O O4 0.671351 0.658116 0.449250
O O5 0.124181 0.511751 0.650610
O O6 0.750000 0.809266 0.250000
O O7 0.750000 0.750000 0.500000
O O8 0.000000 0.784604 0.393382
#
# Coordination Sequence:
#
# PCOD9481997 Si02
#       4
#    16   8  16   4
#     4  11  26  46  76 109 154 204 256 315 395 469
#     4  12  28  54  78 120 148 204 256 336 398 486
#     4  11  23  41  66 105 151 202 258 316 377 455
#     4  12  32  52  88 112 166 194 272 334 416 482
#
# _framework density 21.898489999999999
#
# number of rings (size 3 to 8) (size 9 to 14) (size 15 to 20)
#    0.000    0.727    3.636    2.182    5.091    6.545 
#    0.000    0.000    0.000    0.000    0.000    0.000 
#    0.000    0.000    0.000    0.000    0.000    0.000 
#
# Total GULP energy -122531.421981 kJ/mol
# GULP energy per Si atom -5569.610090 kJ/mol
# Density = 2.184865 g / cm^3
# Si number density = 21.898490 Si / 1000 Ang^3
#
#
#
# Elastic Constant Matrix: (Units=GPa)
#
#
# Indices 1 2 3 4 5 6 
#
# 1 249.7971 86.3879 116.0848 0.0000 0.0000 0.0000
# 2 86.3879 103.9627 48.7403 0.0000 0.0000 0.0000
# 3 116.0848 48.7403 170.7156 0.0000 0.0000 0.0000
# 4 0.0000 0.0000 0.0000 36.0295 0.0000 0.0000
# 5 0.0000 0.0000 0.0000 0.0000 61.4540 0.0000
# 6 0.0000 0.0000 0.0000 0.0000 0.0000 -4.3747
#
#
#
# Elastic Compliance Matrix: (Units=1/GPa)
#
#
# Indices 1 2 3 4 5 6 
#
# 1 0.007175 -0.004242 -0.003668 0.000000 0.000000 0.000000
# 2 -0.004242 0.013614 -0.001002 0.000000 0.000000 0.000000
# 3 -0.003668 -0.001002 0.008638 0.000000 0.000000 0.000000
# 4 0.000000 0.000000 0.000000 0.027755 0.000000 0.000000
# 5 0.000000 0.000000 0.000000 0.000000 0.016272 0.000000
# 6 0.000000 0.000000 0.000000 0.000000 0.000000 -0.228589
#
#
# Mechanical properties :
#
#
# Convention : Reuss Voigt Hill
#
# Bulk Modulus (GPa) = 86.18973 114.10014 100.14493
# Shear Modulus (GPa) = -37.46905 36.83926 -0.31490
#
# Velocity S-wave (km/s) = -4.14095 4.10600 -0.37962
# Velocity P-wave (km/s) = 4.07196 8.64270 6.75563
#
# Compressibility (1/GPa) = 0.01160231
#
# Stress axis : x y z
#
# Youngs Moduli (GPa) = 139.37683 73.45446 115.77210
#
# Poissons Ratio (x) = 0.31163 0.42460
# Poissons Ratio (y) = 0.59130 0.11600
# Poissons Ratio (z) = 0.51117 0.07360
#
# Static dielectric constant tensor:
#      x y z
#    x 1.711520 0.000000 0.000000 
#    y 0.000000 1.911870 0.000000 
#    z 0.000000 0.000000 1.776480 
# 
# From -- ./inp_files/3879.got.cif
#   From: 2010.05.17/outbox.cif.g08.bks.cpg/sg64_2_cif.got.tgz:3879.got - 2010.06.03 16:29:19.
