data_PCOD9481860
_publ_section_title
;
Structure prediction by ZEFSAII (Michael W. Deem and Ramdas Pophale) SiO2 
 PCOD9481860
Probable space group: C M C A
;
_chemical_formula_sum "Si O2"
_cell_formula_units_Z 48
_cell_length_a 12.415876
_cell_length_b 7.298124
_cell_length_c 19.116067
_cell_angle_alpha 90.000000
_cell_angle_beta 90.000000
_cell_angle_gamma 90.000000
_cell_volume 1732.156583
_symmetry_space_group_name_H-M "C M C A"
_symmetry_group_IT_number 64
_symmetry_cell_setting 'orthorhombic'
loop_
_space_group_symop_operation_xyz
x,y,z
-x,1/2-y,1/2+z
x,-y,-z
-x,1/2+y,1/2-z
-x,-y,-z
x,1/2+y,1/2-z
-x,y,z
x,1/2-y,1/2+z
1/2+x,1/2+y,z
1/2-x,-y,1/2+z
1/2+x,1/2-y,-z
1/2-x,y,1/2-z
1/2-x,1/2-y,-z
1/2+x,y,1/2-z
1/2-x,1/2+y,z
1/2+x,-y,1/2+z
loop_
_atom_site_type_symbol
_atom_site_label
_atom_site_fract_x
_atom_site_fract_y
_atom_site_fract_z
Si Si1 0.653973 0.073041 0.343662
Si Si2 0.379654 0.285595 0.483819
Si Si3 0.113113 0.657026 0.184440
O O1 0.616630 0.194737 0.407243
O O2 0.783313 0.058331 0.345045
O O3 0.624856 0.159559 0.268534
O O4 0.615554 0.864478 0.342450
O O5 0.385219 0.500000 0.500000
O O6 0.500000 0.220612 0.514018
O O7 0.250000 0.250000 0.500000
O O8 0.000000 0.567856 0.166577
#
# Coordination Sequence:
#
# PCOD9481860 Si02
#       3
#    16  16  16
#     4  11  23  40  63  95 126 162 212 258 318 385
#     4  11  25  44  66  93 129 173 219 266 315 376
#     4  11  22  38  62  89 123 160 199 260 323 381
#
# _framework density 27.711120999999999
#
# number of rings (size 3 to 8) (size 9 to 14) (size 15 to 20)
#    0.000    1.000    0.000    9.000    0.000    2.000 
#    0.000    6.667    0.000    0.000    0.000    0.000 
#    0.000    0.000    0.000    0.000    0.000    0.000 
#
# Total GULP energy -134252.176118 kJ/mol
# GULP energy per Si atom -5593.840672 kJ/mol
# Density = 2.764805 g / cm^3
# Si number density = 27.711121 Si / 1000 Ang^3
#
#
#
# Elastic Constant Matrix: (Units=GPa)
#
#
# Indices 1 2 3 4 5 6 
#
# 1 351.6226 53.3954 49.0380 0.0000 0.0000 0.0000
# 2 53.3954 91.7771 -5.3005 0.0000 0.0000 0.0000
# 3 49.0380 -5.3005 93.2378 0.0000 0.0000 0.0000
# 4 0.0000 0.0000 0.0000 29.4731 0.0000 0.0000
# 5 0.0000 0.0000 0.0000 0.0000 17.9291 0.0000
# 6 0.0000 0.0000 0.0000 0.0000 0.0000 58.3913
#
#
#
# Elastic Compliance Matrix: (Units=1/GPa)
#
#
# Indices 1 2 3 4 5 6 
#
# 1 0.003433 -0.002108 -0.001925 0.000000 0.000000 0.000000
# 2 -0.002108 0.012227 0.001804 0.000000 0.000000 0.000000
# 3 -0.001925 0.001804 0.011840 0.000000 0.000000 0.000000
# 4 0.000000 0.000000 0.000000 0.033929 0.000000 0.000000
# 5 0.000000 0.000000 0.000000 0.000000 0.055775 0.000000
# 6 0.000000 0.000000 0.000000 0.000000 0.000000 0.017126
#
#
# Mechanical properties :
#
#
# Convention : Reuss Voigt Hill
#
# Bulk Modulus (GPa) = 43.40171 81.21148 62.30660
# Shear Modulus (GPa) = 34.13683 50.45902 42.29793
#
# Velocity S-wave (km/s) = 3.51363 4.27182 3.91114
# Velocity P-wave (km/s) = 5.67071 7.32812 6.55204
#
# Compressibility (1/GPa) = 0.02304057
#
# Stress axis : x y z
#
# Youngs Moduli (GPa) = 291.32439 81.78812 84.45682
#
# Poissons Ratio (x) = 0.17243 0.16260
# Poissons Ratio (y) = 0.61419 -0.15235
# Poissons Ratio (z) = 0.56086 -0.14754
#
# Static dielectric constant tensor:
#      x y z
#    x 2.183860 0.000000 0.000000 
#    y 0.000000 2.035500 0.000000 
#    z 0.000000 0.000000 2.188180 
# 
# From -- ./inp_files/43637.got.cif
#   From: 2010.05.17/outbox.cif.g08.bks.cpg/sg64_22_cif.got.tgz:43637.got - 2010.06.03 16:29:19.
