data_PCOD9481803
_publ_section_title
;
Structure prediction by ZEFSAII (Michael W. Deem and Ramdas Pophale) SiO2 
 PCOD9481803
Probable space group: C M C A
;
_chemical_formula_sum "Si O2"
_cell_formula_units_Z 112
_cell_length_a 30.557173
_cell_length_b 15.822795
_cell_length_c 11.165855
_cell_angle_alpha 90.000000
_cell_angle_beta 90.000000
_cell_angle_gamma 90.000000
_cell_volume 5398.689599
_symmetry_space_group_name_H-M "C M C A"
_symmetry_group_IT_number 64
_symmetry_cell_setting 'orthorhombic'
loop_
_space_group_symop_operation_xyz
x,y,z
-x,1/2-y,1/2+z
x,-y,-z
-x,1/2+y,1/2-z
-x,-y,-z
x,1/2+y,1/2-z
-x,y,z
x,1/2-y,1/2+z
1/2+x,1/2+y,z
1/2-x,-y,1/2+z
1/2+x,1/2-y,-z
1/2-x,y,1/2-z
1/2-x,1/2-y,-z
1/2+x,y,1/2-z
1/2-x,1/2+y,z
1/2+x,-y,1/2+z
loop_
_atom_site_type_symbol
_atom_site_label
_atom_site_fract_x
_atom_site_fract_y
_atom_site_fract_z
Si Si1 0.548456 0.884983 0.458783
Si Si2 0.829690 0.251521 0.530816
Si Si3 0.450564 0.302213 0.641112
Si Si4 0.604814 0.131709 0.335969
Si Si5 0.798225 0.675443 0.720093
Si Si6 0.894070 0.404948 0.023198
Si Si7 0.880469 0.447253 0.278877
O O1 0.500000 0.915013 0.427647
O O2 0.550167 0.785186 0.430215
O O3 0.560492 0.895231 0.596821
O O4 0.587551 0.927757 0.387505
O O5 0.862953 0.326273 0.568398
O O6 0.803181 0.277391 0.409941
O O7 0.807098 0.232375 0.660218
O O8 0.857688 0.167082 0.502285
O O9 0.500000 0.313381 0.686623
O O10 0.412395 0.300690 0.740317
O O11 0.435653 0.378557 0.555129
O O12 0.624952 0.048561 0.275423
O O13 0.750000 0.641235 0.750000
O O14 0.834667 0.601966 0.714885
O O15 0.904504 0.408779 0.163276
O O16 0.877891 0.500000 0.000000
#
# Coordination Sequence:
#
# PCOD9481803 Si02
#       7
#    16  16  16  16  16  16  16
#     4  11  24  40  62  93 130 172 225 273 321 391
#     4  11  23  42  75  96 130 178 221 276 340 419
#     4  11  23  39  60  91 130 177 230 285 332 398
#     4  12  22  41  65  92 131 177 227 260 343 400
#     4  11  24  45  71 103 134 167 223 281 344 411
#     4  11  21  41  64  90 127 168 225 271 337 390
#     4  11  24  40  66  94 130 176 209 280 335 403
#
# _framework density 20.745774000000001
#
# number of rings (size 3 to 8) (size 9 to 14) (size 15 to 20)
#    0.000    0.857    4.286    3.857    0.000    2.571 
#    0.000    0.714   12.571    0.000    0.000    0.000 
#    0.000    0.000    0.000    0.000    0.000    0.000 
#
# Total GULP energy -312359.208642 kJ/mol
# GULP energy per Si atom -5577.843011 kJ/mol
# Density = 2.069856 g / cm^3
# Si number density = 20.745774 Si / 1000 Ang^3
#
#
#
# Elastic Constant Matrix: (Units=GPa)
#
#
# Indices 1 2 3 4 5 6 
#
# 1 88.8852 29.8810 23.7920 0.0000 0.0000 0.0000
# 2 29.8810 98.8806 21.6197 0.0000 0.0000 0.0000
# 3 23.7920 21.6197 93.9942 0.0000 0.0000 0.0000
# 4 0.0000 0.0000 0.0000 32.0739 0.0000 0.0000
# 5 0.0000 0.0000 0.0000 0.0000 28.3172 0.0000
# 6 0.0000 0.0000 0.0000 0.0000 0.0000 3.1688
#
#
#
# Elastic Compliance Matrix: (Units=1/GPa)
#
#
# Indices 1 2 3 4 5 6 
#
# 1 0.013069 -0.003397 -0.002527 0.000000 0.000000 0.000000
# 2 -0.003397 0.011532 -0.001793 0.000000 0.000000 0.000000
# 3 -0.002527 -0.001793 0.011691 0.000000 0.000000 0.000000
# 4 0.000000 0.000000 0.000000 0.031178 0.000000 0.000000
# 5 0.000000 0.000000 0.000000 0.000000 0.035314 0.000000
# 6 0.000000 0.000000 0.000000 0.000000 0.000000 0.315580
#
#
# Mechanical properties :
#
#
# Convention : Reuss Voigt Hill
#
# Bulk Modulus (GPa) = 47.94093 48.03837 47.98965
# Shear Modulus (GPa) = 11.34433 26.47646 18.91039
#
# Velocity S-wave (km/s) = 2.34097 3.57632 3.02243
# Velocity P-wave (km/s) = 5.51958 6.34503 5.94665
#
# Compressibility (1/GPa) = 0.02085900
#
# Stress axis : x y z
#
# Youngs Moduli (GPa) = 76.51858 86.71791 85.53713
#
# Poissons Ratio (x) = 0.29457 0.21612
# Poissons Ratio (y) = 0.25992 0.15333
# Poissons Ratio (z) = 0.19334 0.15545
#
# Static dielectric constant tensor:
#      x y z
#    x 1.735880 0.000000 0.000000 
#    y 0.000000 1.758860 0.000000 
#    z 0.000000 0.000000 1.820460 
# 
# From -- ./inp_files/19854.got.cif
#   From: 2010.05.17/outbox.cif.g08.bks.cpg/sg64_10_cif.got.tgz:19854.got - 2010.06.03 16:29:19.
