data_PCOD9481379
_publ_section_title
;
Structure prediction by ZEFSAII (Michael W. Deem and Ramdas Pophale) SiO2 
 PCOD9481379
Probable space group: C M C A
;
_chemical_formula_sum "Si O2"
_cell_formula_units_Z 112
_cell_length_a 23.297685
_cell_length_b 14.075289
_cell_length_c 15.497942
_cell_angle_alpha 90.000000
_cell_angle_beta 90.000000
_cell_angle_gamma 90.000000
_cell_volume 5082.110703
_symmetry_space_group_name_H-M "C M C A"
_symmetry_group_IT_number 64
_symmetry_cell_setting 'orthorhombic'
loop_
_space_group_symop_operation_xyz
x,y,z
-x,1/2-y,1/2+z
x,-y,-z
-x,1/2+y,1/2-z
-x,-y,-z
x,1/2+y,1/2-z
-x,y,z
x,1/2-y,1/2+z
1/2+x,1/2+y,z
1/2-x,-y,1/2+z
1/2+x,1/2-y,-z
1/2-x,y,1/2-z
1/2-x,1/2-y,-z
1/2+x,y,1/2-z
1/2-x,1/2+y,z
1/2+x,-y,1/2+z
loop_
_atom_site_type_symbol
_atom_site_label
_atom_site_fract_x
_atom_site_fract_y
_atom_site_fract_z
Si Si1 0.064519 0.935993 0.915020
Si Si2 0.752328 0.494254 0.098893
Si Si3 0.117063 0.040408 0.404869
Si Si4 0.258940 0.720557 0.901306
Si Si5 0.066362 0.079168 0.752323
Si Si6 0.831450 0.365450 0.665625
Si Si7 0.881468 0.770872 0.668526
O O1 0.070234 0.004625 0.831816
O O2 0.000000 0.893652 0.913692
O O3 0.118479 0.866078 0.906428
O O4 0.069163 0.000000 0.000000
O O5 0.813040 0.548273 0.100297
O O6 0.762353 0.384950 0.116985
O O7 0.703487 0.536445 0.160080
O O8 0.730190 0.500000 0.000000
O O9 0.098542 0.966572 0.329921
O O10 0.104086 0.000000 0.500000
O O11 0.091259 0.146851 0.392003
O O12 0.218454 0.790308 0.849114
O O13 0.325275 0.728884 0.877268
O O14 0.250000 0.750000 0.000000
O O15 0.085879 0.181293 0.790117
O O16 0.000000 0.087175 0.727538
O O17 0.861616 0.337491 0.752867
#
# Coordination Sequence:
#
# PCOD9481379 Si02
#       7
#    16  16  16  16  16  16  16
#     4  10  23  45  74 105 139 182 238 300 364 431
#     4  11  22  42  67  99 140 186 226 290 360 435
#     4  11  24  48  73 104 149 193 243 304 372 448
#     4  12  24  40  66 103 142 185 236 287 362 443
#     4  11  26  49  75 104 141 190 243 306 370 436
#     4  12  23  41  69 103 138 190 233 282 366 432
#     4  12  26  43  68 106 145 186 243 306 362 437
#
# _framework density 22.038087999999998
#
# number of rings (size 3 to 8) (size 9 to 14) (size 15 to 20)
#    0.000    0.714    4.286    3.429    2.000    1.429 
#    0.000    0.000    0.000    0.000    0.000    0.000 
#    0.000    0.000    0.000    0.000    0.000    0.000 
#
# Total GULP energy -313078.947696 kJ/mol
# GULP energy per Si atom -5590.695495 kJ/mol
# Density = 2.198793 g / cm^3
# Si number density = 22.038088 Si / 1000 Ang^3
#
#
#
# Elastic Constant Matrix: (Units=GPa)
#
#
# Indices 1 2 3 4 5 6 
#
# 1 74.9441 11.8121 23.0891 0.0000 0.0000 0.0000
# 2 11.8121 81.1546 -8.8160 0.0000 0.0000 0.0000
# 3 23.0891 -8.8160 72.5781 0.0000 0.0000 0.0000
# 4 0.0000 0.0000 0.0000 25.5882 0.0000 0.0000
# 5 0.0000 0.0000 0.0000 0.0000 21.8503 0.0000
# 6 0.0000 0.0000 0.0000 0.0000 0.0000 12.8444
#
#
#
# Elastic Compliance Matrix: (Units=1/GPa)
#
#
# Indices 1 2 3 4 5 6 
#
# 1 0.015401 -0.002811 -0.005241 0.000000 0.000000 0.000000
# 2 -0.002811 0.013000 0.002473 0.000000 0.000000 0.000000
# 3 -0.005241 0.002473 0.015746 0.000000 0.000000 0.000000
# 4 0.000000 0.000000 0.000000 0.039080 0.000000 0.000000
# 5 0.000000 0.000000 0.000000 0.000000 0.045766 0.000000
# 6 0.000000 0.000000 0.000000 0.000000 0.000000 0.077855
#
#
# Mechanical properties :
#
#
# Convention : Reuss Voigt Hill
#
# Bulk Modulus (GPa) = 30.31233 31.20523 30.75878
# Shear Modulus (GPa) = 21.83390 25.56270 23.69830
#
# Velocity S-wave (km/s) = 3.15101 3.40947 3.28279
# Velocity P-wave (km/s) = 5.19835 5.44883 5.32506
#
# Compressibility (1/GPa) = 0.03298987
#
# Stress axis : x y z
#
# Youngs Moduli (GPa) = 64.93104 76.92318 63.50835
#
# Poissons Ratio (x) = 0.21623 0.33284
# Poissons Ratio (y) = 0.18252 -0.15708
# Poissons Ratio (z) = 0.34030 -0.19026
#
# Static dielectric constant tensor:
#      x y z
#    x 1.622050 0.000000 0.000000 
#    y 0.000000 1.837480 0.000000 
#    z 0.000000 0.000000 5.107310 
# 
# From -- ./inp_files/27438.got.cif
#   From: 2010.05.17/outbox.cif.g08.bks.cpg/sg64_14_cif.got.tgz:27438.got - 2010.06.03 16:29:19.
