data_PCOD9481721
_publ_section_title
;
Structure prediction by ZEFSAII (Michael W. Deem and Ramdas Pophale) SiO2 
 PCOD9481721
Probable space group: C M C A
;
_chemical_formula_sum "Si O2"
_cell_formula_units_Z 48
_cell_length_a 13.051196
_cell_length_b 13.402953
_cell_length_c 12.179706
_cell_angle_alpha 90.000000
_cell_angle_beta 90.000000
_cell_angle_gamma 90.000000
_cell_volume 2130.529793
_symmetry_space_group_name_H-M "C M C A"
_symmetry_group_IT_number 64
_symmetry_cell_setting 'orthorhombic'
loop_
_space_group_symop_operation_xyz
x,y,z
-x,1/2-y,1/2+z
x,-y,-z
-x,1/2+y,1/2-z
-x,-y,-z
x,1/2+y,1/2-z
-x,y,z
x,1/2-y,1/2+z
1/2+x,1/2+y,z
1/2-x,-y,1/2+z
1/2+x,1/2-y,-z
1/2-x,y,1/2-z
1/2-x,1/2-y,-z
1/2+x,y,1/2-z
1/2-x,1/2+y,z
1/2+x,-y,1/2+z
loop_
_atom_site_type_symbol
_atom_site_label
_atom_site_fract_x
_atom_site_fract_y
_atom_site_fract_z
Si Si1 0.322507 0.500000 0.500000
Si Si2 0.823820 0.334037 0.453100
Si Si3 0.000000 0.595816 0.388440
Si Si4 0.000000 0.626071 0.690944
Si Si5 0.500000 0.047943 0.150335
O O1 0.249121 0.571447 0.569250
O O2 0.398960 0.438867 0.578221
O O3 0.750000 0.250000 0.500000
O O4 0.900835 0.360619 0.552732
O O5 0.897618 0.317697 0.348077
O O6 0.000000 0.474849 0.386080
O O7 0.000000 0.614772 0.258263
O O8 0.000000 0.569721 0.807926
#
# Coordination Sequence:
#
# PCOD9481721 Si02
#       5
#     8  16   8   8   8
#     4  11  20  41  56  94 116 161 212 253 298 348
#     4  11  21  36  66  89 119 158 207 248 303 367
#     4   9  19  42  60  85 118 167 197 238 310 358
#     4   9  19  42  60  85 118 167 197 238 310 358
#     4   9  22  35  66  80 126 163 198 257 300 356
#
# _framework density 22.529608
#
# number of rings (size 3 to 8) (size 9 to 14) (size 15 to 20)
#    1.000    1.000    3.333    1.000    0.000   10.667 
#    0.000   10.000    0.000    0.000    0.000    0.000 
#    0.000    0.000    0.000    0.000    0.000    0.000 
#
# Total GULP energy -133862.429193 kJ/mol
# GULP energy per Si atom -5577.601216 kJ/mol
# Density = 2.247833 g / cm^3
# Si number density = 22.529608 Si / 1000 Ang^3
#
#
#
# Elastic Constant Matrix: (Units=GPa)
#
#
# Indices 1 2 3 4 5 6 
#
# 1 159.5837 28.9074 23.0076 0.0000 0.0000 0.0000
# 2 28.9074 49.4355 -15.4222 0.0000 0.0000 0.0000
# 3 23.0076 -15.4222 65.4840 0.0000 0.0000 0.0000
# 4 0.0000 0.0000 0.0000 28.9538 0.0000 0.0000
# 5 0.0000 0.0000 0.0000 0.0000 8.0292 0.0000
# 6 0.0000 0.0000 0.0000 0.0000 0.0000 40.2805
#
#
#
# Elastic Compliance Matrix: (Units=1/GPa)
#
#
# Indices 1 2 3 4 5 6 
#
# 1 0.007951 -0.005958 -0.004197 0.000000 0.000000 0.000000
# 2 -0.005958 0.026298 0.008287 0.000000 0.000000 0.000000
# 3 -0.004197 0.008287 0.018697 0.000000 0.000000 0.000000
# 4 0.000000 0.000000 0.000000 0.034538 0.000000 0.000000
# 5 0.000000 0.000000 0.000000 0.000000 0.124546 0.000000
# 6 0.000000 0.000000 0.000000 0.000000 0.000000 0.024826
#
#
# Mechanical properties :
#
#
# Convention : Reuss Voigt Hill
#
# Bulk Modulus (GPa) = 20.32145 38.60986 29.46565
# Shear Modulus (GPa) = 19.45565 31.32005 25.38785
#
# Velocity S-wave (km/s) = 2.94183 3.73255 3.36052
# Velocity P-wave (km/s) = 4.53636 5.97917 5.30703
#
# Compressibility (1/GPa) = 0.04920909
#
# Stress axis : x y z
#
# Youngs Moduli (GPa) = 125.77543 38.02600 53.48435
#
# Poissons Ratio (x) = 0.22657 0.22446
# Poissons Ratio (y) = 0.74942 -0.44322
# Poissons Ratio (z) = 0.52784 -0.31512
#
# Static dielectric constant tensor:
#      x y z
#    x 1.801080 0.000000 0.000000 
#    y 0.000000 1.954630 0.000000 
#    z 0.000000 0.000000 1.882500 
# 
# From -- ./inp_files/21691.got.cif
#   From: 2010.05.17/outbox.cif.g08.bks.cpg/sg64_11_cif.got.tgz:21691.got - 2010.06.03 16:29:19.
