data_PCOD9481814
_publ_section_title
;
Structure prediction by ZEFSAII (Michael W. Deem and Ramdas Pophale) SiO2 
 PCOD9481814
Probable space group: C M C A
;
_chemical_formula_sum "Si O2"
_cell_formula_units_Z 96
_cell_length_a 16.511575
_cell_length_b 24.140982
_cell_length_c 11.436477
_cell_angle_alpha 90.000000
_cell_angle_beta 90.000000
_cell_angle_gamma 90.000000
_cell_volume 4558.644175
_symmetry_space_group_name_H-M "C M C A"
_symmetry_group_IT_number 64
_symmetry_cell_setting 'orthorhombic'
loop_
_space_group_symop_operation_xyz
x,y,z
-x,1/2-y,1/2+z
x,-y,-z
-x,1/2+y,1/2-z
-x,-y,-z
x,1/2+y,1/2-z
-x,y,z
x,1/2-y,1/2+z
1/2+x,1/2+y,z
1/2-x,-y,1/2+z
1/2+x,1/2-y,-z
1/2-x,y,1/2-z
1/2-x,1/2-y,-z
1/2+x,y,1/2-z
1/2-x,1/2+y,z
1/2+x,-y,1/2+z
loop_
_atom_site_type_symbol
_atom_site_label
_atom_site_fract_x
_atom_site_fract_y
_atom_site_fract_z
Si Si1 0.407793 0.639580 0.073836
Si Si2 0.406736 0.445011 0.560656
Si Si3 0.328086 0.870698 0.110883
Si Si4 0.143273 0.089523 0.851693
Si Si5 0.339732 0.034034 0.305758
Si Si6 0.201727 0.745138 0.374630
O O1 0.500000 0.638112 0.118982
O O2 0.353310 0.587923 0.116606
O O3 0.361831 0.695519 0.108518
O O4 0.409603 0.627608 0.935290
O O5 0.370939 0.500000 0.500000
O O6 0.500000 0.439406 0.526206
O O7 0.358986 0.392046 0.513350
O O8 0.398447 0.455391 0.696746
O O9 0.234621 0.888528 0.125421
O O10 0.374608 0.902017 0.214788
O O11 0.337070 0.805965 0.133260
O O12 0.140662 0.023590 0.869279
O O13 0.250000 0.029999 0.250000
O O14 0.250000 0.736868 0.250000
O O15 0.250000 0.750000 0.500000
#
# Coordination Sequence:
#
# PCOD9481814 Si02
#       6
#    16  16  16  16  16  16
#     4  12  28  44  65 104 145 184 229 290 371 432
#     4  11  23  38  60  96 137 172 214 277 349 413
#     4  11  21  43  70 100 125 173 241 293 341 415
#     4  11  21  43  69  99 133 178 233 288 346 424
#     4  12  23  41  70  98 135 181 231 286 347 423
#     4  12  25  48  76 100 136 187 245 302 349 420
#
# _framework density 21.058893999999999
#
# number of rings (size 3 to 8) (size 9 to 14) (size 15 to 20)
#    0.000    0.500    6.667    2.500    2.333    3.333 
#    0.000    2.500    0.000    0.000    0.000    0.000 
#    0.000    0.000    0.000    0.000    0.000    0.000 
#
# Total GULP energy -268057.216275 kJ/mol
# GULP energy per Si atom -5584.525339 kJ/mol
# Density = 2.101096 g / cm^3
# Si number density = 21.058894 Si / 1000 Ang^3
#
#
#
# Elastic Constant Matrix: (Units=GPa)
#
#
# Indices 1 2 3 4 5 6 
#
# 1 67.5466 42.1719 18.9479 0.0000 0.0000 0.0000
# 2 42.1719 174.3940 32.6767 0.0000 0.0000 0.0000
# 3 18.9479 32.6767 85.0546 0.0000 0.0000 0.0000
# 4 0.0000 0.0000 0.0000 38.4889 0.0000 0.0000
# 5 0.0000 0.0000 0.0000 0.0000 20.3340 0.0000
# 6 0.0000 0.0000 0.0000 0.0000 0.0000 8.0162
#
#
#
# Elastic Compliance Matrix: (Units=1/GPa)
#
#
# Indices 1 2 3 4 5 6 
#
# 1 0.017920 -0.003864 -0.002508 0.000000 0.000000 0.000000
# 2 -0.003864 0.007012 -0.001833 0.000000 0.000000 0.000000
# 3 -0.002508 -0.001833 0.013020 0.000000 0.000000 0.000000
# 4 0.000000 0.000000 0.000000 0.025982 0.000000 0.000000
# 5 0.000000 0.000000 0.000000 0.000000 0.049179 0.000000
# 6 0.000000 0.000000 0.000000 0.000000 0.000000 0.124748
#
#
# Mechanical properties :
#
#
# Convention : Reuss Voigt Hill
#
# Bulk Modulus (GPa) = 46.41852 57.17649 51.79750
# Shear Modulus (GPa) = 19.12404 28.91437 24.01921
#
# Velocity S-wave (km/s) = 3.01678 3.70945 3.38090
# Velocity P-wave (km/s) = 5.85019 6.74955 6.31590
#
# Compressibility (1/GPa) = 0.02154313
#
# Stress axis : x y z
#
# Youngs Moduli (GPa) = 55.80272 142.61431 76.80429
#
# Poissons Ratio (x) = 0.55100 0.19261
# Poissons Ratio (y) = 0.21560 0.14080
# Poissons Ratio (z) = 0.13994 0.26144
#
# Static dielectric constant tensor:
#      x y z
#    x 1.817090 0.000000 0.000000 
#    y 0.000000 1.732390 0.000000 
#    z 0.000000 0.000000 1.874550 
# 
# From -- ./inp_files/16199.got.cif
#   From: 2010.05.17/outbox.cif.g08.bks.cpg/sg64_9_cif.got.tgz:16199.got - 2010.06.03 16:29:19.
