data_PCOD9481846
_publ_section_title
;
Structure prediction by ZEFSAII (Michael W. Deem and Ramdas Pophale) SiO2 
 PCOD9481846
Probable space group: C M C A
;
_chemical_formula_sum "Si O2"
_cell_formula_units_Z 96
_cell_length_a 22.505255
_cell_length_b 9.196771
_cell_length_c 25.114099
_cell_angle_alpha 90.000000
_cell_angle_beta 90.000000
_cell_angle_gamma 90.000000
_cell_volume 5198.007631
_symmetry_space_group_name_H-M "C M C A"
_symmetry_group_IT_number 64
_symmetry_cell_setting 'orthorhombic'
loop_
_space_group_symop_operation_xyz
x,y,z
-x,1/2-y,1/2+z
x,-y,-z
-x,1/2+y,1/2-z
-x,-y,-z
x,1/2+y,1/2-z
-x,y,z
x,1/2-y,1/2+z
1/2+x,1/2+y,z
1/2-x,-y,1/2+z
1/2+x,1/2-y,-z
1/2-x,y,1/2-z
1/2-x,1/2-y,-z
1/2+x,y,1/2-z
1/2-x,1/2+y,z
1/2+x,-y,1/2+z
loop_
_atom_site_type_symbol
_atom_site_label
_atom_site_fract_x
_atom_site_fract_y
_atom_site_fract_z
Si Si1 0.566088 0.171318 0.003209
Si Si2 0.069573 0.820527 0.185234
Si Si3 0.359183 0.625470 0.918589
Si Si4 0.381788 0.786075 0.594862
Si Si5 0.229059 0.130434 0.541086
Si Si6 0.569149 0.337444 0.792857
O O1 0.500000 0.189855 0.026574
O O2 0.566978 0.223187 0.942340
O O3 0.612758 0.272569 0.035150
O O4 0.579884 0.000000 0.000000
O O5 0.113817 0.807731 0.135500
O O6 0.086750 0.720788 0.235085
O O7 0.000000 0.791404 0.170666
O O8 0.072476 0.988274 0.203949
O O9 0.379228 0.457165 0.920119
O O10 0.288072 0.609348 0.923277
O O11 0.324334 0.694448 0.576085
O O12 0.394061 0.775923 0.657427
O O13 0.250000 0.250000 0.500000
O O14 0.214364 0.000000 0.500000
O O15 0.500000 0.295520 0.800343
#
# Coordination Sequence:
#
# PCOD9481846 Si02
#       6
#    16  16  16  16  16  16
#     4  11  23  35  52  84 118 145 184 238 292 347
#     4   9  19  37  60  85 113 147 189 237 293 353
#     4  11  22  38  59  82 112 155 196 235 290 352
#     4  11  22  37  59  83 112 153 196 236 289 351
#     4  12  22  39  59  84 117 155 194 238 289 346
#     4   9  19  37  59  84 113 147 189 238 293 351
#
# _framework density 18.468613000000001
#
# number of rings (size 3 to 8) (size 9 to 14) (size 15 to 20)
#    0.000    1.500    3.333    2.000    0.000    4.000 
#    0.000    4.167    0.000    4.000    0.000    0.000 
#    0.000    0.000    0.000    0.000    0.000    0.000 
#
# Total GULP energy -267566.856631 kJ/mol
# GULP energy per Si atom -5574.309513 kJ/mol
# Density = 1.842658 g / cm^3
# Si number density = 18.468613 Si / 1000 Ang^3
#
#
#
# Elastic Constant Matrix: (Units=GPa)
#
#
# Indices 1 2 3 4 5 6 
#
# 1 91.7955 9.7256 22.4915 0.0000 0.0000 0.0000
# 2 9.7256 40.4819 3.6450 0.0000 0.0000 0.0000
# 3 22.4915 3.6450 73.9967 0.0000 0.0000 0.0000
# 4 0.0000 0.0000 0.0000 33.6116 0.0000 0.0000
# 5 0.0000 0.0000 0.0000 0.0000 34.1784 0.0000
# 6 0.0000 0.0000 0.0000 0.0000 0.0000 9.7683
#
#
#
# Elastic Compliance Matrix: (Units=1/GPa)
#
#
# Indices 1 2 3 4 5 6 
#
# 1 0.012031 -0.002573 -0.003530 0.000000 0.000000 0.000000
# 2 -0.002573 0.025363 -0.000467 0.000000 0.000000 0.000000
# 3 -0.003530 -0.000467 0.014610 0.000000 0.000000 0.000000
# 4 0.000000 0.000000 0.000000 0.029752 0.000000 0.000000
# 5 0.000000 0.000000 0.000000 0.000000 0.029258 0.000000
# 6 0.000000 0.000000 0.000000 0.000000 0.000000 0.102372
#
#
# Mechanical properties :
#
#
# Convention : Reuss Voigt Hill
#
# Bulk Modulus (GPa) = 25.73103 30.88870 28.30986
# Shear Modulus (GPa) = 20.87854 26.87248 23.87551
#
# Velocity S-wave (km/s) = 3.36592 3.81863 3.59940
# Velocity P-wave (km/s) = 5.39152 6.01696 5.71281
#
# Compressibility (1/GPa) = 0.03886358
#
# Stress axis : x y z
#
# Youngs Moduli (GPa) = 83.11649 39.42821 68.44555
#
# Poissons Ratio (x) = 0.10143 0.24163
# Poissons Ratio (y) = 0.21383 0.03199
# Poissons Ratio (z) = 0.29342 0.01843
#
# Static dielectric constant tensor:
#      x y z
#    x 1.716950 0.000000 0.000000 
#    y 0.000000 1.646510 0.000000 
#    z 0.000000 0.000000 1.616470 
# 
# From -- ./inp_files/46582.got.cif
#   From: 2010.05.17/outbox.cif.g08.bks.cpg/sg64_24_cif.got.tgz:46582.got - 2010.06.03 16:29:19.
