data_PCOD9481404
_publ_section_title
;
Structure prediction by ZEFSAII (Michael W. Deem and Ramdas Pophale) SiO2 
 PCOD9481404
Probable space group: C M C A
;
_chemical_formula_sum "Si O2"
_cell_formula_units_Z 80
_cell_length_a 19.761556
_cell_length_b 11.414486
_cell_length_c 15.941549
_cell_angle_alpha 90.000000
_cell_angle_beta 90.000000
_cell_angle_gamma 90.000000
_cell_volume 3595.903393
_symmetry_space_group_name_H-M "C M C A"
_symmetry_group_IT_number 64
_symmetry_cell_setting 'orthorhombic'
loop_
_space_group_symop_operation_xyz
x,y,z
-x,1/2-y,1/2+z
x,-y,-z
-x,1/2+y,1/2-z
-x,-y,-z
x,1/2+y,1/2-z
-x,y,z
x,1/2-y,1/2+z
1/2+x,1/2+y,z
1/2-x,-y,1/2+z
1/2+x,1/2-y,-z
1/2-x,y,1/2-z
1/2-x,1/2-y,-z
1/2+x,y,1/2-z
1/2-x,1/2+y,z
1/2+x,-y,1/2+z
loop_
_atom_site_type_symbol
_atom_site_label
_atom_site_fract_x
_atom_site_fract_y
_atom_site_fract_z
Si Si1 0.645263 0.912983 0.667979
Si Si2 0.750000 0.430614 0.250000
Si Si3 0.280370 0.207476 0.893560
Si Si4 0.635913 0.325589 0.638483
Si Si5 0.000000 0.974671 0.803318
Si Si6 0.668863 0.500000 0.500000
Si Si7 0.000000 0.763718 0.189170
O O1 0.667950 0.815165 0.601929
O O2 0.643008 0.868116 0.765214
O O3 0.708308 0.000094 0.680035
O O4 0.571638 0.963818 0.649257
O O5 0.700554 0.351438 0.304316
O O6 0.204622 0.256502 0.883813
O O7 0.289135 0.107757 0.961795
O O8 0.629370 0.437254 0.576427
O O9 0.568615 0.248006 0.635911
O O10 0.000000 0.108098 0.766232
O O11 0.000000 0.856153 0.745502
#
# Coordination Sequence:
#
# PCOD9481404 Si02
#       7
#    16   8  16  16   8   8   8
#     4  11  21  38  64  98 131 174 227 282 338 408
#     4  12  18  36  68  92 130 172 224 272 340 404
#     4  12  22  40  67  99 135 173 229 285 343 413
#     4  11  22  41  62  96 135 178 228 283 345 413
#     4  10  24  38  67 104 134 180 234 298 338 406
#     4  12  26  39  68 101 136 180 228 292 352 405
#     4  10  24  41  65  97 142 181 236 287 352 415
#
# _framework density 22.247540000000001
#
# number of rings (size 3 to 8) (size 9 to 14) (size 15 to 20)
#    0.000    0.800    6.000    1.800    2.800    0.400 
#    0.000    1.000    0.000    1.800    0.000    0.000 
#    0.000    0.000    0.000    0.000    0.000    0.000 
#
# Total GULP energy -223000.746476 kJ/mol
# GULP energy per Si atom -5575.018662 kJ/mol
# Density = 2.219690 g / cm^3
# Si number density = 22.247540 Si / 1000 Ang^3
#
#
#
# Elastic Constant Matrix: (Units=GPa)
#
#
# Indices 1 2 3 4 5 6 
#
# 1 114.8652 45.9846 -3.9106 0.0000 0.0000 0.0000
# 2 45.9846 135.1361 24.2357 0.0000 0.0000 0.0000
# 3 -3.9106 24.2357 56.2359 0.0000 0.0000 0.0000
# 4 0.0000 0.0000 0.0000 49.9414 0.0000 0.0000
# 5 0.0000 0.0000 0.0000 0.0000 6.8201 0.0000
# 6 0.0000 0.0000 0.0000 0.0000 0.0000 5.2954
#
#
#
# Elastic Compliance Matrix: (Units=1/GPa)
#
#
# Indices 1 2 3 4 5 6 
#
# 1 0.010377 -0.003967 0.002431 0.000000 0.000000 0.000000
# 2 -0.003967 0.009536 -0.004386 0.000000 0.000000 0.000000
# 3 0.002431 -0.004386 0.019841 0.000000 0.000000 0.000000
# 4 0.000000 0.000000 0.000000 0.020023 0.000000 0.000000
# 5 0.000000 0.000000 0.000000 0.000000 0.146626 0.000000
# 6 0.000000 0.000000 0.000000 0.000000 0.000000 0.188845
#
#
# Mechanical properties :
#
#
# Convention : Reuss Voigt Hill
#
# Bulk Modulus (GPa) = 35.82748 48.76184 42.29466
# Shear Modulus (GPa) = 12.00781 28.40653 20.20717
#
# Velocity S-wave (km/s) = 2.32574 3.57717 3.01705
# Velocity P-wave (km/s) = 4.83230 6.24715 5.58471
#
# Compressibility (1/GPa) = 0.02791154
#
# Stress axis : x y z
#
# Youngs Moduli (GPa) = 96.36891 104.86107 50.39963
#
# Poissons Ratio (x) = 0.41599 -0.12254
# Poissons Ratio (y) = 0.38230 0.22104
# Poissons Ratio (z) = -0.23430 0.45989
#
# Static dielectric constant tensor:
#      x y z
#    x 1.876520 0.000000 0.000000 
#    y 0.000000 1.952730 0.000000 
#    z 0.000000 0.000000 1.855370 
# 
# From -- ./inp_files/34101.got.cif
#   From: 2010.05.17/outbox.cif.g08.bks.cpg/sg64_18_cif.got.tgz:34101.got - 2010.06.03 16:29:19.
