data_PCOD9481045
_publ_section_title
;
Structure prediction by ZEFSAII (Michael W. Deem and Ramdas Pophale) SiO2 
 PCOD9481045
Probable space group: C M C A
;
_chemical_formula_sum "Si O2"
_cell_formula_units_Z 112
_cell_length_a 27.288783
_cell_length_b 11.474481
_cell_length_c 14.400875
_cell_angle_alpha 90.000000
_cell_angle_beta 90.000000
_cell_angle_gamma 90.000000
_cell_volume 4509.268542
_symmetry_space_group_name_H-M "C M C A"
_symmetry_group_IT_number 64
_symmetry_cell_setting 'orthorhombic'
loop_
_space_group_symop_operation_xyz
x,y,z
-x,1/2-y,1/2+z
x,-y,-z
-x,1/2+y,1/2-z
-x,-y,-z
x,1/2+y,1/2-z
-x,y,z
x,1/2-y,1/2+z
1/2+x,1/2+y,z
1/2-x,-y,1/2+z
1/2+x,1/2-y,-z
1/2-x,y,1/2-z
1/2-x,1/2-y,-z
1/2+x,y,1/2-z
1/2-x,1/2+y,z
1/2+x,-y,1/2+z
loop_
_atom_site_type_symbol
_atom_site_label
_atom_site_fract_x
_atom_site_fract_y
_atom_site_fract_z
Si Si1 0.446262 0.761172 0.646851
Si Si2 0.654134 0.631589 0.876623
Si Si3 0.337571 0.756524 0.174706
Si Si4 0.798852 0.827880 0.510327
Si Si5 0.554521 0.333064 0.157219
Si Si6 0.444812 0.384474 0.541274
Si Si7 0.764539 0.955494 0.849391
O O1 0.500000 0.823907 0.657451
O O2 0.390289 0.806076 0.656994
O O3 0.446898 0.666938 0.731267
O O4 0.447033 0.701157 0.546778
O O5 0.660102 0.675696 0.771076
O O6 0.662883 0.742840 0.940313
O O7 0.598121 0.590180 0.883443
O O8 0.696457 0.540140 0.897118
O O9 0.294865 0.660776 0.176192
O O10 0.322593 0.842825 0.090791
O O11 0.750000 0.750000 0.500000
O O12 0.780247 0.924651 0.582701
O O13 0.500000 0.357251 0.121823
O O14 0.568278 0.199105 0.127590
O O15 0.418491 0.500000 0.500000
O O16 0.500000 0.423705 0.567798
O O17 0.750000 0.007668 0.750000
#
# Coordination Sequence:
#
# PCOD9481045 Si02
#       7
#    16  16  16  16  16  16  16
#     4   9  18  36  61  92 136 177 211 267 333 387
#     4  11  23  43  66  93 136 172 217 277 331 400
#     4  10  22  43  64  95 133 170 220 272 332 401
#     4  10  23  41  65  93 126 166 220 275 325 395
#     4   9  19  38  63  94 137 180 211 270 340 392
#     4   9  17  33  62  95 128 172 226 272 319 385
#     4  11  24  42  67  89 123 175 218 273 347 391
#
# _framework density 24.837731999999999
#
# number of rings (size 3 to 8) (size 9 to 14) (size 15 to 20)
#    0.000    2.143    1.429    0.857    4.000    2.286 
#   10.286    0.714    3.143    0.000    0.000    8.000 
#    0.000    0.000    0.000    0.000    0.000    0.000 
#
# Total GULP energy -312394.823581 kJ/mol
# GULP energy per Si atom -5578.478993 kJ/mol
# Density = 2.478120 g / cm^3
# Si number density = 24.837732 Si / 1000 Ang^3
#
#
#
# Elastic Constant Matrix: (Units=GPa)
#
#
# Indices 1 2 3 4 5 6 
#
# 1 97.8886 8.3936 0.5544 0.0000 0.0000 0.0000
# 2 8.3936 41.5137 2.9998 0.0000 0.0000 0.0000
# 3 0.5544 2.9998 119.0977 0.0000 0.0000 0.0000
# 4 0.0000 0.0000 0.0000 15.0831 0.0000 0.0000
# 5 0.0000 0.0000 0.0000 0.0000 29.8847 0.0000
# 6 0.0000 0.0000 0.0000 0.0000 0.0000 -5.0845
#
#
#
# Elastic Compliance Matrix: (Units=1/GPa)
#
#
# Indices 1 2 3 4 5 6 
#
# 1 0.010396 -0.002102 0.000005 0.000000 0.000000 0.000000
# 2 -0.002102 0.024557 -0.000609 0.000000 0.000000 0.000000
# 3 0.000005 -0.000609 0.008412 0.000000 0.000000 0.000000
# 4 0.000000 0.000000 0.000000 0.066299 0.000000 0.000000
# 5 0.000000 0.000000 0.000000 0.000000 0.033462 0.000000
# 6 0.000000 0.000000 0.000000 0.000000 0.000000 -0.196675
#
#
# Mechanical properties :
#
#
# Convention : Reuss Voigt Hill
#
# Bulk Modulus (GPa) = 26.34891 31.37730 28.86310
# Shear Modulus (GPa) = -140.90674 24.41346 -58.24664
#
# Velocity S-wave (km/s) = -7.54016 3.13855 -4.84786
# Velocity P-wave (km/s) = 8.07304 5.07882 4.43732
#
# Compressibility (1/GPa) = 0.03795224
#
# Stress axis : x y z
#
# Youngs Moduli (GPa) = 96.19151 40.72081 118.88090
#
# Poissons Ratio (x) = 0.08561 -0.00054
# Poissons Ratio (y) = 0.20222 0.07237
# Poissons Ratio (z) = -0.00044 0.02479
#
# Static dielectric constant tensor:
#      x y z
#    x 2.065080 0.000000 0.000000 
#    y 0.000000 2.008440 0.000000 
#    z 0.000000 0.000000 1.962590 
# 
# From -- ./inp_files/28429.got.cif
#   From: 2010.05.17/outbox.cif.g08.bks.cpg/sg64_15_cif.got.tgz:28429.got - 2010.06.03 16:29:19.
