data_PCOD9481991
_publ_section_title
;
Structure prediction by ZEFSAII (Michael W. Deem and Ramdas Pophale) SiO2 
 PCOD9481991
Probable space group: C M C A
;
_chemical_formula_sum "Si O2"
_cell_formula_units_Z 64
_cell_length_a 24.728994
_cell_length_b 13.549714
_cell_length_c 8.713145
_cell_angle_alpha 90.000000
_cell_angle_beta 90.000000
_cell_angle_gamma 90.000000
_cell_volume 2919.520433
_symmetry_space_group_name_H-M "C M C A"
_symmetry_group_IT_number 64
_symmetry_cell_setting 'orthorhombic'
loop_
_space_group_symop_operation_xyz
x,y,z
-x,1/2-y,1/2+z
x,-y,-z
-x,1/2+y,1/2-z
-x,-y,-z
x,1/2+y,1/2-z
-x,y,z
x,1/2-y,1/2+z
1/2+x,1/2+y,z
1/2-x,-y,1/2+z
1/2+x,1/2-y,-z
1/2-x,y,1/2-z
1/2-x,1/2-y,-z
1/2+x,y,1/2-z
1/2-x,1/2+y,z
1/2+x,-y,1/2+z
loop_
_atom_site_type_symbol
_atom_site_label
_atom_site_fract_x
_atom_site_fract_y
_atom_site_fract_z
Si Si1 0.385179 0.055015 0.855592
Si Si2 0.436913 0.698136 0.884346
Si Si3 0.211147 0.200080 0.624159
Si Si4 0.876742 0.645148 0.300744
O O1 0.423554 0.126570 0.758861
O O2 0.334308 0.119428 0.917192
O O3 0.367363 0.968013 0.740177
O O4 0.410987 0.000000 0.000000
O O5 0.500000 0.699408 0.919787
O O6 0.415692 0.803547 0.825013
O O7 0.403816 0.661319 0.032436
O O8 0.250000 0.652373 0.750000
O O9 0.250000 0.250000 0.500000
O O10 0.177391 0.289827 0.699073
#
# Coordination Sequence:
#
# PCOD9481991 Si02
#       4
#    16  16  16  16
#     4  11  24  41  63  94 130 169 218 272 322 387
#     4  11  24  42  67  95 128 175 219 269 335 394
#     4  11  23  41  64  91 126 169 213 263 326 389
#     4  11  23  43  64  93 132 164 215 275 324 391
#
# _framework density 21.921409000000001
#
# number of rings (size 3 to 8) (size 9 to 14) (size 15 to 20)
#    0.000    1.000    0.000    9.000    0.000    6.500 
#    0.000    0.000    0.000    0.000    0.000    0.000 
#    0.000    0.000    0.000    0.000    0.000    0.000 
#
# Total GULP energy -178936.844409 kJ/mol
# GULP energy per Si atom -5591.776388 kJ/mol
# Density = 2.187151 g / cm^3
# Si number density = 21.921409 Si / 1000 Ang^3
#
#
#
# Elastic Constant Matrix: (Units=GPa)
#
#
# Indices 1 2 3 4 5 6 
#
# 1 81.6848 14.1595 17.5448 0.0000 0.0000 0.0000
# 2 14.1595 116.5642 10.1285 0.0000 0.0000 0.0000
# 3 17.5448 10.1285 98.4691 0.0000 0.0000 0.0000
# 4 0.0000 0.0000 0.0000 45.9008 0.0000 0.0000
# 5 0.0000 0.0000 0.0000 0.0000 19.3173 0.0000
# 6 0.0000 0.0000 0.0000 0.0000 0.0000 5.2070
#
#
#
# Elastic Compliance Matrix: (Units=1/GPa)
#
#
# Indices 1 2 3 4 5 6 
#
# 1 0.012947 -0.001385 -0.002164 0.000000 0.000000 0.000000
# 2 -0.001385 0.008804 -0.000659 0.000000 0.000000 0.000000
# 3 -0.002164 -0.000659 0.010609 0.000000 0.000000 0.000000
# 4 0.000000 0.000000 0.000000 0.021786 0.000000 0.000000
# 5 0.000000 0.000000 0.000000 0.000000 0.051767 0.000000
# 6 0.000000 0.000000 0.000000 0.000000 0.000000 0.192047
#
#
# Mechanical properties :
#
#
# Convention : Reuss Voigt Hill
#
# Bulk Modulus (GPa) = 41.76341 42.26485 42.01413
# Shear Modulus (GPa) = 15.90541 31.07740 23.49140
#
# Velocity S-wave (km/s) = 2.69655 3.76929 3.27711
# Velocity P-wave (km/s) = 5.36544 6.18590 5.79022
#
# Compressibility (1/GPa) = 0.02394441
#
# Stress axis : x y z
#
# Youngs Moduli (GPa) = 77.23742 113.57932 94.26051
#
# Poissons Ratio (x) = 0.15727 0.20402
# Poissons Ratio (y) = 0.10695 0.06211
# Poissons Ratio (z) = 0.16718 0.07484
#
# Static dielectric constant tensor:
#      x y z
#    x 1.744290 0.000000 0.000000 
#    y 0.000000 1.775190 0.000000 
#    z 0.000000 0.000000 1.859840 
# 
# From -- ./inp_files/10866.got.cif
#   From: 2010.05.17/outbox.cif.g08.bks.cpg/sg64_6_cif.got.tgz:10866.got - 2010.06.03 16:29:19.
