data_PCOD9481085
_publ_section_title
;
Structure prediction by ZEFSAII (Michael W. Deem and Ramdas Pophale) SiO2 
 PCOD9481085
Probable space group: C M C A
;
_chemical_formula_sum "Si O2"
_cell_formula_units_Z 64
_cell_length_a 32.828824
_cell_length_b 10.094424
_cell_length_c 8.504011
_cell_angle_alpha 90.000000
_cell_angle_beta 90.000000
_cell_angle_gamma 90.000000
_cell_volume 2818.127783
_symmetry_space_group_name_H-M "C M C A"
_symmetry_group_IT_number 64
_symmetry_cell_setting 'orthorhombic'
loop_
_space_group_symop_operation_xyz
x,y,z
-x,1/2-y,1/2+z
x,-y,-z
-x,1/2+y,1/2-z
-x,-y,-z
x,1/2+y,1/2-z
-x,y,z
x,1/2-y,1/2+z
1/2+x,1/2+y,z
1/2-x,-y,1/2+z
1/2+x,1/2-y,-z
1/2-x,y,1/2-z
1/2-x,1/2-y,-z
1/2+x,y,1/2-z
1/2-x,1/2+y,z
1/2+x,-y,1/2+z
loop_
_atom_site_type_symbol
_atom_site_label
_atom_site_fract_x
_atom_site_fract_y
_atom_site_fract_z
Si Si1 0.844590 0.655030 0.673470
Si Si2 0.546483 0.876491 0.882993
Si Si3 0.206926 0.927114 0.668198
Si Si4 0.402422 0.197660 0.399102
O O1 0.817589 0.532382 0.726145
O O2 0.817720 0.789458 0.655463
O O3 0.868793 0.637813 0.512529
O O4 0.878268 0.686537 0.807049
O O5 0.500000 0.856122 0.830543
O O6 0.576544 0.889961 0.734938
O O7 0.562819 0.755240 0.987538
O O8 0.547925 0.000000 0.000000
O O9 0.250000 0.899843 0.750000
O O10 0.212134 0.000000 0.500000
#
# Coordination Sequence:
#
# PCOD9481085 Si02
#       4
#    16  16  16  16
#     4  11  25  45  73 104 144 192 244 299 358 437
#     4  10  22  43  70 103 144 185 236 294 354 428
#     4  12  28  48  71 106 146 188 242 302 367 434
#     4  10  23  41  70 101 140 188 233 293 354 424
#
# _framework density 22.710114000000001
#
# number of rings (size 3 to 8) (size 9 to 14) (size 15 to 20)
#    0.000    1.250    2.500    1.500   10.500    2.000 
#    4.500    0.000    0.000    7.500    0.000    0.000 
#    0.000    0.000    0.000    0.000    0.000    0.000 
#
# Total GULP energy -179216.627778 kJ/mol
# GULP energy per Si atom -5600.519618 kJ/mol
# Density = 2.265842 g / cm^3
# Si number density = 22.710114 Si / 1000 Ang^3
#
#
#
# Elastic Constant Matrix: (Units=GPa)
#
#
# Indices 1 2 3 4 5 6 
#
# 1 168.0830 69.5166 76.6472 0.0000 0.0000 0.0000
# 2 69.5166 124.6288 41.8395 0.0000 0.0000 0.0000
# 3 76.6472 41.8395 151.9736 0.0000 0.0000 0.0000
# 4 0.0000 0.0000 0.0000 11.2275 0.0000 0.0000
# 5 0.0000 0.0000 0.0000 0.0000 51.5311 0.0000
# 6 0.0000 0.0000 0.0000 0.0000 0.0000 109.1742
#
#
#
# Elastic Compliance Matrix: (Units=1/GPa)
#
#
# Indices 1 2 3 4 5 6 
#
# 1 0.009199 -0.003938 -0.003556 0.000000 0.000000 0.000000
# 2 -0.003938 0.010526 -0.000912 0.000000 0.000000 0.000000
# 3 -0.003556 -0.000912 0.008624 0.000000 0.000000 0.000000
# 4 0.000000 0.000000 0.000000 0.089067 0.000000 0.000000
# 5 0.000000 0.000000 0.000000 0.000000 0.019406 0.000000
# 6 0.000000 0.000000 0.000000 0.000000 0.000000 0.009160
#
#
# Mechanical properties :
#
#
# Convention : Reuss Voigt Hill
#
# Bulk Modulus (GPa) = 86.65820 91.18800 88.92310
# Shear Modulus (GPa) = 30.00478 51.49869 40.75173
#
# Velocity S-wave (km/s) = 3.63879 4.76716 4.24067
# Velocity P-wave (km/s) = 7.47634 8.39888 7.95100
#
# Compressibility (1/GPa) = 0.01153959
#
# Stress axis : x y z
#
# Youngs Moduli (GPa) = 108.70300 94.99924 115.94956
#
# Poissons Ratio (x) = 0.37407 0.41227
# Poissons Ratio (y) = 0.42803 0.10575
# Poissons Ratio (z) = 0.38650 0.08665
#
# Static dielectric constant tensor:
#      x y z
#    x 1.815310 0.000000 0.000000 
#    y 0.000000 1.834620 0.000000 
#    z 0.000000 0.000000 1.848240 
# 
# From -- ./inp_files/10864.got.cif
#   From: 2010.05.17/outbox.cif.g08.bks.cpg/sg64_6_cif.got.tgz:10864.got - 2010.06.03 16:29:19.
