data_PCOD9481111
_publ_section_title
;
Structure prediction by ZEFSAII (Michael W. Deem and Ramdas Pophale) SiO2 
 PCOD9481111
Probable space group: C M C A
;
_chemical_formula_sum "Si O2"
_cell_formula_units_Z 104
_cell_length_a 20.921785
_cell_length_b 26.824426
_cell_length_c 8.864668
_cell_angle_alpha 90.000000
_cell_angle_beta 90.000000
_cell_angle_gamma 90.000000
_cell_volume 4974.983530
_symmetry_space_group_name_H-M "C M C A"
_symmetry_group_IT_number 64
_symmetry_cell_setting 'orthorhombic'
loop_
_space_group_symop_operation_xyz
x,y,z
-x,1/2-y,1/2+z
x,-y,-z
-x,1/2+y,1/2-z
-x,-y,-z
x,1/2+y,1/2-z
-x,y,z
x,1/2-y,1/2+z
1/2+x,1/2+y,z
1/2-x,-y,1/2+z
1/2+x,1/2-y,-z
1/2-x,y,1/2-z
1/2-x,1/2-y,-z
1/2+x,y,1/2-z
1/2-x,1/2+y,z
1/2+x,-y,1/2+z
loop_
_atom_site_type_symbol
_atom_site_label
_atom_site_fract_x
_atom_site_fract_y
_atom_site_fract_z
Si Si1 0.750000 0.307052 0.250000
Si Si2 0.689742 0.360027 0.512735
Si Si3 0.426920 0.199830 0.536147
Si Si4 0.074248 0.116103 0.713677
Si Si5 0.307757 0.966353 0.852638
Si Si6 0.140885 0.275077 0.768382
Si Si7 0.926954 0.998235 0.180092
O O1 0.743739 0.340993 0.397484
O O2 0.810243 0.270475 0.246306
O O3 0.625923 0.370677 0.413332
O O4 0.707870 0.410770 0.594576
O O5 0.674127 0.317197 0.632125
O O6 0.500000 0.197164 0.484869
O O7 0.414864 0.152346 0.643430
O O8 0.415810 0.249236 0.636930
O O9 0.382016 0.204197 0.391240
O O10 0.081451 0.058646 0.763225
O O11 0.000000 0.123602 0.665542
O O12 0.250000 0.986022 0.750000
O O13 0.373779 0.968686 0.760856
O O14 0.314927 0.000000 0.000000
O O15 0.000000 0.013614 0.215498
O O16 0.919120 0.000000 0.000000
#
# Coordination Sequence:
#
# PCOD9481111 Si02
#       7
#     8  16  16  16  16  16  16
#     4  12  26  46  68  92 138 184 230 274 342 416
#     4  12  27  44  71  98 133 182 229 287 340 409
#     4  11  23  42  68 100 139 178 225 282 341 403
#     4  10  22  44  70 100 137 179 224 276 344 409
#     4  12  28  47  70 104 139 182 231 294 354 417
#     4  12  25  43  67 100 133 182 228 279 336 406
#     4  10  23  46  74 102 140 185 232 286 349 424
#
# _framework density 20.904591
#
# number of rings (size 3 to 8) (size 9 to 14) (size 15 to 20)
#    0.000    0.769    4.615    1.385    4.308    4.615 
#    0.000    0.000    0.000    0.000    0.000    0.000 
#    0.000    0.000    0.000    0.000    0.000    0.000 
#
# Total GULP energy -291058.315852 kJ/mol
# GULP energy per Si atom -5597.275305 kJ/mol
# Density = 2.085701 g / cm^3
# Si number density = 20.904591 Si / 1000 Ang^3
#
#
#
# Elastic Constant Matrix: (Units=GPa)
#
#
# Indices 1 2 3 4 5 6 
#
# 1 75.0973 -7.5973 28.5874 0.0000 0.0000 0.0000
# 2 -7.5973 49.8704 -1.2958 0.0000 0.0000 0.0000
# 3 28.5874 -1.2958 80.1952 0.0000 0.0000 0.0000
# 4 0.0000 0.0000 0.0000 30.3409 0.0000 0.0000
# 5 0.0000 0.0000 0.0000 0.0000 35.9653 0.0000
# 6 0.0000 0.0000 0.0000 0.0000 0.0000 18.7586
#
#
#
# Elastic Compliance Matrix: (Units=1/GPa)
#
#
# Indices 1 2 3 4 5 6 
#
# 1 0.015653 0.002241 -0.005544 0.000000 0.000000 0.000000
# 2 0.002241 0.020381 -0.000469 0.000000 0.000000 0.000000
# 3 -0.005544 -0.000469 0.014438 0.000000 0.000000 0.000000
# 4 0.000000 0.000000 0.000000 0.032959 0.000000 0.000000
# 5 0.000000 0.000000 0.000000 0.000000 0.027805 0.000000
# 6 0.000000 0.000000 0.000000 0.000000 0.000000 0.053309
#
#
# Mechanical properties :
#
#
# Convention : Reuss Voigt Hill
#
# Bulk Modulus (GPa) = 23.29521 27.17241 25.23381
# Shear Modulus (GPa) = 26.82420 29.37752 28.10086
#
# Velocity S-wave (km/s) = 3.58603 3.75282 3.67037
# Velocity P-wave (km/s) = 5.32108 5.63957 5.48264
#
# Compressibility (1/GPa) = 0.04292727
#
# Stress axis : x y z
#
# Youngs Moduli (GPa) = 63.88526 49.06509 69.26088
#
# Poissons Ratio (x) = -0.10993 0.38396
# Poissons Ratio (y) = -0.14314 0.03251
# Poissons Ratio (z) = 0.35416 0.02303
#
# Static dielectric constant tensor:
#      x y z
#    x 1.773810 0.000000 0.000000 
#    y 0.000000 1.714730 0.000000 
#    z 0.000000 0.000000 1.718030 
# 
# From -- ./inp_files/8535.got.cif
#   From: 2010.05.17/outbox.cif.g08.bks.cpg/sg64_5_cif.got.tgz:8535.got - 2010.06.03 16:29:19.
