data_PCOD9481850
_publ_section_title
;
Structure prediction by ZEFSAII (Michael W. Deem and Ramdas Pophale) SiO2 
 PCOD9481850
Probable space group: C M C A
;
_chemical_formula_sum "Si O2"
_cell_formula_units_Z 112
_cell_length_a 15.588443
_cell_length_b 24.782436
_cell_length_c 14.694382
_cell_angle_alpha 90.000000
_cell_angle_beta 90.000000
_cell_angle_gamma 90.000000
_cell_volume 5676.727644
_symmetry_space_group_name_H-M "C M C A"
_symmetry_group_IT_number 64
_symmetry_cell_setting 'orthorhombic'
loop_
_space_group_symop_operation_xyz
x,y,z
-x,1/2-y,1/2+z
x,-y,-z
-x,1/2+y,1/2-z
-x,-y,-z
x,1/2+y,1/2-z
-x,y,z
x,1/2-y,1/2+z
1/2+x,1/2+y,z
1/2-x,-y,1/2+z
1/2+x,1/2-y,-z
1/2-x,y,1/2-z
1/2-x,1/2-y,-z
1/2+x,y,1/2-z
1/2-x,1/2+y,z
1/2+x,-y,1/2+z
loop_
_atom_site_type_symbol
_atom_site_label
_atom_site_fract_x
_atom_site_fract_y
_atom_site_fract_z
Si Si1 0.404210 0.817065 0.652405
Si Si2 0.700912 0.924280 0.659382
Si Si3 0.147678 0.787724 0.236844
Si Si4 0.097557 0.596007 0.820004
Si Si5 0.321396 0.792882 0.467637
Si Si6 0.402262 0.027707 0.635693
Si Si7 0.252575 0.587882 0.537280
O O1 0.500000 0.837718 0.666365
O O2 0.335832 0.864068 0.671618
O O3 0.389316 0.764001 0.712159
O O4 0.388993 0.799895 0.548198
O O5 0.750000 0.941153 0.750000
O O6 0.760624 0.925786 0.569442
O O7 0.622890 0.965288 0.642837
O O8 0.250000 0.787783 0.250000
O O9 0.114384 0.843951 0.279001
O O10 0.134550 0.781706 0.128846
O O11 0.105407 0.555734 0.734491
O O12 0.166110 0.580671 0.897338
O O13 0.000000 0.593980 0.854538
O O14 0.250000 0.750000 0.500000
O O15 0.272444 0.849440 0.456163
O O16 0.500000 0.035739 0.603445
O O17 0.329762 0.055350 0.574025
#
# Coordination Sequence:
#
# PCOD9481850 Si02
#       7
#    16  16  16  16  16  16  16
#     4  11  25  40  58  91 130 165 211 265 320 392
#     4  11  25  43  65  86 128 176 217 259 324 397
#     4  12  20  39  67  90 126 166 213 262 324 388
#     4  11  22  39  66 100 130 161 213 275 324 380
#     4  11  22  37  65  91 123 168 207 259 321 387
#     4  11  23  41  69 101 128 161 212 274 329 384
#     4  11  22  40  66  94 125 170 212 264 326 379
#
# _framework density 19.729676999999999
#
# number of rings (size 3 to 8) (size 9 to 14) (size 15 to 20)
#    0.000    0.857    4.286    3.000    2.000    4.571 
#    0.000    1.429    0.000    3.429    0.000    0.000 
#    0.000    0.000    0.000    0.000    0.000    0.000 
#
# Total GULP energy -313056.845713 kJ/mol
# GULP energy per Si atom -5590.300816 kJ/mol
# Density = 1.968477 g / cm^3
# Si number density = 19.729677 Si / 1000 Ang^3
#
#
#
# Elastic Constant Matrix: (Units=GPa)
#
#
# Indices 1 2 3 4 5 6 
#
# 1 102.0333 10.0865 52.0053 0.0000 0.0000 0.0000
# 2 10.0865 85.0317 21.7216 0.0000 0.0000 0.0000
# 3 52.0053 21.7216 123.7286 0.0000 0.0000 0.0000
# 4 0.0000 0.0000 0.0000 28.0837 0.0000 0.0000
# 5 0.0000 0.0000 0.0000 0.0000 0.3989 0.0000
# 6 0.0000 0.0000 0.0000 0.0000 0.0000 27.0543
#
#
#
# Elastic Compliance Matrix: (Units=1/GPa)
#
#
# Indices 1 2 3 4 5 6 
#
# 1 0.012475 -0.000147 -0.005217 0.000000 0.000000 0.000000
# 2 -0.000147 0.012314 -0.002100 0.000000 0.000000 0.000000
# 3 -0.005217 -0.002100 0.010644 0.000000 0.000000 0.000000
# 4 0.000000 0.000000 0.000000 0.035608 0.000000 0.000000
# 5 0.000000 0.000000 0.000000 0.000000 2.506650 0.000000
# 6 0.000000 0.000000 0.000000 0.000000 0.000000 0.036963
#
#
# Mechanical properties :
#
#
# Convention : Reuss Voigt Hill
#
# Bulk Modulus (GPa) = 48.77181 53.15781 50.96481
# Shear Modulus (GPa) = 1.89651 26.23941 14.06796
#
# Velocity S-wave (km/s) = 0.98150 3.65080 2.67317
# Velocity P-wave (km/s) = 5.10472 6.69124 5.95108
#
# Compressibility (1/GPa) = 0.02050365
#
# Stress axis : x y z
#
# Youngs Moduli (GPa) = 80.16334 81.20693 93.95058
#
# Poissons Ratio (x) = 0.01193 0.49018
# Poissons Ratio (y) = 0.01178 0.19731
# Poissons Ratio (z) = 0.41825 0.17054
#
# Static dielectric constant tensor:
#      x y z
#    x 1.541630 0.000000 0.000000 
#    y 0.000000 1.686400 0.000000 
#    z 0.000000 0.000000 1.771430 
# 
# From -- ./inp_files/24181.got.cif
#   From: 2010.05.17/outbox.cif.g08.bks.cpg/sg64_13_cif.got.tgz:24181.got - 2010.06.03 16:29:19.
