data_PCOD9481910
_publ_section_title
;
Structure prediction by ZEFSAII (Michael W. Deem and Ramdas Pophale) SiO2 
 PCOD9481910
Probable space group: C M C A
;
_chemical_formula_sum "Si O2"
_cell_formula_units_Z 96
_cell_length_a 20.935699
_cell_length_b 13.910066
_cell_length_c 14.230084
_cell_angle_alpha 90.000000
_cell_angle_beta 90.000000
_cell_angle_gamma 90.000000
_cell_volume 4144.041730
_symmetry_space_group_name_H-M "C M C A"
_symmetry_group_IT_number 64
_symmetry_cell_setting 'orthorhombic'
loop_
_space_group_symop_operation_xyz
x,y,z
-x,1/2-y,1/2+z
x,-y,-z
-x,1/2+y,1/2-z
-x,-y,-z
x,1/2+y,1/2-z
-x,y,z
x,1/2-y,1/2+z
1/2+x,1/2+y,z
1/2-x,-y,1/2+z
1/2+x,1/2-y,-z
1/2-x,y,1/2-z
1/2-x,1/2-y,-z
1/2+x,y,1/2-z
1/2-x,1/2+y,z
1/2+x,-y,1/2+z
loop_
_atom_site_type_symbol
_atom_site_label
_atom_site_fract_x
_atom_site_fract_y
_atom_site_fract_z
Si Si1 0.424221 0.018694 0.254266
Si Si2 0.660809 0.571545 0.418877
Si Si3 0.887812 0.268102 0.043668
Si Si4 0.751671 0.750123 0.638099
Si Si5 0.367300 0.864931 0.388189
Si Si6 0.567785 0.756350 0.736381
O O1 0.500000 0.992458 0.239939
O O2 0.377013 0.014367 0.163336
O O3 0.423004 0.131333 0.276738
O O4 0.392991 0.961292 0.341273
O O5 0.684286 0.500000 0.500000
O O6 0.611686 0.643927 0.471234
O O7 0.714825 0.646590 0.383549
O O8 0.817406 0.256191 0.090053
O O9 0.930494 0.287285 0.133348
O O10 0.900996 0.172431 0.982705
O O11 0.750000 0.740542 0.750000
O O12 0.792671 0.659332 0.598343
O O13 0.382015 0.788996 0.305134
O O14 0.500000 0.738897 0.783411
#
# Coordination Sequence:
#
# PCOD9481910 Si02
#       6
#    16  16  16  16  16  16
#     4  11  24  43  66  98 137 179 229 279 336 412
#     4  11  23  41  65  99 132 169 228 279 336 404
#     4  11  23  45  67  98 136 181 228 279 346 411
#     4  11  22  46  67  94 138 176 221 281 346 411
#     4  11  22  42  67  94 135 179 223 278 345 400
#     4  11  23  42  66  96 133 176 224 278 342 405
#
# _framework density 23.165790999999999
#
# number of rings (size 3 to 8) (size 9 to 14) (size 15 to 20)
#    0.000    1.000    5.000    3.500    0.000    3.000 
#   12.000    1.667    0.000    0.000    0.000    0.000 
#    0.000    0.000    0.000    0.000    0.000    0.000 
#
# Total GULP energy -268008.271318 kJ/mol
# GULP energy per Si atom -5583.505652 kJ/mol
# Density = 2.311306 g / cm^3
# Si number density = 23.165791 Si / 1000 Ang^3
#
#
#
# Elastic Constant Matrix: (Units=GPa)
#
#
# Indices 1 2 3 4 5 6 
#
# 1 83.5348 -1.3894 -11.8808 0.0000 0.0000 0.0000
# 2 -1.3894 60.6247 -18.3026 0.0000 0.0000 0.0000
# 3 -11.8808 -18.3026 80.6205 0.0000 0.0000 0.0000
# 4 0.0000 0.0000 0.0000 52.6974 0.0000 0.0000
# 5 0.0000 0.0000 0.0000 0.0000 11.7614 0.0000
# 6 0.0000 0.0000 0.0000 0.0000 0.0000 12.4940
#
#
#
# Elastic Compliance Matrix: (Units=1/GPa)
#
#
# Indices 1 2 3 4 5 6 
#
# 1 0.012272 0.000888 0.002010 0.000000 0.000000 0.000000
# 2 0.000888 0.017773 0.004166 0.000000 0.000000 0.000000
# 3 0.002010 0.004166 0.013646 0.000000 0.000000 0.000000
# 4 0.000000 0.000000 0.000000 0.018976 0.000000 0.000000
# 5 0.000000 0.000000 0.000000 0.000000 0.085024 0.000000
# 6 0.000000 0.000000 0.000000 0.000000 0.000000 0.080039
#
#
# Mechanical properties :
#
#
# Convention : Reuss Voigt Hill
#
# Bulk Modulus (GPa) = 17.29563 17.95937 17.62750
# Shear Modulus (GPa) = 21.47080 32.48072 26.97576
#
# Velocity S-wave (km/s) = 3.04769 3.74852 3.41613
# Velocity P-wave (km/s) = 4.45722 5.14826 4.81515
#
# Compressibility (1/GPa) = 0.05781806
#
# Stress axis : x y z
#
# Youngs Moduli (GPa) = 81.48818 56.26538 73.28309
#
# Poissons Ratio (x) = -0.04997 -0.14730
# Poissons Ratio (y) = -0.07237 -0.30528
# Poissons Ratio (z) = -0.16380 -0.23439
#
# Static dielectric constant tensor:
#      x y z
#    x 1.908560 0.000000 0.000000 
#    y 0.000000 1.908710 0.000000 
#    z 0.000000 0.000000 1.873590 
# 
# From -- ./inp_files/26289.got.cif
#   From: 2010.05.17/outbox.cif.g08.bks.cpg/sg64_14_cif.got.tgz:26289.got - 2010.06.03 16:29:19.
