data_PCOD9481293
_publ_section_title
;
Structure prediction by ZEFSAII (Michael W. Deem and Ramdas Pophale) SiO2 
 PCOD9481293
Probable space group: C M C A
;
_chemical_formula_sum "Si O2"
_cell_formula_units_Z 80
_cell_length_a 10.405044
_cell_length_b 24.083011
_cell_length_c 18.314692
_cell_angle_alpha 90.000000
_cell_angle_beta 90.000000
_cell_angle_gamma 90.000000
_cell_volume 4589.383232
_symmetry_space_group_name_H-M "C M C A"
_symmetry_group_IT_number 64
_symmetry_cell_setting 'orthorhombic'
loop_
_space_group_symop_operation_xyz
x,y,z
-x,1/2-y,1/2+z
x,-y,-z
-x,1/2+y,1/2-z
-x,-y,-z
x,1/2+y,1/2-z
-x,y,z
x,1/2-y,1/2+z
1/2+x,1/2+y,z
1/2-x,-y,1/2+z
1/2+x,1/2-y,-z
1/2-x,y,1/2-z
1/2-x,1/2-y,-z
1/2+x,y,1/2-z
1/2-x,1/2+y,z
1/2+x,-y,1/2+z
loop_
_atom_site_type_symbol
_atom_site_label
_atom_site_fract_x
_atom_site_fract_y
_atom_site_fract_z
Si Si1 0.750970 0.209947 0.070688
Si Si2 0.348450 0.480476 0.114544
Si Si3 0.500000 0.738313 0.167056
Si Si4 0.000000 0.737309 0.165065
Si Si5 0.250000 0.422593 0.250000
Si Si6 0.500000 0.153681 0.748670
Si Si7 0.651487 0.407713 0.970061
O O1 0.625021 0.220129 0.119678
O O2 0.765352 0.146684 0.043361
O O3 0.874200 0.222199 0.121855
O O4 0.750000 0.250000 0.000000
O O5 0.500000 0.477845 0.134913
O O6 0.259694 0.461296 0.179730
O O7 0.322976 0.542692 0.087019
O O8 0.330620 0.437325 0.048068
O O9 0.500000 0.714858 0.250782
O O10 0.500000 0.804350 0.182786
O O11 0.000000 0.804046 0.179609
O O12 0.374256 0.383547 0.249250
O O13 0.500000 0.392632 0.964492
#
# Coordination Sequence:
#
# PCOD9481293 Si02
#       7
#    16  16   8   8   8   8  16
#     4  12  23  38  64  94 120 164 210 248 303 378
#     4   9  20  39  60  89 117 156 204 255 296 364
#     4  10  23  43  57  86 123 166 205 245 311 365
#     4  10  25  41  55  90 129 164 197 253 315 357
#     4  12  20  38  62  92 112 158 212 244 298 356
#     4  10  24  36  62  82 128 158 198 250 308 348
#     4   9  20  39  62  85 122 160 203 246 305 356
#
# _framework density 17.431536000000001
#
# number of rings (size 3 to 8) (size 9 to 14) (size 15 to 20)
#    0.600    1.200    2.000    3.600    5.600    0.000 
#    3.600    1.000    0.000    2.400    0.000    0.000 
#    0.000    0.000    0.000    0.000    0.000    0.000 
#
# Total GULP energy -223101.634378 kJ/mol
# GULP energy per Si atom -5577.540859 kJ/mol
# Density = 1.739186 g / cm^3
# Si number density = 17.431536 Si / 1000 Ang^3
#
#
#
# Elastic Constant Matrix: (Units=GPa)
#
#
# Indices 1 2 3 4 5 6 
#
# 1 126.3945 56.4253 60.3793 0.0000 0.0000 0.0000
# 2 56.4253 122.9665 67.7051 0.0000 0.0000 0.0000
# 3 60.3793 67.7051 96.7090 0.0000 0.0000 0.0000
# 4 0.0000 0.0000 0.0000 26.6392 0.0000 0.0000
# 5 0.0000 0.0000 0.0000 0.0000 36.7118 0.0000
# 6 0.0000 0.0000 0.0000 0.0000 0.0000 48.0880
#
#
#
# Elastic Compliance Matrix: (Units=1/GPa)
#
#
# Indices 1 2 3 4 5 6 
#
# 1 0.011622 -0.002177 -0.005732 0.000000 0.000000 0.000000
# 2 -0.002177 0.013641 -0.008191 0.000000 0.000000 0.000000
# 3 -0.005732 -0.008191 0.019653 0.000000 0.000000 0.000000
# 4 0.000000 0.000000 0.000000 0.037539 0.000000 0.000000
# 5 0.000000 0.000000 0.000000 0.000000 0.027239 0.000000
# 6 0.000000 0.000000 0.000000 0.000000 0.000000 0.020795
#
#
# Mechanical properties :
#
#
# Convention : Reuss Voigt Hill
#
# Bulk Modulus (GPa) = 78.63610 79.45437 79.04524
# Shear Modulus (GPa) = 29.95316 33.05849 31.50582
#
# Velocity S-wave (km/s) = 4.14977 4.35958 4.25597
# Velocity P-wave (km/s) = 8.25652 8.42740 8.34240
#
# Compressibility (1/GPa) = 0.01271681
#
# Stress axis : x y z
#
# Youngs Moduli (GPa) = 86.04604 73.30804 50.88200
#
# Poissons Ratio (x) = 0.15958 0.29165
# Poissons Ratio (y) = 0.18731 0.41677
# Poissons Ratio (z) = 0.49321 0.60046
#
# Static dielectric constant tensor:
#      x y z
#    x 1.571310 0.000000 0.000000 
#    y 0.000000 1.587030 0.000000 
#    z 0.000000 0.000000 1.601960 
# 
# From -- ./inp_files/29892.got.cif
#   From: 2010.05.17/outbox.cif.g08.bks.cpg/sg64_15_cif.got.tgz:29892.got - 2010.06.03 16:29:19.
