data_PCOD9481571
_publ_section_title
;
Structure prediction by ZEFSAII (Michael W. Deem and Ramdas Pophale) SiO2 
 PCOD9481571
Probable space group: C M C A
;
_chemical_formula_sum "Si O2"
_cell_formula_units_Z 64
_cell_length_a 24.981136
_cell_length_b 9.152056
_cell_length_c 10.712201
_cell_angle_alpha 90.000000
_cell_angle_beta 90.000000
_cell_angle_gamma 90.000000
_cell_volume 2449.117185
_symmetry_space_group_name_H-M "C M C A"
_symmetry_group_IT_number 64
_symmetry_cell_setting 'orthorhombic'
loop_
_space_group_symop_operation_xyz
x,y,z
-x,1/2-y,1/2+z
x,-y,-z
-x,1/2+y,1/2-z
-x,-y,-z
x,1/2+y,1/2-z
-x,y,z
x,1/2-y,1/2+z
1/2+x,1/2+y,z
1/2-x,-y,1/2+z
1/2+x,1/2-y,-z
1/2-x,y,1/2-z
1/2-x,1/2-y,-z
1/2+x,y,1/2-z
1/2-x,1/2+y,z
1/2+x,-y,1/2+z
loop_
_atom_site_type_symbol
_atom_site_label
_atom_site_fract_x
_atom_site_fract_y
_atom_site_fract_z
Si Si1 0.586156 0.219638 0.123158
Si Si2 0.500000 0.198987 0.923629
Si Si3 0.000000 0.546529 0.277959
Si Si4 0.174459 0.652190 0.315858
Si Si5 0.099404 0.000000 0.000000
Si Si6 0.250000 0.893322 0.250000
O O1 0.550488 0.138192 0.224675
O O2 0.644572 0.185070 0.182681
O O3 0.577269 0.395939 0.111433
O O4 0.554720 0.164480 0.998988
O O5 0.500000 0.376960 0.914850
O O6 0.500000 0.101726 0.800526
O O7 0.133965 0.624553 0.428744
O O8 0.215302 0.785365 0.336509
O O9 0.207805 0.502904 0.311032
#
# Coordination Sequence:
#
# PCOD9481571 Si02
#       6
#    16   8   8  16   8   8
#     4  11  25  46  75 109 159 198 258 313 393 457
#     4  11  27  48  75 115 155 208 256 315 390 447
#     4  11  27  46  77 110 153 201 252 318 367 476
#     4  11  24  48  75 112 154 195 262 315 387 465
#     4  12  26  45  80 116 148 214 246 331 384 454
#     4  10  24  48  76 108 154 196 252 328 382 468
#
# _framework density 26.131865000000001
#
# number of rings (size 3 to 8) (size 9 to 14) (size 15 to 20)
#    0.000    1.000    2.500    3.000    7.000    6.000 
#    0.000    0.000    0.000    0.000    0.000    0.000 
#    0.000    0.000    0.000    0.000    0.000    0.000 
#
# Total GULP energy -178335.924835 kJ/mol
# GULP energy per Si atom -5572.997651 kJ/mol
# Density = 2.607239 g / cm^3
# Si number density = 26.131865 Si / 1000 Ang^3
#
#
#
# Elastic Constant Matrix: (Units=GPa)
#
#
# Indices 1 2 3 4 5 6 
#
# 1 94.1745 37.5321 49.0939 0.0000 0.0000 0.0000
# 2 37.5321 203.4824 46.3259 0.0000 0.0000 0.0000
# 3 49.0939 46.3259 119.1325 0.0000 0.0000 0.0000
# 4 0.0000 0.0000 0.0000 37.9548 0.0000 0.0000
# 5 0.0000 0.0000 0.0000 0.0000 -19.9921 0.0000
# 6 0.0000 0.0000 0.0000 0.0000 0.0000 515.2803
#
#
#
# Elastic Compliance Matrix: (Units=1/GPa)
#
#
# Indices 1 2 3 4 5 6 
#
# 1 0.013868 -0.001379 -0.005179 0.000000 0.000000 0.000000
# 2 -0.001379 0.005529 -0.001582 0.000000 0.000000 0.000000
# 3 -0.005179 -0.001582 0.011143 0.000000 0.000000 0.000000
# 4 0.000000 0.000000 0.000000 0.026347 0.000000 0.000000
# 5 0.000000 0.000000 0.000000 0.000000 -0.050020 0.000000
# 6 0.000000 0.000000 0.000000 0.000000 0.000000 0.001941
#
#
# Mechanical properties :
#
#
# Convention : Reuss Voigt Hill
#
# Bulk Modulus (GPa) = 70.11983 75.85482 72.98732
# Shear Modulus (GPa) = 167.55841 125.57108 146.56475
#
# Velocity S-wave (km/s) = 8.01621 6.93954 7.49722
# Velocity P-wave (km/s) = 10.60993 9.65921 10.14571
#
# Compressibility (1/GPa) = 0.01426130
#
# Stress axis : x y z
#
# Youngs Moduli (GPa) = 72.10951 180.86879 89.74099
#
# Poissons Ratio (x) = 0.24940 0.46474
# Poissons Ratio (y) = 0.09943 0.14195
# Poissons Ratio (z) = 0.37343 0.28608
#
# Static dielectric constant tensor:
#      x y z
#    x 2.313460 0.000000 0.000000 
#    y 0.000000 2.088850 0.000000 
#    z 0.000000 0.000000 2.175540 
# 
# From -- ./inp_files/19527.got.cif
#   From: 2010.05.17/outbox.cif.g08.bks.cpg/sg64_10_cif.got.tgz:19527.got - 2010.06.03 16:29:19.
