data_PCOD9481784
_publ_section_title
;
Structure prediction by ZEFSAII (Michael W. Deem and Ramdas Pophale) SiO2 
 PCOD9481784
Probable space group: C M C A
;
_chemical_formula_sum "Si O2"
_cell_formula_units_Z 64
_cell_length_a 14.237158
_cell_length_b 13.313294
_cell_length_c 13.308841
_cell_angle_alpha 90.000000
_cell_angle_beta 90.000000
_cell_angle_gamma 90.000000
_cell_volume 2522.603907
_symmetry_space_group_name_H-M "C M C A"
_symmetry_group_IT_number 64
_symmetry_cell_setting 'orthorhombic'
loop_
_space_group_symop_operation_xyz
x,y,z
-x,1/2-y,1/2+z
x,-y,-z
-x,1/2+y,1/2-z
-x,-y,-z
x,1/2+y,1/2-z
-x,y,z
x,1/2-y,1/2+z
1/2+x,1/2+y,z
1/2-x,-y,1/2+z
1/2+x,1/2-y,-z
1/2-x,y,1/2-z
1/2-x,1/2-y,-z
1/2+x,y,1/2-z
1/2-x,1/2+y,z
1/2+x,-y,1/2+z
loop_
_atom_site_type_symbol
_atom_site_label
_atom_site_fract_x
_atom_site_fract_y
_atom_site_fract_z
Si Si1 0.698657 0.378596 0.080423
Si Si2 0.000000 0.162434 0.442000
Si Si3 0.296486 0.676543 0.153442
Si Si4 0.148992 0.500000 0.000000
Si Si5 0.000000 0.627115 0.664050
Si Si6 0.500000 0.757878 0.163178
O O1 0.692594 0.365705 0.959503
O O2 0.786917 0.451939 0.086911
O O3 0.731586 0.275647 0.132861
O O4 0.597830 0.413422 0.121201
O O5 0.911821 0.088177 0.449795
O O6 0.000000 0.224464 0.544746
O O7 0.000000 0.252424 0.362682
O O8 0.250000 0.623961 0.250000
O O9 0.402326 0.703691 0.184684
O O10 0.000000 0.632641 0.783873
#
# Coordination Sequence:
#
# PCOD9481784 Si02
#       6
#    16   8  16   8   8   8
#     4  11  22  40  63  95 128 170 209 268 320 383
#     4  11  22  44  65  94 125 175 214 260 313 397
#     4  11  21  38  65  94 123 165 225 265 308 376
#     4  11  24  39  66  88 136 169 202 253 344 382
#     4  12  23  40  73  94 124 168 230 267 313 370
#     4  12  21  37  70  97 119 160 230 276 300 370
#
# _framework density 25.370611
#
# number of rings (size 3 to 8) (size 9 to 14) (size 15 to 20)
#    0.000    0.750    7.500    1.500    0.000    0.500 
#    0.000    3.750    0.000    0.000    0.000    0.000 
#    0.000    0.000    0.000    0.000    0.000    0.000 
#
# Total GULP energy -178991.404319 kJ/mol
# GULP energy per Si atom -5593.481385 kJ/mol
# Density = 2.531287 g / cm^3
# Si number density = 25.370611 Si / 1000 Ang^3
#
#
#
# Elastic Constant Matrix: (Units=GPa)
#
#
# Indices 1 2 3 4 5 6 
#
# 1 179.2578 5.2175 18.2280 0.0000 0.0000 0.0000
# 2 5.2175 39.1071 -20.6396 0.0000 0.0000 0.0000
# 3 18.2280 -20.6396 109.7342 0.0000 0.0000 0.0000
# 4 0.0000 0.0000 0.0000 24.4024 0.0000 0.0000
# 5 0.0000 0.0000 0.0000 0.0000 31.2672 0.0000
# 6 0.0000 0.0000 0.0000 0.0000 0.0000 16.1850
#
#
#
# Elastic Compliance Matrix: (Units=1/GPa)
#
#
# Indices 1 2 3 4 5 6 
#
# 1 0.005744 -0.001410 -0.001219 0.000000 0.000000 0.000000
# 2 -0.001410 0.028735 0.005639 0.000000 0.000000 0.000000
# 3 -0.001219 0.005639 0.010376 0.000000 0.000000 0.000000
# 4 0.000000 0.000000 0.000000 0.040980 0.000000 0.000000
# 5 0.000000 0.000000 0.000000 0.000000 0.031982 0.000000
# 6 0.000000 0.000000 0.000000 0.000000 0.000000 0.061786
#
#
# Mechanical properties :
#
#
# Convention : Reuss Voigt Hill
#
# Bulk Modulus (GPa) = 19.65628 37.07898 28.36763
# Shear Modulus (GPa) = 26.24113 36.05712 31.14912
#
# Velocity S-wave (km/s) = 3.21956 3.77399 3.50775
# Velocity P-wave (km/s) = 4.64599 5.79977 5.25465
#
# Compressibility (1/GPa) = 0.05087432
#
# Stress axis : x y z
#
# Youngs Moduli (GPa) = 174.10783 34.80084 96.37574
#
# Poissons Ratio (x) = 0.04906 0.11750
# Poissons Ratio (y) = 0.24545 -0.54345
# Poissons Ratio (z) = 0.21228 -0.19624
#
# Static dielectric constant tensor:
#      x y z
#    x 2.026310 0.000000 0.000000 
#    y 0.000000 2.125370 0.000000 
#    z 0.000000 0.000000 1.969600 
# 
# From -- ./inp_files/14098.got.cif
#   From: 2010.05.17/outbox.cif.g08.bks.cpg/sg64_8_cif.got.tgz:14098.got - 2010.06.03 16:29:19.
