data_PCOD9481072
_publ_section_title
;
Structure prediction by ZEFSAII (Michael W. Deem and Ramdas Pophale) SiO2 
 PCOD9481072
Probable space group: C M C A
;
_chemical_formula_sum "Si O2"
_cell_formula_units_Z 56
_cell_length_a 21.483508
_cell_length_b 18.549554
_cell_length_c 5.240563
_cell_angle_alpha 90.000000
_cell_angle_beta 90.000000
_cell_angle_gamma 90.000000
_cell_volume 2088.414098
_symmetry_space_group_name_H-M "C M C A"
_symmetry_group_IT_number 64
_symmetry_cell_setting 'orthorhombic'
loop_
_space_group_symop_operation_xyz
x,y,z
-x,1/2-y,1/2+z
x,-y,-z
-x,1/2+y,1/2-z
-x,-y,-z
x,1/2+y,1/2-z
-x,y,z
x,1/2-y,1/2+z
1/2+x,1/2+y,z
1/2-x,-y,1/2+z
1/2+x,1/2-y,-z
1/2-x,y,1/2-z
1/2-x,1/2-y,-z
1/2+x,y,1/2-z
1/2-x,1/2+y,z
1/2+x,-y,1/2+z
loop_
_atom_site_type_symbol
_atom_site_label
_atom_site_fract_x
_atom_site_fract_y
_atom_site_fract_z
Si Si1 0.500000 0.199559 0.178548
Si Si2 0.822408 0.785315 0.754741
Si Si3 0.932445 0.917227 0.409113
Si Si4 0.310446 0.582771 0.921532
O O1 0.500000 0.243384 0.441962
O O2 0.556513 0.142030 0.132517
O O3 0.850828 0.744394 0.996468
O O4 0.750000 0.739076 0.250000
O O5 0.816762 0.868592 0.827576
O O6 0.872529 0.903614 0.240656
O O7 0.000000 0.912374 0.267748
O O8 0.927334 0.000000 0.500000
O O9 0.250000 0.600579 0.750000
O O10 0.306309 0.500000 0.000000
#
# Coordination Sequence:
#
# PCOD9481072 Si02
#       4
#     8  16  16  16
#     4  10  23  46  77 110 140 182 248 312 359 430
#     4  10  22  43  68  98 142 193 239 291 363 436
#     4   9  23  48  71 104 148 203 243 303 379 456
#     4  12  25  41  70 109 149 192 249 310 364 439
#
# _framework density 26.814605
#
# number of rings (size 3 to 8) (size 9 to 14) (size 15 to 20)
#    0.857    0.857    0.000    4.286    0.000    7.429 
#    0.000    0.000    0.000    0.000    0.000    0.000 
#    0.000    0.000    0.000    0.000    0.000    0.000 
#
# Total GULP energy -156859.759020 kJ/mol
# GULP energy per Si atom -5602.134251 kJ/mol
# Density = 2.675357 g / cm^3
# Si number density = 26.814605 Si / 1000 Ang^3
#
#
#
# Elastic Constant Matrix: (Units=GPa)
#
#
# Indices 1 2 3 4 5 6 
#
# 1 180.4813 -2.0554 27.5604 0.0000 0.0000 0.0000
# 2 -2.0554 231.0174 56.7811 0.0000 0.0000 0.0000
# 3 27.5604 56.7811 137.8173 0.0000 0.0000 0.0000
# 4 0.0000 0.0000 0.0000 54.0037 0.0000 0.0000
# 5 0.0000 0.0000 0.0000 0.0000 31.1190 0.0000
# 6 0.0000 0.0000 0.0000 0.0000 0.0000 15.2282
#
#
#
# Elastic Compliance Matrix: (Units=1/GPa)
#
#
# Indices 1 2 3 4 5 6 
#
# 1 0.005744 0.000371 -0.001301 0.000000 0.000000 0.000000
# 2 0.000371 0.004840 -0.002068 0.000000 0.000000 0.000000
# 3 -0.001301 -0.002068 0.008368 0.000000 0.000000 0.000000
# 4 0.000000 0.000000 0.000000 0.018517 0.000000 0.000000
# 5 0.000000 0.000000 0.000000 0.000000 0.032135 0.000000
# 6 0.000000 0.000000 0.000000 0.000000 0.000000 0.065668
#
#
# Mechanical properties :
#
#
# Convention : Reuss Voigt Hill
#
# Bulk Modulus (GPa) = 77.19205 79.32092 78.25648
# Shear Modulus (GPa) = 34.34346 51.20551 42.77449
#
# Velocity S-wave (km/s) = 3.58267 4.37465 3.99832
# Velocity P-wave (km/s) = 6.77967 7.42713 7.11077
#
# Compressibility (1/GPa) = 0.01295470
#
# Stress axis : x y z
#
# Youngs Moduli (GPa) = 174.10366 206.59560 119.49651
#
# Poissons Ratio (x) = -0.07664 0.15552
# Poissons Ratio (y) = -0.06459 0.24717
# Poissons Ratio (z) = 0.22659 0.42733
#
# Static dielectric constant tensor:
#      x y z
#    x 2.178000 0.000000 0.000000 
#    y 0.000000 2.075670 0.000000 
#    z 0.000000 0.000000 2.140430 
# 
# From -- ./inp_files/1623.got.cif
#   From: 2010.05.17/outbox.cif.g08.bks.cpg/sg64_1_cif.got.tgz:1623.got - 2010.06.03 16:29:19.
