data_PCOD9481011
_publ_section_title
;
Structure prediction by ZEFSAII (Michael W. Deem and Ramdas Pophale) SiO2 
 PCOD9481011
Probable space group: C M C A
;
_chemical_formula_sum "Si O2"
_cell_formula_units_Z 96
_cell_length_a 25.112794
_cell_length_b 19.051128
_cell_length_c 9.111119
_cell_angle_alpha 90.000000
_cell_angle_beta 90.000000
_cell_angle_gamma 90.000000
_cell_volume 4359.005812
_symmetry_space_group_name_H-M "C M C A"
_symmetry_group_IT_number 64
_symmetry_cell_setting 'orthorhombic'
loop_
_space_group_symop_operation_xyz
x,y,z
-x,1/2-y,1/2+z
x,-y,-z
-x,1/2+y,1/2-z
-x,-y,-z
x,1/2+y,1/2-z
-x,y,z
x,1/2-y,1/2+z
1/2+x,1/2+y,z
1/2-x,-y,1/2+z
1/2+x,1/2-y,-z
1/2-x,y,1/2-z
1/2-x,1/2-y,-z
1/2+x,y,1/2-z
1/2-x,1/2+y,z
1/2+x,-y,1/2+z
loop_
_atom_site_type_symbol
_atom_site_label
_atom_site_fract_x
_atom_site_fract_y
_atom_site_fract_z
Si Si1 0.662141 0.589445 0.643129
Si Si2 0.369894 0.534705 0.140401
Si Si3 0.740443 0.894905 0.576490
Si Si4 0.939635 0.828214 0.814210
Si Si5 0.895332 0.206619 0.477679
Si Si6 0.296012 0.213119 0.643543
O O1 0.642649 0.480069 0.272028
O O2 0.711211 0.578057 0.528268
O O3 0.617042 0.633012 0.556660
O O4 0.680681 0.645773 0.766582
O O5 0.314316 0.562342 0.073439
O O6 0.403987 0.601869 0.186602
O O7 0.398445 0.500000 0.000000
O O8 0.750000 0.893631 0.750000
O O9 0.727271 0.820465 0.503497
O O10 0.938594 0.801259 0.647827
O O11 0.000000 0.840755 0.863956
O O12 0.911812 0.768331 0.912354
O O13 0.840992 0.231231 0.396339
O O14 0.250000 0.238651 0.750000
#
# Coordination Sequence:
#
# PCOD9481011 Si02
#       6
#    16  16  16  16  16  16
#     4  11  25  42  72 107 148 193 238 290 360 446
#     4  12  26  47  71 107 149 197 246 296 356 440
#     4  11  24  38  69 107 153 196 232 283 358 439
#     4  12  28  50  78 103 138 190 251 315 376 428
#     4  12  24  49  73 108 145 185 246 309 374 432
#     4  10  22  42  68 108 151 193 236 283 358 445
#
# _framework density 22.02337
#
# number of rings (size 3 to 8) (size 9 to 14) (size 15 to 20)
#    0.000    0.667    5.000    1.500    2.333    7.000 
#    0.000    2.500    0.000    0.000    0.000    0.000 
#    0.000    0.000    0.000    0.000    0.000    0.000 
#
# Total GULP energy -268594.932654 kJ/mol
# GULP energy per Si atom -5595.727764 kJ/mol
# Density = 2.197324 g / cm^3
# Si number density = 22.023370 Si / 1000 Ang^3
#
#
#
# Elastic Constant Matrix: (Units=GPa)
#
#
# Indices 1 2 3 4 5 6 
#
# 1 103.3655 49.8096 34.4295 0.0000 0.0000 0.0000
# 2 49.8096 139.0108 52.6205 0.0000 0.0000 0.0000
# 3 34.4295 52.6205 140.1466 0.0000 0.0000 0.0000
# 4 0.0000 0.0000 0.0000 41.4797 0.0000 0.0000
# 5 0.0000 0.0000 0.0000 0.0000 14.3765 0.0000
# 6 0.0000 0.0000 0.0000 0.0000 0.0000 1.7495
#
#
#
# Elastic Compliance Matrix: (Units=1/GPa)
#
#
# Indices 1 2 3 4 5 6 
#
# 1 0.011976 -0.003704 -0.001551 0.000000 0.000000 0.000000
# 2 -0.003704 0.009531 -0.002669 0.000000 0.000000 0.000000
# 3 -0.001551 -0.002669 0.008519 0.000000 0.000000 0.000000
# 4 0.000000 0.000000 0.000000 0.024108 0.000000 0.000000
# 5 0.000000 0.000000 0.000000 0.000000 0.069558 0.000000
# 6 0.000000 0.000000 0.000000 0.000000 0.000000 0.571597
#
#
# Mechanical properties :
#
#
# Convention : Reuss Voigt Hill
#
# Bulk Modulus (GPa) = 70.53395 72.91577 71.72486
# Shear Modulus (GPa) = 6.98459 27.89869 17.44164
#
# Velocity S-wave (km/s) = 1.78279 3.56304 2.81723
# Velocity P-wave (km/s) = 6.02778 7.07865 6.57425
#
# Compressibility (1/GPa) = 0.01417757
#
# Stress axis : x y z
#
# Youngs Moduli (GPa) = 83.50036 104.92046 117.39139
#
# Poissons Ratio (x) = 0.38862 0.18212
# Poissons Ratio (y) = 0.30928 0.31328
# Poissons Ratio (z) = 0.12954 0.28000
#
# Static dielectric constant tensor:
#      x y z
#    x 1.814200 0.000000 0.000000 
#    y 0.000000 1.839320 0.000000 
#    z 0.000000 0.000000 1.921410 
# 
# From -- ./inp_files/10323.got.cif
#   From: 2010.05.17/outbox.cif.g08.bks.cpg/sg64_6_cif.got.tgz:10323.got - 2010.06.03 16:29:19.
