data_PCOD9481143
_publ_section_title
;
Structure prediction by ZEFSAII (Michael W. Deem and Ramdas Pophale) SiO2 
 PCOD9481143
Probable space group: C M C A
;
_chemical_formula_sum "Si O2"
_cell_formula_units_Z 48
_cell_length_a 23.398724
_cell_length_b 8.142922
_cell_length_c 10.261750
_cell_angle_alpha 90.000000
_cell_angle_beta 90.000000
_cell_angle_gamma 90.000000
_cell_volume 1955.212115
_symmetry_space_group_name_H-M "C M C A"
_symmetry_group_IT_number 64
_symmetry_cell_setting 'orthorhombic'
loop_
_space_group_symop_operation_xyz
x,y,z
-x,1/2-y,1/2+z
x,-y,-z
-x,1/2+y,1/2-z
-x,-y,-z
x,1/2+y,1/2-z
-x,y,z
x,1/2-y,1/2+z
1/2+x,1/2+y,z
1/2-x,-y,1/2+z
1/2+x,1/2-y,-z
1/2-x,y,1/2-z
1/2-x,1/2-y,-z
1/2+x,y,1/2-z
1/2-x,1/2+y,z
1/2+x,-y,1/2+z
loop_
_atom_site_type_symbol
_atom_site_label
_atom_site_fract_x
_atom_site_fract_y
_atom_site_fract_z
Si Si1 0.435487 0.869184 0.616150
Si Si2 0.632950 0.429520 0.299136
Si Si3 0.209736 0.722084 0.124406
O O1 0.500000 0.803444 0.617199
O O2 0.388875 0.723841 0.616508
O O3 0.431596 0.000000 0.500000
O O4 0.421160 0.968277 0.748007
O O5 0.665559 0.364298 0.168877
O O6 0.674857 0.553225 0.370973
O O7 0.250000 0.713292 0.250000
O O8 0.250000 0.750000 0.000000
#
# Coordination Sequence:
#
# PCOD9481143 Si02
#       3
#    16  16  16
#     4  10  22  45  74 106 143 189 245 307 379 450
#     4  10  24  44  72 106 146 193 240 314 367 453
#     4  11  26  46  71 107 145 196 248 304 367 444
#
# _framework density 24.549766999999999
#
# number of rings (size 3 to 8) (size 9 to 14) (size 15 to 20)
#    0.000    1.667    0.000    2.000    9.333    4.000 
#    6.000    1.667    0.000   10.000    0.000    0.000 
#    0.000    0.000    0.000    0.000    0.000    0.000 
#
# Total GULP energy -134401.508996 kJ/mol
# GULP energy per Si atom -5600.062875 kJ/mol
# Density = 2.449389 g / cm^3
# Si number density = 24.549767 Si / 1000 Ang^3
#
#
#
# Elastic Constant Matrix: (Units=GPa)
#
#
# Indices 1 2 3 4 5 6 
#
# 1 149.2650 62.0961 66.9298 0.0000 0.0000 0.0000
# 2 62.0961 134.9558 46.9430 0.0000 0.0000 0.0000
# 3 66.9298 46.9430 149.2644 0.0000 0.0000 0.0000
# 4 0.0000 0.0000 0.0000 31.7521 0.0000 0.0000
# 5 0.0000 0.0000 0.0000 0.0000 27.9036 0.0000
# 6 0.0000 0.0000 0.0000 0.0000 0.0000 46.9271
#
#
#
# Elastic Compliance Matrix: (Units=1/GPa)
#
#
# Indices 1 2 3 4 5 6 
#
# 1 0.009502 -0.003245 -0.003240 0.000000 0.000000 0.000000
# 2 -0.003245 0.009428 -0.001510 0.000000 0.000000 0.000000
# 3 -0.003240 -0.001510 0.008627 0.000000 0.000000 0.000000
# 4 0.000000 0.000000 0.000000 0.031494 0.000000 0.000000
# 5 0.000000 0.000000 0.000000 0.000000 0.035838 0.000000
# 6 0.000000 0.000000 0.000000 0.000000 0.000000 0.021310
#
#
# Mechanical properties :
#
#
# Convention : Reuss Voigt Hill
#
# Bulk Modulus (GPa) = 86.45210 87.26924 86.86067
# Shear Modulus (GPa) = 36.75226 38.48431 37.61829
#
# Velocity S-wave (km/s) = 3.87337 3.96359 3.91874
# Velocity P-wave (km/s) = 7.43609 7.52142 7.47888
#
# Compressibility (1/GPa) = 0.01156710
#
# Stress axis : x y z
#
# Youngs Moduli (GPa) = 105.23591 106.06415 115.91047
#
# Poissons Ratio (x) = 0.34420 0.37558
# Poissons Ratio (y) = 0.34151 0.17503
# Poissons Ratio (z) = 0.34099 0.16016
#
# Static dielectric constant tensor:
#      x y z
#    x 2.142990 0.000000 0.000000 
#    y 0.000000 1.967140 0.000000 
#    z 0.000000 0.000000 1.979510 
# 
# From -- ./inp_files/17800.got.cif
#   From: 2010.05.17/outbox.cif.g08.bks.cpg/sg64_9_cif.got.tgz:17800.got - 2010.06.03 16:29:19.
