data_PCOD9481050
_publ_section_title
;
Structure prediction by ZEFSAII (Michael W. Deem and Ramdas Pophale) SiO2 
 PCOD9481050
Probable space group: C M C A
;
_chemical_formula_sum "Si O2"
_cell_formula_units_Z 88
_cell_length_a 17.173975
_cell_length_b 8.857519
_cell_length_c 23.183407
_cell_angle_alpha 90.000000
_cell_angle_beta 90.000000
_cell_angle_gamma 90.000000
_cell_volume 3526.632282
_symmetry_space_group_name_H-M "C M C A"
_symmetry_group_IT_number 64
_symmetry_cell_setting 'orthorhombic'
loop_
_space_group_symop_operation_xyz
x,y,z
-x,1/2-y,1/2+z
x,-y,-z
-x,1/2+y,1/2-z
-x,-y,-z
x,1/2+y,1/2-z
-x,y,z
x,1/2-y,1/2+z
1/2+x,1/2+y,z
1/2-x,-y,1/2+z
1/2+x,1/2-y,-z
1/2-x,y,1/2-z
1/2-x,1/2-y,-z
1/2+x,y,1/2-z
1/2-x,1/2+y,z
1/2+x,-y,1/2+z
loop_
_atom_site_type_symbol
_atom_site_label
_atom_site_fract_x
_atom_site_fract_y
_atom_site_fract_z
Si Si1 0.586737 0.394797 0.919444
Si Si2 0.750000 0.831340 0.250000
Si Si3 0.913608 0.219409 0.703365
Si Si4 0.415090 0.912368 0.859309
Si Si5 0.799292 0.360553 0.372320
Si Si6 0.346078 0.614506 0.547540
O O1 0.585091 0.304548 0.857991
O O2 0.723208 0.162828 0.910244
O O3 0.646742 0.526085 0.907156
O O4 0.613286 0.272531 0.967250
O O5 0.831718 0.746577 0.265469
O O6 0.771937 0.916968 0.190790
O O7 0.000000 0.249121 0.730103
O O8 0.910400 0.039206 0.690513
O O9 0.500000 0.838824 0.857829
O O10 0.346518 0.792476 0.861350
O O11 0.406573 0.011802 0.917128
O O12 0.314971 0.500000 0.500000
O O13 0.500000 0.949358 0.568910
#
# Coordination Sequence:
#
# PCOD9481050 Si02
#       6
#    16   8  16  16  16  16
#     4  10  22  43  65  95 131 169 222 277 329 394
#     4  12  24  40  70  94 144 186 224 266 342 408
#     4   9  21  40  62  92 132 177 226 265 316 400
#     4  10  22  43  65  95 131 169 222 277 329 394
#     4  12  25  39  64 103 135 172 220 276 337 391
#     4  11  24  45  70  93 127 174 225 275 339 415
#
# _framework density 24.952985000000002
#
# number of rings (size 3 to 8) (size 9 to 14) (size 15 to 20)
#    0.000    1.455    3.636    3.273    0.000    8.727 
#    0.000    3.636    0.000    3.273    0.000    0.000 
#    0.000    0.000    0.000    0.000    0.000    0.000 
#
# Total GULP energy -246008.441508 kJ/mol
# GULP energy per Si atom -5591.100943 kJ/mol
# Density = 2.489619 g / cm^3
# Si number density = 24.952985 Si / 1000 Ang^3
#
#
#
# Elastic Constant Matrix: (Units=GPa)
#
#
# Indices 1 2 3 4 5 6 
#
# 1 193.5886 21.4530 20.9158 0.0000 0.0000 0.0000
# 2 21.4530 61.3731 7.0444 0.0000 0.0000 0.0000
# 3 20.9158 7.0444 54.4482 0.0000 0.0000 0.0000
# 4 0.0000 0.0000 0.0000 21.3145 0.0000 0.0000
# 5 0.0000 0.0000 0.0000 0.0000 19.8276 0.0000
# 6 0.0000 0.0000 0.0000 0.0000 0.0000 40.1052
#
#
#
# Elastic Compliance Matrix: (Units=1/GPa)
#
#
# Indices 1 2 3 4 5 6 
#
# 1 0.005564 -0.001725 -0.001914 0.000000 0.000000 0.000000
# 2 -0.001725 0.017074 -0.001546 0.000000 0.000000 0.000000
# 3 -0.001914 -0.001546 0.019301 0.000000 0.000000 0.000000
# 4 0.000000 0.000000 0.000000 0.046916 0.000000 0.000000
# 5 0.000000 0.000000 0.000000 0.000000 0.050435 0.000000
# 6 0.000000 0.000000 0.000000 0.000000 0.000000 0.024934
#
#
# Mechanical properties :
#
#
# Convention : Reuss Voigt Hill
#
# Bulk Modulus (GPa) = 31.67731 45.35959 38.51845
# Shear Modulus (GPa) = 27.00972 33.58257 30.29614
#
# Velocity S-wave (km/s) = 3.29359 3.67254 3.48822
# Velocity P-wave (km/s) = 5.21402 6.01672 5.62969
#
# Compressibility (1/GPa) = 0.03156834
#
# Stress axis : x y z
#
# Youngs Moduli (GPa) = 179.74132 58.56761 51.80976
#
# Poissons Ratio (x) = 0.10103 0.09916
# Poissons Ratio (y) = 0.31006 0.08012
# Poissons Ratio (z) = 0.34402 0.09057
#
# Static dielectric constant tensor:
#      x y z
#    x 1.944320 0.000000 0.000000 
#    y 0.000000 1.961840 0.000000 
#    z 0.000000 0.000000 2.013970 
# 
# From -- ./inp_files/53585.got.cif
#   From: 2010.05.17/outbox.cif.g08.bks.cpg/sg64_27_cif.got.tgz:53585.got - 2010.06.03 16:29:19.
