data_PCOD9481144
_publ_section_title
;
Structure prediction by ZEFSAII (Michael W. Deem and Ramdas Pophale) SiO2 
 PCOD9481144
Probable space group: C M C A
;
_chemical_formula_sum "Si O2"
_cell_formula_units_Z 56
_cell_length_a 12.725934
_cell_length_b 18.289547
_cell_length_c 7.976124
_cell_angle_alpha 90.000000
_cell_angle_beta 90.000000
_cell_angle_gamma 90.000000
_cell_volume 1856.455368
_symmetry_space_group_name_H-M "C M C A"
_symmetry_group_IT_number 64
_symmetry_cell_setting 'orthorhombic'
loop_
_space_group_symop_operation_xyz
x,y,z
-x,1/2-y,1/2+z
x,-y,-z
-x,1/2+y,1/2-z
-x,-y,-z
x,1/2+y,1/2-z
-x,y,z
x,1/2-y,1/2+z
1/2+x,1/2+y,z
1/2-x,-y,1/2+z
1/2+x,1/2-y,-z
1/2-x,y,1/2-z
1/2-x,1/2-y,-z
1/2+x,y,1/2-z
1/2-x,1/2+y,z
1/2+x,-y,1/2+z
loop_
_atom_site_type_symbol
_atom_site_label
_atom_site_fract_x
_atom_site_fract_y
_atom_site_fract_z
Si Si1 0.750000 0.894826 0.250000
Si Si2 0.500000 0.744844 0.450866
Si Si3 0.880943 0.988137 0.797900
Si Si4 0.190071 0.169473 0.101442
Si Si5 0.500000 0.628910 0.683293
O O1 0.748479 0.859429 0.435471
O O2 0.610039 0.911297 0.242356
O O3 0.396433 0.777015 0.533850
O O4 0.500000 0.658482 0.493288
O O5 0.500000 0.793985 0.282670
O O6 0.750000 0.011949 0.750000
O O7 0.857790 0.899914 0.802043
O O8 0.000000 0.986840 0.717052
O O9 0.887858 0.000000 0.000000
O O10 0.250000 0.210127 0.250000
#
# Coordination Sequence:
#
# PCOD9481144 Si02
#       5
#     8   8  16  16   8
#     4  12  24  42  76 120 150 186 256 322 396 474
#     4  12  25  53  71 103 164 203 256 318 393 456
#     4  10  22  45  75 107 150 194 248 322 395 445
#     4  12  26  47  80 119 148 201 255 327 402 464
#     4  10  25  45  77  99 146 221 248 298 395 462
#
# _framework density 30.165012999999998
#
# number of rings (size 3 to 8) (size 9 to 14) (size 15 to 20)
#    0.857    0.000    5.714    0.857    0.000    4.571 
#    5.143    4.286    0.000    0.000    0.000    0.000 
#    0.000    0.000    0.000    0.000    0.000    0.000 
#
# Total GULP energy -156462.571762 kJ/mol
# GULP energy per Si atom -5587.948992 kJ/mol
# Density = 3.009636 g / cm^3
# Si number density = 30.165013 Si / 1000 Ang^3
#
#
#
# Elastic Constant Matrix: (Units=GPa)
#
#
# Indices 1 2 3 4 5 6 
#
# 1 183.9564 79.6619 111.5829 0.0000 0.0000 0.0000
# 2 79.6619 125.7520 78.2157 0.0000 0.0000 0.0000
# 3 111.5829 78.2157 194.1079 0.0000 0.0000 0.0000
# 4 0.0000 0.0000 0.0000 65.3469 0.0000 0.0000
# 5 0.0000 0.0000 0.0000 0.0000 60.6940 0.0000
# 6 0.0000 0.0000 0.0000 0.0000 0.0000 -56.3461
#
#
#
# Elastic Compliance Matrix: (Units=1/GPa)
#
#
# Indices 1 2 3 4 5 6 
#
# 1 0.009343 -0.003440 -0.003984 0.000000 0.000000 0.000000
# 2 -0.003440 0.011879 -0.002809 0.000000 0.000000 0.000000
# 3 -0.003984 -0.002809 0.008574 0.000000 0.000000 0.000000
# 4 0.000000 0.000000 0.000000 0.015303 0.000000 0.000000
# 5 0.000000 0.000000 0.000000 0.000000 0.016476 0.000000
# 6 0.000000 0.000000 0.000000 0.000000 0.000000 -0.017747
#
#
# Mechanical properties :
#
#
# Convention : Reuss Voigt Hill
#
# Bulk Modulus (GPa) = 107.20039 115.85971 111.53005
# Shear Modulus (GPa) = 74.18051 29.56269 51.87160
#
# Velocity S-wave (km/s) = 4.96437 3.13394 4.15130
# Velocity P-wave (km/s) = 8.27497 7.18244 7.74799
#
# Compressibility (1/GPa) = 0.00932832
#
# Stress axis : x y z
#
# Youngs Moduli (GPa) = 107.03584 84.18549 116.63120
#
# Poissons Ratio (x) = 0.28961 0.46471
# Poissons Ratio (y) = 0.36822 0.32760
# Poissons Ratio (z) = 0.42647 0.23647
#
# Static dielectric constant tensor:
#      x y z
#    x 2.814590 0.000000 0.000000 
#    y 0.000000 2.501190 0.000000 
#    z 0.000000 0.000000 2.301510 
# 
# From -- ./inp_files/4491.got.cif
#   From: 2010.05.17/outbox.cif.g08.bks.cpg/sg64_3_cif.got.tgz:4491.got - 2010.06.03 16:29:19.
