data_PCOD9481823
_publ_section_title
;
Structure prediction by ZEFSAII (Michael W. Deem and Ramdas Pophale) SiO2 
 PCOD9481823
Probable space group: C M C A
;
_chemical_formula_sum "Si O2"
_cell_formula_units_Z 116
_cell_length_a 17.391765
_cell_length_b 17.635890
_cell_length_c 15.016517
_cell_angle_alpha 90.000000
_cell_angle_beta 90.000000
_cell_angle_gamma 90.000000
_cell_volume 4605.854899
_symmetry_space_group_name_H-M "C M C A"
_symmetry_group_IT_number 64
_symmetry_cell_setting 'orthorhombic'
loop_
_space_group_symop_operation_xyz
x,y,z
-x,1/2-y,1/2+z
x,-y,-z
-x,1/2+y,1/2-z
-x,-y,-z
x,1/2+y,1/2-z
-x,y,z
x,1/2-y,1/2+z
1/2+x,1/2+y,z
1/2-x,-y,1/2+z
1/2+x,1/2-y,-z
1/2-x,y,1/2-z
1/2-x,1/2-y,-z
1/2+x,y,1/2-z
1/2-x,1/2+y,z
1/2+x,-y,1/2+z
loop_
_atom_site_type_symbol
_atom_site_label
_atom_site_fract_x
_atom_site_fract_y
_atom_site_fract_z
Si Si1 0.909602 0.775050 0.857885
Si Si2 0.625873 0.182141 0.564385
Si Si3 0.500000 0.000000 0.000000
Si Si4 0.696666 0.600682 0.171377
Si Si5 0.803810 0.854418 0.401371
Si Si6 0.416216 0.520657 0.860813
Si Si7 0.349615 0.659746 0.397567
Si Si8 0.383053 0.991073 0.153541
O O1 0.872193 0.843166 0.801180
O O2 0.856518 0.701314 0.842049
O O3 0.000000 0.762853 0.843861
O O4 0.895969 0.803237 0.960948
O O5 0.717155 0.172073 0.581833
O O6 0.590479 0.104106 0.598799
O O7 0.607770 0.260624 0.616533
O O8 0.435695 0.030920 0.929103
O O9 0.750000 0.566858 0.250000
O O10 0.654312 0.535631 0.115168
O O11 0.759386 0.656211 0.128120
O O12 0.844594 0.849147 0.496577
O O13 0.808211 0.939265 0.363282
O O14 0.500000 0.487895 0.885155
O O15 0.410865 0.524766 0.753252
O O16 0.382187 0.581495 0.360424
#
# Coordination Sequence:
#
# PCOD9481823 Si02
#       8
#    16  16   4  16  16  16  16  16
#     4  11  24  44  73 108 149 189 241 310 374 444
#     4  11  24  45  73 102 144 194 240 295 365 455
#     4  12  24  44  72  96 132 186 232 304 366 422
#     4  12  24  44  72 100 139 194 246 293 363 441
#     4  11  22  42  74 104 138 184 250 296 353 448
#     4  12  28  46  65 105 152 184 237 308 379 445
#     4  11  21  45  70 103 129 183 252 294 341 440
#     4  12  25  42  71 100 133 184 242 304 361 427
#
# _framework density 25.185334999999998
#
# number of rings (size 3 to 8) (size 9 to 14) (size 15 to 20)
#    0.000    0.552    6.207    2.483    0.966    1.655 
#    1.241    1.379    0.000    0.000    0.000    0.000 
#    0.000    0.000    0.000    0.000    0.000    0.000 
#
# Total GULP energy -323491.527211 kJ/mol
# GULP energy per Si atom -5577.440124 kJ/mol
# Density = 2.512801 g / cm^3
# Si number density = 25.185335 Si / 1000 Ang^3
#
#
#
# Elastic Constant Matrix: (Units=GPa)
#
#
# Indices 1 2 3 4 5 6 
#
# 1 124.6419 24.7238 -12.5101 0.0000 0.0000 0.0000
# 2 24.7238 123.8083 13.8505 0.0000 0.0000 0.0000
# 3 -12.5101 13.8505 42.1605 0.0000 0.0000 0.0000
# 4 0.0000 0.0000 0.0000 38.5296 0.0000 0.0000
# 5 0.0000 0.0000 0.0000 0.0000 14.0006 0.0000
# 6 0.0000 0.0000 0.0000 0.0000 0.0000 3.6692
#
#
#
# Elastic Compliance Matrix: (Units=1/GPa)
#
#
# Indices 1 2 3 4 5 6 
#
# 1 0.008775 -0.002122 0.003301 0.000000 0.000000 0.000000
# 2 -0.002122 0.008898 -0.003553 0.000000 0.000000 0.000000
# 3 0.003301 -0.003553 0.025865 0.000000 0.000000 0.000000
# 4 0.000000 0.000000 0.000000 0.025954 0.000000 0.000000
# 5 0.000000 0.000000 0.000000 0.000000 0.071426 0.000000
# 6 0.000000 0.000000 0.000000 0.000000 0.000000 0.272541
#
#
# Mechanical properties :
#
#
# Convention : Reuss Voigt Hill
#
# Bulk Modulus (GPa) = 25.77878 38.08212 31.93045
# Shear Modulus (GPa) = 11.59725 28.87630 20.23677
#
# Velocity S-wave (km/s) = 2.14820 3.38975 2.83771
# Velocity P-wave (km/s) = 4.05103 5.52034 4.84174
#
# Compressibility (1/GPa) = 0.03879160
#
# Stress axis : x y z
#
# Youngs Moduli (GPa) = 113.95856 112.38330 38.66162
#
# Poissons Ratio (x) = 0.23843 -0.12761
# Poissons Ratio (y) = 0.24177 0.13735
# Poissons Ratio (z) = -0.37615 0.39927
#
# Static dielectric constant tensor:
#      x y z
#    x 1.957730 0.000000 0.000000 
#    y 0.000000 2.013750 0.000000 
#    z 0.000000 0.000000 2.131950 
# 
# From -- ./inp_files/33451.got.cif
#   From: 2010.05.17/outbox.cif.g08.bks.cpg/sg64_17_cif.got.tgz:33451.got - 2010.06.03 16:29:19.
