data_PCOD9481646
_publ_section_title
;
Structure prediction by ZEFSAII (Michael W. Deem and Ramdas Pophale) SiO2 
 PCOD9481646
Probable space group: C M C A
;
_chemical_formula_sum "Si O2"
_cell_formula_units_Z 80
_cell_length_a 19.296969
_cell_length_b 14.460387
_cell_length_c 13.392165
_cell_angle_alpha 90.000000
_cell_angle_beta 90.000000
_cell_angle_gamma 90.000000
_cell_volume 3736.971680
_symmetry_space_group_name_H-M "C M C A"
_symmetry_group_IT_number 64
_symmetry_cell_setting 'orthorhombic'
loop_
_space_group_symop_operation_xyz
x,y,z
-x,1/2-y,1/2+z
x,-y,-z
-x,1/2+y,1/2-z
-x,-y,-z
x,1/2+y,1/2-z
-x,y,z
x,1/2-y,1/2+z
1/2+x,1/2+y,z
1/2-x,-y,1/2+z
1/2+x,1/2-y,-z
1/2-x,y,1/2-z
1/2-x,1/2-y,-z
1/2+x,y,1/2-z
1/2-x,1/2+y,z
1/2+x,-y,1/2+z
loop_
_atom_site_type_symbol
_atom_site_label
_atom_site_fract_x
_atom_site_fract_y
_atom_site_fract_z
Si Si1 0.295393 0.888840 0.004505
Si Si2 0.080193 0.460667 0.701038
Si Si3 0.572520 0.927156 0.092222
Si Si4 0.810081 0.107664 0.834254
Si Si5 0.328598 0.695102 0.289630
O O1 0.360035 0.867232 0.076197
O O2 0.227887 0.858633 0.064451
O O3 0.317526 0.851923 0.897661
O O4 0.287113 0.000000 0.000000
O O5 0.076840 0.513407 0.807870
O O6 0.137161 0.524128 0.644920
O O7 0.117788 0.363857 0.724378
O O8 0.000000 0.454605 0.664653
O O9 0.500000 0.874822 0.090247
O O10 0.571733 0.000000 0.000000
O O11 0.750000 0.082520 0.750000
O O12 0.850402 0.198371 0.797845
O O13 0.250000 0.695223 0.250000
#
# Coordination Sequence:
#
# PCOD9481646 Si02
#       5
#    16  16  16  16  16
#     4  11  18  34  60  84 118 156 193 244 301 354
#     4  11  21  37  59  83 118 155 193 245 300 351
#     4   9  16  28  53  85 110 142 190 240 290 339
#     4  11  22  37  57  88 121 151 196 244 296 357
#     4  11  23  37  58  88 117 154 201 247 293 353
#
# _framework density 21.407709000000001
#
# number of rings (size 3 to 8) (size 9 to 14) (size 15 to 20)
#    0.000    1.400    6.000    2.400    0.000    0.800 
#    0.000    0.000    0.000    5.400    0.000    0.000 
#    0.000    0.000    0.000    0.000    0.000    0.000 
#
# Total GULP energy -223040.913547 kJ/mol
# GULP energy per Si atom -5576.022839 kJ/mol
# Density = 2.135898 g / cm^3
# Si number density = 21.407709 Si / 1000 Ang^3
#
#
#
# Elastic Constant Matrix: (Units=GPa)
#
#
# Indices 1 2 3 4 5 6 
#
# 1 116.2950 34.9115 -13.5071 0.0000 0.0000 0.0000
# 2 34.9115 91.6294 -13.2695 0.0000 0.0000 0.0000
# 3 -13.5071 -13.2695 20.7784 0.0000 0.0000 0.0000
# 4 0.0000 0.0000 0.0000 17.2593 0.0000 0.0000
# 5 0.0000 0.0000 0.0000 0.0000 20.5786 0.0000
# 6 0.0000 0.0000 0.0000 0.0000 0.0000 -2.3692
#
#
#
# Elastic Compliance Matrix: (Units=1/GPa)
#
#
# Indices 1 2 3 4 5 6 
#
# 1 0.010080 -0.003186 0.004518 0.000000 0.000000 0.000000
# 2 -0.003186 0.013033 0.006252 0.000000 0.000000 0.000000
# 3 0.004518 0.006252 0.055056 0.000000 0.000000 0.000000
# 4 0.000000 0.000000 0.000000 0.057940 0.000000 0.000000
# 5 0.000000 0.000000 0.000000 0.000000 0.048594 0.000000
# 6 0.000000 0.000000 0.000000 0.000000 0.000000 -0.422083
#
#
# Mechanical properties :
#
#
# Convention : Reuss Voigt Hill
#
# Bulk Modulus (GPa) = 10.71404 27.21916 18.96660
# Shear Modulus (GPa) = -22.58005 21.79827 -0.39089
#
# Velocity S-wave (km/s) = -3.25123 3.19446 -0.42777
# Velocity P-wave (km/s) = 3.01304 5.13306 2.93853
#
# Compressibility (1/GPa) = 0.09333551
#
# Stress axis : x y z
#
# Youngs Moduli (GPa) = 99.20567 76.72887 18.16328
#
# Poissons Ratio (x) = 0.24448 -0.08206
# Poissons Ratio (y) = 0.31610 -0.11355
# Poissons Ratio (z) = -0.44819 -0.47969
#
# Static dielectric constant tensor:
#      x y z
#    x 1.858920 0.000000 0.000000 
#    y 0.000000 1.806540 0.000000 
#    z 0.000000 0.000000 1.861580 
# 
# From -- ./inp_files/25322.got.cif
#   From: 2010.05.17/outbox.cif.g08.bks.cpg/sg64_13_cif.got.tgz:25322.got - 2010.06.03 16:29:19.
