data_PCOD9481074
_publ_section_title
;
Structure prediction by ZEFSAII (Michael W. Deem and Ramdas Pophale) SiO2 
 PCOD9481074
Probable space group: C M C A
;
_chemical_formula_sum "Si O2"
_cell_formula_units_Z 80
_cell_length_a 16.995892
_cell_length_b 12.971584
_cell_length_c 14.647101
_cell_angle_alpha 90.000000
_cell_angle_beta 90.000000
_cell_angle_gamma 90.000000
_cell_volume 3229.153213
_symmetry_space_group_name_H-M "C M C A"
_symmetry_group_IT_number 64
_symmetry_cell_setting 'orthorhombic'
loop_
_space_group_symop_operation_xyz
x,y,z
-x,1/2-y,1/2+z
x,-y,-z
-x,1/2+y,1/2-z
-x,-y,-z
x,1/2+y,1/2-z
-x,y,z
x,1/2-y,1/2+z
1/2+x,1/2+y,z
1/2-x,-y,1/2+z
1/2+x,1/2-y,-z
1/2-x,y,1/2-z
1/2-x,1/2-y,-z
1/2+x,y,1/2-z
1/2-x,1/2+y,z
1/2+x,-y,1/2+z
loop_
_atom_site_type_symbol
_atom_site_label
_atom_site_fract_x
_atom_site_fract_y
_atom_site_fract_z
Si Si1 0.083645 0.479006 0.746216
Si Si2 0.809047 0.882447 0.999524
Si Si3 0.408833 0.196238 0.650938
Si Si4 0.140874 0.567102 0.916069
Si Si5 0.637705 0.778750 0.666408
O O1 0.088676 0.577834 0.682554
O O2 0.146042 0.493418 0.827216
O O3 0.085426 0.379337 0.683621
O O4 0.000000 0.482690 0.796645
O O5 0.868463 0.807414 0.053152
O O6 0.727138 0.896821 0.051848
O O7 0.798365 0.829538 0.900952
O O8 0.841072 0.000000 0.000000
O O9 0.500000 0.234594 0.652441
O O10 0.352473 0.246692 0.727635
O O11 0.103632 0.674487 0.879700
O O12 0.107348 0.500000 0.000000
#
# Coordination Sequence:
#
# PCOD9481074 Si02
#       5
#    16  16  16  16  16
#     4  10  22  43  68  99 140 188 241 300 368 438
#     4  11  23  46  69 105 142 189 247 303 362 442
#     4  10  23  42  65 101 140 184 240 299 369 432
#     4  10  25  46  67 104 146 184 248 304 367 441
#     4  11  23  43  70 101 139 193 245 303 364 440
#
# _framework density 24.774294999999999
#
# number of rings (size 3 to 8) (size 9 to 14) (size 15 to 20)
#    0.000    1.600    2.000    1.200    2.800    6.400 
#    7.200    0.000    0.000    0.000    0.000    0.000 
#    0.000    0.000    0.000    0.000    0.000    0.000 
#
# Total GULP energy -222928.148471 kJ/mol
# GULP energy per Si atom -5573.203712 kJ/mol
# Density = 2.471791 g / cm^3
# Si number density = 24.774295 Si / 1000 Ang^3
#
#
#
# Elastic Constant Matrix: (Units=GPa)
#
#
# Indices 1 2 3 4 5 6 
#
# 1 72.3191 16.1105 63.4613 0.0000 0.0000 0.0000
# 2 16.1105 133.1824 36.9426 0.0000 0.0000 0.0000
# 3 63.4613 36.9426 107.9148 0.0000 0.0000 0.0000
# 4 0.0000 0.0000 0.0000 68.6749 0.0000 0.0000
# 5 0.0000 0.0000 0.0000 0.0000 8.7725 0.0000
# 6 0.0000 0.0000 0.0000 0.0000 0.0000 7.3504
#
#
#
# Elastic Compliance Matrix: (Units=1/GPa)
#
#
# Indices 1 2 3 4 5 6 
#
# 1 0.028787 0.001341 -0.017388 0.000000 0.000000 0.000000
# 2 0.001341 0.008359 -0.003650 0.000000 0.000000 0.000000
# 3 -0.017388 -0.003650 0.020741 0.000000 0.000000 0.000000
# 4 0.000000 0.000000 0.000000 0.014561 0.000000 0.000000
# 5 0.000000 0.000000 0.000000 0.000000 0.113993 0.000000
# 6 0.000000 0.000000 0.000000 0.000000 0.000000 0.136046
#
#
# Mechanical properties :
#
#
# Convention : Reuss Voigt Hill
#
# Bulk Modulus (GPa) = 54.07383 60.71613 57.39498
# Shear Modulus (GPa) = 13.58528 30.08636 21.83582
#
# Velocity S-wave (km/s) = 2.34425 3.48863 2.97204
# Velocity P-wave (km/s) = 5.40383 6.38657 5.91564
#
# Compressibility (1/GPa) = 0.01849324
#
# Stress axis : x y z
#
# Youngs Moduli (GPa) = 34.73806 119.63525 48.21327
#
# Poissons Ratio (x) = -0.16041 0.83832
# Poissons Ratio (y) = -0.04658 0.17598
# Poissons Ratio (z) = 0.60401 0.43666
#
# Static dielectric constant tensor:
#      x y z
#    x 1.987890 0.000000 0.000000 
#    y 0.000000 2.004040 0.000000 
#    z 0.000000 0.000000 1.978220 
# 
# From -- ./inp_files/18046.got.cif
#   From: 2010.05.17/outbox.cif.g08.bks.cpg/sg64_10_cif.got.tgz:18046.got - 2010.06.03 16:29:19.
