data_PCOD9481758
_publ_section_title
;
Structure prediction by ZEFSAII (Michael W. Deem and Ramdas Pophale) SiO2 
 PCOD9481758
Probable space group: C M C A
;
_chemical_formula_sum "Si O2"
_cell_formula_units_Z 72
_cell_length_a 13.579736
_cell_length_b 14.107804
_cell_length_c 22.780071
_cell_angle_alpha 90.000000
_cell_angle_beta 90.000000
_cell_angle_gamma 90.000000
_cell_volume 4364.211785
_symmetry_space_group_name_H-M "C M C A"
_symmetry_group_IT_number 64
_symmetry_cell_setting 'orthorhombic'
loop_
_space_group_symop_operation_xyz
x,y,z
-x,1/2-y,1/2+z
x,-y,-z
-x,1/2+y,1/2-z
-x,-y,-z
x,1/2+y,1/2-z
-x,y,z
x,1/2-y,1/2+z
1/2+x,1/2+y,z
1/2-x,-y,1/2+z
1/2+x,1/2-y,-z
1/2-x,y,1/2-z
1/2-x,1/2-y,-z
1/2+x,y,1/2-z
1/2-x,1/2+y,z
1/2+x,-y,1/2+z
loop_
_atom_site_type_symbol
_atom_site_label
_atom_site_fract_x
_atom_site_fract_y
_atom_site_fract_z
Si Si1 0.750000 0.991842 0.250000
Si Si2 0.108538 0.264590 0.635940
Si Si3 0.113586 0.820566 0.233171
Si Si4 0.310003 0.146687 0.155769
Si Si5 0.500000 0.593585 0.420335
Si Si6 0.500000 0.870539 0.056797
O O1 0.705907 0.058913 0.199789
O O2 0.832294 0.920161 0.225907
O O3 0.119272 0.212101 0.698705
O O4 0.203936 0.329078 0.627155
O O5 0.091999 0.185438 0.585853
O O6 0.000000 0.314379 0.638239
O O7 0.161520 0.738135 0.194614
O O8 0.000000 0.828860 0.217325
O O9 0.400979 0.126221 0.112867
O O10 0.500000 0.631635 0.486860
O O11 0.500000 0.479290 0.423362
#
# Coordination Sequence:
#
# PCOD9481758 Si02
#       6
#     8  16  16  16   8   8
#     4  12  22  32  56  88 118 158 176 232 298 362
#     4   9  19  38  59  76 117 153 185 234 281 348
#     4  11  21  36  53  87 122 150 185 235 294 354
#     4  12  22  36  58  91 119 147 196 234 298 351
#     4  11  24  37  62  91 109 150 207 250 275 348
#     4   9  22  43  60  83 109 160 207 234 295 324
#
# _framework density 16.497824000000001
#
# number of rings (size 3 to 8) (size 9 to 14) (size 15 to 20)
#    0.667    0.667    5.556    1.333    1.556    1.778 
#    0.000    0.000    0.000    0.000    0.000    3.111 
#    0.000    0.000    0.000    0.000    0.000    0.000 
#
# Total GULP energy -200613.498770 kJ/mol
# GULP energy per Si atom -5572.597188 kJ/mol
# Density = 1.646027 g / cm^3
# Si number density = 16.497824 Si / 1000 Ang^3
#
#
#
# Elastic Constant Matrix: (Units=GPa)
#
#
# Indices 1 2 3 4 5 6 
#
# 1 160.8833 70.0030 57.4981 0.0000 0.0000 0.0000
# 2 70.0030 103.4044 46.8575 0.0000 0.0000 0.0000
# 3 57.4981 46.8575 96.5529 0.0000 0.0000 0.0000
# 4 0.0000 0.0000 0.0000 2.0078 0.0000 0.0000
# 5 0.0000 0.0000 0.0000 0.0000 5.6051 0.0000
# 6 0.0000 0.0000 0.0000 0.0000 0.0000 9.0809
#
#
#
# Elastic Compliance Matrix: (Units=1/GPa)
#
#
# Indices 1 2 3 4 5 6 
#
# 1 0.009554 -0.004986 -0.003270 0.000000 0.000000 0.000000
# 2 -0.004986 0.014999 -0.004310 0.000000 0.000000 0.000000
# 3 -0.003270 -0.004310 0.014396 0.000000 0.000000 0.000000
# 4 0.000000 0.000000 0.000000 0.498069 0.000000 0.000000
# 5 0.000000 0.000000 0.000000 0.000000 0.178408 0.000000
# 6 0.000000 0.000000 0.000000 0.000000 0.000000 0.110121
#
#
# Mechanical properties :
#
#
# Convention : Reuss Voigt Hill
#
# Bulk Modulus (GPa) = 72.37194 78.83977 75.60585
# Shear Modulus (GPa) = 5.84601 15.77089 10.80845
#
# Velocity S-wave (km/s) = 1.88446 3.09518 2.56235
# Velocity P-wave (km/s) = 6.97838 7.78879 7.39469
#
# Compressibility (1/GPa) = 0.01381751
#
# Stress axis : x y z
#
# Youngs Moduli (GPa) = 104.67107 66.66959 69.46519
#
# Poissons Ratio (x) = 0.33242 0.22712
# Poissons Ratio (y) = 0.52190 0.29939
# Poissons Ratio (z) = 0.34223 0.28734
#
# Static dielectric constant tensor:
#      x y z
#    x 1.591230 0.000000 0.000000 
#    y 0.000000 1.534680 0.000000 
#    z 0.000000 0.000000 1.535060 
# 
# From -- ./inp_files/44900.got.cif
#   From: 2010.05.17/outbox.cif.g08.bks.cpg/sg64_23_cif.got.tgz:44900.got - 2010.06.03 16:29:19.
