data_PCOD9481271
_publ_section_title
;
Structure prediction by ZEFSAII (Michael W. Deem and Ramdas Pophale) SiO2 
 PCOD9481271
Probable space group: C M C A
;
_chemical_formula_sum "Si O2"
_cell_formula_units_Z 52
_cell_length_a 16.776388
_cell_length_b 10.703091
_cell_length_c 12.470763
_cell_angle_alpha 90.000000
_cell_angle_beta 90.000000
_cell_angle_gamma 90.000000
_cell_volume 2239.240320
_symmetry_space_group_name_H-M "C M C A"
_symmetry_group_IT_number 64
_symmetry_cell_setting 'orthorhombic'
loop_
_space_group_symop_operation_xyz
x,y,z
-x,1/2-y,1/2+z
x,-y,-z
-x,1/2+y,1/2-z
-x,-y,-z
x,1/2+y,1/2-z
-x,y,z
x,1/2-y,1/2+z
1/2+x,1/2+y,z
1/2-x,-y,1/2+z
1/2+x,1/2-y,-z
1/2-x,y,1/2-z
1/2-x,1/2-y,-z
1/2+x,y,1/2-z
1/2-x,1/2+y,z
1/2+x,-y,1/2+z
loop_
_atom_site_type_symbol
_atom_site_label
_atom_site_fract_x
_atom_site_fract_y
_atom_site_fract_z
Si Si1 0.590248 0.947110 0.377641
Si Si2 0.000000 0.500000 0.000000
Si Si3 0.298463 0.836007 0.649373
Si Si4 0.858608 0.314248 0.964427
O O1 0.500000 0.947676 0.334044
O O2 0.622868 0.807857 0.392101
O O3 0.586974 0.000000 0.500000
O O4 0.649456 0.043339 0.319997
O O5 0.930001 0.591829 0.047066
O O6 0.250000 0.786706 0.750000
O O7 0.227697 0.868578 0.565835
O O8 0.352800 0.736485 0.586948
#
# Coordination Sequence:
#
# PCOD9481271 Si02
#       4
#    16   4  16  16
#     4   9  18  39  64  90 124 169 218 272 333 392
#     4  12  24  44  66 100 138 186 224 282 340 412
#     4  10  23  42  67  97 132 177 226 280 347 410
#     4  10  23  42  66  97 137 179 223 280 340 403
#
# _framework density 23.222162000000001
#
# number of rings (size 3 to 8) (size 9 to 14) (size 15 to 20)
#    0.000    2.154    1.538    0.000   12.923    1.231 
#    2.769    0.000    0.000    0.000    0.000    0.000 
#    0.000    0.000    0.000    0.000    0.000    0.000 
#
# Total GULP energy -144782.963543 kJ/mol
# GULP energy per Si atom -5568.575521 kJ/mol
# Density = 2.316931 g / cm^3
# Si number density = 23.222162 Si / 1000 Ang^3
#
#
#
# Elastic Constant Matrix: (Units=GPa)
#
#
# Indices 1 2 3 4 5 6 
#
# 1 143.6652 47.0179 -8.3207 0.0000 0.0000 0.0000
# 2 47.0179 66.8275 -2.6598 0.0000 0.0000 0.0000
# 3 -8.3207 -2.6598 33.8358 0.0000 0.0000 0.0000
# 4 0.0000 0.0000 0.0000 -3.9057 0.0000 0.0000
# 5 0.0000 0.0000 0.0000 0.0000 8.6125 0.0000
# 6 0.0000 0.0000 0.0000 0.0000 0.0000 22.7802
#
#
#
# Elastic Compliance Matrix: (Units=1/GPa)
#
#
# Indices 1 2 3 4 5 6 
#
# 1 0.009145 -0.006364 0.001749 0.000000 0.000000 0.000000
# 2 -0.006364 0.019440 -0.000037 0.000000 0.000000 0.000000
# 3 0.001749 -0.000037 0.029982 0.000000 0.000000 0.000000
# 4 0.000000 0.000000 0.000000 -0.256038 0.000000 0.000000
# 5 0.000000 0.000000 0.000000 0.000000 0.116110 0.000000
# 6 0.000000 0.000000 0.000000 0.000000 0.000000 0.043898
#
#
# Mechanical properties :
#
#
# Convention : Reuss Voigt Hill
#
# Bulk Modulus (GPa) = 20.30002 35.15591 27.72796
# Shear Modulus (GPa) = -425.97154 19.38349 -203.29403
#
# Velocity S-wave (km/s) = -13.55844 2.89225 -9.36660
# Velocity P-wave (km/s) = 15.37361 5.13082 10.24750
#
# Compressibility (1/GPa) = 0.04926104
#
# Stress axis : x y z
#
# Youngs Moduli (GPa) = 109.35167 51.43963 33.35381
#
# Poissons Ratio (x) = 0.32738 -0.05832
# Poissons Ratio (y) = 0.69596 0.00123
# Poissons Ratio (z) = -0.19121 0.00190
#
# Static dielectric constant tensor:
#      x y z
#    x 1.810660 0.000000 0.000000 
#    y 0.000000 1.898040 0.000000 
#    z 0.000000 0.000000 1.963660 
# 
# From -- ./inp_files/24711.got.cif
#   From: 2010.05.17/outbox.cif.g08.bks.cpg/sg64_13_cif.got.tgz:24711.got - 2010.06.03 16:29:19.
