data_PCOD9481791
_publ_section_title
;
Structure prediction by ZEFSAII (Michael W. Deem and Ramdas Pophale) SiO2 
 PCOD9481791
Probable space group: C M C A
;
_chemical_formula_sum "Si O2"
_cell_formula_units_Z 80
_cell_length_a 26.529636
_cell_length_b 16.167165
_cell_length_c 8.848743
_cell_angle_alpha 90.000000
_cell_angle_beta 90.000000
_cell_angle_gamma 90.000000
_cell_volume 3795.305534
_symmetry_space_group_name_H-M "C M C A"
_symmetry_group_IT_number 64
_symmetry_cell_setting 'orthorhombic'
loop_
_space_group_symop_operation_xyz
x,y,z
-x,1/2-y,1/2+z
x,-y,-z
-x,1/2+y,1/2-z
-x,-y,-z
x,1/2+y,1/2-z
-x,y,z
x,1/2-y,1/2+z
1/2+x,1/2+y,z
1/2-x,-y,1/2+z
1/2+x,1/2-y,-z
1/2-x,y,1/2-z
1/2-x,1/2-y,-z
1/2+x,y,1/2-z
1/2-x,1/2+y,z
1/2+x,-y,1/2+z
loop_
_atom_site_type_symbol
_atom_site_label
_atom_site_fract_x
_atom_site_fract_y
_atom_site_fract_z
Si Si1 0.715750 0.940964 0.881564
Si Si2 0.558630 0.344138 0.681690
Si Si3 0.396622 0.196439 0.855606
Si Si4 0.609615 0.509199 0.679387
Si Si5 0.214411 0.302327 0.110079
O O1 0.750000 0.906073 0.750000
O O2 0.669097 0.989017 0.808249
O O3 0.695810 0.873295 0.996232
O O4 0.745020 0.000000 0.000000
O O5 0.500000 0.355723 0.646084
O O6 0.588512 0.319560 0.529269
O O7 0.567145 0.266486 0.790875
O O8 0.580040 0.431048 0.747940
O O9 0.339322 0.231378 0.834041
O O10 0.400205 0.104767 0.778597
O O11 0.597654 0.500000 0.500000
O O12 0.250000 0.328256 0.250000
O O13 0.250000 0.250000 0.000000
#
# Coordination Sequence:
#
# PCOD9481791 Si02
#       5
#    16  16  16  16  16
#     4  11  21  39  60  92 130 173 220 263 322 397
#     4  11  23  41  68  94 119 166 220 272 336 392
#     4  11  23  44  63  94 133 164 216 274 327 396
#     4   9  20  41  63  88 129 167 212 266 318 396
#     4  12  24  38  62  96 133 179 218 264 332 400
#
# _framework density 21.078671
#
# number of rings (size 3 to 8) (size 9 to 14) (size 15 to 20)
#    0.000    1.200    6.000    3.000    2.800    4.400 
#    0.000    1.000    0.000    2.400    0.000    0.000 
#    0.000    0.000    0.000    0.000    0.000    0.000 
#
# Total GULP energy -222908.803271 kJ/mol
# GULP energy per Si atom -5572.720082 kJ/mol
# Density = 2.103070 g / cm^3
# Si number density = 21.078671 Si / 1000 Ang^3
#
#
#
# Elastic Constant Matrix: (Units=GPa)
#
#
# Indices 1 2 3 4 5 6 
#
# 1 107.0994 21.6648 19.6079 0.0000 0.0000 0.0000
# 2 21.6648 102.3927 11.9056 0.0000 0.0000 0.0000
# 3 19.6079 11.9056 46.9464 0.0000 0.0000 0.0000
# 4 0.0000 0.0000 0.0000 31.3470 0.0000 0.0000
# 5 0.0000 0.0000 0.0000 0.0000 23.8010 0.0000
# 6 0.0000 0.0000 0.0000 0.0000 0.0000 16.3317
#
#
#
# Elastic Compliance Matrix: (Units=1/GPa)
#
#
# Indices 1 2 3 4 5 6 
#
# 1 0.010405 -0.001748 -0.003903 0.000000 0.000000 0.000000
# 2 -0.001748 0.010357 -0.001896 0.000000 0.000000 0.000000
# 3 -0.003903 -0.001896 0.023412 0.000000 0.000000 0.000000
# 4 0.000000 0.000000 0.000000 0.031901 0.000000 0.000000
# 5 0.000000 0.000000 0.000000 0.000000 0.042015 0.000000
# 6 0.000000 0.000000 0.000000 0.000000 0.000000 0.061230
#
#
# Mechanical properties :
#
#
# Convention : Reuss Voigt Hill
#
# Bulk Modulus (GPa) = 34.38804 40.31055 37.34929
# Shear Modulus (GPa) = 24.49694 27.84664 26.17179
#
# Velocity S-wave (km/s) = 3.41276 3.63861 3.52749
# Velocity P-wave (km/s) = 5.64613 6.06779 5.86075
#
# Compressibility (1/GPa) = 0.02907988
#
# Stress axis : x y z
#
# Youngs Moduli (GPa) = 96.10595 96.55643 42.71342
#
# Poissons Ratio (x) = 0.16876 0.16670
# Poissons Ratio (y) = 0.16797 0.08100
# Poissons Ratio (z) = 0.37507 0.18311
#
# Static dielectric constant tensor:
#      x y z
#    x 1.734490 0.000000 0.000000 
#    y 0.000000 1.911890 0.000000 
#    z 0.000000 0.000000 1.746710 
# 
# From -- ./inp_files/10207.got.cif
#   From: 2010.05.17/outbox.cif.g08.bks.cpg/sg64_6_cif.got.tgz:10207.got - 2010.06.03 16:29:19.
