data_PCOD9481874
_publ_section_title
;
Structure prediction by ZEFSAII (Michael W. Deem and Ramdas Pophale) SiO2 
 PCOD9481874
Probable space group: C M C A
;
_chemical_formula_sum "Si O2"
_cell_formula_units_Z 96
_cell_length_a 18.742479
_cell_length_b 9.521623
_cell_length_c 28.640687
_cell_angle_alpha 90.000000
_cell_angle_beta 90.000000
_cell_angle_gamma 90.000000
_cell_volume 5111.183181
_symmetry_space_group_name_H-M "C M C A"
_symmetry_group_IT_number 64
_symmetry_cell_setting 'orthorhombic'
loop_
_space_group_symop_operation_xyz
x,y,z
-x,1/2-y,1/2+z
x,-y,-z
-x,1/2+y,1/2-z
-x,-y,-z
x,1/2+y,1/2-z
-x,y,z
x,1/2-y,1/2+z
1/2+x,1/2+y,z
1/2-x,-y,1/2+z
1/2+x,1/2-y,-z
1/2-x,y,1/2-z
1/2-x,1/2-y,-z
1/2+x,y,1/2-z
1/2-x,1/2+y,z
1/2+x,-y,1/2+z
loop_
_atom_site_type_symbol
_atom_site_label
_atom_site_fract_x
_atom_site_fract_y
_atom_site_fract_z
Si Si1 0.314734 0.656585 0.979283
Si Si2 0.916855 0.479117 0.215873
Si Si3 0.658762 0.561553 0.622488
Si Si4 0.830582 0.755278 0.229054
Si Si5 0.080250 0.144030 0.528938
Si Si6 0.791392 0.742859 0.625919
O O1 0.313255 0.669057 0.922909
O O2 0.308261 0.500000 0.000000
O O3 0.250000 0.750000 0.000000
O O4 0.385008 0.732548 0.998781
O O5 0.902460 0.457445 0.160868
O O6 0.860502 0.598025 0.231088
O O7 0.887986 0.344814 0.242947
O O8 0.000000 0.510093 0.224646
O O9 0.627383 0.607662 0.573459
O O10 0.712412 0.685818 0.636278
O O11 0.699493 0.410969 0.619305
O O12 0.750000 0.767222 0.250000
O O13 0.831715 0.794748 0.173947
O O14 0.000000 0.180736 0.542717
O O15 0.079095 0.000000 0.500000
#
# Coordination Sequence:
#
# PCOD9481874 Si02
#       6
#    16  16  16  16  16  16
#     4  12  23  40  65  93 126 162 208 259 312 373
#     4  11  24  42  64  92 128 165 209 261 321 380
#     4  11  22  39  64  93 124 160 212 260 313 372
#     4  11  23  42  65  92 126 164 210 262 315 374
#     4  11  23  41  62  87 125 168 207 253 316 379
#     4  11  23  37  64  97 123 159 210 261 313 367
#
# _framework density 18.782343999999998
#
# number of rings (size 3 to 8) (size 9 to 14) (size 15 to 20)
#    0.000    0.833    5.000    3.000    2.333    0.333 
#    0.000    0.833    0.000    0.000    0.000    0.000 
#    0.000    0.000    0.000    0.000    0.000    0.000 
#
# Total GULP energy -267869.537792 kJ/mol
# GULP energy per Si atom -5580.615371 kJ/mol
# Density = 1.873959 g / cm^3
# Si number density = 18.782344 Si / 1000 Ang^3
#
#
#
# Elastic Constant Matrix: (Units=GPa)
#
#
# Indices 1 2 3 4 5 6 
#
# 1 77.8268 20.9984 0.4826 0.0000 0.0000 0.0000
# 2 20.9984 67.6530 26.8748 0.0000 0.0000 0.0000
# 3 0.4826 26.8748 84.8973 0.0000 0.0000 0.0000
# 4 0.0000 0.0000 0.0000 29.7415 0.0000 0.0000
# 5 0.0000 0.0000 0.0000 0.0000 22.0660 0.0000
# 6 0.0000 0.0000 0.0000 0.0000 0.0000 -1.9261
#
#
#
# Elastic Compliance Matrix: (Units=1/GPa)
#
#
# Indices 1 2 3 4 5 6 
#
# 1 0.014189 -0.005001 0.001502 0.000000 0.000000 0.000000
# 2 -0.005001 0.018670 -0.005882 0.000000 0.000000 0.000000
# 3 0.001502 -0.005882 0.013632 0.000000 0.000000 0.000000
# 4 0.000000 0.000000 0.000000 0.033623 0.000000 0.000000
# 5 0.000000 0.000000 0.000000 0.000000 0.045319 0.000000
# 6 0.000000 0.000000 0.000000 0.000000 0.000000 -0.519195
#
#
# Mechanical properties :
#
#
# Convention : Reuss Voigt Hill
#
# Bulk Modulus (GPa) = 36.06073 36.34317 36.20195
# Shear Modulus (GPa) = -13.67022 22.11103 4.22040
#
# Velocity S-wave (km/s) = -2.70075 3.43479 1.50063
# Velocity P-wave (km/s) = 3.08473 5.92639 4.72428
#
# Compressibility (1/GPa) = 0.02773099
#
# Stress axis : x y z
#
# Youngs Moduli (GPa) = 70.47713 53.56204 73.35532
#
# Poissons Ratio (x) = 0.26786 -0.11021
# Poissons Ratio (y) = 0.35244 0.43145
# Poissons Ratio (z) = -0.10588 0.31503
#
# Static dielectric constant tensor:
#      x y z
#    x 1.642890 0.000000 0.000000 
#    y 0.000000 1.661630 0.000000 
#    z 0.000000 0.000000 1.679710 
# 
# From -- ./inp_files/50687.got.cif
#   From: 2010.05.17/outbox.cif.g08.bks.cpg/sg64_26_cif.got.tgz:50687.got - 2010.06.03 16:29:19.
