data_PCOD9481338
_publ_section_title
;
Structure prediction by ZEFSAII (Michael W. Deem and Ramdas Pophale) SiO2 
 PCOD9481338
Probable space group: C M C A
;
_chemical_formula_sum "Si O2"
_cell_formula_units_Z 64
_cell_length_a 13.638041
_cell_length_b 7.961921
_cell_length_c 23.039563
_cell_angle_alpha 90.000000
_cell_angle_beta 90.000000
_cell_angle_gamma 90.000000
_cell_volume 2501.751064
_symmetry_space_group_name_H-M "C M C A"
_symmetry_group_IT_number 64
_symmetry_cell_setting 'orthorhombic'
loop_
_space_group_symop_operation_xyz
x,y,z
-x,1/2-y,1/2+z
x,-y,-z
-x,1/2+y,1/2-z
-x,-y,-z
x,1/2+y,1/2-z
-x,y,z
x,1/2-y,1/2+z
1/2+x,1/2+y,z
1/2-x,-y,1/2+z
1/2+x,1/2-y,-z
1/2-x,y,1/2-z
1/2-x,1/2-y,-z
1/2+x,y,1/2-z
1/2-x,1/2+y,z
1/2+x,-y,1/2+z
loop_
_atom_site_type_symbol
_atom_site_label
_atom_site_fract_x
_atom_site_fract_y
_atom_site_fract_z
Si Si1 0.383909 0.442798 0.157267
Si Si2 0.883235 0.900427 0.730356
Si Si3 0.223078 0.776054 0.566665
Si Si4 0.116399 0.405074 0.117616
O O1 0.500000 0.470977 0.145989
O O2 0.343021 0.576088 0.204968
O O3 0.372265 0.274823 0.197681
O O4 0.333988 0.378110 0.097970
O O5 0.857557 0.041802 0.683000
O O6 0.000000 0.920167 0.738684
O O7 0.250000 0.750000 0.500000
O O8 0.157914 0.940385 0.578623
O O9 0.328797 0.762901 0.598254
O O10 0.000000 0.393465 0.112198
#
# Coordination Sequence:
#
# PCOD9481338 Si02
#       4
#    16  16  16  16
#     4   9  18  35  60  91 127 162 205 267 323 381
#     4   8  16  33  58  88 121 160 205 257 327 388
#     4  11  23  39  63  93 126 175 226 259 317 396
#     4  10  23  44  66  91 129 170 213 273 327 378
#
# _framework density 25.582083000000001
#
# number of rings (size 3 to 8) (size 9 to 14) (size 15 to 20)
#    0.000    2.500    0.000    3.000    0.000    6.000 
#    0.000   10.000    0.000    7.500    0.000    0.000 
#    0.000    0.000    0.000    0.000    0.000    0.000 
#
# Total GULP energy -178982.094227 kJ/mol
# GULP energy per Si atom -5593.190445 kJ/mol
# Density = 2.552386 g / cm^3
# Si number density = 25.582083 Si / 1000 Ang^3
#
#
#
# Elastic Constant Matrix: (Units=GPa)
#
#
# Indices 1 2 3 4 5 6 
#
# 1 152.5173 0.2111 42.7694 0.0000 0.0000 0.0000
# 2 0.2111 80.2962 22.9460 0.0000 0.0000 0.0000
# 3 42.7694 22.9460 220.3485 0.0000 0.0000 0.0000
# 4 0.0000 0.0000 0.0000 32.0358 0.0000 0.0000
# 5 0.0000 0.0000 0.0000 0.0000 195.1074 0.0000
# 6 0.0000 0.0000 0.0000 0.0000 0.0000 39.9507
#
#
#
# Elastic Compliance Matrix: (Units=1/GPa)
#
#
# Indices 1 2 3 4 5 6 
#
# 1 0.006945 0.000378 -0.001387 0.000000 0.000000 0.000000
# 2 0.000378 0.012856 -0.001412 0.000000 0.000000 0.000000
# 3 -0.001387 -0.001412 0.004955 0.000000 0.000000 0.000000
# 4 0.000000 0.000000 0.000000 0.031215 0.000000 0.000000
# 5 0.000000 0.000000 0.000000 0.000000 0.005125 0.000000
# 6 0.000000 0.000000 0.000000 0.000000 0.000000 0.025031
#
#
# Mechanical properties :
#
#
# Convention : Reuss Voigt Hill
#
# Bulk Modulus (GPa) = 50.21743 65.00166 57.60954
# Shear Modulus (GPa) = 51.22515 79.23447 65.22981
#
# Velocity S-wave (km/s) = 4.47966 5.57134 5.05506
# Velocity P-wave (km/s) = 6.81388 8.17623 7.52594
#
# Compressibility (1/GPa) = 0.01991340
#
# Stress axis : x y z
#
# Youngs Moduli (GPa) = 143.98472 77.78185 201.83147
#
# Poissons Ratio (x) = -0.02942 0.28003
# Poissons Ratio (y) = -0.05446 0.28503
# Poissons Ratio (z) = 0.19977 0.10985
#
# Static dielectric constant tensor:
#      x y z
#    x 2.065070 0.000000 0.000000 
#    y 0.000000 2.215270 0.000000 
#    z 0.000000 0.000000 1.991250 
# 
# From -- ./inp_files/44789.got.cif
#   From: 2010.05.17/outbox.cif.g08.bks.cpg/sg64_23_cif.got.tgz:44789.got - 2010.06.03 16:29:19.
