data_PCOD9481945
_publ_section_title
;
Structure prediction by ZEFSAII (Michael W. Deem and Ramdas Pophale) SiO2 
 PCOD9481945
Probable space group: C M C A
;
_chemical_formula_sum "Si O2"
_cell_formula_units_Z 64
_cell_length_a 11.028589
_cell_length_b 14.746747
_cell_length_c 18.777402
_cell_angle_alpha 90.000000
_cell_angle_beta 90.000000
_cell_angle_gamma 90.000000
_cell_volume 3053.878017
_symmetry_space_group_name_H-M "C M C A"
_symmetry_group_IT_number 64
_symmetry_cell_setting 'orthorhombic'
loop_
_space_group_symop_operation_xyz
x,y,z
-x,1/2-y,1/2+z
x,-y,-z
-x,1/2+y,1/2-z
-x,-y,-z
x,1/2+y,1/2-z
-x,y,z
x,1/2-y,1/2+z
1/2+x,1/2+y,z
1/2-x,-y,1/2+z
1/2+x,1/2-y,-z
1/2-x,y,1/2-z
1/2-x,1/2-y,-z
1/2+x,y,1/2-z
1/2-x,1/2+y,z
1/2+x,-y,1/2+z
loop_
_atom_site_type_symbol
_atom_site_label
_atom_site_fract_x
_atom_site_fract_y
_atom_site_fract_z
Si Si1 0.000000 0.075020 0.098304
Si Si2 0.142734 0.385160 0.190834
Si Si3 0.228746 0.760547 0.084344
Si Si4 0.259738 0.914756 0.832027
Si Si5 0.500000 0.869655 0.445379
O O1 0.878668 0.080530 0.142659
O O2 0.000000 0.974791 0.068007
O O3 0.000000 0.143063 0.031111
O O4 0.250000 0.369375 0.250000
O O5 0.165317 0.309563 0.129642
O O6 0.172561 0.488179 0.163852
O O7 0.000000 0.381813 0.214153
O O8 0.189724 0.665267 0.118953
O O9 0.117315 0.828426 0.089771
O O10 0.250000 0.750000 0.000000
O O11 0.250000 0.887253 0.750000
#
# Coordination Sequence:
#
# PCOD9481945 Si02
#       5
#     8  16  16  16   8
#     4  11  22  47  70  99 138 196 239 282 355 438
#     4  11  28  50  72 104 146 188 235 298 357 426
#     4  12  26  45  70 105 140 188 240 294 355 427
#     4  11  26  44  71 101 141 183 239 295 357 421
#     4  11  24  43  74  96 145 190 241 285 356 429
#
# _framework density 20.956959999999999
#
# number of rings (size 3 to 8) (size 9 to 14) (size 15 to 20)
#    0.000    0.750    5.000    0.750   14.000    1.000 
#    0.000    1.250    0.000    0.000    0.000    0.000 
#    0.000    0.000    0.000    0.000    0.000    0.000 
#
# Total GULP energy -178643.827949 kJ/mol
# GULP energy per Si atom -5582.619623 kJ/mol
# Density = 2.090926 g / cm^3
# Si number density = 20.956960 Si / 1000 Ang^3
#
#
#
# Elastic Constant Matrix: (Units=GPa)
#
#
# Indices 1 2 3 4 5 6 
#
# 1 137.5797 11.5116 25.8491 0.0000 0.0000 0.0000
# 2 11.5116 94.3503 49.0255 0.0000 0.0000 0.0000
# 3 25.8491 49.0255 120.0530 0.0000 0.0000 0.0000
# 4 0.0000 0.0000 0.0000 42.0643 0.0000 0.0000
# 5 0.0000 0.0000 0.0000 0.0000 45.2466 0.0000
# 6 0.0000 0.0000 0.0000 0.0000 0.0000-1343.3088
#
#
#
# Elastic Compliance Matrix: (Units=1/GPa)
#
#
# Indices 1 2 3 4 5 6 
#
# 1 0.007576 -0.000097 -0.001591 0.000000 0.000000 0.000000
# 2 -0.000097 0.013455 -0.005473 0.000000 0.000000 0.000000
# 3 -0.001591 -0.005473 0.010907 0.000000 0.000000 0.000000
# 4 0.000000 0.000000 0.000000 0.023773 0.000000 0.000000
# 5 0.000000 0.000000 0.000000 0.000000 0.022101 0.000000
# 6 0.000000 0.000000 0.000000 0.000000 0.000000 -0.000744
#
#
# Mechanical properties :
#
#
# Convention : Reuss Voigt Hill
#
# Bulk Modulus (GPa) = 56.77503 58.30617 57.54060
# Shear Modulus (GPa) = 51.40681 -233.49313 -91.04316
#
# Velocity S-wave (km/s) = 4.95812 -10.56681 -6.59828
# Velocity P-wave (km/s) = 7.74128 10.99974 5.52571
#
# Compressibility (1/GPa) = 0.01761338
#
# Stress axis : x y z
#
# Youngs Moduli (GPa) = 132.00169 74.32311 91.68018
#
# Poissons Ratio (x) = 0.00724 0.14590
# Poissons Ratio (y) = 0.01286 0.50181
# Poissons Ratio (z) = 0.21006 0.40681
#
# Static dielectric constant tensor:
#      x y z
#    x 1.659240 0.000000 0.000000 
#    y 0.000000 1.757670 0.000000 
#    z 0.000000 0.000000 1.783870 
# 
# From -- ./inp_files/30480.got.cif
#   From: 2010.05.17/outbox.cif.g08.bks.cpg/sg64_16_cif.got.tgz:30480.got - 2010.06.03 16:29:19.
