data_PCOD9481331
_publ_section_title
;
Structure prediction by ZEFSAII (Michael W. Deem and Ramdas Pophale) SiO2 
 PCOD9481331
Probable space group: C M C A
;
_chemical_formula_sum "Si O2"
_cell_formula_units_Z 64
_cell_length_a 15.828359
_cell_length_b 18.352385
_cell_length_c 9.939266
_cell_angle_alpha 90.000000
_cell_angle_beta 90.000000
_cell_angle_gamma 90.000000
_cell_volume 2887.238876
_symmetry_space_group_name_H-M "C M C A"
_symmetry_group_IT_number 64
_symmetry_cell_setting 'orthorhombic'
loop_
_space_group_symop_operation_xyz
x,y,z
-x,1/2-y,1/2+z
x,-y,-z
-x,1/2+y,1/2-z
-x,-y,-z
x,1/2+y,1/2-z
-x,y,z
x,1/2-y,1/2+z
1/2+x,1/2+y,z
1/2-x,-y,1/2+z
1/2+x,1/2-y,-z
1/2-x,y,1/2-z
1/2-x,1/2-y,-z
1/2+x,y,1/2-z
1/2-x,1/2+y,z
1/2+x,-y,1/2+z
loop_
_atom_site_type_symbol
_atom_site_label
_atom_site_fract_x
_atom_site_fract_y
_atom_site_fract_z
Si Si1 0.401865 0.314343 0.450110
Si Si2 0.592083 0.412970 0.979603
Si Si3 0.850992 0.818244 0.756877
Si Si4 0.261931 0.432885 0.399759
O O1 0.500000 0.330185 0.427723
O O2 0.385597 0.302337 0.608823
O O3 0.375330 0.245445 0.360556
O O4 0.341255 0.380304 0.408702
O O5 0.500000 0.383481 0.022073
O O6 0.608521 0.389903 0.825670
O O7 0.589592 0.500000 0.000000
O O8 0.676130 0.389573 0.059280
O O9 0.750000 0.826169 0.750000
O O10 0.272413 0.500000 0.500000
O O11 0.250000 0.461114 0.250000
#
# Coordination Sequence:
#
# PCOD9481331 Si02
#       4
#    16  16  16  16
#     4  12  27  46  73 108 148 190 242 301 360 432
#     4  10  23  43  72 102 139 189 241 293 357 428
#     4  12  25  48  73 105 145 194 242 300 363 428
#     4  11  27  47  72 105 143 194 242 297 363 430
#
# _framework density 22.166506999999999
#
# number of rings (size 3 to 8) (size 9 to 14) (size 15 to 20)
#    0.000    0.750    2.500    3.750   10.500    1.500 
#    0.000    0.000    0.000    0.000    0.000    0.000 
#    0.000    0.000    0.000    0.000    0.000    0.000 
#
# Total GULP energy -179137.073831 kJ/mol
# GULP energy per Si atom -5598.033557 kJ/mol
# Density = 2.211605 g / cm^3
# Si number density = 22.166507 Si / 1000 Ang^3
#
#
#
# Elastic Constant Matrix: (Units=GPa)
#
#
# Indices 1 2 3 4 5 6 
#
# 1 205.1900 56.9416 21.8388 0.0000 0.0000 0.0000
# 2 56.9416 108.3721 75.3845 0.0000 0.0000 0.0000
# 3 21.8388 75.3845 172.0530 0.0000 0.0000 0.0000
# 4 0.0000 0.0000 0.0000 38.7524 0.0000 0.0000
# 5 0.0000 0.0000 0.0000 0.0000 1.9732 0.0000
# 6 0.0000 0.0000 0.0000 0.0000 0.0000 41.2384
#
#
#
# Elastic Compliance Matrix: (Units=1/GPa)
#
#
# Indices 1 2 3 4 5 6 
#
# 1 0.005793 -0.003642 0.000861 0.000000 0.000000 0.000000
# 2 -0.003642 0.015563 -0.006356 0.000000 0.000000 0.000000
# 3 0.000861 -0.006356 0.008488 0.000000 0.000000 0.000000
# 4 0.000000 0.000000 0.000000 0.025805 0.000000 0.000000
# 5 0.000000 0.000000 0.000000 0.000000 0.506782 0.000000
# 6 0.000000 0.000000 0.000000 0.000000 0.000000 0.024249
#
#
# Mechanical properties :
#
#
# Convention : Reuss Voigt Hill
#
# Bulk Modulus (GPa) = 86.45150 88.21608 87.33379
# Shear Modulus (GPa) = 8.21273 38.48949 23.35111
#
# Velocity S-wave (km/s) = 1.92693 4.17151 3.24920
# Velocity P-wave (km/s) = 6.63599 7.94263 7.31853
#
# Compressibility (1/GPa) = 0.01156718
#
# Stress axis : x y z
#
# Youngs Moduli (GPa) = 172.63133 64.25567 117.81327
#
# Poissons Ratio (x) = 0.23404 -0.10139
# Poissons Ratio (y) = 0.62877 0.74888
# Poissons Ratio (z) = -0.14856 0.40844
#
# Static dielectric constant tensor:
#      x y z
#    x 1.827670 0.000000 0.000000 
#    y 0.000000 1.840560 0.000000 
#    z 0.000000 0.000000 1.790680 
# 
# From -- ./inp_files/5603.got.cif
#   From: 2010.05.17/outbox.cif.g08.bks.cpg/sg64_3_cif.got.tgz:5603.got - 2010.06.03 16:29:19.
