data_PCOD9481767
_publ_section_title
;
Structure prediction by ZEFSAII (Michael W. Deem and Ramdas Pophale) SiO2 
 PCOD9481767
Probable space group: C M C A
;
_chemical_formula_sum "Si O2"
_cell_formula_units_Z 64
_cell_length_a 14.643433
_cell_length_b 14.261020
_cell_length_c 11.759166
_cell_angle_alpha 90.000000
_cell_angle_beta 90.000000
_cell_angle_gamma 90.000000
_cell_volume 2455.670056
_symmetry_space_group_name_H-M "C M C A"
_symmetry_group_IT_number 64
_symmetry_cell_setting 'orthorhombic'
loop_
_space_group_symop_operation_xyz
x,y,z
-x,1/2-y,1/2+z
x,-y,-z
-x,1/2+y,1/2-z
-x,-y,-z
x,1/2+y,1/2-z
-x,y,z
x,1/2-y,1/2+z
1/2+x,1/2+y,z
1/2-x,-y,1/2+z
1/2+x,1/2-y,-z
1/2-x,y,1/2-z
1/2-x,1/2-y,-z
1/2+x,y,1/2-z
1/2-x,1/2+y,z
1/2+x,-y,1/2+z
loop_
_atom_site_type_symbol
_atom_site_label
_atom_site_fract_x
_atom_site_fract_y
_atom_site_fract_z
Si Si1 0.093693 0.633780 0.881887
Si Si2 0.662159 0.160073 0.114734
Si Si3 0.293324 0.360177 0.080614
Si Si4 0.102469 0.973318 0.800936
O O1 0.196970 0.666730 0.859072
O O2 0.091117 0.541493 0.807528
O O3 0.000000 0.688693 0.856549
O O4 0.098120 0.616586 0.016742
O O5 0.643705 0.271517 0.107042
O O6 0.645279 0.116389 0.237002
O O7 0.760189 0.141225 0.051155
O O8 0.336141 0.541857 0.880392
O O9 0.000000 0.954770 0.848555
#
# Coordination Sequence:
#
# PCOD9481767 Si02
#       4
#    16  16  16  16
#     4   9  18  36  64  97 133 177 233 287 348 427
#     4   9  20  39  65  97 139 188 237 290 361 428
#     4   9  21  40  62 101 143 182 238 298 358 428
#     4  11  21  36  68 106 138 179 236 301 361 429
#
# _framework density 26.062132999999999
#
# number of rings (size 3 to 8) (size 9 to 14) (size 15 to 20)
#    1.500    1.000    0.000    2.250    0.000    4.000 
#    0.000    5.000    5.500    6.000    0.000    5.250 
#    0.000    0.000    0.000    0.000    0.000    0.000 
#
# Total GULP energy -178138.667333 kJ/mol
# GULP energy per Si atom -5566.833354 kJ/mol
# Density = 2.600281 g / cm^3
# Si number density = 26.062133 Si / 1000 Ang^3
#
#
#
# Elastic Constant Matrix: (Units=GPa)
#
#
# Indices 1 2 3 4 5 6 
#
# 1 129.6063 33.9137 51.1602 0.0000 0.0000 0.0000
# 2 33.9137 130.9808 42.4018 0.0000 0.0000 0.0000
# 3 51.1602 42.4018 114.9074 0.0000 0.0000 0.0000
# 4 0.0000 0.0000 0.0000 40.7220 0.0000 0.0000
# 5 0.0000 0.0000 0.0000 0.0000 -7.1015 0.0000
# 6 0.0000 0.0000 0.0000 0.0000 0.0000 2.9980
#
#
#
# Elastic Compliance Matrix: (Units=1/GPa)
#
#
# Indices 1 2 3 4 5 6 
#
# 1 0.009536 -0.001243 -0.003787 0.000000 0.000000 0.000000
# 2 -0.001243 0.008833 -0.002706 0.000000 0.000000 0.000000
# 3 -0.003787 -0.002706 0.011387 0.000000 0.000000 0.000000
# 4 0.000000 0.000000 0.000000 0.024557 0.000000 0.000000
# 5 0.000000 0.000000 0.000000 0.000000 -0.140816 0.000000
# 6 0.000000 0.000000 0.000000 0.000000 0.000000 0.333557
#
#
# Mechanical properties :
#
#
# Convention : Reuss Voigt Hill
#
# Bulk Modulus (GPa) = 70.00918 70.04956 70.02937
# Shear Modulus (GPa) = 18.70655 23.85829 21.28242
#
# Velocity S-wave (km/s) = 2.68202 3.02890 2.86073
# Velocity P-wave (km/s) = 6.04249 6.25848 6.15144
#
# Compressibility (1/GPa) = 0.01428384
#
# Stress axis : x y z
#
# Youngs Moduli (GPa) = 104.86828 113.21816 87.81826
#
# Poissons Ratio (x) = 0.14074 0.33256
# Poissons Ratio (y) = 0.13036 0.23762
# Poissons Ratio (z) = 0.39712 0.30635
#
# Static dielectric constant tensor:
#      x y z
#    x 2.217310 0.000000 0.000000 
#    y 0.000000 2.041970 0.000000 
#    z 0.000000 0.000000 2.117550 
# 
# From -- ./inp_files/14004.got.cif
#   From: 2010.05.17/outbox.cif.g08.bks.cpg/sg64_8_cif.got.tgz:14004.got - 2010.06.03 16:29:19.
