data_PCOD9481811
_publ_section_title
;
Structure prediction by ZEFSAII (Michael W. Deem and Ramdas Pophale) SiO2 
 PCOD9481811
Probable space group: C M C A
;
_chemical_formula_sum "Si O2"
_cell_formula_units_Z 80
_cell_length_a 27.540774
_cell_length_b 7.242215
_cell_length_c 15.417650
_cell_angle_alpha 90.000000
_cell_angle_beta 90.000000
_cell_angle_gamma 90.000000
_cell_volume 3075.145983
_symmetry_space_group_name_H-M "C M C A"
_symmetry_group_IT_number 64
_symmetry_cell_setting 'orthorhombic'
loop_
_space_group_symop_operation_xyz
x,y,z
-x,1/2-y,1/2+z
x,-y,-z
-x,1/2+y,1/2-z
-x,-y,-z
x,1/2+y,1/2-z
-x,y,z
x,1/2-y,1/2+z
1/2+x,1/2+y,z
1/2-x,-y,1/2+z
1/2+x,1/2-y,-z
1/2-x,y,1/2-z
1/2-x,1/2-y,-z
1/2+x,y,1/2-z
1/2-x,1/2+y,z
1/2+x,-y,1/2+z
loop_
_atom_site_type_symbol
_atom_site_label
_atom_site_fract_x
_atom_site_fract_y
_atom_site_fract_z
Si Si1 0.948948 0.002983 0.866908
Si Si2 0.796815 0.320592 0.051217
Si Si3 0.154523 0.971230 0.125710
Si Si4 0.946380 0.431382 0.160897
Si Si5 0.661377 0.931184 0.825949
O O1 0.945695 0.781393 0.867531
O O2 0.000000 0.062901 0.905326
O O3 0.899710 0.076362 0.904895
O O4 0.948421 0.064215 0.765931
O O5 0.674525 0.632736 0.066149
O O6 0.702060 0.920244 0.145204
O O7 0.750000 0.250000 0.000000
O O8 0.682741 0.000000 0.000000
O O9 0.177396 0.770423 0.140972
O O10 0.154449 0.061062 0.222363
O O11 0.893440 0.516718 0.139820
O O12 0.000000 0.508576 0.132923
#
# Coordination Sequence:
#
# PCOD9481811 Si02
#       5
#    16  16  16  16  16
#     4   9  15  26  52  99 149 186 230 292 355 420
#     4  12  30  52  73 105 143 180 242 315 387 450
#     4  11  21  42  76 107 143 193 245 301 363 445
#     4   9  15  26  52  99 149 186 230 293 355 421
#     4  11  21  42  76 107 143 193 245 300 364 441
#
# _framework density 26.015027
#
# number of rings (size 3 to 8) (size 9 to 14) (size 15 to 20)
#    0.000    1.600    4.000    3.600    2.800    2.400 
#    0.000    3.000    0.000    2.400    0.000    2.800 
#    0.000    0.000    0.000    0.000    0.000    0.000 
#
# Total GULP energy -223330.475615 kJ/mol
# GULP energy per Si atom -5583.261890 kJ/mol
# Density = 2.595582 g / cm^3
# Si number density = 26.015027 Si / 1000 Ang^3
#
#
#
# Elastic Constant Matrix: (Units=GPa)
#
#
# Indices 1 2 3 4 5 6 
#
# 1 151.8600 46.8869 54.3435 0.0000 0.0000 0.0000
# 2 46.8869 170.7472 28.1977 0.0000 0.0000 0.0000
# 3 54.3435 28.1977 59.2799 0.0000 0.0000 0.0000
# 4 0.0000 0.0000 0.0000 52.0881 0.0000 0.0000
# 5 0.0000 0.0000 0.0000 0.0000 15.5537 0.0000
# 6 0.0000 0.0000 0.0000 0.0000 0.0000 29.4708
#
#
#
# Elastic Compliance Matrix: (Units=1/GPa)
#
#
# Indices 1 2 3 4 5 6 
#
# 1 0.010078 -0.001348 -0.008598 0.000000 0.000000 0.000000
# 2 -0.001348 0.006536 -0.001874 0.000000 0.000000 0.000000
# 3 -0.008598 -0.001874 0.025642 0.000000 0.000000 0.000000
# 4 0.000000 0.000000 0.000000 0.019198 0.000000 0.000000
# 5 0.000000 0.000000 0.000000 0.000000 0.064293 0.000000
# 6 0.000000 0.000000 0.000000 0.000000 0.000000 0.033932
#
#
# Mechanical properties :
#
#
# Convention : Reuss Voigt Hill
#
# Bulk Modulus (GPa) = 53.71078 71.19370 62.45224
# Shear Modulus (GPa) = 26.38207 36.25313 31.31760
#
# Velocity S-wave (km/s) = 3.18796 3.73707 3.47339
# Velocity P-wave (km/s) = 5.85164 6.78577 6.33595
#
# Compressibility (1/GPa) = 0.01861824
#
# Stress axis : x y z
#
# Youngs Moduli (GPa) = 99.22901 152.99728 38.99858
#
# Poissons Ratio (x) = 0.20616 0.33529
# Poissons Ratio (y) = 0.13371 0.07307
# Poissons Ratio (z) = 0.85312 0.28667
#
# Static dielectric constant tensor:
#      x y z
#    x 2.150380 0.000000 0.000000 
#    y 0.000000 2.034930 0.000000 
#    z 0.000000 0.000000 2.187280 
# 
# From -- ./inp_files/35342.got.cif
#   From: 2010.05.17/outbox.cif.g08.bks.cpg/sg64_18_cif.got.tgz:35342.got - 2010.06.03 16:29:19.
