data_PCOD9481833
_publ_section_title
;
Structure prediction by ZEFSAII (Michael W. Deem and Ramdas Pophale) SiO2 
 PCOD9481833
Probable space group: C M C A
;
_chemical_formula_sum "Si O2"
_cell_formula_units_Z 104
_cell_length_a 29.294892
_cell_length_b 18.758496
_cell_length_c 11.759722
_cell_angle_alpha 90.000000
_cell_angle_beta 90.000000
_cell_angle_gamma 90.000000
_cell_volume 6462.297857
_symmetry_space_group_name_H-M "C M C A"
_symmetry_group_IT_number 64
_symmetry_cell_setting 'orthorhombic'
loop_
_space_group_symop_operation_xyz
x,y,z
-x,1/2-y,1/2+z
x,-y,-z
-x,1/2+y,1/2-z
-x,-y,-z
x,1/2+y,1/2-z
-x,y,z
x,1/2-y,1/2+z
1/2+x,1/2+y,z
1/2-x,-y,1/2+z
1/2+x,1/2-y,-z
1/2-x,y,1/2-z
1/2-x,1/2-y,-z
1/2+x,y,1/2-z
1/2-x,1/2+y,z
1/2+x,-y,1/2+z
loop_
_atom_site_type_symbol
_atom_site_label
_atom_site_fract_x
_atom_site_fract_y
_atom_site_fract_z
Si Si1 0.500000 0.014155 0.189968
Si Si2 0.000000 0.382343 0.031467
Si Si3 0.099905 0.118440 0.523842
Si Si4 0.734020 0.835604 0.624646
Si Si5 0.194536 0.186863 0.566444
Si Si6 0.750000 0.403362 0.250000
Si Si7 0.317547 0.985791 0.629933
Si Si8 0.899704 0.480970 0.808401
O O1 0.450578 0.025882 0.245134
O O2 0.500000 0.065348 0.078526
O O3 0.500000 0.934178 0.140421
O O4 0.049545 0.346239 0.028885
O O5 0.141706 0.168715 0.553957
O O6 0.100560 0.052316 0.613199
O O7 0.106633 0.082975 0.399416
O O8 0.750000 0.815307 0.750000
O O9 0.777776 0.841262 0.543078
O O10 0.703720 0.770903 0.576889
O O11 0.707728 0.909803 0.631720
O O12 0.217466 0.145579 0.672343
O O13 0.718303 0.454181 0.172264
O O14 0.331509 0.000000 0.500000
O O15 0.359938 0.984314 0.716431
#
# Coordination Sequence:
#
# PCOD9481833 Si02
#       8
#     8   8  16  16  16   8  16  16
#     4   7  12  26  45  73 105 125 154 210 264 303
#     4   7  12  24  46  79 101 119 160 215 259 293
#     4   9  16  29  53  78 102 128 164 214 261 301
#     4  11  23  36  50  71 108 138 173 208 254 306
#     4  11  22  36  52  74 102 142 170 209 256 308
#     4  12  22  36  54  72 104 134 174 214 248 302
#     4  12  23  34  51  76 104 137 173 216 250 304
#     4   9  17  29  51  78 102 128 166 213 261 299
#
# _framework density 16.093347000000001
#
# number of rings (size 3 to 8) (size 9 to 14) (size 15 to 20)
#    0.000    2.000    4.615    2.769    0.000    0.000 
#    0.000    0.385    0.000    0.923    0.000    1.077 
#    0.000    0.000    0.000    0.000    0.000    0.000 
#
# Total GULP energy -289736.212031 kJ/mol
# GULP energy per Si atom -5571.850231 kJ/mol
# Density = 1.605672 g / cm^3
# Si number density = 16.093347 Si / 1000 Ang^3
#
#
#
# Elastic Constant Matrix: (Units=GPa)
#
#
# Indices 1 2 3 4 5 6 
#
# 1 134.2779 23.1221 28.7940 0.0000 0.0000 0.0000
# 2 23.1221 34.4262 -3.7618 0.0000 0.0000 0.0000
# 3 28.7940 -3.7618 69.5692 0.0000 0.0000 0.0000
# 4 0.0000 0.0000 0.0000 33.5296 0.0000 0.0000
# 5 0.0000 0.0000 0.0000 0.0000 19.9823 0.0000
# 6 0.0000 0.0000 0.0000 0.0000 0.0000 20.7911
#
#
#
# Elastic Compliance Matrix: (Units=1/GPa)
#
#
# Indices 1 2 3 4 5 6 
#
# 1 0.009564 -0.006897 -0.004331 0.000000 0.000000 0.000000
# 2 -0.006897 0.034194 0.004703 0.000000 0.000000 0.000000
# 3 -0.004331 0.004703 0.016421 0.000000 0.000000 0.000000
# 4 0.000000 0.000000 0.000000 0.029824 0.000000 0.000000
# 5 0.000000 0.000000 0.000000 0.000000 0.050044 0.000000
# 6 0.000000 0.000000 0.000000 0.000000 0.000000 0.048097
#
#
# Mechanical properties :
#
#
# Convention : Reuss Voigt Hill
#
# Bulk Modulus (GPa) = 21.21813 37.17575 29.19694
# Shear Modulus (GPa) = 23.05179 27.53521 25.29350
#
# Velocity S-wave (km/s) = 3.78879 4.14087 3.96874
# Velocity P-wave (km/s) = 5.68796 6.78326 6.25962
#
# Compressibility (1/GPa) = 0.04712951
#
# Stress axis : x y z
#
# Youngs Moduli (GPa) = 104.56363 29.24527 60.89718
#
# Poissons Ratio (x) = 0.20169 0.26376
# Poissons Ratio (y) = 0.72113 -0.28642
# Poissons Ratio (z) = 0.45288 -0.13755
#
# Static dielectric constant tensor:
#      x y z
#    x 1.557880 0.000000 0.000000 
#    y 0.000000 1.528480 0.000000 
#    z 0.000000 0.000000 1.533680 
# 
# From -- ./inp_files/19245.got.cif
#   From: 2010.05.17/outbox.cif.g08.bks.cpg/sg64_10_cif.got.tgz:19245.got - 2010.06.03 16:29:19.
