data_PCOD9481547
_publ_section_title
;
Structure prediction by ZEFSAII (Michael W. Deem and Ramdas Pophale) SiO2 
 PCOD9481547
Probable space group: C M C A
;
_chemical_formula_sum "Si O2"
_cell_formula_units_Z 72
_cell_length_a 13.999036
_cell_length_b 9.759883
_cell_length_c 23.260419
_cell_angle_alpha 90.000000
_cell_angle_beta 90.000000
_cell_angle_gamma 90.000000
_cell_volume 3178.046705
_symmetry_space_group_name_H-M "C M C A"
_symmetry_group_IT_number 64
_symmetry_cell_setting 'orthorhombic'
loop_
_space_group_symop_operation_xyz
x,y,z
-x,1/2-y,1/2+z
x,-y,-z
-x,1/2+y,1/2-z
-x,-y,-z
x,1/2+y,1/2-z
-x,y,z
x,1/2-y,1/2+z
1/2+x,1/2+y,z
1/2-x,-y,1/2+z
1/2+x,1/2-y,-z
1/2-x,y,1/2-z
1/2-x,1/2-y,-z
1/2+x,y,1/2-z
1/2-x,1/2+y,z
1/2+x,-y,1/2+z
loop_
_atom_site_type_symbol
_atom_site_label
_atom_site_fract_x
_atom_site_fract_y
_atom_site_fract_z
Si Si1 0.181870 0.996272 0.127018
Si Si2 0.798361 0.773110 0.436521
Si Si3 0.616923 0.021584 0.759741
Si Si4 0.500000 0.408232 0.056682
Si Si5 0.000000 0.842270 0.485146
Si Si6 0.750000 0.724595 0.250000
O O1 0.211720 0.143278 0.104073
O O2 0.261543 0.896731 0.101934
O O3 0.143238 0.988921 0.191869
O O4 0.091795 0.948137 0.090861
O O5 0.750000 0.750000 0.500000
O O6 0.907742 0.799807 0.450276
O O7 0.500000 0.021154 0.768784
O O8 0.672186 0.164599 0.776560
O O9 0.676083 0.885041 0.781694
O O10 0.500000 0.500000 0.000000
O O11 0.500000 0.248918 0.042235
O O12 0.000000 0.000000 0.500000
#
# Coordination Sequence:
#
# PCOD9481547 Si02
#       6
#    16  16  16   8   8   8
#     4  12  23  39  62  93 121 168 219 268 316 388
#     4  12  23  38  59  85 129 172 217 266 319 369
#     4  11  23  44  73  99 135 172 219 278 343 415
#     4  12  20  40  60  84 124 174 216 250 312 378
#     4  12  24  38  56  84 120 176 218 262 314 368
#     4  10  24  46  70 104 132 170 216 274 364 412
#
# _framework density 22.655425000000001
#
# number of rings (size 3 to 8) (size 9 to 14) (size 15 to 20)
#    0.000    0.444    5.556    4.000    0.000    0.000 
#    0.000    0.000    2.444    0.000    0.000    0.000 
#    0.000    0.000    0.000    0.000    0.000    0.000 
#
# Total GULP energy -200805.026931 kJ/mol
# GULP energy per Si atom -5577.917415 kJ/mol
# Density = 2.260386 g / cm^3
# Si number density = 22.655425 Si / 1000 Ang^3
#
#
#
# Elastic Constant Matrix: (Units=GPa)
#
#
# Indices 1 2 3 4 5 6 
#
# 1 197.6326 48.3094 25.6688 0.0000 0.0000 0.0000
# 2 48.3094 188.8969 19.3109 0.0000 0.0000 0.0000
# 3 25.6688 19.3109 105.5878 0.0000 0.0000 0.0000
# 4 0.0000 0.0000 0.0000 16.8524 0.0000 0.0000
# 5 0.0000 0.0000 0.0000 0.0000 33.8966 0.0000
# 6 0.0000 0.0000 0.0000 0.0000 0.0000 43.5305
#
#
#
# Elastic Compliance Matrix: (Units=1/GPa)
#
#
# Indices 1 2 3 4 5 6 
#
# 1 0.005521 -0.001299 -0.001105 0.000000 0.000000 0.000000
# 2 -0.001299 0.005700 -0.000727 0.000000 0.000000 0.000000
# 3 -0.001105 -0.000727 0.009872 0.000000 0.000000 0.000000
# 4 0.000000 0.000000 0.000000 0.059339 0.000000 0.000000
# 5 0.000000 0.000000 0.000000 0.000000 0.029502 0.000000
# 6 0.000000 0.000000 0.000000 0.000000 0.000000 0.022972
#
#
# Mechanical properties :
#
#
# Convention : Reuss Voigt Hill
#
# Bulk Modulus (GPa) = 67.41795 75.41063 71.41429
# Shear Modulus (GPa) = 34.69545 45.44443 40.06994
#
# Velocity S-wave (km/s) = 3.91761 4.48358 4.21012
# Velocity P-wave (km/s) = 7.09127 7.75638 7.43127
#
# Compressibility (1/GPa) = 0.01483285
#
# Stress axis : x y z
#
# Youngs Moduli (GPa) = 181.13019 175.42612 101.29420
#
# Poissons Ratio (x) = 0.22788 0.11189
# Poissons Ratio (y) = 0.23529 0.07362
# Poissons Ratio (z) = 0.20007 0.12749
#
# Static dielectric constant tensor:
#      x y z
#    x 2.098680 0.000000 0.000000 
#    y 0.000000 1.899320 0.000000 
#    z 0.000000 0.000000 1.863710 
# 
# From -- ./inp_files/49833.got.cif
#   From: 2010.05.17/outbox.cif.g08.bks.cpg/sg64_25_cif.got.tgz:49833.got - 2010.06.03 16:29:19.
