data_PCOD9481492
_publ_section_title
;
Structure prediction by ZEFSAII (Michael W. Deem and Ramdas Pophale) SiO2 
 PCOD9481492
Probable space group: C M C A
;
_chemical_formula_sum "Si O2"
_cell_formula_units_Z 64
_cell_length_a 22.035159
_cell_length_b 9.564279
_cell_length_c 12.416315
_cell_angle_alpha 90.000000
_cell_angle_beta 90.000000
_cell_angle_gamma 90.000000
_cell_volume 2616.743458
_symmetry_space_group_name_H-M "C M C A"
_symmetry_group_IT_number 64
_symmetry_cell_setting 'orthorhombic'
loop_
_space_group_symop_operation_xyz
x,y,z
-x,1/2-y,1/2+z
x,-y,-z
-x,1/2+y,1/2-z
-x,-y,-z
x,1/2+y,1/2-z
-x,y,z
x,1/2-y,1/2+z
1/2+x,1/2+y,z
1/2-x,-y,1/2+z
1/2+x,1/2-y,-z
1/2-x,y,1/2-z
1/2-x,1/2-y,-z
1/2+x,y,1/2-z
1/2-x,1/2+y,z
1/2+x,-y,1/2+z
loop_
_atom_site_type_symbol
_atom_site_label
_atom_site_fract_x
_atom_site_fract_y
_atom_site_fract_z
Si Si1 0.769183 0.000000 0.000000
Si Si2 0.328348 0.412510 0.318766
Si Si3 0.137840 0.882684 0.865649
Si Si4 0.583000 0.000000 0.000000
Si Si5 0.500000 0.042772 0.343360
Si Si6 0.000000 0.792645 0.616165
O O1 0.817274 0.879203 0.968046
O O2 0.727620 0.044478 0.897503
O O3 0.340220 0.250509 0.298088
O O4 0.339267 0.490530 0.207976
O O5 0.383140 0.453208 0.395054
O O6 0.065917 0.903811 0.887679
O O7 0.553176 0.144126 0.042424
O O8 0.500000 0.111938 0.224291
O O9 0.500000 0.872189 0.354927
#
# Coordination Sequence:
#
# PCOD9481492 Si02
#       6
#     8  16  16   8   8   8
#     4  11  28  48  76 110 144 201 256 308 370 445
#     4  11  26  49  76 106 149 194 252 310 373 440
#     4  12  27  47  77 112 151 194 251 310 378 451
#     4  10  24  43  74 103 152 196 240 304 374 440
#     4  12  26  44  77 113 153 193 242 309 383 448
#     4  11  24  45  72 107 156 197 247 300 377 452
#
# _framework density 24.457881
#
# number of rings (size 3 to 8) (size 9 to 14) (size 15 to 20)
#    0.000    0.750    2.500    3.000    3.500    7.500 
#    0.000    0.000    0.000    0.000    0.000    0.000 
#    0.000    0.000    0.000    0.000    0.000    0.000 
#
# Total GULP energy -178351.142858 kJ/mol
# GULP energy per Si atom -5573.473214 kJ/mol
# Density = 2.440221 g / cm^3
# Si number density = 24.457881 Si / 1000 Ang^3
#
#
#
# Elastic Constant Matrix: (Units=GPa)
#
#
# Indices 1 2 3 4 5 6 
#
# 1 150.8649 36.6711 39.0425 0.0000 0.0000 0.0000
# 2 36.6711 149.9737 13.5800 0.0000 0.0000 0.0000
# 3 39.0425 13.5800 76.9975 0.0000 0.0000 0.0000
# 4 0.0000 0.0000 0.0000 44.7362 0.0000 0.0000
# 5 0.0000 0.0000 0.0000 0.0000 54.2627 0.0000
# 6 0.0000 0.0000 0.0000 0.0000 0.0000 208.1518
#
#
#
# Elastic Compliance Matrix: (Units=1/GPa)
#
#
# Indices 1 2 3 4 5 6 
#
# 1 0.007996 -0.001614 -0.003770 0.000000 0.000000 0.000000
# 2 -0.001614 0.007102 -0.000434 0.000000 0.000000 0.000000
# 3 -0.003770 -0.000434 0.014976 0.000000 0.000000 0.000000
# 4 0.000000 0.000000 0.000000 0.022353 0.000000 0.000000
# 5 0.000000 0.000000 0.000000 0.000000 0.018429 0.000000
# 6 0.000000 0.000000 0.000000 0.000000 0.000000 0.004804
#
#
# Mechanical properties :
#
#
# Convention : Reuss Voigt Hill
#
# Bulk Modulus (GPa) = 54.23697 61.82481 58.03089
# Shear Modulus (GPa) = 53.50902 80.66630 67.08766
#
# Velocity S-wave (km/s) = 4.68247 5.74920 5.24304
# Velocity P-wave (km/s) = 7.17341 8.33091 7.77373
#
# Compressibility (1/GPa) = 0.01843761
#
# Stress axis : x y z
#
# Youngs Moduli (GPa) = 125.05652 140.80991 66.77504
#
# Poissons Ratio (x) = 0.22725 0.25174
# Poissons Ratio (y) = 0.20183 0.02899
# Poissons Ratio (z) = 0.47147 0.06114
#
# Static dielectric constant tensor:
#      x y z
#    x 2.036410 0.000000 0.000000 
#    y 0.000000 2.067580 0.000000 
#    z 0.000000 0.000000 1.949280 
# 
# From -- ./inp_files/26978.got.cif
#   From: 2010.05.17/outbox.cif.g08.bks.cpg/sg64_14_cif.got.tgz:26978.got - 2010.06.03 16:29:19.
