data_PCOD9481405
_publ_section_title
;
Structure prediction by ZEFSAII (Michael W. Deem and Ramdas Pophale) SiO2 
 PCOD9481405
Probable space group: C M C A
;
_chemical_formula_sum "Si O2"
_cell_formula_units_Z 72
_cell_length_a 16.810802
_cell_length_b 8.917803
_cell_length_c 22.377975
_cell_angle_alpha 90.000000
_cell_angle_beta 90.000000
_cell_angle_gamma 90.000000
_cell_volume 3354.803532
_symmetry_space_group_name_H-M "C M C A"
_symmetry_group_IT_number 64
_symmetry_cell_setting 'orthorhombic'
loop_
_space_group_symop_operation_xyz
x,y,z
-x,1/2-y,1/2+z
x,-y,-z
-x,1/2+y,1/2-z
-x,-y,-z
x,1/2+y,1/2-z
-x,y,z
x,1/2-y,1/2+z
1/2+x,1/2+y,z
1/2-x,-y,1/2+z
1/2+x,1/2-y,-z
1/2-x,y,1/2-z
1/2-x,1/2-y,-z
1/2+x,y,1/2-z
1/2-x,1/2+y,z
1/2+x,-y,1/2+z
loop_
_atom_site_type_symbol
_atom_site_label
_atom_site_fract_x
_atom_site_fract_y
_atom_site_fract_z
Si Si1 0.783697 0.500000 0.500000
Si Si2 0.347808 0.206446 0.945492
Si Si3 0.847364 0.473568 0.305515
Si Si4 0.500000 0.018218 0.606926
Si Si5 0.823481 0.322152 0.185550
Si Si6 0.000000 0.238591 0.004861
O O1 0.729146 0.389501 0.461801
O O2 0.830707 0.383886 0.542186
O O3 0.367060 0.167885 0.877674
O O4 0.419249 0.170990 0.989767
O O5 0.921979 0.465330 0.350744
O O6 0.865162 0.410196 0.239345
O O7 0.822513 0.646476 0.299947
O O8 0.767014 0.382217 0.322561
O O9 0.500000 0.144029 0.555468
O O10 0.500000 0.867669 0.565238
#
# Coordination Sequence:
#
# PCOD9481405 Si02
#       6
#     8  16  16   8  16   8
#     4  10  24  38  68 102 128 176 218 270 334 392
#     4  11  23  42  67  97 133 171 222 273 330 396
#     4  11  24  43  68  98 132 174 221 271 337 396
#     4  11  24  43  67  97 133 172 218 274 340 396
#     4  11  23  42  68  99 130 173 221 275 321 403
#     4  11  24  42  65  97 133 176 214 280 336 391
#
# _framework density 21.461763000000001
#
# number of rings (size 3 to 8) (size 9 to 14) (size 15 to 20)
#    0.000    1.111    2.222    5.333    6.222    2.222 
#    0.000    0.000    0.000    1.333    0.000    0.000 
#    0.000    0.000    0.000    0.000    0.000    0.000 
#
# Total GULP energy -201044.647091 kJ/mol
# GULP energy per Si atom -5584.573530 kJ/mol
# Density = 2.141292 g / cm^3
# Si number density = 21.461763 Si / 1000 Ang^3
#
#
#
# Elastic Constant Matrix: (Units=GPa)
#
#
# Indices 1 2 3 4 5 6 
#
# 1 100.9061 37.3883 36.4780 0.0000 0.0000 0.0000
# 2 37.3883 120.9228 33.7585 0.0000 0.0000 0.0000
# 3 36.4780 33.7585 120.4629 0.0000 0.0000 0.0000
# 4 0.0000 0.0000 0.0000 18.9802 0.0000 0.0000
# 5 0.0000 0.0000 0.0000 0.0000 46.4301 0.0000
# 6 0.0000 0.0000 0.0000 0.0000 0.0000 25.5065
#
#
#
# Elastic Compliance Matrix: (Units=1/GPa)
#
#
# Indices 1 2 3 4 5 6 
#
# 1 0.012014 -0.002928 -0.002817 0.000000 0.000000 0.000000
# 2 -0.002928 0.009685 -0.001828 0.000000 0.000000 0.000000
# 3 -0.002817 -0.001828 0.009667 0.000000 0.000000 0.000000
# 4 0.000000 0.000000 0.000000 0.052687 0.000000 0.000000
# 5 0.000000 0.000000 0.000000 0.000000 0.021538 0.000000
# 6 0.000000 0.000000 0.000000 0.000000 0.000000 0.039206
#
#
# Mechanical properties :
#
#
# Convention : Reuss Voigt Hill
#
# Bulk Modulus (GPa) = 61.65355 61.94903 61.80129
# Shear Modulus (GPa) = 30.23928 33.82781 32.03355
#
# Velocity S-wave (km/s) = 3.75772 3.97443 3.86759
# Velocity P-wave (km/s) = 6.90049 7.07029 6.98591
#
# Compressibility (1/GPa) = 0.01621967
#
# Stress axis : x y z
#
# Youngs Moduli (GPa) = 83.23913 103.24978 103.44890
#
# Poissons Ratio (x) = 0.30231 0.29145
# Poissons Ratio (y) = 0.24372 0.18906
# Poissons Ratio (z) = 0.23451 0.18870
#
# Static dielectric constant tensor:
#      x y z
#    x 1.801950 0.000000 0.000000 
#    y 0.000000 1.766860 0.000000 
#    z 0.000000 0.000000 1.795400 
# 
# From -- ./inp_files/45663.got.cif
#   From: 2010.05.17/outbox.cif.g08.bks.cpg/sg64_23_cif.got.tgz:45663.got - 2010.06.03 16:29:19.
