data_PCOD9481106
_publ_section_title
;
Structure prediction by ZEFSAII (Michael W. Deem and Ramdas Pophale) SiO2 
 PCOD9481106
Probable space group: C M C A
;
_chemical_formula_sum "Si O2"
_cell_formula_units_Z 56
_cell_length_a 20.271968
_cell_length_b 7.509565
_cell_length_c 15.304527
_cell_angle_alpha 90.000000
_cell_angle_beta 90.000000
_cell_angle_gamma 90.000000
_cell_volume 2329.864181
_symmetry_space_group_name_H-M "C M C A"
_symmetry_group_IT_number 64
_symmetry_cell_setting 'orthorhombic'
loop_
_space_group_symop_operation_xyz
x,y,z
-x,1/2-y,1/2+z
x,-y,-z
-x,1/2+y,1/2-z
-x,-y,-z
x,1/2+y,1/2-z
-x,y,z
x,1/2-y,1/2+z
1/2+x,1/2+y,z
1/2-x,-y,1/2+z
1/2+x,1/2-y,-z
1/2-x,y,1/2-z
1/2-x,1/2-y,-z
1/2+x,y,1/2-z
1/2-x,1/2+y,z
1/2+x,-y,1/2+z
loop_
_atom_site_type_symbol
_atom_site_label
_atom_site_fract_x
_atom_site_fract_y
_atom_site_fract_z
Si Si1 0.927631 0.106673 0.375097
Si Si2 0.665869 0.588606 0.911568
Si Si3 0.607601 0.715986 0.185092
Si Si4 0.750000 0.175965 0.750000
O O1 0.868985 0.218919 0.420179
O O2 0.929631 0.180149 0.275268
O O3 0.000000 0.132271 0.415215
O O4 0.912218 0.897268 0.362830
O O5 0.608580 0.456741 0.875538
O O6 0.724203 0.591324 0.840515
O O7 0.690293 0.500000 0.000000
O O8 0.682738 0.733195 0.219505
#
# Coordination Sequence:
#
# PCOD9481106 Si02
#       4
#    16  16  16   8
#     4  11  23  41  68  98 131 181 233 278 333 402
#     4  11  26  44  67 103 138 180 225 284 346 400
#     4  11  22  39  68  97 130 175 230 278 341 401
#     4  10  22  44  68  98 134 176 226 278 342 414
#
# _framework density 24.035737999999998
#
# number of rings (size 3 to 8) (size 9 to 14) (size 15 to 20)
#    0.000    1.143    5.714    1.714    4.000    4.000 
#    0.000    1.429    0.000    0.000    0.000    0.000 
#    0.000    0.000    0.000    0.000    0.000    0.000 
#
# Total GULP energy -156336.678170 kJ/mol
# GULP energy per Si atom -5583.452792 kJ/mol
# Density = 2.398103 g / cm^3
# Si number density = 24.035738 Si / 1000 Ang^3
#
#
#
# Elastic Constant Matrix: (Units=GPa)
#
#
# Indices 1 2 3 4 5 6 
#
# 1 121.1004 6.7915 7.2584 0.0000 0.0000 0.0000
# 2 6.7915 90.2075 3.8122 0.0000 0.0000 0.0000
# 3 7.2584 3.8122 74.6099 0.0000 0.0000 0.0000
# 4 0.0000 0.0000 0.0000 31.3628 0.0000 0.0000
# 5 0.0000 0.0000 0.0000 0.0000 4.1300 0.0000
# 6 0.0000 0.0000 0.0000 0.0000 0.0000 -11.6575
#
#
#
# Elastic Compliance Matrix: (Units=1/GPa)
#
#
# Indices 1 2 3 4 5 6 
#
# 1 0.008338 -0.000595 -0.000781 0.000000 0.000000 0.000000
# 2 -0.000595 0.011152 -0.000512 0.000000 0.000000 0.000000
# 3 -0.000781 -0.000512 0.013505 0.000000 0.000000 0.000000
# 4 0.000000 0.000000 0.000000 0.031885 0.000000 0.000000
# 5 0.000000 0.000000 0.000000 0.000000 0.242128 0.000000
# 6 0.000000 0.000000 0.000000 0.000000 0.000000 -0.085782
#
#
# Mechanical properties :
#
#
# Convention : Reuss Voigt Hill
#
# Bulk Modulus (GPa) = 34.22311 35.73799 34.98055
# Shear Modulus (GPa) = 21.30004 22.63744 21.96874
#
# Velocity S-wave (km/s) = 2.98011 3.07224 3.02653
# Velocity P-wave (km/s) = 5.10987 5.24270 5.17671
#
# Compressibility (1/GPa) = 0.02922002
#
# Stress axis : x y z
#
# Youngs Moduli (GPa) = 119.93624 89.67030 74.04575
#
# Poissons Ratio (x) = 0.05333 0.05781
# Poissons Ratio (y) = 0.07133 0.03791
# Poissons Ratio (z) = 0.09364 0.04591
#
# Static dielectric constant tensor:
#      x y z
#    x 1.964180 0.000000 0.000000 
#    y 0.000000 2.006560 0.000000 
#    z 0.000000 0.000000 1.923940 
# 
# From -- ./inp_files/32681.got.cif
#   From: 2010.05.17/outbox.cif.g08.bks.cpg/sg64_17_cif.got.tgz:32681.got - 2010.06.03 16:29:19.
