data_PCOD9481787
_publ_section_title
;
Structure prediction by ZEFSAII (Michael W. Deem and Ramdas Pophale) SiO2 
 PCOD9481787
Probable space group: C M C A
;
_chemical_formula_sum "Si O2"
_cell_formula_units_Z 96
_cell_length_a 26.312021
_cell_length_b 22.621379
_cell_length_c 8.326915
_cell_angle_alpha 90.000000
_cell_angle_beta 90.000000
_cell_angle_gamma 90.000000
_cell_volume 4956.298044
_symmetry_space_group_name_H-M "C M C A"
_symmetry_group_IT_number 64
_symmetry_cell_setting 'orthorhombic'
loop_
_space_group_symop_operation_xyz
x,y,z
-x,1/2-y,1/2+z
x,-y,-z
-x,1/2+y,1/2-z
-x,-y,-z
x,1/2+y,1/2-z
-x,y,z
x,1/2-y,1/2+z
1/2+x,1/2+y,z
1/2-x,-y,1/2+z
1/2+x,1/2-y,-z
1/2-x,y,1/2-z
1/2-x,1/2-y,-z
1/2+x,y,1/2-z
1/2-x,1/2+y,z
1/2+x,-y,1/2+z
loop_
_atom_site_type_symbol
_atom_site_label
_atom_site_fract_x
_atom_site_fract_y
_atom_site_fract_z
Si Si1 0.655938 0.676476 0.411508
Si Si2 0.806593 0.210896 0.763792
Si Si3 0.441871 0.602103 0.516759
Si Si4 0.715129 0.913190 0.404510
Si Si5 0.750000 0.391525 0.750000
Si Si6 0.943158 0.500196 0.753749
Si Si7 0.132719 0.500000 0.500000
O O1 0.654182 0.740859 0.328228
O O2 0.680152 0.686451 0.588161
O O3 0.602211 0.645092 0.450596
O O4 0.697034 0.641486 0.300490
O O5 0.750000 0.238661 0.750000
O O6 0.800159 0.155578 0.883797
O O7 0.500000 0.626574 0.531775
O O8 0.428144 0.565402 0.679164
O O9 0.445127 0.547956 0.393094
O O10 0.750000 0.926099 0.250000
O O11 0.738799 0.923905 0.581019
O O12 0.666619 0.954215 0.404517
O O13 0.904647 0.472326 0.628575
O O14 0.000000 0.507030 0.689354
#
# Coordination Sequence:
#
# PCOD9481787 Si02
#       7
#    16  16  16  16   8  16   8
#     4  12  21  36  64  89 120 167 215 261 310 374
#     4  11  21  39  57  89 124 162 217 252 297 382
#     4   9  20  40  63  89 120 163 211 261 320 379
#     4  11  25  41  56  89 131 167 211 247 312 383
#     4  12  22  38  62  86 126 170 206 258 308 368
#     4   9  19  38  64  89 117 159 214 260 307 376
#     4  12  23  38  60  92 124 160 203 264 324 362
#
# _framework density 19.369295999999999
#
# number of rings (size 3 to 8) (size 9 to 14) (size 15 to 20)
#    0.000    1.333    4.167    4.750    1.167    0.000 
#    0.000    0.833    0.000    2.000    0.000    0.000 
#    0.000    0.000    0.000    0.000    0.000    0.000 
#
# Total GULP energy -267312.195416 kJ/mol
# GULP energy per Si atom -5569.004071 kJ/mol
# Density = 1.932521 g / cm^3
# Si number density = 19.369296 Si / 1000 Ang^3
#
#
#
# Elastic Constant Matrix: (Units=GPa)
#
#
# Indices 1 2 3 4 5 6 
#
# 1 136.1602 56.5661 46.6428 0.0000 0.0000 0.0000
# 2 56.5661 54.8739 14.5414 0.0000 0.0000 0.0000
# 3 46.6428 14.5414 109.9531 0.0000 0.0000 0.0000
# 4 0.0000 0.0000 0.0000 19.1158 0.0000 0.0000
# 5 0.0000 0.0000 0.0000 0.0000 49.2743 0.0000
# 6 0.0000 0.0000 0.0000 0.0000 0.0000 29.0114
#
#
#
# Elastic Compliance Matrix: (Units=1/GPa)
#
#
# Indices 1 2 3 4 5 6 
#
# 1 0.014618 -0.013914 -0.004361 0.000000 0.000000 0.000000
# 2 -0.013914 0.032128 0.001653 0.000000 0.000000 0.000000
# 3 -0.004361 0.001653 0.010726 0.000000 0.000000 0.000000
# 4 0.000000 0.000000 0.000000 0.052313 0.000000 0.000000
# 5 0.000000 0.000000 0.000000 0.000000 0.020295 0.000000
# 6 0.000000 0.000000 0.000000 0.000000 0.000000 0.034469
#
#
# Mechanical properties :
#
#
# Convention : Reuss Voigt Hill
#
# Bulk Modulus (GPa) = 41.27151 59.60977 50.44064
# Shear Modulus (GPa) = 24.28731 31.69609 27.99170
#
# Velocity S-wave (km/s) = 3.54490 4.04964 3.80565
# Velocity P-wave (km/s) = 6.17325 7.26005 6.73860
#
# Compressibility (1/GPa) = 0.02422979
#
# Stress axis : x y z
#
# Youngs Moduli (GPa) = 68.40659 31.12540 93.22987
#
# Poissons Ratio (x) = 0.43307 0.40659
# Poissons Ratio (y) = 0.95178 -0.15413
# Poissons Ratio (z) = 0.29833 -0.05146
#
# Static dielectric constant tensor:
#      x y z
#    x 1.702610 0.000000 0.000000 
#    y 0.000000 1.699520 0.000000 
#    z 0.000000 0.000000 1.745200 
# 
# From -- ./inp_files/9530.got.cif
#   From: 2010.05.17/outbox.cif.g08.bks.cpg/sg64_5_cif.got.tgz:9530.got - 2010.06.03 16:29:19.
