data_PCOD9481773
_publ_section_title
;
Structure prediction by ZEFSAII (Michael W. Deem and Ramdas Pophale) SiO2 
 PCOD9481773
Probable space group: C M C A
;
_chemical_formula_sum "Si O2"
_cell_formula_units_Z 120
_cell_length_a 7.708635
_cell_length_b 29.261619
_cell_length_c 27.414690
_cell_angle_alpha 90.000000
_cell_angle_beta 90.000000
_cell_angle_gamma 90.000000
_cell_volume 6183.853228
_symmetry_space_group_name_H-M "C M C A"
_symmetry_group_IT_number 64
_symmetry_cell_setting 'orthorhombic'
loop_
_space_group_symop_operation_xyz
x,y,z
-x,1/2-y,1/2+z
x,-y,-z
-x,1/2+y,1/2-z
-x,-y,-z
x,1/2+y,1/2-z
-x,y,z
x,1/2-y,1/2+z
1/2+x,1/2+y,z
1/2-x,-y,1/2+z
1/2+x,1/2-y,-z
1/2-x,y,1/2-z
1/2-x,1/2-y,-z
1/2+x,y,1/2-z
1/2-x,1/2+y,z
1/2+x,-y,1/2+z
loop_
_atom_site_type_symbol
_atom_site_label
_atom_site_fract_x
_atom_site_fract_y
_atom_site_fract_z
Si Si1 0.500000 0.634612 0.818806
Si Si2 0.802108 0.300022 0.804304
Si Si3 0.293253 0.965033 0.696746
Si Si4 0.790697 0.936421 0.540234
Si Si5 0.201062 0.933319 0.326760
Si Si6 0.196837 0.199636 0.692881
Si Si7 0.295668 0.616678 0.130222
Si Si8 0.789347 0.461572 0.066319
O O1 0.654834 0.598236 0.802534
O O2 0.655242 0.671287 0.834069
O O3 0.750000 0.316853 0.750000
O O4 0.701277 0.253800 0.817108
O O5 0.783840 0.338925 0.844791
O O6 0.000000 0.285188 0.799917
O O7 0.500000 0.970424 0.690968
O O8 0.250000 0.946395 0.750000
O O9 0.210027 0.014618 0.691453
O O10 0.227180 0.928549 0.657667
O O11 0.732029 0.894551 0.573531
O O12 0.734759 0.937065 0.483727
O O13 0.000000 0.937094 0.540579
O O14 0.730824 0.985477 0.562437
O O15 0.261582 0.937192 0.383792
O O16 0.000000 0.918712 0.323815
O O17 0.250000 0.194950 0.750000
O O18 0.000000 0.183456 0.686345
O O19 0.500000 0.619808 0.139970
O O20 0.000000 0.462883 0.066851
#
# Coordination Sequence:
#
# PCOD9481773 Si02
#       8
#     8  16  16  16  16  16  16  16
#     4  12  24  40  58  87 110 150 200 243 299 345
#     4  11  21  37  60  86 116 152 189 239 297 355
#     4  11  23  38  50  72 115 162 201 239 273 338
#     4   9  16  31  55  81 112 150 195 241 291 343
#     4  11  22  39  58  81 119 158 199 247 288 345
#     4  11  21  41  63  86 117 145 188 252 302 348
#     4  11  22  34  52  84 120 154 197 235 284 353
#     4   8  16  32  56  80 110 154 194 241 295 342
#
# _framework density 19.405376
#
# number of rings (size 3 to 8) (size 9 to 14) (size 15 to 20)
#    0.000    1.600    3.333    4.400    0.000    3.200 
#    3.600    0.667    0.000    0.000    0.000    0.933 
#    0.000    0.000    0.000    0.000    0.000    0.000 
#
# Total GULP energy -334013.283113 kJ/mol
# GULP energy per Si atom -5566.888052 kJ/mol
# Density = 1.936121 g / cm^3
# Si number density = 19.405376 Si / 1000 Ang^3
#
#
#
# Elastic Constant Matrix: (Units=GPa)
#
#
# Indices 1 2 3 4 5 6 
#
# 1 126.3762 24.6964 4.3464 0.0000 0.0000 0.0000
# 2 24.6964 66.2770 0.0112 0.0000 0.0000 0.0000
# 3 4.3464 0.0112 47.5793 0.0000 0.0000 0.0000
# 4 0.0000 0.0000 0.0000 4.1836 0.0000 0.0000
# 5 0.0000 0.0000 0.0000 0.0000 9.7717 0.0000
# 6 0.0000 0.0000 0.0000 0.0000 0.0000 -78.8523
#
#
#
# Elastic Compliance Matrix: (Units=1/GPa)
#
#
# Indices 1 2 3 4 5 6 
#
# 1 0.008563 -0.003191 -0.000782 0.000000 0.000000 0.000000
# 2 -0.003191 0.016277 0.000288 0.000000 0.000000 0.000000
# 3 -0.000782 0.000288 0.021089 0.000000 0.000000 0.000000
# 4 0.000000 0.000000 0.000000 0.239028 0.000000 0.000000
# 5 0.000000 0.000000 0.000000 0.000000 0.102336 0.000000
# 6 0.000000 0.000000 0.000000 0.000000 0.000000 -0.012682
#
#
# Mechanical properties :
#
#
# Convention : Reuss Voigt Hill
#
# Bulk Modulus (GPa) = 25.93363 33.14896 29.54129
# Shear Modulus (GPa) = 12.66355 1.09918 6.88136
#
# Velocity S-wave (km/s) = 2.55733 0.75343 1.88515
# Velocity P-wave (km/s) = 4.70246 4.22804 4.47154
#
# Compressibility (1/GPa) = 0.03855997
#
# Stress axis : x y z
#
# Youngs Moduli (GPa) = 116.77750 61.43604 47.41842
#
# Poissons Ratio (x) = 0.19603 0.03706
# Poissons Ratio (y) = 0.37261 -0.01364
# Poissons Ratio (z) = 0.09126 -0.01767
#
# Static dielectric constant tensor:
#      x y z
#    x 1.706220 0.000000 0.000000 
#    y 0.000000 1.691070 0.000000 
#    z 0.000000 0.000000 1.762280 
# 
# From -- ./inp_files/48745.got.cif
#   From: 2010.05.17/outbox.cif.g08.bks.cpg/sg64_25_cif.got.tgz:48745.got - 2010.06.03 16:29:19.
