data_PCOD9481446
_publ_section_title
;
Structure prediction by ZEFSAII (Michael W. Deem and Ramdas Pophale) SiO2 
 PCOD9481446
Probable space group: C M C A
;
_chemical_formula_sum "Si O2"
_cell_formula_units_Z 80
_cell_length_a 17.125478
_cell_length_b 22.436200
_cell_length_c 9.023967
_cell_angle_alpha 90.000000
_cell_angle_beta 90.000000
_cell_angle_gamma 90.000000
_cell_volume 3467.284702
_symmetry_space_group_name_H-M "C M C A"
_symmetry_group_IT_number 64
_symmetry_cell_setting 'orthorhombic'
loop_
_space_group_symop_operation_xyz
x,y,z
-x,1/2-y,1/2+z
x,-y,-z
-x,1/2+y,1/2-z
-x,-y,-z
x,1/2+y,1/2-z
-x,y,z
x,1/2-y,1/2+z
1/2+x,1/2+y,z
1/2-x,-y,1/2+z
1/2+x,1/2-y,-z
1/2-x,y,1/2-z
1/2-x,1/2-y,-z
1/2+x,y,1/2-z
1/2-x,1/2+y,z
1/2+x,-y,1/2+z
loop_
_atom_site_type_symbol
_atom_site_label
_atom_site_fract_x
_atom_site_fract_y
_atom_site_fract_z
Si Si1 0.682633 0.852968 0.848785
Si Si2 0.409297 0.366052 0.910798
Si Si3 0.591238 0.363455 0.247686
Si Si4 0.162331 0.263678 0.064123
Si Si5 0.201087 0.441104 0.097404
O O1 0.750000 0.823245 0.750000
O O2 0.636760 0.892523 0.729745
O O3 0.629239 0.804778 0.929783
O O4 0.723824 0.889425 0.979715
O O5 0.500000 0.373626 0.883155
O O6 0.385395 0.296227 0.913171
O O7 0.394013 0.384614 0.079553
O O8 0.500000 0.346754 0.260663
O O9 0.647522 0.308093 0.296043
O O10 0.615753 0.418142 0.352377
O O11 0.250000 0.250000 0.000000
O O12 0.250000 0.443975 0.250000
O O13 0.203160 0.500000 0.000000
#
# Coordination Sequence:
#
# PCOD9481446 Si02
#       5
#    16  16  16  16  16
#     4  11  22  39  63  94 132 171 226 275 329 398
#     4  11  23  39  61  94 140 184 226 270 323 396
#     4  10  24  42  63  97 141 187 231 281 335 402
#     4  11  22  36  62  97 137 186 231 272 326 390
#     4  11  25  45  73  99 129 166 222 287 352 416
#
# _framework density 23.07281
#
# number of rings (size 3 to 8) (size 9 to 14) (size 15 to 20)
#    0.000    1.200    2.000    3.600    2.800    6.000 
#    0.000    0.000    0.000    3.000    0.000    0.000 
#    0.000    0.000    0.000    0.000    0.000    0.000 
#
# Total GULP energy -223028.588368 kJ/mol
# GULP energy per Si atom -5575.714709 kJ/mol
# Density = 2.302029 g / cm^3
# Si number density = 23.072810 Si / 1000 Ang^3
#
#
#
# Elastic Constant Matrix: (Units=GPa)
#
#
# Indices 1 2 3 4 5 6 
#
# 1 96.1297 -6.7397 44.8897 0.0000 0.0000 0.0000
# 2 -6.7397 57.3406 29.3178 0.0000 0.0000 0.0000
# 3 44.8897 29.3178 160.9358 0.0000 0.0000 0.0000
# 4 0.0000 0.0000 0.0000 34.0714 0.0000 0.0000
# 5 0.0000 0.0000 0.0000 0.0000 33.6163 0.0000
# 6 0.0000 0.0000 0.0000 0.0000 0.0000 14.4663
#
#
#
# Elastic Compliance Matrix: (Units=1/GPa)
#
#
# Indices 1 2 3 4 5 6 
#
# 1 0.012606 0.003616 -0.004175 0.000000 0.000000 0.000000
# 2 0.003616 0.020268 -0.004701 0.000000 0.000000 0.000000
# 3 -0.004175 -0.004701 0.008235 0.000000 0.000000 0.000000
# 4 0.000000 0.000000 0.000000 0.029350 0.000000 0.000000
# 5 0.000000 0.000000 0.000000 0.000000 0.029747 0.000000
# 6 0.000000 0.000000 0.000000 0.000000 0.000000 0.069126
#
#
# Mechanical properties :
#
#
# Convention : Reuss Voigt Hill
#
# Bulk Modulus (GPa) = 32.69123 49.92687 41.30905
# Shear Modulus (GPa) = 26.30916 32.89335 29.60126
#
# Velocity S-wave (km/s) = 3.38045 3.77985 3.58571
# Velocity P-wave (km/s) = 5.42550 6.38244 5.92333
#
# Compressibility (1/GPa) = 0.03058924
#
# Stress axis : x y z
#
# Youngs Moduli (GPa) = 79.32937 49.33828 121.43997
#
# Poissons Ratio (x) = -0.17842 0.50699
# Poissons Ratio (y) = -0.28687 0.57088
# Poissons Ratio (z) = 0.33119 0.23194
#
# Static dielectric constant tensor:
#      x y z
#    x 1.888630 0.000000 0.000000 
#    y 0.000000 1.885000 0.000000 
#    z 0.000000 0.000000 1.984400 
# 
# From -- ./inp_files/7113.got.cif
#   From: 2010.05.17/outbox.cif.g08.bks.cpg/sg64_4_cif.got.tgz:7113.got - 2010.06.03 16:29:19.
