data_PCOD9481957
_publ_section_title
;
Structure prediction by ZEFSAII (Michael W. Deem and Ramdas Pophale) SiO2 
 PCOD9481957
Probable space group: C M C A
;
_chemical_formula_sum "Si O2"
_cell_formula_units_Z 96
_cell_length_a 17.099069
_cell_length_b 20.376143
_cell_length_c 13.364551
_cell_angle_alpha 90.000000
_cell_angle_beta 90.000000
_cell_angle_gamma 90.000000
_cell_volume 4656.384311
_symmetry_space_group_name_H-M "C M C A"
_symmetry_group_IT_number 64
_symmetry_cell_setting 'orthorhombic'
loop_
_space_group_symop_operation_xyz
x,y,z
-x,1/2-y,1/2+z
x,-y,-z
-x,1/2+y,1/2-z
-x,-y,-z
x,1/2+y,1/2-z
-x,y,z
x,1/2-y,1/2+z
1/2+x,1/2+y,z
1/2-x,-y,1/2+z
1/2+x,1/2-y,-z
1/2-x,y,1/2-z
1/2-x,1/2-y,-z
1/2+x,y,1/2-z
1/2-x,1/2+y,z
1/2+x,-y,1/2+z
loop_
_atom_site_type_symbol
_atom_site_label
_atom_site_fract_x
_atom_site_fract_y
_atom_site_fract_z
Si Si1 0.371154 0.141309 0.627177
Si Si2 0.410754 0.504040 0.144021
Si Si3 0.700369 0.874101 0.649166
Si Si4 0.410263 0.228405 0.439657
Si Si5 0.203830 0.852480 0.449535
Si Si6 0.413896 0.582263 0.671680
O O1 0.408268 0.189930 0.546559
O O2 0.278901 0.155305 0.622408
O O3 0.400894 0.138338 0.741602
O O4 0.389326 0.065869 0.593059
O O5 0.500000 0.523203 0.117820
O O6 0.345482 0.558175 0.132115
O O7 0.410465 0.483002 0.261331
O O8 0.750000 0.873000 0.750000
O O9 0.633176 0.818695 0.639753
O O10 0.759078 0.861665 0.557658
O O11 0.500000 0.242540 0.414102
O O12 0.355500 0.291819 0.449046
O O13 0.153660 0.912793 0.408342
O O14 0.500000 0.589451 0.628183
#
# Coordination Sequence:
#
# PCOD9481957 Si02
#       6
#    16  16  16  16  16  16
#     4   9  19  37  64  92 122 158 212 266 314 371
#     4   9  20  40  65  92 122 161 214 264 317 378
#     4  11  25  42  62  94 132 170 213 263 322 374
#     4  11  23  42  64  92 128 168 215 265 317 378
#     4  11  23  38  61  95 127 162 213 261 315 379
#     4   9  19  38  63  92 123 162 209 258 312 378
#
# _framework density 20.616855000000001
#
# number of rings (size 3 to 8) (size 9 to 14) (size 15 to 20)
#    1.000    1.000    0.000    4.500    2.333    5.333 
#    0.000    9.167    0.000    2.000    0.000    0.000 
#    0.000    0.000    0.000    0.000    0.000    0.000 
#
# Total GULP energy -267745.946403 kJ/mol
# GULP energy per Si atom -5578.040550 kJ/mol
# Density = 2.056993 g / cm^3
# Si number density = 20.616855 Si / 1000 Ang^3
#
#
#
# Elastic Constant Matrix: (Units=GPa)
#
#
# Indices 1 2 3 4 5 6 
#
# 1 170.6173 43.6647 34.6729 0.0000 0.0000 0.0000
# 2 43.6647 68.7197 16.4426 0.0000 0.0000 0.0000
# 3 34.6729 16.4426 39.2455 0.0000 0.0000 0.0000
# 4 0.0000 0.0000 0.0000 17.9339 0.0000 0.0000
# 5 0.0000 0.0000 0.0000 0.0000 16.7677 0.0000
# 6 0.0000 0.0000 0.0000 0.0000 0.0000 20.4178
#
#
#
# Elastic Compliance Matrix: (Units=1/GPa)
#
#
# Indices 1 2 3 4 5 6 
#
# 1 0.007921 -0.003733 -0.005434 0.000000 0.000000 0.000000
# 2 -0.003733 0.017932 -0.004215 0.000000 0.000000 0.000000
# 3 -0.005434 -0.004215 0.032047 0.000000 0.000000 0.000000
# 4 0.000000 0.000000 0.000000 0.055760 0.000000 0.000000
# 5 0.000000 0.000000 0.000000 0.000000 0.059639 0.000000
# 6 0.000000 0.000000 0.000000 0.000000 0.000000 0.048977
#
#
# Mechanical properties :
#
#
# Convention : Reuss Voigt Hill
#
# Bulk Modulus (GPa) = 32.11652 52.01588 42.06620
# Shear Modulus (GPa) = 19.27388 23.27736 21.27562
#
# Velocity S-wave (km/s) = 3.06087 3.36377 3.21589
# Velocity P-wave (km/s) = 5.30127 6.35383 5.85127
#
# Compressibility (1/GPa) = 0.03113663
#
# Stress axis : x y z
#
# Youngs Moduli (GPa) = 126.25292 55.76572 31.20371
#
# Poissons Ratio (x) = 0.20815 0.16956
# Poissons Ratio (y) = 0.47125 0.13153
# Poissons Ratio (z) = 0.68605 0.23507
#
# Static dielectric constant tensor:
#      x y z
#    x 1.715810 0.000000 0.000000 
#    y 0.000000 1.774070 0.000000 
#    z 0.000000 0.000000 1.756120 
# 
# From -- ./inp_files/16214.got.cif
#   From: 2010.05.17/outbox.cif.g08.bks.cpg/sg64_9_cif.got.tgz:16214.got - 2010.06.03 16:29:19.
