data_PCOD9481063
_publ_section_title
;
Structure prediction by ZEFSAII (Michael W. Deem and Ramdas Pophale) SiO2 
 PCOD9481063
Probable space group: C M C A
;
_chemical_formula_sum "Si O2"
_cell_formula_units_Z 64
_cell_length_a 18.593290
_cell_length_b 14.486593
_cell_length_c 9.932842
_cell_angle_alpha 90.000000
_cell_angle_beta 90.000000
_cell_angle_gamma 90.000000
_cell_volume 2675.445010
_symmetry_space_group_name_H-M "C M C A"
_symmetry_group_IT_number 64
_symmetry_cell_setting 'orthorhombic'
loop_
_space_group_symop_operation_xyz
x,y,z
-x,1/2-y,1/2+z
x,-y,-z
-x,1/2+y,1/2-z
-x,-y,-z
x,1/2+y,1/2-z
-x,y,z
x,1/2-y,1/2+z
1/2+x,1/2+y,z
1/2-x,-y,1/2+z
1/2+x,1/2-y,-z
1/2-x,y,1/2-z
1/2-x,1/2-y,-z
1/2+x,y,1/2-z
1/2-x,1/2+y,z
1/2+x,-y,1/2+z
loop_
_atom_site_type_symbol
_atom_site_label
_atom_site_fract_x
_atom_site_fract_y
_atom_site_fract_z
Si Si1 0.724188 0.918453 0.102498
Si Si2 0.081825 0.061992 0.727976
Si Si3 0.141699 0.695127 0.550311
Si Si4 0.414889 0.341648 0.753938
O O1 0.750000 0.949648 0.250000
O O2 0.639949 0.901315 0.121757
O O3 0.775139 0.834033 0.065335
O O4 0.736951 0.000000 0.000000
O O5 0.098632 0.114391 0.867406
O O6 0.000000 0.079245 0.686524
O O7 0.092931 0.952141 0.741959
O O8 0.116348 0.690703 0.397163
O O9 0.124483 0.786631 0.635003
O O10 0.500000 0.320515 0.747836
#
# Coordination Sequence:
#
# PCOD9481063 Si02
#       4
#    16  16  16  16
#     4  10  22  43  67  96 133 178 226 273 332 400
#     4  10  22  43  70  99 136 180 227 280 339 404
#     4  11  23  44  69 100 139 177 226 282 341 409
#     4  11  23  41  71 105 137 178 225 279 343 409
#
# _framework density 23.921253
#
# number of rings (size 3 to 8) (size 9 to 14) (size 15 to 20)
#    0.000    1.500    0.000    6.000    0.000    6.500 
#    0.000   33.750    0.000    0.000    0.000    0.000 
#    0.000    0.000    0.000    0.000    0.000    0.000 
#
# Total GULP energy -179414.969257 kJ/mol
# GULP energy per Si atom -5606.717789 kJ/mol
# Density = 2.386681 g / cm^3
# Si number density = 23.921253 Si / 1000 Ang^3
#
#
#
# Elastic Constant Matrix: (Units=GPa)
#
#
# Indices 1 2 3 4 5 6 
#
# 1 174.7873 77.5962 79.2230 0.0000 0.0000 0.0000
# 2 77.5962 134.6661 68.7175 0.0000 0.0000 0.0000
# 3 79.2230 68.7175 160.4173 0.0000 0.0000 0.0000
# 4 0.0000 0.0000 0.0000 41.5231 0.0000 0.0000
# 5 0.0000 0.0000 0.0000 0.0000 10.3437 0.0000
# 6 0.0000 0.0000 0.0000 0.0000 0.0000 15.1011
#
#
#
# Elastic Compliance Matrix: (Units=1/GPa)
#
#
# Indices 1 2 3 4 5 6 
#
# 1 0.008507 -0.003530 -0.002689 0.000000 0.000000 0.000000
# 2 -0.003530 0.010967 -0.002955 0.000000 0.000000 0.000000
# 3 -0.002689 -0.002955 0.008828 0.000000 0.000000 0.000000
# 4 0.000000 0.000000 0.000000 0.024083 0.000000 0.000000
# 5 0.000000 0.000000 0.000000 0.000000 0.096677 0.000000
# 6 0.000000 0.000000 0.000000 0.000000 0.000000 0.066221
#
#
# Mechanical properties :
#
#
# Convention : Reuss Voigt Hill
#
# Bulk Modulus (GPa) = 100.45752 102.32712 101.39232
# Shear Modulus (GPa) = 21.10158 29.68250 25.39204
#
# Velocity S-wave (km/s) = 2.97328 3.52638 3.26158
# Velocity P-wave (km/s) = 7.33986 7.71038 7.52740
#
# Compressibility (1/GPa) = 0.00995446
#
# Stress axis : x y z
#
# Youngs Moduli (GPa) = 117.54826 91.17897 113.27975
#
# Poissons Ratio (x) = 0.32183 0.30465
# Poissons Ratio (y) = 0.41490 0.33474
# Poissons Ratio (z) = 0.31613 0.26943
#
# Static dielectric constant tensor:
#      x y z
#    x 1.928470 0.000000 0.000000 
#    y 0.000000 1.927920 0.000000 
#    z 0.000000 0.000000 1.844920 
# 
# From -- ./inp_files/15488.got.cif
#   From: 2010.05.17/outbox.cif.g08.bks.cpg/sg64_8_cif.got.tgz:15488.got - 2010.06.03 16:29:19.
