data_PCOD9481447
_publ_section_title
;
Structure prediction by ZEFSAII (Michael W. Deem and Ramdas Pophale) SiO2 
 PCOD9481447
Probable space group: C M C A
;
_chemical_formula_sum "Si O2"
_cell_formula_units_Z 88
_cell_length_a 30.862970
_cell_length_b 23.357905
_cell_length_c 5.199027
_cell_angle_alpha 90.000000
_cell_angle_beta 90.000000
_cell_angle_gamma 90.000000
_cell_volume 3747.949040
_symmetry_space_group_name_H-M "C M C A"
_symmetry_group_IT_number 64
_symmetry_cell_setting 'orthorhombic'
loop_
_space_group_symop_operation_xyz
x,y,z
-x,1/2-y,1/2+z
x,-y,-z
-x,1/2+y,1/2-z
-x,-y,-z
x,1/2+y,1/2-z
-x,y,z
x,1/2-y,1/2+z
1/2+x,1/2+y,z
1/2-x,-y,1/2+z
1/2+x,1/2-y,-z
1/2-x,y,1/2-z
1/2-x,1/2-y,-z
1/2+x,y,1/2-z
1/2-x,1/2+y,z
1/2+x,-y,1/2+z
loop_
_atom_site_type_symbol
_atom_site_label
_atom_site_fract_x
_atom_site_fract_y
_atom_site_fract_z
Si Si1 0.500000 0.285232 0.001277
Si Si2 0.867477 0.395717 0.427028
Si Si3 0.451874 0.443137 0.327483
Si Si4 0.641332 0.215687 0.907174
Si Si5 0.072456 0.660912 0.179244
Si Si6 0.772101 0.932622 0.999721
O O1 0.500000 0.232123 0.797542
O O2 0.458839 0.320964 0.908177
O O3 0.908409 0.434673 0.340854
O O4 0.854635 0.348383 0.210545
O O5 0.885247 0.363027 0.676462
O O6 0.823581 0.427767 0.493444
O O7 0.448273 0.500000 0.500000
O O8 0.500000 0.443919 0.200479
O O9 0.449581 0.388333 0.514180
O O10 0.657356 0.256293 0.674288
O O11 0.590014 0.211000 0.992075
O O12 0.750000 0.906259 0.750000
O O13 0.750000 0.906380 0.250000
O O14 0.761049 0.000000 0.000000
#
# Coordination Sequence:
#
# PCOD9481447 Si02
#       6
#     8  16  16  16  16  16
#     4  12  28  40  65  93 139 183 240 302 348 398
#     4  11  26  41  75 101 143 190 243 293 357 443
#     4  10  24  42  63  98 149 196 240 290 345 427
#     4  11  22  41  65  96 136 180 234 287 351 412
#     4  11  24  40  62 100 132 189 240 292 344 423
#     4  10  25  47  75 110 144 178 233 302 370 435
#
# _framework density 23.479510000000001
#
# number of rings (size 3 to 8) (size 9 to 14) (size 15 to 20)
#    0.000    1.273    2.727    1.091   14.000    0.727 
#    0.000    1.818    0.000    3.273    0.000    0.000 
#    0.000    0.000    0.000    0.000    0.000    0.000 
#
# Total GULP energy -245614.608401 kJ/mol
# GULP energy per Si atom -5582.150191 kJ/mol
# Density = 2.342607 g / cm^3
# Si number density = 23.479510 Si / 1000 Ang^3
#
#
#
# Elastic Constant Matrix: (Units=GPa)
#
#
# Indices 1 2 3 4 5 6 
#
# 1 98.9767 -10.9235 49.0463 0.0000 0.0000 0.0000
# 2 -10.9235 31.2013 18.9451 0.0000 0.0000 0.0000
# 3 49.0463 18.9451 135.6925 0.0000 0.0000 0.0000
# 4 0.0000 0.0000 0.0000 21.2454 0.0000 0.0000
# 5 0.0000 0.0000 0.0000 0.0000 10.8423 0.0000
# 6 0.0000 0.0000 0.0000 0.0000 0.0000 21.8357
#
#
#
# Elastic Compliance Matrix: (Units=1/GPa)
#
#
# Indices 1 2 3 4 5 6 
#
# 1 0.014247 0.008866 -0.006388 0.000000 0.000000 0.000000
# 2 0.008866 0.040536 -0.008864 0.000000 0.000000 0.000000
# 3 -0.006388 -0.008864 0.010916 0.000000 0.000000 0.000000
# 4 0.000000 0.000000 0.000000 0.047069 0.000000 0.000000
# 5 0.000000 0.000000 0.000000 0.000000 0.092231 0.000000
# 6 0.000000 0.000000 0.000000 0.000000 0.000000 0.045796
#
#
# Mechanical properties :
#
#
# Convention : Reuss Voigt Hill
#
# Bulk Modulus (GPa) = 18.89340 42.22291 30.55816
# Shear Modulus (GPa) = 17.78027 24.70485 21.24256
#
# Velocity S-wave (km/s) = 2.75483 3.24726 3.01113
# Velocity P-wave (km/s) = 4.26416 5.66406 5.01321
#
# Compressibility (1/GPa) = 0.05292853
#
# Stress axis : x y z
#
# Youngs Moduli (GPa) = 70.18936 24.66914 91.60837
#
# Poissons Ratio (x) = -0.21873 0.58516
# Poissons Ratio (y) = -0.62233 0.81205
# Poissons Ratio (z) = 0.44834 0.21868
#
# Static dielectric constant tensor:
#      x y z
#    x 1.866230 0.000000 0.000000 
#    y 0.000000 1.944190 0.000000 
#    z 0.000000 0.000000 1.925300 
# 
# From -- ./inp_files/3314.got.cif
#   From: 2010.05.17/outbox.cif.g08.bks.cpg/sg64_2_cif.got.tgz:3314.got - 2010.06.03 16:29:19.
