data_PCOD9481519
_publ_section_title
;
Structure prediction by ZEFSAII (Michael W. Deem and Ramdas Pophale) SiO2 
 PCOD9481519
Probable space group: C M C A
;
_chemical_formula_sum "Si O2"
_cell_formula_units_Z 68
_cell_length_a 19.631638
_cell_length_b 29.275205
_cell_length_c 5.063279
_cell_angle_alpha 90.000000
_cell_angle_beta 90.000000
_cell_angle_gamma 90.000000
_cell_volume 2909.968856
_symmetry_space_group_name_H-M "C M C A"
_symmetry_group_IT_number 64
_symmetry_cell_setting 'orthorhombic'
loop_
_space_group_symop_operation_xyz
x,y,z
-x,1/2-y,1/2+z
x,-y,-z
-x,1/2+y,1/2-z
-x,-y,-z
x,1/2+y,1/2-z
-x,y,z
x,1/2-y,1/2+z
1/2+x,1/2+y,z
1/2-x,-y,1/2+z
1/2+x,1/2-y,-z
1/2-x,y,1/2-z
1/2-x,1/2-y,-z
1/2+x,y,1/2-z
1/2-x,1/2+y,z
1/2+x,-y,1/2+z
loop_
_atom_site_type_symbol
_atom_site_label
_atom_site_fract_x
_atom_site_fract_y
_atom_site_fract_z
Si Si1 0.104521 0.954135 0.823531
Si Si2 0.500000 0.119224 0.516234
Si Si3 0.500000 0.317368 0.510908
Si Si4 0.147932 0.222481 0.539147
Si Si5 0.750000 0.916804 0.750000
Si Si6 0.250000 0.852570 0.250000
Si Si7 0.000000 0.000000 0.500000
O O1 0.066827 0.912256 0.969899
O O2 0.181558 0.946335 0.738918
O O3 0.058874 0.962606 0.568659
O O4 0.094900 0.000000 0.000000
O O5 0.500000 0.141720 0.800963
O O6 0.500000 0.159913 0.300320
O O7 0.567882 0.288304 0.460911
O O8 0.165227 0.236284 0.239795
O O9 0.188486 0.179627 0.654461
O O10 0.737144 0.885037 0.497807
#
# Coordination Sequence:
#
# PCOD9481519 Si02
#       7
#    16   8   8  16   8   8   4
#     4  11  27  44  72 103 139 193 244 292 360 423
#     4  11  24  43  67  97 140 187 226 296 351 428
#     4  12  24  42  67 102 139 175 236 288 357 407
#     4  12  24  43  71 100 138 183 233 287 349 429
#     4  12  28  46  74 104 150 182 242 308 356 414
#     4  12  26  48  68 106 140 190 232 290 370 424
#     4  10  24  44  72  96 138 178 242 280 358 426
#
# _framework density 23.367947999999998
#
# number of rings (size 3 to 8) (size 9 to 14) (size 15 to 20)
#    0.000    0.471    0.000    8.471   11.529    0.000 
#    0.000    0.000    0.000    0.000    0.000    0.000 
#    0.000    0.000    0.000    0.000    0.000    0.000 
#
# Total GULP energy -189958.286471 kJ/mol
# GULP energy per Si atom -5587.008426 kJ/mol
# Density = 2.331476 g / cm^3
# Si number density = 23.367948 Si / 1000 Ang^3
#
#
#
# Elastic Constant Matrix: (Units=GPa)
#
#
# Indices 1 2 3 4 5 6 
#
# 1 173.2812 14.0770 1.4669 0.0000 0.0000 0.0000
# 2 14.0770 48.1158 20.4167 0.0000 0.0000 0.0000
# 3 1.4669 20.4167 71.6608 0.0000 0.0000 0.0000
# 4 0.0000 0.0000 0.0000 51.8907 0.0000 0.0000
# 5 0.0000 0.0000 0.0000 0.0000 5.8532 0.0000
# 6 0.0000 0.0000 0.0000 0.0000 0.0000 -38.8487
#
#
#
# Elastic Compliance Matrix: (Units=1/GPa)
#
#
# Indices 1 2 3 4 5 6 
#
# 1 0.005923 -0.001913 0.000424 0.000000 0.000000 0.000000
# 2 -0.001913 0.024259 -0.006872 0.000000 0.000000 0.000000
# 3 0.000424 -0.006872 0.015904 0.000000 0.000000 0.000000
# 4 0.000000 0.000000 0.000000 0.019271 0.000000 0.000000
# 5 0.000000 0.000000 0.000000 0.000000 0.170846 0.000000
# 6 0.000000 0.000000 0.000000 0.000000 0.000000 -0.025741
#
#
# Mechanical properties :
#
#
# Convention : Reuss Voigt Hill
#
# Bulk Modulus (GPa) = 34.05649 40.55325 37.30487
# Shear Modulus (GPa) = 21.09952 20.91887 21.00919
#
# Velocity S-wave (km/s) = 3.00813 2.99523 3.00169
# Velocity P-wave (km/s) = 5.16438 5.41791 5.29266
#
# Compressibility (1/GPa) = 0.02936298
#
# Stress axis : x y z
#
# Youngs Moduli (GPa) = 168.84045 41.22206 62.87746
#
# Poissons Ratio (x) = 0.07884 -0.02664
# Poissons Ratio (y) = 0.32292 0.43212
# Poissons Ratio (z) = -0.07153 0.28329
#
# Static dielectric constant tensor:
#      x y z
#    x 1.843950 0.000000 0.000000 
#    y 0.000000 1.866340 0.000000 
#    z 0.000000 0.000000 1.908420 
# 
# From -- ./inp_files/1890.got.cif
#   From: 2010.05.17/outbox.cif.g08.bks.cpg/sg64_1_cif.got.tgz:1890.got - 2010.06.03 16:29:19.
