data_PCOD9481511
_publ_section_title
;
Structure prediction by ZEFSAII (Michael W. Deem and Ramdas Pophale) SiO2 
 PCOD9481511
Probable space group: C M C A
;
_chemical_formula_sum "Si O2"
_cell_formula_units_Z 96
_cell_length_a 25.515785
_cell_length_b 19.396750
_cell_length_c 9.671127
_cell_angle_alpha 90.000000
_cell_angle_beta 90.000000
_cell_angle_gamma 90.000000
_cell_volume 4786.466116
_symmetry_space_group_name_H-M "C M C A"
_symmetry_group_IT_number 64
_symmetry_cell_setting 'orthorhombic'
loop_
_space_group_symop_operation_xyz
x,y,z
-x,1/2-y,1/2+z
x,-y,-z
-x,1/2+y,1/2-z
-x,-y,-z
x,1/2+y,1/2-z
-x,y,z
x,1/2-y,1/2+z
1/2+x,1/2+y,z
1/2-x,-y,1/2+z
1/2+x,1/2-y,-z
1/2-x,y,1/2-z
1/2-x,1/2-y,-z
1/2+x,y,1/2-z
1/2-x,1/2+y,z
1/2+x,-y,1/2+z
loop_
_atom_site_type_symbol
_atom_site_label
_atom_site_fract_x
_atom_site_fract_y
_atom_site_fract_z
Si Si1 0.437677 0.986366 0.841148
Si Si2 0.438426 0.882956 0.355271
Si Si3 0.767396 0.933085 0.904726
Si Si4 0.866380 0.760305 0.249439
Si Si5 0.702152 0.303350 0.502206
Si Si6 0.385272 0.383031 0.860907
O O1 0.500000 0.969500 0.835147
O O2 0.404221 0.926409 0.770597
O O3 0.429075 0.055425 0.752548
O O4 0.423642 0.000000 0.000000
O O5 0.500000 0.868476 0.358826
O O6 0.406193 0.815987 0.309863
O O7 0.418546 0.905112 0.506122
O O8 0.750000 0.952107 0.750000
O O9 0.824314 0.897039 0.893415
O O10 0.726046 0.877899 0.964315
O O11 0.770945 0.000000 0.000000
O O12 0.827303 0.797987 0.356186
O O13 0.893024 0.697834 0.332836
O O14 0.835294 0.722929 0.125381
O O15 0.750000 0.250000 0.500000
#
# Coordination Sequence:
#
# PCOD9481511 Si02
#       6
#    16  16  16  16  16  16
#     4  10  24  44  69  99 135 177 223 283 347 403
#     4  11  25  45  69 102 135 177 228 276 342 410
#     4  12  26  43  66 103 136 178 231 280 335 404
#     4  12  25  44  69 101 133 179 226 277 337 403
#     4  12  23  46  69  93 139 180 225 275 339 399
#     4  12  24  44  70  98 137 181 227 280 337 405
#
# _framework density 20.056550999999999
#
# number of rings (size 3 to 8) (size 9 to 14) (size 15 to 20)
#    0.000    0.500    5.000    2.500    2.333    7.333 
#    0.000    0.000    0.000    0.000    0.000    0.000 
#    0.000    0.000    0.000    0.000    0.000    0.000 
#
# Total GULP energy -268715.103066 kJ/mol
# GULP energy per Si atom -5598.231314 kJ/mol
# Density = 2.001090 g / cm^3
# Si number density = 20.056551 Si / 1000 Ang^3
#
#
#
# Elastic Constant Matrix: (Units=GPa)
#
#
# Indices 1 2 3 4 5 6 
#
# 1 59.8348 27.5512 26.2795 0.0000 0.0000 0.0000
# 2 27.5512 82.4968 31.0060 0.0000 0.0000 0.0000
# 3 26.2795 31.0060 89.7744 0.0000 0.0000 0.0000
# 4 0.0000 0.0000 0.0000 30.8419 0.0000 0.0000
# 5 0.0000 0.0000 0.0000 0.0000 40.1928 0.0000
# 6 0.0000 0.0000 0.0000 0.0000 0.0000 22.7283
#
#
#
# Elastic Compliance Matrix: (Units=1/GPa)
#
#
# Indices 1 2 3 4 5 6 
#
# 1 0.021103 -0.005431 -0.004302 0.000000 0.000000 0.000000
# 2 -0.005431 0.015328 -0.003704 0.000000 0.000000 0.000000
# 3 -0.004302 -0.003704 0.013678 0.000000 0.000000 0.000000
# 4 0.000000 0.000000 0.000000 0.032423 0.000000 0.000000
# 5 0.000000 0.000000 0.000000 0.000000 0.024880 0.000000
# 6 0.000000 0.000000 0.000000 0.000000 0.000000 0.043998
#
#
# Mechanical properties :
#
#
# Convention : Reuss Voigt Hill
#
# Bulk Modulus (GPa) = 43.03910 44.64216 43.84063
# Shear Modulus (GPa) = 26.87781 28.57055 27.72418
#
# Velocity S-wave (km/s) = 3.66471 3.77835 3.72196
# Velocity P-wave (km/s) = 6.27792 6.42970 6.35426
#
# Compressibility (1/GPa) = 0.02323469
#
# Stress axis : x y z
#
# Youngs Moduli (GPa) = 47.38751 65.24210 73.11267
#
# Poissons Ratio (x) = 0.35432 0.31451
# Poissons Ratio (y) = 0.25735 0.27081
# Poissons Ratio (z) = 0.20384 0.24166
#
# Static dielectric constant tensor:
#      x y z
#    x 1.689540 0.000000 0.000000 
#    y 0.000000 1.677850 0.000000 
#    z 0.000000 0.000000 1.735560 
# 
# From -- ./inp_files/10385.got.cif
#   From: 2010.05.17/outbox.cif.g08.bks.cpg/sg64_6_cif.got.tgz:10385.got - 2010.06.03 16:29:19.
