data_PCOD9481200
_publ_section_title
;
Structure prediction by ZEFSAII (Michael W. Deem and Ramdas Pophale) SiO2 
 PCOD9481200
Probable space group: C M C A
;
_chemical_formula_sum "Si O2"
_cell_formula_units_Z 80
_cell_length_a 13.336501
_cell_length_b 22.430748
_cell_length_c 12.797371
_cell_angle_alpha 90.000000
_cell_angle_beta 90.000000
_cell_angle_gamma 90.000000
_cell_volume 3828.304013
_symmetry_space_group_name_H-M "C M C A"
_symmetry_group_IT_number 64
_symmetry_cell_setting 'orthorhombic'
loop_
_space_group_symop_operation_xyz
x,y,z
-x,1/2-y,1/2+z
x,-y,-z
-x,1/2+y,1/2-z
-x,-y,-z
x,1/2+y,1/2-z
-x,y,z
x,1/2-y,1/2+z
1/2+x,1/2+y,z
1/2-x,-y,1/2+z
1/2+x,1/2-y,-z
1/2-x,y,1/2-z
1/2-x,1/2-y,-z
1/2+x,y,1/2-z
1/2-x,1/2+y,z
1/2+x,-y,1/2+z
loop_
_atom_site_type_symbol
_atom_site_label
_atom_site_fract_x
_atom_site_fract_y
_atom_site_fract_z
Si Si1 0.826652 0.296414 0.552227
Si Si2 0.500000 0.458115 0.216697
Si Si3 0.789554 0.587539 0.054260
Si Si4 0.500000 0.102241 0.939243
Si Si5 0.211546 0.025942 0.851630
Si Si6 0.500000 0.171758 0.609489
Si Si7 0.000000 0.731503 0.827250
O O1 0.750000 0.250000 0.500000
O O2 0.760662 0.351779 0.592503
O O3 0.899824 0.266188 0.637001
O O4 0.903185 0.318551 0.462505
O O5 0.500000 0.444356 0.341266
O O6 0.598122 0.490272 0.173718
O O7 0.500000 0.393168 0.161803
O O8 0.778676 0.532789 0.133389
O O9 0.901255 0.594820 0.009745
O O10 0.725250 0.564722 0.954335
O O11 0.500000 0.168128 0.888495
O O12 0.250000 0.061194 0.750000
O O13 0.500000 0.218241 0.704789
#
# Coordination Sequence:
#
# PCOD9481200 Si02
#       7
#    16   8  16   8  16   8   8
#     4  11  22  42  65  96 132 165 218 270 321 393
#     4  11  21  39  71  94 126 161 232 266 310 388
#     4  11  24  41  68  93 133 171 218 269 334 385
#     4  11  21  41  69  96 124 176 219 265 317 406
#     4  11  24  42  63  98 131 173 216 270 327 387
#     4  10  23  40  65  96 123 176 213 267 321 387
#     4  10  23  40  65  97 129 169 217 265 328 377
#
# _framework density 20.896982999999999
#
# number of rings (size 3 to 8) (size 9 to 14) (size 15 to 20)
#    0.000    1.200    6.000    0.000    0.000    6.400 
#    3.600    0.000    0.000    0.000    0.000    0.000 
#    0.000    0.000    0.000    0.000    0.000    0.000 
#
# Total GULP energy -223522.011267 kJ/mol
# GULP energy per Si atom -5588.050282 kJ/mol
# Density = 2.084942 g / cm^3
# Si number density = 20.896983 Si / 1000 Ang^3
#
#
#
# Elastic Constant Matrix: (Units=GPa)
#
#
# Indices 1 2 3 4 5 6 
#
# 1 145.5374 20.0541 16.2137 0.0000 0.0000 0.0000
# 2 20.0541 79.2619 -0.2574 0.0000 0.0000 0.0000
# 3 16.2137 -0.2574 64.2679 0.0000 0.0000 0.0000
# 4 0.0000 0.0000 0.0000 19.6356 0.0000 0.0000
# 5 0.0000 0.0000 0.0000 0.0000 4.5957 0.0000
# 6 0.0000 0.0000 0.0000 0.0000 0.0000 35.5797
#
#
#
# Elastic Compliance Matrix: (Units=1/GPa)
#
#
# Indices 1 2 3 4 5 6 
#
# 1 0.007335 -0.001862 -0.001858 0.000000 0.000000 0.000000
# 2 -0.001862 0.013089 0.000522 0.000000 0.000000 0.000000
# 3 -0.001858 0.000522 0.016031 0.000000 0.000000 0.000000
# 4 0.000000 0.000000 0.000000 0.050928 0.000000 0.000000
# 5 0.000000 0.000000 0.000000 0.000000 0.217597 0.000000
# 6 0.000000 0.000000 0.000000 0.000000 0.000000 0.028106
#
#
# Mechanical properties :
#
#
# Convention : Reuss Voigt Hill
#
# Bulk Modulus (GPa) = 33.26748 40.12090 36.69419
# Shear Modulus (GPa) = 14.30615 28.83265 21.56940
#
# Velocity S-wave (km/s) = 2.61933 3.71853 3.21624
# Velocity P-wave (km/s) = 5.01021 6.13821 5.60267
#
# Compressibility (1/GPa) = 0.03005938
#
# Stress axis : x y z
#
# Youngs Moduli (GPa) = 136.34014 76.39924 62.38048
#
# Poissons Ratio (x) = 0.14224 0.11589
# Poissons Ratio (y) = 0.25383 -0.03257
# Poissons Ratio (z) = 0.25330 -0.03989
#
# Static dielectric constant tensor:
#      x y z
#    x 1.756930 0.000000 0.000000 
#    y 0.000000 1.753560 0.000000 
#    z 0.000000 0.000000 1.739020 
# 
# From -- ./inp_files/22402.got.cif
#   From: 2010.05.17/outbox.cif.g08.bks.cpg/sg64_12_cif.got.tgz:22402.got - 2010.06.03 16:29:19.
