data_PCOD9481024
_publ_section_title
;
Structure prediction by ZEFSAII (Michael W. Deem and Ramdas Pophale) SiO2 
 PCOD9481024
Probable space group: C M C A
;
_chemical_formula_sum "Si O2"
_cell_formula_units_Z 64
_cell_length_a 13.225659
_cell_length_b 26.890345
_cell_length_c 6.714579
_cell_angle_alpha 90.000000
_cell_angle_beta 90.000000
_cell_angle_gamma 90.000000
_cell_volume 2387.989886
_symmetry_space_group_name_H-M "C M C A"
_symmetry_group_IT_number 64
_symmetry_cell_setting 'orthorhombic'
loop_
_space_group_symop_operation_xyz
x,y,z
-x,1/2-y,1/2+z
x,-y,-z
-x,1/2+y,1/2-z
-x,-y,-z
x,1/2+y,1/2-z
-x,y,z
x,1/2-y,1/2+z
1/2+x,1/2+y,z
1/2-x,-y,1/2+z
1/2+x,1/2-y,-z
1/2-x,y,1/2-z
1/2-x,1/2-y,-z
1/2+x,y,1/2-z
1/2-x,1/2+y,z
1/2+x,-y,1/2+z
loop_
_atom_site_type_symbol
_atom_site_label
_atom_site_fract_x
_atom_site_fract_y
_atom_site_fract_z
Si Si1 0.343120 0.423717 0.095133
Si Si2 0.111385 0.022364 0.295249
Si Si3 0.386575 0.296800 0.575753
Si Si4 0.338779 0.683691 0.972248
O O1 0.250000 0.422201 0.250000
O O2 0.400542 0.471051 0.177380
O O3 0.337451 0.438883 0.859210
O O4 0.381532 0.367638 0.109428
O O5 0.000000 0.042915 0.348028
O O6 0.340038 0.000000 0.000000
O O7 0.500000 0.308971 0.504114
O O8 0.369589 0.317505 0.795891
O O9 0.378392 0.236877 0.600308
O O10 0.284824 0.313901 0.460639
#
# Coordination Sequence:
#
# PCOD9481024 Si02
#       4
#    16  16  16  16
#     4  11  25  44  75 107 149 199 251 320 387 467
#     4  10  25  50  77 110 152 196 257 327 393 475
#     4  10  22  42  68  99 148 196 247 319 384 455
#     4  10  24  43  67 106 147 195 260 312 387 469
#
# _framework density 26.800784
#
# number of rings (size 3 to 8) (size 9 to 14) (size 15 to 20)
#    0.000    1.750    0.000    2.250   10.500    8.000 
#    4.500    5.000    0.000    0.000    0.000    0.000 
#    0.000    0.000    0.000    0.000    0.000    0.000 
#
# Total GULP energy -178560.655426 kJ/mol
# GULP energy per Si atom -5580.020482 kJ/mol
# Density = 2.673978 g / cm^3
# Si number density = 26.800784 Si / 1000 Ang^3
#
#
#
# Elastic Constant Matrix: (Units=GPa)
#
#
# Indices 1 2 3 4 5 6 
#
# 1 167.4296 20.2860 34.2786 0.0000 0.0000 0.0000
# 2 20.2860 163.5523 40.9244 0.0000 0.0000 0.0000
# 3 34.2786 40.9244 130.3003 0.0000 0.0000 0.0000
# 4 0.0000 0.0000 0.0000 -8.9559 0.0000 0.0000
# 5 0.0000 0.0000 0.0000 0.0000 14.6639 0.0000
# 6 0.0000 0.0000 0.0000 0.0000 0.0000 -1.6744
#
#
#
# Elastic Compliance Matrix: (Units=1/GPa)
#
#
# Indices 1 2 3 4 5 6 
#
# 1 0.006337 -0.000400 -0.001541 0.000000 0.000000 0.000000
# 2 -0.000400 0.006661 -0.001987 0.000000 0.000000 0.000000
# 3 -0.001541 -0.001987 0.008704 0.000000 0.000000 0.000000
# 4 0.000000 0.000000 0.000000 -0.111658 0.000000 0.000000
# 5 0.000000 0.000000 0.000000 0.000000 0.068195 0.000000
# 6 0.000000 0.000000 0.000000 0.000000 0.000000 -0.597232
#
#
# Mechanical properties :
#
#
# Convention : Reuss Voigt Hill
#
# Bulk Modulus (GPa) = 72.22791 72.47337 72.35064
# Shear Modulus (GPa) = -8.24372 25.19293 8.47460
#
# Velocity S-wave (km/s) = -1.75573 3.06928 1.78015
# Velocity P-wave (km/s) = 4.78522 6.29769 5.59281
#
# Compressibility (1/GPa) = 0.01384506
#
# Stress axis : x y z
#
# Youngs Moduli (GPa) = 157.81041 150.12679 114.88894
#
# Poissons Ratio (x) = 0.06010 0.17708
# Poissons Ratio (y) = 0.06317 0.22826
# Poissons Ratio (z) = 0.24323 0.29827
#
# Static dielectric constant tensor:
#      x y z
#    x 2.150360 0.000000 0.000000 
#    y 0.000000 1.954080 0.000000 
#    z 0.000000 0.000000 2.205620 
# 
# From -- ./inp_files/5569.got.cif
#   From: 2010.05.17/outbox.cif.g08.bks.cpg/sg64_3_cif.got.tgz:5569.got - 2010.06.03 16:29:19.
