data_PCOD9481318
_publ_section_title
;
Structure prediction by ZEFSAII (Michael W. Deem and Ramdas Pophale) SiO2 
 PCOD9481318
Probable space group: C M C A
;
_chemical_formula_sum "Si O2"
_cell_formula_units_Z 80
_cell_length_a 17.633815
_cell_length_b 7.326910
_cell_length_c 27.421378
_cell_angle_alpha 90.000000
_cell_angle_beta 90.000000
_cell_angle_gamma 90.000000
_cell_volume 3542.879755
_symmetry_space_group_name_H-M "C M C A"
_symmetry_group_IT_number 64
_symmetry_cell_setting 'orthorhombic'
loop_
_space_group_symop_operation_xyz
x,y,z
-x,1/2-y,1/2+z
x,-y,-z
-x,1/2+y,1/2-z
-x,-y,-z
x,1/2+y,1/2-z
-x,y,z
x,1/2-y,1/2+z
1/2+x,1/2+y,z
1/2-x,-y,1/2+z
1/2+x,1/2-y,-z
1/2-x,y,1/2-z
1/2-x,1/2-y,-z
1/2+x,y,1/2-z
1/2-x,1/2+y,z
1/2+x,-y,1/2+z
loop_
_atom_site_type_symbol
_atom_site_label
_atom_site_fract_x
_atom_site_fract_y
_atom_site_fract_z
Si Si1 0.832810 0.105574 0.449331
Si Si2 0.911929 0.842808 0.385784
Si Si3 0.913953 0.227709 0.716359
Si Si4 0.172296 0.020359 0.913659
Si Si5 0.087516 0.357663 0.320312
O O1 0.900916 0.017627 0.419131
O O2 0.758070 0.048610 0.418612
O O3 0.827693 0.000000 0.500000
O O4 0.838347 0.323447 0.454627
O O5 0.879680 0.874096 0.330800
O O6 0.875363 0.666220 0.411630
O O7 0.000000 0.802904 0.379183
O O8 0.881715 0.235095 0.770862
O O9 0.917578 0.432176 0.696608
O O10 0.000000 0.155502 0.724040
O O11 0.144811 0.132156 0.865596
O O12 0.000000 0.296871 0.332309
#
# Coordination Sequence:
#
# PCOD9481318 Si02
#       5
#    16  16  16  16  16
#     4  12  26  44  70  92 125 177 226 269 335 392
#     4  10  23  43  67  99 134 164 212 275 323 384
#     4   8  16  32  56  89 126 163 199 249 319 384
#     4  11  23  42  68  92 126 172 220 263 323 396
#     4   9  18  34  61  92 124 165 211 256 316 386
#
# _framework density 22.580501000000002
#
# number of rings (size 3 to 8) (size 9 to 14) (size 15 to 20)
#    0.000    2.000    2.000    2.400    2.800    2.000 
#    0.000    2.000    0.000    0.000    0.000    0.000 
#    0.000    0.000    0.000    0.000    0.000    0.000 
#
# Total GULP energy -223044.621874 kJ/mol
# GULP energy per Si atom -5576.115547 kJ/mol
# Density = 2.252911 g / cm^3
# Si number density = 22.580501 Si / 1000 Ang^3
#
#
#
# Elastic Constant Matrix: (Units=GPa)
#
#
# Indices 1 2 3 4 5 6 
#
# 1 31.5098 2.4342 26.2489 0.0000 0.0000 0.0000
# 2 2.4342 76.9823 12.7791 0.0000 0.0000 0.0000
# 3 26.2489 12.7791 65.4693 0.0000 0.0000 0.0000
# 4 0.0000 0.0000 0.0000 43.0888 0.0000 0.0000
# 5 0.0000 0.0000 0.0000 0.0000 18.3683 0.0000
# 6 0.0000 0.0000 0.0000 0.0000 0.0000 23.1076
#
#
#
# Elastic Compliance Matrix: (Units=1/GPa)
#
#
# Indices 1 2 3 4 5 6 
#
# 1 0.047873 0.001728 -0.019531 0.000000 0.000000 0.000000
# 2 0.001728 0.013487 -0.003326 0.000000 0.000000 0.000000
# 3 -0.019531 -0.003326 0.023754 0.000000 0.000000 0.000000
# 4 0.000000 0.000000 0.000000 0.023208 0.000000 0.000000
# 5 0.000000 0.000000 0.000000 0.000000 0.054442 0.000000
# 6 0.000000 0.000000 0.000000 0.000000 0.000000 0.043276
#
#
# Mechanical properties :
#
#
# Convention : Reuss Voigt Hill
#
# Bulk Modulus (GPa) = 23.33303 28.54284 25.93794
# Shear Modulus (GPa) = 19.04160 25.74622 22.39391
#
# Velocity S-wave (km/s) = 2.90707 3.38034 3.15260
# Velocity P-wave (km/s) = 4.65014 5.28238 4.97631
#
# Compressibility (1/GPa) = 0.04285769
#
# Stress axis : x y z
#
# Youngs Moduli (GPa) = 20.88858 74.14328 42.09771
#
# Poissons Ratio (x) = -0.12815 0.82222
# Poissons Ratio (y) = -0.03610 0.14000
# Poissons Ratio (z) = 0.40798 0.24657
#
# Static dielectric constant tensor:
#      x y z
#    x 1.797780 0.000000 0.000000 
#    y 0.000000 1.893510 0.000000 
#    z 0.000000 0.000000 1.956430 
# 
# From -- ./inp_files/50298.got.cif
#   From: 2010.05.17/outbox.cif.g08.bks.cpg/sg64_26_cif.got.tgz:50298.got - 2010.06.03 16:29:19.
