data_PCOD9481689
_publ_section_title
;
Structure prediction by ZEFSAII (Michael W. Deem and Ramdas Pophale) SiO2 
 PCOD9481689
Probable space group: C M C A
;
_chemical_formula_sum "Si O2"
_cell_formula_units_Z 64
_cell_length_a 8.159222
_cell_length_b 21.026910
_cell_length_c 20.380044
_cell_angle_alpha 90.000000
_cell_angle_beta 90.000000
_cell_angle_gamma 90.000000
_cell_volume 3496.466108
_symmetry_space_group_name_H-M "C M C A"
_symmetry_group_IT_number 64
_symmetry_cell_setting 'orthorhombic'
loop_
_space_group_symop_operation_xyz
x,y,z
-x,1/2-y,1/2+z
x,-y,-z
-x,1/2+y,1/2-z
-x,-y,-z
x,1/2+y,1/2-z
-x,y,z
x,1/2-y,1/2+z
1/2+x,1/2+y,z
1/2-x,-y,1/2+z
1/2+x,1/2-y,-z
1/2-x,y,1/2-z
1/2-x,1/2-y,-z
1/2+x,y,1/2-z
1/2-x,1/2+y,z
1/2+x,-y,1/2+z
loop_
_atom_site_type_symbol
_atom_site_label
_atom_site_fract_x
_atom_site_fract_y
_atom_site_fract_z
Si Si1 0.699786 0.448812 0.591464
Si Si2 0.303770 0.772952 0.072073
Si Si3 0.199585 0.414153 0.057807
Si Si4 0.304744 0.832274 0.824178
O O1 0.500000 0.449524 0.593403
O O2 0.744227 0.423414 0.518826
O O3 0.754859 0.522149 0.595364
O O4 0.759538 0.398870 0.645296
O O5 0.500000 0.774005 0.072965
O O6 0.243316 0.845475 0.081984
O O7 0.245447 0.724359 0.127289
O O8 0.250000 0.750000 0.000000
O O9 0.000000 0.414013 0.059845
O O10 0.500000 0.835782 0.824995
O O11 0.250000 0.822299 0.750000
#
# Coordination Sequence:
#
# PCOD9481689 Si02
#       4
#    16  16  16  16
#     4   8  14  28  51  77 103 133 174 217 262 317
#     4  11  20  33  55  83 112 144 181 224 271 321
#     4   8  14  27  51  80 104 132 172 218 265 313
#     4  11  22  37  55  78 108 145 182 224 273 329
#
# _framework density 18.304196000000001
#
# number of rings (size 3 to 8) (size 9 to 14) (size 15 to 20)
#    0.000    2.500    2.500    3.000    0.000    0.000 
#    0.000    1.250    0.000   10.500    0.000    0.000 
#    0.000    0.000    0.000    0.000    0.000    0.000 
#
# Total GULP energy -178411.685848 kJ/mol
# GULP energy per Si atom -5575.365183 kJ/mol
# Density = 1.826253 g / cm^3
# Si number density = 18.304196 Si / 1000 Ang^3
#
#
#
# Elastic Constant Matrix: (Units=GPa)
#
#
# Indices 1 2 3 4 5 6 
#
# 1 24.5981 20.8661 16.3033 0.0000 0.0000 0.0000
# 2 20.8661 204.1012 101.6397 0.0000 0.0000 0.0000
# 3 16.3033 101.6397 131.6149 0.0000 0.0000 0.0000
# 4 0.0000 0.0000 0.0000 21.7266 0.0000 0.0000
# 5 0.0000 0.0000 0.0000 0.0000 21.1534 0.0000
# 6 0.0000 0.0000 0.0000 0.0000 0.0000 16.5825
#
#
#
# Elastic Compliance Matrix: (Units=1/GPa)
#
#
# Indices 1 2 3 4 5 6 
#
# 1 0.045386 -0.002990 -0.003313 0.000000 0.000000 0.000000
# 2 -0.002990 0.008158 -0.005930 0.000000 0.000000 0.000000
# 3 -0.003313 -0.005930 0.012588 0.000000 0.000000 0.000000
# 4 0.000000 0.000000 0.000000 0.046026 0.000000 0.000000
# 5 0.000000 0.000000 0.000000 0.000000 0.047274 0.000000
# 6 0.000000 0.000000 0.000000 0.000000 0.000000 0.060305
#
#
# Mechanical properties :
#
#
# Convention : Reuss Voigt Hill
#
# Bulk Modulus (GPa) = 24.00044 70.88138 47.44091
# Shear Modulus (GPa) = 19.37306 26.65951 23.01629
#
# Velocity S-wave (km/s) = 3.25683 3.82051 3.54988
# Velocity P-wave (km/s) = 5.22331 7.63348 6.54037
#
# Compressibility (1/GPa) = 0.04166590
#
# Stress axis : x y z
#
# Youngs Moduli (GPa) = 22.03336 122.57645 79.44369
#
# Poissons Ratio (x) = 0.36654 0.26318
# Poissons Ratio (y) = 0.06589 0.47108
# Poissons Ratio (z) = 0.07299 0.72685
#
# Static dielectric constant tensor:
#      x y z
#    x 1.660050 0.000000 0.000000 
#    y 0.000000 1.829130 0.000000 
#    z 0.000000 0.000000 1.577240 
# 
# From -- ./inp_files/20893.got.cif
#   From: 2010.05.17/outbox.cif.g08.bks.cpg/sg64_11_cif.got.tgz:20893.got - 2010.06.03 16:29:19.
