data_PCOD9481033
_publ_section_title
;
Structure prediction by ZEFSAII (Michael W. Deem and Ramdas Pophale) SiO2 
 PCOD9481033
Probable space group: C M C A
;
_chemical_formula_sum "Si O2"
_cell_formula_units_Z 56
_cell_length_a 10.459495
_cell_length_b 17.120627
_cell_length_c 15.277264
_cell_angle_alpha 90.000000
_cell_angle_beta 90.000000
_cell_angle_gamma 90.000000
_cell_volume 2735.747215
_symmetry_space_group_name_H-M "C M C A"
_symmetry_group_IT_number 64
_symmetry_cell_setting 'orthorhombic'
loop_
_space_group_symop_operation_xyz
x,y,z
-x,1/2-y,1/2+z
x,-y,-z
-x,1/2+y,1/2-z
-x,-y,-z
x,1/2+y,1/2-z
-x,y,z
x,1/2-y,1/2+z
1/2+x,1/2+y,z
1/2-x,-y,1/2+z
1/2+x,1/2-y,-z
1/2-x,y,1/2-z
1/2-x,1/2-y,-z
1/2+x,y,1/2-z
1/2-x,1/2+y,z
1/2+x,-y,1/2+z
loop_
_atom_site_type_symbol
_atom_site_label
_atom_site_fract_x
_atom_site_fract_y
_atom_site_fract_z
Si Si1 0.000000 0.070570 0.928435
Si Si2 0.740229 0.657009 0.000577
Si Si3 0.855761 0.652370 0.305188
Si Si4 0.500000 0.011516 0.242178
Si Si5 0.000000 0.423953 0.060098
O O1 0.125017 0.122716 0.943516
O O2 0.000000 0.035030 0.832388
O O3 0.000000 0.000000 0.000000
O O4 0.873109 0.623139 0.965696
O O5 0.750000 0.750000 0.000000
O O6 0.701454 0.634337 0.099914
O O7 0.750000 0.699343 0.250000
O O8 0.000000 0.687088 0.316028
O O9 0.884262 0.573824 0.249185
O O10 0.500000 0.955772 0.159244
O O11 0.000000 0.500000 0.000000
#
# Coordination Sequence:
#
# PCOD9481033 Si02
#       5
#     8  16  16   8   8
#     4  12  21  45  77  96 137 191 238 287 350 415
#     4  12  26  47  67 102 149 189 226 290 366 431
#     4  10  22  42  70  99 138 180 233 286 355 406
#     4  10  24  41  74 103 136 167 250 295 342 396
#     4  12  27  42  75 107 137 180 245 294 342 418
#
# _framework density 20.469728
#
# number of rings (size 3 to 8) (size 9 to 14) (size 15 to 20)
#    0.857    0.000    4.286    3.429    6.000    0.000 
#    5.143    0.000    0.000    0.000    0.000    0.000 
#    0.000    0.000    0.000    0.000    0.000    0.000 
#
# Total GULP energy -156253.758800 kJ/mol
# GULP energy per Si atom -5580.491386 kJ/mol
# Density = 2.042314 g / cm^3
# Si number density = 20.469728 Si / 1000 Ang^3
#
#
#
# Elastic Constant Matrix: (Units=GPa)
#
#
# Indices 1 2 3 4 5 6 
#
# 1 197.7704 59.2427 48.4714 0.0000 0.0000 0.0000
# 2 59.2427 119.9622 20.6129 0.0000 0.0000 0.0000
# 3 48.4714 20.6129 124.0264 0.0000 0.0000 0.0000
# 4 0.0000 0.0000 0.0000 5.1131 0.0000 0.0000
# 5 0.0000 0.0000 0.0000 0.0000 -129.2775 0.0000
# 6 0.0000 0.0000 0.0000 0.0000 0.0000 84.3019
#
#
#
# Elastic Compliance Matrix: (Units=1/GPa)
#
#
# Indices 1 2 3 4 5 6 
#
# 1 0.006396 -0.002809 -0.002033 0.000000 0.000000 0.000000
# 2 -0.002809 0.009815 -0.000533 0.000000 0.000000 0.000000
# 3 -0.002033 -0.000533 0.008946 0.000000 0.000000 0.000000
# 4 0.000000 0.000000 0.000000 0.195575 0.000000 0.000000
# 5 0.000000 0.000000 0.000000 0.000000 -0.007735 0.000000
# 6 0.000000 0.000000 0.000000 0.000000 0.000000 0.011862
#
#
# Mechanical properties :
#
#
# Convention : Reuss Voigt Hill
#
# Bulk Modulus (GPa) = 69.41516 77.60145 73.50830
# Shear Modulus (GPa) = 20.79768 12.92297 16.86032
#
# Velocity S-wave (km/s) = 3.19097 2.51534 2.87308
# Velocity P-wave (km/s) = 6.89646 6.81385 6.85528
#
# Compressibility (1/GPa) = 0.01440607
#
# Stress axis : x y z
#
# Youngs Moduli (GPa) = 156.34398 101.88485 111.78335
#
# Poissons Ratio (x) = 0.28624 0.22723
# Poissons Ratio (y) = 0.43923 0.05961
# Poissons Ratio (z) = 0.31782 0.05433
#
# Static dielectric constant tensor:
#      x y z
#    x 1.763450 0.000000 0.000000 
#    y 0.000000 1.844890 0.000000 
#    z 0.000000 0.000000 1.730040 
# 
# From -- ./inp_files/21764.got.cif
#   From: 2010.05.17/outbox.cif.g08.bks.cpg/sg64_11_cif.got.tgz:21764.got - 2010.06.03 16:29:19.
