data_PCOD9481649
_publ_section_title
;
Structure prediction by ZEFSAII (Michael W. Deem and Ramdas Pophale) SiO2 
 PCOD9481649
Probable space group: C M C A
;
_chemical_formula_sum "Si O2"
_cell_formula_units_Z 72
_cell_length_a 15.426129
_cell_length_b 12.451360
_cell_length_c 15.481455
_cell_angle_alpha 90.000000
_cell_angle_beta 90.000000
_cell_angle_gamma 90.000000
_cell_volume 2973.620372
_symmetry_space_group_name_H-M "C M C A"
_symmetry_group_IT_number 64
_symmetry_cell_setting 'orthorhombic'
loop_
_space_group_symop_operation_xyz
x,y,z
-x,1/2-y,1/2+z
x,-y,-z
-x,1/2+y,1/2-z
-x,-y,-z
x,1/2+y,1/2-z
-x,y,z
x,1/2-y,1/2+z
1/2+x,1/2+y,z
1/2-x,-y,1/2+z
1/2+x,1/2-y,-z
1/2-x,y,1/2-z
1/2-x,1/2-y,-z
1/2+x,y,1/2-z
1/2-x,1/2+y,z
1/2+x,-y,1/2+z
loop_
_atom_site_type_symbol
_atom_site_label
_atom_site_fract_x
_atom_site_fract_y
_atom_site_fract_z
Si Si1 0.368953 0.368499 0.608521
Si Si2 0.690376 0.348349 0.166898
Si Si3 0.169898 0.441131 0.591020
Si Si4 0.633234 0.697923 0.584318
Si Si5 0.500000 0.450271 0.333512
O O1 0.371077 0.252924 0.654218
O O2 0.270188 0.411486 0.608639
O O3 0.395321 0.349552 0.508436
O O4 0.426106 0.456119 0.654005
O O5 0.750000 0.338105 0.250000
O O6 0.646343 0.464345 0.158232
O O7 0.764719 0.332649 0.092333
O O8 0.157401 0.500000 0.500000
O O9 0.123784 0.326209 0.590216
O O10 0.576101 0.641979 0.656632
#
# Coordination Sequence:
#
# PCOD9481649 Si02
#       5
#    16  16  16  16   8
#     4  11  20  37  67  93 123 164 212 267 314 374
#     4  11  23  39  64  95 124 164 218 264 318 378
#     4  11  18  37  64  91 123 161 210 267 309 362
#     4  11  21  37  65  94 124 164 214 262 316 375
#     4  12  23  40  65  99 126 168 214 260 319 385
#
# _framework density 24.212907000000001
#
# number of rings (size 3 to 8) (size 9 to 14) (size 15 to 20)
#    0.000    0.889    6.667    3.333    0.000    3.556 
#    0.000    2.778    0.000    0.000    0.000    0.000 
#    0.000    0.000    0.000    0.000    0.000    0.000 
#
# Total GULP energy -200505.987512 kJ/mol
# GULP energy per Si atom -5569.610764 kJ/mol
# Density = 2.415780 g / cm^3
# Si number density = 24.212907 Si / 1000 Ang^3
#
#
#
# Elastic Constant Matrix: (Units=GPa)
#
#
# Indices 1 2 3 4 5 6 
#
# 1 55.8239 43.3980 -14.1093 0.0000 0.0000 0.0000
# 2 43.3980 203.7292 7.4832 0.0000 0.0000 0.0000
# 3 -14.1093 7.4832 65.2889 0.0000 0.0000 0.0000
# 4 0.0000 0.0000 0.0000 10.5633 0.0000 0.0000
# 5 0.0000 0.0000 0.0000 0.0000 -26.1029 0.0000
# 6 0.0000 0.0000 0.0000 0.0000 0.0000 -7.6444
#
#
#
# Elastic Compliance Matrix: (Units=1/GPa)
#
#
# Indices 1 2 3 4 5 6 
#
# 1 0.023372 -0.005186 0.005645 0.000000 0.000000 0.000000
# 2 -0.005186 0.006080 -0.001818 0.000000 0.000000 0.000000
# 3 0.005645 -0.001818 0.016745 0.000000 0.000000 0.000000
# 4 0.000000 0.000000 0.000000 0.094668 0.000000 0.000000
# 5 0.000000 0.000000 0.000000 0.000000 -0.038310 0.000000
# 6 0.000000 0.000000 0.000000 0.000000 0.000000 -0.130814
#
#
# Mechanical properties :
#
#
# Convention : Reuss Voigt Hill
#
# Bulk Modulus (GPa) = 22.99910 44.26509 33.63210
# Shear Modulus (GPa) = -452.50611 14.56784 -218.96914
#
# Velocity S-wave (km/s) = -13.68547 2.45553 -9.52004
# Velocity P-wave (km/s) = 15.49850 5.13428 10.34028
#
# Compressibility (1/GPa) = 0.04347996
#
# Stress axis : x y z
#
# Youngs Moduli (GPa) = 42.78633 164.47492 59.71990
#
# Poissons Ratio (x) = 0.85297 -0.33713
# Poissons Ratio (y) = 0.22189 0.10855
# Poissons Ratio (z) = -0.24154 0.29895
#
# Static dielectric constant tensor:
#      x y z
#    x 1.914680 0.000000 0.000000 
#    y 0.000000 1.914270 0.000000 
#    z 0.000000 0.000000 2.125220 
# 
# From -- ./inp_files/32861.got.cif
#   From: 2010.05.17/outbox.cif.g08.bks.cpg/sg64_17_cif.got.tgz:32861.got - 2010.06.03 16:29:19.
