data_PCOD9481618
_publ_section_title
;
Structure prediction by ZEFSAII (Michael W. Deem and Ramdas Pophale) SiO2 
 PCOD9481618
Probable space group: C M C A
;
_chemical_formula_sum "Si O2"
_cell_formula_units_Z 64
_cell_length_a 9.279275
_cell_length_b 16.960152
_cell_length_c 21.767754
_cell_angle_alpha 90.000000
_cell_angle_beta 90.000000
_cell_angle_gamma 90.000000
_cell_volume 3425.763727
_symmetry_space_group_name_H-M "C M C A"
_symmetry_group_IT_number 64
_symmetry_cell_setting 'orthorhombic'
loop_
_space_group_symop_operation_xyz
x,y,z
-x,1/2-y,1/2+z
x,-y,-z
-x,1/2+y,1/2-z
-x,-y,-z
x,1/2+y,1/2-z
-x,y,z
x,1/2-y,1/2+z
1/2+x,1/2+y,z
1/2-x,-y,1/2+z
1/2+x,1/2-y,-z
1/2-x,y,1/2-z
1/2-x,1/2-y,-z
1/2+x,y,1/2-z
1/2-x,1/2+y,z
1/2+x,-y,1/2+z
loop_
_atom_site_type_symbol
_atom_site_label
_atom_site_fract_x
_atom_site_fract_y
_atom_site_fract_z
Si Si1 0.000000 0.088667 0.177082
Si Si2 0.750000 0.835517 0.750000
Si Si3 0.000000 0.256877 0.833181
Si Si4 0.500000 0.800785 0.977876
Si Si5 0.500000 0.855485 0.556144
Si Si6 0.500000 0.416818 0.115070
Si Si7 0.750325 0.583743 0.986959
O O1 0.142880 0.106817 0.214214
O O2 0.000000 0.160315 0.127105
O O3 0.000000 0.000322 0.150195
O O4 0.857249 0.785245 0.704868
O O5 0.000000 0.162281 0.843654
O O6 0.000000 0.292955 0.903453
O O7 0.500000 0.715408 0.008837
O O8 0.362230 0.846307 0.004902
O O9 0.361370 0.907243 0.542656
O O10 0.644731 0.413080 0.072107
O O11 0.823227 0.500000 0.000000
#
# Coordination Sequence:
#
# PCOD9481618 Si02
#       7
#     8   8   8   8   8   8  16
#     4  11  22  44  65  88 123 168 213 257 311 373
#     4  10  26  44  66  86 118 170 220 262 302 352
#     4  11  24  44  64  92 123 163 213 262 300 372
#     4  12  24  35  65  99 132 156 201 259 317 378
#     4  11  20  37  66  89 125 164 195 244 322 382
#     4  11  23  39  66  88 127 165 201 251 312 376
#     4  11  21  38  56  99 128 161 190 241 321 381
#
# _framework density 18.681965000000002
#
# number of rings (size 3 to 8) (size 9 to 14) (size 15 to 20)
#    0.000    1.000    5.000    3.375    3.500    1.000 
#    0.000    0.000    0.000    0.000    0.000    0.000 
#    0.000    0.000    0.000    0.000    0.000    0.000 
#
# Total GULP energy -178252.460049 kJ/mol
# GULP energy per Si atom -5570.389377 kJ/mol
# Density = 1.863944 g / cm^3
# Si number density = 18.681965 Si / 1000 Ang^3
#
#
#
# Elastic Constant Matrix: (Units=GPa)
#
#
# Indices 1 2 3 4 5 6 
#
# 1 127.8181 53.0450 66.7309 0.0000 0.0000 0.0000
# 2 53.0450 142.4275 63.1467 0.0000 0.0000 0.0000
# 3 66.7309 63.1467 120.5984 0.0000 0.0000 0.0000
# 4 0.0000 0.0000 0.0000 33.7884 0.0000 0.0000
# 5 0.0000 0.0000 0.0000 0.0000 35.6684 0.0000
# 6 0.0000 0.0000 0.0000 0.0000 0.0000 22.3385
#
#
#
# Elastic Compliance Matrix: (Units=1/GPa)
#
#
# Indices 1 2 3 4 5 6 
#
# 1 0.011377 -0.001883 -0.005309 0.000000 0.000000 0.000000
# 2 -0.001883 0.009456 -0.003909 0.000000 0.000000 0.000000
# 3 -0.005309 -0.003909 0.013276 0.000000 0.000000 0.000000
# 4 0.000000 0.000000 0.000000 0.029596 0.000000 0.000000
# 5 0.000000 0.000000 0.000000 0.000000 0.028036 0.000000
# 6 0.000000 0.000000 0.000000 0.000000 0.000000 0.044766
#
#
# Mechanical properties :
#
#
# Convention : Reuss Voigt Hill
#
# Bulk Modulus (GPa) = 83.98954 84.07658 84.03306
# Shear Modulus (GPa) = 30.73552 32.22050 31.47801
#
# Velocity S-wave (km/s) = 4.06050 4.15744 4.10926
# Velocity P-wave (km/s) = 8.18772 8.25515 8.22151
#
# Compressibility (1/GPa) = 0.01190624
#
# Stress axis : x y z
#
# Youngs Moduli (GPa) = 87.89694 105.75722 75.32139
#
# Poissons Ratio (x) = 0.19918 0.39989
# Poissons Ratio (y) = 0.16554 0.29443
# Poissons Ratio (z) = 0.46665 0.41340
#
# Static dielectric constant tensor:
#      x y z
#    x 1.678300 0.000000 0.000000 
#    y 0.000000 1.638950 0.000000 
#    z 0.000000 0.000000 1.678490 
# 
# From -- ./inp_files/36360.got.cif
#   From: 2010.05.17/outbox.cif.g08.bks.cpg/sg64_19_cif.got.tgz:36360.got - 2010.06.03 16:29:19.
