data_PCOD9481420
_publ_section_title
;
Structure prediction by ZEFSAII (Michael W. Deem and Ramdas Pophale) SiO2 
 PCOD9481420
Probable space group: C M C A
;
_chemical_formula_sum "Si O2"
_cell_formula_units_Z 56
_cell_length_a 25.669578
_cell_length_b 16.748724
_cell_length_c 4.863504
_cell_angle_alpha 90.000000
_cell_angle_beta 90.000000
_cell_angle_gamma 90.000000
_cell_volume 2090.979295
_symmetry_space_group_name_H-M "C M C A"
_symmetry_group_IT_number 64
_symmetry_cell_setting 'orthorhombic'
loop_
_space_group_symop_operation_xyz
x,y,z
-x,1/2-y,1/2+z
x,-y,-z
-x,1/2+y,1/2-z
-x,-y,-z
x,1/2+y,1/2-z
-x,y,z
x,1/2-y,1/2+z
1/2+x,1/2+y,z
1/2-x,-y,1/2+z
1/2+x,1/2-y,-z
1/2-x,y,1/2-z
1/2-x,1/2-y,-z
1/2+x,y,1/2-z
1/2-x,1/2+y,z
1/2+x,-y,1/2+z
loop_
_atom_site_type_symbol
_atom_site_label
_atom_site_fract_x
_atom_site_fract_y
_atom_site_fract_z
Si Si1 0.500000 0.688601 0.099942
Si Si2 0.250000 0.375835 0.750000
Si Si3 0.915973 0.925970 0.644036
Si Si4 0.658462 0.699399 0.608948
Si Si5 0.325672 0.000000 0.500000
O O1 0.500000 0.763487 0.314349
O O2 0.451669 0.628437 0.158378
O O3 0.288532 0.331140 0.537898
O O4 0.284990 0.428436 0.956620
O O5 0.887915 0.861147 0.451776
O O6 0.945087 0.000000 0.500000
O O7 0.867431 0.973667 0.774375
O O8 0.653425 0.779964 0.428447
#
# Coordination Sequence:
#
# PCOD9481420 Si02
#       5
#     8   8  16  16   8
#     4  12  29  53  84 116 154 200 252 322 399 476
#     4  10  24  40  70 100 150 202 258 308 376 434
#     4  11  27  47  78 110 153 201 258 320 390 463
#     4  11  25  44  69 103 148 197 251 309 371 441
#     4  10  26  43  70 110 152 201 260 322 372 454
#
# _framework density 26.78171
#
# number of rings (size 3 to 8) (size 9 to 14) (size 15 to 20)
#    0.000    1.143    0.000    3.000   20.000    0.571 
#    0.000    0.000    0.000    0.000    0.000    0.000 
#    0.000    0.000    0.000    0.000    0.000    0.000 
#
# Total GULP energy -156430.543386 kJ/mol
# GULP energy per Si atom -5586.805121 kJ/mol
# Density = 2.672075 g / cm^3
# Si number density = 26.781710 Si / 1000 Ang^3
#
#
#
# Elastic Constant Matrix: (Units=GPa)
#
#
# Indices 1 2 3 4 5 6 
#
# 1 147.4372 46.3697 21.1073 0.0000 0.0000 0.0000
# 2 46.3697 118.2433 38.0103 0.0000 0.0000 0.0000
# 3 21.1073 38.0103 83.5971 0.0000 0.0000 0.0000
# 4 0.0000 0.0000 0.0000 26.4500 0.0000 0.0000
# 5 0.0000 0.0000 0.0000 0.0000 12.6630 0.0000
# 6 0.0000 0.0000 0.0000 0.0000 0.0000 127.5283
#
#
#
# Elastic Compliance Matrix: (Units=1/GPa)
#
#
# Indices 1 2 3 4 5 6 
#
# 1 0.007769 -0.002830 -0.000675 0.000000 0.000000 0.000000
# 2 -0.002830 0.010936 -0.004258 0.000000 0.000000 0.000000
# 3 -0.000675 -0.004258 0.014068 0.000000 0.000000 0.000000
# 4 0.000000 0.000000 0.000000 0.037807 0.000000 0.000000
# 5 0.000000 0.000000 0.000000 0.000000 0.078970 0.000000
# 6 0.000000 0.000000 0.000000 0.000000 0.000000 0.007841
#
#
# Mechanical properties :
#
#
# Convention : Reuss Voigt Hill
#
# Bulk Modulus (GPa) = 57.97689 62.25023 60.11356
# Shear Modulus (GPa) = 27.98512 49.58094 38.78303
#
# Velocity S-wave (km/s) = 3.23605 4.30734 3.80954
# Velocity P-wave (km/s) = 5.97140 6.93048 6.46874
#
# Compressibility (1/GPa) = 0.01724825
#
# Stress axis : x y z
#
# Youngs Moduli (GPa) = 128.71433 91.44526 71.08088
#
# Poissons Ratio (x) = 0.25876 0.04798
# Poissons Ratio (y) = 0.36423 0.30264
# Poissons Ratio (z) = 0.08688 0.38935
#
# Static dielectric constant tensor:
#      x y z
#    x 2.132300 0.000000 0.000000 
#    y 0.000000 2.987930 0.000000 
#    z 0.000000 0.000000 2.137610 
# 
# From -- ./inp_files/3105.got.cif
#   From: 2010.05.17/outbox.cif.g08.bks.cpg/sg64_2_cif.got.tgz:3105.got - 2010.06.03 16:29:19.
