data_PCOD9481848
_publ_section_title
;
Structure prediction by ZEFSAII (Michael W. Deem and Ramdas Pophale) SiO2 
 PCOD9481848
Probable space group: C M C A
;
_chemical_formula_sum "Si O2"
_cell_formula_units_Z 96
_cell_length_a 29.397728
_cell_length_b 9.812878
_cell_length_c 16.109333
_cell_angle_alpha 90.000000
_cell_angle_beta 90.000000
_cell_angle_gamma 90.000000
_cell_volume 4647.161075
_symmetry_space_group_name_H-M "C M C A"
_symmetry_group_IT_number 64
_symmetry_cell_setting 'orthorhombic'
loop_
_space_group_symop_operation_xyz
x,y,z
-x,1/2-y,1/2+z
x,-y,-z
-x,1/2+y,1/2-z
-x,-y,-z
x,1/2+y,1/2-z
-x,y,z
x,1/2-y,1/2+z
1/2+x,1/2+y,z
1/2-x,-y,1/2+z
1/2+x,1/2-y,-z
1/2-x,y,1/2-z
1/2-x,1/2-y,-z
1/2+x,y,1/2-z
1/2-x,1/2+y,z
1/2+x,-y,1/2+z
loop_
_atom_site_type_symbol
_atom_site_label
_atom_site_fract_x
_atom_site_fract_y
_atom_site_fract_z
Si Si1 0.353908 0.953916 0.319192
Si Si2 0.950113 0.848538 0.198028
Si Si3 0.950104 0.459107 0.854119
Si Si4 0.310003 0.201666 0.416563
Si Si5 0.707409 0.260084 0.602336
Si Si6 0.146936 0.486779 0.122407
O O1 0.405136 0.910126 0.343776
O O2 0.321237 0.824343 0.331226
O O3 0.353566 0.994339 0.222744
O O4 0.334664 0.075292 0.374529
O O5 0.946806 0.684700 0.195704
O O6 0.000000 0.884049 0.161791
O O7 0.949759 0.914568 0.289701
O O8 0.903719 0.470484 0.905052
O O9 0.000000 0.458063 0.895515
O O10 0.299392 0.184330 0.514168
O O11 0.260305 0.227335 0.376985
O O12 0.340378 0.335326 0.403898
O O13 0.684993 0.408158 0.592510
#
# Coordination Sequence:
#
# PCOD9481848 Si02
#       6
#    16  16  16  16  16  16
#     4  11  22  37  61  91 115 148 194 249 291 331
#     4   9  18  33  56  86 119 152 188 236 292 347
#     4   9  18  33  56  86 119 152 188 236 292 347
#     4  11  25  39  60  81 118 160 199 229 292 363
#     4  11  23  43  58  81 116 162 195 235 290 359
#     4  11  22  37  61  91 115 148 194 249 291 331
#
# _framework density 20.657774
#
# number of rings (size 3 to 8) (size 9 to 14) (size 15 to 20)
#    0.000    1.667    1.667    3.000    7.000    6.667 
#    0.000    0.000    0.000    6.000    0.000    0.000 
#    0.000    0.000    0.000    0.000    0.000    0.000 
#
# Total GULP energy -268016.720408 kJ/mol
# GULP energy per Si atom -5583.681675 kJ/mol
# Density = 2.061076 g / cm^3
# Si number density = 20.657774 Si / 1000 Ang^3
#
#
#
# Elastic Constant Matrix: (Units=GPa)
#
#
# Indices 1 2 3 4 5 6 
#
# 1 132.0583 11.9648 17.5988 0.0000 0.0000 0.0000
# 2 11.9648 79.6195 14.6594 0.0000 0.0000 0.0000
# 3 17.5988 14.6594 40.4066 0.0000 0.0000 0.0000
# 4 0.0000 0.0000 0.0000 28.4203 0.0000 0.0000
# 5 0.0000 0.0000 0.0000 0.0000 178.6587 0.0000
# 6 0.0000 0.0000 0.0000 0.0000 0.0000 29.8093
#
#
#
# Elastic Compliance Matrix: (Units=1/GPa)
#
#
# Indices 1 2 3 4 5 6 
#
# 1 0.008066 -0.000606 -0.003293 0.000000 0.000000 0.000000
# 2 -0.000606 0.013504 -0.004635 0.000000 0.000000 0.000000
# 3 -0.003293 -0.004635 0.027865 0.000000 0.000000 0.000000
# 4 0.000000 0.000000 0.000000 0.035186 0.000000 0.000000
# 5 0.000000 0.000000 0.000000 0.000000 0.005597 0.000000
# 6 0.000000 0.000000 0.000000 0.000000 0.000000 0.033547
#
#
# Mechanical properties :
#
#
# Convention : Reuss Voigt Hill
#
# Bulk Modulus (GPa) = 30.89688 37.83672 34.36680
# Shear Modulus (GPa) = 32.97655 61.23508 47.10582
#
# Velocity S-wave (km/s) = 3.99974 5.45041 4.78042
# Velocity P-wave (km/s) = 6.02657 7.61348 6.86603
#
# Compressibility (1/GPa) = 0.03236573
#
# Stress axis : x y z
#
# Youngs Moduli (GPa) = 123.97422 74.05074 35.88785
#
# Poissons Ratio (x) = 0.04486 0.11819
# Poissons Ratio (y) = 0.07510 0.16636
# Poissons Ratio (z) = 0.40830 0.34326
#
# Static dielectric constant tensor:
#      x y z
#    x 1.774630 0.000000 0.000000 
#    y 0.000000 1.703170 0.000000 
#    z 0.000000 0.000000 1.751550 
# 
# From -- ./inp_files/41781.got.cif
#   From: 2010.05.17/outbox.cif.g08.bks.cpg/sg64_21_cif.got.tgz:41781.got - 2010.06.03 16:29:19.
