data_PCOD9481245
_publ_section_title
;
Structure prediction by ZEFSAII (Michael W. Deem and Ramdas Pophale) SiO2 
 PCOD9481245
Probable space group: C M C A
;
_chemical_formula_sum "Si O2"
_cell_formula_units_Z 112
_cell_length_a 14.741264
_cell_length_b 32.926918
_cell_length_c 11.293420
_cell_angle_alpha 90.000000
_cell_angle_beta 90.000000
_cell_angle_gamma 90.000000
_cell_volume 5481.649788
_symmetry_space_group_name_H-M "C M C A"
_symmetry_group_IT_number 64
_symmetry_cell_setting 'orthorhombic'
loop_
_space_group_symop_operation_xyz
x,y,z
-x,1/2-y,1/2+z
x,-y,-z
-x,1/2+y,1/2-z
-x,-y,-z
x,1/2+y,1/2-z
-x,y,z
x,1/2-y,1/2+z
1/2+x,1/2+y,z
1/2-x,-y,1/2+z
1/2+x,1/2-y,-z
1/2-x,y,1/2-z
1/2-x,1/2-y,-z
1/2+x,y,1/2-z
1/2-x,1/2+y,z
1/2+x,-y,1/2+z
loop_
_atom_site_type_symbol
_atom_site_label
_atom_site_fract_x
_atom_site_fract_y
_atom_site_fract_z
Si Si1 0.107465 0.671252 0.100954
Si Si2 0.395227 0.411804 0.707198
Si Si3 0.892038 0.656445 0.622572
Si Si4 0.609955 0.119619 0.873506
Si Si5 0.103978 0.423428 0.517073
Si Si6 0.795886 0.453366 0.004532
Si Si7 0.698955 0.756782 0.375766
O O1 0.125937 0.636109 0.196793
O O2 0.143516 0.714951 0.134571
O O3 0.000000 0.675204 0.088887
O O4 0.139529 0.651515 0.976076
O O5 0.500000 0.416882 0.662248
O O6 0.394118 0.425862 0.841392
O O7 0.325676 0.434538 0.621980
O O8 0.861982 0.636713 0.746796
O O9 0.874243 0.622771 0.522492
O O10 0.852647 0.700859 0.606518
O O11 0.000000 0.660981 0.629311
O O12 0.500000 0.116458 0.876636
O O13 0.652822 0.076056 0.903336
O O14 0.188095 0.449890 0.472083
O O15 0.000000 0.432731 0.476658
O O16 0.824086 0.500000 0.000000
O O17 0.750000 0.760913 0.250000
O O18 0.750000 0.750000 0.500000
#
# Coordination Sequence:
#
# PCOD9481245 Si02
#       7
#    16  16  16  16  16  16  16
#     4   9  19  38  62  88 121 164 205 256 312 367
#     4   9  20  40  66  92 122 161 207 261 317 373
#     4  10  23  44  64  86 125 177 214 259 327 391
#     4   9  20  41  67  94 128 169 214 266 327 385
#     4  10  23  42  63  87 124 168 209 253 312 387
#     4  11  23  39  67  98 125 162 208 265 326 389
#     4  12  27  38  59  98 131 166 219 276 322 380
#
# _framework density 20.431805000000001
#
# number of rings (size 3 to 8) (size 9 to 14) (size 15 to 20)
#    0.000    2.000    0.000    3.000    8.000    1.429 
#    5.143    1.429    0.000    0.000    0.000    0.000 
#    0.000    0.000    0.000    0.000    0.000    0.000 
#
# Total GULP energy -312588.102340 kJ/mol
# GULP energy per Si atom -5581.930399 kJ/mol
# Density = 2.038530 g / cm^3
# Si number density = 20.431805 Si / 1000 Ang^3
#
#
#
# Elastic Constant Matrix: (Units=GPa)
#
#
# Indices 1 2 3 4 5 6 
#
# 1 61.9343 27.1545 9.1585 0.0000 0.0000 0.0000
# 2 27.1545 121.6546 6.8430 0.0000 0.0000 0.0000
# 3 9.1585 6.8430 52.4609 0.0000 0.0000 0.0000
# 4 0.0000 0.0000 0.0000 11.1059 0.0000 0.0000
# 5 0.0000 0.0000 0.0000 0.0000 19.9974 0.0000
# 6 0.0000 0.0000 0.0000 0.0000 0.0000 52.0246
#
#
#
# Elastic Compliance Matrix: (Units=1/GPa)
#
#
# Indices 1 2 3 4 5 6 
#
# 1 0.018263 -0.003926 -0.002676 0.000000 0.000000 0.000000
# 2 -0.003926 0.009125 -0.000505 0.000000 0.000000 0.000000
# 3 -0.002676 -0.000505 0.019595 0.000000 0.000000 0.000000
# 4 0.000000 0.000000 0.000000 0.090042 0.000000 0.000000
# 5 0.000000 0.000000 0.000000 0.000000 0.050007 0.000000
# 6 0.000000 0.000000 0.000000 0.000000 0.000000 0.019222
#
#
# Mechanical properties :
#
#
# Convention : Reuss Voigt Hill
#
# Bulk Modulus (GPa) = 30.51699 35.81800 33.16750
# Shear Modulus (GPa) = 21.60853 29.48517 25.54685
#
# Velocity S-wave (km/s) = 3.25559 3.80294 3.53986
# Velocity P-wave (km/s) = 5.39447 6.07056 5.74247
#
# Compressibility (1/GPa) = 0.03276863
#
# Stress axis : x y z
#
# Youngs Moduli (GPa) = 54.75485 109.59254 51.03378
#
# Poissons Ratio (x) = 0.43026 0.13658
# Poissons Ratio (y) = 0.21497 0.02576
# Poissons Ratio (z) = 0.14654 0.05533
#
# Static dielectric constant tensor:
#      x y z
#    x 1.781770 0.000000 0.000000 
#    y 0.000000 1.696410 0.000000 
#    z 0.000000 0.000000 1.681260 
# 
# From -- ./inp_files/14954.got.cif
#   From: 2010.05.17/outbox.cif.g08.bks.cpg/sg64_8_cif.got.tgz:14954.got - 2010.06.03 16:29:19.
