data_PCOD9481394
_publ_section_title
;
Structure prediction by ZEFSAII (Michael W. Deem and Ramdas Pophale) SiO2 
 PCOD9481394
Probable space group: C M C A
;
_chemical_formula_sum "Si O2"
_cell_formula_units_Z 88
_cell_length_a 27.873807
_cell_length_b 8.816900
_cell_length_c 15.294491
_cell_angle_alpha 90.000000
_cell_angle_beta 90.000000
_cell_angle_gamma 90.000000
_cell_volume 3758.782810
_symmetry_space_group_name_H-M "C M C A"
_symmetry_group_IT_number 64
_symmetry_cell_setting 'orthorhombic'
loop_
_space_group_symop_operation_xyz
x,y,z
-x,1/2-y,1/2+z
x,-y,-z
-x,1/2+y,1/2-z
-x,-y,-z
x,1/2+y,1/2-z
-x,y,z
x,1/2-y,1/2+z
1/2+x,1/2+y,z
1/2-x,-y,1/2+z
1/2+x,1/2-y,-z
1/2-x,y,1/2-z
1/2-x,1/2-y,-z
1/2+x,y,1/2-z
1/2-x,1/2+y,z
1/2+x,-y,1/2+z
loop_
_atom_site_type_symbol
_atom_site_label
_atom_site_fract_x
_atom_site_fract_y
_atom_site_fract_z
Si Si1 0.408780 0.548989 0.777414
Si Si2 0.696793 0.319943 0.497291
Si Si3 0.393369 0.668105 0.958965
Si Si4 0.750000 0.565177 0.250000
Si Si5 0.944357 0.751105 0.367207
Si Si6 0.685809 0.329390 0.308659
O O1 0.419405 0.644283 0.865956
O O2 0.438288 0.598200 0.691606
O O3 0.417082 0.377524 0.809268
O O4 0.354724 0.590000 0.747245
O O5 0.750000 0.250000 0.500000
O O6 0.657751 0.248137 0.561949
O O7 0.730198 0.552202 0.678884
O O8 0.671591 0.282410 0.405047
O O9 0.384505 0.500000 0.000000
O O10 0.423983 0.753957 0.033766
O O11 0.707170 0.678541 0.231644
O O12 0.000000 0.708030 0.372102
O O13 0.698536 0.500000 0.500000
#
# Coordination Sequence:
#
# PCOD9481394 Si02
#       6
#    16  16  16   8  16  16
#     4  11  24  42  70  97 135 174 224 282 349 406
#     4  12  26  41  65  96 138 182 231 279 336 405
#     4  10  25  44  66  97 137 177 223 281 342 411
#     4  10  24  36  62  92 124 182 220 266 320 398
#     4  11  24  46  72 101 132 174 225 283 353 424
#     4  11  23  41  63  92 135 174 228 274 332 396
#
# _framework density 23.411833999999999
#
# number of rings (size 3 to 8) (size 9 to 14) (size 15 to 20)
#    0.000    1.091    1.818    3.273   12.727    4.000 
#    0.000    0.000    0.000    2.727    0.000    0.000 
#    0.000    0.000    0.000    0.000    0.000    0.000 
#
# Total GULP energy -245699.582232 kJ/mol
# GULP energy per Si atom -5584.081414 kJ/mol
# Density = 2.335855 g / cm^3
# Si number density = 23.411834 Si / 1000 Ang^3
#
#
#
# Elastic Constant Matrix: (Units=GPa)
#
#
# Indices 1 2 3 4 5 6 
#
# 1 91.7488 16.3397 14.2489 0.0000 0.0000 0.0000
# 2 16.3397 55.1225 1.1844 0.0000 0.0000 0.0000
# 3 14.2489 1.1844 89.6524 0.0000 0.0000 0.0000
# 4 0.0000 0.0000 0.0000 26.2387 0.0000 0.0000
# 5 0.0000 0.0000 0.0000 0.0000 25.6354 0.0000
# 6 0.0000 0.0000 0.0000 0.0000 0.0000 21.4479
#
#
#
# Elastic Compliance Matrix: (Units=1/GPa)
#
#
# Indices 1 2 3 4 5 6 
#
# 1 0.011799 -0.003458 -0.001830 0.000000 0.000000 0.000000
# 2 -0.003458 0.019160 0.000297 0.000000 0.000000 0.000000
# 3 -0.001830 0.000297 0.011441 0.000000 0.000000 0.000000
# 4 0.000000 0.000000 0.000000 0.038112 0.000000 0.000000
# 5 0.000000 0.000000 0.000000 0.000000 0.039009 0.000000
# 6 0.000000 0.000000 0.000000 0.000000 0.000000 0.046625
#
#
# Mechanical properties :
#
#
# Convention : Reuss Voigt Hill
#
# Bulk Modulus (GPa) = 30.84733 33.34109 32.09421
# Shear Modulus (GPa) = 26.74736 28.31443 27.53089
#
# Velocity S-wave (km/s) = 3.38371 3.48143 3.43292
# Velocity P-wave (km/s) = 5.33578 5.51656 5.42693
#
# Compressibility (1/GPa) = 0.03241772
#
# Stress axis : x y z
#
# Youngs Moduli (GPa) = 84.75018 52.19155 87.40440
#
# Poissons Ratio (x) = 0.18050 0.15992
# Poissons Ratio (y) = 0.29309 -0.02592
# Poissons Ratio (z) = 0.15506 -0.01548
#
# Static dielectric constant tensor:
#      x y z
#    x 1.956830 0.000000 0.000000 
#    y 0.000000 1.864280 0.000000 
#    z 0.000000 0.000000 2.580730 
# 
# From -- ./inp_files/19664.got.cif
#   From: 2010.05.17/outbox.cif.g08.bks.cpg/sg64_10_cif.got.tgz:19664.got - 2010.06.03 16:29:19.
