data_PCOD9481017
_publ_section_title
;
Structure prediction by ZEFSAII (Michael W. Deem and Ramdas Pophale) SiO2 
 PCOD9481017
Probable space group: C M C A
;
_chemical_formula_sum "Si O2"
_cell_formula_units_Z 88
_cell_length_a 24.523662
_cell_length_b 16.540827
_cell_length_c 10.239383
_cell_angle_alpha 90.000000
_cell_angle_beta 90.000000
_cell_angle_gamma 90.000000
_cell_volume 4153.520221
_symmetry_space_group_name_H-M "C M C A"
_symmetry_group_IT_number 64
_symmetry_cell_setting 'orthorhombic'
loop_
_space_group_symop_operation_xyz
x,y,z
-x,1/2-y,1/2+z
x,-y,-z
-x,1/2+y,1/2-z
-x,-y,-z
x,1/2+y,1/2-z
-x,y,z
x,1/2-y,1/2+z
1/2+x,1/2+y,z
1/2-x,-y,1/2+z
1/2+x,1/2-y,-z
1/2-x,y,1/2-z
1/2-x,1/2-y,-z
1/2+x,y,1/2-z
1/2-x,1/2+y,z
1/2+x,-y,1/2+z
loop_
_atom_site_type_symbol
_atom_site_label
_atom_site_fract_x
_atom_site_fract_y
_atom_site_fract_z
Si Si1 0.500000 0.226087 0.601012
Si Si2 0.386199 0.350740 0.323045
Si Si3 0.088823 0.318755 0.611525
Si Si4 0.164565 0.586887 0.559306
Si Si5 0.500000 0.097890 0.236246
Si Si6 0.733299 0.817079 0.104615
Si Si7 0.000000 0.589350 0.832576
O O1 0.551284 0.213794 0.505672
O O2 0.500000 0.317916 0.654153
O O3 0.500000 0.151443 0.705949
O O4 0.401046 0.256976 0.294275
O O5 0.370073 0.397539 0.190986
O O6 0.329865 0.342932 0.402790
O O7 0.440109 0.388716 0.389437
O O8 0.143756 0.350366 0.549116
O O9 0.054287 0.389751 0.677249
O O10 0.155435 0.500000 0.500000
O O11 0.227316 0.605928 0.586926
O O12 0.500000 0.007315 0.183187
O O13 0.750000 0.786504 0.250000
O O14 0.750000 0.750000 0.000000
#
# Coordination Sequence:
#
# PCOD9481017 Si02
#       7
#     8  16  16  16   8  16   8
#     4  11  22  38  56  94 132 176 228 278 344 428
#     4  11  22  42  64  97 137 176 227 292 344 428
#     4  11  20  36  66  90 131 177 224 284 345 415
#     4  11  22  39  67  99 130 169 231 291 352 414
#     4  11  23  36  59  93 134 182 231 281 357 416
#     4  10  22  42  68  96 132 178 229 286 353 424
#     4  12  21  39  62  93 141 178 228 296 343 421
#
# _framework density 21.186848000000001
#
# number of rings (size 3 to 8) (size 9 to 14) (size 15 to 20)
#    0.000    1.091    5.455    1.636    0.000    0.727 
#    0.000    6.364    0.000    0.000    0.000    0.000 
#    0.000    0.000    0.000    0.000    0.000    0.000 
#
# Total GULP energy -245504.124068 kJ/mol
# GULP energy per Si atom -5579.639183 kJ/mol
# Density = 2.113863 g / cm^3
# Si number density = 21.186848 Si / 1000 Ang^3
#
#
#
# Elastic Constant Matrix: (Units=GPa)
#
#
# Indices 1 2 3 4 5 6 
#
# 1 172.8875 40.9992 18.2096 0.0000 0.0000 0.0000
# 2 40.9992 125.5378 34.8768 0.0000 0.0000 0.0000
# 3 18.2096 34.8768 61.9501 0.0000 0.0000 0.0000
# 4 0.0000 0.0000 0.0000 29.1901 0.0000 0.0000
# 5 0.0000 0.0000 0.0000 0.0000 19.9443 0.0000
# 6 0.0000 0.0000 0.0000 0.0000 0.0000 18.6791
#
#
#
# Elastic Compliance Matrix: (Units=1/GPa)
#
#
# Indices 1 2 3 4 5 6 
#
# 1 0.006305 -0.001831 -0.000823 0.000000 0.000000 0.000000
# 2 -0.001831 0.009974 -0.005077 0.000000 0.000000 0.000000
# 3 -0.000823 -0.005077 0.019242 0.000000 0.000000 0.000000
# 4 0.000000 0.000000 0.000000 0.034258 0.000000 0.000000
# 5 0.000000 0.000000 0.000000 0.000000 0.050140 0.000000
# 6 0.000000 0.000000 0.000000 0.000000 0.000000 0.053536
#
#
# Mechanical properties :
#
#
# Convention : Reuss Voigt Hill
#
# Bulk Modulus (GPa) = 49.84956 60.94963 55.39960
# Shear Modulus (GPa) = 25.56205 31.31534 28.43870
#
# Velocity S-wave (km/s) = 3.47725 3.84872 3.66769
# Velocity P-wave (km/s) = 6.30090 6.96996 6.64385
#
# Compressibility (1/GPa) = 0.02006036
#
# Stress axis : x y z
#
# Youngs Moduli (GPa) = 158.60779 100.25975 51.96911
#
# Poissons Ratio (x) = 0.18353 0.04275
# Poissons Ratio (y) = 0.29034 0.26386
# Poissons Ratio (z) = 0.13049 0.50904
#
# Static dielectric constant tensor:
#      x y z
#    x 1.801880 0.000000 0.000000 
#    y 0.000000 1.741110 0.000000 
#    z 0.000000 0.000000 1.833440 
# 
# From -- ./inp_files/18262.got.cif
#   From: 2010.05.17/outbox.cif.g08.bks.cpg/sg64_10_cif.got.tgz:18262.got - 2010.06.03 16:29:19.
