data_PCOD9481476
_publ_section_title
;
Structure prediction by ZEFSAII (Michael W. Deem and Ramdas Pophale) SiO2 
 PCOD9481476
Probable space group: C M C A
;
_chemical_formula_sum "Si O2"
_cell_formula_units_Z 48
_cell_length_a 10.074978
_cell_length_b 14.052901
_cell_length_c 14.084274
_cell_angle_alpha 90.000000
_cell_angle_beta 90.000000
_cell_angle_gamma 90.000000
_cell_volume 1994.089096
_symmetry_space_group_name_H-M "C M C A"
_symmetry_group_IT_number 64
_symmetry_cell_setting 'orthorhombic'
loop_
_space_group_symop_operation_xyz
x,y,z
-x,1/2-y,1/2+z
x,-y,-z
-x,1/2+y,1/2-z
-x,-y,-z
x,1/2+y,1/2-z
-x,y,z
x,1/2-y,1/2+z
1/2+x,1/2+y,z
1/2-x,-y,1/2+z
1/2+x,1/2-y,-z
1/2-x,y,1/2-z
1/2-x,1/2-y,-z
1/2+x,y,1/2-z
1/2-x,1/2+y,z
1/2+x,-y,1/2+z
loop_
_atom_site_type_symbol
_atom_site_label
_atom_site_fract_x
_atom_site_fract_y
_atom_site_fract_z
Si Si1 0.859507 0.140651 0.036031
Si Si2 0.282357 0.673870 0.643755
Si Si3 0.848895 0.041817 0.337767
O O1 0.855422 0.242918 0.087212
O O2 0.000000 0.093522 0.060566
O O3 0.730033 0.086142 0.073674
O O4 0.844244 0.153882 0.923491
O O5 0.250000 0.706172 0.750000
O O6 0.352939 0.572285 0.652848
O O7 0.750000 0.062634 0.250000
O O8 0.000000 0.077675 0.327701
#
# Coordination Sequence:
#
# PCOD9481476 Si02
#       3
#    16  16  16
#     4  11  24  42  67  99 133 171 218 271 327 389
#     4  10  24  43  66  94 131 173 218 268 324 385
#     4  11  24  43  68  97 132 173 216 267 325 388
#
# _framework density 24.071141999999998
#
# number of rings (size 3 to 8) (size 9 to 14) (size 15 to 20)
#    0.000    1.333    0.000    4.000    0.000   17.333 
#    0.000    0.000    0.000    0.000    0.000    0.000 
#    0.000    0.000    0.000    0.000    0.000    0.000 
#
# Total GULP energy -134207.950219 kJ/mol
# GULP energy per Si atom -5591.997926 kJ/mol
# Density = 2.401636 g / cm^3
# Si number density = 24.071142 Si / 1000 Ang^3
#
#
#
# Elastic Constant Matrix: (Units=GPa)
#
#
# Indices 1 2 3 4 5 6 
#
# 1 217.7860 26.8265 58.8148 0.0000 0.0000 0.0000
# 2 26.8265 91.4033 10.9168 0.0000 0.0000 0.0000
# 3 58.8148 10.9168 172.5112 0.0000 0.0000 0.0000
# 4 0.0000 0.0000 0.0000 34.3038 0.0000 0.0000
# 5 0.0000 0.0000 0.0000 0.0000 0.5501 0.0000
# 6 0.0000 0.0000 0.0000 0.0000 0.0000 -474.9663
#
#
#
# Elastic Compliance Matrix: (Units=1/GPa)
#
#
# Indices 1 2 3 4 5 6 
#
# 1 0.005212 -0.001328 -0.001693 0.000000 0.000000 0.000000
# 2 -0.001328 0.011362 -0.000266 0.000000 0.000000 0.000000
# 3 -0.001693 -0.000266 0.006391 0.000000 0.000000 0.000000
# 4 0.000000 0.000000 0.000000 0.029151 0.000000 0.000000
# 5 0.000000 0.000000 0.000000 0.000000 1.817855 0.000000
# 6 0.000000 0.000000 0.000000 0.000000 0.000000 -0.002105
#
#
# Mechanical properties :
#
#
# Convention : Reuss Voigt Hill
#
# Bulk Modulus (GPa) = 61.00875 74.97964 67.99419
# Shear Modulus (GPa) = 2.65971 -62.34632 -29.84331
#
# Velocity S-wave (km/s) = 1.05230 -5.09481 -3.52489
# Velocity P-wave (km/s) = 5.18427 1.84191 3.42666
#
# Compressibility (1/GPa) = 0.01639109
#
# Stress axis : x y z
#
# Youngs Moduli (GPa) = 191.84933 88.01274 156.47479
#
# Poissons Ratio (x) = 0.11685 0.26492
# Poissons Ratio (y) = 0.25470 0.04168
# Poissons Ratio (z) = 0.32482 0.02344
#
# Static dielectric constant tensor:
#      x y z
#    x 1.938750 0.000000 0.000000 
#    y 0.000000 1.929060 0.000000 
#    z 0.000000 0.000000 1.941480 
# 
# From -- ./inp_files/20491.got.cif
#   From: 2010.05.17/outbox.cif.g08.bks.cpg/sg64_11_cif.got.tgz:20491.got - 2010.06.03 16:29:19.
