data_PCOD9481994
_publ_section_title
;
Structure prediction by ZEFSAII (Michael W. Deem and Ramdas Pophale) SiO2 
 PCOD9481994
Probable space group: C M C A
;
_chemical_formula_sum "Si O2"
_cell_formula_units_Z 64
_cell_length_a 32.176798
_cell_length_b 10.731051
_cell_length_c 7.654806
_cell_angle_alpha 90.000000
_cell_angle_beta 90.000000
_cell_angle_gamma 90.000000
_cell_volume 2643.134550
_symmetry_space_group_name_H-M "C M C A"
_symmetry_group_IT_number 64
_symmetry_cell_setting 'orthorhombic'
loop_
_space_group_symop_operation_xyz
x,y,z
-x,1/2-y,1/2+z
x,-y,-z
-x,1/2+y,1/2-z
-x,-y,-z
x,1/2+y,1/2-z
-x,y,z
x,1/2-y,1/2+z
1/2+x,1/2+y,z
1/2-x,-y,1/2+z
1/2+x,1/2-y,-z
1/2-x,y,1/2-z
1/2-x,1/2-y,-z
1/2+x,y,1/2-z
1/2-x,1/2+y,z
1/2+x,-y,1/2+z
loop_
_atom_site_type_symbol
_atom_site_label
_atom_site_fract_x
_atom_site_fract_y
_atom_site_fract_z
Si Si1 0.922117 0.912545 0.241618
Si Si2 0.452235 0.655400 0.390096
Si Si3 0.794772 0.336491 0.662019
Si Si4 0.672673 0.409179 0.206828
O O1 0.922611 0.874150 0.446549
O O2 0.947591 0.799074 0.159510
O O3 0.875995 0.908430 0.165047
O O4 0.940494 0.052778 0.242147
O O5 0.500000 0.633291 0.441825
O O6 0.750000 0.325113 0.750000
O O7 0.816781 0.450769 0.763526
O O8 0.798385 0.377158 0.460300
O O9 0.817697 0.204596 0.667049
#
# Coordination Sequence:
#
# PCOD9481994 Si02
#       4
#    16  16  16  16
#     4  11  23  41  64  95 134 173 219 271 322 387
#     4  11  23  42  66  98 134 176 220 269 324 384
#     4  11  24  43  65  94 128 165 213 267 324 391
#     4  11  24  42  66  97 128 170 215 265 326 386
#
# _framework density 24.213677000000001
#
# number of rings (size 3 to 8) (size 9 to 14) (size 15 to 20)
#    0.000    1.000    0.000    7.500    0.000    8.000 
#    0.000    2.500    0.000    0.000    0.000    0.000 
#    0.000    0.000    0.000    0.000    0.000    0.000 
#
# Total GULP energy -178885.610383 kJ/mol
# GULP energy per Si atom -5590.175324 kJ/mol
# Density = 2.415857 g / cm^3
# Si number density = 24.213677 Si / 1000 Ang^3
#
#
#
# Elastic Constant Matrix: (Units=GPa)
#
#
# Indices 1 2 3 4 5 6 
#
# 1 123.3475 25.2677 8.2571 0.0000 0.0000 0.0000
# 2 25.2677 148.7999 26.1347 0.0000 0.0000 0.0000
# 3 8.2571 26.1347 49.2005 0.0000 0.0000 0.0000
# 4 0.0000 0.0000 0.0000 46.9293 0.0000 0.0000
# 5 0.0000 0.0000 0.0000 0.0000 16.9553 0.0000
# 6 0.0000 0.0000 0.0000 0.0000 0.0000 5.8790
#
#
#
# Elastic Compliance Matrix: (Units=1/GPa)
#
#
# Indices 1 2 3 4 5 6 
#
# 1 0.008422 -0.001304 -0.000721 0.000000 0.000000 0.000000
# 2 -0.001304 0.007614 -0.003826 0.000000 0.000000 0.000000
# 3 -0.000721 -0.003826 0.022478 0.000000 0.000000 0.000000
# 4 0.000000 0.000000 0.000000 0.021309 0.000000 0.000000
# 5 0.000000 0.000000 0.000000 0.000000 0.058979 0.000000
# 6 0.000000 0.000000 0.000000 0.000000 0.000000 0.170096
#
#
# Mechanical properties :
#
#
# Convention : Reuss Voigt Hill
#
# Bulk Modulus (GPa) = 37.29406 48.96299 43.12853
# Shear Modulus (GPa) = 16.15323 31.39862 23.77592
#
# Velocity S-wave (km/s) = 2.58565 3.60492 3.13696
# Velocity P-wave (km/s) = 4.93453 6.13126 5.56516
#
# Compressibility (1/GPa) = 0.02681392
#
# Stress axis : x y z
#
# Youngs Moduli (GPa) = 118.72983 131.34214 44.48779
#
# Poissons Ratio (x) = 0.17121 0.03208
# Poissons Ratio (y) = 0.15477 0.17019
# Poissons Ratio (z) = 0.08561 0.50245
#
# Static dielectric constant tensor:
#      x y z
#    x 1.870600 0.000000 0.000000 
#    y 0.000000 1.989130 0.000000 
#    z 0.000000 0.000000 2.007890 
# 
# From -- ./inp_files/10855.got.cif
#   From: 2010.05.17/outbox.cif.g08.bks.cpg/sg64_6_cif.got.tgz:10855.got - 2010.06.03 16:29:19.
