data_PCOD9481039
_publ_section_title
;
Structure prediction by ZEFSAII (Michael W. Deem and Ramdas Pophale) SiO2 
 PCOD9481039
Probable space group: C M C A
;
_chemical_formula_sum "Si O2"
_cell_formula_units_Z 68
_cell_length_a 21.602239
_cell_length_b 16.572644
_cell_length_c 8.493763
_cell_angle_alpha 90.000000
_cell_angle_beta 90.000000
_cell_angle_gamma 90.000000
_cell_volume 3040.819956
_symmetry_space_group_name_H-M "C M C A"
_symmetry_group_IT_number 64
_symmetry_cell_setting 'orthorhombic'
loop_
_space_group_symop_operation_xyz
x,y,z
-x,1/2-y,1/2+z
x,-y,-z
-x,1/2+y,1/2-z
-x,-y,-z
x,1/2+y,1/2-z
-x,y,z
x,1/2-y,1/2+z
1/2+x,1/2+y,z
1/2-x,-y,1/2+z
1/2+x,1/2-y,-z
1/2-x,y,1/2-z
1/2-x,1/2-y,-z
1/2+x,y,1/2-z
1/2-x,1/2+y,z
1/2+x,-y,1/2+z
loop_
_atom_site_type_symbol
_atom_site_label
_atom_site_fract_x
_atom_site_fract_y
_atom_site_fract_z
Si Si1 0.068321 0.270304 0.435259
Si Si2 0.599829 0.863896 0.126064
Si Si3 0.068055 0.067808 0.137355
Si Si4 0.182306 0.996537 0.313649
Si Si5 0.000000 0.000000 0.500000
O O1 0.072523 0.307453 0.262793
O O2 0.113307 0.197914 0.483926
O O3 0.071541 0.346140 0.553502
O O4 0.000000 0.233088 0.451212
O O5 0.658018 0.905584 0.211712
O O6 0.554696 0.935616 0.068616
O O7 0.128787 0.051511 0.238039
O O8 0.000000 0.060941 0.225093
O O9 0.066599 0.000000 0.000000
O O10 0.250000 0.013532 0.250000
O O11 0.184761 0.000000 0.500000
#
# Coordination Sequence:
#
# PCOD9481039 Si02
#       5
#    16  16  16  16   4
#     4  11  23  43  68 113 156 189 239 313 376 442
#     4  12  26  44  73 109 154 195 245 311 374 451
#     4  10  22  42  75 108 144 193 247 308 380 452
#     4  12  28  48  73 105 145 203 261 314 372 455
#     4  12  24  44  72 118 146 192 252 294 380 446
#
# _framework density 22.362392
#
# number of rings (size 3 to 8) (size 9 to 14) (size 15 to 20)
#    0.000    0.706    5.882    0.706    4.941    0.471 
#    4.235    2.353    0.000    0.000    0.000    0.000 
#    0.000    0.000    0.000    0.000    0.000    0.000 
#
# Total GULP energy -189666.599966 kJ/mol
# GULP energy per Si atom -5578.429411 kJ/mol
# Density = 2.231149 g / cm^3
# Si number density = 22.362392 Si / 1000 Ang^3
#
#
#
# Elastic Constant Matrix: (Units=GPa)
#
#
# Indices 1 2 3 4 5 6 
#
# 1 141.2464 18.5717 67.4806 0.0000 0.0000 0.0000
# 2 18.5717 130.0390 39.7804 0.0000 0.0000 0.0000
# 3 67.4806 39.7804 103.2990 0.0000 0.0000 0.0000
# 4 0.0000 0.0000 0.0000 57.3693 0.0000 0.0000
# 5 0.0000 0.0000 0.0000 0.0000 34.3864 0.0000
# 6 0.0000 0.0000 0.0000 0.0000 0.0000 12.3929
#
#
#
# Elastic Compliance Matrix: (Units=1/GPa)
#
#
# Indices 1 2 3 4 5 6 
#
# 1 0.010343 0.000669 -0.007014 0.000000 0.000000 0.000000
# 2 0.000669 0.008760 -0.003810 0.000000 0.000000 0.000000
# 3 -0.007014 -0.003810 0.015730 0.000000 0.000000 0.000000
# 4 0.000000 0.000000 0.000000 0.017431 0.000000 0.000000
# 5 0.000000 0.000000 0.000000 0.000000 0.029081 0.000000
# 6 0.000000 0.000000 0.000000 0.000000 0.000000 0.080692
#
#
# Mechanical properties :
#
#
# Convention : Reuss Voigt Hill
#
# Bulk Modulus (GPa) = 68.86350 69.58329 69.22339
# Shear Modulus (GPa) = 26.71106 37.41317 32.06212
#
# Velocity S-wave (km/s) = 3.45985 4.09472 3.79060
# Velocity P-wave (km/s) = 6.84266 7.31706 7.08383
#
# Compressibility (1/GPa) = 0.01452148
#
# Stress axis : x y z
#
# Youngs Moduli (GPa) = 96.68510 114.15365 63.57333
#
# Poissons Ratio (x) = -0.07631 0.44590
# Poissons Ratio (y) = -0.06464 0.24223
# Poissons Ratio (z) = 0.67815 0.43495
#
# Static dielectric constant tensor:
#      x y z
#    x 1.832430 0.000000 0.000000 
#    y 0.000000 1.534750 0.000000 
#    z 0.000000 0.000000 1.927780 
# 
# From -- ./inp_files/7892.got.cif
#   From: 2010.05.17/outbox.cif.g08.bks.cpg/sg64_4_cif.got.tgz:7892.got - 2010.06.03 16:29:19.
