data_PCOD9481254
_publ_section_title
;
Structure prediction by ZEFSAII (Michael W. Deem and Ramdas Pophale) SiO2 
 PCOD9481254
Probable space group: C M C A
;
_chemical_formula_sum "Si O2"
_cell_formula_units_Z 88
_cell_length_a 20.496332
_cell_length_b 15.945714
_cell_length_c 12.884403
_cell_angle_alpha 90.000000
_cell_angle_beta 90.000000
_cell_angle_gamma 90.000000
_cell_volume 4210.992014
_symmetry_space_group_name_H-M "C M C A"
_symmetry_group_IT_number 64
_symmetry_cell_setting 'orthorhombic'
loop_
_space_group_symop_operation_xyz
x,y,z
-x,1/2-y,1/2+z
x,-y,-z
-x,1/2+y,1/2-z
-x,-y,-z
x,1/2+y,1/2-z
-x,y,z
x,1/2-y,1/2+z
1/2+x,1/2+y,z
1/2-x,-y,1/2+z
1/2+x,1/2-y,-z
1/2-x,y,1/2-z
1/2-x,1/2-y,-z
1/2+x,y,1/2-z
1/2-x,1/2+y,z
1/2+x,-y,1/2+z
loop_
_atom_site_type_symbol
_atom_site_label
_atom_site_fract_x
_atom_site_fract_y
_atom_site_fract_z
Si Si1 0.134491 0.347633 0.532308
Si Si2 0.307744 0.473246 0.330757
Si Si3 0.720864 0.500000 0.000000
Si Si4 0.574421 0.242568 0.663214
Si Si5 0.312534 0.709533 0.675734
Si Si6 0.425704 0.077124 0.258432
O O1 0.174026 0.421787 0.475103
O O2 0.094282 0.294256 0.448423
O O3 0.181581 0.283653 0.593200
O O4 0.092636 0.390009 0.625724
O O5 0.250000 0.459318 0.250000
O O6 0.270447 0.531148 0.412111
O O7 0.316409 0.381034 0.378253
O O8 0.371523 0.511599 0.279470
O O9 0.500000 0.217797 0.686252
O O10 0.625269 0.209747 0.747923
O O11 0.577803 0.343154 0.680245
O O12 0.250000 0.721022 0.750000
O O13 0.500000 0.045289 0.258422
#
# Coordination Sequence:
#
# PCOD9481254 Si02
#       6
#    16  16   8  16  16  16
#     4  11  23  42  69  97 128 173 217 272 325 385
#     4  11  23  43  62  96 132 163 216 271 320 390
#     4  12  26  38  68 100 126 166 218 270 324 380
#     4  10  23  42  64  95 129 168 219 264 318 391
#     4  10  24  41  66  94 128 170 215 265 329 384
#     4  10  23  43  67  95 134 176 212 269 331 385
#
# _framework density 20.897689
#
# number of rings (size 3 to 8) (size 9 to 14) (size 15 to 20)
#    0.000    1.455    1.818    2.727    7.636    2.909 
#    0.000    1.364    0.000    0.000    0.000    0.000 
#    0.000    0.000    0.000    0.000    0.000    0.000 
#
# Total GULP energy -245488.905271 kJ/mol
# GULP energy per Si atom -5579.293302 kJ/mol
# Density = 2.085012 g / cm^3
# Si number density = 20.897689 Si / 1000 Ang^3
#
#
#
# Elastic Constant Matrix: (Units=GPa)
#
#
# Indices 1 2 3 4 5 6 
#
# 1 151.4933 55.9003 30.9095 0.0000 0.0000 0.0000
# 2 55.9003 75.6496 23.9898 0.0000 0.0000 0.0000
# 3 30.9095 23.9898 60.0338 0.0000 0.0000 0.0000
# 4 0.0000 0.0000 0.0000 28.3470 0.0000 0.0000
# 5 0.0000 0.0000 0.0000 0.0000 28.0074 0.0000
# 6 0.0000 0.0000 0.0000 0.0000 0.0000 10.9347
#
#
#
# Elastic Compliance Matrix: (Units=1/GPa)
#
#
# Indices 1 2 3 4 5 6 
#
# 1 0.009357 -0.006168 -0.002353 0.000000 0.000000 0.000000
# 2 -0.006168 0.019203 -0.004498 0.000000 0.000000 0.000000
# 3 -0.002353 -0.004498 0.019666 0.000000 0.000000 0.000000
# 4 0.000000 0.000000 0.000000 0.035277 0.000000 0.000000
# 5 0.000000 0.000000 0.000000 0.000000 0.035705 0.000000
# 6 0.000000 0.000000 0.000000 0.000000 0.000000 0.091452
#
#
# Mechanical properties :
#
#
# Convention : Reuss Voigt Hill
#
# Bulk Modulus (GPa) = 45.06839 56.53066 50.79952
# Shear Modulus (GPa) = 20.48395 25.21628 22.85012
#
# Velocity S-wave (km/s) = 3.13421 3.47746 3.31029
# Velocity P-wave (km/s) = 5.89158 6.57522 6.24277
#
# Compressibility (1/GPa) = 0.02218850
#
# Stress axis : x y z
#
# Youngs Moduli (GPa) = 106.87175 52.07511 50.84906
#
# Poissons Ratio (x) = 0.32121 0.11964
# Poissons Ratio (y) = 0.65920 0.22871
# Poissons Ratio (z) = 0.25145 0.23423
#
# Static dielectric constant tensor:
#      x y z
#    x 1.694910 0.000000 0.000000 
#    y 0.000000 1.806140 0.000000 
#    z 0.000000 0.000000 1.848090 
# 
# From -- ./inp_files/26241.got.cif
#   From: 2010.05.17/outbox.cif.g08.bks.cpg/sg64_14_cif.got.tgz:26241.got - 2010.06.03 16:29:19.
