data_PCOD9481958
_publ_section_title
;
Structure prediction by ZEFSAII (Michael W. Deem and Ramdas Pophale) SiO2 
 PCOD9481958
Probable space group: C M C A
;
_chemical_formula_sum "Si O2"
_cell_formula_units_Z 80
_cell_length_a 26.329467
_cell_length_b 7.973361
_cell_length_c 16.782732
_cell_angle_alpha 90.000000
_cell_angle_beta 90.000000
_cell_angle_gamma 90.000000
_cell_volume 3523.271855
_symmetry_space_group_name_H-M "C M C A"
_symmetry_group_IT_number 64
_symmetry_cell_setting 'orthorhombic'
loop_
_space_group_symop_operation_xyz
x,y,z
-x,1/2-y,1/2+z
x,-y,-z
-x,1/2+y,1/2-z
-x,-y,-z
x,1/2+y,1/2-z
-x,y,z
x,1/2-y,1/2+z
1/2+x,1/2+y,z
1/2-x,-y,1/2+z
1/2+x,1/2-y,-z
1/2-x,y,1/2-z
1/2-x,1/2-y,-z
1/2+x,y,1/2-z
1/2-x,1/2+y,z
1/2+x,-y,1/2+z
loop_
_atom_site_type_symbol
_atom_site_label
_atom_site_fract_x
_atom_site_fract_y
_atom_site_fract_z
Si Si1 0.444134 0.457733 0.364622
Si Si2 0.840386 0.504667 0.319080
Si Si3 0.767469 0.387899 0.438208
Si Si4 0.944898 0.651510 0.683550
Si Si5 0.335267 0.608482 0.638742
O O1 0.500000 0.425986 0.401961
O O2 0.441606 0.655626 0.343176
O O3 0.443560 0.358181 0.280079
O O4 0.390090 0.412449 0.403378
O O5 0.801915 0.374536 0.360801
O O6 0.897202 0.455315 0.344685
O O7 0.826859 0.693841 0.343491
O O8 0.837921 0.483230 0.224139
O O9 0.799435 0.500000 0.500000
O O10 0.750000 0.250000 0.500000
O O11 0.713644 0.459174 0.407128
O O12 0.000000 0.583568 0.658822
#
# Coordination Sequence:
#
# PCOD9481958 Si02
#       5
#    16  16  16  16  16
#     4   9  17  30  53  85 118 150 188 236 289 338
#     4  11  23  38  62  90 118 154 197 241 291 345
#     4  12  27  44  61  84 116 156 199 245 297 351
#     4   9  17  30  53  85 118 150 187 237 288 339
#     4  11  23  38  62  90 118 154 196 243 288 346
#
# _framework density 22.706168000000002
#
# number of rings (size 3 to 8) (size 9 to 14) (size 15 to 20)
#    0.000    1.600    2.000    5.400    5.600    4.000 
#    0.000    0.000    0.000    2.400    0.000    0.000 
#    0.000    0.000    0.000    0.000    0.000    0.000 
#
# Total GULP energy -223055.008494 kJ/mol
# GULP energy per Si atom -5576.375212 kJ/mol
# Density = 2.265449 g / cm^3
# Si number density = 22.706168 Si / 1000 Ang^3
#
#
#
# Elastic Constant Matrix: (Units=GPa)
#
#
# Indices 1 2 3 4 5 6 
#
# 1 172.2709 -4.5283 39.5295 0.0000 0.0000 0.0000
# 2 -4.5283 58.8257 9.9003 0.0000 0.0000 0.0000
# 3 39.5295 9.9003 42.4513 0.0000 0.0000 0.0000
# 4 0.0000 0.0000 0.0000 27.6120 0.0000 0.0000
# 5 0.0000 0.0000 0.0000 0.0000 -21.9530 0.0000
# 6 0.0000 0.0000 0.0000 0.0000 0.0000 30.9473
#
#
#
# Elastic Compliance Matrix: (Units=1/GPa)
#
#
# Indices 1 2 3 4 5 6 
#
# 1 0.007569 0.001841 -0.007477 0.000000 0.000000 0.000000
# 2 0.001841 0.018142 -0.005945 0.000000 0.000000 0.000000
# 3 -0.007477 -0.005945 0.031906 0.000000 0.000000 0.000000
# 4 0.000000 0.000000 0.000000 0.036216 0.000000 0.000000
# 5 0.000000 0.000000 0.000000 0.000000 -0.045552 0.000000
# 6 0.000000 0.000000 0.000000 0.000000 0.000000 0.032313
#
#
# Mechanical properties :
#
#
# Convention : Reuss Voigt Hill
#
# Bulk Modulus (GPa) = 29.02490 40.37231 34.69861
# Shear Modulus (GPa) = 43.38732 22.56436 32.97584
#
# Velocity S-wave (km/s) = 4.37603 3.15581 3.81502
# Velocity P-wave (km/s) = 6.19221 5.57654 5.89242
#
# Compressibility (1/GPa) = 0.03445318
#
# Stress axis : x y z
#
# Youngs Moduli (GPa) = 132.11840 55.12167 31.34242
#
# Poissons Ratio (x) = -0.10148 0.23436
# Poissons Ratio (y) = -0.24324 0.18634
# Poissons Ratio (z) = 0.98790 0.32771
#
# Static dielectric constant tensor:
#      x y z
#    x 1.904830 0.000000 0.000000 
#    y 0.000000 1.949780 0.000000 
#    z 0.000000 0.000000 1.789540 
# 
# From -- ./inp_files/35358.got.cif
#   From: 2010.05.17/outbox.cif.g08.bks.cpg/sg64_18_cif.got.tgz:35358.got - 2010.06.03 16:29:19.
