data_PCOD9481540
_publ_section_title
;
Structure prediction by ZEFSAII (Michael W. Deem and Ramdas Pophale) SiO2 
 PCOD9481540
Probable space group: C M C A
;
_chemical_formula_sum "Si O2"
_cell_formula_units_Z 64
_cell_length_a 18.193954
_cell_length_b 21.170825
_cell_length_c 7.896267
_cell_angle_alpha 90.000000
_cell_angle_beta 90.000000
_cell_angle_gamma 90.000000
_cell_volume 3041.492147
_symmetry_space_group_name_H-M "C M C A"
_symmetry_group_IT_number 64
_symmetry_cell_setting 'orthorhombic'
loop_
_space_group_symop_operation_xyz
x,y,z
-x,1/2-y,1/2+z
x,-y,-z
-x,1/2+y,1/2-z
-x,-y,-z
x,1/2+y,1/2-z
-x,y,z
x,1/2-y,1/2+z
1/2+x,1/2+y,z
1/2-x,-y,1/2+z
1/2+x,1/2-y,-z
1/2-x,y,1/2-z
1/2-x,1/2-y,-z
1/2+x,y,1/2-z
1/2-x,1/2+y,z
1/2+x,-y,1/2+z
loop_
_atom_site_type_symbol
_atom_site_label
_atom_site_fract_x
_atom_site_fract_y
_atom_site_fract_z
Si Si1 0.691217 0.773954 0.862558
Si Si2 0.835060 0.132937 0.787071
Si Si3 0.586136 0.068104 0.412786
Si Si4 0.412648 0.886037 0.952720
O O1 0.750000 0.812235 0.750000
O O2 0.659772 0.709514 0.781558
O O3 0.625831 0.819170 0.912462
O O4 0.750000 0.750000 0.000000
O O5 0.750000 0.118217 0.750000
O O6 0.863888 0.112814 0.970755
O O7 0.880989 0.098925 0.638475
O O8 0.500000 0.087539 0.426457
O O9 0.604462 0.071088 0.212562
O O10 0.593044 0.000000 0.500000
O O11 0.500000 0.881769 0.965530
#
# Coordination Sequence:
#
# PCOD9481540 Si02
#       4
#    16  16  16  16
#     4  11  20  39  61  90 136 174 206 263 333 391
#     4  11  23  41  64  94 132 172 215 271 329 394
#     4  10  24  46  66  91 130 172 220 279 332 389
#     4  11  24  40  67  99 128 174 223 268 330 402
#
# _framework density 21.042303
#
# number of rings (size 3 to 8) (size 9 to 14) (size 15 to 20)
#    0.000    1.250    5.000    2.250    0.000    3.000 
#    4.500    3.750    0.000    0.000    0.000    0.000 
#    0.000    0.000    0.000    0.000    0.000    0.000 
#
# Total GULP energy -178358.260735 kJ/mol
# GULP energy per Si atom -5573.695648 kJ/mol
# Density = 2.099441 g / cm^3
# Si number density = 21.042303 Si / 1000 Ang^3
#
#
#
# Elastic Constant Matrix: (Units=GPa)
#
#
# Indices 1 2 3 4 5 6 
#
# 1 67.2198 21.3251 27.8944 0.0000 0.0000 0.0000
# 2 21.3251 41.8199 15.3553 0.0000 0.0000 0.0000
# 3 27.8944 15.3553 111.0228 0.0000 0.0000 0.0000
# 4 0.0000 0.0000 0.0000 27.9493 0.0000 0.0000
# 5 0.0000 0.0000 0.0000 0.0000 48.6671 0.0000
# 6 0.0000 0.0000 0.0000 0.0000 0.0000 12.1055
#
#
#
# Elastic Compliance Matrix: (Units=1/GPa)
#
#
# Indices 1 2 3 4 5 6 
#
# 1 0.019038 -0.008377 -0.003625 0.000000 0.000000 0.000000
# 2 -0.008377 0.028878 -0.001889 0.000000 0.000000 0.000000
# 3 -0.003625 -0.001889 0.010179 0.000000 0.000000 0.000000
# 4 0.000000 0.000000 0.000000 0.035779 0.000000 0.000000
# 5 0.000000 0.000000 0.000000 0.000000 0.020548 0.000000
# 6 0.000000 0.000000 0.000000 0.000000 0.000000 0.082607
#
#
# Mechanical properties :
#
#
# Convention : Reuss Voigt Hill
#
# Bulk Modulus (GPa) = 32.98948 38.80131 35.89540
# Shear Modulus (GPa) = 21.28426 28.11024 24.69725
#
# Velocity S-wave (km/s) = 3.18386 3.65895 3.42964
# Velocity P-wave (km/s) = 5.40626 6.02746 5.72529
#
# Compressibility (1/GPa) = 0.03031269
#
# Stress axis : x y z
#
# Youngs Moduli (GPa) = 52.52548 34.62900 98.23999
#
# Poissons Ratio (x) = 0.29010 0.35609
# Poissons Ratio (y) = 0.44002 0.18559
# Poissons Ratio (z) = 0.19039 0.06542
#
# Static dielectric constant tensor:
#      x y z
#    x 1.822100 0.000000 0.000000 
#    y 0.000000 1.762050 0.000000 
#    z 0.000000 0.000000 1.793340 
# 
# From -- ./inp_files/5605.got.cif
#   From: 2010.05.17/outbox.cif.g08.bks.cpg/sg64_3_cif.got.tgz:5605.got - 2010.06.03 16:29:19.
