data_PCOD9481672
_publ_section_title
;
Structure prediction by ZEFSAII (Michael W. Deem and Ramdas Pophale) SiO2 
 PCOD9481672
Probable space group: C M C A
;
_chemical_formula_sum "Si O2"
_cell_formula_units_Z 80
_cell_length_a 15.329420
_cell_length_b 13.092145
_cell_length_c 21.358143
_cell_angle_alpha 90.000000
_cell_angle_beta 90.000000
_cell_angle_gamma 90.000000
_cell_volume 4286.472283
_symmetry_space_group_name_H-M "C M C A"
_symmetry_group_IT_number 64
_symmetry_cell_setting 'orthorhombic'
loop_
_space_group_symop_operation_xyz
x,y,z
-x,1/2-y,1/2+z
x,-y,-z
-x,1/2+y,1/2-z
-x,-y,-z
x,1/2+y,1/2-z
-x,y,z
x,1/2-y,1/2+z
1/2+x,1/2+y,z
1/2-x,-y,1/2+z
1/2+x,1/2-y,-z
1/2-x,y,1/2-z
1/2-x,1/2-y,-z
1/2+x,y,1/2-z
1/2-x,1/2+y,z
1/2+x,-y,1/2+z
loop_
_atom_site_type_symbol
_atom_site_label
_atom_site_fract_x
_atom_site_fract_y
_atom_site_fract_z
Si Si1 0.160053 0.105013 0.212543
Si Si2 0.900779 0.171405 0.341733
Si Si3 0.894697 0.884805 0.201345
Si Si4 0.606791 0.510178 0.572047
Si Si5 0.605238 0.192305 0.840842
O O1 0.250000 0.110179 0.250000
O O2 0.095272 0.127418 0.270943
O O3 0.148011 0.196584 0.163939
O O4 0.144455 0.993782 0.184582
O O5 0.861501 0.284856 0.335629
O O6 0.860900 0.085654 0.386457
O O7 0.000000 0.186477 0.363817
O O8 0.875311 0.862924 0.274504
O O9 0.000000 0.889427 0.195599
O O10 0.632124 0.500000 0.500000
O O11 0.500000 0.509406 0.575169
O O12 0.633552 0.616143 0.604471
O O13 0.500000 0.205429 0.844000
#
# Coordination Sequence:
#
# PCOD9481672 Si02
#       5
#    16  16  16  16  16
#     4  11  20  28  44  71 102 129 155 194 240 294
#     4   9  17  31  48  70  97 123 157 199 247 289
#     4   9  16  28  47  67  93 125 153 191 241 290
#     4   9  16  29  52  76  94 119 163 210 241 278
#     4   9  17  30  48  70  97 125 157 198 245 290
#
# _framework density 18.663364999999999
#
# number of rings (size 3 to 8) (size 9 to 14) (size 15 to 20)
#    0.000    2.600    2.000    3.000    0.000    3.200 
#    0.000    0.000    0.000    2.400    0.000    7.000 
#    0.000    0.000    0.000    0.000    0.000    0.800 
#
# Total GULP energy -222973.219888 kJ/mol
# GULP energy per Si atom -5574.330497 kJ/mol
# Density = 1.862089 g / cm^3
# Si number density = 18.663365 Si / 1000 Ang^3
#
#
#
# Elastic Constant Matrix: (Units=GPa)
#
#
# Indices 1 2 3 4 5 6 
#
# 1 26.7823 20.3504 2.4405 0.0000 0.0000 0.0000
# 2 20.3504 199.0305 62.2747 0.0000 0.0000 0.0000
# 3 2.4405 62.2747 76.1566 0.0000 0.0000 0.0000
# 4 0.0000 0.0000 0.0000 22.2904 0.0000 0.0000
# 5 0.0000 0.0000 0.0000 0.0000 6.0134 0.0000
# 6 0.0000 0.0000 0.0000 0.0000 0.0000 6.9721
#
#
#
# Elastic Compliance Matrix: (Units=1/GPa)
#
#
# Indices 1 2 3 4 5 6 
#
# 1 0.040934 -0.005073 0.002836 0.000000 0.000000 0.000000
# 2 -0.005073 0.007381 -0.005873 0.000000 0.000000 0.000000
# 3 0.002836 -0.005873 0.017842 0.000000 0.000000 0.000000
# 4 0.000000 0.000000 0.000000 0.044862 0.000000 0.000000
# 5 0.000000 0.000000 0.000000 0.000000 0.166294 0.000000
# 6 0.000000 0.000000 0.000000 0.000000 0.000000 0.143430
#
#
# Mechanical properties :
#
#
# Convention : Reuss Voigt Hill
#
# Bulk Modulus (GPa) = 20.02452 52.45560 36.24006
# Shear Modulus (GPa) = 11.02274 21.51544 16.26909
#
# Velocity S-wave (km/s) = 2.43288 3.39900 2.95568
# Velocity P-wave (km/s) = 4.31793 6.60087 5.57745
#
# Compressibility (1/GPa) = 0.04993877
#
# Stress axis : x y z
#
# Youngs Moduli (GPa) = 24.42938 135.49129 56.04714
#
# Poissons Ratio (x) = 0.68734 -0.15898
# Poissons Ratio (y) = 0.12393 0.32915
# Poissons Ratio (z) = -0.06929 0.79569
#
# Static dielectric constant tensor:
#      x y z
#    x 1.738310 0.000000 0.000000 
#    y 0.000000 1.682380 0.000000 
#    z 0.000000 0.000000 1.606790 
# 
# From -- ./inp_files/40131.got.cif
#   From: 2010.05.17/outbox.cif.g08.bks.cpg/sg64_21_cif.got.tgz:40131.got - 2010.06.03 16:29:19.
