data_PCOD9481035
_publ_section_title
;
Structure prediction by ZEFSAII (Michael W. Deem and Ramdas Pophale) SiO2 
 PCOD9481035
Probable space group: C M C A
;
_chemical_formula_sum "Si O2"
_cell_formula_units_Z 80
_cell_length_a 26.796245
_cell_length_b 17.870829
_cell_length_c 7.470614
_cell_angle_alpha 90.000000
_cell_angle_beta 90.000000
_cell_angle_gamma 90.000000
_cell_volume 3577.461235
_symmetry_space_group_name_H-M "C M C A"
_symmetry_group_IT_number 64
_symmetry_cell_setting 'orthorhombic'
loop_
_space_group_symop_operation_xyz
x,y,z
-x,1/2-y,1/2+z
x,-y,-z
-x,1/2+y,1/2-z
-x,-y,-z
x,1/2+y,1/2-z
-x,y,z
x,1/2-y,1/2+z
1/2+x,1/2+y,z
1/2-x,-y,1/2+z
1/2+x,1/2-y,-z
1/2-x,y,1/2-z
1/2-x,1/2-y,-z
1/2+x,y,1/2-z
1/2-x,1/2+y,z
1/2+x,-y,1/2+z
loop_
_atom_site_type_symbol
_atom_site_label
_atom_site_fract_x
_atom_site_fract_y
_atom_site_fract_z
Si Si1 0.341847 0.845534 0.321523
Si Si2 0.900534 0.137416 0.165947
Si Si3 0.196253 0.798559 0.834582
Si Si4 0.500000 0.206935 0.346094
Si Si5 0.000000 0.629706 0.735968
Si Si6 0.404349 0.525058 0.704615
O O1 0.387715 0.832341 0.464690
O O2 0.298381 0.833501 0.467428
O O3 0.329573 0.783476 0.174401
O O4 0.355169 0.926476 0.248972
O O5 0.847310 0.152696 0.260108
O O6 0.948246 0.179831 0.242080
O O7 0.909323 0.049178 0.174997
O O8 0.250000 0.798348 0.750000
O O9 0.500000 0.162659 0.534588
O O10 0.500000 0.295951 0.357243
O O11 0.951960 0.578502 0.769761
O O12 0.403332 0.500000 0.500000
#
# Coordination Sequence:
#
# PCOD9481035 Si02
#       6
#    16  16  16   8   8  16
#     4  10  23  40  70  97 132 178 227 292 352 416
#     4  10  25  41  69  94 143 175 235 287 359 418
#     4  10  22  42  72 102 133 174 236 294 359 415
#     4  12  25  41  69 101 139 176 242 293 359 421
#     4  12  26  41  66  98 135 189 234 299 349 417
#     4  12  26  43  65  96 143 188 235 282 358 424
#
# _framework density 22.362224999999999
#
# number of rings (size 3 to 8) (size 9 to 14) (size 15 to 20)
#    1.200    0.000    2.000    3.300    5.600    0.800 
#    0.000    1.000    0.000    0.000    0.000    0.000 
#    0.000    0.000    0.000    0.000    0.000    0.000 
#
# Total GULP energy -222940.926285 kJ/mol
# GULP energy per Si atom -5573.523157 kJ/mol
# Density = 2.231133 g / cm^3
# Si number density = 22.362225 Si / 1000 Ang^3
#
#
#
# Elastic Constant Matrix: (Units=GPa)
#
#
# Indices 1 2 3 4 5 6 
#
# 1 128.6390 77.6792 37.0283 0.0000 0.0000 0.0000
# 2 77.6792 160.4560 40.6283 0.0000 0.0000 0.0000
# 3 37.0283 40.6283 72.7650 0.0000 0.0000 0.0000
# 4 0.0000 0.0000 0.0000 42.0734 0.0000 0.0000
# 5 0.0000 0.0000 0.0000 0.0000 12.0402 0.0000
# 6 0.0000 0.0000 0.0000 0.0000 0.0000 19.4526
#
#
#
# Elastic Compliance Matrix: (Units=1/GPa)
#
#
# Indices 1 2 3 4 5 6 
#
# 1 0.011600 -0.004799 -0.003223 0.000000 0.000000 0.000000
# 2 -0.004799 0.009244 -0.002719 0.000000 0.000000 0.000000
# 3 -0.003223 -0.002719 0.016901 0.000000 0.000000 0.000000
# 4 0.000000 0.000000 0.000000 0.023768 0.000000 0.000000
# 5 0.000000 0.000000 0.000000 0.000000 0.083055 0.000000
# 6 0.000000 0.000000 0.000000 0.000000 0.000000 0.051407
#
#
# Mechanical properties :
#
#
# Convention : Reuss Voigt Hill
#
# Bulk Modulus (GPa) = 61.49378 74.72574 68.10976
# Shear Modulus (GPa) = 22.43373 28.48153 25.45763
#
# Velocity S-wave (km/s) = 3.17077 3.57269 3.37771
# Velocity P-wave (km/s) = 6.40029 7.10686 6.76280
#
# Compressibility (1/GPa) = 0.01626181
#
# Stress axis : x y z
#
# Youngs Moduli (GPa) = 86.20988 108.17543 59.16735
#
# Poissons Ratio (x) = 0.51918 0.19069
# Poissons Ratio (y) = 0.41376 0.16089
# Poissons Ratio (z) = 0.27785 0.29415
#
# Static dielectric constant tensor:
#      x y z
#    x 1.887310 0.000000 0.000000 
#    y 0.000000 1.812540 0.000000 
#    z 0.000000 0.000000 1.957600 
# 
# From -- ./inp_files/10249.got.cif
#   From: 2010.05.17/outbox.cif.g08.bks.cpg/sg64_6_cif.got.tgz:10249.got - 2010.06.03 16:29:19.
