data_PCOD9481194
_publ_section_title
;
Structure prediction by ZEFSAII (Michael W. Deem and Ramdas Pophale) SiO2 
 PCOD9481194
Probable space group: C M C A
;
_chemical_formula_sum "Si O2"
_cell_formula_units_Z 96
_cell_length_a 19.243265
_cell_length_b 18.642083
_cell_length_c 14.203353
_cell_angle_alpha 90.000000
_cell_angle_beta 90.000000
_cell_angle_gamma 90.000000
_cell_volume 5095.233352
_symmetry_space_group_name_H-M "C M C A"
_symmetry_group_IT_number 64
_symmetry_cell_setting 'orthorhombic'
loop_
_space_group_symop_operation_xyz
x,y,z
-x,1/2-y,1/2+z
x,-y,-z
-x,1/2+y,1/2-z
-x,-y,-z
x,1/2+y,1/2-z
-x,y,z
x,1/2-y,1/2+z
1/2+x,1/2+y,z
1/2-x,-y,1/2+z
1/2+x,1/2-y,-z
1/2-x,y,1/2-z
1/2-x,1/2-y,-z
1/2+x,y,1/2-z
1/2-x,1/2+y,z
1/2+x,-y,1/2+z
loop_
_atom_site_type_symbol
_atom_site_label
_atom_site_fract_x
_atom_site_fract_y
_atom_site_fract_z
Si Si1 0.418371 0.458915 0.089988
Si Si2 0.330598 0.233764 0.282345
Si Si3 0.709941 0.942709 0.914782
Si Si4 0.679486 0.206680 0.980800
Si Si5 0.849501 0.069023 0.210339
Si Si6 0.416199 0.296083 0.109738
O O1 0.500000 0.449095 0.074638
O O2 0.406196 0.512864 0.175306
O O3 0.390924 0.378536 0.100083
O O4 0.388752 0.500000 0.000000
O O5 0.250000 0.223126 0.250000
O O6 0.330158 0.288923 0.368977
O O7 0.359677 0.154181 0.305124
O O8 0.378363 0.264684 0.200815
O O9 0.692369 0.868218 0.967231
O O10 0.783310 0.946188 0.858426
O O11 0.661237 0.945581 0.821583
O O12 0.705567 0.000000 0.000000
O O13 0.614506 0.248772 0.025308
O O14 0.750000 0.250000 0.000000
O O15 0.500000 0.292767 0.115202
#
# Coordination Sequence:
#
# PCOD9481194 Si02
#       6
#    16  16  16  16  16  16
#     4  10  23  40  62  92 124 165 213 260 322 388
#     4  12  22  40  66  97 126 167 217 268 321 382
#     4  11  24  38  59  98 128 162 211 262 316 382
#     4  12  22  41  69  93 127 168 215 268 320 379
#     4  11  20  40  61  88 129 161 207 259 317 381
#     4  11  25  44  64  96 131 165 217 270 320 387
#
# _framework density 18.841139999999999
#
# number of rings (size 3 to 8) (size 9 to 14) (size 15 to 20)
#    0.000    0.833    6.667    1.500    4.667    1.333 
#    0.000    0.000    0.000    1.000    0.000    0.000 
#    0.000    0.000    0.000    0.000    0.000    0.000 
#
# Total GULP energy -267601.244937 kJ/mol
# GULP energy per Si atom -5575.025936 kJ/mol
# Density = 1.879826 g / cm^3
# Si number density = 18.841140 Si / 1000 Ang^3
#
#
#
# Elastic Constant Matrix: (Units=GPa)
#
#
# Indices 1 2 3 4 5 6 
#
# 1 41.3879 22.0877 1.1812 0.0000 0.0000 0.0000
# 2 22.0877 129.1837 43.9059 0.0000 0.0000 0.0000
# 3 1.1812 43.9059 101.9518 0.0000 0.0000 0.0000
# 4 0.0000 0.0000 0.0000 40.6911 0.0000 0.0000
# 5 0.0000 0.0000 0.0000 0.0000 24.0017 0.0000
# 6 0.0000 0.0000 0.0000 0.0000 0.0000 15.2380
#
#
#
# Elastic Compliance Matrix: (Units=1/GPa)
#
#
# Indices 1 2 3 4 5 6 
#
# 1 0.026917 -0.005267 0.001956 0.000000 0.000000 0.000000
# 2 -0.005267 0.010099 -0.004288 0.000000 0.000000 0.000000
# 3 0.001956 -0.004288 0.011633 0.000000 0.000000 0.000000
# 4 0.000000 0.000000 0.000000 0.024575 0.000000 0.000000
# 5 0.000000 0.000000 0.000000 0.000000 0.041664 0.000000
# 6 0.000000 0.000000 0.000000 0.000000 0.000000 0.065625
#
#
# Mechanical properties :
#
#
# Convention : Reuss Voigt Hill
#
# Bulk Modulus (GPa) = 29.89477 45.20810 37.55144
# Shear Modulus (GPa) = 24.17089 29.67608 26.92348
#
# Velocity S-wave (km/s) = 3.58561 3.97302 3.78428
# Velocity P-wave (km/s) = 5.74834 6.71513 6.25045
#
# Compressibility (1/GPa) = 0.03345066
#
# Stress axis : x y z
#
# Youngs Moduli (GPa) = 37.15159 99.02073 85.96550
#
# Poissons Ratio (x) = 0.52156 -0.16819
# Poissons Ratio (y) = 0.19568 0.36863
# Poissons Ratio (z) = -0.07269 0.42461
#
# Static dielectric constant tensor:
#      x y z
#    x 1.610950 0.000000 0.000000 
#    y 0.000000 1.668900 0.000000 
#    z 0.000000 0.000000 1.764720 
# 
# From -- ./inp_files/26328.got.cif
#   From: 2010.05.17/outbox.cif.g08.bks.cpg/sg64_14_cif.got.tgz:26328.got - 2010.06.03 16:29:19.
