data_PCOD9481267
_publ_section_title
;
Structure prediction by ZEFSAII (Michael W. Deem and Ramdas Pophale) SiO2 
 PCOD9481267
Probable space group: C M C A
;
_chemical_formula_sum "Si O2"
_cell_formula_units_Z 72
_cell_length_a 14.884533
_cell_length_b 7.672890
_cell_length_c 28.894473
_cell_angle_alpha 90.000000
_cell_angle_beta 90.000000
_cell_angle_gamma 90.000000
_cell_volume 3299.962185
_symmetry_space_group_name_H-M "C M C A"
_symmetry_group_IT_number 64
_symmetry_cell_setting 'orthorhombic'
loop_
_space_group_symop_operation_xyz
x,y,z
-x,1/2-y,1/2+z
x,-y,-z
-x,1/2+y,1/2-z
-x,-y,-z
x,1/2+y,1/2-z
-x,y,z
x,1/2-y,1/2+z
1/2+x,1/2+y,z
1/2-x,-y,1/2+z
1/2+x,1/2-y,-z
1/2-x,y,1/2-z
1/2-x,1/2-y,-z
1/2+x,y,1/2-z
1/2-x,1/2+y,z
1/2+x,-y,1/2+z
loop_
_atom_site_type_symbol
_atom_site_label
_atom_site_fract_x
_atom_site_fract_y
_atom_site_fract_z
Si Si1 0.638034 0.803009 0.864445
Si Si2 0.000000 0.720316 0.314727
Si Si3 0.000000 0.129773 0.290452
Si Si4 0.851098 0.299357 0.513181
Si Si5 0.156106 0.715001 0.879767
Si Si6 0.500000 0.262287 0.556312
O O1 0.587082 0.785698 0.815373
O O2 0.740418 0.742951 0.866159
O O3 0.578301 0.719235 0.904579
O O4 0.636353 0.009238 0.876705
O O5 0.911479 0.686817 0.345199
O O6 0.000000 0.636470 0.264488
O O7 0.000000 0.927497 0.304511
O O8 0.869681 0.500000 0.500000
O O9 0.750000 0.250000 0.500000
O O10 0.861498 0.272959 0.567785
O O11 0.921603 0.197096 0.482298
#
# Coordination Sequence:
#
# PCOD9481267 Si02
#       6
#    16   8   8  16  16   8
#     4  10  23  42  66  91 128 165 219 263 324 378
#     4  10  23  43  67  92 129 162 214 269 324 388
#     4   9  22  44  63  97 122 165 209 265 331 388
#     4  12  25  42  63  95 134 171 223 256 319 385
#     4  11  23  43  64  94 130 171 212 268 316 383
#     4  11  24  40  63  87 130 168 209 265 304 375
#
# _framework density 21.818429999999999
#
# number of rings (size 3 to 8) (size 9 to 14) (size 15 to 20)
#    0.000    1.333    2.222    3.000    0.000    3.556 
#    4.000    4.444    0.000    0.000    0.000    0.000 
#    0.000    0.000    0.000    0.000    0.000    0.000 
#
# Total GULP energy -200403.094724 kJ/mol
# GULP energy per Si atom -5566.752631 kJ/mol
# Density = 2.176877 g / cm^3
# Si number density = 21.818430 Si / 1000 Ang^3
#
#
#
# Elastic Constant Matrix: (Units=GPa)
#
#
# Indices 1 2 3 4 5 6 
#
# 1 191.6195 -18.4473 93.7510 0.0000 0.0000 0.0000
# 2 -18.4473 24.0648 -4.6363 0.0000 0.0000 0.0000
# 3 93.7510 -4.6363 206.1498 0.0000 0.0000 0.0000
# 4 0.0000 0.0000 0.0000 28.0016 0.0000 0.0000
# 5 0.0000 0.0000 0.0000 0.0000 25.2087 0.0000
# 6 0.0000 0.0000 0.0000 0.0000 0.0000 -44.8181
#
#
#
# Elastic Compliance Matrix: (Units=1/GPa)
#
#
# Indices 1 2 3 4 5 6 
#
# 1 0.007255 0.004947 -0.003188 0.000000 0.000000 0.000000
# 2 0.004947 0.045109 -0.001235 0.000000 0.000000 0.000000
# 3 -0.003188 -0.001235 0.006273 0.000000 0.000000 0.000000
# 4 0.000000 0.000000 0.000000 0.035712 0.000000 0.000000
# 5 0.000000 0.000000 0.000000 0.000000 0.039669 0.000000
# 6 0.000000 0.000000 0.000000 0.000000 0.000000 -0.022312
#
#
# Mechanical properties :
#
#
# Convention : Reuss Voigt Hill
#
# Bulk Modulus (GPa) = 16.75497 62.57433 39.66465
# Shear Modulus (GPa) = 38.29891 25.08954 31.69422
#
# Velocity S-wave (km/s) = 4.19423 3.39473 3.81548
# Velocity P-wave (km/s) = 5.58134 6.64134 6.13428
#
# Compressibility (1/GPa) = 0.05968380
#
# Stress axis : x y z
#
# Youngs Moduli (GPa) = 137.84274 22.16865 159.41722
#
# Poissons Ratio (x) = -0.10967 0.50821
# Poissons Ratio (y) = -0.68191 0.19692
# Poissons Ratio (z) = 0.43944 0.02738
#
# Static dielectric constant tensor:
#      x y z
#    x 1.795860 0.000000 0.000000 
#    y 0.000000 1.899140 0.000000 
#    z 0.000000 0.000000 1.767330 
# 
# From -- ./inp_files/49850.got.cif
#   From: 2010.05.17/outbox.cif.g08.bks.cpg/sg64_25_cif.got.tgz:49850.got - 2010.06.03 16:29:19.
