data_PCOD9481591
_publ_section_title
;
Structure prediction by ZEFSAII (Michael W. Deem and Ramdas Pophale) SiO2 
 PCOD9481591
Probable space group: C M C A
;
_chemical_formula_sum "Si O2"
_cell_formula_units_Z 96
_cell_length_a 14.666054
_cell_length_b 13.718811
_cell_length_c 19.596637
_cell_angle_alpha 90.000000
_cell_angle_beta 90.000000
_cell_angle_gamma 90.000000
_cell_volume 3942.859491
_symmetry_space_group_name_H-M "C M C A"
_symmetry_group_IT_number 64
_symmetry_cell_setting 'orthorhombic'
loop_
_space_group_symop_operation_xyz
x,y,z
-x,1/2-y,1/2+z
x,-y,-z
-x,1/2+y,1/2-z
-x,-y,-z
x,1/2+y,1/2-z
-x,y,z
x,1/2-y,1/2+z
1/2+x,1/2+y,z
1/2-x,-y,1/2+z
1/2+x,1/2-y,-z
1/2-x,y,1/2-z
1/2-x,1/2-y,-z
1/2+x,y,1/2-z
1/2-x,1/2+y,z
1/2+x,-y,1/2+z
loop_
_atom_site_type_symbol
_atom_site_label
_atom_site_fract_x
_atom_site_fract_y
_atom_site_fract_z
Si Si1 0.601005 0.883479 0.492312
Si Si2 0.601149 0.739280 0.128161
Si Si3 0.396890 0.949508 0.861799
Si Si4 0.244613 0.588430 0.889192
Si Si5 0.899922 0.944730 0.214300
Si Si6 0.644550 0.279124 0.730730
O O1 0.500000 0.852653 0.466868
O O2 0.615657 0.830842 0.564290
O O3 0.684937 0.866298 0.442530
O O4 0.598898 0.000000 0.500000
O O5 0.500000 0.784382 0.121130
O O6 0.677332 0.823231 0.131083
O O7 0.602069 0.680027 0.199135
O O8 0.500000 0.953365 0.887699
O O9 0.323127 0.000857 0.909801
O O10 0.392611 0.007979 0.789147
O O11 0.372503 0.841664 0.836414
O O12 0.310606 0.540382 0.831817
O O13 0.896104 0.827781 0.222603
O O14 0.000000 0.970233 0.184919
O O15 0.750000 0.275356 0.750000
#
# Coordination Sequence:
#
# PCOD9481591 Si02
#       6
#    16  16  16  16  16  16
#     4  10  25  44  64  93 121 162 221 271 318 375
#     4  11  23  42  65  89 125 168 211 261 317 378
#     4  11  24  38  60  95 131 167 207 254 316 382
#     4  12  22  41  64  92 126 168 213 263 315 380
#     4  11  22  38  59  92 131 165 205 259 314 377
#     4  12  22  39  63  95 132 168 208 257 318 388
#
# _framework density 24.347811
#
# number of rings (size 3 to 8) (size 9 to 14) (size 15 to 20)
#    0.000    0.833    3.333    4.500    4.667    0.000 
#    0.000    0.000    0.000    2.000    0.000    0.000 
#    0.000    0.000    0.000    0.000    0.000    0.000 
#
# Total GULP energy -268581.046254 kJ/mol
# GULP energy per Si atom -5595.438464 kJ/mol
# Density = 2.429239 g / cm^3
# Si number density = 24.347811 Si / 1000 Ang^3
#
#
#
# Elastic Constant Matrix: (Units=GPa)
#
#
# Indices 1 2 3 4 5 6 
#
# 1 199.8611 14.2962 24.7224 0.0000 0.0000 0.0000
# 2 14.2962 64.2298 -13.4884 0.0000 0.0000 0.0000
# 3 24.7224 -13.4884 36.5804 0.0000 0.0000 0.0000
# 4 0.0000 0.0000 0.0000 18.7192 0.0000 0.0000
# 5 0.0000 0.0000 0.0000 0.0000 25.6753 0.0000
# 6 0.0000 0.0000 0.0000 0.0000 0.0000 48.8061
#
#
#
# Elastic Compliance Matrix: (Units=1/GPa)
#
#
# Indices 1 2 3 4 5 6 
#
# 1 0.005750 -0.002272 -0.004724 0.000000 0.000000 0.000000
# 2 -0.002272 0.017774 0.008089 0.000000 0.000000 0.000000
# 3 -0.004724 0.008089 0.033512 0.000000 0.000000 0.000000
# 4 0.000000 0.000000 0.000000 0.053421 0.000000 0.000000
# 5 0.000000 0.000000 0.000000 0.000000 0.038948 0.000000
# 6 0.000000 0.000000 0.000000 0.000000 0.000000 0.020489
#
#
# Mechanical properties :
#
#
# Convention : Reuss Voigt Hill
#
# Bulk Modulus (GPa) = 16.88546 39.08131 27.98339
# Shear Modulus (GPa) = 26.67390 36.98286 31.82838
#
# Velocity S-wave (km/s) = 3.31348 3.90159 3.61950
# Velocity P-wave (km/s) = 4.64640 6.03180 5.38385
#
# Compressibility (1/GPa) = 0.05922254
#
# Stress axis : x y z
#
# Youngs Moduli (GPa) = 173.90268 56.26349 29.83969
#
# Poissons Ratio (x) = 0.12783 0.14096
# Poissons Ratio (y) = 0.39510 -0.24138
# Poissons Ratio (z) = 0.82152 -0.45512
#
# Static dielectric constant tensor:
#      x y z
#    x 1.947550 0.000000 0.000000 
#    y 0.000000 1.960470 0.000000 
#    z 0.000000 0.000000 1.980710 
# 
# From -- ./inp_files/39163.got.cif
#   From: 2010.05.17/outbox.cif.g08.bks.cpg/sg64_20_cif.got.tgz:39163.got - 2010.06.03 16:29:19.
