data_PCOD9481118
_publ_section_title
;
Structure prediction by ZEFSAII (Michael W. Deem and Ramdas Pophale) SiO2 
 PCOD9481118
Probable space group: C M C A
;
_chemical_formula_sum "Si O2"
_cell_formula_units_Z 64
_cell_length_a 30.136202
_cell_length_b 10.424274
_cell_length_c 8.951653
_cell_angle_alpha 90.000000
_cell_angle_beta 90.000000
_cell_angle_gamma 90.000000
_cell_volume 2812.144128
_symmetry_space_group_name_H-M "C M C A"
_symmetry_group_IT_number 64
_symmetry_cell_setting 'orthorhombic'
loop_
_space_group_symop_operation_xyz
x,y,z
-x,1/2-y,1/2+z
x,-y,-z
-x,1/2+y,1/2-z
-x,-y,-z
x,1/2+y,1/2-z
-x,y,z
x,1/2-y,1/2+z
1/2+x,1/2+y,z
1/2-x,-y,1/2+z
1/2+x,1/2-y,-z
1/2-x,y,1/2-z
1/2-x,1/2-y,-z
1/2+x,y,1/2-z
1/2-x,1/2+y,z
1/2+x,-y,1/2+z
loop_
_atom_site_type_symbol
_atom_site_label
_atom_site_fract_x
_atom_site_fract_y
_atom_site_fract_z
Si Si1 0.750000 0.883307 0.750000
Si Si2 0.334534 0.277600 0.597395
Si Si3 0.188950 0.000000 0.000000
Si Si4 0.949348 0.633562 0.585930
Si Si5 0.607162 0.296387 0.352917
O O1 0.715339 0.804174 0.851328
O O2 0.719877 0.964629 0.639194
O O3 0.337359 0.127420 0.548589
O O4 0.366967 0.297764 0.737863
O O5 0.352813 0.353150 0.453271
O O6 0.949895 0.500000 0.500000
O O7 0.922696 0.621337 0.741063
O O8 0.925105 0.731766 0.473698
O O9 0.000000 0.674522 0.616004
#
# Coordination Sequence:
#
# PCOD9481118 Si02
#       5
#     8  16   8  16  16
#     4  12  26  44  64  92 132 176 220 272 320 374
#     4  11  24  44  62  95 132 170 218 268 316 381
#     4  12  26  42  66  90 127 178 221 264 326 376
#     4  10  22  44  70  96 129 169 209 262 331 391
#     4  10  23  39  66  96 130 164 214 264 316 385
#
# _framework density 22.758434999999999
#
# number of rings (size 3 to 8) (size 9 to 14) (size 15 to 20)
#    0.000    1.250    2.500    2.250   10.500    0.000 
#    0.000    3.750    0.000   13.500    0.000    0.000 
#    0.000    0.000    0.000    0.000    0.000    0.000 
#
# Total GULP energy -178763.311238 kJ/mol
# GULP energy per Si atom -5586.353476 kJ/mol
# Density = 2.270664 g / cm^3
# Si number density = 22.758435 Si / 1000 Ang^3
#
#
#
# Elastic Constant Matrix: (Units=GPa)
#
#
# Indices 1 2 3 4 5 6 
#
# 1 149.9568 23.2937 70.6872 0.0000 0.0000 0.0000
# 2 23.2937 55.3217 25.7975 0.0000 0.0000 0.0000
# 3 70.6872 25.7975 166.0060 0.0000 0.0000 0.0000
# 4 0.0000 0.0000 0.0000 23.2069 0.0000 0.0000
# 5 0.0000 0.0000 0.0000 0.0000 49.8914 0.0000
# 6 0.0000 0.0000 0.0000 0.0000 0.0000 18.9892
#
#
#
# Elastic Compliance Matrix: (Units=1/GPa)
#
#
# Indices 1 2 3 4 5 6 
#
# 1 0.008554 -0.002052 -0.003324 0.000000 0.000000 0.000000
# 2 -0.002052 0.019981 -0.002231 0.000000 0.000000 0.000000
# 3 -0.003324 -0.002231 0.007786 0.000000 0.000000 0.000000
# 4 0.000000 0.000000 0.000000 0.043091 0.000000 0.000000
# 5 0.000000 0.000000 0.000000 0.000000 0.020044 0.000000
# 6 0.000000 0.000000 0.000000 0.000000 0.000000 0.052662
#
#
# Mechanical properties :
#
#
# Convention : Reuss Voigt Hill
#
# Bulk Modulus (GPa) = 47.37781 67.87128 57.62454
# Shear Modulus (GPa) = 28.67548 35.18457 31.93002
#
# Velocity S-wave (km/s) = 3.55349 3.93619 3.74972
# Velocity P-wave (km/s) = 6.13997 7.10952 6.64246
#
# Compressibility (1/GPa) = 0.02110693
#
# Stress axis : x y z
#
# Youngs Moduli (GPa) = 116.90477 50.04871 128.43880
#
# Poissons Ratio (x) = 0.10270 0.42687
# Poissons Ratio (y) = 0.23988 0.28658
# Poissons Ratio (z) = 0.38853 0.11167
#
# Static dielectric constant tensor:
#      x y z
#    x 1.892450 0.000000 0.000000 
#    y 0.000000 1.867120 0.000000 
#    z 0.000000 0.000000 1.870330 
# 
# From -- ./inp_files/10891.got.cif
#   From: 2010.05.17/outbox.cif.g08.bks.cpg/sg64_6_cif.got.tgz:10891.got - 2010.06.03 16:29:19.
