data_PCOD9481627
_publ_section_title
;
Structure prediction by ZEFSAII (Michael W. Deem and Ramdas Pophale) SiO2 
 PCOD9481627
Probable space group: C M C A
;
_chemical_formula_sum "Si O2"
_cell_formula_units_Z 40
_cell_length_a 20.268909
_cell_length_b 8.394942
_cell_length_c 9.385013
_cell_angle_alpha 90.000000
_cell_angle_beta 90.000000
_cell_angle_gamma 90.000000
_cell_volume 1596.919233
_symmetry_space_group_name_H-M "C M C A"
_symmetry_group_IT_number 64
_symmetry_cell_setting 'orthorhombic'
loop_
_space_group_symop_operation_xyz
x,y,z
-x,1/2-y,1/2+z
x,-y,-z
-x,1/2+y,1/2-z
-x,-y,-z
x,1/2+y,1/2-z
-x,y,z
x,1/2-y,1/2+z
1/2+x,1/2+y,z
1/2-x,-y,1/2+z
1/2+x,1/2-y,-z
1/2-x,y,1/2-z
1/2-x,1/2-y,-z
1/2+x,y,1/2-z
1/2-x,1/2+y,z
1/2+x,-y,1/2+z
loop_
_atom_site_type_symbol
_atom_site_label
_atom_site_fract_x
_atom_site_fract_y
_atom_site_fract_z
Si Si1 0.658930 0.213211 0.352090
Si Si2 0.264134 0.000000 0.000000
Si Si3 0.073550 0.174807 0.424941
O O1 0.693267 0.377641 0.404806
O O2 0.714723 0.089273 0.393479
O O3 0.594966 0.202346 0.453075
O O4 0.629898 0.196125 0.194871
O O5 0.000000 0.205445 0.368547
O O6 0.071807 0.000000 0.500000
#
# Coordination Sequence:
#
# PCOD9481627 Si02
#       3
#    16   8  16
#     4  11  25  48  74 111 151 203 252 332 378 475
#     4  10  26  46  78 108 158 198 262 308 410 460
#     4  11  26  49  76 110 154 204 262 320 388 464
#
# _framework density 25.048228000000002
#
# number of rings (size 3 to 8) (size 9 to 14) (size 15 to 20)
#    0.000    1.200    2.000    1.200    5.600    9.600 
#    0.000    2.000    0.000    0.000    0.000    0.000 
#    0.000    0.000    0.000    0.000    0.000    0.000 
#
# Total GULP energy -111933.391861 kJ/mol
# GULP energy per Si atom -5596.669593 kJ/mol
# Density = 2.499122 g / cm^3
# Si number density = 25.048228 Si / 1000 Ang^3
#
#
#
# Elastic Constant Matrix: (Units=GPa)
#
#
# Indices 1 2 3 4 5 6 
#
# 1 155.6319 47.3023 41.1204 0.0000 0.0000 0.0000
# 2 47.3023 80.7666 43.6961 0.0000 0.0000 0.0000
# 3 41.1204 43.6961 166.3377 0.0000 0.0000 0.0000
# 4 0.0000 0.0000 0.0000 22.9029 0.0000 0.0000
# 5 0.0000 0.0000 0.0000 0.0000 58.5139 0.0000
# 6 0.0000 0.0000 0.0000 0.0000 0.0000 19.3110
#
#
#
# Elastic Compliance Matrix: (Units=1/GPa)
#
#
# Indices 1 2 3 4 5 6 
#
# 1 0.007922 -0.004173 -0.000862 0.000000 0.000000 0.000000
# 2 -0.004173 0.016631 -0.003337 0.000000 0.000000 0.000000
# 3 -0.000862 -0.003337 0.007102 0.000000 0.000000 0.000000
# 4 0.000000 0.000000 0.000000 0.043663 0.000000 0.000000
# 5 0.000000 0.000000 0.000000 0.000000 0.017090 0.000000
# 6 0.000000 0.000000 0.000000 0.000000 0.000000 0.051784
#
#
# Mechanical properties :
#
#
# Convention : Reuss Voigt Hill
#
# Bulk Modulus (GPa) = 67.07154 74.10819 70.58986
# Shear Modulus (GPa) = 30.13777 38.18673 34.16225
#
# Velocity S-wave (km/s) = 3.47247 3.90876 3.69705
# Velocity P-wave (km/s) = 6.55076 7.07260 6.81667
#
# Compressibility (1/GPa) = 0.01490945
#
# Stress axis : x y z
#
# Youngs Moduli (GPa) = 126.23860 60.12930 140.81233
#
# Poissons Ratio (x) = 0.25092 0.12139
# Poissons Ratio (y) = 0.52679 0.46992
# Poissons Ratio (z) = 0.10882 0.20067
#
# Static dielectric constant tensor:
#      x y z
#    x 2.006670 0.000000 0.000000 
#    y 0.000000 2.041820 0.000000 
#    z 0.000000 0.000000 2.108250 
# 
# From -- ./inp_files/8753.got.cif
#   From: 2010.05.17/outbox.cif.g08.bks.cpg/sg64_5_cif.got.tgz:8753.got - 2010.06.03 16:29:19.
