data_PCOD9481512
_publ_section_title
;
Structure prediction by ZEFSAII (Michael W. Deem and Ramdas Pophale) SiO2 
 PCOD9481512
Probable space group: C M C A
;
_chemical_formula_sum "Si O2"
_cell_formula_units_Z 56
_cell_length_a 8.350009
_cell_length_b 15.814934
_cell_length_c 17.688042
_cell_angle_alpha 90.000000
_cell_angle_beta 90.000000
_cell_angle_gamma 90.000000
_cell_volume 2335.791578
_symmetry_space_group_name_H-M "C M C A"
_symmetry_group_IT_number 64
_symmetry_cell_setting 'orthorhombic'
loop_
_space_group_symop_operation_xyz
x,y,z
-x,1/2-y,1/2+z
x,-y,-z
-x,1/2+y,1/2-z
-x,-y,-z
x,1/2+y,1/2-z
-x,y,z
x,1/2-y,1/2+z
1/2+x,1/2+y,z
1/2-x,-y,1/2+z
1/2+x,1/2-y,-z
1/2-x,y,1/2-z
1/2-x,1/2-y,-z
1/2+x,y,1/2-z
1/2-x,1/2+y,z
1/2+x,-y,1/2+z
loop_
_atom_site_type_symbol
_atom_site_label
_atom_site_fract_x
_atom_site_fract_y
_atom_site_fract_z
Si Si1 0.182969 0.211415 0.922136
Si Si2 0.500000 0.942209 0.213655
Si Si3 0.500000 0.077612 0.342835
Si Si4 0.756288 0.480938 0.081752
Si Si5 0.500000 0.761175 0.181333
O O1 0.172617 0.109754 0.928361
O O2 0.331701 0.229215 0.864641
O O3 0.000000 0.243020 0.906356
O O4 0.250000 0.250000 0.000000
O O5 0.357009 0.964894 0.157200
O O6 0.500000 0.843095 0.234906
O O7 0.500000 0.999651 0.285906
O O8 0.500000 0.163617 0.295915
O O9 0.350523 0.061815 0.397321
O O10 0.831703 0.500000 0.000000
#
# Coordination Sequence:
#
# PCOD9481512 Si02
#       5
#    16   8   8  16   8
#     4  11  21  39  67 105 145 185 234 306 363 422
#     4  10  25  47  69 104 144 186 238 302 361 441
#     4  12  23  47  73 102 144 188 240 300 369 433
#     4  11  23  42  71 102 140 186 238 301 362 424
#     4  10  24  44  70 100 142 190 244 292 368 444
#
# _framework density 23.974741999999999
#
# number of rings (size 3 to 8) (size 9 to 14) (size 15 to 20)
#    0.000    1.143    2.857    3.429    0.000    0.000 
#    7.714   14.286    0.000    0.000    0.000    0.000 
#    0.000    0.000    0.000    0.000    0.000    0.000 
#
# Total GULP energy -156212.457140 kJ/mol
# GULP energy per Si atom -5579.016326 kJ/mol
# Density = 2.392017 g / cm^3
# Si number density = 23.974742 Si / 1000 Ang^3
#
#
#
# Elastic Constant Matrix: (Units=GPa)
#
#
# Indices 1 2 3 4 5 6 
#
# 1 150.6459 19.5743 19.3383 0.0000 0.0000 0.0000
# 2 19.5743 145.6114 26.6290 0.0000 0.0000 0.0000
# 3 19.3383 26.6290 103.4703 0.0000 0.0000 0.0000
# 4 0.0000 0.0000 0.0000 47.6594 0.0000 0.0000
# 5 0.0000 0.0000 0.0000 0.0000 12.2869 0.0000
# 6 0.0000 0.0000 0.0000 0.0000 0.0000 16.1066
#
#
#
# Elastic Compliance Matrix: (Units=1/GPa)
#
#
# Indices 1 2 3 4 5 6 
#
# 1 0.006873 -0.000723 -0.001098 0.000000 0.000000 0.000000
# 2 -0.000723 0.007283 -0.001739 0.000000 0.000000 0.000000
# 3 -0.001098 -0.001739 0.010318 0.000000 0.000000 0.000000
# 4 0.000000 0.000000 0.000000 0.020982 0.000000 0.000000
# 5 0.000000 0.000000 0.000000 0.000000 0.081388 0.000000
# 6 0.000000 0.000000 0.000000 0.000000 0.000000 0.062086
#
#
# Mechanical properties :
#
#
# Convention : Reuss Voigt Hill
#
# Bulk Modulus (GPa) = 57.63017 58.97896 58.30457
# Shear Modulus (GPa) = 24.77272 37.48964 31.13118
#
# Velocity S-wave (km/s) = 3.21796 3.95867 3.60738
# Velocity P-wave (km/s) = 6.15606 6.74897 6.45932
#
# Compressibility (1/GPa) = 0.01735202
#
# Stress axis : x y z
#
# Youngs Moduli (GPa) = 145.49599 137.30894 96.92266
#
# Poissons Ratio (x) = 0.09928 0.10647
# Poissons Ratio (y) = 0.10520 0.16857
# Poissons Ratio (z) = 0.15982 0.23880
#
# Static dielectric constant tensor:
#      x y z
#    x 1.566080 0.000000 0.000000 
#    y 0.000000 1.885950 0.000000 
#    z 0.000000 0.000000 1.877430 
# 
# From -- ./inp_files/36193.got.cif
#   From: 2010.05.17/outbox.cif.g08.bks.cpg/sg64_19_cif.got.tgz:36193.got - 2010.06.03 16:29:19.
