data_PCOD9481613
_publ_section_title
;
Structure prediction by ZEFSAII (Michael W. Deem and Ramdas Pophale) SiO2 
 PCOD9481613
Probable space group: C M C A
;
_chemical_formula_sum "Si O2"
_cell_formula_units_Z 72
_cell_length_a 19.566124
_cell_length_b 17.698423
_cell_length_c 9.072299
_cell_angle_alpha 90.000000
_cell_angle_beta 90.000000
_cell_angle_gamma 90.000000
_cell_volume 3141.642239
_symmetry_space_group_name_H-M "C M C A"
_symmetry_group_IT_number 64
_symmetry_cell_setting 'orthorhombic'
loop_
_space_group_symop_operation_xyz
x,y,z
-x,1/2-y,1/2+z
x,-y,-z
-x,1/2+y,1/2-z
-x,-y,-z
x,1/2+y,1/2-z
-x,y,z
x,1/2-y,1/2+z
1/2+x,1/2+y,z
1/2-x,-y,1/2+z
1/2+x,1/2-y,-z
1/2-x,y,1/2-z
1/2-x,1/2-y,-z
1/2+x,y,1/2-z
1/2-x,1/2+y,z
1/2+x,-y,1/2+z
loop_
_atom_site_type_symbol
_atom_site_label
_atom_site_fract_x
_atom_site_fract_y
_atom_site_fract_z
Si Si1 0.793305 0.588629 0.487207
Si Si2 0.348935 0.659066 0.428929
Si Si3 0.865778 0.318958 0.275349
Si Si4 0.426222 0.571608 0.206775
Si Si5 0.000000 0.912928 0.182619
O O1 0.778693 0.500000 0.500000
O O2 0.727212 0.626494 0.416005
O O3 0.810550 0.629210 0.640423
O O4 0.862575 0.595135 0.391988
O O5 0.356520 0.734428 0.334094
O O6 0.359508 0.676766 0.600005
O O7 0.404829 0.598915 0.368841
O O8 0.939770 0.350152 0.317107
O O9 0.500000 0.605663 0.157559
O O10 0.441448 0.482589 0.192628
#
# Coordination Sequence:
#
# PCOD9481613 Si02
#       5
#    16  16  16  16   8
#     4  12  25  48  80 115 157 201 256 319 386 462
#     4  12  29  48  79 110 160 202 258 321 385 463
#     4  12  28  50  76 115 155 210 255 316 389 458
#     4  10  25  48  77 115 148 202 251 318 379 458
#     4  10  26  46  82 108 161 193 264 310 385 451
#
# _framework density 22.917950000000001
#
# number of rings (size 3 to 8) (size 9 to 14) (size 15 to 20)
#    0.667    0.000    2.222    3.333    7.778    5.778 
#    0.000    0.000    0.000    0.000    0.000    0.000 
#    0.000    0.000    0.000    0.000    0.000    0.000 
#
# Total GULP energy -200584.300737 kJ/mol
# GULP energy per Si atom -5571.786132 kJ/mol
# Density = 2.286579 g / cm^3
# Si number density = 22.917950 Si / 1000 Ang^3
#
#
#
# Elastic Constant Matrix: (Units=GPa)
#
#
# Indices 1 2 3 4 5 6 
#
# 1 184.2322 74.3022 9.1208 0.0000 0.0000 0.0000
# 2 74.3022 125.9384 32.6705 0.0000 0.0000 0.0000
# 3 9.1208 32.6705 39.2130 0.0000 0.0000 0.0000
# 4 0.0000 0.0000 0.0000 -49.6927 0.0000 0.0000
# 5 0.0000 0.0000 0.0000 0.0000 10.6640 0.0000
# 6 0.0000 0.0000 0.0000 0.0000 0.0000 -297.8305
#
#
#
# Elastic Compliance Matrix: (Units=1/GPa)
#
#
# Indices 1 2 3 4 5 6 
#
# 1 0.007297 -0.004931 0.002411 0.000000 0.000000 0.000000
# 2 -0.004931 0.013461 -0.010069 0.000000 0.000000 0.000000
# 3 0.002411 -0.010069 0.033330 0.000000 0.000000 0.000000
# 4 0.000000 0.000000 0.000000 -0.020124 0.000000 0.000000
# 5 0.000000 0.000000 0.000000 0.000000 0.093773 0.000000
# 6 0.000000 0.000000 0.000000 0.000000 0.000000 -0.003358
#
#
# Mechanical properties :
#
#
# Convention : Reuss Voigt Hill
#
# Bulk Modulus (GPa) = 34.58865 64.61895 49.60380
# Shear Modulus (GPa) = 31.40816 -51.81916 -10.20550
#
# Velocity S-wave (km/s) = 3.70599 -4.76023 -2.11252
# Velocity P-wave (km/s) = 5.78253 1.39861 3.96746
#
# Compressibility (1/GPa) = 0.02891121
#
# Stress axis : x y z
#
# Youngs Moduli (GPa) = 137.04015 74.28685 30.00328
#
# Poissons Ratio (x) = 0.36628 -0.07233
# Poissons Ratio (y) = 0.67569 0.30209
# Poissons Ratio (z) = -0.33036 0.74796
#
# Static dielectric constant tensor:
#      x y z
#    x 1.829440 0.000000 0.000000 
#    y 0.000000 1.835460 0.000000 
#    z 0.000000 0.000000 2.036110 
# 
# From -- ./inp_files/8027.got.cif
#   From: 2010.05.17/outbox.cif.g08.bks.cpg/sg64_5_cif.got.tgz:8027.got - 2010.06.03 16:29:19.
