data_PCOD9481996
_publ_section_title
;
Structure prediction by ZEFSAII (Michael W. Deem and Ramdas Pophale) SiO2 
 PCOD9481996
Probable space group: C M C A
;
_chemical_formula_sum "Si O2"
_cell_formula_units_Z 112
_cell_length_a 13.842477
_cell_length_b 14.173931
_cell_length_c 25.373316
_cell_angle_alpha 90.000000
_cell_angle_beta 90.000000
_cell_angle_gamma 90.000000
_cell_volume 4978.303310
_symmetry_space_group_name_H-M "C M C A"
_symmetry_group_IT_number 64
_symmetry_cell_setting 'orthorhombic'
loop_
_space_group_symop_operation_xyz
x,y,z
-x,1/2-y,1/2+z
x,-y,-z
-x,1/2+y,1/2-z
-x,-y,-z
x,1/2+y,1/2-z
-x,y,z
x,1/2-y,1/2+z
1/2+x,1/2+y,z
1/2-x,-y,1/2+z
1/2+x,1/2-y,-z
1/2-x,y,1/2-z
1/2-x,1/2-y,-z
1/2+x,y,1/2-z
1/2-x,1/2+y,z
1/2+x,-y,1/2+z
loop_
_atom_site_type_symbol
_atom_site_label
_atom_site_fract_x
_atom_site_fract_y
_atom_site_fract_z
Si Si1 0.886973 0.643444 0.279019
Si Si2 0.737149 0.403989 0.975069
Si Si3 0.306684 0.195352 0.838679
Si Si4 0.393237 0.070048 0.109687
Si Si5 0.612533 0.534110 0.721666
Si Si6 0.384924 0.283421 0.452662
Si Si7 0.603813 0.239815 0.669233
O O1 0.822180 0.696540 0.321063
O O2 0.853092 0.538006 0.266049
O O3 0.884748 0.701697 0.223870
O O4 0.000000 0.643701 0.295338
O O5 0.801627 0.441921 0.926720
O O6 0.660009 0.322357 0.960146
O O7 0.694726 0.500000 0.000000
O O8 0.818092 0.351544 0.011578
O O9 0.342340 0.134097 0.789607
O O10 0.365789 0.183925 0.892245
O O11 0.194041 0.175386 0.843735
O O12 0.500000 0.042964 0.087949
O O13 0.397288 0.180573 0.124200
O O14 0.380784 0.016987 0.165006
O O15 0.500000 0.547886 0.732186
O O16 0.500000 0.286609 0.464104
O O17 0.500000 0.191490 0.670790
#
# Coordination Sequence:
#
# PCOD9481996 Si02
#       7
#    16  16  16  16  16  16  16
#     4   9  19  36  59  88 121 157 198 253 315 369
#     4  11  23  41  65  94 129 172 214 267 325 392
#     4  12  20  37  64  92 126 168 206 262 317 374
#     4   9  17  36  62  86 117 157 205 266 314 360
#     4   9  19  34  60  94 121 156 208 258 309 371
#     4  11  25  41  64 101 130 165 220 271 326 388
#     4   9  19  36  58  85 118 160 207 251 309 368
#
# _framework density 22.497623999999998
#
# number of rings (size 3 to 8) (size 9 to 14) (size 15 to 20)
#    0.000    2.000    1.429    4.714    0.000    2.571 
#    0.000    5.714    0.000    6.857    0.000    0.000 
#    0.000    0.000    0.000    0.000    0.000    0.000 
#
# Total GULP energy -312862.539273 kJ/mol
# GULP energy per Si atom -5586.831058 kJ/mol
# Density = 2.244642 g / cm^3
# Si number density = 22.497624 Si / 1000 Ang^3
#
#
#
# Elastic Constant Matrix: (Units=GPa)
#
#
# Indices 1 2 3 4 5 6 
#
# 1 60.9063 41.7685 57.4832 0.0000 0.0000 0.0000
# 2 41.7685 84.0736 -11.7243 0.0000 0.0000 0.0000
# 3 57.4832 -11.7243 -13.9507 0.0000 0.0000 0.0000
# 4 0.0000 0.0000 0.0000 26.5615 0.0000 0.0000
# 5 0.0000 0.0000 0.0000 0.0000 20.7759 0.0000
# 6 0.0000 0.0000 0.0000 0.0000 0.0000 10.9766
#
#
#
# Elastic Compliance Matrix: (Units=1/GPa)
#
#
# Indices 1 2 3 4 5 6 
#
# 1 0.003364 0.000234 0.013662 0.000000 0.000000 0.000000
# 2 0.000234 0.010663 -0.007996 0.000000 0.000000 0.000000
# 3 0.013662 -0.007996 -0.008666 0.000000 0.000000 0.000000
# 4 0.000000 0.000000 0.000000 0.037648 0.000000 0.000000
# 5 0.000000 0.000000 0.000000 0.000000 0.048133 0.000000
# 6 0.000000 0.000000 0.000000 0.000000 0.000000 0.091103
#
#
# Mechanical properties :
#
#
# Convention : Reuss Voigt Hill
#
# Bulk Modulus (GPa) = 58.26948 34.00933 46.13941
# Shear Modulus (GPa) = 28.38256 14.56291 21.47273
#
# Velocity S-wave (km/s) = 3.55573 2.54699 3.09276
# Velocity P-wave (km/s) = 6.54325 4.87844 5.77119
#
# Compressibility (1/GPa) = 0.01716164
#
# Stress axis : x y z
#
# Youngs Moduli (GPa) = 297.30665 93.78311 -115.39541
#
# Poissons Ratio (x) = -0.02197 1.57658
# Poissons Ratio (y) = -0.06964 -0.92271
# Poissons Ratio (z) = -4.06192 0.74990
#
# Static dielectric constant tensor:
#      x y z
#    x 1.859210 0.000000 0.000000 
#    y 0.000000 1.873700 0.000000 
#    z 0.000000 0.000000 1.839120 
# 
# From -- ./inp_files/45277.got.cif
#   From: 2010.05.17/outbox.cif.g08.bks.cpg/sg64_23_cif.got.tgz:45277.got - 2010.06.03 16:29:19.
