data_PCOD9481212
_publ_section_title
;
Structure prediction by ZEFSAII (Michael W. Deem and Ramdas Pophale) SiO2 
 PCOD9481212
Probable space group: C M C A
;
_chemical_formula_sum "Si O2"
_cell_formula_units_Z 48
_cell_length_a 10.334935
_cell_length_b 17.412226
_cell_length_c 11.866338
_cell_angle_alpha 90.000000
_cell_angle_beta 90.000000
_cell_angle_gamma 90.000000
_cell_volume 2135.397646
_symmetry_space_group_name_H-M "C M C A"
_symmetry_group_IT_number 64
_symmetry_cell_setting 'orthorhombic'
loop_
_space_group_symop_operation_xyz
x,y,z
-x,1/2-y,1/2+z
x,-y,-z
-x,1/2+y,1/2-z
-x,-y,-z
x,1/2+y,1/2-z
-x,y,z
x,1/2-y,1/2+z
1/2+x,1/2+y,z
1/2-x,-y,1/2+z
1/2+x,1/2-y,-z
1/2-x,y,1/2-z
1/2-x,1/2-y,-z
1/2+x,y,1/2-z
1/2-x,1/2+y,z
1/2+x,-y,1/2+z
loop_
_atom_site_type_symbol
_atom_site_label
_atom_site_fract_x
_atom_site_fract_y
_atom_site_fract_z
Si Si1 0.790231 0.125788 0.471173
Si Si2 0.645818 0.982284 0.165290
Si Si3 0.143530 0.282417 0.349665
O O1 0.779492 0.058173 0.379911
O O2 0.850435 0.198506 0.408296
O O3 0.673295 0.160015 0.546004
O O4 0.868088 0.079548 0.566144
O O5 0.500000 0.000754 0.205832
O O6 0.750000 0.947722 0.250000
O O7 0.250000 0.282478 0.250000
O O8 0.000000 0.297418 0.303516
#
# Coordination Sequence:
#
# PCOD9481212 Si02
#       3
#    16  16  16
#     4  10  23  41  63  89 124 164 204 249 305 367
#     4  11  23  41  65  91 123 162 206 256 308 364
#     4  11  24  41  64  93 125 163 207 255 307 365
#
# _framework density 22.478248000000001
#
# number of rings (size 3 to 8) (size 9 to 14) (size 15 to 20)
#    0.000    1.333    0.000    6.000    0.000   13.333 
#    0.000    3.333    0.000    0.000    0.000    0.000 
#    0.000    0.000    0.000    0.000    0.000    0.000 
#
# Total GULP energy -133733.469064 kJ/mol
# GULP energy per Si atom -5572.227878 kJ/mol
# Density = 2.242709 g / cm^3
# Si number density = 22.478248 Si / 1000 Ang^3
#
#
#
# Elastic Constant Matrix: (Units=GPa)
#
#
# Indices 1 2 3 4 5 6 
#
# 1 148.9009 29.4612 62.0517 0.0000 0.0000 0.0000
# 2 29.4612 137.1371 26.2630 0.0000 0.0000 0.0000
# 3 62.0517 26.2630 98.4034 0.0000 0.0000 0.0000
# 4 0.0000 0.0000 0.0000 34.9184 0.0000 0.0000
# 5 0.0000 0.0000 0.0000 0.0000 21.8570 0.0000
# 6 0.0000 0.0000 0.0000 0.0000 0.0000 -134.7479
#
#
#
# Elastic Compliance Matrix: (Units=1/GPa)
#
#
# Indices 1 2 3 4 5 6 
#
# 1 0.009217 -0.000914 -0.005568 0.000000 0.000000 0.000000
# 2 -0.000914 0.007775 -0.001499 0.000000 0.000000 0.000000
# 3 -0.005568 -0.001499 0.014074 0.000000 0.000000 0.000000
# 4 0.000000 0.000000 0.000000 0.028638 0.000000 0.000000
# 5 0.000000 0.000000 0.000000 0.000000 0.045752 0.000000
# 6 0.000000 0.000000 0.000000 0.000000 0.000000 -0.007421
#
#
# Mechanical properties :
#
#
# Convention : Reuss Voigt Hill
#
# Bulk Modulus (GPa) = 66.20755 68.88813 67.54784
# Shear Modulus (GPa) = 42.00558 2.18320 22.09439
#
# Velocity S-wave (km/s) = 4.32756 0.98659 3.13856
# Velocity P-wave (km/s) = 7.38162 5.65782 6.57645
#
# Compressibility (1/GPa) = 0.01510402
#
# Stress axis : x y z
#
# Youngs Moduli (GPa) = 108.49323 128.61169 71.05494
#
# Poissons Ratio (x) = 0.11752 0.39566
# Poissons Ratio (y) = 0.09913 0.10651
# Poissons Ratio (z) = 0.60413 0.19279
#
# Static dielectric constant tensor:
#      x y z
#    x 1.820560 0.000000 0.000000 
#    y 0.000000 1.862340 0.000000 
#    z 0.000000 0.000000 1.946350 
# 
# From -- ./inp_files/20421.got.cif
#   From: 2010.05.17/outbox.cif.g08.bks.cpg/sg64_11_cif.got.tgz:20421.got - 2010.06.03 16:29:19.
