data_PCOD9481209
_publ_section_title
;
Structure prediction by ZEFSAII (Michael W. Deem and Ramdas Pophale) SiO2 
 PCOD9481209
Probable space group: C M C A
;
_chemical_formula_sum "Si O2"
_cell_formula_units_Z 96
_cell_length_a 8.733575
_cell_length_b 20.209982
_cell_length_c 29.825787
_cell_angle_alpha 90.000000
_cell_angle_beta 90.000000
_cell_angle_gamma 90.000000
_cell_volume 5264.412272
_symmetry_space_group_name_H-M "C M C A"
_symmetry_group_IT_number 64
_symmetry_cell_setting 'orthorhombic'
loop_
_space_group_symop_operation_xyz
x,y,z
-x,1/2-y,1/2+z
x,-y,-z
-x,1/2+y,1/2-z
-x,-y,-z
x,1/2+y,1/2-z
-x,y,z
x,1/2-y,1/2+z
1/2+x,1/2+y,z
1/2-x,-y,1/2+z
1/2+x,1/2-y,-z
1/2-x,y,1/2-z
1/2-x,1/2-y,-z
1/2+x,y,1/2-z
1/2-x,1/2+y,z
1/2+x,-y,1/2+z
loop_
_atom_site_type_symbol
_atom_site_label
_atom_site_fract_x
_atom_site_fract_y
_atom_site_fract_z
Si Si1 0.816957 0.434382 0.525458
Si Si2 0.318247 0.804586 0.467058
Si Si3 0.684849 0.013199 0.200497
Si Si4 0.184535 0.361835 0.200982
Si Si5 0.816334 0.759014 0.374703
Si Si6 0.683871 0.388850 0.620367
O O1 0.762647 0.500000 0.500000
O O2 0.791933 0.374086 0.491317
O O3 0.740263 0.418586 0.573038
O O4 0.000000 0.440150 0.533277
O O5 0.500000 0.794825 0.461593
O O6 0.250000 0.750000 0.500000
O O7 0.236861 0.795394 0.419787
O O8 0.500000 0.015184 0.203104
O O9 0.750000 0.028206 0.250000
O O10 0.733211 0.064368 0.161892
O O11 0.730170 0.937354 0.188676
O O12 0.250000 0.348417 0.250000
O O13 0.234227 0.305642 0.166304
O O14 0.000000 0.360842 0.202525
O O15 0.747689 0.685355 0.374095
O O16 0.000000 0.753527 0.374312
O O17 0.500000 0.386295 0.619983
#
# Coordination Sequence:
#
# PCOD9481209 Si02
#       6
#    16  16  16  16  16  16
#     4  10  23  41  59  84 117 152 192 236 284 341
#     4  11  22  38  60  85 117 154 192 234 282 340
#     4   9  20  39  60  85 113 147 189 234 285 343
#     4   9  20  39  61  85 114 148 190 237 287 342
#     4  11  23  38  59  85 117 154 192 238 288 342
#     4  11  23  38  59  86 117 151 193 239 285 342
#
# _framework density 18.235652999999999
#
# number of rings (size 3 to 8) (size 9 to 14) (size 15 to 20)
#    0.000    1.833    1.667    1.500    2.333    4.333 
#    0.000    3.333    0.000    0.000    0.000    0.000 
#    0.000    0.000    0.000    0.000    0.000    0.000 
#
# Total GULP energy -268029.976063 kJ/mol
# GULP energy per Si atom -5583.957835 kJ/mol
# Density = 1.819415 g / cm^3
# Si number density = 18.235653 Si / 1000 Ang^3
#
#
#
# Elastic Constant Matrix: (Units=GPa)
#
#
# Indices 1 2 3 4 5 6 
#
# 1 34.9930 59.7431 47.3346 0.0000 0.0000 0.0000
# 2 59.7431 108.7117 91.1956 0.0000 0.0000 0.0000
# 3 47.3346 91.1956 155.1132 0.0000 0.0000 0.0000
# 4 0.0000 0.0000 0.0000 33.2603 0.0000 0.0000
# 5 0.0000 0.0000 0.0000 0.0000 35.4005 0.0000
# 6 0.0000 0.0000 0.0000 0.0000 0.0000 16.7733
#
#
#
# Elastic Compliance Matrix: (Units=1/GPa)
#
#
# Indices 1 2 3 4 5 6 
#
# 1 0.484869 -0.280859 0.017161 0.000000 0.000000 0.000000
# 2 -0.280859 0.180837 -0.020612 0.000000 0.000000 0.000000
# 3 0.017161 -0.020612 0.013328 0.000000 0.000000 0.000000
# 4 0.000000 0.000000 0.000000 0.030066 0.000000 0.000000
# 5 0.000000 0.000000 0.000000 0.000000 0.028248 0.000000
# 6 0.000000 0.000000 0.000000 0.000000 0.000000 0.059618
#
#
# Mechanical properties :
#
#
# Convention : Reuss Voigt Hill
#
# Bulk Modulus (GPa) = 9.05666 77.26272 43.15969
# Shear Modulus (GPa) = 3.56534 23.78980 13.67757
#
# Velocity S-wave (km/s) = 1.39978 3.61581 2.74167
# Velocity P-wave (km/s) = 2.75495 7.73907 5.80874
#
# Compressibility (1/GPa) = 0.11041602
#
# Stress axis : x y z
#
# Youngs Moduli (GPa) = 2.06241 5.52985 75.02883
#
# Poissons Ratio (x) = 1.55311 -1.28761
# Poissons Ratio (y) = 0.57925 1.54649
# Poissons Ratio (z) = -0.03539 0.11398
#
# Static dielectric constant tensor:
#      x y z
#    x 1.618310 0.000000 0.000000 
#    y 0.000000 1.607440 0.000000 
#    z 0.000000 0.000000 1.586360 
# 
# From -- ./inp_files/48115.got.cif
#   From: 2010.05.17/outbox.cif.g08.bks.cpg/sg64_25_cif.got.tgz:48115.got - 2010.06.03 16:29:19.
