data_PCOD9481904
_publ_section_title
;
Structure prediction by ZEFSAII (Michael W. Deem and Ramdas Pophale) SiO2 
 PCOD9481904
Probable space group: C M C A
;
_chemical_formula_sum "Si O2"
_cell_formula_units_Z 76
_cell_length_a 14.599452
_cell_length_b 11.777326
_cell_length_c 23.154984
_cell_angle_alpha 90.000000
_cell_angle_beta 90.000000
_cell_angle_gamma 90.000000
_cell_volume 3981.325967
_symmetry_space_group_name_H-M "C M C A"
_symmetry_group_IT_number 64
_symmetry_cell_setting 'orthorhombic'
loop_
_space_group_symop_operation_xyz
x,y,z
-x,1/2-y,1/2+z
x,-y,-z
-x,1/2+y,1/2-z
-x,-y,-z
x,1/2+y,1/2-z
-x,y,z
x,1/2-y,1/2+z
1/2+x,1/2+y,z
1/2-x,-y,1/2+z
1/2+x,1/2-y,-z
1/2-x,y,1/2-z
1/2-x,1/2-y,-z
1/2+x,y,1/2-z
1/2-x,1/2+y,z
1/2+x,-y,1/2+z
loop_
_atom_site_type_symbol
_atom_site_label
_atom_site_fract_x
_atom_site_fract_y
_atom_site_fract_z
Si Si1 0.640882 0.174059 0.454269
Si Si2 0.396473 0.562672 0.335262
Si Si3 0.605157 0.791913 0.167754
Si Si4 0.500000 0.000000 0.500000
Si Si5 0.354182 0.617157 0.466118
Si Si6 0.750000 0.676134 0.250000
O O1 0.629097 0.229903 0.391901
O O2 0.611329 0.271609 0.500027
O O3 0.744886 0.135947 0.464610
O O4 0.578603 0.065647 0.462393
O O5 0.500000 0.589822 0.313803
O O6 0.389108 0.426889 0.340255
O O7 0.386836 0.611022 0.400135
O O8 0.314912 0.605576 0.293926
O O9 0.500000 0.764384 0.183897
O O10 0.678759 0.751368 0.214040
O O11 0.376365 0.500000 0.500000
#
# Coordination Sequence:
#
# PCOD9481904 Si02
#       6
#    16  16  16   4  16   8
#     4  11  23  39  65 100 138 170 211 268 338 399
#     4  11  25  42  67 100 127 166 228 275 324 392
#     4  11  23  42  67  94 129 173 216 274 328 383
#     4  12  24  40  62 104 134 168 216 262 330 414
#     4  11  22  41  68  98 133 171 212 269 336 395
#     4  12  24  46  66  90 130 180 222 268 328 392
#
# _framework density 19.089117000000002
#
# number of rings (size 3 to 8) (size 9 to 14) (size 15 to 20)
#    0.000    0.842    6.316    1.263    1.474    0.421 
#    0.000    0.000    4.632    0.000    0.000    0.000 
#    0.000    0.000    0.000    0.000    0.000    0.000 
#
# Total GULP energy -211766.025138 kJ/mol
# GULP energy per Si atom -5572.790135 kJ/mol
# Density = 1.904567 g / cm^3
# Si number density = 19.089117 Si / 1000 Ang^3
#
#
#
# Elastic Constant Matrix: (Units=GPa)
#
#
# Indices 1 2 3 4 5 6 
#
# 1 85.4675 -8.1072 24.4302 0.0000 0.0000 0.0000
# 2 -8.1072 19.7191 22.5551 0.0000 0.0000 0.0000
# 3 24.4302 22.5551 117.3023 0.0000 0.0000 0.0000
# 4 0.0000 0.0000 0.0000 34.4567 0.0000 0.0000
# 5 0.0000 0.0000 0.0000 0.0000 32.6599 0.0000
# 6 0.0000 0.0000 0.0000 0.0000 0.0000 5.2929
#
#
#
# Elastic Compliance Matrix: (Units=1/GPa)
#
#
# Indices 1 2 3 4 5 6 
#
# 1 0.014343 0.011940 -0.005283 0.000000 0.000000 0.000000
# 2 0.011940 0.074949 -0.016898 0.000000 0.000000 0.000000
# 3 -0.005283 -0.016898 0.012874 0.000000 0.000000 0.000000
# 4 0.000000 0.000000 0.000000 0.029022 0.000000 0.000000
# 5 0.000000 0.000000 0.000000 0.000000 0.030619 0.000000
# 6 0.000000 0.000000 0.000000 0.000000 0.000000 0.188933
#
#
# Mechanical properties :
#
#
# Convention : Reuss Voigt Hill
#
# Bulk Modulus (GPa) = 12.24228 33.36055 22.80141
# Shear Modulus (GPa) = 12.54859 26.72261 19.63560
#
# Velocity S-wave (km/s) = 2.56670 3.74557 3.21070
# Velocity P-wave (km/s) = 3.90014 6.01829 5.07104
#
# Compressibility (1/GPa) = 0.08168414
#
# Stress axis : x y z
#
# Youngs Moduli (GPa) = 69.72047 13.34234 77.67341
#
# Poissons Ratio (x) = -0.15930 0.41034
# Poissons Ratio (y) = -0.83244 1.31253
# Poissons Ratio (z) = 0.36833 0.22546
#
# Static dielectric constant tensor:
#      x y z
#    x 1.552110 0.000000 0.000000 
#    y 0.000000 1.631040 0.000000 
#    z 0.000000 0.000000 1.631300 
# 
# From -- ./inp_files/45001.got.cif
#   From: 2010.05.17/outbox.cif.g08.bks.cpg/sg64_23_cif.got.tgz:45001.got - 2010.06.03 16:29:19.
