data_PCOD9481408
_publ_section_title
;
Structure prediction by ZEFSAII (Michael W. Deem and Ramdas Pophale) SiO2 
 PCOD9481408
Probable space group: C M C A
;
_chemical_formula_sum "Si O2"
_cell_formula_units_Z 72
_cell_length_a 26.882304
_cell_length_b 8.439000
_cell_length_c 12.991630
_cell_angle_alpha 90.000000
_cell_angle_beta 90.000000
_cell_angle_gamma 90.000000
_cell_volume 2947.278109
_symmetry_space_group_name_H-M "C M C A"
_symmetry_group_IT_number 64
_symmetry_cell_setting 'orthorhombic'
loop_
_space_group_symop_operation_xyz
x,y,z
-x,1/2-y,1/2+z
x,-y,-z
-x,1/2+y,1/2-z
-x,-y,-z
x,1/2+y,1/2-z
-x,y,z
x,1/2-y,1/2+z
1/2+x,1/2+y,z
1/2-x,-y,1/2+z
1/2+x,1/2-y,-z
1/2-x,y,1/2-z
1/2-x,1/2-y,-z
1/2+x,y,1/2-z
1/2-x,1/2+y,z
1/2+x,-y,1/2+z
loop_
_atom_site_type_symbol
_atom_site_label
_atom_site_fract_x
_atom_site_fract_y
_atom_site_fract_z
Si Si1 0.250000 0.929823 0.750000
Si Si2 0.180571 0.306197 0.160767
Si Si3 0.375224 0.500000 0.500000
Si Si4 0.396940 0.260780 0.159159
Si Si5 0.500000 0.898216 0.257953
Si Si6 0.089160 0.500000 0.500000
Si Si7 0.000000 0.813694 0.902796
O O1 0.224544 0.821811 0.837265
O O2 0.207098 0.037579 0.704129
O O3 0.138926 0.249668 0.242550
O O4 0.156183 0.360960 0.055128
O O5 0.400361 0.597707 0.405895
O O6 0.450494 0.319109 0.197096
O O7 0.380255 0.409902 0.087207
O O8 0.500000 0.864466 0.136549
O O9 0.500000 0.074132 0.301886
O O10 0.050054 0.634000 0.460180
#
# Coordination Sequence:
#
# PCOD9481408 Si02
#       7
#     8  16   8  16   8   8   8
#     4  10  24  50  78  96 148 180 228 306 370 420
#     4  11  25  49  69 111 140 182 236 300 356 437
#     4  12  28  43  75 110 143 193 240 290 366 430
#     4  11  26  44  69 106 146 188 239 297 349 424
#     4  10  24  39  66  98 143 198 221 302 344 408
#     4   9  22  40  63  92 135 191 236 281 350 411
#     4   9  20  38  60  94 127 187 245 270 345 414
#
# _framework density 24.429317999999999
#
# number of rings (size 3 to 8) (size 9 to 14) (size 15 to 20)
#    0.000    1.556    2.222    0.667   12.444    1.333 
#    0.000    0.000    0.000    0.000    0.000    0.000 
#    0.000    0.000    0.000    0.000    0.000    0.000 
#
# Total GULP energy -201331.033437 kJ/mol
# GULP energy per Si atom -5592.528707 kJ/mol
# Density = 2.437372 g / cm^3
# Si number density = 24.429318 Si / 1000 Ang^3
#
#
#
# Elastic Constant Matrix: (Units=GPa)
#
#
# Indices 1 2 3 4 5 6 
#
# 1 67.1247 39.6410 11.2958 0.0000 0.0000 0.0000
# 2 39.6410 69.8627 22.2687 0.0000 0.0000 0.0000
# 3 11.2958 22.2687 70.8823 0.0000 0.0000 0.0000
# 4 0.0000 0.0000 0.0000 54.1432 0.0000 0.0000
# 5 0.0000 0.0000 0.0000 0.0000 11.3717 0.0000
# 6 0.0000 0.0000 0.0000 0.0000 0.0000 13.1966
#
#
#
# Elastic Compliance Matrix: (Units=1/GPa)
#
#
# Indices 1 2 3 4 5 6 
#
# 1 0.022420 -0.012871 0.000471 0.000000 0.000000 0.000000
# 2 -0.012871 0.023296 -0.005268 0.000000 0.000000 0.000000
# 3 0.000471 -0.005268 0.015688 0.000000 0.000000 0.000000
# 4 0.000000 0.000000 0.000000 0.018470 0.000000 0.000000
# 5 0.000000 0.000000 0.000000 0.000000 0.087937 0.000000
# 6 0.000000 0.000000 0.000000 0.000000 0.000000 0.075777
#
#
# Mechanical properties :
#
#
# Convention : Reuss Voigt Hill
#
# Bulk Modulus (GPa) = 38.36198 39.36454 38.86326
# Shear Modulus (GPa) = 17.38450 24.71993 21.05222
#
# Velocity S-wave (km/s) = 2.67052 3.18448 2.93876
# Velocity P-wave (km/s) = 5.02457 5.44701 5.24004
#
# Compressibility (1/GPa) = 0.02606748
#
# Stress axis : x y z
#
# Youngs Moduli (GPa) = 44.60377 42.92550 63.74396
#
# Poissons Ratio (x) = 0.55251 -0.03002
# Poissons Ratio (y) = 0.57411 0.33578
# Poissons Ratio (z) = -0.02100 0.22612
#
# Static dielectric constant tensor:
#      x y z
#    x 1.902130 0.000000 0.000000 
#    y 0.000000 1.988610 0.000000 
#    z 0.000000 0.000000 2.041910 
# 
# From -- ./inp_files/27873.got.cif
#   From: 2010.05.17/outbox.cif.g08.bks.cpg/sg64_14_cif.got.tgz:27873.got - 2010.06.03 16:29:19.
