data_PCOD9481414
_publ_section_title
;
Structure prediction by ZEFSAII (Michael W. Deem and Ramdas Pophale) SiO2 
 PCOD9481414
Probable space group: C M C A
;
_chemical_formula_sum "Si O2"
_cell_formula_units_Z 96
_cell_length_a 14.449224
_cell_length_b 23.584038
_cell_length_c 15.157399
_cell_angle_alpha 90.000000
_cell_angle_beta 90.000000
_cell_angle_gamma 90.000000
_cell_volume 5165.202740
_symmetry_space_group_name_H-M "C M C A"
_symmetry_group_IT_number 64
_symmetry_cell_setting 'orthorhombic'
loop_
_space_group_symop_operation_xyz
x,y,z
-x,1/2-y,1/2+z
x,-y,-z
-x,1/2+y,1/2-z
-x,-y,-z
x,1/2+y,1/2-z
-x,y,z
x,1/2-y,1/2+z
1/2+x,1/2+y,z
1/2-x,-y,1/2+z
1/2+x,1/2-y,-z
1/2-x,y,1/2-z
1/2-x,1/2-y,-z
1/2+x,y,1/2-z
1/2-x,1/2+y,z
1/2+x,-y,1/2+z
loop_
_atom_site_type_symbol
_atom_site_label
_atom_site_fract_x
_atom_site_fract_y
_atom_site_fract_z
Si Si1 0.298950 0.609988 0.161857
Si Si2 0.500000 0.140197 0.287377
Si Si3 0.203504 0.311941 0.497781
Si Si4 0.316586 0.507960 0.395688
Si Si5 0.302283 0.121399 0.841227
Si Si6 0.500000 0.584249 0.395669
Si Si7 0.000000 0.718181 0.448559
Si Si8 0.000000 0.150565 0.582910
O O1 0.250000 0.631004 0.250000
O O2 0.407659 0.610444 0.178214
O O3 0.263897 0.547609 0.140775
O O4 0.270069 0.651684 0.083689
O O5 0.500000 0.132897 0.180832
O O6 0.500000 0.198760 0.344502
O O7 0.250000 0.250000 0.500000
O O8 0.240606 0.348074 0.416016
O O9 0.092846 0.304629 0.505302
O O10 0.306377 0.500000 0.500000
O O11 0.311226 0.446280 0.353232
O O12 0.410846 0.543926 0.382314
O O13 0.250000 0.133970 0.750000
O O14 0.407341 0.142258 0.859282
O O15 0.500000 0.609586 0.495659
O O16 0.000000 0.785613 0.452446
#
# Coordination Sequence:
#
# PCOD9481414 Si02
#       8
#    16   8  16  16  16   8   8   8
#     4  11  22  41  66  95 134 169 219 273 330 397
#     4  10  24  40  62 105 131 168 229 273 329 397
#     4  11  23  44  67  96 133 180 223 272 329 398
#     4  12  22  42  68  99 132 175 222 279 341 399
#     4  12  27  44  67 100 138 177 225 278 346 403
#     4  12  22  40  72 104 128 168 232 287 337 391
#     4  10  24  44  68  98 140 174 224 276 328 398
#     4  12  23  47  66  97 136 176 226 283 331 401
#
# _framework density 18.585910999999999
#
# number of rings (size 3 to 8) (size 9 to 14) (size 15 to 20)
#    0.000    0.667    6.667    1.250    0.000    1.333 
#    3.000    1.250    0.000    0.000    0.000    0.000 
#    0.000    0.000    0.000    0.000    0.000    0.000 
#
# Total GULP energy -267980.878392 kJ/mol
# GULP energy per Si atom -5582.934966 kJ/mol
# Density = 1.854361 g / cm^3
# Si number density = 18.585911 Si / 1000 Ang^3
#
#
#
# Elastic Constant Matrix: (Units=GPa)
#
#
# Indices 1 2 3 4 5 6 
#
# 1 121.9662 50.4311 60.8195 0.0000 0.0000 0.0000
# 2 50.4311 100.7244 39.4870 0.0000 0.0000 0.0000
# 3 60.8195 39.4870 145.8354 0.0000 0.0000 0.0000
# 4 0.0000 0.0000 0.0000 6.2877 0.0000 0.0000
# 5 0.0000 0.0000 0.0000 0.0000 20.0066 0.0000
# 6 0.0000 0.0000 0.0000 0.0000 0.0000 25.9493
#
#
#
# Elastic Compliance Matrix: (Units=1/GPa)
#
#
# Indices 1 2 3 4 5 6 
#
# 1 0.011935 -0.004502 -0.003758 0.000000 0.000000 0.000000
# 2 -0.004502 0.012805 -0.001590 0.000000 0.000000 0.000000
# 3 -0.003758 -0.001590 0.008855 0.000000 0.000000 0.000000
# 4 0.000000 0.000000 0.000000 0.159040 0.000000 0.000000
# 5 0.000000 0.000000 0.000000 0.000000 0.049984 0.000000
# 6 0.000000 0.000000 0.000000 0.000000 0.000000 0.038537
#
#
# Mechanical properties :
#
#
# Convention : Reuss Voigt Hill
#
# Bulk Modulus (GPa) = 71.96938 74.44458 73.20698
# Shear Modulus (GPa) = 16.36734 24.96795 20.66764
#
# Velocity S-wave (km/s) = 2.97076 3.66919 3.33829
# Velocity P-wave (km/s) = 7.11153 7.62180 7.37108
#
# Compressibility (1/GPa) = 0.01389480
#
# Stress axis : x y z
#
# Youngs Moduli (GPa) = 83.78977 78.09191 112.93293
#
# Poissons Ratio (x) = 0.35158 0.42443
# Poissons Ratio (y) = 0.37723 0.17953
# Poissons Ratio (z) = 0.31490 0.12414
#
# Static dielectric constant tensor:
#      x y z
#    x 1.827060 0.000000 0.000000 
#    y 0.000000 1.632830 0.000000 
#    z 0.000000 0.000000 1.646630 
# 
# From -- ./inp_files/24030.got.cif
#   From: 2010.05.17/outbox.cif.g08.bks.cpg/sg64_13_cif.got.tgz:24030.got - 2010.06.03 16:29:19.
