data_PCOD9481199
_publ_section_title
;
Structure prediction by ZEFSAII (Michael W. Deem and Ramdas Pophale) SiO2 
 PCOD9481199
Probable space group: C M C A
;
_chemical_formula_sum "Si O2"
_cell_formula_units_Z 96
_cell_length_a 24.586278
_cell_length_b 14.009539
_cell_length_c 11.251920
_cell_angle_alpha 90.000000
_cell_angle_beta 90.000000
_cell_angle_gamma 90.000000
_cell_volume 3875.638560
_symmetry_space_group_name_H-M "C M C A"
_symmetry_group_IT_number 64
_symmetry_cell_setting 'orthorhombic'
loop_
_space_group_symop_operation_xyz
x,y,z
-x,1/2-y,1/2+z
x,-y,-z
-x,1/2+y,1/2-z
-x,-y,-z
x,1/2+y,1/2-z
-x,y,z
x,1/2-y,1/2+z
1/2+x,1/2+y,z
1/2-x,-y,1/2+z
1/2+x,1/2-y,-z
1/2-x,y,1/2-z
1/2-x,1/2-y,-z
1/2+x,y,1/2-z
1/2-x,1/2+y,z
1/2+x,-y,1/2+z
loop_
_atom_site_type_symbol
_atom_site_label
_atom_site_fract_x
_atom_site_fract_y
_atom_site_fract_z
Si Si1 0.163852 0.179626 0.803628
Si Si2 0.726196 0.502009 0.124198
Si Si3 0.000000 0.215404 0.379167
Si Si4 0.612339 0.057562 0.879683
Si Si5 0.113929 0.400297 0.528856
Si Si6 0.500000 0.667629 0.636470
Si Si7 0.891992 0.137592 0.274026
O O1 0.150133 0.141867 0.671444
O O2 0.158777 0.293535 0.803659
O O3 0.210906 0.109159 0.848353
O O4 0.118962 0.153811 0.904964
O O5 0.750000 0.537140 0.250000
O O6 0.674059 0.566892 0.081886
O O7 0.759797 0.500000 0.000000
O O8 0.000000 0.236345 0.519630
O O9 0.944332 0.157303 0.354876
O O10 0.000000 0.290728 0.270381
O O11 0.552689 0.100940 0.876620
O O12 0.619621 0.973885 0.783625
O O13 0.622242 0.000000 0.000000
O O14 0.084995 0.500000 0.500000
O O15 0.090639 0.342451 0.638428
#
# Coordination Sequence:
#
# PCOD9481199 Si02
#       7
#    16  16   8  16  16   8  16
#     4  10  23  40  64  96 130 168 220 269 326 401
#     4   9  19  42  69  99 133 169 214 270 331 402
#     4  12  27  40  64  96 133 185 228 284 328 386
#     4  12  23  40  62  92 128 172 221 278 331 389
#     4   9  20  42  63  91 129 168 217 268 327 394
#     4  12  26  45  60  96 137 171 238 287 333 394
#     4  12  23  41  65  92 129 178 222 275 336 374
#
# _framework density 24.770111
#
# number of rings (size 3 to 8) (size 9 to 14) (size 15 to 20)
#    0.000    1.667    6.667    0.750    4.667    0.667 
#    0.000    1.250    0.000    9.000    0.000    0.000 
#    0.000    0.000    0.000    0.000    0.000    0.000 
#
# Total GULP energy -267454.371356 kJ/mol
# GULP energy per Si atom -5571.966070 kJ/mol
# Density = 2.471373 g / cm^3
# Si number density = 24.770111 Si / 1000 Ang^3
#
#
#
# Elastic Constant Matrix: (Units=GPa)
#
#
# Indices 1 2 3 4 5 6 
#
# 1 70.4488 11.0137 16.3166 0.0000 0.0000 0.0000
# 2 11.0137 84.4758 22.6145 0.0000 0.0000 0.0000
# 3 16.3166 22.6145 172.9679 0.0000 0.0000 0.0000
# 4 0.0000 0.0000 0.0000 40.4006 0.0000 0.0000
# 5 0.0000 0.0000 0.0000 0.0000 28.6171 0.0000
# 6 0.0000 0.0000 0.0000 0.0000 0.0000 46.2970
#
#
#
# Elastic Compliance Matrix: (Units=1/GPa)
#
#
# Indices 1 2 3 4 5 6 
#
# 1 0.014718 -0.001603 -0.001179 0.000000 0.000000 0.000000
# 2 -0.001603 0.012442 -0.001475 0.000000 0.000000 0.000000
# 3 -0.001179 -0.001475 0.006086 0.000000 0.000000 0.000000
# 4 0.000000 0.000000 0.000000 0.024752 0.000000 0.000000
# 5 0.000000 0.000000 0.000000 0.000000 0.034944 0.000000
# 6 0.000000 0.000000 0.000000 0.000000 0.000000 0.021600
#
#
# Mechanical properties :
#
#
# Convention : Reuss Voigt Hill
#
# Bulk Modulus (GPa) = 40.43600 47.53135 43.98367
# Shear Modulus (GPa) = 38.08065 41.59277 39.83671
#
# Velocity S-wave (km/s) = 3.92518 4.10219 4.01466
# Velocity P-wave (km/s) = 6.07475 6.45507 6.26780
#
# Compressibility (1/GPa) = 0.02473044
#
# Stress axis : x y z
#
# Youngs Moduli (GPa) = 67.94219 80.37463 164.32436
#
# Poissons Ratio (x) = 0.12887 0.19371
# Poissons Ratio (y) = 0.10894 0.24245
# Poissons Ratio (z) = 0.08009 0.11859
#
# Static dielectric constant tensor:
#      x y z
#    x 2.060050 0.000000 0.000000 
#    y 0.000000 1.963470 0.000000 
#    z 0.000000 0.000000 2.128260 
# 
# From -- ./inp_files/19810.got.cif
#   From: 2010.05.17/outbox.cif.g08.bks.cpg/sg64_10_cif.got.tgz:19810.got - 2010.06.03 16:29:19.
