data_PCOD9481356
_publ_section_title
;
Structure prediction by ZEFSAII (Michael W. Deem and Ramdas Pophale) SiO2 
 PCOD9481356
Probable space group: C M C A
;
_chemical_formula_sum "Si O2"
_cell_formula_units_Z 48
_cell_length_a 16.007311
_cell_length_b 7.320580
_cell_length_c 16.473156
_cell_angle_alpha 90.000000
_cell_angle_beta 90.000000
_cell_angle_gamma 90.000000
_cell_volume 1930.370557
_symmetry_space_group_name_H-M "C M C A"
_symmetry_group_IT_number 64
_symmetry_cell_setting 'orthorhombic'
loop_
_space_group_symop_operation_xyz
x,y,z
-x,1/2-y,1/2+z
x,-y,-z
-x,1/2+y,1/2-z
-x,-y,-z
x,1/2+y,1/2-z
-x,y,z
x,1/2-y,1/2+z
1/2+x,1/2+y,z
1/2-x,-y,1/2+z
1/2+x,1/2-y,-z
1/2-x,y,1/2-z
1/2-x,1/2-y,-z
1/2+x,y,1/2-z
1/2-x,1/2+y,z
1/2+x,-y,1/2+z
loop_
_atom_site_type_symbol
_atom_site_label
_atom_site_fract_x
_atom_site_fract_y
_atom_site_fract_z
Si Si1 0.338938 0.356312 0.207001
Si Si2 0.594053 0.495327 0.366373
Si Si3 0.600623 0.626178 0.077337
O O1 0.250000 0.351219 0.250000
O O2 0.404188 0.385464 0.280423
O O3 0.350067 0.530166 0.149733
O O4 0.355327 0.177141 0.153442
O O5 0.500000 0.551421 0.388067
O O6 0.624323 0.339815 0.428719
O O7 0.500000 0.622842 0.092748
O O8 0.615570 0.500000 0.000000
#
# Coordination Sequence:
#
# PCOD9481356 Si02
#       3
#    16  16  16
#     4  12  24  39  67  99 137 175 226 284 341 408
#     4  11  22  39  68  96 128 178 231 279 333 409
#     4  10  23  44  71 104 139 179 234 293 345 408
#
# _framework density 24.865691999999999
#
# number of rings (size 3 to 8) (size 9 to 14) (size 15 to 20)
#    0.000    1.000    3.333    4.000    0.000    2.667 
#    0.000    6.667    0.000    0.000    0.000    0.000 
#    0.000    0.000    0.000    0.000    0.000    0.000 
#
# Total GULP energy -134413.554209 kJ/mol
# GULP energy per Si atom -5600.564759 kJ/mol
# Density = 2.480910 g / cm^3
# Si number density = 24.865692 Si / 1000 Ang^3
#
#
#
# Elastic Constant Matrix: (Units=GPa)
#
#
# Indices 1 2 3 4 5 6 
#
# 1 69.1833 38.1086 14.4430 0.0000 0.0000 0.0000
# 2 38.1086 179.3203 13.7590 0.0000 0.0000 0.0000
# 3 14.4430 13.7590 37.0057 0.0000 0.0000 0.0000
# 4 0.0000 0.0000 0.0000 49.7513 0.0000 0.0000
# 5 0.0000 0.0000 0.0000 0.0000 16.1795 0.0000
# 6 0.0000 0.0000 0.0000 0.0000 0.0000 34.0096
#
#
#
# Elastic Compliance Matrix: (Units=1/GPa)
#
#
# Indices 1 2 3 4 5 6 
#
# 1 0.017424 -0.003274 -0.005583 0.000000 0.000000 0.000000
# 2 -0.003274 0.006356 -0.001085 0.000000 0.000000 0.000000
# 3 -0.005583 -0.001085 0.029605 0.000000 0.000000 0.000000
# 4 0.000000 0.000000 0.000000 0.020100 0.000000 0.000000
# 5 0.000000 0.000000 0.000000 0.000000 0.061807 0.000000
# 6 0.000000 0.000000 0.000000 0.000000 0.000000 0.029403
#
#
# Mechanical properties :
#
#
# Convention : Reuss Voigt Hill
#
# Bulk Modulus (GPa) = 29.85090 46.45893 38.15491
# Shear Modulus (GPa) = 25.54333 34.60134 30.07234
#
# Velocity S-wave (km/s) = 3.20855 3.73437 3.48140
# Velocity P-wave (km/s) = 5.07517 6.10889 5.61586
#
# Compressibility (1/GPa) = 0.03349983
#
# Stress axis : x y z
#
# Youngs Moduli (GPa) = 57.39369 157.33799 33.77779
#
# Poissons Ratio (x) = 0.51519 0.18857
# Poissons Ratio (y) = 0.18793 0.03665
# Poissons Ratio (z) = 0.32042 0.17073
#
# Static dielectric constant tensor:
#      x y z
#    x 1.940300 0.000000 0.000000 
#    y 0.000000 1.980570 0.000000 
#    z 0.000000 0.000000 2.018160 
# 
# From -- ./inp_files/31413.got.cif
#   From: 2010.05.17/outbox.cif.g08.bks.cpg/sg64_16_cif.got.tgz:31413.got - 2010.06.03 16:29:19.
