data_PCOD9481321
_publ_section_title
;
Structure prediction by ZEFSAII (Michael W. Deem and Ramdas Pophale) SiO2 
 PCOD9481321
Probable space group: C M C A
;
_chemical_formula_sum "Si O2"
_cell_formula_units_Z 72
_cell_length_a 23.621178
_cell_length_b 8.295975
_cell_length_c 13.884256
_cell_angle_alpha 90.000000
_cell_angle_beta 90.000000
_cell_angle_gamma 90.000000
_cell_volume 2720.768555
_symmetry_space_group_name_H-M "C M C A"
_symmetry_group_IT_number 64
_symmetry_cell_setting 'orthorhombic'
loop_
_space_group_symop_operation_xyz
x,y,z
-x,1/2-y,1/2+z
x,-y,-z
-x,1/2+y,1/2-z
-x,-y,-z
x,1/2+y,1/2-z
-x,y,z
x,1/2-y,1/2+z
1/2+x,1/2+y,z
1/2-x,-y,1/2+z
1/2+x,1/2-y,-z
1/2-x,y,1/2-z
1/2-x,1/2-y,-z
1/2+x,y,1/2-z
1/2-x,1/2+y,z
1/2+x,-y,1/2+z
loop_
_atom_site_type_symbol
_atom_site_label
_atom_site_fract_x
_atom_site_fract_y
_atom_site_fract_z
Si Si1 0.894474 0.878857 0.573527
Si Si2 0.000000 0.298225 0.672114
Si Si3 0.924500 0.391428 0.302037
Si Si4 0.192644 0.322777 0.542609
Si Si5 0.311869 0.410936 0.290631
O O1 0.935896 0.769676 0.636407
O O2 0.861855 0.758092 0.503839
O O3 0.923947 0.000000 0.500000
O O4 0.844471 0.966290 0.636142
O O5 0.048784 0.160819 0.699944
O O6 0.048632 0.443361 0.661871
O O7 0.857278 0.399376 0.294376
O O8 0.193167 0.500000 0.500000
O O9 0.250000 0.250000 0.500000
O O10 0.192416 0.259692 0.652782
O O11 0.250000 0.450746 0.250000
#
# Coordination Sequence:
#
# PCOD9481321 Si02
#       5
#    16   8  16  16  16
#     4  10  23  43  67  99 142 177 220 281 348 408
#     4  10  24  42  68  97 133 180 235 289 332 390
#     4  11  22  44  71  98 136 178 236 285 338 403
#     4  11  24  41  63  93 144 181 216 273 341 413
#     4  11  24  42  70 105 136 177 226 278 346 412
#
# _framework density 26.463111000000001
#
# number of rings (size 3 to 8) (size 9 to 14) (size 15 to 20)
#    0.000    1.333    2.222    3.333    3.111    4.444 
#    0.000    3.333    0.000    5.333    0.000    0.000 
#    0.000    0.000    0.000    0.000    0.000    0.000 
#
# Total GULP energy -200473.118536 kJ/mol
# GULP energy per Si atom -5568.697737 kJ/mol
# Density = 2.640288 g / cm^3
# Si number density = 26.463111 Si / 1000 Ang^3
#
#
#
# Elastic Constant Matrix: (Units=GPa)
#
#
# Indices 1 2 3 4 5 6 
#
# 1 161.5887 1.3578 15.7022 0.0000 0.0000 0.0000
# 2 1.3578 92.1330 -2.7792 0.0000 0.0000 0.0000
# 3 15.7022 -2.7792 67.6308 0.0000 0.0000 0.0000
# 4 0.0000 0.0000 0.0000 38.7634 0.0000 0.0000
# 5 0.0000 0.0000 0.0000 0.0000 -170.8886 0.0000
# 6 0.0000 0.0000 0.0000 0.0000 0.0000 45.3917
#
#
#
# Elastic Compliance Matrix: (Units=1/GPa)
#
#
# Indices 1 2 3 4 5 6 
#
# 1 0.006333 -0.000138 -0.001476 0.000000 0.000000 0.000000
# 2 -0.000138 0.010870 0.000479 0.000000 0.000000 0.000000
# 3 -0.001476 0.000479 0.015149 0.000000 0.000000 0.000000
# 4 0.000000 0.000000 0.000000 0.025798 0.000000 0.000000
# 5 0.000000 0.000000 0.000000 0.000000 -0.005852 0.000000
# 6 0.000000 0.000000 0.000000 0.000000 0.000000 0.022030
#
#
# Mechanical properties :
#
#
# Convention : Reuss Voigt Hill
#
# Bulk Modulus (GPa) = 33.24291 38.87935 36.06113
# Shear Modulus (GPa) = 57.71945 3.12473 30.42209
#
# Velocity S-wave (km/s) = 4.67532 1.08782 3.39426
# Velocity P-wave (km/s) = 6.46019 4.03752 5.38682
#
# Compressibility (1/GPa) = 0.03008161
#
# Stress axis : x y z
#
# Youngs Moduli (GPa) = 157.89939 91.99339 66.01292
#
# Poissons Ratio (x) = 0.01268 0.09744
# Poissons Ratio (y) = 0.02177 -0.03160
# Poissons Ratio (z) = 0.23307 -0.04404
#
# Static dielectric constant tensor:
#      x y z
#    x 1.733000 0.000000 0.000000 
#    y 0.000000 2.112870 0.000000 
#    z 0.000000 0.000000 2.293300 
# 
# From -- ./inp_files/27826.got.cif
#   From: 2010.05.17/outbox.cif.g08.bks.cpg/sg64_14_cif.got.tgz:27826.got - 2010.06.03 16:29:19.
