data_PCOD9481466
_publ_section_title
;
Structure prediction by ZEFSAII (Michael W. Deem and Ramdas Pophale) SiO2 
 PCOD9481466
Probable space group: C M C A
;
_chemical_formula_sum "Si O2"
_cell_formula_units_Z 56
_cell_length_a 23.493074
_cell_length_b 9.008777
_cell_length_c 9.577794
_cell_angle_alpha 90.000000
_cell_angle_beta 90.000000
_cell_angle_gamma 90.000000
_cell_volume 2027.081338
_symmetry_space_group_name_H-M "C M C A"
_symmetry_group_IT_number 64
_symmetry_cell_setting 'orthorhombic'
loop_
_space_group_symop_operation_xyz
x,y,z
-x,1/2-y,1/2+z
x,-y,-z
-x,1/2+y,1/2-z
-x,-y,-z
x,1/2+y,1/2-z
-x,y,z
x,1/2-y,1/2+z
1/2+x,1/2+y,z
1/2-x,-y,1/2+z
1/2+x,1/2-y,-z
1/2-x,y,1/2-z
1/2-x,1/2-y,-z
1/2+x,y,1/2-z
1/2-x,1/2+y,z
1/2+x,-y,1/2+z
loop_
_atom_site_type_symbol
_atom_site_label
_atom_site_fract_x
_atom_site_fract_y
_atom_site_fract_z
Si Si1 0.322371 0.704194 0.892117
Si Si2 0.400834 0.670381 0.158627
Si Si3 0.500000 0.325293 0.504332
Si Si4 0.750000 0.947195 0.750000
Si Si5 0.000000 0.451523 0.338582
O O1 0.350482 0.332979 0.958892
O O2 0.372854 0.765038 0.795511
O O3 0.295280 0.560783 0.817237
O O4 0.276653 0.839356 0.870214
O O5 0.445270 0.776476 0.082160
O O6 0.439580 0.526970 0.201699
O O7 0.500000 0.500000 0.500000
O O8 0.500000 0.226530 0.645201
O O9 0.000000 0.500000 0.500000
#
# Coordination Sequence:
#
# PCOD9481466 Si02
#       5
#    16  16   8   8   8
#     4  11  26  45  70 100 138 189 230 303 338 416
#     4  10  24  45  72  99 145 183 229 279 365 402
#     4  10  24  42  70 118 134 180 226 288 340 458
#     4  10  28  44  68 102 136 180 256 284 348 402
#     4   8  20  42  70 106 136 186 222 284 342 452
#
# _framework density 27.625924000000001
#
# number of rings (size 3 to 8) (size 9 to 14) (size 15 to 20)
#    0.000    2.286    0.000    0.000   16.000   11.429 
#    0.000    8.571    0.000    0.000    0.000    0.000 
#    0.000    0.000    0.000    0.000    0.000    0.000 
#
# Total GULP energy -156838.837366 kJ/mol
# GULP energy per Si atom -5601.387049 kJ/mol
# Density = 2.756305 g / cm^3
# Si number density = 27.625924 Si / 1000 Ang^3
#
#
#
# Elastic Constant Matrix: (Units=GPa)
#
#
# Indices 1 2 3 4 5 6 
#
# 1 189.0992 83.8982 44.1423 0.0000 0.0000 0.0000
# 2 83.8982 233.3692 43.5418 0.0000 0.0000 0.0000
# 3 44.1423 43.5418 125.7590 0.0000 0.0000 0.0000
# 4 0.0000 0.0000 0.0000 48.3677 0.0000 0.0000
# 5 0.0000 0.0000 0.0000 0.0000 36.8676 0.0000
# 6 0.0000 0.0000 0.0000 0.0000 0.0000 50.0674
#
#
#
# Elastic Compliance Matrix: (Units=1/GPa)
#
#
# Indices 1 2 3 4 5 6 
#
# 1 0.006577 -0.002067 -0.001593 0.000000 0.000000 0.000000
# 2 -0.002067 0.005231 -0.001085 0.000000 0.000000 0.000000
# 3 -0.001593 -0.001085 0.008887 0.000000 0.000000 0.000000
# 4 0.000000 0.000000 0.000000 0.020675 0.000000 0.000000
# 5 0.000000 0.000000 0.000000 0.000000 0.027124 0.000000
# 6 0.000000 0.000000 0.000000 0.000000 0.000000 0.019973
#
#
# Mechanical properties :
#
#
# Convention : Reuss Voigt Hill
#
# Bulk Modulus (GPa) = 89.25875 99.04357 94.15116
# Shear Modulus (GPa) = 49.16774 52.17022 50.66898
#
# Velocity S-wave (km/s) = 4.22331 4.35035 4.28730
# Velocity P-wave (km/s) = 7.49411 7.82071 7.65915
#
# Compressibility (1/GPa) = 0.01120338
#
# Stress axis : x y z
#
# Youngs Moduli (GPa) = 152.03775 191.17474 112.52857
#
# Poissons Ratio (x) = 0.39523 0.17925
# Poissons Ratio (y) = 0.31432 0.12214
# Poissons Ratio (z) = 0.24218 0.20750
#
# Static dielectric constant tensor:
#      x y z
#    x 2.234210 0.000000 0.000000 
#    y 0.000000 2.261640 0.000000 
#    z 0.000000 0.000000 2.185500 
# 
# From -- ./inp_files/33852.got.cif
#   From: 2010.05.17/outbox.cif.g08.bks.cpg/sg64_17_cif.got.tgz:33852.got - 2010.06.03 16:29:19.
