data_PCOD9481588
_publ_section_title
;
Structure prediction by ZEFSAII (Michael W. Deem and Ramdas Pophale) SiO2 
 PCOD9481588
Probable space group: C M C A
;
_chemical_formula_sum "Si O2"
_cell_formula_units_Z 64
_cell_length_a 10.344726
_cell_length_b 9.038697
_cell_length_c 32.046035
_cell_angle_alpha 90.000000
_cell_angle_beta 90.000000
_cell_angle_gamma 90.000000
_cell_volume 2996.395407
_symmetry_space_group_name_H-M "C M C A"
_symmetry_group_IT_number 64
_symmetry_cell_setting 'orthorhombic'
loop_
_space_group_symop_operation_xyz
x,y,z
-x,1/2-y,1/2+z
x,-y,-z
-x,1/2+y,1/2-z
-x,-y,-z
x,1/2+y,1/2-z
-x,y,z
x,1/2-y,1/2+z
1/2+x,1/2+y,z
1/2-x,-y,1/2+z
1/2+x,1/2-y,-z
1/2-x,y,1/2-z
1/2-x,1/2-y,-z
1/2+x,y,1/2-z
1/2-x,1/2+y,z
1/2+x,-y,1/2+z
loop_
_atom_site_type_symbol
_atom_site_label
_atom_site_fract_x
_atom_site_fract_y
_atom_site_fract_z
Si Si1 0.000000 0.414535 0.957647
Si Si2 0.727152 0.022793 0.901856
Si Si3 0.141756 0.514845 0.714885
Si Si4 0.000000 0.561117 0.548780
Si Si5 0.742172 0.729119 0.158892
O O1 0.871253 0.471793 0.936066
O O2 0.000000 0.237821 0.957404
O O3 0.000000 0.500000 0.000000
O O4 0.693073 0.180224 0.881218
O O5 0.871753 0.022898 0.922672
O O6 0.695895 0.911474 0.863594
O O7 0.250000 0.514853 0.750000
O O8 0.170552 0.652581 0.683708
O O9 0.149474 0.357204 0.690840
O O10 0.000000 0.533410 0.733214
O O11 0.000000 0.500000 0.500000
#
# Coordination Sequence:
#
# PCOD9481588 Si02
#       5
#     8  16  16   8  16
#     4  12  28  46  72 108 141 190 242 288 353 434
#     4  11  25  46  73 104 144 188 242 291 349 419
#     4  11  26  48  72 106 146 186 232 291 359 424
#     4  12  28  48  70 104 153 186 234 302 359 420
#     4  10  25  43  72 102 141 188 232 291 347 412
#
# _framework density 21.358996000000001
#
# number of rings (size 3 to 8) (size 9 to 14) (size 15 to 20)
#    0.000    1.000    2.500    1.500   14.000    6.000 
#    4.500    0.000    0.000    0.000    0.000    0.000 
#    0.000    0.000    0.000    0.000    0.000    0.000 
#
# Total GULP energy -178301.265891 kJ/mol
# GULP energy per Si atom -5571.914559 kJ/mol
# Density = 2.131038 g / cm^3
# Si number density = 21.358996 Si / 1000 Ang^3
#
#
#
# Elastic Constant Matrix: (Units=GPa)
#
#
# Indices 1 2 3 4 5 6 
#
# 1 168.2065 46.0416 66.7687 0.0000 0.0000 0.0000
# 2 46.0416 106.2313 17.0319 0.0000 0.0000 0.0000
# 3 66.7687 17.0319 99.5393 0.0000 0.0000 0.0000
# 4 0.0000 0.0000 0.0000 34.6314 0.0000 0.0000
# 5 0.0000 0.0000 0.0000 0.0000 11.1414 0.0000
# 6 0.0000 0.0000 0.0000 0.0000 0.0000 4.9343
#
#
#
# Elastic Compliance Matrix: (Units=1/GPa)
#
#
# Indices 1 2 3 4 5 6 
#
# 1 0.008943 -0.002996 -0.005486 0.000000 0.000000 0.000000
# 2 -0.002996 0.010683 0.000182 0.000000 0.000000 0.000000
# 3 -0.005486 0.000182 0.013695 0.000000 0.000000 0.000000
# 4 0.000000 0.000000 0.000000 0.028876 0.000000 0.000000
# 5 0.000000 0.000000 0.000000 0.000000 0.089756 0.000000
# 6 0.000000 0.000000 0.000000 0.000000 0.000000 0.202662
#
#
# Mechanical properties :
#
#
# Convention : Reuss Voigt Hill
#
# Bulk Modulus (GPa) = 59.80845 70.40684 65.10765
# Shear Modulus (GPa) = 13.27007 26.41708 19.84358
#
# Velocity S-wave (km/s) = 2.49527 3.52065 3.05134
# Velocity P-wave (km/s) = 6.03027 7.04001 6.55461
#
# Compressibility (1/GPa) = 0.01672004
#
# Stress axis : x y z
#
# Youngs Moduli (GPa) = 111.82095 93.60759 73.01926
#
# Poissons Ratio (x) = 0.28048 0.40058
# Poissons Ratio (y) = 0.33506 -0.01329
# Poissons Ratio (z) = 0.61345 -0.01703
#
# Static dielectric constant tensor:
#      x y z
#    x 1.785070 0.000000 0.000000 
#    y 0.000000 1.796940 0.000000 
#    z 0.000000 0.000000 1.747770 
# 
# From -- ./inp_files/52467.got.cif
#   From: 2010.05.17/outbox.cif.g08.bks.cpg/sg64_27_cif.got.tgz:52467.got - 2010.06.03 16:29:19.
