data_PCOD9481648
_publ_section_title
;
Structure prediction by ZEFSAII (Michael W. Deem and Ramdas Pophale) SiO2 
 PCOD9481648
Probable space group: C M C A
;
_chemical_formula_sum "Si O2"
_cell_formula_units_Z 80
_cell_length_a 10.386971
_cell_length_b 22.513174
_cell_length_c 19.922823
_cell_angle_alpha 90.000000
_cell_angle_beta 90.000000
_cell_angle_gamma 90.000000
_cell_volume 4658.826355
_symmetry_space_group_name_H-M "C M C A"
_symmetry_group_IT_number 64
_symmetry_cell_setting 'orthorhombic'
loop_
_space_group_symop_operation_xyz
x,y,z
-x,1/2-y,1/2+z
x,-y,-z
-x,1/2+y,1/2-z
-x,-y,-z
x,1/2+y,1/2-z
-x,y,z
x,1/2-y,1/2+z
1/2+x,1/2+y,z
1/2-x,-y,1/2+z
1/2+x,1/2-y,-z
1/2-x,y,1/2-z
1/2-x,1/2-y,-z
1/2+x,y,1/2-z
1/2-x,1/2+y,z
1/2+x,-y,1/2+z
loop_
_atom_site_type_symbol
_atom_site_label
_atom_site_fract_x
_atom_site_fract_y
_atom_site_fract_z
Si Si1 0.500000 0.781974 0.898039
Si Si2 0.000000 0.824115 0.446788
Si Si3 0.262064 0.347331 0.670631
Si Si4 0.000000 0.352029 0.443798
Si Si5 0.000000 0.690143 0.401888
Si Si6 0.230560 0.413992 0.057136
Si Si7 0.845369 0.542399 0.090633
O O1 0.625915 0.805808 0.860032
O O2 0.500000 0.711098 0.905983
O O3 0.500000 0.809546 0.973340
O O4 0.000000 0.761320 0.409601
O O5 0.874957 0.863168 0.430273
O O6 0.250000 0.340873 0.750000
O O7 0.301476 0.414112 0.649474
O O8 0.127521 0.330935 0.635994
O O9 0.000000 0.336208 0.522994
O O10 0.871630 0.389043 0.429338
O O11 0.199086 0.474452 0.096593
O O12 0.213579 0.431714 0.978593
O O13 0.000000 0.543570 0.083531
#
# Coordination Sequence:
#
# PCOD9481648 Si02
#       7
#     8   8  16   8   8  16  16
#     4  11  21  39  57  85 121 152 190 234 305 343
#     4  11  18  36  62  84 119 148 189 243 290 362
#     4  12  23  39  59  82 119 155 200 236 276 354
#     4  11  22  34  58  90 125 142 179 261 300 340
#     4  11  23  35  55  93 115 150 196 236 299 337
#     4  11  19  34  58  89 117 147 183 239 297 350
#     4  11  20  36  59  84 117 154 192 228 293 350
#
# _framework density 17.171707000000001
#
# number of rings (size 3 to 8) (size 9 to 14) (size 15 to 20)
#    0.000    0.800    7.000    2.400    0.000    5.600 
#    0.000    0.000    0.000    7.200    0.000    0.000 
#    0.000    0.000    0.000    0.000    0.000    0.000 
#
# Total GULP energy -223524.830912 kJ/mol
# GULP energy per Si atom -5588.120773 kJ/mol
# Density = 1.713262 g / cm^3
# Si number density = 17.171707 Si / 1000 Ang^3
#
#
#
# Elastic Constant Matrix: (Units=GPa)
#
#
# Indices 1 2 3 4 5 6 
#
# 1 180.4016 85.7260 40.0334 0.0000 0.0000 0.0000
# 2 85.7260 146.3313 41.6219 0.0000 0.0000 0.0000
# 3 40.0334 41.6219 73.9319 0.0000 0.0000 0.0000
# 4 0.0000 0.0000 0.0000 13.7000 0.0000 0.0000
# 5 0.0000 0.0000 0.0000 0.0000 0.8670 0.0000
# 6 0.0000 0.0000 0.0000 0.0000 0.0000 14.3495
#
#
#
# Elastic Compliance Matrix: (Units=1/GPa)
#
#
# Indices 1 2 3 4 5 6 
#
# 1 0.007922 -0.004073 -0.001997 0.000000 0.000000 0.000000
# 2 -0.004073 0.010231 -0.003554 0.000000 0.000000 0.000000
# 3 -0.001997 -0.003554 0.016608 0.000000 0.000000 0.000000
# 4 0.000000 0.000000 0.000000 0.072993 0.000000 0.000000
# 5 0.000000 0.000000 0.000000 0.000000 1.153439 0.000000
# 6 0.000000 0.000000 0.000000 0.000000 0.000000 0.069689
#
#
# Mechanical properties :
#
#
# Convention : Reuss Voigt Hill
#
# Bulk Modulus (GPa) = 64.46179 81.71417 73.08798
# Shear Modulus (GPa) = 3.68922 21.33550 12.51236
#
# Velocity S-wave (km/s) = 1.46734 3.52871 2.70230
# Velocity P-wave (km/s) = 6.36332 8.01824 7.23823
#
# Compressibility (1/GPa) = 0.01551307
#
# Stress axis : x y z
#
# Youngs Moduli (GPa) = 126.23592 97.74389 60.21177
#
# Poissons Ratio (x) = 0.39810 0.12022
# Poissons Ratio (y) = 0.51415 0.21401
# Poissons Ratio (z) = 0.25204 0.34741
#
# Static dielectric constant tensor:
#      x y z
#    x 1.563250 0.000000 0.000000 
#    y 0.000000 1.583290 0.000000 
#    z 0.000000 0.000000 1.551690 
# 
# From -- ./inp_files/36744.got.cif
#   From: 2010.05.17/outbox.cif.g08.bks.cpg/sg64_19_cif.got.tgz:36744.got - 2010.06.03 16:29:19.
