data_PCOD9481477
_publ_section_title
;
Structure prediction by ZEFSAII (Michael W. Deem and Ramdas Pophale) SiO2 
 PCOD9481477
Probable space group: C M C A
;
_chemical_formula_sum "Si O2"
_cell_formula_units_Z 64
_cell_length_a 18.845733
_cell_length_b 14.997044
_cell_length_c 10.529246
_cell_angle_alpha 90.000000
_cell_angle_beta 90.000000
_cell_angle_gamma 90.000000
_cell_volume 2975.883819
_symmetry_space_group_name_H-M "C M C A"
_symmetry_group_IT_number 64
_symmetry_cell_setting 'orthorhombic'
loop_
_space_group_symop_operation_xyz
x,y,z
-x,1/2-y,1/2+z
x,-y,-z
-x,1/2+y,1/2-z
-x,-y,-z
x,1/2+y,1/2-z
-x,y,z
x,1/2-y,1/2+z
1/2+x,1/2+y,z
1/2-x,-y,1/2+z
1/2+x,1/2-y,-z
1/2-x,y,1/2-z
1/2-x,1/2-y,-z
1/2+x,y,1/2-z
1/2-x,1/2+y,z
1/2+x,-y,1/2+z
loop_
_atom_site_type_symbol
_atom_site_label
_atom_site_fract_x
_atom_site_fract_y
_atom_site_fract_z
Si Si1 0.579579 0.400117 0.526409
Si Si2 0.920292 0.904198 0.825355
Si Si3 0.806494 0.548420 0.633688
Si Si4 0.168519 0.775920 0.997946
O O1 0.606838 0.500000 0.500000
O O2 0.500000 0.394812 0.469188
O O3 0.573575 0.389030 0.676797
O O4 0.627594 0.317374 0.490019
O O5 0.000000 0.901356 0.881466
O O6 0.879751 0.997157 0.839838
O O7 0.866747 0.833042 0.885595
O O8 0.780504 0.500000 0.500000
O O9 0.750000 0.539361 0.750000
O O10 0.830376 0.650632 0.611353
O O11 0.250000 0.750000 0.000000
#
# Coordination Sequence:
#
# PCOD9481477 Si02
#       4
#    16  16  16  16
#     4  10  24  43  66  96 139 188 235 291 351 420
#     4  10  24  44  69 100 137 183 236 292 351 424
#     4  10  25  44  70 104 138 185 228 294 357 425
#     4  11  26  40  67 103 136 185 229 294 352 424
#
# _framework density 21.506215999999998
#
# number of rings (size 3 to 8) (size 9 to 14) (size 15 to 20)
#    0.000    1.750    0.000    0.750   14.000    5.500 
#    0.000    5.000    0.000    0.000    0.000    0.000 
#    0.000    0.000    0.000    0.000    0.000    0.000 
#
# Total GULP energy -178345.024344 kJ/mol
# GULP energy per Si atom -5573.282011 kJ/mol
# Density = 2.145727 g / cm^3
# Si number density = 21.506216 Si / 1000 Ang^3
#
#
#
# Elastic Constant Matrix: (Units=GPa)
#
#
# Indices 1 2 3 4 5 6 
#
# 1 102.1831 68.2326 6.9782 0.0000 0.0000 0.0000
# 2 68.2326 189.0723 0.8446 0.0000 0.0000 0.0000
# 3 6.9782 0.8446 53.2695 0.0000 0.0000 0.0000
# 4 0.0000 0.0000 0.0000 18.9781 0.0000 0.0000
# 5 0.0000 0.0000 0.0000 0.0000 22.1575 0.0000
# 6 0.0000 0.0000 0.0000 0.0000 0.0000 49.0218
#
#
#
# Elastic Compliance Matrix: (Units=1/GPa)
#
#
# Indices 1 2 3 4 5 6 
#
# 1 0.013034 -0.004696 -0.001633 0.000000 0.000000 0.000000
# 2 -0.004696 0.006982 0.000505 0.000000 0.000000 0.000000
# 3 -0.001633 0.000505 0.018978 0.000000 0.000000 0.000000
# 4 0.000000 0.000000 0.000000 0.052692 0.000000 0.000000
# 5 0.000000 0.000000 0.000000 0.000000 0.045131 0.000000
# 6 0.000000 0.000000 0.000000 0.000000 0.000000 0.020399
#
#
# Mechanical properties :
#
#
# Convention : Reuss Voigt Hill
#
# Bulk Modulus (GPa) = 36.57081 55.18174 45.87628
# Shear Modulus (GPa) = 28.09289 35.92945 32.01117
#
# Velocity S-wave (km/s) = 3.61815 4.09180 3.86224
# Velocity P-wave (km/s) = 5.87336 6.93094 6.42395
#
# Compressibility (1/GPa) = 0.02734421
#
# Stress axis : x y z
#
# Youngs Moduli (GPa) = 76.72318 143.23436 52.69153
#
# Poissons Ratio (x) = 0.67268 0.08604
# Poissons Ratio (y) = 0.36032 -0.02658
# Poissons Ratio (z) = 0.12528 -0.07227
#
# Static dielectric constant tensor:
#      x y z
#    x 1.804720 0.000000 0.000000 
#    y 0.000000 2.022730 0.000000 
#    z 0.000000 0.000000 1.858050 
# 
# From -- ./inp_files/15457.got.cif
#   From: 2010.05.17/outbox.cif.g08.bks.cpg/sg64_8_cif.got.tgz:15457.got - 2010.06.03 16:29:19.
