data_PCOD9481206
_publ_section_title
;
Structure prediction by ZEFSAII (Michael W. Deem and Ramdas Pophale) SiO2 
 PCOD9481206
Probable space group: C M C A
;
_chemical_formula_sum "Si O2"
_cell_formula_units_Z 72
_cell_length_a 25.296280
_cell_length_b 8.128762
_cell_length_c 18.358577
_cell_angle_alpha 90.000000
_cell_angle_beta 90.000000
_cell_angle_gamma 90.000000
_cell_volume 3775.027183
_symmetry_space_group_name_H-M "C M C A"
_symmetry_group_IT_number 64
_symmetry_cell_setting 'orthorhombic'
loop_
_space_group_symop_operation_xyz
x,y,z
-x,1/2-y,1/2+z
x,-y,-z
-x,1/2+y,1/2-z
-x,-y,-z
x,1/2+y,1/2-z
-x,y,z
x,1/2-y,1/2+z
1/2+x,1/2+y,z
1/2-x,-y,1/2+z
1/2+x,1/2-y,-z
1/2-x,y,1/2-z
1/2-x,1/2-y,-z
1/2+x,y,1/2-z
1/2-x,1/2+y,z
1/2+x,-y,1/2+z
loop_
_atom_site_type_symbol
_atom_site_label
_atom_site_fract_x
_atom_site_fract_y
_atom_site_fract_z
Si Si1 0.879768 0.674947 0.274177
Si Si2 0.562417 0.045797 0.848051
Si Si3 0.621779 0.000000 0.000000
Si Si4 0.299580 0.581372 0.804631
Si Si5 0.196289 0.682529 0.532465
O O1 0.922453 0.771481 0.321232
O O2 0.909056 0.572995 0.210858
O O3 0.839449 0.800188 0.237141
O O4 0.838173 0.570961 0.321042
O O5 0.500000 0.018181 0.847775
O O6 0.586975 0.022083 0.927573
O O7 0.655059 0.831126 0.984572
O O8 0.250000 0.546197 0.750000
O O9 0.288883 0.661692 0.882129
O O10 0.182772 0.500000 0.500000
O O11 0.250000 0.750000 0.500000
#
# Coordination Sequence:
#
# PCOD9481206 Si02
#       5
#    16  16   8  16  16
#     4  10  23  40  67  94 129 166 223 277 324 402
#     4  11  23  44  69  94 127 174 226 282 338 387
#     4  12  25  46  68 100 136 176 223 276 340 400
#     4  11  24  39  64  96 129 172 215 264 329 404
#     4  12  27  41  65  97 140 178 214 267 336 409
#
# _framework density 19.072711000000002
#
# number of rings (size 3 to 8) (size 9 to 14) (size 15 to 20)
#    0.000    0.889    3.333    3.000   12.444    0.000 
#    0.000    0.000    0.000    2.667    0.000    0.000 
#    0.000    0.000    0.000    0.000    0.000    0.000 
#
# Total GULP energy -200719.119397 kJ/mol
# GULP energy per Si atom -5575.531094 kJ/mol
# Density = 1.902930 g / cm^3
# Si number density = 19.072711 Si / 1000 Ang^3
#
#
#
# Elastic Constant Matrix: (Units=GPa)
#
#
# Indices 1 2 3 4 5 6 
#
# 1 137.5720 44.0755 58.6652 0.0000 0.0000 0.0000
# 2 44.0755 97.3012 28.7239 0.0000 0.0000 0.0000
# 3 58.6652 28.7239 117.7064 0.0000 0.0000 0.0000
# 4 0.0000 0.0000 0.0000 22.6243 0.0000 0.0000
# 5 0.0000 0.0000 0.0000 0.0000 -94.9845 0.0000
# 6 0.0000 0.0000 0.0000 0.0000 0.0000 18.4910
#
#
#
# Elastic Compliance Matrix: (Units=1/GPa)
#
#
# Indices 1 2 3 4 5 6 
#
# 1 0.010150 -0.003345 -0.004242 0.000000 0.000000 0.000000
# 2 -0.003345 0.012178 -0.001304 0.000000 0.000000 0.000000
# 3 -0.004242 -0.001304 0.010928 0.000000 0.000000 0.000000
# 4 0.000000 0.000000 0.000000 0.044200 0.000000 0.000000
# 5 0.000000 0.000000 0.000000 0.000000 -0.010528 0.000000
# 6 0.000000 0.000000 0.000000 0.000000 0.000000 0.054080
#
#
# Mechanical properties :
#
#
# Convention : Reuss Voigt Hill
#
# Bulk Modulus (GPa) = 64.63343 68.38989 66.51166
# Shear Modulus (GPa) = 34.73430 3.96717 19.35074
#
# Velocity S-wave (km/s) = 4.27213 1.44379 3.18870
# Velocity P-wave (km/s) = 7.63520 6.22211 6.96459
#
# Compressibility (1/GPa) = 0.01547187
#
# Stress axis : x y z
#
# Youngs Moduli (GPa) = 98.52458 82.11672 91.50452
#
# Poissons Ratio (x) = 0.27470 0.38819
# Poissons Ratio (y) = 0.32959 0.11936
# Poissons Ratio (z) = 0.41797 0.10712
#
# Static dielectric constant tensor:
#      x y z
#    x 1.656030 0.000000 0.000000 
#    y 0.000000 2.158950 0.000000 
#    z 0.000000 0.000000 1.612210 
# 
# From -- ./inp_files/34844.got.cif
#   From: 2010.05.17/outbox.cif.g08.bks.cpg/sg64_18_cif.got.tgz:34844.got - 2010.06.03 16:29:19.
