data_PCOD9481418
_publ_section_title
;
Structure prediction by ZEFSAII (Michael W. Deem and Ramdas Pophale) SiO2 
 PCOD9481418
Probable space group: C M C A
;
_chemical_formula_sum "Si O2"
_cell_formula_units_Z 80
_cell_length_a 22.731827
_cell_length_b 8.953944
_cell_length_c 16.496044
_cell_angle_alpha 90.000000
_cell_angle_beta 90.000000
_cell_angle_gamma 90.000000
_cell_volume 3357.596646
_symmetry_space_group_name_H-M "C M C A"
_symmetry_group_IT_number 64
_symmetry_cell_setting 'orthorhombic'
loop_
_space_group_symop_operation_xyz
x,y,z
-x,1/2-y,1/2+z
x,-y,-z
-x,1/2+y,1/2-z
-x,-y,-z
x,1/2+y,1/2-z
-x,y,z
x,1/2-y,1/2+z
1/2+x,1/2+y,z
1/2-x,-y,1/2+z
1/2+x,1/2-y,-z
1/2-x,y,1/2-z
1/2-x,1/2-y,-z
1/2+x,y,1/2-z
1/2-x,1/2+y,z
1/2+x,-y,1/2+z
loop_
_atom_site_type_symbol
_atom_site_label
_atom_site_fract_x
_atom_site_fract_y
_atom_site_fract_z
Si Si1 0.885701 0.407164 0.263162
Si Si2 0.907742 0.827420 0.864631
Si Si3 0.282931 0.133623 0.440959
Si Si4 0.331993 0.157563 0.148787
Si Si5 0.937556 0.326989 0.972981
O O1 0.921032 0.289028 0.207978
O O2 0.917826 0.504690 0.332553
O O3 0.861592 0.532046 0.203297
O O4 0.832452 0.312209 0.302153
O O5 0.838290 0.814203 0.888454
O O6 0.936971 0.776077 0.947645
O O7 0.250000 0.250000 0.500000
O O8 0.229755 0.095687 0.380837
O O9 0.302046 0.000000 0.500000
O O10 0.378217 0.193015 0.077199
O O11 0.000000 0.304113 0.928267
O O12 0.936042 0.500000 0.000000
#
# Coordination Sequence:
#
# PCOD9481418 Si02
#       5
#    16  16  16  16  16
#     4  10  24  40  64  93 137 170 209 266 326 394
#     4  11  23  42  63  97 129 170 216 262 325 389
#     4  12  23  36  66  97 131 170 216 268 315 385
#     4  11  22  43  63  97 132 171 217 264 326 384
#     4  11  23  44  71  94 123 169 222 274 324 388
#
# _framework density 23.826567000000001
#
# number of rings (size 3 to 8) (size 9 to 14) (size 15 to 20)
#    0.000    1.000    4.000    3.000    0.000    4.800 
#    0.000    8.000    0.000    0.000    0.000    0.000 
#    0.000    0.000    0.000    0.000    0.000    0.000 
#
# Total GULP energy -223623.910387 kJ/mol
# GULP energy per Si atom -5590.597760 kJ/mol
# Density = 2.377234 g / cm^3
# Si number density = 23.826567 Si / 1000 Ang^3
#
#
#
# Elastic Constant Matrix: (Units=GPa)
#
#
# Indices 1 2 3 4 5 6 
#
# 1 109.0802 -4.4056 20.1781 0.0000 0.0000 0.0000
# 2 -4.4056 109.5121 28.5483 0.0000 0.0000 0.0000
# 3 20.1781 28.5483 83.5492 0.0000 0.0000 0.0000
# 4 0.0000 0.0000 0.0000 56.7950 0.0000 0.0000
# 5 0.0000 0.0000 0.0000 0.0000 -7.8675 0.0000
# 6 0.0000 0.0000 0.0000 0.0000 0.0000 41.1890
#
#
#
# Elastic Compliance Matrix: (Units=1/GPa)
#
#
# Indices 1 2 3 4 5 6 
#
# 1 0.009716 0.001101 -0.002722 0.000000 0.000000 0.000000
# 2 0.001101 0.010149 -0.003734 0.000000 0.000000 0.000000
# 3 -0.002722 -0.003734 0.013902 0.000000 0.000000 0.000000
# 4 0.000000 0.000000 0.000000 0.017607 0.000000 0.000000
# 5 0.000000 0.000000 0.000000 0.000000 -0.127105 0.000000
# 6 0.000000 0.000000 0.000000 0.000000 0.000000 0.024278
#
#
# Mechanical properties :
#
#
# Convention : Reuss Voigt Hill
#
# Bulk Modulus (GPa) = 43.37314 43.42035 43.39675
# Shear Modulus (GPa) = -151.25984 35.21134 -58.02425
#
# Velocity S-wave (km/s) = -7.97631 3.84841 -4.94020
# Velocity P-wave (km/s) = 8.15999 6.16523 3.77991
#
# Compressibility (1/GPa) = 0.02305574
#
# Stress axis : x y z
#
# Youngs Moduli (GPa) = 102.92686 98.53187 71.93066
#
# Poissons Ratio (x) = -0.10844 0.19583
# Poissons Ratio (y) = -0.11328 0.26856
# Poissons Ratio (z) = 0.28022 0.36788
#
# Static dielectric constant tensor:
#      x y z
#    x 1.871930 0.000000 0.000000 
#    y 0.000000 1.899030 0.000000 
#    z 0.000000 0.000000 1.976780 
# 
# From -- ./inp_files/35350.got.cif
#   From: 2010.05.17/outbox.cif.g08.bks.cpg/sg64_18_cif.got.tgz:35350.got - 2010.06.03 16:29:19.
