data_PCOD9481224
_publ_section_title
;
Structure prediction by ZEFSAII (Michael W. Deem and Ramdas Pophale) SiO2 
 PCOD9481224
Probable space group: C M C A
;
_chemical_formula_sum "Si O2"
_cell_formula_units_Z 116
_cell_length_a 17.259617
_cell_length_b 22.989615
_cell_length_c 15.915504
_cell_angle_alpha 90.000000
_cell_angle_beta 90.000000
_cell_angle_gamma 90.000000
_cell_volume 6315.143865
_symmetry_space_group_name_H-M "C M C A"
_symmetry_group_IT_number 64
_symmetry_cell_setting 'orthorhombic'
loop_
_space_group_symop_operation_xyz
x,y,z
-x,1/2-y,1/2+z
x,-y,-z
-x,1/2+y,1/2-z
-x,-y,-z
x,1/2+y,1/2-z
-x,y,z
x,1/2-y,1/2+z
1/2+x,1/2+y,z
1/2-x,-y,1/2+z
1/2+x,1/2-y,-z
1/2-x,y,1/2-z
1/2-x,1/2-y,-z
1/2+x,y,1/2-z
1/2-x,1/2+y,z
1/2+x,-y,1/2+z
loop_
_atom_site_type_symbol
_atom_site_label
_atom_site_fract_x
_atom_site_fract_y
_atom_site_fract_z
Si Si1 0.586287 0.859794 0.231530
Si Si2 0.087622 0.950429 0.825706
Si Si3 0.590183 0.323944 0.905253
Si Si4 0.720110 0.972942 0.409190
Si Si5 0.843114 0.156424 0.912797
Si Si6 0.709425 0.771757 0.161764
Si Si7 0.500000 0.500000 0.500000
Si Si8 0.387249 0.487662 0.338230
O O1 0.500000 0.838230 0.210744
O O2 0.604785 0.848279 0.329139
O O3 0.653470 0.826510 0.181398
O O4 0.589553 0.927702 0.208315
O O5 0.101554 0.884832 0.856248
O O6 0.000000 0.965919 0.851132
O O7 0.148025 0.993617 0.868482
O O8 0.094726 0.960090 0.725858
O O9 0.500000 0.306188 0.893606
O O10 0.653201 0.277938 0.872619
O O11 0.607719 0.333939 0.003586
O O12 0.700928 0.905132 0.417921
O O13 0.796085 0.983180 0.354342
O O14 0.734030 0.000000 0.500000
O O15 0.778609 0.206464 0.898353
O O16 0.750000 0.754795 0.250000
O O17 0.433009 0.493690 0.425372
#
# Coordination Sequence:
#
# PCOD9481224 Si02
#       8
#    16  16  16  16  16  16   4  16
#     4  11  21  37  65  92 123 164 213 270 315 367
#     4  11  24  39  63  93 130 172 204 258 326 389
#     4  11  24  43  64  91 131 172 210 263 323 387
#     4  12  23  38  61  97 131 162 210 262 322 385
#     4  11  22  39  63  97 124 165 215 267 315 381
#     4  10  23  41  65  91 123 167 223 266 316 378
#     4  12  24  40  64  88 128 176 212 264 320 374
#     4  12  23  40  62  91 129 170 213 262 320 382
#
# _framework density 18.368544
#
# number of rings (size 3 to 8) (size 9 to 14) (size 15 to 20)
#    0.000    0.828    6.207    1.655    0.000    1.931 
#    0.000    0.000    3.034    0.000    0.000    0.000 
#    0.000    0.000    0.000    0.000    0.000    0.000 
#
# Total GULP energy -323456.047264 kJ/mol
# GULP energy per Si atom -5576.828401 kJ/mol
# Density = 1.832674 g / cm^3
# Si number density = 18.368544 Si / 1000 Ang^3
#
#
#
# Elastic Constant Matrix: (Units=GPa)
#
#
# Indices 1 2 3 4 5 6 
#
# 1 121.0181 48.3397 30.3628 0.0000 0.0000 0.0000
# 2 48.3397 75.1222 44.2612 0.0000 0.0000 0.0000
# 3 30.3628 44.2612 88.3413 0.0000 0.0000 0.0000
# 4 0.0000 0.0000 0.0000 17.3667 0.0000 0.0000
# 5 0.0000 0.0000 0.0000 0.0000 32.9725 0.0000
# 6 0.0000 0.0000 0.0000 0.0000 0.0000 65.3489
#
#
#
# Elastic Compliance Matrix: (Units=1/GPa)
#
#
# Indices 1 2 3 4 5 6 
#
# 1 0.011129 -0.006963 -0.000336 0.000000 0.000000 0.000000
# 2 -0.006963 0.023244 -0.009253 0.000000 0.000000 0.000000
# 3 -0.000336 -0.009253 0.016071 0.000000 0.000000 0.000000
# 4 0.000000 0.000000 0.000000 0.057581 0.000000 0.000000
# 5 0.000000 0.000000 0.000000 0.000000 0.030328 0.000000
# 6 0.000000 0.000000 0.000000 0.000000 0.000000 0.015302
#
#
# Mechanical properties :
#
#
# Convention : Reuss Voigt Hill
#
# Bulk Modulus (GPa) = 57.67037 58.93432 58.30235
# Shear Modulus (GPa) = 25.96866 33.90550 29.93708
#
# Velocity S-wave (km/s) = 3.76408 4.30099 4.04146
# Velocity P-wave (km/s) = 7.09616 7.53782 7.32032
#
# Compressibility (1/GPa) = 0.01733993
#
# Stress axis : x y z
#
# Youngs Moduli (GPa) = 89.85548 43.02222 62.22362
#
# Poissons Ratio (x) = 0.29957 0.02093
# Poissons Ratio (y) = 0.62568 0.57572
# Poissons Ratio (z) = 0.03022 0.39806
#
# Static dielectric constant tensor:
#      x y z
#    x 1.629490 0.000000 0.000000 
#    y 0.000000 1.611240 0.000000 
#    z 0.000000 0.000000 1.625240 
# 
# From -- ./inp_files/25749.got.cif
#   From: 2010.05.17/outbox.cif.g08.bks.cpg/sg64_13_cif.got.tgz:25749.got - 2010.06.03 16:29:19.
