data_PCOD9481751
_publ_section_title
;
Structure prediction by ZEFSAII (Michael W. Deem and Ramdas Pophale) SiO2 
 PCOD9481751
Probable space group: C M C A
;
_chemical_formula_sum "Si O2"
_cell_formula_units_Z 96
_cell_length_a 8.646563
_cell_length_b 30.315855
_cell_length_c 19.145783
_cell_angle_alpha 90.000000
_cell_angle_beta 90.000000
_cell_angle_gamma 90.000000
_cell_volume 5018.644852
_symmetry_space_group_name_H-M "C M C A"
_symmetry_group_IT_number 64
_symmetry_cell_setting 'orthorhombic'
loop_
_space_group_symop_operation_xyz
x,y,z
-x,1/2-y,1/2+z
x,-y,-z
-x,1/2+y,1/2-z
-x,-y,-z
x,1/2+y,1/2-z
-x,y,z
x,1/2-y,1/2+z
1/2+x,1/2+y,z
1/2-x,-y,1/2+z
1/2+x,1/2-y,-z
1/2-x,y,1/2-z
1/2-x,1/2-y,-z
1/2+x,y,1/2-z
1/2-x,1/2+y,z
1/2+x,-y,1/2+z
loop_
_atom_site_type_symbol
_atom_site_label
_atom_site_fract_x
_atom_site_fract_y
_atom_site_fract_z
Si Si1 0.185298 0.660166 0.418591
Si Si2 0.188115 0.687340 0.571650
Si Si3 0.314313 0.530868 0.600612
Si Si4 0.314770 0.265856 0.673226
Si Si5 0.313608 0.063965 0.055673
Si Si6 0.815890 0.888912 0.176005
O O1 0.239668 0.682679 0.491739
O O2 0.258365 0.687060 0.355074
O O3 0.235501 0.609262 0.422003
O O4 0.000000 0.663019 0.415022
O O5 0.239110 0.729653 0.616041
O O6 0.237345 0.644166 0.615010
O O7 0.000000 0.687898 0.570247
O O8 0.500000 0.532622 0.606872
O O9 0.274511 0.551344 0.524524
O O10 0.268609 0.479522 0.599706
O O11 0.239275 0.562050 0.657770
O O12 0.500000 0.264459 0.676025
O O13 0.250000 0.256257 0.750000
O O14 0.500000 0.068575 0.059279
O O15 0.750000 0.874211 0.250000
O O16 0.000000 0.887449 0.178456
#
# Coordination Sequence:
#
# PCOD9481751 Si02
#       6
#    16  16  16  16  16  16
#     4  11  21  37  60  89 118 148 190 239 286 340
#     4   9  20  37  58  85 116 148 190 237 283 341
#     4   9  18  34  55  81 113 148 187 231 280 336
#     4  11  23  41  60  82 114 153 193 236 288 343
#     4   9  18  34  57  84 113 146 187 233 280 332
#     4  11  21  35  54  82 118 155 192 237 288 344
#
# _framework density 19.128668999999999
#
# number of rings (size 3 to 8) (size 9 to 14) (size 15 to 20)
#    0.000    2.000    1.667    3.500    0.000    0.667 
#    0.000    7.500    0.000    4.000    0.000    0.000 
#    0.000    0.000    0.000    0.000    0.000    0.000 
#
# Total GULP energy -268015.347970 kJ/mol
# GULP energy per Si atom -5583.653083 kJ/mol
# Density = 1.908513 g / cm^3
# Si number density = 19.128669 Si / 1000 Ang^3
#
#
#
# Elastic Constant Matrix: (Units=GPa)
#
#
# Indices 1 2 3 4 5 6 
#
# 1 30.0890 20.0753 8.3426 0.0000 0.0000 0.0000
# 2 20.0753 105.4429 15.5042 0.0000 0.0000 0.0000
# 3 8.3426 15.5042 41.4208 0.0000 0.0000 0.0000
# 4 0.0000 0.0000 0.0000 13.6972 0.0000 0.0000
# 5 0.0000 0.0000 0.0000 0.0000 21.9985 0.0000
# 6 0.0000 0.0000 0.0000 0.0000 0.0000 25.3302
#
#
#
# Elastic Compliance Matrix: (Units=1/GPa)
#
#
# Indices 1 2 3 4 5 6 
#
# 1 0.039178 -0.006666 -0.005396 0.000000 0.000000 0.000000
# 2 -0.006666 0.011170 -0.002839 0.000000 0.000000 0.000000
# 3 -0.005396 -0.002839 0.026292 0.000000 0.000000 0.000000
# 4 0.000000 0.000000 0.000000 0.073008 0.000000 0.000000
# 5 0.000000 0.000000 0.000000 0.000000 0.045458 0.000000
# 6 0.000000 0.000000 0.000000 0.000000 0.000000 0.039479
#
#
# Mechanical properties :
#
#
# Convention : Reuss Voigt Hill
#
# Bulk Modulus (GPa) = 21.34937 29.42187 25.38562
# Shear Modulus (GPa) = 17.85729 21.07389 19.46559
#
# Velocity S-wave (km/s) = 3.05870 3.32277 3.19347
# Velocity P-wave (km/s) = 4.86408 5.48958 5.18627
#
# Compressibility (1/GPa) = 0.04683979
#
# Stress axis : x y z
#
# Youngs Moduli (GPa) = 25.52444 89.52333 38.03479
#
# Poissons Ratio (x) = 0.59674 0.20523
# Poissons Ratio (y) = 0.17014 0.10796
# Poissons Ratio (z) = 0.13773 0.25412
#
# Static dielectric constant tensor:
#      x y z
#    x 1.641480 0.000000 0.000000 
#    y 0.000000 1.671840 0.000000 
#    z 0.000000 0.000000 1.664330 
# 
# From -- ./inp_files/36942.got.cif
#   From: 2010.05.17/outbox.cif.g08.bks.cpg/sg64_19_cif.got.tgz:36942.got - 2010.06.03 16:29:19.
