data_PCOD9481647
_publ_section_title
;
Structure prediction by ZEFSAII (Michael W. Deem and Ramdas Pophale) SiO2 
 PCOD9481647
Probable space group: C M C A
;
_chemical_formula_sum "Si O2"
_cell_formula_units_Z 96
_cell_length_a 19.709045
_cell_length_b 14.073394
_cell_length_c 19.217463
_cell_angle_alpha 90.000000
_cell_angle_beta 90.000000
_cell_angle_gamma 90.000000
_cell_volume 5330.408356
_symmetry_space_group_name_H-M "C M C A"
_symmetry_group_IT_number 64
_symmetry_cell_setting 'orthorhombic'
loop_
_space_group_symop_operation_xyz
x,y,z
-x,1/2-y,1/2+z
x,-y,-z
-x,1/2+y,1/2-z
-x,-y,-z
x,1/2+y,1/2-z
-x,y,z
x,1/2-y,1/2+z
1/2+x,1/2+y,z
1/2-x,-y,1/2+z
1/2+x,1/2-y,-z
1/2-x,y,1/2-z
1/2-x,1/2-y,-z
1/2+x,y,1/2-z
1/2-x,1/2+y,z
1/2+x,-y,1/2+z
loop_
_atom_site_type_symbol
_atom_site_label
_atom_site_fract_x
_atom_site_fract_y
_atom_site_fract_z
Si Si1 0.283866 0.085809 0.673321
Si Si2 0.684060 0.522556 0.424154
Si Si3 0.077439 0.403282 0.147641
Si Si4 0.790864 0.708211 0.144921
Si Si5 0.575406 0.509579 0.207778
Si Si6 0.142952 0.706550 0.297439
O O1 0.250000 0.105426 0.750000
O O2 0.286668 0.180864 0.627535
O O3 0.359403 0.045486 0.678598
O O4 0.234039 0.012945 0.636431
O O5 0.712042 0.500000 0.500000
O O6 0.617958 0.457026 0.412849
O O7 0.677174 0.634460 0.408921
O O8 0.076875 0.478647 0.211314
O O9 0.113886 0.307128 0.175476
O O10 0.000000 0.380849 0.129304
O O11 0.834013 0.708304 0.216655
O O12 0.712607 0.682921 0.162117
O O13 0.500000 0.483948 0.181459
O O14 0.590006 0.620717 0.196467
#
# Coordination Sequence:
#
# PCOD9481647 Si02
#       6
#    16  16  16  16  16  16
#     4  12  19  39  62  86 119 151 199 256 299 344
#     4  12  25  39  59  89 122 164 200 241 304 369
#     4  11  22  37  57  87 125 158 196 244 298 357
#     4  11  19  33  61  88 111 148 197 252 294 339
#     4  11  21  33  58  92 121 147 189 251 307 350
#     4  11  18  34  61  89 115 151 195 248 300 344
#
# _framework density 18.009876999999999
#
# number of rings (size 3 to 8) (size 9 to 14) (size 15 to 20)
#    0.000    0.667   10.000    0.500    0.000    1.000 
#    0.000    0.833    0.000    0.500    0.000    0.000 
#    0.000    0.000    0.000    0.000    0.000    0.000 
#
# Total GULP energy -267613.110410 kJ/mol
# GULP energy per Si atom -5575.273134 kJ/mol
# Density = 1.796889 g / cm^3
# Si number density = 18.009877 Si / 1000 Ang^3
#
#
#
# Elastic Constant Matrix: (Units=GPa)
#
#
# Indices 1 2 3 4 5 6 
#
# 1 107.5302 21.6775 1.4828 0.0000 0.0000 0.0000
# 2 21.6775 104.8401 3.1985 0.0000 0.0000 0.0000
# 3 1.4828 3.1985 18.1103 0.0000 0.0000 0.0000
# 4 0.0000 0.0000 0.0000 0.8057 0.0000 0.0000
# 5 0.0000 0.0000 0.0000 0.0000 7.6395 0.0000
# 6 0.0000 0.0000 0.0000 0.0000 0.0000 30.9802
#
#
#
# Elastic Compliance Matrix: (Units=1/GPa)
#
#
# Indices 1 2 3 4 5 6 
#
# 1 0.009708 -0.001994 -0.000443 0.000000 0.000000 0.000000
# 2 -0.001994 0.009999 -0.001603 0.000000 0.000000 0.000000
# 3 -0.000443 -0.001603 0.055537 0.000000 0.000000 0.000000
# 4 0.000000 0.000000 0.000000 1.241174 0.000000 0.000000
# 5 0.000000 0.000000 0.000000 0.000000 0.130899 0.000000
# 6 0.000000 0.000000 0.000000 0.000000 0.000000 0.032279
#
#
# Mechanical properties :
#
#
# Convention : Reuss Voigt Hill
#
# Bulk Modulus (GPa) = 14.88864 31.46647 23.17756
# Shear Modulus (GPa) = 3.31112 21.49319 12.40215
#
# Velocity S-wave (km/s) = 1.35738 3.45833 2.62702
# Velocity P-wave (km/s) = 3.27743 5.78415 4.70095
#
# Compressibility (1/GPa) = 0.06716529
#
# Stress axis : x y z
#
# Youngs Moduli (GPa) = 103.01058 100.00525 18.00615
#
# Poissons Ratio (x) = 0.19938 0.00797
# Poissons Ratio (y) = 0.20538 0.02886
# Poissons Ratio (z) = 0.04560 0.16029
#
# Static dielectric constant tensor:
#      x y z
#    x 1.639360 0.000000 0.000000 
#    y 0.000000 1.656640 0.000000 
#    z 0.000000 0.000000 1.590210 
# 
# From -- ./inp_files/40971.got.cif
#   From: 2010.05.17/outbox.cif.g08.bks.cpg/sg64_21_cif.got.tgz:40971.got - 2010.06.03 16:29:19.
