data_PCOD9481988
_publ_section_title
;
Structure prediction by ZEFSAII (Michael W. Deem and Ramdas Pophale) SiO2 
 PCOD9481988
Probable space group: C M C A
;
_chemical_formula_sum "Si O2"
_cell_formula_units_Z 120
_cell_length_a 16.153999
_cell_length_b 19.603899
_cell_length_c 18.689648
_cell_angle_alpha 90.000000
_cell_angle_beta 90.000000
_cell_angle_gamma 90.000000
_cell_volume 5918.663237
_symmetry_space_group_name_H-M "C M C A"
_symmetry_group_IT_number 64
_symmetry_cell_setting 'orthorhombic'
loop_
_space_group_symop_operation_xyz
x,y,z
-x,1/2-y,1/2+z
x,-y,-z
-x,1/2+y,1/2-z
-x,-y,-z
x,1/2+y,1/2-z
-x,y,z
x,1/2-y,1/2+z
1/2+x,1/2+y,z
1/2-x,-y,1/2+z
1/2+x,1/2-y,-z
1/2-x,y,1/2-z
1/2-x,1/2-y,-z
1/2+x,y,1/2-z
1/2-x,1/2+y,z
1/2+x,-y,1/2+z
loop_
_atom_site_type_symbol
_atom_site_label
_atom_site_fract_x
_atom_site_fract_y
_atom_site_fract_z
Si Si1 0.809768 0.801424 0.085186
Si Si2 0.500000 0.862107 0.044987
Si Si3 0.404272 0.001864 0.203356
Si Si4 0.654167 0.139738 0.842992
Si Si5 0.363966 0.066622 0.050710
Si Si6 0.708417 0.339066 0.933124
Si Si7 0.843886 0.629696 0.278806
Si Si8 0.405800 0.266358 0.223174
O O1 0.738030 0.852411 0.112244
O O2 0.763358 0.728772 0.078431
O O3 0.878026 0.791323 0.145484
O O4 0.839305 0.825329 0.007172
O O5 0.574245 0.852850 0.105646
O O6 0.427611 0.880815 0.985006
O O7 0.500000 0.983158 0.212418
O O8 0.393854 0.041556 0.128128
O O9 0.375661 0.054030 0.263768
O O10 0.352416 0.933033 0.195575
O O11 0.650852 0.198047 0.782973
O O12 0.273805 0.099724 0.057855
O O13 0.364612 0.000000 0.000000
O O14 0.655226 0.351615 0.862383
O O15 0.750000 0.634222 0.250000
O O16 0.894440 0.685566 0.233788
O O17 0.500000 0.285823 0.236749
#
# Coordination Sequence:
#
# PCOD9481988 Si02
#       8
#    16   8  16  16  16  16  16  16
#     4  11  23  43  67  90 129 174 220 277 331 398
#     4  12  21  36  62 104 130 175 211 287 333 393
#     4  12  23  38  61  98 132 174 215 267 333 398
#     4  12  22  41  67  95 134 170 223 273 335 398
#     4  12  20  36  61  93 141 167 207 273 338 390
#     4  11  23  41  62  93 128 174 225 267 327 401
#     4  12  23  41  64  91 132 174 216 268 331 403
#     4  12  24  44  65  93 127 172 219 278 331 393
#
# _framework density 20.274847999999999
#
# number of rings (size 3 to 8) (size 9 to 14) (size 15 to 20)
#    0.000    0.267    8.667    1.000    0.000    1.067 
#    3.600    1.333    0.000    0.000    0.000    1.867 
#    0.000    0.000    0.000    0.000    0.000    0.000 
#
# Total GULP energy -334553.801188 kJ/mol
# GULP energy per Si atom -5575.896686 kJ/mol
# Density = 2.022870 g / cm^3
# Si number density = 20.274848 Si / 1000 Ang^3
#
#
#
# Elastic Constant Matrix: (Units=GPa)
#
#
# Indices 1 2 3 4 5 6 
#
# 1 39.8888 -1.2396 16.2068 0.0000 0.0000 0.0000
# 2 -1.2396 40.0434 15.5798 0.0000 0.0000 0.0000
# 3 16.2068 15.5798 86.3869 0.0000 0.0000 0.0000
# 4 0.0000 0.0000 0.0000 21.2652 0.0000 0.0000
# 5 0.0000 0.0000 0.0000 0.0000 22.9651 0.0000
# 6 0.0000 0.0000 0.0000 0.0000 0.0000 8.9972
#
#
#
# Elastic Compliance Matrix: (Units=1/GPa)
#
#
# Indices 1 2 3 4 5 6 
#
# 1 0.027485 0.003073 -0.005711 0.000000 0.000000 0.000000
# 2 0.003073 0.027201 -0.005482 0.000000 0.000000 0.000000
# 3 -0.005711 -0.005482 0.013636 0.000000 0.000000 0.000000
# 4 0.000000 0.000000 0.000000 0.047025 0.000000 0.000000
# 5 0.000000 0.000000 0.000000 0.000000 0.043544 0.000000
# 6 0.000000 0.000000 0.000000 0.000000 0.000000 0.111146
#
#
# Mechanical properties :
#
#
# Convention : Reuss Voigt Hill
#
# Bulk Modulus (GPa) = 19.20045 25.26814 22.23430
# Shear Modulus (GPa) = 16.46695 19.69697 18.08196
#
# Velocity S-wave (km/s) = 2.85298 3.12027 2.98961
# Velocity P-wave (km/s) = 4.51035 5.04691 4.78616
#
# Compressibility (1/GPa) = 0.05208211
#
# Stress axis : x y z
#
# Youngs Moduli (GPa) = 36.38295 36.76342 73.33591
#
# Poissons Ratio (x) = -0.11296 0.41879
# Poissons Ratio (y) = -0.11179 0.40204
# Poissons Ratio (z) = 0.20777 0.20154
#
# Static dielectric constant tensor:
#      x y z
#    x 1.690600 0.000000 0.000000 
#    y 0.000000 1.735740 0.000000 
#    z 0.000000 0.000000 1.740640 
# 
# From -- ./inp_files/33658.got.cif
#   From: 2010.05.17/outbox.cif.g08.bks.cpg/sg64_17_cif.got.tgz:33658.got - 2010.06.03 16:29:19.
