data_PCOD9481455
_publ_section_title
;
Structure prediction by ZEFSAII (Michael W. Deem and Ramdas Pophale) SiO2 
 PCOD9481455
Probable space group: C M C A
;
_chemical_formula_sum "Si O2"
_cell_formula_units_Z 80
_cell_length_a 10.817724
_cell_length_b 31.630293
_cell_length_c 10.377467
_cell_angle_alpha 90.000000
_cell_angle_beta 90.000000
_cell_angle_gamma 90.000000
_cell_volume 3550.834842
_symmetry_space_group_name_H-M "C M C A"
_symmetry_group_IT_number 64
_symmetry_cell_setting 'orthorhombic'
loop_
_space_group_symop_operation_xyz
x,y,z
-x,1/2-y,1/2+z
x,-y,-z
-x,1/2+y,1/2-z
-x,-y,-z
x,1/2+y,1/2-z
-x,y,z
x,1/2-y,1/2+z
1/2+x,1/2+y,z
1/2-x,-y,1/2+z
1/2+x,1/2-y,-z
1/2-x,y,1/2-z
1/2-x,1/2-y,-z
1/2+x,y,1/2-z
1/2-x,1/2+y,z
1/2+x,-y,1/2+z
loop_
_atom_site_type_symbol
_atom_site_label
_atom_site_fract_x
_atom_site_fract_y
_atom_site_fract_z
Si Si1 0.000000 0.837465 0.116702
Si Si2 0.000000 0.835542 0.424392
Si Si3 0.740629 0.361123 0.965793
Si Si4 0.500000 0.241857 0.124638
Si Si5 0.750000 0.290619 0.750000
Si Si6 0.633168 0.440549 0.882365
Si Si7 0.368579 0.535835 0.817136
O O1 0.000000 0.833055 0.270677
O O2 0.875873 0.859629 0.063527
O O3 0.000000 0.788962 0.070037
O O4 0.872768 0.857643 0.466972
O O5 0.000000 0.791732 0.506945
O O6 0.734459 0.404375 0.884458
O O7 0.723478 0.321534 0.870202
O O8 0.374019 0.234705 0.208435
O O9 0.500000 0.420498 0.850103
O O10 0.632435 0.454703 0.032042
O O11 0.637721 0.484662 0.806942
O O12 0.500000 0.550354 0.762408
O O13 0.250000 0.554839 0.750000
#
# Coordination Sequence:
#
# PCOD9481455 Si02
#       7
#     8   8  16   8   8  16  16
#     4  12  25  40  71  87 120 173 205 247 327 376
#     4  10  26  42  58  95 129 154 209 264 305 371
#     4  11  23  43  63  96 125 165 209 257 317 366
#     4  10  25  42  63  94 127 158 210 260 309 375
#     4  10  24  42  66  92 126 162 208 262 312 368
#     4   9  19  39  60  85 123 157 206 243 297 380
#     4   9  19  37  60  88 118 162 198 245 304 360
#
# _framework density 22.529913000000001
#
# number of rings (size 3 to 8) (size 9 to 14) (size 15 to 20)
#    0.000    2.000    1.000    2.400    7.000    3.200 
#    3.600    1.000    0.000    0.000    0.000    0.000 
#    0.000    0.000    0.000    0.000    0.000    0.000 
#
# Total GULP energy -223362.803671 kJ/mol
# GULP energy per Si atom -5584.070092 kJ/mol
# Density = 2.247863 g / cm^3
# Si number density = 22.529913 Si / 1000 Ang^3
#
#
#
# Elastic Constant Matrix: (Units=GPa)
#
#
# Indices 1 2 3 4 5 6 
#
# 1 176.3770 22.6130 60.1260 0.0000 0.0000 0.0000
# 2 22.6130 76.5888 -9.4864 0.0000 0.0000 0.0000
# 3 60.1260 -9.4864 77.9994 0.0000 0.0000 0.0000
# 4 0.0000 0.0000 0.0000 2.9153 0.0000 0.0000
# 5 0.0000 0.0000 0.0000 0.0000 16.6691 0.0000
# 6 0.0000 0.0000 0.0000 0.0000 0.0000 -9.8279
#
#
#
# Elastic Compliance Matrix: (Units=1/GPa)
#
#
# Indices 1 2 3 4 5 6 
#
# 1 0.008463 -0.003357 -0.006932 0.000000 0.000000 0.000000
# 2 -0.003357 0.014588 0.004362 0.000000 0.000000 0.000000
# 3 -0.006932 0.004362 0.018695 0.000000 0.000000 0.000000
# 4 0.000000 0.000000 0.000000 0.343023 0.000000 0.000000
# 5 0.000000 0.000000 0.000000 0.000000 0.059991 0.000000
# 6 0.000000 0.000000 0.000000 0.000000 0.000000 -0.101751
#
#
# Mechanical properties :
#
#
# Convention : Reuss Voigt Hill
#
# Bulk Modulus (GPa) = 33.45398 53.05229 43.25313
# Shear Modulus (GPa) = 13.70506 19.13214 16.41860
#
# Velocity S-wave (km/s) = 2.46906 2.91724 2.70246
# Velocity P-wave (km/s) = 4.79680 5.91149 5.38307
#
# Compressibility (1/GPa) = 0.02989181
#
# Stress axis : x y z
#
# Youngs Moduli (GPa) = 118.15701 68.54781 53.49038
#
# Poissons Ratio (x) = 0.23015 0.37081
# Poissons Ratio (y) = 0.39671 -0.23334
# Poissons Ratio (z) = 0.81910 -0.29903
#
# Static dielectric constant tensor:
#      x y z
#    x 1.861050 0.000000 0.000000 
#    y 0.000000 1.850080 0.000000 
#    z 0.000000 0.000000 1.885520 
# 
# From -- ./inp_files/13268.got.cif
#   From: 2010.05.17/outbox.cif.g08.bks.cpg/sg64_7_cif.got.tgz:13268.got - 2010.06.03 16:29:19.
