data_PCOD9481169
_publ_section_title
;
Structure prediction by ZEFSAII (Michael W. Deem and Ramdas Pophale) SiO2 
 PCOD9481169
Probable space group: C M C A
;
_chemical_formula_sum "Si O2"
_cell_formula_units_Z 72
_cell_length_a 24.375753
_cell_length_b 15.369282
_cell_length_c 9.560895
_cell_angle_alpha 90.000000
_cell_angle_beta 90.000000
_cell_angle_gamma 90.000000
_cell_volume 3581.872877
_symmetry_space_group_name_H-M "C M C A"
_symmetry_group_IT_number 64
_symmetry_cell_setting 'orthorhombic'
loop_
_space_group_symop_operation_xyz
x,y,z
-x,1/2-y,1/2+z
x,-y,-z
-x,1/2+y,1/2-z
-x,-y,-z
x,1/2+y,1/2-z
-x,y,z
x,1/2-y,1/2+z
1/2+x,1/2+y,z
1/2-x,-y,1/2+z
1/2+x,1/2-y,-z
1/2-x,y,1/2-z
1/2-x,1/2-y,-z
1/2+x,y,1/2-z
1/2-x,1/2+y,z
1/2+x,-y,1/2+z
loop_
_atom_site_type_symbol
_atom_site_label
_atom_site_fract_x
_atom_site_fract_y
_atom_site_fract_z
Si Si1 0.700246 0.372785 0.856608
Si Si2 0.126168 0.713067 0.880322
Si Si3 0.935156 0.326765 0.394085
Si Si4 0.227270 0.587950 0.906909
Si Si5 0.876786 0.500000 0.500000
O O1 0.750000 0.382877 0.750000
O O2 0.662763 0.291788 0.817472
O O3 0.662286 0.457526 0.880871
O O4 0.727447 0.356093 0.008429
O O5 0.082020 0.685047 0.766089
O O6 0.169133 0.636159 0.909100
O O7 0.096087 0.753973 0.014098
O O8 0.912514 0.420360 0.444116
O O9 0.000000 0.320878 0.414104
O O10 0.250000 0.577831 0.750000
O O11 0.223608 0.500000 0.000000
#
# Coordination Sequence:
#
# PCOD9481169 Si02
#       5
#    16  16  16  16   8
#     4  11  22  39  63  97 132 167 206 252 319 395
#     4  11  24  42  66  94 128 170 213 266 319 381
#     4  11  24  45  68  91 124 166 224 275 321 366
#     4  12  24  38  62  95 140 173 204 253 315 395
#     4  10  23  38  66  94 126 170 211 254 320 384
#
# _framework density 20.101216000000001
#
# number of rings (size 3 to 8) (size 9 to 14) (size 15 to 20)
#    0.000    0.889    1.111    7.000    3.111    0.000 
#    0.000    1.111    0.000    1.333    0.000    0.000 
#    0.000    0.000    0.000    0.000    0.000    0.000 
#
# Total GULP energy -201357.923467 kJ/mol
# GULP energy per Si atom -5593.275652 kJ/mol
# Density = 2.005546 g / cm^3
# Si number density = 20.101216 Si / 1000 Ang^3
#
#
#
# Elastic Constant Matrix: (Units=GPa)
#
#
# Indices 1 2 3 4 5 6 
#
# 1 149.3320 53.1200 41.2706 0.0000 0.0000 0.0000
# 2 53.1200 100.8997 34.3880 0.0000 0.0000 0.0000
# 3 41.2706 34.3880 100.7690 0.0000 0.0000 0.0000
# 4 0.0000 0.0000 0.0000 15.7951 0.0000 0.0000
# 5 0.0000 0.0000 0.0000 0.0000 32.6430 0.0000
# 6 0.0000 0.0000 0.0000 0.0000 0.0000 14.5812
#
#
#
# Elastic Compliance Matrix: (Units=1/GPa)
#
#
# Indices 1 2 3 4 5 6 
#
# 1 0.008670 -0.003796 -0.002256 0.000000 0.000000 0.000000
# 2 -0.003796 0.012877 -0.002840 0.000000 0.000000 0.000000
# 3 -0.002256 -0.002840 0.011817 0.000000 0.000000 0.000000
# 4 0.000000 0.000000 0.000000 0.063311 0.000000 0.000000
# 5 0.000000 0.000000 0.000000 0.000000 0.030634 0.000000
# 6 0.000000 0.000000 0.000000 0.000000 0.000000 0.068581
#
#
# Mechanical properties :
#
#
# Convention : Reuss Voigt Hill
#
# Bulk Modulus (GPa) = 64.17889 67.61755 65.89822
# Shear Modulus (GPa) = 22.84503 27.41868 25.13186
#
# Velocity S-wave (km/s) = 3.37486 3.69729 3.53975
# Velocity P-wave (km/s) = 6.86902 7.20681 7.03994
#
# Compressibility (1/GPa) = 0.01558145
#
# Stress axis : x y z
#
# Youngs Moduli (GPa) = 115.33936 77.65789 84.62708
#
# Poissons Ratio (x) = 0.29477 0.19088
# Poissons Ratio (y) = 0.43780 0.24032
# Poissons Ratio (z) = 0.26015 0.22053
#
# Static dielectric constant tensor:
#      x y z
#    x 1.686670 0.000000 0.000000 
#    y 0.000000 1.743020 0.000000 
#    z 0.000000 0.000000 1.727650 
# 
# From -- ./inp_files/10031.got.cif
#   From: 2010.05.17/outbox.cif.g08.bks.cpg/sg64_6_cif.got.tgz:10031.got - 2010.06.03 16:29:19.
