data_PCOD9481934
_publ_section_title
;
Structure prediction by ZEFSAII (Michael W. Deem and Ramdas Pophale) SiO2 
 PCOD9481934
Probable space group: C M C A
;
_chemical_formula_sum "Si O2"
_cell_formula_units_Z 64
_cell_length_a 20.514361
_cell_length_b 12.602069
_cell_length_c 10.822054
_cell_angle_alpha 90.000000
_cell_angle_beta 90.000000
_cell_angle_gamma 90.000000
_cell_volume 2797.754117
_symmetry_space_group_name_H-M "C M C A"
_symmetry_group_IT_number 64
_symmetry_cell_setting 'orthorhombic'
loop_
_space_group_symop_operation_xyz
x,y,z
-x,1/2-y,1/2+z
x,-y,-z
-x,1/2+y,1/2-z
-x,-y,-z
x,1/2+y,1/2-z
-x,y,z
x,1/2-y,1/2+z
1/2+x,1/2+y,z
1/2-x,-y,1/2+z
1/2+x,1/2-y,-z
1/2-x,y,1/2-z
1/2-x,1/2-y,-z
1/2+x,y,1/2-z
1/2-x,1/2+y,z
1/2+x,-y,1/2+z
loop_
_atom_site_type_symbol
_atom_site_label
_atom_site_fract_x
_atom_site_fract_y
_atom_site_fract_z
Si Si1 0.428864 0.354060 0.285691
Si Si2 0.697174 0.899056 0.571608
Si Si3 0.393770 0.258751 0.531762
Si Si4 0.157629 0.947219 0.662929
O O1 0.500000 0.407826 0.292685
O O2 0.426503 0.268191 0.397337
O O3 0.422246 0.305445 0.148146
O O4 0.369464 0.435725 0.311176
O O5 0.676969 0.795625 0.494666
O O6 0.771422 0.931619 0.601368
O O7 0.664770 0.891071 0.705251
O O8 0.667992 0.000000 0.500000
O O9 0.389716 0.379130 0.578522
#
# Coordination Sequence:
#
# PCOD9481934 Si02
#       4
#    16  16  16  16
#     4  12  27  47  73 105 147 194 243 294 354 436
#     4  11  22  44  71 105 143 178 237 298 364 424
#     4  12  24  47  71 107 140 191 243 293 361 418
#     4  11  25  44  72 104 141 190 237 297 358 429
#
# _framework density 22.875489999999999
#
# number of rings (size 3 to 8) (size 9 to 14) (size 15 to 20)
#    0.000    0.500    5.000    3.750    0.000    3.000 
#    0.000    1.250    0.000    0.000    0.000    0.000 
#    0.000    0.000    0.000    0.000    0.000    0.000 
#
# Total GULP energy -178445.576945 kJ/mol
# GULP energy per Si atom -5576.424280 kJ/mol
# Density = 2.282342 g / cm^3
# Si number density = 22.875490 Si / 1000 Ang^3
#
#
#
# Elastic Constant Matrix: (Units=GPa)
#
#
# Indices 1 2 3 4 5 6 
#
# 1 97.7275 19.8182 35.8676 0.0000 0.0000 0.0000
# 2 19.8182 68.2935 43.4982 0.0000 0.0000 0.0000
# 3 35.8676 43.4982 141.2011 0.0000 0.0000 0.0000
# 4 0.0000 0.0000 0.0000 37.4952 0.0000 0.0000
# 5 0.0000 0.0000 0.0000 0.0000 -22.0631 0.0000
# 6 0.0000 0.0000 0.0000 0.0000 0.0000 16.6815
#
#
#
# Elastic Compliance Matrix: (Units=1/GPa)
#
#
# Indices 1 2 3 4 5 6 
#
# 1 0.011466 -0.001832 -0.002348 0.000000 0.000000 0.000000
# 2 -0.001832 0.018510 -0.005237 0.000000 0.000000 0.000000
# 3 -0.002348 -0.005237 0.009292 0.000000 0.000000 0.000000
# 4 0.000000 0.000000 0.000000 0.026670 0.000000 0.000000
# 5 0.000000 0.000000 0.000000 0.000000 -0.045325 0.000000
# 6 0.000000 0.000000 0.000000 0.000000 0.000000 0.059947
#
#
# Mechanical properties :
#
#
# Convention : Reuss Voigt Hill
#
# Bulk Modulus (GPa) = 48.93808 56.17668 52.55738
# Shear Modulus (GPa) = 47.07912 20.29193 33.68552
#
# Velocity S-wave (km/s) = 4.54151 2.98159 3.84156
# Velocity P-wave (km/s) = 6.99572 6.03855 6.53468
#
# Compressibility (1/GPa) = 0.02043398
#
# Stress axis : x y z
#
# Youngs Moduli (GPa) = 87.21572 54.02578 107.62120
#
# Poissons Ratio (x) = 0.09895 0.25273
# Poissons Ratio (y) = 0.15974 0.56359
# Poissons Ratio (z) = 0.20481 0.28292
#
# Static dielectric constant tensor:
#      x y z
#    x 1.900480 0.000000 0.000000 
#    y 0.000000 1.845900 0.000000 
#    z 0.000000 0.000000 1.900440 
# 
# From -- ./inp_files/16770.got.cif
#   From: 2010.05.17/outbox.cif.g08.bks.cpg/sg64_9_cif.got.tgz:16770.got - 2010.06.03 16:29:19.
