data_PCOD9481532
_publ_section_title
;
Structure prediction by ZEFSAII (Michael W. Deem and Ramdas Pophale) SiO2 
 PCOD9481532
Probable space group: C M C A
;
_chemical_formula_sum "Si O2"
_cell_formula_units_Z 80
_cell_length_a 16.281397
_cell_length_b 9.250269
_cell_length_c 26.600815
_cell_angle_alpha 90.000000
_cell_angle_beta 90.000000
_cell_angle_gamma 90.000000
_cell_volume 4006.276977
_symmetry_space_group_name_H-M "C M C A"
_symmetry_group_IT_number 64
_symmetry_cell_setting 'orthorhombic'
loop_
_space_group_symop_operation_xyz
x,y,z
-x,1/2-y,1/2+z
x,-y,-z
-x,1/2+y,1/2-z
-x,-y,-z
x,1/2+y,1/2-z
-x,y,z
x,1/2-y,1/2+z
1/2+x,1/2+y,z
1/2-x,-y,1/2+z
1/2+x,1/2-y,-z
1/2-x,y,1/2-z
1/2-x,1/2-y,-z
1/2+x,y,1/2-z
1/2-x,1/2+y,z
1/2+x,-y,1/2+z
loop_
_atom_site_type_symbol
_atom_site_label
_atom_site_fract_x
_atom_site_fract_y
_atom_site_fract_z
Si Si1 0.000000 0.695403 0.820168
Si Si2 0.410299 0.321506 0.902144
Si Si3 0.270650 0.962305 0.365324
Si Si4 0.190879 0.354837 0.031112
Si Si5 0.815600 0.192852 0.296808
Si Si6 0.000000 0.106692 0.266077
O O1 0.077229 0.702507 0.857670
O O2 0.000000 0.560388 0.783121
O O3 0.000000 0.849356 0.792127
O O4 0.500000 0.390538 0.906915
O O5 0.342876 0.433949 0.885080
O O6 0.387266 0.238973 0.952776
O O7 0.231917 0.894525 0.415469
O O8 0.303224 0.840135 0.327645
O O9 0.209589 0.062859 0.333655
O O10 0.174523 0.500000 0.000000
O O11 0.250000 0.250000 0.000000
O O12 0.750000 0.191234 0.250000
O O13 0.911865 0.172714 0.283216
#
# Coordination Sequence:
#
# PCOD9481532 Si02
#       6
#     8  16  16  16  16   8
#     4  10  26  44  67 101 143 183 231 299 345 412
#     4  10  24  45  72  95 144 179 231 291 362 407
#     4  12  24  48  69 105 143 191 225 301 354 416
#     4  12  23  44  75 102 133 181 237 295 361 428
#     4  12  28  44  72 105 146 188 244 280 355 427
#     4  12  28  42  72 104 140 194 248 280 347 430
#
# _framework density 19.968662999999999
#
# number of rings (size 3 to 8) (size 9 to 14) (size 15 to 20)
#    0.600    0.000    4.000    3.000    9.800    0.400 
#    0.000    2.000    4.400    0.000    0.000    0.000 
#    0.000    0.000    0.000    0.000    0.000    0.000 
#
# Total GULP energy -223249.249330 kJ/mol
# GULP energy per Si atom -5581.231233 kJ/mol
# Density = 1.992321 g / cm^3
# Si number density = 19.968663 Si / 1000 Ang^3
#
#
#
# Elastic Constant Matrix: (Units=GPa)
#
#
# Indices 1 2 3 4 5 6 
#
# 1 129.1292 24.0036 42.6745 0.0000 0.0000 0.0000
# 2 24.0036 83.9697 32.8056 0.0000 0.0000 0.0000
# 3 42.6745 32.8056 105.6800 0.0000 0.0000 0.0000
# 4 0.0000 0.0000 0.0000 51.4802 0.0000 0.0000
# 5 0.0000 0.0000 0.0000 0.0000 38.8474 0.0000
# 6 0.0000 0.0000 0.0000 0.0000 0.0000 2.3830
#
#
#
# Elastic Compliance Matrix: (Units=1/GPa)
#
#
# Indices 1 2 3 4 5 6 
#
# 1 0.009064 -0.001321 -0.003250 0.000000 0.000000 0.000000
# 2 -0.001321 0.013745 -0.003733 0.000000 0.000000 0.000000
# 3 -0.003250 -0.003733 0.011934 0.000000 0.000000 0.000000
# 4 0.000000 0.000000 0.000000 0.019425 0.000000 0.000000
# 5 0.000000 0.000000 0.000000 0.000000 0.025742 0.000000
# 6 0.000000 0.000000 0.000000 0.000000 0.000000 0.419633
#
#
# Mechanical properties :
#
#
# Convention : Reuss Voigt Hill
#
# Bulk Modulus (GPa) = 55.14539 57.52738 56.33638
# Shear Modulus (GPa) = 9.57494 33.16180 21.36837
#
# Velocity S-wave (km/s) = 2.19212 4.07958 3.27478
# Velocity P-wave (km/s) = 5.83807 7.14577 6.52476
#
# Compressibility (1/GPa) = 0.01813388
#
# Stress axis : x y z
#
# Youngs Moduli (GPa) = 110.32882 72.75206 83.79577
#
# Poissons Ratio (x) = 0.09613 0.27233
# Poissons Ratio (y) = 0.14578 0.31284
# Poissons Ratio (z) = 0.35856 0.27161
#
# Static dielectric constant tensor:
#      x y z
#    x 1.744870 0.000000 0.000000 
#    y 0.000000 1.700780 0.000000 
#    z 0.000000 0.000000 1.699270 
# 
# From -- ./inp_files/50320.got.cif
#   From: 2010.05.17/outbox.cif.g08.bks.cpg/sg64_26_cif.got.tgz:50320.got - 2010.06.03 16:29:19.
