data_PCOD9481675
_publ_section_title
;
Structure prediction by ZEFSAII (Michael W. Deem and Ramdas Pophale) SiO2 
 PCOD9481675
Probable space group: C M C A
;
_chemical_formula_sum "Si O2"
_cell_formula_units_Z 96
_cell_length_a 8.826018
_cell_length_b 24.573928
_cell_length_c 26.713771
_cell_angle_alpha 90.000000
_cell_angle_beta 90.000000
_cell_angle_gamma 90.000000
_cell_volume 5793.947945
_symmetry_space_group_name_H-M "C M C A"
_symmetry_group_IT_number 64
_symmetry_cell_setting 'orthorhombic'
loop_
_space_group_symop_operation_xyz
x,y,z
-x,1/2-y,1/2+z
x,-y,-z
-x,1/2+y,1/2-z
-x,-y,-z
x,1/2+y,1/2-z
-x,y,z
x,1/2-y,1/2+z
1/2+x,1/2+y,z
1/2-x,-y,1/2+z
1/2+x,1/2-y,-z
1/2-x,y,1/2-z
1/2-x,1/2-y,-z
1/2+x,y,1/2-z
1/2-x,1/2+y,z
1/2+x,-y,1/2+z
loop_
_atom_site_type_symbol
_atom_site_label
_atom_site_fract_x
_atom_site_fract_y
_atom_site_fract_z
Si Si1 0.680713 0.337033 0.105840
Si Si2 0.680940 0.085396 0.695308
Si Si3 0.678999 0.424068 0.465882
Si Si4 0.820500 0.271900 0.947852
Si Si5 0.817166 0.996624 0.885064
Si Si6 0.680140 0.110981 0.431272
O O1 0.500000 0.347995 0.097064
O O2 0.718142 0.362878 0.159720
O O3 0.778282 0.370428 0.065815
O O4 0.706018 0.273859 0.094652
O O5 0.500000 0.083870 0.700088
O O6 0.750000 0.088140 0.750000
O O7 0.726983 0.031369 0.663903
O O8 0.500000 0.428325 0.474416
O O9 0.738776 0.472932 0.431500
O O10 0.767236 0.417839 0.517534
O O11 0.755661 0.329988 0.931541
O O12 0.000000 0.276960 0.955708
O O13 0.750000 0.250000 0.000000
O O14 0.000000 0.001853 0.890644
O O15 0.780080 0.932690 0.887983
O O16 0.500000 0.118221 0.431782
#
# Coordination Sequence:
#
# PCOD9481675 Si02
#       6
#    16  16  16  16  16  16
#     4   9  19  35  52  71 103 140 171 204 255 311
#     4   9  18  35  57  79  98 124 164 212 265 316
#     4  11  20  29  47  74 103 133 171 215 249 291
#     4  11  21  33  51  74 103 141 178 213 248 297
#     4   9  20  36  51  69 100 138 170 203 257 316
#     4  11  21  33  49  69 101 143 176 205 247 302
#
# _framework density 16.569013000000002
#
# number of rings (size 3 to 8) (size 9 to 14) (size 15 to 20)
#    0.000    2.000    1.667    4.000    0.000    6.667 
#    0.000    0.000    0.000    1.000    0.000    7.000 
#    0.000    0.000    0.000    0.000    0.000    0.000 
#
# Total GULP energy -267688.727818 kJ/mol
# GULP energy per Si atom -5576.848496 kJ/mol
# Density = 1.653130 g / cm^3
# Si number density = 16.569013 Si / 1000 Ang^3
#
#
#
# Elastic Constant Matrix: (Units=GPa)
#
#
# Indices 1 2 3 4 5 6 
#
# 1 39.4244 43.3216 26.4144 0.0000 0.0000 0.0000
# 2 43.3216 126.2160 61.7266 0.0000 0.0000 0.0000
# 3 26.4144 61.7266 100.2403 0.0000 0.0000 0.0000
# 4 0.0000 0.0000 0.0000 7.1109 0.0000 0.0000
# 5 0.0000 0.0000 0.0000 0.0000 24.0285 0.0000
# 6 0.0000 0.0000 0.0000 0.0000 0.0000 26.0574
#
#
#
# Elastic Compliance Matrix: (Units=1/GPa)
#
#
# Indices 1 2 3 4 5 6 
#
# 1 0.041382 -0.012694 -0.003088 0.000000 0.000000 0.000000
# 2 -0.012694 0.015231 -0.006034 0.000000 0.000000 0.000000
# 3 -0.003088 -0.006034 0.014505 0.000000 0.000000 0.000000
# 4 0.000000 0.000000 0.000000 0.140630 0.000000 0.000000
# 5 0.000000 0.000000 0.000000 0.000000 0.041617 0.000000
# 6 0.000000 0.000000 0.000000 0.000000 0.000000 0.038377
#
#
# Mechanical properties :
#
#
# Convention : Reuss Voigt Hill
#
# Bulk Modulus (GPa) = 36.38066 58.75622 47.56844
# Shear Modulus (GPa) = 14.51224 20.40055 17.45640
#
# Velocity S-wave (km/s) = 2.96271 3.51272 3.24938
# Velocity P-wave (km/s) = 5.80588 7.21046 6.54595
#
# Compressibility (1/GPa) = 0.02748713
#
# Stress axis : x y z
#
# Youngs Moduli (GPa) = 24.16481 65.65668 68.93959
#
# Poissons Ratio (x) = 0.83342 0.21290
# Poissons Ratio (y) = 0.30674 0.41598
# Poissons Ratio (z) = 0.07463 0.39617
#
# Static dielectric constant tensor:
#      x y z
#    x 1.555010 0.000000 0.000000 
#    y 0.000000 1.600020 0.000000 
#    z 0.000000 0.000000 1.541040 
# 
# From -- ./inp_files/43065.got.cif
#   From: 2010.05.17/outbox.cif.g08.bks.cpg/sg64_22_cif.got.tgz:43065.got - 2010.06.03 16:29:19.
