data_PCOD9481611
_publ_section_title
;
Structure prediction by ZEFSAII (Michael W. Deem and Ramdas Pophale) SiO2 
 PCOD9481611
Probable space group: C M C A
;
_chemical_formula_sum "Si O2"
_cell_formula_units_Z 88
_cell_length_a 20.177442
_cell_length_b 14.914413
_cell_length_c 11.799733
_cell_angle_alpha 90.000000
_cell_angle_beta 90.000000
_cell_angle_gamma 90.000000
_cell_volume 3550.949149
_symmetry_space_group_name_H-M "C M C A"
_symmetry_group_IT_number 64
_symmetry_cell_setting 'orthorhombic'
loop_
_space_group_symop_operation_xyz
x,y,z
-x,1/2-y,1/2+z
x,-y,-z
-x,1/2+y,1/2-z
-x,-y,-z
x,1/2+y,1/2-z
-x,y,z
x,1/2-y,1/2+z
1/2+x,1/2+y,z
1/2-x,-y,1/2+z
1/2+x,1/2-y,-z
1/2-x,y,1/2-z
1/2-x,1/2-y,-z
1/2+x,y,1/2-z
1/2-x,1/2+y,z
1/2+x,-y,1/2+z
loop_
_atom_site_type_symbol
_atom_site_label
_atom_site_fract_x
_atom_site_fract_y
_atom_site_fract_z
Si Si1 0.621519 0.404699 0.548209
Si Si2 0.178768 0.381257 0.297882
Si Si3 0.728938 0.850405 0.537460
Si Si4 0.427885 0.713325 0.655144
Si Si5 0.000000 0.601677 0.377806
Si Si6 0.374884 0.072569 0.295868
O O1 0.598808 0.500000 0.500000
O O2 0.701235 0.400085 0.549345
O O3 0.596338 0.329783 0.461759
O O4 0.597191 0.390248 0.675686
O O5 0.250000 0.352564 0.250000
O O6 0.185969 0.385598 0.432264
O O7 0.124356 0.313146 0.250468
O O8 0.162054 0.480468 0.255770
O O9 0.750000 0.750000 0.500000
O O10 0.683359 0.868576 0.646285
O O11 0.500000 0.674832 0.686402
O O12 0.442603 0.817937 0.631244
O O13 0.938092 0.533320 0.366181
#
# Coordination Sequence:
#
# PCOD9481611 Si02
#       6
#    16  16  16  16   8  16
#     4  12  23  45  78 110 146 190 252 322 376 458
#     4  12  24  48  78 110 154 191 255 320 382 452
#     4  12  27  44  74 108 154 199 253 317 382 451
#     4  10  25  48  72 108 154 198 247 313 389 448
#     4  10  28  48  65 108 155 194 255 298 382 473
#     4  12  26  46  74 111 146 203 254 306 389 465
#
# _framework density 24.782107
#
# number of rings (size 3 to 8) (size 9 to 14) (size 15 to 20)
#    0.545    0.000    3.636    4.364    5.091    0.364 
#    4.909    0.909    0.000    0.000    0.000    0.000 
#    0.000    0.000    0.000    0.000    0.000    0.000 
#
# Total GULP energy -245283.270642 kJ/mol
# GULP energy per Si atom -5574.619787 kJ/mol
# Density = 2.472570 g / cm^3
# Si number density = 24.782107 Si / 1000 Ang^3
#
#
#
# Elastic Constant Matrix: (Units=GPa)
#
#
# Indices 1 2 3 4 5 6 
#
# 1 156.7744 -2.6171 -12.8974 0.0000 0.0000 0.0000
# 2 -2.6171 45.1583 -5.6891 0.0000 0.0000 0.0000
# 3 -12.8974 -5.6891 73.6501 0.0000 0.0000 0.0000
# 4 0.0000 0.0000 0.0000 32.6254 0.0000 0.0000
# 5 0.0000 0.0000 0.0000 0.0000 38.4199 0.0000
# 6 0.0000 0.0000 0.0000 0.0000 0.0000 -35.4677
#
#
#
# Elastic Compliance Matrix: (Units=1/GPa)
#
#
# Indices 1 2 3 4 5 6 
#
# 1 0.006484 0.000524 0.001176 0.000000 0.000000 0.000000
# 2 0.000524 0.022404 0.001822 0.000000 0.000000 0.000000
# 3 0.001176 0.001822 0.013924 0.000000 0.000000 0.000000
# 4 0.000000 0.000000 0.000000 0.030651 0.000000 0.000000
# 5 0.000000 0.000000 0.000000 0.000000 0.026028 0.000000
# 6 0.000000 0.000000 0.000000 0.000000 0.000000 -0.028195
#
#
# Mechanical properties :
#
#
# Convention : Reuss Voigt Hill
#
# Bulk Modulus (GPa) = 20.05727 25.90839 22.98283
# Shear Modulus (GPa) = 61.82616 26.90127 44.36371
#
# Velocity S-wave (km/s) = 5.00021 3.29828 4.23561
# Velocity P-wave (km/s) = 6.43794 4.99821 5.76321
#
# Compressibility (1/GPa) = 0.04985723
#
# Stress axis : x y z
#
# Youngs Moduli (GPa) = 154.22386 44.63431 71.81635
#
# Poissons Ratio (x) = -0.02339 -0.08445
# Poissons Ratio (y) = -0.08080 -0.13087
# Poissons Ratio (z) = -0.18136 -0.08134
#
# Static dielectric constant tensor:
#      x y z
#    x 1.640180 0.000000 0.000000 
#    y 0.000000 2.415360 0.000000 
#    z 0.000000 0.000000 2.681090 
# 
# From -- ./inp_files/17157.got.cif
#   From: 2010.05.17/outbox.cif.g08.bks.cpg/sg64_9_cif.got.tgz:17157.got - 2010.06.03 16:29:19.
