data_PCOD9481361
_publ_section_title
;
Structure prediction by ZEFSAII (Michael W. Deem and Ramdas Pophale) SiO2 
 PCOD9481361
Probable space group: C M C A
;
_chemical_formula_sum "Si O2"
_cell_formula_units_Z 48
_cell_length_a 13.725358
_cell_length_b 9.667943
_cell_length_c 12.188475
_cell_angle_alpha 90.000000
_cell_angle_beta 90.000000
_cell_angle_gamma 90.000000
_cell_volume 1617.361620
_symmetry_space_group_name_H-M "C M C A"
_symmetry_group_IT_number 64
_symmetry_cell_setting 'orthorhombic'
loop_
_space_group_symop_operation_xyz
x,y,z
-x,1/2-y,1/2+z
x,-y,-z
-x,1/2+y,1/2-z
-x,-y,-z
x,1/2+y,1/2-z
-x,y,z
x,1/2-y,1/2+z
1/2+x,1/2+y,z
1/2-x,-y,1/2+z
1/2+x,1/2-y,-z
1/2-x,y,1/2-z
1/2-x,1/2-y,-z
1/2+x,y,1/2-z
1/2-x,1/2+y,z
1/2+x,-y,1/2+z
loop_
_atom_site_type_symbol
_atom_site_label
_atom_site_fract_x
_atom_site_fract_y
_atom_site_fract_z
Si Si1 0.767203 0.195359 0.117873
Si Si2 0.887636 0.951687 0.349615
Si Si3 0.397968 0.392864 0.098580
O O1 0.750000 0.213166 0.250000
O O2 0.868655 0.289666 0.120914
O O3 0.699225 0.052732 0.107724
O O4 0.692919 0.305425 0.063026
O O5 0.000000 0.986754 0.378816
O O6 0.883181 0.964153 0.215801
O O7 0.500000 0.314951 0.108337
O O8 0.404438 0.500000 0.000000
#
# Coordination Sequence:
#
# PCOD9481361 Si02
#       3
#    16  16  16
#     4  12  26  46  74 110 151 199 255 313 376 449
#     4  11  27  51  77 109 153 201 251 312 380 450
#     4  10  23  44  72 108 148 194 252 313 375 448
#
# _framework density 29.677963999999999
#
# number of rings (size 3 to 8) (size 9 to 14) (size 15 to 20)
#    0.000    1.000    0.000    5.000    0.000   14.667 
#    0.000   13.333    0.000    0.000    0.000    0.000 
#    0.000    0.000    0.000    0.000    0.000    0.000 
#
# Total GULP energy -133692.342533 kJ/mol
# GULP energy per Si atom -5570.514272 kJ/mol
# Density = 2.961042 g / cm^3
# Si number density = 29.677964 Si / 1000 Ang^3
#
#
#
# Elastic Constant Matrix: (Units=GPa)
#
#
# Indices 1 2 3 4 5 6 
#
# 1 235.8862 95.2239 31.9771 0.0000 0.0000 0.0000
# 2 95.2239 171.7691 64.4134 0.0000 0.0000 0.0000
# 3 31.9771 64.4134 49.4559 0.0000 0.0000 0.0000
# 4 0.0000 0.0000 0.0000 47.0229 0.0000 0.0000
# 5 0.0000 0.0000 0.0000 0.0000 25.4876 0.0000
# 6 0.0000 0.0000 0.0000 0.0000 0.0000 29.3283
#
#
#
# Elastic Compliance Matrix: (Units=1/GPa)
#
#
# Indices 1 2 3 4 5 6 
#
# 1 0.005478 -0.003340 0.000808 0.000000 0.000000 0.000000
# 2 -0.003340 0.013416 -0.015314 0.000000 0.000000 0.000000
# 3 0.000808 -0.015314 0.039644 0.000000 0.000000 0.000000
# 4 0.000000 0.000000 0.000000 0.021266 0.000000 0.000000
# 5 0.000000 0.000000 0.000000 0.000000 0.039235 0.000000
# 6 0.000000 0.000000 0.000000 0.000000 0.000000 0.034097
#
#
# Mechanical properties :
#
#
# Convention : Reuss Voigt Hill
#
# Bulk Modulus (GPa) = 43.77233 93.37113 68.57173
# Shear Modulus (GPa) = 25.45266 38.06753 31.76010
#
# Velocity S-wave (km/s) = 2.93171 3.58535 3.27488
# Velocity P-wave (km/s) = 5.12260 6.97634 6.12006
#
# Compressibility (1/GPa) = 0.02284548
#
# Stress axis : x y z
#
# Youngs Moduli (GPa) = 182.54634 74.53696 25.22477
#
# Poissons Ratio (x) = 0.24894 -0.02038
# Poissons Ratio (y) = 0.60968 0.38630
# Poissons Ratio (z) = -0.14750 1.14148
#
# Static dielectric constant tensor:
#      x y z
#    x 2.266240 0.000000 0.000000 
#    y 0.000000 2.466380 0.000000 
#    z 0.000000 0.000000 8.396240 
# 
# From -- ./inp_files/22949.got.cif
#   From: 2010.05.17/outbox.cif.g08.bks.cpg/sg64_12_cif.got.tgz:22949.got - 2010.06.03 16:29:19.
