data_PCOD9481633
_publ_section_title
;
Structure prediction by ZEFSAII (Michael W. Deem and Ramdas Pophale) SiO2 
 PCOD9481633
Probable space group: C M C A
;
_chemical_formula_sum "Si O2"
_cell_formula_units_Z 48
_cell_length_a 15.853670
_cell_length_b 26.948842
_cell_length_c 4.980495
_cell_angle_alpha 90.000000
_cell_angle_beta 90.000000
_cell_angle_gamma 90.000000
_cell_volume 2127.856962
_symmetry_space_group_name_H-M "C M C A"
_symmetry_group_IT_number 64
_symmetry_cell_setting 'orthorhombic'
loop_
_space_group_symop_operation_xyz
x,y,z
-x,1/2-y,1/2+z
x,-y,-z
-x,1/2+y,1/2-z
-x,-y,-z
x,1/2+y,1/2-z
-x,y,z
x,1/2-y,1/2+z
1/2+x,1/2+y,z
1/2-x,-y,1/2+z
1/2+x,1/2-y,-z
1/2-x,y,1/2-z
1/2-x,1/2-y,-z
1/2+x,y,1/2-z
1/2-x,1/2+y,z
1/2+x,-y,1/2+z
loop_
_atom_site_type_symbol
_atom_site_label
_atom_site_fract_x
_atom_site_fract_y
_atom_site_fract_z
Si Si1 0.750000 0.161438 0.750000
Si Si2 0.500000 0.463898 0.750077
Si Si3 0.409689 0.625706 0.062785
Si Si4 0.874561 0.782646 0.564679
O O1 0.671023 0.131243 0.629215
O O2 0.781242 0.197645 0.513913
O O3 0.500000 0.500000 0.500000
O O4 0.420480 0.426390 0.781228
O O5 0.500000 0.500000 0.000000
O O6 0.500000 0.629583 0.909608
O O7 0.408568 0.668943 0.284977
O O8 0.896981 0.761506 0.270466
#
# Coordination Sequence:
#
# PCOD9481633 Si02
#       4
#     8   8  16  16
#     4  12  24  46  78 112 166 206 260 310 380 458
#     4  10  26  52  82 102 148 200 256 334 406 444
#     4  10  27  45  77 114 154 207 265 316 380 467
#     4  12  25  44  69 106 159 212 252 307 374 450
#
# _framework density 22.557907
#
# number of rings (size 3 to 8) (size 9 to 14) (size 15 to 20)
#    1.000    0.000    3.333    2.000    4.667    2.667 
#    0.000    0.000    7.333    0.000    0.000    0.000 
#    0.000    0.000    0.000    0.000    0.000    0.000 
#
# Total GULP energy -133647.603878 kJ/mol
# GULP energy per Si atom -5568.650162 kJ/mol
# Density = 2.250656 g / cm^3
# Si number density = 22.557907 Si / 1000 Ang^3
#
#
#
# Elastic Constant Matrix: (Units=GPa)
#
#
# Indices 1 2 3 4 5 6 
#
# 1 159.1967 51.1323 65.2139 0.0000 0.0000 0.0000
# 2 51.1323 164.1722 59.4201 0.0000 0.0000 0.0000
# 3 65.2139 59.4201 165.5270 0.0000 0.0000 0.0000
# 4 0.0000 0.0000 0.0000 35.1570 0.0000 0.0000
# 5 0.0000 0.0000 0.0000 0.0000 30.7818 0.0000
# 6 0.0000 0.0000 0.0000 0.0000 0.0000 35.2829
#
#
#
# Elastic Compliance Matrix: (Units=1/GPa)
#
#
# Indices 1 2 3 4 5 6 
#
# 1 0.007805 -0.001515 -0.002531 0.000000 0.000000 0.000000
# 2 -0.001515 0.007295 -0.002022 0.000000 0.000000 0.000000
# 3 -0.002531 -0.002022 0.007764 0.000000 0.000000 0.000000
# 4 0.000000 0.000000 0.000000 0.028444 0.000000 0.000000
# 5 0.000000 0.000000 0.000000 0.000000 0.032487 0.000000
# 6 0.000000 0.000000 0.000000 0.000000 0.000000 0.028342
#
#
# Mechanical properties :
#
#
# Convention : Reuss Voigt Hill
#
# Bulk Modulus (GPa) = 93.21059 93.38093 93.29576
# Shear Modulus (GPa) = 39.10873 41.11965 40.11419
#
# Velocity S-wave (km/s) = 4.16829 4.27412 4.22154
# Velocity P-wave (km/s) = 8.03595 8.11439 8.07527
#
# Compressibility (1/GPa) = 0.01072839
#
# Stress axis : x y z
#
# Youngs Moduli (GPa) = 128.12374 137.08540 128.79382
#
# Poissons Ratio (x) = 0.20765 0.32601
# Poissons Ratio (y) = 0.19408 0.26040
# Poissons Ratio (z) = 0.32431 0.27717
#
# Static dielectric constant tensor:
#      x y z
#    x 1.993550 0.000000 0.000000 
#    y 0.000000 1.821480 0.000000 
#    z 0.000000 0.000000 1.851250 
# 
# From -- ./inp_files/1164.got.cif
#   From: 2010.05.17/outbox.cif.g08.bks.cpg/sg64_1_cif.got.tgz:1164.got - 2010.06.03 16:29:19.
