data_PCOD9481197
_publ_section_title
;
Structure prediction by ZEFSAII (Michael W. Deem and Ramdas Pophale) SiO2 
 PCOD9481197
Probable space group: C M C A
;
_chemical_formula_sum "Si O2"
_cell_formula_units_Z 112
_cell_length_a 26.139875
_cell_length_b 14.009721
_cell_length_c 14.610975
_cell_angle_alpha 90.000000
_cell_angle_beta 90.000000
_cell_angle_gamma 90.000000
_cell_volume 5350.719574
_symmetry_space_group_name_H-M "C M C A"
_symmetry_group_IT_number 64
_symmetry_cell_setting 'orthorhombic'
loop_
_space_group_symop_operation_xyz
x,y,z
-x,1/2-y,1/2+z
x,-y,-z
-x,1/2+y,1/2-z
-x,-y,-z
x,1/2+y,1/2-z
-x,y,z
x,1/2-y,1/2+z
1/2+x,1/2+y,z
1/2-x,-y,1/2+z
1/2+x,1/2-y,-z
1/2-x,y,1/2-z
1/2-x,1/2-y,-z
1/2+x,y,1/2-z
1/2-x,1/2+y,z
1/2+x,-y,1/2+z
loop_
_atom_site_type_symbol
_atom_site_label
_atom_site_fract_x
_atom_site_fract_y
_atom_site_fract_z
Si Si1 0.112030 0.697228 0.363670
Si Si2 0.598063 0.616872 0.758536
Si Si3 0.366893 0.088534 0.063220
Si Si4 0.558514 0.919551 0.785538
Si Si5 0.561265 0.107991 0.534654
Si Si6 0.702649 0.037494 0.808195
Si Si7 0.704233 0.212892 0.937871
O O1 0.095482 0.790414 0.305798
O O2 0.093166 0.611820 0.299645
O O3 0.084099 0.679543 0.459598
O O4 0.172826 0.707521 0.381159
O O5 0.563622 0.533854 0.713599
O O6 0.581911 0.628065 0.863551
O O7 0.656607 0.580627 0.752159
O O8 0.414186 0.121082 0.124487
O O9 0.323734 0.043304 0.129877
O O10 0.339644 0.166707 0.001892
O O11 0.383641 0.000000 0.000000
O O12 0.500000 0.889856 0.774380
O O13 0.500000 0.114180 0.536477
O O14 0.574450 0.000000 0.500000
O O15 0.750000 0.001901 0.750000
O O16 0.720696 0.125904 0.872108
O O17 0.750000 0.250000 0.000000
#
# Coordination Sequence:
#
# PCOD9481197 Si02
#       7
#    16  16  16  16  16  16  16
#     4  11  25  42  63  99 132 172 225 274 330 403
#     4  10  23  43  64  93 136 169 217 277 328 402
#     4   9  21  43  61  90 128 161 218 273 320 394
#     4  11  23  42  67  92 130 175 219 272 333 392
#     4  11  23  42  67  95 133 175 220 278 331 393
#     4   9  20  39  65  92 124 170 215 275 334 396
#     4  10  23  40  63  93 130 170 216 275 332 402
#
# _framework density 20.931764000000001
#
# number of rings (size 3 to 8) (size 9 to 14) (size 15 to 20)
#    0.000    1.857    1.429    1.714    4.000    6.000 
#    0.000    0.714    0.000    0.000    0.000    0.000 
#    0.000    0.000    0.000    0.000    0.000    0.000 
#
# Total GULP energy -312863.533537 kJ/mol
# GULP energy per Si atom -5586.848813 kJ/mol
# Density = 2.088412 g / cm^3
# Si number density = 20.931764 Si / 1000 Ang^3
#
#
#
# Elastic Constant Matrix: (Units=GPa)
#
#
# Indices 1 2 3 4 5 6 
#
# 1 61.6757 22.7765 22.7624 0.0000 0.0000 0.0000
# 2 22.7765 58.9230 16.3136 0.0000 0.0000 0.0000
# 3 22.7624 16.3136 91.6673 0.0000 0.0000 0.0000
# 4 0.0000 0.0000 0.0000 27.7374 0.0000 0.0000
# 5 0.0000 0.0000 0.0000 0.0000 27.7583 0.0000
# 6 0.0000 0.0000 0.0000 0.0000 0.0000 7.2307
#
#
#
# Elastic Compliance Matrix: (Units=1/GPa)
#
#
# Indices 1 2 3 4 5 6 
#
# 1 0.020095 -0.006717 -0.003794 0.000000 0.000000 0.000000
# 2 -0.006717 0.020096 -0.001908 0.000000 0.000000 0.000000
# 3 -0.003794 -0.001908 0.012191 0.000000 0.000000 0.000000
# 4 0.000000 0.000000 0.000000 0.036052 0.000000 0.000000
# 5 0.000000 0.000000 0.000000 0.000000 0.036025 0.000000
# 6 0.000000 0.000000 0.000000 0.000000 0.000000 0.138299
#
#
# Mechanical properties :
#
#
# Convention : Reuss Voigt Hill
#
# Bulk Modulus (GPa) = 36.30831 37.33010 36.81920
# Shear Modulus (GPa) = 16.84756 22.57284 19.71020
#
# Velocity S-wave (km/s) = 2.84012 3.28746 3.07195
# Velocity P-wave (km/s) = 5.30459 5.68180 5.49643
#
# Compressibility (1/GPa) = 0.02754191
#
# Stress axis : x y z
#
# Youngs Moduli (GPa) = 49.76408 49.76081 82.02853
#
# Poissons Ratio (x) = 0.33425 0.31125
# Poissons Ratio (y) = 0.33427 0.15655
# Poissons Ratio (z) = 0.18883 0.09497
#
# Static dielectric constant tensor:
#      x y z
#    x 1.714990 0.000000 0.000000 
#    y 0.000000 1.834170 0.000000 
#    z 0.000000 0.000000 1.812860 
# 
# From -- ./inp_files/27454.got.cif
#   From: 2010.05.17/outbox.cif.g08.bks.cpg/sg64_14_cif.got.tgz:27454.got - 2010.06.03 16:29:19.
