data_PCOD9481538
_publ_section_title
;
Structure prediction by ZEFSAII (Michael W. Deem and Ramdas Pophale) SiO2 
 PCOD9481538
Probable space group: C M C A
;
_chemical_formula_sum "Si O2"
_cell_formula_units_Z 104
_cell_length_a 19.770723
_cell_length_b 24.973671
_cell_length_c 9.614141
_cell_angle_alpha 90.000000
_cell_angle_beta 90.000000
_cell_angle_gamma 90.000000
_cell_volume 4746.958388
_symmetry_space_group_name_H-M "C M C A"
_symmetry_group_IT_number 64
_symmetry_cell_setting 'orthorhombic'
loop_
_space_group_symop_operation_xyz
x,y,z
-x,1/2-y,1/2+z
x,-y,-z
-x,1/2+y,1/2-z
-x,-y,-z
x,1/2+y,1/2-z
-x,y,z
x,1/2-y,1/2+z
1/2+x,1/2+y,z
1/2-x,-y,1/2+z
1/2+x,1/2-y,-z
1/2-x,y,1/2-z
1/2-x,1/2-y,-z
1/2+x,y,1/2-z
1/2-x,1/2+y,z
1/2+x,-y,1/2+z
loop_
_atom_site_type_symbol
_atom_site_label
_atom_site_fract_x
_atom_site_fract_y
_atom_site_fract_z
Si Si1 0.750000 0.560336 0.750000
Si Si2 0.419765 0.182420 0.680630
Si Si3 0.851536 0.085836 0.937728
Si Si4 0.500000 0.053545 0.581812
Si Si5 0.422258 0.278430 0.871116
Si Si6 0.648750 0.565493 0.508422
Si Si7 0.000000 0.445919 0.090915
Si Si8 0.323553 0.129428 0.272082
O O1 0.814284 0.540978 0.655794
O O2 0.706350 0.583086 0.618985
O O3 0.500000 0.163203 0.694084
O O4 0.359812 0.139375 0.656597
O O5 0.405267 0.220328 0.810695
O O6 0.417884 0.216530 0.537540
O O7 0.930672 0.079510 0.964309
O O8 0.819451 0.094779 0.086804
O O9 0.500000 0.042861 0.745639
O O10 0.500000 0.000000 0.500000
O O11 0.500000 0.288606 0.831793
O O12 0.377065 0.324225 0.802017
O O13 0.653377 0.500000 0.500000
O O14 0.572585 0.580579 0.558128
O O15 0.659155 0.592133 0.358696
O O16 0.000000 0.500000 0.000000
O O17 0.250000 0.154290 0.250000
#
# Coordination Sequence:
#
# PCOD9481538 Si02
#       8
#     8  16  16   8  16  16   8  16
#     4  12  24  42  62  94 126 170 212 258 328 382
#     4   9  18  39  62  92 123 163 209 265 312 377
#     4  11  24  42  66  93 131 167 217 264 321 385
#     4  12  26  42  70  95 125 173 219 269 320 375
#     4   9  20  38  65  92 122 163 213 257 320 384
#     4  11  26  42  66  88 128 169 215 265 322 380
#     4  10  24  46  60  93 125 157 223 271 313 373
#     4  11  24  43  62  94 130 171 208 265 326 389
#
# _framework density 21.908764999999999
#
# number of rings (size 3 to 8) (size 9 to 14) (size 15 to 20)
#    0.000    1.538    3.846    0.000    7.538    1.846 
#    1.385    1.538    0.000    0.000    0.000    0.000 
#    0.000    0.000    0.000    0.000    0.000    0.000 
#
# Total GULP energy -289664.275705 kJ/mol
# GULP energy per Si atom -5570.466840 kJ/mol
# Density = 2.185890 g / cm^3
# Si number density = 21.908765 Si / 1000 Ang^3
#
#
#
# Elastic Constant Matrix: (Units=GPa)
#
#
# Indices 1 2 3 4 5 6 
#
# 1 95.1160 -4.5122 25.4979 0.0000 0.0000 0.0000
# 2 -4.5122 34.9432 12.9673 0.0000 0.0000 0.0000
# 3 25.4979 12.9673 94.4393 0.0000 0.0000 0.0000
# 4 0.0000 0.0000 0.0000 29.4477 0.0000 0.0000
# 5 0.0000 0.0000 0.0000 0.0000 30.5604 0.0000
# 6 0.0000 0.0000 0.0000 0.0000 0.0000 -12.6223
#
#
#
# Elastic Compliance Matrix: (Units=1/GPa)
#
#
# Indices 1 2 3 4 5 6 
#
# 1 0.011588 0.002800 -0.003513 0.000000 0.000000 0.000000
# 2 0.002800 0.030831 -0.004989 0.000000 0.000000 0.000000
# 3 -0.003513 -0.004989 0.012222 0.000000 0.000000 0.000000
# 4 0.000000 0.000000 0.000000 0.033959 0.000000 0.000000
# 5 0.000000 0.000000 0.000000 0.000000 0.032722 0.000000
# 6 0.000000 0.000000 0.000000 0.000000 0.000000 -0.079225
#
#
# Mechanical properties :
#
#
# Convention : Reuss Voigt Hill
#
# Bulk Modulus (GPa) = 23.12856 32.48939 27.80898
# Shear Modulus (GPa) = 73.62203 22.18019 47.90111
#
# Velocity S-wave (km/s) = 5.80318 3.18526 4.68096
# Velocity P-wave (km/s) = 7.44864 5.32817 6.47579
#
# Compressibility (1/GPa) = 0.04323658
#
# Stress axis : x y z
#
# Youngs Moduli (GPa) = 86.29546 32.43496 81.81685
#
# Poissons Ratio (x) = -0.09082 0.28744
# Poissons Ratio (y) = -0.24163 0.40821
# Poissons Ratio (z) = 0.30317 0.16183
#
# Static dielectric constant tensor:
#      x y z
#    x 1.864960 0.000000 0.000000 
#    y 0.000000 1.777930 0.000000 
#    z 0.000000 0.000000 1.792920 
# 
# From -- ./inp_files/8718.got.cif
#   From: 2010.05.17/outbox.cif.g08.bks.cpg/sg64_5_cif.got.tgz:8718.got - 2010.06.03 16:29:19.
