data_PCOD9481448
_publ_section_title
;
Structure prediction by ZEFSAII (Michael W. Deem and Ramdas Pophale) SiO2 
 PCOD9481448
Probable space group: C M C A
;
_chemical_formula_sum "Si O2"
_cell_formula_units_Z 56
_cell_length_a 26.034214
_cell_length_b 8.691504
_cell_length_c 10.043470
_cell_angle_alpha 90.000000
_cell_angle_beta 90.000000
_cell_angle_gamma 90.000000
_cell_volume 2272.600990
_symmetry_space_group_name_H-M "C M C A"
_symmetry_group_IT_number 64
_symmetry_cell_setting 'orthorhombic'
loop_
_space_group_symop_operation_xyz
x,y,z
-x,1/2-y,1/2+z
x,-y,-z
-x,1/2+y,1/2-z
-x,-y,-z
x,1/2+y,1/2-z
-x,y,z
x,1/2-y,1/2+z
1/2+x,1/2+y,z
1/2-x,-y,1/2+z
1/2+x,1/2-y,-z
1/2-x,y,1/2-z
1/2-x,1/2-y,-z
1/2+x,y,1/2-z
1/2-x,1/2+y,z
1/2+x,-y,1/2+z
loop_
_atom_site_type_symbol
_atom_site_label
_atom_site_fract_x
_atom_site_fract_y
_atom_site_fract_z
Si Si1 0.794261 0.271164 0.339054
Si Si2 0.778932 0.000000 0.500000
Si Si3 0.560267 0.208737 0.428048
Si Si4 0.901104 0.096848 0.792887
O O1 0.750000 0.195071 0.250000
O O2 0.812604 0.130419 0.429679
O O3 0.760659 0.397867 0.414701
O O4 0.841846 0.356216 0.274171
O O5 0.500000 0.171464 0.423060
O O6 0.577672 0.197165 0.581345
O O7 0.570309 0.362402 0.343523
O O8 0.590964 0.075814 0.346432
#
# Coordination Sequence:
#
# PCOD9481448 Si02
#       4
#    16   8  16  16
#     4  11  25  41  66  97 138 176 227 272 333 403
#     4  10  24  42  64  90 140 176 224 272 326 388
#     4  11  24  47  71 101 136 176 231 287 342 405
#     4  11  26  42  72 100 136 181 224 279 348 403
#
# _framework density 24.641369000000001
#
# number of rings (size 3 to 8) (size 9 to 14) (size 15 to 20)
#    0.000    1.143    0.000    6.000   16.000    1.143 
#    0.000    2.857    0.000    0.000    0.000    0.000 
#    0.000    0.000    0.000    0.000    0.000    0.000 
#
# Total GULP energy -156645.532981 kJ/mol
# GULP energy per Si atom -5594.483321 kJ/mol
# Density = 2.458528 g / cm^3
# Si number density = 24.641369 Si / 1000 Ang^3
#
#
#
# Elastic Constant Matrix: (Units=GPa)
#
#
# Indices 1 2 3 4 5 6 
#
# 1 117.9728 0.1509 -15.7519 0.0000 0.0000 0.0000
# 2 0.1509 63.1409 4.1112 0.0000 0.0000 0.0000
# 3 -15.7519 4.1112 58.5920 0.0000 0.0000 0.0000
# 4 0.0000 0.0000 0.0000 55.9386 0.0000 0.0000
# 5 0.0000 0.0000 0.0000 0.0000 38.8791 0.0000
# 6 0.0000 0.0000 0.0000 0.0000 0.0000 20.4352
#
#
#
# Elastic Compliance Matrix: (Units=1/GPa)
#
#
# Indices 1 2 3 4 5 6 
#
# 1 0.008794 -0.000176 0.002377 0.000000 0.000000 0.000000
# 2 -0.000176 0.015914 -0.001164 0.000000 0.000000 0.000000
# 3 0.002377 -0.001164 0.017788 0.000000 0.000000 0.000000
# 4 0.000000 0.000000 0.000000 0.017877 0.000000 0.000000
# 5 0.000000 0.000000 0.000000 0.000000 0.025721 0.000000
# 6 0.000000 0.000000 0.000000 0.000000 0.000000 0.048935
#
#
# Mechanical properties :
#
#
# Convention : Reuss Voigt Hill
#
# Bulk Modulus (GPa) = 22.43688 24.08065 23.25877
# Shear Modulus (GPa) = 33.82701 39.79695 36.81198
#
# Velocity S-wave (km/s) = 3.70912 4.02312 3.86931
# Velocity P-wave (km/s) = 5.24104 5.60128 5.42415
#
# Compressibility (1/GPa) = 0.04456948
#
# Stress axis : x y z
#
# Youngs Moduli (GPa) = 113.71291 62.83860 56.21850
#
# Poissons Ratio (x) = 0.01104 -0.13361
# Poissons Ratio (y) = 0.01998 0.06543
# Poissons Ratio (z) = -0.27024 0.07313
#
# Static dielectric constant tensor:
#      x y z
#    x 1.899710 0.000000 0.000000 
#    y 0.000000 1.944100 0.000000 
#    z 0.000000 0.000000 1.640380 
# 
# From -- ./inp_files/18837.got.cif
#   From: 2010.05.17/outbox.cif.g08.bks.cpg/sg64_10_cif.got.tgz:18837.got - 2010.06.03 16:29:19.
