data_PCOD9481928
_publ_section_title
;
Structure prediction by ZEFSAII (Michael W. Deem and Ramdas Pophale) SiO2 
 PCOD9481928
Probable space group: C M C A
;
_chemical_formula_sum "Si O2"
_cell_formula_units_Z 96
_cell_length_a 14.340026
_cell_length_b 21.642368
_cell_length_c 15.142128
_cell_angle_alpha 90.000000
_cell_angle_beta 90.000000
_cell_angle_gamma 90.000000
_cell_volume 4699.391523
_symmetry_space_group_name_H-M "C M C A"
_symmetry_group_IT_number 64
_symmetry_cell_setting 'orthorhombic'
loop_
_space_group_symop_operation_xyz
x,y,z
-x,1/2-y,1/2+z
x,-y,-z
-x,1/2+y,1/2-z
-x,-y,-z
x,1/2+y,1/2-z
-x,y,z
x,1/2-y,1/2+z
1/2+x,1/2+y,z
1/2-x,-y,1/2+z
1/2+x,1/2-y,-z
1/2-x,y,1/2-z
1/2-x,1/2-y,-z
1/2+x,y,1/2-z
1/2-x,1/2+y,z
1/2+x,-y,1/2+z
loop_
_atom_site_type_symbol
_atom_site_label
_atom_site_fract_x
_atom_site_fract_y
_atom_site_fract_z
Si Si1 0.179361 0.065204 0.485811
Si Si2 0.357192 0.428238 0.721030
Si Si3 0.192424 0.183425 0.003699
Si Si4 0.000000 0.854201 0.099142
Si Si5 0.500000 0.299046 0.294397
Si Si6 0.348126 0.697315 0.205132
Si Si7 0.000000 0.477191 0.295113
Si Si8 0.500000 0.584366 0.602620
O O1 0.143282 0.065404 0.384652
O O2 0.238281 0.125662 0.512113
O O3 0.090426 0.064558 0.549539
O O4 0.231993 0.000000 0.500000
O O5 0.250000 0.430010 0.750000
O O6 0.392080 0.359448 0.741987
O O7 0.411686 0.477547 0.780961
O O8 0.095574 0.171611 0.948267
O O9 0.250000 0.250000 0.000000
O O10 0.165501 0.175947 0.105596
O O11 0.000000 0.829126 0.198427
O O12 0.000000 0.929164 0.122182
O O13 0.590031 0.256973 0.297395
O O14 0.500000 0.342802 0.379221
O O15 0.250000 0.711753 0.250000
O O16 0.000000 0.441333 0.201582
#
# Coordination Sequence:
#
# PCOD9481928 Si02
#       8
#    16  16  16   8   8  16   8   8
#     4  12  24  44  74 103 138 181 241 294 354 416
#     4  11  23  43  69 100 136 182 234 285 352 420
#     4  12  26  47  70 105 143 184 238 291 355 429
#     4  11  29  43  68 103 144 185 223 293 369 414
#     4  11  24  44  66  96 136 182 224 279 366 406
#     4  11  22  44  66  97 131 177 237 278 338 422
#     4  11  24  44  65 100 144 176 230 291 347 420
#     4  11  24  42  66 102 133 179 233 295 340 422
#
# _framework density 20.428176000000001
#
# number of rings (size 3 to 8) (size 9 to 14) (size 15 to 20)
#    0.000    0.667    5.000    3.750    2.333    0.667 
#    0.000    4.583    0.000    0.000    0.000    0.000 
#    0.000    0.000    0.000    0.000    0.000    0.000 
#
# Total GULP energy -267686.678599 kJ/mol
# GULP energy per Si atom -5576.805804 kJ/mol
# Density = 2.038168 g / cm^3
# Si number density = 20.428176 Si / 1000 Ang^3
#
#
#
# Elastic Constant Matrix: (Units=GPa)
#
#
# Indices 1 2 3 4 5 6 
#
# 1 119.2389 48.4437 13.8976 0.0000 0.0000 0.0000
# 2 48.4437 141.0183 5.7133 0.0000 0.0000 0.0000
# 3 13.8976 5.7133 74.9747 0.0000 0.0000 0.0000
# 4 0.0000 0.0000 0.0000 36.4610 0.0000 0.0000
# 5 0.0000 0.0000 0.0000 0.0000 23.8062 0.0000
# 6 0.0000 0.0000 0.0000 0.0000 0.0000 13.3212
#
#
#
# Elastic Compliance Matrix: (Units=1/GPa)
#
#
# Indices 1 2 3 4 5 6 
#
# 1 0.009931 -0.003347 -0.001586 0.000000 0.000000 0.000000
# 2 -0.003347 0.008242 -0.000008 0.000000 0.000000 0.000000
# 3 -0.001586 -0.000008 0.013632 0.000000 0.000000 0.000000
# 4 0.000000 0.000000 0.000000 0.027427 0.000000 0.000000
# 5 0.000000 0.000000 0.000000 0.000000 0.042006 0.000000
# 6 0.000000 0.000000 0.000000 0.000000 0.000000 0.075068
#
#
# Mechanical properties :
#
#
# Convention : Reuss Voigt Hill
#
# Bulk Modulus (GPa) = 45.61293 52.37124 48.99209
# Shear Modulus (GPa) = 25.84040 32.52951 29.18495
#
# Velocity S-wave (km/s) = 3.56046 3.99480 3.78386
# Velocity P-wave (km/s) = 6.26733 6.85349 6.56695
#
# Compressibility (1/GPa) = 0.02192361
#
# Stress axis : x y z
#
# Youngs Moduli (GPa) = 100.69135 121.33683 73.35490
#
# Poissons Ratio (x) = 0.40617 0.11633
# Poissons Ratio (y) = 0.33706 0.00055
# Poissons Ratio (z) = 0.15968 0.00091
#
# Static dielectric constant tensor:
#      x y z
#    x 2.107720 0.000000 0.000000 
#    y 0.000000 1.912800 0.000000 
#    z 0.000000 0.000000 1.685870 
# 
# From -- ./inp_files/24011.got.cif
#   From: 2010.05.17/outbox.cif.g08.bks.cpg/sg64_13_cif.got.tgz:24011.got - 2010.06.03 16:29:19.
