data_PCOD9481008
_publ_section_title
;
Structure prediction by ZEFSAII (Michael W. Deem and Ramdas Pophale) SiO2 
 PCOD9481008
Probable space group: C M C A
;
_chemical_formula_sum "Si O2"
_cell_formula_units_Z 116
_cell_length_a 26.885769
_cell_length_b 22.270564
_cell_length_c 8.826742
_cell_angle_alpha 90.000000
_cell_angle_beta 90.000000
_cell_angle_gamma 90.000000
_cell_volume 5285.110978
_symmetry_space_group_name_H-M "C M C A"
_symmetry_group_IT_number 64
_symmetry_cell_setting 'orthorhombic'
loop_
_space_group_symop_operation_xyz
x,y,z
-x,1/2-y,1/2+z
x,-y,-z
-x,1/2+y,1/2-z
-x,-y,-z
x,1/2+y,1/2-z
-x,y,z
x,1/2-y,1/2+z
1/2+x,1/2+y,z
1/2-x,-y,1/2+z
1/2+x,1/2-y,-z
1/2-x,y,1/2-z
1/2-x,1/2-y,-z
1/2+x,y,1/2-z
1/2-x,1/2+y,z
1/2+x,-y,1/2+z
loop_
_atom_site_type_symbol
_atom_site_label
_atom_site_fract_x
_atom_site_fract_y
_atom_site_fract_z
Si Si1 0.375889 0.469202 0.159389
Si Si2 0.698901 0.137532 0.651602
Si Si3 0.123627 0.257311 0.321382
Si Si4 0.555391 0.764683 0.072898
Si Si5 0.299209 0.336746 0.792699
Si Si6 0.420497 0.902902 0.086459
Si Si7 0.000000 0.000000 0.500000
Si Si8 0.170935 0.945890 0.597615
O O1 0.326715 0.427916 0.147704
O O2 0.416780 0.426019 0.238696
O O3 0.363629 0.521207 0.278966
O O4 0.388878 0.500000 0.000000
O O5 0.750000 0.138183 0.750000
O O6 0.658318 0.185515 0.715687
O O7 0.703334 0.154036 0.472993
O O8 0.069271 0.252566 0.246351
O O9 0.105065 0.260846 0.493050
O O10 0.154546 0.199353 0.274373
O O11 0.500000 0.743611 0.036150
O O12 0.560171 0.836408 0.061282
O O13 0.250000 0.299867 0.750000
O O14 0.298195 0.397974 0.692991
O O15 0.365234 0.911352 0.018431
O O16 0.456846 0.948249 0.004027
O O17 0.196130 0.000000 0.500000
#
# Coordination Sequence:
#
# PCOD9481008 Si02
#       8
#    16  16  16  16  16  16   4  16
#     4  11  22  43  66  94 139 183 219 284 354 410
#     4  12  28  44  68 104 142 189 239 290 358 429
#     4  12  26  47  72  99 144 184 231 304 357 418
#     4  12  25  44  73 104 133 181 236 293 359 428
#     4  12  27  44  70 104 139 186 241 286 354 430
#     4  11  22  39  73  96 135 178 227 284 347 419
#     4  12  20  40  70 108 120 176 246 276 336 434
#     4  10  22  42  67  97 132 179 223 279 347 409
#
# _framework density 21.948452
#
# number of rings (size 3 to 8) (size 9 to 14) (size 15 to 20)
#    0.000    0.552    8.276    0.828    5.793    1.655 
#    0.000    0.345    0.000    0.000    0.000    0.000 
#    0.000    0.000    0.000    0.000    0.000    0.000 
#
# Total GULP energy -322991.421006 kJ/mol
# GULP energy per Si atom -5568.817604 kJ/mol
# Density = 2.189850 g / cm^3
# Si number density = 21.948452 Si / 1000 Ang^3
#
#
#
# Elastic Constant Matrix: (Units=GPa)
#
#
# Indices 1 2 3 4 5 6 
#
# 1 110.6306 24.4922 19.1457 0.0000 0.0000 0.0000
# 2 24.4922 54.2423 -1.0668 0.0000 0.0000 0.0000
# 3 19.1457 -1.0668 87.5958 0.0000 0.0000 0.0000
# 4 0.0000 0.0000 0.0000 9.3552 0.0000 0.0000
# 5 0.0000 0.0000 0.0000 0.0000 15.3129 0.0000
# 6 0.0000 0.0000 0.0000 0.0000 0.0000 31.2714
#
#
#
# Elastic Compliance Matrix: (Units=1/GPa)
#
#
# Indices 1 2 3 4 5 6 
#
# 1 0.010507 -0.004791 -0.002355 0.000000 0.000000 0.000000
# 2 -0.004791 0.020624 0.001298 0.000000 0.000000 0.000000
# 3 -0.002355 0.001298 0.011947 0.000000 0.000000 0.000000
# 4 0.000000 0.000000 0.000000 0.106892 0.000000 0.000000
# 5 0.000000 0.000000 0.000000 0.000000 0.065304 0.000000
# 6 0.000000 0.000000 0.000000 0.000000 0.000000 0.031978
#
#
# Mechanical properties :
#
#
# Convention : Reuss Voigt Hill
#
# Bulk Modulus (GPa) = 31.86371 37.51235 34.68803
# Shear Modulus (GPa) = 18.55913 25.18106 21.87009
#
# Velocity S-wave (km/s) = 2.91104 3.39083 3.16005
# Velocity P-wave (km/s) = 5.08408 5.69724 5.39937
#
# Compressibility (1/GPa) = 0.03138367
#
# Stress axis : x y z
#
# Youngs Moduli (GPa) = 95.17261 48.48607 83.70590
#
# Poissons Ratio (x) = 0.23228 0.19712
# Poissons Ratio (y) = 0.45594 -0.10867
# Poissons Ratio (z) = 0.22412 -0.06295
#
# Static dielectric constant tensor:
#      x y z
#    x 1.823070 0.000000 0.000000 
#    y 0.000000 1.801650 0.000000 
#    z 0.000000 0.000000 1.850120 
# 
# From -- ./inp_files/10655.got.cif
#   From: 2010.05.17/outbox.cif.g08.bks.cpg/sg64_6_cif.got.tgz:10655.got - 2010.06.03 16:29:19.
