data_PCOD9481285
_publ_section_title
;
Structure prediction by ZEFSAII (Michael W. Deem and Ramdas Pophale) SiO2 
 PCOD9481285
Probable space group: C M C A
;
_chemical_formula_sum "Si O2"
_cell_formula_units_Z 64
_cell_length_a 14.865136
_cell_length_b 21.583116
_cell_length_c 8.877447
_cell_angle_alpha 90.000000
_cell_angle_beta 90.000000
_cell_angle_gamma 90.000000
_cell_volume 2848.204183
_symmetry_space_group_name_H-M "C M C A"
_symmetry_group_IT_number 64
_symmetry_cell_setting 'orthorhombic'
loop_
_space_group_symop_operation_xyz
x,y,z
-x,1/2-y,1/2+z
x,-y,-z
-x,1/2+y,1/2-z
-x,-y,-z
x,1/2+y,1/2-z
-x,y,z
x,1/2-y,1/2+z
1/2+x,1/2+y,z
1/2-x,-y,1/2+z
1/2+x,1/2-y,-z
1/2-x,y,1/2-z
1/2-x,1/2-y,-z
1/2+x,y,1/2-z
1/2-x,1/2+y,z
1/2+x,-y,1/2+z
loop_
_atom_site_type_symbol
_atom_site_label
_atom_site_fract_x
_atom_site_fract_y
_atom_site_fract_z
Si Si1 0.182145 0.451883 0.112859
Si Si2 0.847155 0.676932 0.049156
Si Si3 0.000000 0.104880 0.010105
Si Si4 0.500000 0.497929 0.245711
Si Si5 0.136360 0.699544 0.388934
O O1 0.250000 0.437476 0.250000
O O2 0.092964 0.488110 0.166673
O O3 0.231098 0.500000 0.000000
O O4 0.149933 0.389988 0.027745
O O5 0.888021 0.685122 0.215757
O O6 0.741638 0.689548 0.081144
O O7 0.883469 0.730323 0.938806
O O8 0.084758 0.150127 0.009765
O O9 0.000000 0.062952 0.159812
O O10 0.000000 0.057305 0.875220
#
# Coordination Sequence:
#
# PCOD9481285 Si02
#       5
#    16  16   8   8  16
#     4  12  28  45  75 104 143 188 238 290 362 427
#     4  10  24  43  69  99 138 181 237 280 350 415
#     4  11  24  43  71 102 138 180 228 293 358 408
#     4  11  27  45  71 104 145 176 245 293 349 428
#     4  10  23  42  69  97 138 181 230 286 345 417
#
# _framework density 22.470300000000002
#
# number of rings (size 3 to 8) (size 9 to 14) (size 15 to 20)
#    0.000    1.250    0.000    3.375   21.000    3.000 
#    0.000    0.000    0.000    0.000    0.000    0.000 
#    0.000    0.000    0.000    0.000    0.000    0.000 
#
# Total GULP energy -179037.832270 kJ/mol
# GULP energy per Si atom -5594.932258 kJ/mol
# Density = 2.241916 g / cm^3
# Si number density = 22.470300 Si / 1000 Ang^3
#
#
#
# Elastic Constant Matrix: (Units=GPa)
#
#
# Indices 1 2 3 4 5 6 
#
# 1 59.7232 -0.1714 12.6463 0.0000 0.0000 0.0000
# 2 -0.1714 165.0552 55.7093 0.0000 0.0000 0.0000
# 3 12.6463 55.7093 107.7350 0.0000 0.0000 0.0000
# 4 0.0000 0.0000 0.0000 35.7020 0.0000 0.0000
# 5 0.0000 0.0000 0.0000 0.0000 17.5180 0.0000
# 6 0.0000 0.0000 0.0000 0.0000 0.0000 72.5175
#
#
#
# Elastic Compliance Matrix: (Units=1/GPa)
#
#
# Indices 1 2 3 4 5 6 
#
# 1 0.017269 0.000851 -0.002467 0.000000 0.000000 0.000000
# 2 0.000851 0.007381 -0.003917 0.000000 0.000000 0.000000
# 3 -0.002467 -0.003917 0.011597 0.000000 0.000000 0.000000
# 4 0.000000 0.000000 0.000000 0.028010 0.000000 0.000000
# 5 0.000000 0.000000 0.000000 0.000000 0.057084 0.000000
# 6 0.000000 0.000000 0.000000 0.000000 0.000000 0.013790
#
#
# Mechanical properties :
#
#
# Convention : Reuss Voigt Hill
#
# Bulk Modulus (GPa) = 39.71257 52.09797 45.90527
# Shear Modulus (GPa) = 32.34356 42.76947 37.55652
#
# Velocity S-wave (km/s) = 3.79805 4.36750 4.09269
# Velocity P-wave (km/s) = 6.07826 6.97632 6.54272
#
# Compressibility (1/GPa) = 0.02518094
#
# Stress axis : x y z
#
# Youngs Moduli (GPa) = 57.90822 135.47491 86.22965
#
# Poissons Ratio (x) = -0.11523 0.21272
# Poissons Ratio (y) = -0.04925 0.33774
# Poissons Ratio (z) = 0.14285 0.53062
#
# Static dielectric constant tensor:
#      x y z
#    x 1.807450 0.000000 0.000000 
#    y 0.000000 1.766540 0.000000 
#    z 0.000000 0.000000 1.860170 
# 
# From -- ./inp_files/6641.got.cif
#   From: 2010.05.17/outbox.cif.g08.bks.cpg/sg64_4_cif.got.tgz:6641.got - 2010.06.03 16:29:19.
