data_PCOD9481205
_publ_section_title
;
Structure prediction by ZEFSAII (Michael W. Deem and Ramdas Pophale) SiO2 
 PCOD9481205
Probable space group: C M C A
;
_chemical_formula_sum "Si O2"
_cell_formula_units_Z 96
_cell_length_a 19.018699
_cell_length_b 14.111308
_cell_length_c 16.626064
_cell_angle_alpha 90.000000
_cell_angle_beta 90.000000
_cell_angle_gamma 90.000000
_cell_volume 4462.081764
_symmetry_space_group_name_H-M "C M C A"
_symmetry_group_IT_number 64
_symmetry_cell_setting 'orthorhombic'
loop_
_space_group_symop_operation_xyz
x,y,z
-x,1/2-y,1/2+z
x,-y,-z
-x,1/2+y,1/2-z
-x,-y,-z
x,1/2+y,1/2-z
-x,y,z
x,1/2-y,1/2+z
1/2+x,1/2+y,z
1/2-x,-y,1/2+z
1/2+x,1/2-y,-z
1/2-x,y,1/2-z
1/2-x,1/2-y,-z
1/2+x,y,1/2-z
1/2-x,1/2+y,z
1/2+x,-y,1/2+z
loop_
_atom_site_type_symbol
_atom_site_label
_atom_site_fract_x
_atom_site_fract_y
_atom_site_fract_z
Si Si1 0.080288 0.686473 0.768779
Si Si2 0.223851 0.501618 0.409433
Si Si3 0.154197 0.189807 0.899578
Si Si4 0.288416 0.202646 0.335733
Si Si5 0.126236 0.025036 0.631067
Si Si6 0.916654 0.854591 0.525560
O O1 0.103750 0.701522 0.677228
O O2 0.138848 0.743789 0.819072
O O3 0.089067 0.576148 0.794600
O O4 0.000000 0.715425 0.782900
O O5 0.253816 0.500000 0.500000
O O6 0.165133 0.421398 0.410959
O O7 0.200490 0.604931 0.382610
O O8 0.290338 0.473931 0.354532
O O9 0.231536 0.232876 0.882151
O O10 0.121382 0.253958 0.968956
O O11 0.250000 0.183102 0.250000
O O12 0.105031 0.089123 0.554314
O O13 0.105786 0.919252 0.602686
O O14 0.000000 0.844652 0.526118
#
# Coordination Sequence:
#
# PCOD9481205 Si02
#       6
#    16  16  16  16  16  16
#     4  11  24  42  65  96 127 170 215 263 325 383
#     4  12  24  40  66  98 129 167 216 261 322 385
#     4  11  24  41  65  91 131 169 212 264 316 383
#     4  10  23  40  66  93 127 168 212 269 314 375
#     4  11  21  38  68  97 128 162 214 273 316 374
#     4  11  22  40  63  95 129 167 213 267 319 371
#
# _framework density 21.514621000000002
#
# number of rings (size 3 to 8) (size 9 to 14) (size 15 to 20)
#    0.000    1.000    5.000    2.500    4.667    1.333 
#    0.000    3.333    0.000    2.500    0.000    0.000 
#    0.000    0.000    0.000    0.000    0.000    0.000 
#
# Total GULP energy -268430.942993 kJ/mol
# GULP energy per Si atom -5592.311312 kJ/mol
# Density = 2.146565 g / cm^3
# Si number density = 21.514621 Si / 1000 Ang^3
#
#
#
# Elastic Constant Matrix: (Units=GPa)
#
#
# Indices 1 2 3 4 5 6 
#
# 1 115.3998 20.5098 0.4004 0.0000 0.0000 0.0000
# 2 20.5098 100.3271 4.9115 0.0000 0.0000 0.0000
# 3 0.4004 4.9115 26.0240 0.0000 0.0000 0.0000
# 4 0.0000 0.0000 0.0000 29.7797 0.0000 0.0000
# 5 0.0000 0.0000 0.0000 0.0000 17.1597 0.0000
# 6 0.0000 0.0000 0.0000 0.0000 0.0000 26.2507
#
#
#
# Elastic Compliance Matrix: (Units=1/GPa)
#
#
# Indices 1 2 3 4 5 6 
#
# 1 0.008993 -0.001849 0.000211 0.000000 0.000000 0.000000
# 2 -0.001849 0.010440 -0.001942 0.000000 0.000000 0.000000
# 3 0.000211 -0.001942 0.038789 0.000000 0.000000 0.000000
# 4 0.000000 0.000000 0.000000 0.033580 0.000000 0.000000
# 5 0.000000 0.000000 0.000000 0.000000 0.058276 0.000000
# 6 0.000000 0.000000 0.000000 0.000000 0.000000 0.038094
#
#
# Mechanical properties :
#
#
# Convention : Reuss Voigt Hill
#
# Bulk Modulus (GPa) = 19.58376 32.59937 26.09157
# Shear Modulus (GPa) = 23.54549 29.03330 26.28939
#
# Velocity S-wave (km/s) = 3.31175 3.67750 3.49941
# Velocity P-wave (km/s) = 4.87298 5.76342 5.33680
#
# Compressibility (1/GPa) = 0.05106271
#
# Stress axis : x y z
#
# Youngs Moduli (GPa) = 111.19283 95.78160 25.78024
#
# Poissons Ratio (x) = 0.17708 -0.00543
# Poissons Ratio (y) = 0.20558 0.05006
# Poissons Ratio (z) = -0.02341 0.18601
#
# Static dielectric constant tensor:
#      x y z
#    x 1.748810 0.000000 0.000000 
#    y 0.000000 1.792480 0.000000 
#    z 0.000000 0.000000 1.834900 
# 
# From -- ./inp_files/40863.got.cif
#   From: 2010.05.17/outbox.cif.g08.bks.cpg/sg64_21_cif.got.tgz:40863.got - 2010.06.03 16:29:19.
