data_PCOD9481180
_publ_section_title
;
Structure prediction by ZEFSAII (Michael W. Deem and Ramdas Pophale) SiO2 
 PCOD9481180
Probable space group: C M C A
;
_chemical_formula_sum "Si O2"
_cell_formula_units_Z 64
_cell_length_a 18.404050
_cell_length_b 7.731558
_cell_length_c 17.908800
_cell_angle_alpha 90.000000
_cell_angle_beta 90.000000
_cell_angle_gamma 90.000000
_cell_volume 2548.278612
_symmetry_space_group_name_H-M "C M C A"
_symmetry_group_IT_number 64
_symmetry_cell_setting 'orthorhombic'
loop_
_space_group_symop_operation_xyz
x,y,z
-x,1/2-y,1/2+z
x,-y,-z
-x,1/2+y,1/2-z
-x,-y,-z
x,1/2+y,1/2-z
-x,y,z
x,1/2-y,1/2+z
1/2+x,1/2+y,z
1/2-x,-y,1/2+z
1/2+x,1/2-y,-z
1/2-x,y,1/2-z
1/2-x,1/2-y,-z
1/2+x,y,1/2-z
1/2-x,1/2+y,z
1/2+x,-y,1/2+z
loop_
_atom_site_type_symbol
_atom_site_label
_atom_site_fract_x
_atom_site_fract_y
_atom_site_fract_z
Si Si1 0.725665 0.118494 0.927458
Si Si2 0.117335 0.020015 0.689524
Si Si3 0.923130 0.801828 0.921612
Si Si4 0.379685 0.647677 0.856180
O O1 0.694181 0.029041 0.853035
O O2 0.657508 0.245301 0.948584
O O3 0.803326 0.178350 0.897881
O O4 0.732786 0.000000 0.000000
O O5 0.076008 0.183217 0.653519
O O6 0.086882 0.834133 0.664013
O O7 0.127714 0.049804 0.776658
O O8 0.920440 0.005384 0.905802
O O9 0.000000 0.758855 0.961346
#
# Coordination Sequence:
#
# PCOD9481180 Si02
#       4
#    16  16  16  16
#     4  10  24  44  70  98 136 176 228 277 331 397
#     4  10  23  39  65  97 134 171 218 280 337 385
#     4  10  25  43  66  98 136 174 216 272 336 397
#     4  12  21  43  69  97 132 174 228 277 329 394
#
# _framework density 25.114992999999998
#
# number of rings (size 3 to 8) (size 9 to 14) (size 15 to 20)
#    1.500    0.000    2.500    2.250    0.000    8.500 
#    0.000    0.000    0.000    2.250    0.000    0.000 
#    0.000    0.000    0.000    0.000    0.000    0.000 
#
# Total GULP energy -178249.643206 kJ/mol
# GULP energy per Si atom -5570.301350 kJ/mol
# Density = 2.505783 g / cm^3
# Si number density = 25.114993 Si / 1000 Ang^3
#
#
#
# Elastic Constant Matrix: (Units=GPa)
#
#
# Indices 1 2 3 4 5 6 
#
# 1 169.6456 56.2775 35.6952 0.0000 0.0000 0.0000
# 2 56.2775 140.2083 13.9623 0.0000 0.0000 0.0000
# 3 35.6952 13.9623 82.0469 0.0000 0.0000 0.0000
# 4 0.0000 0.0000 0.0000 44.4632 0.0000 0.0000
# 5 0.0000 0.0000 0.0000 0.0000 -4.0764 0.0000
# 6 0.0000 0.0000 0.0000 0.0000 0.0000 0.0887
#
#
#
# Elastic Compliance Matrix: (Units=1/GPa)
#
#
# Indices 1 2 3 4 5 6 
#
# 1 0.007362 -0.002682 -0.002747 0.000000 0.000000 0.000000
# 2 -0.002682 0.008232 -0.000234 0.000000 0.000000 0.000000
# 3 -0.002747 -0.000234 0.013423 0.000000 0.000000 0.000000
# 4 0.000000 0.000000 0.000000 0.022491 0.000000 0.000000
# 5 0.000000 0.000000 0.000000 0.000000 -0.245315 0.000000
# 6 0.000000 0.000000 0.000000 0.000000 0.000000 11.271234
#
#
# Mechanical properties :
#
#
# Convention : Reuss Voigt Hill
#
# Bulk Modulus (GPa) = 56.52212 67.08564 61.80388
# Shear Modulus (GPa) = 0.45067 27.15950 13.80508
#
# Velocity S-wave (km/s) = 0.42407 3.29204 2.34706
# Velocity P-wave (km/s) = 4.77430 6.42024 5.65745
#
# Compressibility (1/GPa) = 0.01769219
#
# Stress axis : x y z
#
# Youngs Moduli (GPa) = 135.83052 121.47870 74.49927
#
# Poissons Ratio (x) = 0.32575 0.20462
# Poissons Ratio (y) = 0.36423 0.01745
# Poissons Ratio (z) = 0.37308 0.02846
#
# Static dielectric constant tensor:
#      x y z
#    x 1.095450 0.000000 0.000000 
#    y 0.000000 2.045220 0.000000 
#    z 0.000000 0.000000 1.918510 
# 
# From -- ./inp_files/40674.got.cif
#   From: 2010.05.17/outbox.cif.g08.bks.cpg/sg64_21_cif.got.tgz:40674.got - 2010.06.03 16:29:19.
