data_PCOD9481203
_publ_section_title
;
Structure prediction by ZEFSAII (Michael W. Deem and Ramdas Pophale) SiO2 
 PCOD9481203
Probable space group: C M C A
;
_chemical_formula_sum "Si O2"
_cell_formula_units_Z 104
_cell_length_a 21.267502
_cell_length_b 13.630452
_cell_length_c 17.165541
_cell_angle_alpha 90.000000
_cell_angle_beta 90.000000
_cell_angle_gamma 90.000000
_cell_volume 4976.044271
_symmetry_space_group_name_H-M "C M C A"
_symmetry_group_IT_number 64
_symmetry_cell_setting 'orthorhombic'
loop_
_space_group_symop_operation_xyz
x,y,z
-x,1/2-y,1/2+z
x,-y,-z
-x,1/2+y,1/2-z
-x,-y,-z
x,1/2+y,1/2-z
-x,y,z
x,1/2-y,1/2+z
1/2+x,1/2+y,z
1/2-x,-y,1/2+z
1/2+x,1/2-y,-z
1/2-x,y,1/2-z
1/2-x,1/2-y,-z
1/2+x,y,1/2-z
1/2-x,1/2+y,z
1/2+x,-y,1/2+z
loop_
_atom_site_type_symbol
_atom_site_label
_atom_site_fract_x
_atom_site_fract_y
_atom_site_fract_z
Si Si1 0.072047 0.817580 0.734201
Si Si2 0.634484 0.373698 0.172169
Si Si3 0.673452 0.147265 0.498487
Si Si4 0.750000 0.990408 0.250000
Si Si5 0.346213 0.953087 0.869888
Si Si6 0.316009 0.132799 0.966870
Si Si7 0.429298 0.438227 0.886984
O O1 0.110850 0.718742 0.720518
O O2 0.099907 0.907104 0.683123
O O3 0.074312 0.852747 0.822995
O O4 0.000000 0.799766 0.711685
O O5 0.695942 0.423999 0.210404
O O6 0.584583 0.460850 0.158583
O O7 0.647179 0.335734 0.084881
O O8 0.680262 0.251365 0.454823
O O9 0.743021 0.107446 0.516310
O O10 0.626224 0.081594 0.448241
O O11 0.716775 0.054929 0.182895
O O12 0.344668 0.066542 0.898235
O O13 0.347254 0.895235 0.951040
O O14 0.500000 0.438775 0.920256
#
# Coordination Sequence:
#
# PCOD9481203 Si02
#       7
#    16  16  16   8  16  16  16
#     4  11  26  46  67  95 132 181 229 274 329 399
#     4  12  24  43  67  99 135 169 221 274 341 400
#     4  11  23  41  64  98 133 174 214 271 338 404
#     4  12  24  38  70 106 128 172 218 280 342 394
#     4  11  22  43  66  96 133 173 220 274 336 392
#     4  10  23  40  65  97 136 168 212 279 339 395
#     4  11  26  44  67  95 131 180 228 277 329 398
#
# _framework density 20.900136
#
# number of rings (size 3 to 8) (size 9 to 14) (size 15 to 20)
#    0.000    0.923    4.615    1.846    4.308    2.462 
#    0.000    2.308    0.000    0.000    0.000    0.000 
#    0.000    0.000    0.000    0.000    0.000    0.000 
#
# Total GULP energy -290480.966981 kJ/mol
# GULP energy per Si atom -5586.172442 kJ/mol
# Density = 2.085257 g / cm^3
# Si number density = 20.900136 Si / 1000 Ang^3
#
#
#
# Elastic Constant Matrix: (Units=GPa)
#
#
# Indices 1 2 3 4 5 6 
#
# 1 92.8365 18.1051 17.0303 0.0000 0.0000 0.0000
# 2 18.1051 96.8714 2.7239 0.0000 0.0000 0.0000
# 3 17.0303 2.7239 64.7617 0.0000 0.0000 0.0000
# 4 0.0000 0.0000 0.0000 30.4566 0.0000 0.0000
# 5 0.0000 0.0000 0.0000 0.0000 16.5950 0.0000
# 6 0.0000 0.0000 0.0000 0.0000 0.0000 23.9892
#
#
#
# Elastic Compliance Matrix: (Units=1/GPa)
#
#
# Indices 1 2 3 4 5 6 
#
# 1 0.011733 -0.002109 -0.002997 0.000000 0.000000 0.000000
# 2 -0.002109 0.010714 0.000104 0.000000 0.000000 0.000000
# 3 -0.002997 0.000104 0.016225 0.000000 0.000000 0.000000
# 4 0.000000 0.000000 0.000000 0.032834 0.000000 0.000000
# 5 0.000000 0.000000 0.000000 0.000000 0.060259 0.000000
# 6 0.000000 0.000000 0.000000 0.000000 0.000000 0.041685
#
#
# Mechanical properties :
#
#
# Convention : Reuss Voigt Hill
#
# Bulk Modulus (GPa) = 34.88094 36.68757 35.78425
# Shear Modulus (GPa) = 25.90556 28.64883 27.27720
#
# Velocity S-wave (km/s) = 3.52446 3.70638 3.61656
# Velocity P-wave (km/s) = 5.76958 5.99234 5.88201
#
# Compressibility (1/GPa) = 0.02866895
#
# Stress axis : x y z
#
# Youngs Moduli (GPa) = 85.23297 93.33471 61.63376
#
# Poissons Ratio (x) = 0.19680 0.18469
# Poissons Ratio (y) = 0.17972 -0.00640
# Poissons Ratio (z) = 0.25541 -0.00969
#
# Static dielectric constant tensor:
#      x y z
#    x 1.753100 0.000000 0.000000 
#    y 0.000000 1.775150 0.000000 
#    z 0.000000 0.000000 1.756460 
# 
# From -- ./inp_files/34333.got.cif
#   From: 2010.05.17/outbox.cif.g08.bks.cpg/sg64_18_cif.got.tgz:34333.got - 2010.06.03 16:29:19.
