data_PCOD9481384
_publ_section_title
;
Structure prediction by ZEFSAII (Michael W. Deem and Ramdas Pophale) SiO2 
 PCOD9481384
Probable space group: C M C A
;
_chemical_formula_sum "Si O2"
_cell_formula_units_Z 72
_cell_length_a 20.775337
_cell_length_b 14.436106
_cell_length_c 9.585151
_cell_angle_alpha 90.000000
_cell_angle_beta 90.000000
_cell_angle_gamma 90.000000
_cell_volume 2874.730247
_symmetry_space_group_name_H-M "C M C A"
_symmetry_group_IT_number 64
_symmetry_cell_setting 'orthorhombic'
loop_
_space_group_symop_operation_xyz
x,y,z
-x,1/2-y,1/2+z
x,-y,-z
-x,1/2+y,1/2-z
-x,-y,-z
x,1/2+y,1/2-z
-x,y,z
x,1/2-y,1/2+z
1/2+x,1/2+y,z
1/2-x,-y,1/2+z
1/2+x,1/2-y,-z
1/2-x,y,1/2-z
1/2-x,1/2-y,-z
1/2+x,y,1/2-z
1/2-x,1/2+y,z
1/2+x,-y,1/2+z
loop_
_atom_site_type_symbol
_atom_site_label
_atom_site_fract_x
_atom_site_fract_y
_atom_site_fract_z
Si Si1 0.569988 0.493289 0.833135
Si Si2 0.329757 0.537922 0.630171
Si Si3 0.341310 0.265985 0.417532
Si Si4 0.750000 0.623556 0.250000
Si Si5 0.073208 0.211821 0.309465
O O1 0.500000 0.531807 0.794598
O O2 0.629808 0.545163 0.769850
O O3 0.574013 0.391462 0.760927
O O4 0.574024 0.500000 0.000000
O O5 0.372561 0.500000 0.500000
O O6 0.302510 0.638964 0.602705
O O7 0.283521 0.451264 0.649437
O O8 0.202669 0.314124 0.652829
O O9 0.405171 0.271679 0.322594
O O10 0.372265 0.267767 0.572653
O O11 0.000000 0.229411 0.357965
#
# Coordination Sequence:
#
# PCOD9481384 Si02
#       5
#    16  16  16   8  16
#     4  10  23  46  75 109 150 193 250 314 386 469
#     4  12  26  48  73 109 146 200 257 323 387 456
#     4  12  26  48  77 110 155 207 258 329 395 464
#     4  12  28  50  74 112 152 206 276 316 386 470
#     4  11  25  48  77 116 158 202 258 324 407 477
#
# _framework density 25.045829999999999
#
# number of rings (size 3 to 8) (size 9 to 14) (size 15 to 20)
#    0.000    0.667    4.444    1.333    3.111    8.444 
#    0.000    0.000    0.000    0.000    0.000    0.000 
#    0.000    0.000    0.000    0.000    0.000    0.000 
#
# Total GULP energy -200803.854120 kJ/mol
# GULP energy per Si atom -5577.884837 kJ/mol
# Density = 2.498882 g / cm^3
# Si number density = 25.045830 Si / 1000 Ang^3
#
#
#
# Elastic Constant Matrix: (Units=GPa)
#
#
# Indices 1 2 3 4 5 6 
#
# 1 88.8143 24.7638 36.3906 0.0000 0.0000 0.0000
# 2 24.7638 117.5028 28.2062 0.0000 0.0000 0.0000
# 3 36.3906 28.2062 126.8117 0.0000 0.0000 0.0000
# 4 0.0000 0.0000 0.0000 18.7004 0.0000 0.0000
# 5 0.0000 0.0000 0.0000 0.0000 41.7291 0.0000
# 6 0.0000 0.0000 0.0000 0.0000 0.0000 -32.4936
#
#
#
# Elastic Compliance Matrix: (Units=1/GPa)
#
#
# Indices 1 2 3 4 5 6 
#
# 1 0.013180 -0.001975 -0.003343 0.000000 0.000000 0.000000
# 2 -0.001975 0.009286 -0.001499 0.000000 0.000000 0.000000
# 3 -0.003343 -0.001499 0.009178 0.000000 0.000000 0.000000
# 4 0.000000 0.000000 0.000000 0.053475 0.000000 0.000000
# 5 0.000000 0.000000 0.000000 0.000000 0.023964 0.000000
# 6 0.000000 0.000000 0.000000 0.000000 0.000000 -0.030775
#
#
# Mechanical properties :
#
#
# Convention : Reuss Voigt Hill
#
# Bulk Modulus (GPa) = 55.52125 56.87222 56.19674
# Shear Modulus (GPa) = 51.04878 21.83840 36.44359
#
# Velocity S-wave (km/s) = 4.51956 2.95606 3.81868
# Velocity P-wave (km/s) = 7.03215 5.86580 6.47529
#
# Compressibility (1/GPa) = 0.01801112
#
# Stress axis : x y z
#
# Youngs Moduli (GPa) = 75.87322 107.68341 108.95211
#
# Poissons Ratio (x) = 0.21270 0.36421
# Poissons Ratio (y) = 0.14987 0.16329
# Poissons Ratio (z) = 0.25363 0.16139
#
# Static dielectric constant tensor:
#      x y z
#    x 1.997280 0.000000 0.000000 
#    y 0.000000 2.088630 0.000000 
#    z 0.000000 0.000000 2.090820 
# 
# From -- ./inp_files/9146.got.cif
#   From: 2010.05.17/outbox.cif.g08.bks.cpg/sg64_5_cif.got.tgz:9146.got - 2010.06.03 16:29:19.
