data_PCOD9481669
_publ_section_title
;
Structure prediction by ZEFSAII (Michael W. Deem and Ramdas Pophale) SiO2 
 PCOD9481669
Probable space group: C M C A
;
_chemical_formula_sum "Si O2"
_cell_formula_units_Z 64
_cell_length_a 25.183915
_cell_length_b 17.721752
_cell_length_c 7.759886
_cell_angle_alpha 90.000000
_cell_angle_beta 90.000000
_cell_angle_gamma 90.000000
_cell_volume 3463.261147
_symmetry_space_group_name_H-M "C M C A"
_symmetry_group_IT_number 64
_symmetry_cell_setting 'orthorhombic'
loop_
_space_group_symop_operation_xyz
x,y,z
-x,1/2-y,1/2+z
x,-y,-z
-x,1/2+y,1/2-z
-x,-y,-z
x,1/2+y,1/2-z
-x,y,z
x,1/2-y,1/2+z
1/2+x,1/2+y,z
1/2-x,-y,1/2+z
1/2+x,1/2-y,-z
1/2-x,y,1/2-z
1/2-x,1/2-y,-z
1/2+x,y,1/2-z
1/2-x,1/2+y,z
1/2+x,-y,1/2+z
loop_
_atom_site_type_symbol
_atom_site_label
_atom_site_fract_x
_atom_site_fract_y
_atom_site_fract_z
Si Si1 0.709106 0.203789 0.113772
Si Si2 0.060842 0.164972 0.204884
Si Si3 0.875845 0.088778 0.511382
Si Si4 0.891338 0.686991 0.664560
O O1 0.750000 0.169615 0.250000
O O2 0.677061 0.136770 0.026535
O O3 0.663945 0.264585 0.172972
O O4 0.750000 0.250000 0.000000
O O5 0.083847 0.114373 0.359817
O O6 0.066094 0.250595 0.274794
O O7 0.000000 0.146489 0.166268
O O8 0.095942 0.162249 0.030437
O O9 0.892877 0.119208 0.699269
O O10 0.868331 0.000000 0.500000
#
# Coordination Sequence:
#
# PCOD9481669 Si02
#       4
#    16  16  16  16
#     4  11  19  39  66  86 119 164 217 258 307 377
#     4  11  22  39  67  96 122 168 219 257 308 379
#     4  11  25  43  60  95 137 163 202 271 326 369
#     4  11  21  39  66  94 123 162 216 266 302 376
#
# _framework density 18.479690999999999
#
# number of rings (size 3 to 8) (size 9 to 14) (size 15 to 20)
#    0.000    1.000    7.500    2.250    0.000    2.500 
#    4.500    1.250    0.000    0.000    0.000    0.000 
#    0.000    0.000    0.000    0.000    0.000    0.000 
#
# Total GULP energy -178415.800078 kJ/mol
# GULP energy per Si atom -5575.493752 kJ/mol
# Density = 1.843763 g / cm^3
# Si number density = 18.479691 Si / 1000 Ang^3
#
#
#
# Elastic Constant Matrix: (Units=GPa)
#
#
# Indices 1 2 3 4 5 6 
#
# 1 102.9961 27.7947 28.6805 0.0000 0.0000 0.0000
# 2 27.7947 139.7256 43.2806 0.0000 0.0000 0.0000
# 3 28.6805 43.2806 111.2913 0.0000 0.0000 0.0000
# 4 0.0000 0.0000 0.0000 25.4092 0.0000 0.0000
# 5 0.0000 0.0000 0.0000 0.0000 21.3111 0.0000
# 6 0.0000 0.0000 0.0000 0.0000 0.0000 10.0212
#
#
#
# Elastic Compliance Matrix: (Units=1/GPa)
#
#
# Indices 1 2 3 4 5 6 
#
# 1 0.010712 -0.001451 -0.002197 0.000000 0.000000 0.000000
# 2 -0.001451 0.008334 -0.002867 0.000000 0.000000 0.000000
# 3 -0.002197 -0.002867 0.010666 0.000000 0.000000 0.000000
# 4 0.000000 0.000000 0.000000 0.039356 0.000000 0.000000
# 5 0.000000 0.000000 0.000000 0.000000 0.046924 0.000000
# 6 0.000000 0.000000 0.000000 0.000000 0.000000 0.099788
#
#
# Mechanical properties :
#
#
# Convention : Reuss Voigt Hill
#
# Bulk Modulus (GPa) = 59.93765 61.50274 60.72019
# Shear Modulus (GPa) = 21.33383 28.29879 24.81631
#
# Velocity S-wave (km/s) = 3.40140 3.91749 3.66853
# Velocity P-wave (km/s) = 6.92321 7.33592 7.13255
#
# Compressibility (1/GPa) = 0.01668400
#
# Stress axis : x y z
#
# Youngs Moduli (GPa) = 93.35162 119.99747 93.75183
#
# Poissons Ratio (x) = 0.17406 0.20593
# Poissons Ratio (y) = 0.13541 0.26879
# Poissons Ratio (z) = 0.20505 0.34404
#
# Static dielectric constant tensor:
#      x y z
#    x 1.561270 0.000000 0.000000 
#    y 0.000000 1.567360 0.000000 
#    z 0.000000 0.000000 1.490250 
# 
# From -- ./inp_files/8954.got.cif
#   From: 2010.05.17/outbox.cif.g08.bks.cpg/sg64_5_cif.got.tgz:8954.got - 2010.06.03 16:29:19.
