data_PCOD9481596
_publ_section_title
;
Structure prediction by ZEFSAII (Michael W. Deem and Ramdas Pophale) SiO2 
 PCOD9481596
Probable space group: C M C A
;
_chemical_formula_sum "Si O2"
_cell_formula_units_Z 64
_cell_length_a 31.419621
_cell_length_b 8.786903
_cell_length_c 9.747340
_cell_angle_alpha 90.000000
_cell_angle_beta 90.000000
_cell_angle_gamma 90.000000
_cell_volume 2691.056954
_symmetry_space_group_name_H-M "C M C A"
_symmetry_group_IT_number 64
_symmetry_cell_setting 'orthorhombic'
loop_
_space_group_symop_operation_xyz
x,y,z
-x,1/2-y,1/2+z
x,-y,-z
-x,1/2+y,1/2-z
-x,-y,-z
x,1/2+y,1/2-z
-x,y,z
x,1/2-y,1/2+z
1/2+x,1/2+y,z
1/2-x,-y,1/2+z
1/2+x,1/2-y,-z
1/2-x,y,1/2-z
1/2-x,1/2-y,-z
1/2+x,y,1/2-z
1/2-x,1/2+y,z
1/2+x,-y,1/2+z
loop_
_atom_site_type_symbol
_atom_site_label
_atom_site_fract_x
_atom_site_fract_y
_atom_site_fract_z
Si Si1 0.602902 0.701331 0.143498
Si Si2 0.280270 0.715182 0.371437
Si Si3 0.450335 0.339743 0.583260
Si Si4 0.337362 0.529501 0.739504
O O1 0.576308 0.719892 0.006172
O O2 0.571145 0.659643 0.267948
O O3 0.639530 0.576396 0.149699
O O4 0.627818 0.858509 0.173976
O O5 0.250000 0.660705 0.250000
O O6 0.250000 0.750000 0.500000
O O7 0.316303 0.584731 0.371572
O O8 0.303169 0.866142 0.316201
O O9 0.447906 0.500000 0.500000
O O10 0.500000 0.299923 0.594345
#
# Coordination Sequence:
#
# PCOD9481596 Si02
#       4
#    16  16  16  16
#     4  11  23  46  72 105 144 189 240 288 358 420
#     4  11  26  45  69 101 142 180 237 292 357 415
#     4  11  24  44  71 107 149 188 233 295 357 421
#     4  10  25  44  73 104 138 189 235 293 351 424
#
# _framework density 23.782478000000001
#
# number of rings (size 3 to 8) (size 9 to 14) (size 15 to 20)
#    0.000    1.250    2.500    1.500    0.000   17.000 
#    0.000    5.000    0.000    0.000    0.000    0.000 
#    0.000    0.000    0.000    0.000    0.000    0.000 
#
# Total GULP energy -179293.586989 kJ/mol
# GULP energy per Si atom -5602.924593 kJ/mol
# Density = 2.372835 g / cm^3
# Si number density = 23.782478 Si / 1000 Ang^3
#
#
#
# Elastic Constant Matrix: (Units=GPa)
#
#
# Indices 1 2 3 4 5 6 
#
# 1 116.3448 48.1241 17.8186 0.0000 0.0000 0.0000
# 2 48.1241 116.4121 -0.4470 0.0000 0.0000 0.0000
# 3 17.8186 -0.4470 84.5337 0.0000 0.0000 0.0000
# 4 0.0000 0.0000 0.0000 20.3270 0.0000 0.0000
# 5 0.0000 0.0000 0.0000 0.0000 36.3389 0.0000
# 6 0.0000 0.0000 0.0000 0.0000 0.0000 41.6457
#
#
#
# Elastic Compliance Matrix: (Units=1/GPa)
#
#
# Indices 1 2 3 4 5 6 
#
# 1 0.010797 -0.004472 -0.002300 0.000000 0.000000 0.000000
# 2 -0.004472 0.010443 0.000998 0.000000 0.000000 0.000000
# 3 -0.002300 0.000998 0.012320 0.000000 0.000000 0.000000
# 4 0.000000 0.000000 0.000000 0.049196 0.000000 0.000000
# 5 0.000000 0.000000 0.000000 0.000000 0.027519 0.000000
# 6 0.000000 0.000000 0.000000 0.000000 0.000000 0.024012
#
#
# Mechanical properties :
#
#
# Convention : Reuss Voigt Hill
#
# Bulk Modulus (GPa) = 45.43037 49.80914 47.61976
# Shear Modulus (GPa) = 32.64319 36.44864 34.54591
#
# Velocity S-wave (km/s) = 3.70884 3.91907 3.81541
# Velocity P-wave (km/s) = 6.12247 6.43956 6.28301
#
# Compressibility (1/GPa) = 0.02201171
#
# Stress axis : x y z
#
# Youngs Moduli (GPa) = 92.61626 95.75931 81.17151
#
# Poissons Ratio (x) = 0.42827 0.18666
# Poissons Ratio (y) = 0.41421 -0.08100
# Poissons Ratio (z) = 0.21298 -0.09556
#
# Static dielectric constant tensor:
#      x y z
#    x 1.908170 0.000000 0.000000 
#    y 0.000000 1.956110 0.000000 
#    z 0.000000 0.000000 1.871060 
# 
# From -- ./inp_files/19471.got.cif
#   From: 2010.05.17/outbox.cif.g08.bks.cpg/sg64_10_cif.got.tgz:19471.got - 2010.06.03 16:29:19.
