data_PCOD9481941
_publ_section_title
;
Structure prediction by ZEFSAII (Michael W. Deem and Ramdas Pophale) SiO2 
 PCOD9481941
Probable space group: C M C A
;
_chemical_formula_sum "Si O2"
_cell_formula_units_Z 80
_cell_length_a 10.354439
_cell_length_b 23.089687
_cell_length_c 17.016494
_cell_angle_alpha 90.000000
_cell_angle_beta 90.000000
_cell_angle_gamma 90.000000
_cell_volume 4068.316243
_symmetry_space_group_name_H-M "C M C A"
_symmetry_group_IT_number 64
_symmetry_cell_setting 'orthorhombic'
loop_
_space_group_symop_operation_xyz
x,y,z
-x,1/2-y,1/2+z
x,-y,-z
-x,1/2+y,1/2-z
-x,-y,-z
x,1/2+y,1/2-z
-x,y,z
x,1/2-y,1/2+z
1/2+x,1/2+y,z
1/2-x,-y,1/2+z
1/2+x,1/2-y,-z
1/2-x,y,1/2-z
1/2-x,1/2-y,-z
1/2+x,y,1/2-z
1/2-x,1/2+y,z
1/2+x,-y,1/2+z
loop_
_atom_site_type_symbol
_atom_site_label
_atom_site_fract_x
_atom_site_fract_y
_atom_site_fract_z
Si Si1 0.845955 0.064636 0.409733
Si Si2 0.500000 0.879755 0.371394
Si Si3 0.276172 0.933515 0.093160
Si Si4 0.500000 0.366355 0.315854
Si Si5 0.000000 0.247137 0.420089
Si Si6 0.756652 0.683832 0.156948
Si Si7 0.500000 0.244530 0.398483
O O1 0.818748 0.073807 0.502416
O O2 0.781812 0.116774 0.362507
O O3 0.000000 0.065184 0.397591
O O4 0.792795 0.001417 0.387859
O O5 0.369905 0.912688 0.396168
O O6 0.500000 0.872742 0.277416
O O7 0.500000 0.816077 0.409482
O O8 0.373899 0.896754 0.146801
O O9 0.500000 0.299441 0.340849
O O10 0.874891 0.219799 0.379443
O O11 0.000000 0.232967 0.512330
O O12 0.750000 0.692976 0.250000
O O13 0.626126 0.706522 0.117561
#
# Coordination Sequence:
#
# PCOD9481941 Si02
#       7
#    16   8  16   8   8  16   8
#     4  11  22  45  72  91 129 180 226 266 321 403
#     4  12  26  38  64 104 142 162 214 288 330 370
#     4  11  23  43  69  97 128 180 225 266 319 395
#     4  12  22  42  66  94 138 178 216 262 334 398
#     4  12  24  47  66  95 136 177 221 263 327 406
#     4  12  25  42  68  99 135 170 220 278 333 386
#     4  12  26  43  70  99 128 181 223 269 323 398
#
# _framework density 19.664154
#
# number of rings (size 3 to 8) (size 9 to 14) (size 15 to 20)
#    0.000    0.400    3.000    7.200    0.000    4.000 
#    0.000    0.000    0.000    0.000    0.000    0.000 
#    0.000    0.000    0.000    0.000    0.000    0.000 
#
# Total GULP energy -224030.616361 kJ/mol
# GULP energy per Si atom -5600.765409 kJ/mol
# Density = 1.961940 g / cm^3
# Si number density = 19.664154 Si / 1000 Ang^3
#
#
#
# Elastic Constant Matrix: (Units=GPa)
#
#
# Indices 1 2 3 4 5 6 
#
# 1 154.2755 50.7153 0.8987 0.0000 0.0000 0.0000
# 2 50.7153 94.2662 -7.1354 0.0000 0.0000 0.0000
# 3 0.8987 -7.1354 34.5835 0.0000 0.0000 0.0000
# 4 0.0000 0.0000 0.0000 118.0649 0.0000 0.0000
# 5 0.0000 0.0000 0.0000 0.0000 16.6249 0.0000
# 6 0.0000 0.0000 0.0000 0.0000 0.0000 19.8619
#
#
#
# Elastic Compliance Matrix: (Units=1/GPa)
#
#
# Indices 1 2 3 4 5 6 
#
# 1 0.007916 -0.004342 -0.001102 0.000000 0.000000 0.000000
# 2 -0.004342 0.013158 0.002828 0.000000 0.000000 0.000000
# 3 -0.001102 0.002828 0.029528 0.000000 0.000000 0.000000
# 4 0.000000 0.000000 0.000000 0.008470 0.000000 0.000000
# 5 0.000000 0.000000 0.000000 0.000000 0.060151 0.000000
# 6 0.000000 0.000000 0.000000 0.000000 0.000000 0.050348
#
#
# Mechanical properties :
#
#
# Convention : Reuss Voigt Hill
#
# Bulk Modulus (GPa) = 22.04109 41.34250 31.69179
# Shear Modulus (GPa) = 26.32620 46.82012 36.57316
#
# Velocity S-wave (km/s) = 3.66292 4.88483 4.31732
# Velocity P-wave (km/s) = 5.39652 7.27223 6.40343
#
# Compressibility (1/GPa) = 0.04536981
#
# Stress axis : x y z
#
# Youngs Moduli (GPa) = 126.33126 75.99757 33.86664
#
# Poissons Ratio (x) = 0.32998 0.03731
# Poissons Ratio (y) = 0.54854 -0.09577
# Poissons Ratio (z) = 0.13916 -0.21490
#
# Static dielectric constant tensor:
#      x y z
#    x 1.647860 0.000000 0.000000 
#    y 0.000000 1.667240 0.000000 
#    z 0.000000 0.000000 1.667110 
# 
# From -- ./inp_files/29879.got.cif
#   From: 2010.05.17/outbox.cif.g08.bks.cpg/sg64_15_cif.got.tgz:29879.got - 2010.06.03 16:29:19.
