data_PCOD9481793
_publ_section_title
;
Structure prediction by ZEFSAII (Michael W. Deem and Ramdas Pophale) SiO2 
 PCOD9481793
Probable space group: C M C A
;
_chemical_formula_sum "Si O2"
_cell_formula_units_Z 64
_cell_length_a 14.501936
_cell_length_b 7.899549
_cell_length_c 22.282986
_cell_angle_alpha 90.000000
_cell_angle_beta 90.000000
_cell_angle_gamma 90.000000
_cell_volume 2552.711112
_symmetry_space_group_name_H-M "C M C A"
_symmetry_group_IT_number 64
_symmetry_cell_setting 'orthorhombic'
loop_
_space_group_symop_operation_xyz
x,y,z
-x,1/2-y,1/2+z
x,-y,-z
-x,1/2+y,1/2-z
-x,-y,-z
x,1/2+y,1/2-z
-x,y,z
x,1/2-y,1/2+z
1/2+x,1/2+y,z
1/2-x,-y,1/2+z
1/2+x,1/2-y,-z
1/2-x,y,1/2-z
1/2-x,1/2-y,-z
1/2+x,y,1/2-z
1/2-x,1/2+y,z
1/2+x,-y,1/2+z
loop_
_atom_site_type_symbol
_atom_site_label
_atom_site_fract_x
_atom_site_fract_y
_atom_site_fract_z
Si Si1 0.902727 0.835159 0.651711
Si Si2 0.773126 0.969929 0.429553
Si Si3 0.389292 0.650677 0.119224
Si Si4 0.857130 0.351214 0.235487
O O1 0.899209 0.686125 0.700026
O O2 0.000000 0.833499 0.619152
O O3 0.822500 0.875382 0.605648
O O4 0.896872 0.995723 0.697221
O O5 0.839819 0.810578 0.414828
O O6 0.770714 0.000000 0.500000
O O7 0.668450 0.988665 0.404366
O O8 0.500000 0.643461 0.109880
O O9 0.369228 0.694334 0.189150
O O10 0.750000 0.376865 0.250000
#
# Coordination Sequence:
#
# PCOD9481793 Si02
#       4
#    16  16  16  16
#     4  11  23  39  64  96 130 170 215 270 331 393
#     4  11  24  45  69  97 135 179 225 274 328 395
#     4  11  25  45  69  98 134 174 221 281 336 391
#     4  11  21  39  62  92 130 166 210 271 336 389
#
# _framework density 25.071383000000001
#
# number of rings (size 3 to 8) (size 9 to 14) (size 15 to 20)
#    0.000    1.000    2.500    6.000    3.500    2.500 
#    0.000    2.500    0.000    0.000    0.000    0.000 
#    0.000    0.000    0.000    0.000    0.000    0.000 
#
# Total GULP energy -179038.055036 kJ/mol
# GULP energy per Si atom -5594.939220 kJ/mol
# Density = 2.501432 g / cm^3
# Si number density = 25.071383 Si / 1000 Ang^3
#
#
#
# Elastic Constant Matrix: (Units=GPa)
#
#
# Indices 1 2 3 4 5 6 
#
# 1 238.7994 14.7748 41.1126 0.0000 0.0000 0.0000
# 2 14.7748 99.4502 9.6550 0.0000 0.0000 0.0000
# 3 41.1126 9.6550 178.8854 0.0000 0.0000 0.0000
# 4 0.0000 0.0000 0.0000 18.7250 0.0000 0.0000
# 5 0.0000 0.0000 0.0000 0.0000 -82.5096 0.0000
# 6 0.0000 0.0000 0.0000 0.0000 0.0000 -11.6126
#
#
#
# Elastic Compliance Matrix: (Units=1/GPa)
#
#
# Indices 1 2 3 4 5 6 
#
# 1 0.004391 -0.000557 -0.000979 0.000000 0.000000 0.000000
# 2 -0.000557 0.010179 -0.000421 0.000000 0.000000 0.000000
# 3 -0.000979 -0.000421 0.005838 0.000000 0.000000 0.000000
# 4 0.000000 0.000000 0.000000 0.053405 0.000000 0.000000
# 5 0.000000 0.000000 0.000000 0.000000 -0.012120 0.000000
# 6 0.000000 0.000000 0.000000 0.000000 0.000000 -0.086114
#
#
# Mechanical properties :
#
#
# Convention : Reuss Voigt Hill
#
# Bulk Modulus (GPa) = 60.63408 72.02442 66.32925
# Shear Modulus (GPa) = -333.13851 15.02674 -159.05589
#
# Velocity S-wave (km/s) = -11.53969 2.45084 -7.97364
# Velocity P-wave (km/s) = 12.38207 6.06621 7.63271
#
# Compressibility (1/GPa) = 0.01649237
#
# Stress axis : x y z
#
# Youngs Moduli (GPa) = 227.75714 98.24168 171.29403
#
# Poissons Ratio (x) = 0.05474 0.16770
# Poissons Ratio (y) = 0.12692 0.07217
# Poissons Ratio (z) = 0.22298 0.04139
#
# Static dielectric constant tensor:
#      x y z
#    x 1.995150 0.000000 0.000000 
#    y 0.000000 2.177480 0.000000 
#    z 0.000000 0.000000 1.867120 
# 
# From -- ./inp_files/38828.got.cif
#   From: 2010.05.17/outbox.cif.g08.bks.cpg/sg64_20_cif.got.tgz:38828.got - 2010.06.03 16:29:19.
