data_PCOD9481775
_publ_section_title
;
Structure prediction by ZEFSAII (Michael W. Deem and Ramdas Pophale) SiO2 
 PCOD9481775
Probable space group: C M C A
;
_chemical_formula_sum "Si O2"
_cell_formula_units_Z 104
_cell_length_a 20.774070
_cell_length_b 9.485278
_cell_length_c 27.890649
_cell_angle_alpha 90.000000
_cell_angle_beta 90.000000
_cell_angle_gamma 90.000000
_cell_volume 5495.791839
_symmetry_space_group_name_H-M "C M C A"
_symmetry_group_IT_number 64
_symmetry_cell_setting 'orthorhombic'
loop_
_space_group_symop_operation_xyz
x,y,z
-x,1/2-y,1/2+z
x,-y,-z
-x,1/2+y,1/2-z
-x,-y,-z
x,1/2+y,1/2-z
-x,y,z
x,1/2-y,1/2+z
1/2+x,1/2+y,z
1/2-x,-y,1/2+z
1/2+x,1/2-y,-z
1/2-x,y,1/2-z
1/2-x,1/2-y,-z
1/2+x,y,1/2-z
1/2-x,1/2+y,z
1/2+x,-y,1/2+z
loop_
_atom_site_type_symbol
_atom_site_label
_atom_site_fract_x
_atom_site_fract_y
_atom_site_fract_z
Si Si1 0.256348 0.782210 0.692409
Si Si2 0.500000 0.752057 0.546073
Si Si3 0.074542 0.874760 0.276725
Si Si4 0.500000 0.498316 0.120529
Si Si5 0.891426 0.981177 0.444591
Si Si6 0.675068 0.016293 0.848950
Si Si7 0.000000 0.213338 0.435001
Si Si8 0.889083 0.068950 0.194948
O O1 0.250000 0.774281 0.750000
O O2 0.273758 0.630686 0.670699
O O3 0.318677 0.878962 0.680595
O O4 0.196316 0.863115 0.669474
O O5 0.437537 0.656075 0.557856
O O6 0.500000 0.774516 0.489047
O O7 0.500000 0.892990 0.576553
O O8 0.108019 0.937321 0.324067
O O9 0.081467 0.706776 0.278767
O O10 0.000000 0.913720 0.273026
O O11 0.112571 0.941157 0.232271
O O12 0.500000 0.338690 0.102523
O O13 0.437004 0.529548 0.152376
O O14 0.835372 0.974961 0.405638
O O15 0.871168 0.000000 0.500000
O O16 0.937913 0.112402 0.431570
#
# Coordination Sequence:
#
# PCOD9481775 Si02
#       8
#    16   8  16   8  16  16   8  16
#     4  11  23  41  58  87 119 167 210 245 290 362
#     4   9  17  37  63  87 125 154 196 243 309 380
#     4  11  21  38  55  85 118 158 197 239 305 343
#     4  12  21  36  56  96 126 154 199 250 320 350
#     4   9  20  41  63  90 116 155 204 251 307 370
#     4  11  24  38  65  84 119 164 204 253 298 355
#     4   9  21  35  61  91 119 158 196 253 303 364
#     4  11  24  36  56  82 124 162 197 249 288 360
#
# _framework density 18.923570999999999
#
# number of rings (size 3 to 8) (size 9 to 14) (size 15 to 20)
#    0.000    1.538    3.077    3.462    4.308    2.462 
#    0.000    0.769    0.000    1.846    0.000    0.000 
#    0.000    0.000    0.000    0.000    0.000    0.000 
#
# Total GULP energy -290536.488931 kJ/mol
# GULP energy per Si atom -5587.240172 kJ/mol
# Density = 1.888050 g / cm^3
# Si number density = 18.923571 Si / 1000 Ang^3
#
#
#
# Elastic Constant Matrix: (Units=GPa)
#
#
# Indices 1 2 3 4 5 6 
#
# 1 29.7955 5.3123 16.8640 0.0000 0.0000 0.0000
# 2 5.3123 67.7113 26.7005 0.0000 0.0000 0.0000
# 3 16.8640 26.7005 62.8947 0.0000 0.0000 0.0000
# 4 0.0000 0.0000 0.0000 29.3534 0.0000 0.0000
# 5 0.0000 0.0000 0.0000 0.0000 20.1541 0.0000
# 6 0.0000 0.0000 0.0000 0.0000 0.0000 13.6963
#
#
#
# Elastic Compliance Matrix: (Units=1/GPa)
#
#
# Indices 1 2 3 4 5 6 
#
# 1 0.039662 0.001299 -0.011186 0.000000 0.000000 0.000000
# 2 0.001299 0.017781 -0.007897 0.000000 0.000000 0.000000
# 3 -0.011186 -0.007897 0.022251 0.000000 0.000000 0.000000
# 4 0.000000 0.000000 0.000000 0.034068 0.000000 0.000000
# 5 0.000000 0.000000 0.000000 0.000000 0.049618 0.000000
# 6 0.000000 0.000000 0.000000 0.000000 0.000000 0.073013
#
#
# Mechanical properties :
#
#
# Convention : Reuss Voigt Hill
#
# Bulk Modulus (GPa) = 22.66210 28.68391 25.67301
# Shear Modulus (GPa) = 17.44181 20.07572 18.75877
#
# Velocity S-wave (km/s) = 3.03924 3.26066 3.15189
# Velocity P-wave (km/s) = 4.93129 5.41909 5.18093
#
# Compressibility (1/GPa) = 0.04412653
#
# Stress axis : x y z
#
# Youngs Moduli (GPa) = 25.21324 56.24125 44.94117
#
# Poissons Ratio (x) = -0.07308 0.50272
# Poissons Ratio (y) = -0.03276 0.35489
# Poissons Ratio (z) = 0.28204 0.44412
#
# Static dielectric constant tensor:
#      x y z
#    x 1.661980 0.000000 0.000000 
#    y 0.000000 1.656880 0.000000 
#    z 0.000000 0.000000 1.647290 
# 
# From -- ./inp_files/51055.got.cif
#   From: 2010.05.17/outbox.cif.g08.bks.cpg/sg64_26_cif.got.tgz:51055.got - 2010.06.03 16:29:19.
