data_PCOD9481145
_publ_section_title
;
Structure prediction by ZEFSAII (Michael W. Deem and Ramdas Pophale) SiO2 
 PCOD9481145
Probable space group: C M C A
;
_chemical_formula_sum "Si O2"
_cell_formula_units_Z 68
_cell_length_a 18.900795
_cell_length_b 14.684566
_cell_length_c 10.092226
_cell_angle_alpha 90.000000
_cell_angle_beta 90.000000
_cell_angle_gamma 90.000000
_cell_volume 2801.097040
_symmetry_space_group_name_H-M "C M C A"
_symmetry_group_IT_number 64
_symmetry_cell_setting 'orthorhombic'
loop_
_space_group_symop_operation_xyz
x,y,z
-x,1/2-y,1/2+z
x,-y,-z
-x,1/2+y,1/2-z
-x,-y,-z
x,1/2+y,1/2-z
-x,y,z
x,1/2-y,1/2+z
1/2+x,1/2+y,z
1/2-x,-y,1/2+z
1/2+x,1/2-y,-z
1/2-x,y,1/2-z
1/2-x,1/2-y,-z
1/2+x,y,1/2-z
1/2-x,1/2+y,z
1/2+x,-y,1/2+z
loop_
_atom_site_type_symbol
_atom_site_label
_atom_site_fract_x
_atom_site_fract_y
_atom_site_fract_z
Si Si1 0.652329 0.577250 0.389147
Si Si2 0.583189 0.284384 0.419707
Si Si3 0.500000 0.000000 0.500000
Si Si4 0.793090 0.841171 0.969245
Si Si5 0.379330 0.927616 0.312396
O O1 0.641529 0.500000 0.500000
O O2 0.606525 0.662730 0.444199
O O3 0.734844 0.602230 0.390792
O O4 0.630252 0.525065 0.257504
O O5 0.500000 0.262884 0.421918
O O6 0.634790 0.197657 0.405775
O O7 0.599910 0.353295 0.298643
O O8 0.439380 0.057211 0.580577
O O9 0.750000 0.750000 0.000000
O O10 0.812100 0.892745 0.105027
#
# Coordination Sequence:
#
# PCOD9481145 Si02
#       5
#    16  16   4  16  16
#     4   9  22  44  77 108 141 196 245 307 365 434
#     4  10  22  45  78 108 147 197 244 300 378 449
#     4  12  28  48  70 112 148 188 230 316 382 424
#     4  10  24  49  69 108 143 194 245 296 379 428
#     4  11  25  50  72 108 154 183 251 309 365 454
#
# _framework density 24.276202999999999
#
# number of rings (size 3 to 8) (size 9 to 14) (size 15 to 20)
#    0.000    1.882    1.176    0.000    4.941    9.882 
#   12.706    0.000    0.000    0.000    0.000    0.000 
#    0.000    0.000    0.000    0.000    0.000    0.000 
#
# Total GULP energy -189779.952237 kJ/mol
# GULP energy per Si atom -5581.763301 kJ/mol
# Density = 2.422095 g / cm^3
# Si number density = 24.276203 Si / 1000 Ang^3
#
#
#
# Elastic Constant Matrix: (Units=GPa)
#
#
# Indices 1 2 3 4 5 6 
#
# 1 139.3469 14.4410 20.1058 0.0000 0.0000 0.0000
# 2 14.4410 70.7679 18.1487 0.0000 0.0000 0.0000
# 3 20.1058 18.1487 72.4916 0.0000 0.0000 0.0000
# 4 0.0000 0.0000 0.0000 36.1165 0.0000 0.0000
# 5 0.0000 0.0000 0.0000 0.0000 7.4555 0.0000
# 6 0.0000 0.0000 0.0000 0.0000 0.0000 30.8817
#
#
#
# Elastic Compliance Matrix: (Units=1/GPa)
#
#
# Indices 1 2 3 4 5 6 
#
# 1 0.007551 -0.001073 -0.001826 0.000000 0.000000 0.000000
# 2 -0.001073 0.015253 -0.003521 0.000000 0.000000 0.000000
# 3 -0.001826 -0.003521 0.015183 0.000000 0.000000 0.000000
# 4 0.000000 0.000000 0.000000 0.027688 0.000000 0.000000
# 5 0.000000 0.000000 0.000000 0.000000 0.134129 0.000000
# 6 0.000000 0.000000 0.000000 0.000000 0.000000 0.032382
#
#
# Mechanical properties :
#
#
# Convention : Reuss Voigt Hill
#
# Bulk Modulus (GPa) = 39.76583 43.11081 41.43832
# Shear Modulus (GPa) = 19.73114 30.21813 24.97463
#
# Velocity S-wave (km/s) = 2.85402 3.53195 3.21092
# Velocity P-wave (km/s) = 5.22271 5.86770 5.55457
#
# Compressibility (1/GPa) = 0.02514722
#
# Stress axis : x y z
#
# Youngs Moduli (GPa) = 132.43412 65.56275 65.86486
#
# Poissons Ratio (x) = 0.07033 0.12025
# Poissons Ratio (y) = 0.14205 0.23191
# Poissons Ratio (z) = 0.24179 0.23085
#
# Static dielectric constant tensor:
#      x y z
#    x 1.846920 0.000000 0.000000 
#    y 0.000000 1.934050 0.000000 
#    z 0.000000 0.000000 2.009900 
# 
# From -- ./inp_files/16964.got.cif
#   From: 2010.05.17/outbox.cif.g08.bks.cpg/sg64_9_cif.got.tgz:16964.got - 2010.06.03 16:29:19.
