data_PCOD9481670
_publ_section_title
;
Structure prediction by ZEFSAII (Michael W. Deem and Ramdas Pophale) SiO2 
 PCOD9481670
Probable space group: C M C A
;
_chemical_formula_sum "Si O2"
_cell_formula_units_Z 64
_cell_length_a 16.916202
_cell_length_b 23.092350
_cell_length_c 6.958506
_cell_angle_alpha 90.000000
_cell_angle_beta 90.000000
_cell_angle_gamma 90.000000
_cell_volume 2718.234998
_symmetry_space_group_name_H-M "C M C A"
_symmetry_group_IT_number 64
_symmetry_cell_setting 'orthorhombic'
loop_
_space_group_symop_operation_xyz
x,y,z
-x,1/2-y,1/2+z
x,-y,-z
-x,1/2+y,1/2-z
-x,-y,-z
x,1/2+y,1/2-z
-x,y,z
x,1/2-y,1/2+z
1/2+x,1/2+y,z
1/2-x,-y,1/2+z
1/2+x,1/2-y,-z
1/2-x,y,1/2-z
1/2-x,1/2-y,-z
1/2+x,y,1/2-z
1/2-x,1/2+y,z
1/2+x,-y,1/2+z
loop_
_atom_site_type_symbol
_atom_site_label
_atom_site_fract_x
_atom_site_fract_y
_atom_site_fract_z
Si Si1 0.090112 0.877506 0.456897
Si Si2 0.687510 0.739729 0.624304
Si Si3 0.165615 0.046201 0.841422
Si Si4 0.661740 0.138207 0.336787
O O1 0.146470 0.822501 0.405340
O O2 0.110196 0.933552 0.330249
O O3 0.108708 0.892438 0.678195
O O4 0.000000 0.860337 0.428894
O O5 0.711589 0.740676 0.876093
O O6 0.631871 0.796437 0.640624
O O7 0.250000 0.028414 0.750000
O O8 0.173050 0.104298 0.967932
O O9 0.139298 0.000000 0.000000
O O10 0.750000 0.142759 0.250000
#
# Coordination Sequence:
#
# PCOD9481670 Si02
#       4
#    16  16  16  16
#     4  12  27  44  68 109 154 190 232 301 375 431
#     4  11  19  39  69  99 139 188 238 294 348 430
#     4  12  26  46  78 108 135 189 256 302 349 436
#     4  11  22  43  72 102 141 190 246 293 354 431
#
# _framework density 23.544689999999999
#
# number of rings (size 3 to 8) (size 9 to 14) (size 15 to 20)
#    0.000    0.500    7.500    3.000    0.000    2.500 
#    0.000    1.250    0.000    0.000    0.000    0.000 
#    0.000    0.000    0.000    0.000    0.000    0.000 
#
# Total GULP energy -178582.984857 kJ/mol
# GULP energy per Si atom -5580.718277 kJ/mol
# Density = 2.349110 g / cm^3
# Si number density = 23.544690 Si / 1000 Ang^3
#
#
#
# Elastic Constant Matrix: (Units=GPa)
#
#
# Indices 1 2 3 4 5 6 
#
# 1 89.0382 18.3262 23.4170 0.0000 0.0000 0.0000
# 2 18.3262 66.2502 20.8380 0.0000 0.0000 0.0000
# 3 23.4170 20.8380 141.1723 0.0000 0.0000 0.0000
# 4 0.0000 0.0000 0.0000 56.0301 0.0000 0.0000
# 5 0.0000 0.0000 0.0000 0.0000 11.2597 0.0000
# 6 0.0000 0.0000 0.0000 0.0000 0.0000 7.5447
#
#
#
# Elastic Compliance Matrix: (Units=1/GPa)
#
#
# Indices 1 2 3 4 5 6 
#
# 1 0.012247 -0.002883 -0.001606 0.000000 0.000000 0.000000
# 2 -0.002883 0.016508 -0.001958 0.000000 0.000000 0.000000
# 3 -0.001606 -0.001958 0.007639 0.000000 0.000000 0.000000
# 4 0.000000 0.000000 0.000000 0.017848 0.000000 0.000000
# 5 0.000000 0.000000 0.000000 0.000000 0.088813 0.000000
# 6 0.000000 0.000000 0.000000 0.000000 0.000000 0.132543
#
#
# Mechanical properties :
#
#
# Convention : Reuss Voigt Hill
#
# Bulk Modulus (GPa) = 42.55423 46.84700 44.70062
# Shear Modulus (GPa) = 16.87345 30.55887 23.71616
#
# Velocity S-wave (km/s) = 2.67995 3.60656 3.17721
# Velocity P-wave (km/s) = 5.26205 6.10600 5.69967
#
# Compressibility (1/GPa) = 0.02349943
#
# Stress axis : x y z
#
# Youngs Moduli (GPa) = 81.65388 60.57781 130.90688
#
# Poissons Ratio (x) = 0.17462 0.21023
# Poissons Ratio (y) = 0.23538 0.25638
# Poissons Ratio (z) = 0.13113 0.11864
#
# Static dielectric constant tensor:
#      x y z
#    x 1.829780 0.000000 0.000000 
#    y 0.000000 1.877390 0.000000 
#    z 0.000000 0.000000 2.237290 
# 
# From -- ./inp_files/1673.got.cif
#   From: 2010.05.17/outbox.cif.g08.bks.cpg/sg64_1_cif.got.tgz:1673.got - 2010.06.03 16:29:19.
