data_PCOD9481277
_publ_section_title
;
Structure prediction by ZEFSAII (Michael W. Deem and Ramdas Pophale) SiO2 
 PCOD9481277
Probable space group: C M C A
;
_chemical_formula_sum "Si O2"
_cell_formula_units_Z 88
_cell_length_a 15.415923
_cell_length_b 11.777034
_cell_length_c 21.625183
_cell_angle_alpha 90.000000
_cell_angle_beta 90.000000
_cell_angle_gamma 90.000000
_cell_volume 3926.135216
_symmetry_space_group_name_H-M "C M C A"
_symmetry_group_IT_number 64
_symmetry_cell_setting 'orthorhombic'
loop_
_space_group_symop_operation_xyz
x,y,z
-x,1/2-y,1/2+z
x,-y,-z
-x,1/2+y,1/2-z
-x,-y,-z
x,1/2+y,1/2-z
-x,y,z
x,1/2-y,1/2+z
1/2+x,1/2+y,z
1/2-x,-y,1/2+z
1/2+x,1/2-y,-z
1/2-x,y,1/2-z
1/2-x,1/2-y,-z
1/2+x,y,1/2-z
1/2-x,1/2+y,z
1/2+x,-y,1/2+z
loop_
_atom_site_type_symbol
_atom_site_label
_atom_site_fract_x
_atom_site_fract_y
_atom_site_fract_z
Si Si1 0.337100 0.500000 0.500000
Si Si2 0.096987 0.762924 0.730994
Si Si3 0.285201 0.442871 0.189586
Si Si4 0.728152 0.808303 0.082438
Si Si5 0.597713 0.665780 0.401073
Si Si6 0.399159 0.869612 0.632736
O O1 0.282811 0.604885 0.526680
O O2 0.390554 0.445009 0.556558
O O3 0.162085 0.661234 0.719015
O O4 0.106141 0.850326 0.673283
O O5 0.104273 0.816115 0.798237
O O6 0.000000 0.714741 0.725774
O O7 0.250000 0.508320 0.250000
O O8 0.216878 0.384760 0.144096
O O9 0.346140 0.515308 0.144323
O O10 0.823169 0.751275 0.084186
O O11 0.654641 0.711712 0.087010
O O12 0.500000 0.710669 0.412216
O O13 0.500000 0.883791 0.615530
#
# Coordination Sequence:
#
# PCOD9481277 Si02
#       6
#     8  16  16  16  16  16
#     4  12  25  44  67 100 132 180 229 278 325 398
#     4   9  20  39  61  93 132 171 216 273 334 393
#     4  11  22  36  65  94 131 174 219 267 336 395
#     4  11  25  45  66  96 135 179 222 279 331 401
#     4  10  23  42  67  95 131 175 224 278 333 393
#     4  11  24  40  63  97 135 175 220 275 333 401
#
# _framework density 22.413899000000001
#
# number of rings (size 3 to 8) (size 9 to 14) (size 15 to 20)
#    0.000    1.455    1.818    2.455    7.636    2.182 
#    0.000    0.455    0.000    0.000    0.000    0.000 
#    0.000    0.000    0.000    0.000    0.000    0.000 
#
# Total GULP energy -245722.963343 kJ/mol
# GULP energy per Si atom -5584.612803 kJ/mol
# Density = 2.236288 g / cm^3
# Si number density = 22.413899 Si / 1000 Ang^3
#
#
#
# Elastic Constant Matrix: (Units=GPa)
#
#
# Indices 1 2 3 4 5 6 
#
# 1 108.2570 34.2802 26.3526 0.0000 0.0000 0.0000
# 2 34.2802 55.1164 16.4826 0.0000 0.0000 0.0000
# 3 26.3526 16.4826 77.7640 0.0000 0.0000 0.0000
# 4 0.0000 0.0000 0.0000 49.5166 0.0000 0.0000
# 5 0.0000 0.0000 0.0000 0.0000 7.2741 0.0000
# 6 0.0000 0.0000 0.0000 0.0000 0.0000 39.9353
#
#
#
# Elastic Compliance Matrix: (Units=1/GPa)
#
#
# Indices 1 2 3 4 5 6 
#
# 1 0.011994 -0.006667 -0.002651 0.000000 0.000000 0.000000
# 2 -0.006667 0.023077 -0.002632 0.000000 0.000000 0.000000
# 3 -0.002651 -0.002632 0.014316 0.000000 0.000000 0.000000
# 4 0.000000 0.000000 0.000000 0.020195 0.000000 0.000000
# 5 0.000000 0.000000 0.000000 0.000000 0.137474 0.000000
# 6 0.000000 0.000000 0.000000 0.000000 0.000000 0.025040
#
#
# Mechanical properties :
#
#
# Convention : Reuss Voigt Hill
#
# Bulk Modulus (GPa) = 39.23704 43.92981 41.58342
# Shear Modulus (GPa) = 18.90417 30.28000 24.59209
#
# Velocity S-wave (km/s) = 2.90731 3.67951 3.31596
# Velocity P-wave (km/s) = 5.36783 6.13952 5.76660
#
# Compressibility (1/GPa) = 0.02548612
#
# Stress axis : x y z
#
# Youngs Moduli (GPa) = 83.37672 43.33317 69.85282
#
# Poissons Ratio (x) = 0.28889 0.18521
# Poissons Ratio (y) = 0.55585 0.18386
# Poissons Ratio (z) = 0.22106 0.11406
#
# Static dielectric constant tensor:
#      x y z
#    x 1.843150 0.000000 0.000000 
#    y 0.000000 1.836870 0.000000 
#    z 0.000000 0.000000 1.900520 
# 
# From -- ./inp_files/45062.got.cif
#   From: 2010.05.17/outbox.cif.g08.bks.cpg/sg64_23_cif.got.tgz:45062.got - 2010.06.03 16:29:19.
