data_PCOD9481124
_publ_section_title
;
Structure prediction by ZEFSAII (Michael W. Deem and Ramdas Pophale) SiO2 
 PCOD9481124
Probable space group: C M C A
;
_chemical_formula_sum "Si O2"
_cell_formula_units_Z 88
_cell_length_a 19.399493
_cell_length_b 9.671851
_cell_length_c 21.719981
_cell_angle_alpha 90.000000
_cell_angle_beta 90.000000
_cell_angle_gamma 90.000000
_cell_volume 4075.298440
_symmetry_space_group_name_H-M "C M C A"
_symmetry_group_IT_number 64
_symmetry_cell_setting 'orthorhombic'
loop_
_space_group_symop_operation_xyz
x,y,z
-x,1/2-y,1/2+z
x,-y,-z
-x,1/2+y,1/2-z
-x,-y,-z
x,1/2+y,1/2-z
-x,y,z
x,1/2-y,1/2+z
1/2+x,1/2+y,z
1/2-x,-y,1/2+z
1/2+x,1/2-y,-z
1/2-x,y,1/2-z
1/2-x,1/2-y,-z
1/2+x,y,1/2-z
1/2-x,1/2+y,z
1/2+x,-y,1/2+z
loop_
_atom_site_type_symbol
_atom_site_label
_atom_site_fract_x
_atom_site_fract_y
_atom_site_fract_z
Si Si1 0.500000 0.190470 0.772280
Si Si2 0.102572 0.430446 0.755340
Si Si3 0.325424 0.821257 0.871323
Si Si4 0.699274 0.987323 0.345978
Si Si5 0.078137 0.918091 0.935291
Si Si6 0.578780 0.662405 0.486279
O O1 0.440251 0.311436 0.778642
O O2 0.559548 0.070722 0.761057
O O3 0.117212 0.371175 0.823097
O O4 0.173968 0.462099 0.720681
O O5 0.293441 0.677128 0.848907
O O6 0.266025 0.935536 0.871279
O O7 0.363899 0.802189 0.936117
O O8 0.634608 0.026028 0.389412
O O9 0.000000 0.938218 0.912419
O O10 0.088109 0.757351 0.953473
O O11 0.083458 0.000000 0.000000
O O12 0.582649 0.500000 0.500000
O O13 0.500000 0.692664 0.464183
#
# Coordination Sequence:
#
# PCOD9481124 Si02
#       6
#     8  16  16  16  16  16
#     4  10  24  42  70 108 126 181 224 285 331 405
#     4  11  25  46  71 103 142 174 227 282 348 401
#     4  12  28  46  69  98 144 184 224 284 337 410
#     4  12  28  45  69 100 139 187 226 277 342 411
#     4  10  22  44  72  97 131 175 226 284 338 398
#     4  10  24  46  70 102 134 175 228 287 344 396
#
# _framework density 21.593509999999998
#
# number of rings (size 3 to 8) (size 9 to 14) (size 15 to 20)
#    0.000    1.091    3.636    0.545   10.182    2.909 
#    3.273    0.000    0.000    0.000    0.000    0.000 
#    0.000    0.000    0.000    0.000    0.000    0.000 
#
# Total GULP energy -245093.915549 kJ/mol
# GULP energy per Si atom -5570.316262 kJ/mol
# Density = 2.154436 g / cm^3
# Si number density = 21.593510 Si / 1000 Ang^3
#
#
#
# Elastic Constant Matrix: (Units=GPa)
#
#
# Indices 1 2 3 4 5 6 
#
# 1 69.8671 5.9466 2.7512 0.0000 0.0000 0.0000
# 2 5.9466 150.1014 -14.2924 0.0000 0.0000 0.0000
# 3 2.7512 -14.2924 22.4836 0.0000 0.0000 0.0000
# 4 0.0000 0.0000 0.0000 16.7195 0.0000 0.0000
# 5 0.0000 0.0000 0.0000 0.0000 15.1714 0.0000
# 6 0.0000 0.0000 0.0000 0.0000 0.0000 33.4171
#
#
#
# Elastic Compliance Matrix: (Units=1/GPa)
#
#
# Indices 1 2 3 4 5 6 
#
# 1 0.014470 -0.000790 -0.002273 0.000000 0.000000 0.000000
# 2 -0.000790 0.007134 0.004632 0.000000 0.000000 0.000000
# 3 -0.002273 0.004632 0.047699 0.000000 0.000000 0.000000
# 4 0.000000 0.000000 0.000000 0.059810 0.000000 0.000000
# 5 0.000000 0.000000 0.000000 0.000000 0.065913 0.000000
# 6 0.000000 0.000000 0.000000 0.000000 0.000000 0.029925
#
#
# Mechanical properties :
#
#
# Convention : Reuss Voigt Hill
#
# Bulk Modulus (GPa) = 13.80399 25.69588 19.74993
# Shear Modulus (GPa) = 20.32851 29.59806 24.96328
#
# Velocity S-wave (km/s) = 3.07158 3.70630 3.40377
# Velocity P-wave (km/s) = 4.35729 5.49920 4.96121
#
# Compressibility (1/GPa) = 0.07244284
#
# Stress axis : x y z
#
# Youngs Moduli (GPa) = 69.11049 140.16422 20.96466
#
# Poissons Ratio (x) = 0.11068 0.04764
# Poissons Ratio (y) = 0.05457 -0.09711
# Poissons Ratio (z) = 0.15706 -0.64922
#
# Static dielectric constant tensor:
#      x y z
#    x 1.731940 0.000000 0.000000 
#    y 0.000000 1.764670 0.000000 
#    z 0.000000 0.000000 1.839010 
# 
# From -- ./inp_files/46199.got.cif
#   From: 2010.05.17/outbox.cif.g08.bks.cpg/sg64_24_cif.got.tgz:46199.got - 2010.06.03 16:29:19.
