data_PCOD9481355
_publ_section_title
;
Structure prediction by ZEFSAII (Michael W. Deem and Ramdas Pophale) SiO2 
 PCOD9481355
Probable space group: C M C A
;
_chemical_formula_sum "Si O2"
_cell_formula_units_Z 80
_cell_length_a 13.501119
_cell_length_b 12.153318
_cell_length_c 21.299612
_cell_angle_alpha 90.000000
_cell_angle_beta 90.000000
_cell_angle_gamma 90.000000
_cell_volume 3494.912597
_symmetry_space_group_name_H-M "C M C A"
_symmetry_group_IT_number 64
_symmetry_cell_setting 'orthorhombic'
loop_
_space_group_symop_operation_xyz
x,y,z
-x,1/2-y,1/2+z
x,-y,-z
-x,1/2+y,1/2-z
-x,-y,-z
x,1/2+y,1/2-z
-x,y,z
x,1/2-y,1/2+z
1/2+x,1/2+y,z
1/2-x,-y,1/2+z
1/2+x,1/2-y,-z
1/2-x,y,1/2-z
1/2-x,1/2-y,-z
1/2+x,y,1/2-z
1/2-x,1/2+y,z
1/2+x,-y,1/2+z
loop_
_atom_site_type_symbol
_atom_site_label
_atom_site_fract_x
_atom_site_fract_y
_atom_site_fract_z
Si Si1 0.385280 0.249759 0.374845
Si Si2 0.112777 0.547479 0.796207
Si Si3 0.180687 0.993751 0.844019
Si Si4 0.114480 0.655989 0.546165
Si Si5 0.679231 0.375586 0.499601
O O1 0.500000 0.240856 0.390869
O O2 0.375987 0.323147 0.312080
O O3 0.347183 0.128635 0.363243
O O4 0.340333 0.320499 0.431697
O O5 0.135219 0.521179 0.724097
O O6 0.200396 0.494902 0.836966
O O7 0.000000 0.515863 0.812426
O O8 0.140032 0.085442 0.892118
O O9 0.200740 0.620945 0.497136
O O10 0.132248 0.788602 0.548262
O O11 0.000000 0.635689 0.528861
O O12 0.641299 0.500000 0.500000
#
# Coordination Sequence:
#
# PCOD9481355 Si02
#       5
#    16  16  16  16  16
#     4  11  24  46  73 101 142 187 227 290 356 407
#     4  10  23  44  71 101 141 188 226 282 358 422
#     4  11  24  45  72 106 143 175 243 294 344 424
#     4  11  25  44  72 101 135 186 234 290 351 415
#     4  11  27  48  67 101 145 184 237 292 351 421
#
# _framework density 22.890414
#
# number of rings (size 3 to 8) (size 9 to 14) (size 15 to 20)
#    0.000    1.200    2.000    2.400    5.600    5.200 
#    3.600    3.000    0.000    0.000    0.000    0.000 
#    0.000    0.000    0.000    0.000    0.000    0.000 
#
# Total GULP energy -223596.668110 kJ/mol
# GULP energy per Si atom -5589.916703 kJ/mol
# Density = 2.283831 g / cm^3
# Si number density = 22.890414 Si / 1000 Ang^3
#
#
#
# Elastic Constant Matrix: (Units=GPa)
#
#
# Indices 1 2 3 4 5 6 
#
# 1 167.0649 52.3291 27.3282 0.0000 0.0000 0.0000
# 2 52.3291 208.5450 82.5944 0.0000 0.0000 0.0000
# 3 27.3282 82.5944 112.5101 0.0000 0.0000 0.0000
# 4 0.0000 0.0000 0.0000 -145.4281 0.0000 0.0000
# 5 0.0000 0.0000 0.0000 0.0000 10.1847 0.0000
# 6 0.0000 0.0000 0.0000 0.0000 0.0000 24.7630
#
#
#
# Elastic Compliance Matrix: (Units=1/GPa)
#
#
# Indices 1 2 3 4 5 6 
#
# 1 0.006519 -0.001422 -0.000539 0.000000 0.000000 0.000000
# 2 -0.001422 0.007071 -0.004845 0.000000 0.000000 0.000000
# 3 -0.000539 -0.004845 0.012576 0.000000 0.000000 0.000000
# 4 0.000000 0.000000 0.000000 -0.006876 0.000000 0.000000
# 5 0.000000 0.000000 0.000000 0.000000 0.098187 0.000000
# 6 0.000000 0.000000 0.000000 0.000000 0.000000 0.040383
#
#
# Mechanical properties :
#
#
# Convention : Reuss Voigt Hill
#
# Bulk Modulus (GPa) = 79.66620 90.29150 84.97885
# Shear Modulus (GPa) = 28.46436 -0.37153 14.04642
#
# Velocity S-wave (km/s) = 3.53016 -0.40331 2.47986
# Velocity P-wave (km/s) = 7.17600 6.27008 6.73828
#
# Compressibility (1/GPa) = 0.01255237
#
# Stress axis : x y z
#
# Youngs Moduli (GPa) = 153.38783 141.42183 79.51524
#
# Poissons Ratio (x) = 0.20113 0.04290
# Poissons Ratio (y) = 0.21815 0.38529
# Poissons Ratio (z) = 0.08275 0.68525
#
# Static dielectric constant tensor:
#      x y z
#    x 1.910320 0.000000 0.000000 
#    y 0.000000 1.867200 0.000000 
#    z 0.000000 0.000000 1.881630 
# 
# From -- ./inp_files/44950.got.cif
#   From: 2010.05.17/outbox.cif.g08.bks.cpg/sg64_23_cif.got.tgz:44950.got - 2010.06.03 16:29:19.
