data_PCOD9481351
_publ_section_title
;
Structure prediction by ZEFSAII (Michael W. Deem and Ramdas Pophale) SiO2 
 PCOD9481351
Probable space group: C M C A
;
_chemical_formula_sum "Si O2"
_cell_formula_units_Z 48
_cell_length_a 16.005551
_cell_length_b 12.417002
_cell_length_c 11.207054
_cell_angle_alpha 90.000000
_cell_angle_beta 90.000000
_cell_angle_gamma 90.000000
_cell_volume 2227.300657
_symmetry_space_group_name_H-M "C M C A"
_symmetry_group_IT_number 64
_symmetry_cell_setting 'orthorhombic'
loop_
_space_group_symop_operation_xyz
x,y,z
-x,1/2-y,1/2+z
x,-y,-z
-x,1/2+y,1/2-z
-x,-y,-z
x,1/2+y,1/2-z
-x,y,z
x,1/2-y,1/2+z
1/2+x,1/2+y,z
1/2-x,-y,1/2+z
1/2+x,1/2-y,-z
1/2-x,y,1/2-z
1/2-x,1/2-y,-z
1/2+x,y,1/2-z
1/2-x,1/2+y,z
1/2+x,-y,1/2+z
loop_
_atom_site_type_symbol
_atom_site_label
_atom_site_fract_x
_atom_site_fract_y
_atom_site_fract_z
Si Si1 0.143274 0.847109 0.475917
Si Si2 0.093818 0.974643 0.699223
Si Si3 0.167448 0.393407 0.565665
O O1 0.125713 0.911904 0.354028
O O2 0.125786 0.721452 0.460081
O O3 0.238372 0.872990 0.517757
O O4 0.091624 0.898224 0.583476
O O5 0.000000 0.985376 0.748112
O O6 0.155006 0.923054 0.796284
O O7 0.134624 0.500000 0.500000
#
# Coordination Sequence:
#
# PCOD9481351 Si02
#       3
#    16  16  16
#     4  10  23  44  69  97 132 177 225 270 330 399
#     4  11  24  44  68  97 136 174 218 277 341 394
#     4  11  24  42  69 100 130 174 228 275 324 400
#
# _framework density 21.550749
#
# number of rings (size 3 to 8) (size 9 to 14) (size 15 to 20)
#    0.000    1.333    3.333    3.000    4.667    3.333 
#    0.000    0.000    0.000    0.000    0.000    0.000 
#    0.000    0.000    0.000    0.000    0.000    0.000 
#
# Total GULP energy -133983.086315 kJ/mol
# GULP energy per Si atom -5582.628596 kJ/mol
# Density = 2.150170 g / cm^3
# Si number density = 21.550749 Si / 1000 Ang^3
#
#
#
# Elastic Constant Matrix: (Units=GPa)
#
#
# Indices 1 2 3 4 5 6 
#
# 1 65.2533 23.9251 9.3778 0.0000 0.0000 0.0000
# 2 23.9251 221.2364 59.4708 0.0000 0.0000 0.0000
# 3 9.3778 59.4708 80.3227 0.0000 0.0000 0.0000
# 4 0.0000 0.0000 0.0000 20.1083 0.0000 0.0000
# 5 0.0000 0.0000 0.0000 0.0000 6.4422 0.0000
# 6 0.0000 0.0000 0.0000 0.0000 0.0000 5.9542
#
#
#
# Elastic Compliance Matrix: (Units=1/GPa)
#
#
# Indices 1 2 3 4 5 6 
#
# 1 0.015992 -0.001533 -0.000732 0.000000 0.000000 0.000000
# 2 -0.001533 0.005790 -0.004108 0.000000 0.000000 0.000000
# 3 -0.000732 -0.004108 0.015577 0.000000 0.000000 0.000000
# 4 0.000000 0.000000 0.000000 0.049731 0.000000 0.000000
# 5 0.000000 0.000000 0.000000 0.000000 0.155227 0.000000
# 6 0.000000 0.000000 0.000000 0.000000 0.000000 0.167949
#
#
# Mechanical properties :
#
#
# Convention : Reuss Voigt Hill
#
# Bulk Modulus (GPa) = 40.62890 61.37332 51.00111
# Shear Modulus (GPa) = 11.59510 24.77018 18.18264
#
# Velocity S-wave (km/s) = 2.32208 3.39394 2.90782
# Velocity P-wave (km/s) = 5.10715 6.62562 5.91531
#
# Compressibility (1/GPa) = 0.02461302
#
# Stress axis : x y z
#
# Youngs Moduli (GPa) = 62.53107 172.70952 64.19776
#
# Poissons Ratio (x) = 0.26469 0.04702
# Poissons Ratio (y) = 0.09583 0.26373
# Poissons Ratio (z) = 0.04580 0.70950
#
# Static dielectric constant tensor:
#      x y z
#    x 1.834980 0.000000 0.000000 
#    y 0.000000 1.775030 0.000000 
#    z 0.000000 0.000000 1.792490 
# 
# From -- ./inp_files/15204.got.cif
#   From: 2010.05.17/outbox.cif.g08.bks.cpg/sg64_8_cif.got.tgz:15204.got - 2010.06.03 16:29:19.
