data_PCOD9481443
_publ_section_title
;
Structure prediction by ZEFSAII (Michael W. Deem and Ramdas Pophale) SiO2 
 PCOD9481443
Probable space group: C M C A
;
_chemical_formula_sum "Si O2"
_cell_formula_units_Z 104
_cell_length_a 21.080482
_cell_length_b 28.513314
_cell_length_c 9.090183
_cell_angle_alpha 90.000000
_cell_angle_beta 90.000000
_cell_angle_gamma 90.000000
_cell_volume 5463.876316
_symmetry_space_group_name_H-M "C M C A"
_symmetry_group_IT_number 64
_symmetry_cell_setting 'orthorhombic'
loop_
_space_group_symop_operation_xyz
x,y,z
-x,1/2-y,1/2+z
x,-y,-z
-x,1/2+y,1/2-z
-x,-y,-z
x,1/2+y,1/2-z
-x,y,z
x,1/2-y,1/2+z
1/2+x,1/2+y,z
1/2-x,-y,1/2+z
1/2+x,1/2-y,-z
1/2-x,y,1/2-z
1/2-x,1/2-y,-z
1/2+x,y,1/2-z
1/2-x,1/2+y,z
1/2+x,-y,1/2+z
loop_
_atom_site_type_symbol
_atom_site_label
_atom_site_fract_x
_atom_site_fract_y
_atom_site_fract_z
Si Si1 0.572555 0.020753 0.163428
Si Si2 0.500000 0.250442 0.908133
Si Si3 0.711053 0.715206 0.895466
Si Si4 0.313044 0.025316 0.656900
Si Si5 0.785400 0.613501 0.482364
Si Si6 0.847401 0.887768 0.664676
Si Si7 0.596392 0.216647 0.157944
O O1 0.500000 0.018976 0.220885
O O2 0.597957 0.073794 0.147959
O O3 0.623858 0.991959 0.260009
O O4 0.572715 0.000000 0.000000
O O5 0.445341 0.274711 0.802580
O O6 0.554438 0.226165 0.013886
O O7 0.750000 0.703020 0.750000
O O8 0.649826 0.743487 0.845380
O O9 0.750000 0.750000 0.000000
O O10 0.699589 0.667134 0.980727
O O11 0.250000 0.013678 0.750000
O O12 0.310106 0.079965 0.611722
O O13 0.308826 0.000000 0.500000
O O14 0.818452 0.603068 0.326590
O O15 0.710147 0.606473 0.452035
O O16 0.873130 0.834934 0.655781
#
# Coordination Sequence:
#
# PCOD9481443 Si02
#       7
#    16   8  16  16  16  16  16
#     4  11  26  47  70  99 135 182 234 285 354 421
#     4  10  24  42  62  92 126 188 221 269 323 407
#     4  12  23  40  64 100 135 171 212 284 346 402
#     4  12  23  43  70 101 136 175 224 295 348 416
#     4  11  23  39  67 103 132 172 226 274 359 412
#     4  11  22  42  69  98 130 179 224 283 346 424
#     4  11  23  42  67  92 137 174 232 274 336 410
#
# _framework density 19.034106000000001
#
# number of rings (size 3 to 8) (size 9 to 14) (size 15 to 20)
#    0.000    0.769    3.077    5.538    2.154    0.308 
#    0.000    0.000    1.692    0.000    0.000    0.000 
#    0.000    0.000    0.000    0.000    0.000    0.000 
#
# Total GULP energy -289532.954302 kJ/mol
# GULP energy per Si atom -5567.941429 kJ/mol
# Density = 1.899078 g / cm^3
# Si number density = 19.034106 Si / 1000 Ang^3
#
#
#
# Elastic Constant Matrix: (Units=GPa)
#
#
# Indices 1 2 3 4 5 6 
#
# 1 146.0867 56.0564 30.9997 0.0000 0.0000 0.0000
# 2 56.0564 112.0401 27.1967 0.0000 0.0000 0.0000
# 3 30.9997 27.1967 62.9648 0.0000 0.0000 0.0000
# 4 0.0000 0.0000 0.0000 18.0503 0.0000 0.0000
# 5 0.0000 0.0000 0.0000 0.0000 -32.8305 0.0000
# 6 0.0000 0.0000 0.0000 0.0000 0.0000 11.5110
#
#
#
# Elastic Compliance Matrix: (Units=1/GPa)
#
#
# Indices 1 2 3 4 5 6 
#
# 1 0.008875 -0.003776 -0.002739 0.000000 0.000000 0.000000
# 2 -0.003776 0.011577 -0.003142 0.000000 0.000000 0.000000
# 3 -0.002739 -0.003142 0.018587 0.000000 0.000000 0.000000
# 4 0.000000 0.000000 0.000000 0.055401 0.000000 0.000000
# 5 0.000000 0.000000 0.000000 0.000000 -0.030459 0.000000
# 6 0.000000 0.000000 0.000000 0.000000 0.000000 0.086874
#
#
# Mechanical properties :
#
#
# Convention : Reuss Voigt Hill
#
# Bulk Modulus (GPa) = 50.69084 61.06633 55.87859
# Shear Modulus (GPa) = 28.28978 13.13541 20.71259
#
# Velocity S-wave (km/s) = 3.85940 2.62982 3.30234
# Velocity P-wave (km/s) = 6.82271 6.43223 6.63034
#
# Compressibility (1/GPa) = 0.01972743
#
# Stress axis : x y z
#
# Youngs Moduli (GPa) = 112.67325 86.37780 53.80035
#
# Poissons Ratio (x) = 0.32614 0.14734
# Poissons Ratio (y) = 0.42542 0.16902
# Poissons Ratio (z) = 0.30858 0.27137
#
# Static dielectric constant tensor:
#      x y z
#    x 1.655740 0.000000 0.000000 
#    y 0.000000 1.662900 0.000000 
#    z 0.000000 0.000000 1.644920 
# 
# From -- ./inp_files/8498.got.cif
#   From: 2010.05.17/outbox.cif.g08.bks.cpg/sg64_5_cif.got.tgz:8498.got - 2010.06.03 16:29:19.
