data_PCOD9481113
_publ_section_title
;
Structure prediction by ZEFSAII (Michael W. Deem and Ramdas Pophale) SiO2 
 PCOD9481113
Probable space group: C M C A
;
_chemical_formula_sum "Si O2"
_cell_formula_units_Z 56
_cell_length_a 14.111814
_cell_length_b 18.036231
_cell_length_c 8.170999
_cell_angle_alpha 90.000000
_cell_angle_beta 90.000000
_cell_angle_gamma 90.000000
_cell_volume 2079.714836
_symmetry_space_group_name_H-M "C M C A"
_symmetry_group_IT_number 64
_symmetry_cell_setting 'orthorhombic'
loop_
_space_group_symop_operation_xyz
x,y,z
-x,1/2-y,1/2+z
x,-y,-z
-x,1/2+y,1/2-z
-x,-y,-z
x,1/2+y,1/2-z
-x,y,z
x,1/2-y,1/2+z
1/2+x,1/2+y,z
1/2-x,-y,1/2+z
1/2+x,1/2-y,-z
1/2-x,y,1/2-z
1/2-x,1/2-y,-z
1/2+x,y,1/2-z
1/2-x,1/2+y,z
1/2+x,-y,1/2+z
loop_
_atom_site_type_symbol
_atom_site_label
_atom_site_fract_x
_atom_site_fract_y
_atom_site_fract_z
Si Si1 0.898635 0.859336 0.422231
Si Si2 0.638439 0.206450 0.268087
Si Si3 0.202488 0.500000 0.000000
Si Si4 0.110681 0.450366 0.646444
O O1 0.902316 0.820787 0.598266
O O2 0.893104 0.788755 0.306055
O O3 0.810366 0.913877 0.422095
O O4 0.000000 0.899717 0.396032
O O5 0.750000 0.208849 0.250000
O O6 0.616376 0.137164 0.389187
O O7 0.157888 0.532872 0.180544
O O8 0.166676 0.500000 0.500000
O O9 0.000000 0.470528 0.649016
#
# Coordination Sequence:
#
# PCOD9481113 Si02
#       4
#    16  16   8  16
#     4  12  26  47  73 106 148 191 242 299 361 430
#     4  12  24  47  74 103 144 191 245 301 357 432
#     4  10  22  44  70 100 142 188 234 290 360 420
#     4   9  19  40  68 100 133 177 235 292 351 420
#
# _framework density 26.926769
#
# number of rings (size 3 to 8) (size 9 to 14) (size 15 to 20)
#    0.857    0.286    2.857    3.857    0.000    0.000 
#   10.286    0.000    0.000    0.000    0.000    0.000 
#    0.000    0.000    0.000    0.000    0.000    0.000 
#
# Total GULP energy -156157.908977 kJ/mol
# GULP energy per Si atom -5577.068178 kJ/mol
# Density = 2.686548 g / cm^3
# Si number density = 26.926769 Si / 1000 Ang^3
#
#
#
# Elastic Constant Matrix: (Units=GPa)
#
#
# Indices 1 2 3 4 5 6 
#
# 1 252.0938 34.0013 34.3957 0.0000 0.0000 0.0000
# 2 34.0013 172.3604 53.1911 0.0000 0.0000 0.0000
# 3 34.3957 53.1911 88.8053 0.0000 0.0000 0.0000
# 4 0.0000 0.0000 0.0000 53.3551 0.0000 0.0000
# 5 0.0000 0.0000 0.0000 0.0000 47.2282 0.0000
# 6 0.0000 0.0000 0.0000 0.0000 0.0000 37.7178
#
#
#
# Elastic Compliance Matrix: (Units=1/GPa)
#
#
# Indices 1 2 3 4 5 6 
#
# 1 0.004211 -0.000402 -0.001390 0.000000 0.000000 0.000000
# 2 -0.000402 0.007156 -0.004130 0.000000 0.000000 0.000000
# 3 -0.001390 -0.004130 0.014273 0.000000 0.000000 0.000000
# 4 0.000000 0.000000 0.000000 0.018742 0.000000 0.000000
# 5 0.000000 0.000000 0.000000 0.000000 0.021174 0.000000
# 6 0.000000 0.000000 0.000000 0.000000 0.000000 0.026513
#
#
# Mechanical properties :
#
#
# Convention : Reuss Voigt Hill
#
# Bulk Modulus (GPa) = 72.49160 84.04841 78.27000
# Shear Modulus (GPa) = 46.07820 53.77163 49.92492
#
# Velocity S-wave (km/s) = 4.14120 4.47358 4.31060
# Velocity P-wave (km/s) = 7.06019 7.61350 7.34206
#
# Compressibility (1/GPa) = 0.01379470
#
# Stress axis : x y z
#
# Youngs Moduli (GPa) = 237.49386 139.74900 70.06202
#
# Poissons Ratio (x) = 0.05612 0.09741
# Poissons Ratio (y) = 0.09537 0.28939
# Poissons Ratio (z) = 0.33019 0.57723
#
# Static dielectric constant tensor:
#      x y z
#    x 2.169510 0.000000 0.000000 
#    y 0.000000 2.219580 0.000000 
#    z 0.000000 0.000000 2.148140 
# 
# From -- ./inp_files/6452.got.cif
#   From: 2010.05.17/outbox.cif.g08.bks.cpg/sg64_4_cif.got.tgz:6452.got - 2010.06.03 16:29:19.
