data_PCOD9481362
_publ_section_title
;
Structure prediction by ZEFSAII (Michael W. Deem and Ramdas Pophale) SiO2 
 PCOD9481362
Probable space group: C M C A
;
_chemical_formula_sum "Si O2"
_cell_formula_units_Z 88
_cell_length_a 20.963986
_cell_length_b 21.533943
_cell_length_c 8.016813
_cell_angle_alpha 90.000000
_cell_angle_beta 90.000000
_cell_angle_gamma 90.000000
_cell_volume 3619.088252
_symmetry_space_group_name_H-M "C M C A"
_symmetry_group_IT_number 64
_symmetry_cell_setting 'orthorhombic'
loop_
_space_group_symop_operation_xyz
x,y,z
-x,1/2-y,1/2+z
x,-y,-z
-x,1/2+y,1/2-z
-x,-y,-z
x,1/2+y,1/2-z
-x,y,z
x,1/2-y,1/2+z
1/2+x,1/2+y,z
1/2-x,-y,1/2+z
1/2+x,1/2-y,-z
1/2-x,y,1/2-z
1/2-x,1/2-y,-z
1/2+x,y,1/2-z
1/2-x,1/2+y,z
1/2+x,-y,1/2+z
loop_
_atom_site_type_symbol
_atom_site_label
_atom_site_fract_x
_atom_site_fract_y
_atom_site_fract_z
Si Si1 0.107584 0.729128 0.890212
Si Si2 0.616566 0.064055 0.079820
Si Si3 0.924131 0.152970 0.946564
Si Si4 0.500000 0.153388 0.087707
Si Si5 0.320692 0.933883 0.569564
Si Si6 0.717195 0.650161 0.570740
O O1 0.097800 0.693492 0.714405
O O2 0.055132 0.699976 0.011545
O O3 0.179097 0.714476 0.954572
O O4 0.091484 0.801955 0.896004
O O5 0.660030 0.055242 0.241170
O O6 0.555671 0.103020 0.131287
O O7 0.659293 0.101160 0.945672
O O8 0.596155 0.000000 0.000000
O O9 0.000000 0.142231 0.935050
O O10 0.883005 0.090923 0.969023
O O11 0.270810 0.877460 0.550020
O O12 0.296675 0.000000 0.500000
O O13 0.750000 0.650809 0.750000
#
# Coordination Sequence:
#
# PCOD9481362 Si02
#       6
#    16  16  16   8  16  16
#     4  11  25  45  77 104 143 189 242 303 370 429
#     4  11  25  43  73 104 144 196 247 298 362 437
#     4  12  26  46  76 108 147 191 242 303 364 435
#     4  10  23  44  73 101 145 186 241 303 371 426
#     4  12  28  47  73 108 150 197 245 298 365 440
#     4  11  23  48  72 102 145 189 240 302 361 429
#
# _framework density 24.315518000000001
#
# number of rings (size 3 to 8) (size 9 to 14) (size 15 to 20)
#    0.000    0.727    3.636    2.455    8.909    1.091 
#    0.000    0.000    0.000    0.000    0.000    0.000 
#    0.000    0.000    0.000    0.000    0.000    0.000 
#
# Total GULP energy -245290.118839 kJ/mol
# GULP energy per Si atom -5574.775428 kJ/mol
# Density = 2.426017 g / cm^3
# Si number density = 24.315518 Si / 1000 Ang^3
#
#
#
# Elastic Constant Matrix: (Units=GPa)
#
#
# Indices 1 2 3 4 5 6 
#
# 1 148.4637 19.9885 18.5789 0.0000 0.0000 0.0000
# 2 19.9885 54.3211 14.9656 0.0000 0.0000 0.0000
# 3 18.5789 14.9656 82.2608 0.0000 0.0000 0.0000
# 4 0.0000 0.0000 0.0000 31.2272 0.0000 0.0000
# 5 0.0000 0.0000 0.0000 0.0000 -8.0004 0.0000
# 6 0.0000 0.0000 0.0000 0.0000 0.0000 27.0405
#
#
#
# Elastic Compliance Matrix: (Units=1/GPa)
#
#
# Indices 1 2 3 4 5 6 
#
# 1 0.007198 -0.002317 -0.001204 0.000000 0.000000 0.000000
# 2 -0.002317 0.020126 -0.003138 0.000000 0.000000 0.000000
# 3 -0.001204 -0.003138 0.012999 0.000000 0.000000 0.000000
# 4 0.000000 0.000000 0.000000 0.032023 0.000000 0.000000
# 5 0.000000 0.000000 0.000000 0.000000 -0.124994 0.000000
# 6 0.000000 0.000000 0.000000 0.000000 0.000000 0.036982
#
#
# Mechanical properties :
#
#
# Convention : Reuss Voigt Hill
#
# Bulk Modulus (GPa) = 37.03020 43.56795 40.29908
# Shear Modulus (GPa) = 751.29639 25.48764 388.39201
#
# Velocity S-wave (km/s) = 17.59684 3.24111 12.65215
# Velocity P-wave (km/s) = 20.69124 5.65359 15.16724
#
# Compressibility (1/GPa) = 0.02700498
#
# Stress axis : x y z
#
# Youngs Moduli (GPa) = 138.92170 49.68641 76.92672
#
# Poissons Ratio (x) = 0.11512 0.09264
# Poissons Ratio (y) = 0.32188 0.24142
# Poissons Ratio (z) = 0.16729 0.15593
#
# Static dielectric constant tensor:
#      x y z
#    x 1.926360 0.000000 0.000000 
#    y 0.000000 1.966640 0.000000 
#    z 0.000000 0.000000 1.999820 
# 
# From -- ./inp_files/8237.got.cif
#   From: 2010.05.17/outbox.cif.g08.bks.cpg/sg64_5_cif.got.tgz:8237.got - 2010.06.03 16:29:19.
