data_PCOD9481046
_publ_section_title
;
Structure prediction by ZEFSAII (Michael W. Deem and Ramdas Pophale) SiO2 
 PCOD9481046
Probable space group: C M C A
;
_chemical_formula_sum "Si O2"
_cell_formula_units_Z 80
_cell_length_a 16.387047
_cell_length_b 19.316255
_cell_length_c 11.910352
_cell_angle_alpha 90.000000
_cell_angle_beta 90.000000
_cell_angle_gamma 90.000000
_cell_volume 3770.059689
_symmetry_space_group_name_H-M "C M C A"
_symmetry_group_IT_number 64
_symmetry_cell_setting 'orthorhombic'
loop_
_space_group_symop_operation_xyz
x,y,z
-x,1/2-y,1/2+z
x,-y,-z
-x,1/2+y,1/2-z
-x,-y,-z
x,1/2+y,1/2-z
-x,y,z
x,1/2-y,1/2+z
1/2+x,1/2+y,z
1/2-x,-y,1/2+z
1/2+x,1/2-y,-z
1/2-x,y,1/2-z
1/2-x,1/2-y,-z
1/2+x,y,1/2-z
1/2-x,1/2+y,z
1/2+x,-y,1/2+z
loop_
_atom_site_type_symbol
_atom_site_label
_atom_site_fract_x
_atom_site_fract_y
_atom_site_fract_z
Si Si1 0.825964 0.837307 0.960005
Si Si2 0.350557 0.019385 0.376315
Si Si3 0.500000 0.334056 0.535387
Si Si4 0.500000 0.917092 0.731572
Si Si5 0.160589 0.183984 0.598125
Si Si6 0.750000 0.090055 0.750000
Si Si7 0.500000 0.329852 0.001878
O O1 0.810550 0.904846 0.886638
O O2 0.848097 0.767184 0.891146
O O3 0.744643 0.824319 0.029361
O O4 0.907764 0.851470 0.034234
O O5 0.422338 0.033255 0.287971
O O6 0.383785 0.000000 0.500000
O O7 0.286024 0.961494 0.342868
O O8 0.500000 0.374895 0.652605
O O9 0.583139 0.347096 0.466569
O O10 0.500000 0.250238 0.540358
O O11 0.500000 0.861065 0.627488
O O12 0.178318 0.140279 0.708417
#
# Coordination Sequence:
#
# PCOD9481046 Si02
#       7
#    16  16   8   8  16   8   8
#     4   9  19  42  67  88 135 172 215 286 335 382
#     4  11  23  42  63  94 132 173 226 283 325 413
#     4  10  22  44  65  97 143 168 227 280 338 399
#     4  10  23  41  68  97 127 189 219 255 367 394
#     4  10  22  43  65 101 131 174 225 290 325 409
#     4  12  26  40  66  98 130 180 228 272 358 388
#     4   8  18  41  63 104 127 165 225 283 311 401
#
# _framework density 21.219823999999999
#
# number of rings (size 3 to 8) (size 9 to 14) (size 15 to 20)
#    0.000    2.000    2.000    0.300    2.800    1.600 
#   28.800    1.000    0.000    0.000    0.000    0.000 
#    0.000    0.000    0.000    0.000    0.000    0.000 
#
# Total GULP energy -222722.651999 kJ/mol
# GULP energy per Si atom -5568.066300 kJ/mol
# Density = 2.117153 g / cm^3
# Si number density = 21.219824 Si / 1000 Ang^3
#
#
#
# Elastic Constant Matrix: (Units=GPa)
#
#
# Indices 1 2 3 4 5 6 
#
# 1 119.4149 20.8865 28.3749 0.0000 0.0000 0.0000
# 2 20.8865 119.0284 33.0695 0.0000 0.0000 0.0000
# 3 28.3749 33.0695 66.8608 0.0000 0.0000 0.0000
# 4 0.0000 0.0000 0.0000 30.2960 0.0000 0.0000
# 5 0.0000 0.0000 0.0000 0.0000 28.4688 0.0000
# 6 0.0000 0.0000 0.0000 0.0000 0.0000 -5.5494
#
#
#
# Elastic Compliance Matrix: (Units=1/GPa)
#
#
# Indices 1 2 3 4 5 6 
#
# 1 0.009353 -0.000624 -0.003661 0.000000 0.000000 0.000000
# 2 -0.000624 0.009781 -0.004573 0.000000 0.000000 0.000000
# 3 -0.003661 -0.004573 0.018772 0.000000 0.000000 0.000000
# 4 0.000000 0.000000 0.000000 0.033008 0.000000 0.000000
# 5 0.000000 0.000000 0.000000 0.000000 0.035126 0.000000
# 6 0.000000 0.000000 0.000000 0.000000 0.000000 -0.180199
#
#
# Mechanical properties :
#
#
# Convention : Reuss Voigt Hill
#
# Bulk Modulus (GPa) = 49.52781 52.21844 50.87312
# Shear Modulus (GPa) = -100.57795 25.50795 -37.53500
#
# Velocity S-wave (km/s) = -6.89210 3.47087 -4.21035
# Velocity P-wave (km/s) = 6.32010 6.38156 0.62476
#
# Compressibility (1/GPa) = 0.02019068
#
# Stress axis : x y z
#
# Youngs Moduli (GPa) = 106.91567 102.23484 53.27142
#
# Poissons Ratio (x) = 0.06382 0.19501
# Poissons Ratio (y) = 0.06674 0.24361
# Poissons Ratio (z) = 0.39138 0.46752
#
# Static dielectric constant tensor:
#      x y z
#    x 1.819560 0.000000 0.000000 
#    y 0.000000 1.803630 0.000000 
#    z 0.000000 0.000000 1.807240 
# 
# From -- ./inp_files/15992.got.cif
#   From: 2010.05.17/outbox.cif.g08.bks.cpg/sg64_8_cif.got.tgz:15992.got - 2010.06.03 16:29:19.
