data_PCOD9481718
_publ_section_title
;
Structure prediction by ZEFSAII (Michael W. Deem and Ramdas Pophale) SiO2 
 PCOD9481718
Probable space group: C M C A
;
_chemical_formula_sum "Si O2"
_cell_formula_units_Z 72
_cell_length_a 15.992465
_cell_length_b 16.883049
_cell_length_c 12.300972
_cell_angle_alpha 90.000000
_cell_angle_beta 90.000000
_cell_angle_gamma 90.000000
_cell_volume 3321.281755
_symmetry_space_group_name_H-M "C M C A"
_symmetry_group_IT_number 64
_symmetry_cell_setting 'orthorhombic'
loop_
_space_group_symop_operation_xyz
x,y,z
-x,1/2-y,1/2+z
x,-y,-z
-x,1/2+y,1/2-z
-x,-y,-z
x,1/2+y,1/2-z
-x,y,z
x,1/2-y,1/2+z
1/2+x,1/2+y,z
1/2-x,-y,1/2+z
1/2+x,1/2-y,-z
1/2-x,y,1/2-z
1/2-x,1/2-y,-z
1/2+x,y,1/2-z
1/2-x,1/2+y,z
1/2+x,-y,1/2+z
loop_
_atom_site_type_symbol
_atom_site_label
_atom_site_fract_x
_atom_site_fract_y
_atom_site_fract_z
Si Si1 0.408273 0.821891 0.774178
Si Si2 0.250000 0.427337 0.250000
Si Si3 0.803632 0.795974 0.092640
Si Si4 0.833637 0.543004 0.107714
Si Si5 0.138337 0.915831 0.942781
O O1 0.500000 0.785737 0.772801
O O2 0.339092 0.757484 0.809259
O O3 0.394537 0.885563 0.868752
O O4 0.396774 0.875210 0.666438
O O5 0.243072 0.369515 0.351880
O O6 0.175407 0.485338 0.212444
O O7 0.750000 0.750000 0.000000
O O8 0.874425 0.844633 0.028562
O O9 0.737741 0.571974 0.085242
O O10 0.861400 0.500000 0.000000
O O11 0.112482 0.000000 0.000000
#
# Coordination Sequence:
#
# PCOD9481718 Si02
#       5
#    16   8  16  16  16
#     4  12  26  41  62  98 141 172 209 275 347 403
#     4  12  20  36  70  96 116 164 234 278 316 374
#     4  12  23  38  65  97 131 174 220 278 328 398
#     4  11  20  40  66  97 119 161 228 279 322 385
#     4  11  21  44  70  96 126 175 235 273 317 403
#
# _framework density 21.678377000000001
#
# number of rings (size 3 to 8) (size 9 to 14) (size 15 to 20)
#    0.000    0.444    8.889    1.333    0.000    1.778 
#    0.000    3.333    0.000    0.000    0.000    0.000 
#    0.000    0.000    0.000    0.000    0.000    0.000 
#
# Total GULP energy -200419.167287 kJ/mol
# GULP energy per Si atom -5567.199091 kJ/mol
# Density = 2.162904 g / cm^3
# Si number density = 21.678377 Si / 1000 Ang^3
#
#
#
# Elastic Constant Matrix: (Units=GPa)
#
#
# Indices 1 2 3 4 5 6 
#
# 1 45.7025 16.9475 8.3680 0.0000 0.0000 0.0000
# 2 16.9475 104.6056 23.6688 0.0000 0.0000 0.0000
# 3 8.3680 23.6688 79.8967 0.0000 0.0000 0.0000
# 4 0.0000 0.0000 0.0000 55.3094 0.0000 0.0000
# 5 0.0000 0.0000 0.0000 0.0000 7.7018 0.0000
# 6 0.0000 0.0000 0.0000 0.0000 0.0000 6.4044
#
#
#
# Elastic Compliance Matrix: (Units=1/GPa)
#
#
# Indices 1 2 3 4 5 6 
#
# 1 0.023430 -0.003474 -0.001425 0.000000 0.000000 0.000000
# 2 -0.003474 0.010762 -0.002824 0.000000 0.000000 0.000000
# 3 -0.001425 -0.002824 0.013502 0.000000 0.000000 0.000000
# 4 0.000000 0.000000 0.000000 0.018080 0.000000 0.000000
# 5 0.000000 0.000000 0.000000 0.000000 0.129840 0.000000
# 6 0.000000 0.000000 0.000000 0.000000 0.000000 0.156144
#
#
# Mechanical properties :
#
#
# Convention : Reuss Voigt Hill
#
# Bulk Modulus (GPa) = 31.00978 36.46372 33.73675
# Shear Modulus (GPa) = 13.22921 25.96447 19.59684
#
# Velocity S-wave (km/s) = 2.47300 3.46455 3.00989
# Velocity P-wave (km/s) = 4.74235 5.73245 5.26074
#
# Compressibility (1/GPa) = 0.03224789
#
# Stress axis : x y z
#
# Youngs Moduli (GPa) = 42.68110 92.92381 74.06283
#
# Poissons Ratio (x) = 0.32277 0.10553
# Poissons Ratio (y) = 0.14825 0.20917
# Poissons Ratio (z) = 0.06082 0.26244
#
# Static dielectric constant tensor:
#      x y z
#    x 1.804960 0.000000 0.000000 
#    y 0.000000 1.844820 0.000000 
#    z 0.000000 0.000000 1.983480 
# 
# From -- ./inp_files/17028.got.cif
#   From: 2010.05.17/outbox.cif.g08.bks.cpg/sg64_9_cif.got.tgz:17028.got - 2010.06.03 16:29:19.
