data_PCOD9481865
_publ_section_title
;
Structure prediction by ZEFSAII (Michael W. Deem and Ramdas Pophale) SiO2 
 PCOD9481865
Probable space group: C M C A
;
_chemical_formula_sum "Si O2"
_cell_formula_units_Z 72
_cell_length_a 9.755288
_cell_length_b 23.630807
_cell_length_c 16.815859
_cell_angle_alpha 90.000000
_cell_angle_beta 90.000000
_cell_angle_gamma 90.000000
_cell_volume 3876.481411
_symmetry_space_group_name_H-M "C M C A"
_symmetry_group_IT_number 64
_symmetry_cell_setting 'orthorhombic'
loop_
_space_group_symop_operation_xyz
x,y,z
-x,1/2-y,1/2+z
x,-y,-z
-x,1/2+y,1/2-z
-x,-y,-z
x,1/2+y,1/2-z
-x,y,z
x,1/2-y,1/2+z
1/2+x,1/2+y,z
1/2-x,-y,1/2+z
1/2+x,1/2-y,-z
1/2-x,y,1/2-z
1/2-x,1/2-y,-z
1/2+x,y,1/2-z
1/2-x,1/2+y,z
1/2+x,-y,1/2+z
loop_
_atom_site_type_symbol
_atom_site_label
_atom_site_fract_x
_atom_site_fract_y
_atom_site_fract_z
Si Si1 0.723721 0.657076 0.574334
Si Si2 0.000000 0.477897 0.283283
Si Si3 0.778882 0.475422 0.419759
Si Si4 0.500000 0.214916 0.625507
Si Si5 0.000000 0.666603 0.059362
Si Si6 0.500000 0.539061 0.376058
Si Si7 0.500000 0.649065 0.709420
O O1 0.757065 0.590861 0.567764
O O2 0.630831 0.672786 0.498933
O O3 0.631177 0.661340 0.653975
O O4 0.863164 0.691752 0.582877
O O5 0.130261 0.481980 0.341135
O O6 0.000000 0.526922 0.217997
O O7 0.000000 0.416790 0.238257
O O8 0.843543 0.500000 0.500000
O O9 0.634960 0.507517 0.408345
O O10 0.500000 0.282575 0.621938
O O11 0.500000 0.187790 0.712989
O O12 0.000000 0.604238 0.097711
#
# Coordination Sequence:
#
# PCOD9481865 Si02
#       7
#    16   8  16   8   8   8   8
#     4  11  22  41  68  96 123 168 224 269 315 375
#     4  12  24  38  62  99 137 156 213 276 330 365
#     4  12  22  39  66  98 128 167 213 270 322 388
#     4  12  24  40  67  96 127 166 223 273 317 367
#     4  11  25  45  62  90 137 180 209 253 325 408
#     4  12  23  40  66  94 132 175 204 252 334 403
#     4  11  22  38  66  96 124 162 216 277 316 365
#
# _framework density 18.573544999999999
#
# number of rings (size 3 to 8) (size 9 to 14) (size 15 to 20)
#    0.000    0.444    6.667    3.333    0.000    0.000 
#    0.000    4.444    4.889    0.000    0.000    0.000 
#    0.000    0.000    0.000    0.000    0.000    0.000 
#
# Total GULP energy -201297.349251 kJ/mol
# GULP energy per Si atom -5591.593035 kJ/mol
# Density = 1.853127 g / cm^3
# Si number density = 18.573545 Si / 1000 Ang^3
#
#
#
# Elastic Constant Matrix: (Units=GPa)
#
#
# Indices 1 2 3 4 5 6 
#
# 1 114.3144 24.4157 23.6253 0.0000 0.0000 0.0000
# 2 24.4157 93.2863 25.2045 0.0000 0.0000 0.0000
# 3 23.6253 25.2045 91.3795 0.0000 0.0000 0.0000
# 4 0.0000 0.0000 0.0000 6.8042 0.0000 0.0000
# 5 0.0000 0.0000 0.0000 0.0000 131.4517 0.0000
# 6 0.0000 0.0000 0.0000 0.0000 0.0000 -12.7461
#
#
#
# Elastic Compliance Matrix: (Units=1/GPa)
#
#
# Indices 1 2 3 4 5 6 
#
# 1 0.009570 -0.001984 -0.001927 0.000000 0.000000 0.000000
# 2 -0.001984 0.011994 -0.002795 0.000000 0.000000 0.000000
# 3 -0.001927 -0.002795 0.012213 0.000000 0.000000 0.000000
# 4 0.000000 0.000000 0.000000 0.146968 0.000000 0.000000
# 5 0.000000 0.000000 0.000000 0.000000 0.007607 0.000000
# 6 0.000000 0.000000 0.000000 0.000000 0.000000 -0.078455
#
#
# Mechanical properties :
#
#
# Convention : Reuss Voigt Hill
#
# Bulk Modulus (GPa) = 49.10632 49.49680 49.30156
# Shear Modulus (GPa) = 38.43275 40.15095 39.29185
#
# Velocity S-wave (km/s) = 4.55380 4.65448 4.60442
# Velocity P-wave (km/s) = 7.35838 7.45604 7.40737
#
# Compressibility (1/GPa) = 0.02036398
#
# Stress axis : x y z
#
# Youngs Moduli (GPa) = 104.49536 83.37348 81.88280
#
# Poissons Ratio (x) = 0.16542 0.15778
# Poissons Ratio (y) = 0.20733 0.22889
# Poissons Ratio (z) = 0.20136 0.23306
#
# Static dielectric constant tensor:
#      x y z
#    x 1.670830 0.000000 0.000000 
#    y 0.000000 1.596680 0.000000 
#    z 0.000000 0.000000 1.646170 
# 
# From -- ./inp_files/29576.got.cif
#   From: 2010.05.17/outbox.cif.g08.bks.cpg/sg64_15_cif.got.tgz:29576.got - 2010.06.03 16:29:19.
