data_PCOD9481555
_publ_section_title
;
Structure prediction by ZEFSAII (Michael W. Deem and Ramdas Pophale) SiO2 
 PCOD9481555
Probable space group: C M C A
;
_chemical_formula_sum "Si O2"
_cell_formula_units_Z 72
_cell_length_a 26.104824
_cell_length_b 11.590346
_cell_length_c 10.017145
_cell_angle_alpha 90.000000
_cell_angle_beta 90.000000
_cell_angle_gamma 90.000000
_cell_volume 3030.826883
_symmetry_space_group_name_H-M "C M C A"
_symmetry_group_IT_number 64
_symmetry_cell_setting 'orthorhombic'
loop_
_space_group_symop_operation_xyz
x,y,z
-x,1/2-y,1/2+z
x,-y,-z
-x,1/2+y,1/2-z
-x,-y,-z
x,1/2+y,1/2-z
-x,y,z
x,1/2-y,1/2+z
1/2+x,1/2+y,z
1/2-x,-y,1/2+z
1/2+x,1/2-y,-z
1/2-x,y,1/2-z
1/2-x,1/2-y,-z
1/2+x,y,1/2-z
1/2-x,1/2+y,z
1/2+x,-y,1/2+z
loop_
_atom_site_type_symbol
_atom_site_label
_atom_site_fract_x
_atom_site_fract_y
_atom_site_fract_z
Si Si1 0.810023 0.500000 0.500000
Si Si2 0.388304 0.304870 0.086983
Si Si3 0.250000 0.961949 0.250000
Si Si4 0.584736 0.000000 0.000000
Si Si5 0.000000 0.361087 0.341236
Si Si6 0.000000 0.103562 0.330241
Si Si7 0.349858 0.153227 0.852660
O O1 0.848289 0.407279 0.439839
O O2 0.774999 0.466689 0.627802
O O3 0.446534 0.351482 0.077268
O O4 0.377401 0.272070 0.239968
O O5 0.363981 0.210895 0.991044
O O6 0.292331 0.879553 0.181150
O O7 0.618760 0.035704 0.873691
O O8 0.547268 0.905796 0.933695
O O9 0.000000 0.232775 0.266700
O O10 0.000000 0.482961 0.257164
#
# Coordination Sequence:
#
# PCOD9481555 Si02
#       7
#     8  16   8   8   8   8  16
#     4  10  25  47  69 106 143 197 255 336 390 478
#     4  11  26  43  71 107 154 194 258 315 401 460
#     4  10  24  46  74 102 142 198 270 318 410 462
#     4  11  21  42  71 102 151 204 257 311 400 464
#     4  12  24  47  74 117 159 212 254 322 390 486
#     4  11  24  42  76 107 159 213 262 314 395 480
#     4  11  24  44  72 105 145 202 252 327 387 477
#
# _framework density 23.755894999999999
#
# number of rings (size 3 to 8) (size 9 to 14) (size 15 to 20)
#    0.000    1.111    4.444    0.667    0.000   12.889 
#    0.000    0.000    0.000    0.000    0.000    0.000 
#    0.000    0.000    0.000    0.000    0.000    0.000 
#
# Total GULP energy -200619.668561 kJ/mol
# GULP energy per Si atom -5572.768571 kJ/mol
# Density = 2.370183 g / cm^3
# Si number density = 23.755895 Si / 1000 Ang^3
#
#
#
# Elastic Constant Matrix: (Units=GPa)
#
#
# Indices 1 2 3 4 5 6 
#
# 1 164.3230 8.8517 48.3979 0.0000 0.0000 0.0000
# 2 8.8517 66.6321 27.0051 0.0000 0.0000 0.0000
# 3 48.3979 27.0051 101.1870 0.0000 0.0000 0.0000
# 4 0.0000 0.0000 0.0000 46.6881 0.0000 0.0000
# 5 0.0000 0.0000 0.0000 0.0000 42.4022 0.0000
# 6 0.0000 0.0000 0.0000 0.0000 0.0000 3.4321
#
#
#
# Elastic Compliance Matrix: (Units=1/GPa)
#
#
# Indices 1 2 3 4 5 6 
#
# 1 0.007097 0.000485 -0.003524 0.000000 0.000000 0.000000
# 2 0.000485 0.016861 -0.004732 0.000000 0.000000 0.000000
# 3 -0.003524 -0.004732 0.012831 0.000000 0.000000 0.000000
# 4 0.000000 0.000000 0.000000 0.021419 0.000000 0.000000
# 5 0.000000 0.000000 0.000000 0.000000 0.023584 0.000000
# 6 0.000000 0.000000 0.000000 0.000000 0.000000 0.291367
#
#
# Mechanical properties :
#
#
# Convention : Reuss Voigt Hill
#
# Bulk Modulus (GPa) = 47.06332 55.62795 51.34564
# Shear Modulus (GPa) = 12.63317 35.03032 23.83174
#
# Velocity S-wave (km/s) = 2.30856 3.84421 3.17076
# Velocity P-wave (km/s) = 5.19232 6.57048 5.92163
#
# Compressibility (1/GPa) = 0.02124797
#
# Stress axis : x y z
#
# Youngs Moduli (GPa) = 140.89616 59.30791 77.93446
#
# Poissons Ratio (x) = -0.02879 0.27466
# Poissons Ratio (y) = -0.06840 0.36880
# Poissons Ratio (z) = 0.49656 0.28065
#
# Static dielectric constant tensor:
#      x y z
#    x 2.011460 0.000000 0.000000 
#    y 0.000000 2.127420 0.000000 
#    z 0.000000 0.000000 2.167820 
# 
# From -- ./inp_files/10082.got.cif
#   From: 2010.05.17/outbox.cif.g08.bks.cpg/sg64_6_cif.got.tgz:10082.got - 2010.06.03 16:29:19.
