data_PCOD9481947
_publ_section_title
;
Structure prediction by ZEFSAII (Michael W. Deem and Ramdas Pophale) SiO2 
 PCOD9481947
Probable space group: C M C A
;
_chemical_formula_sum "Si O2"
_cell_formula_units_Z 68
_cell_length_a 29.109253
_cell_length_b 4.957456
_cell_length_c 21.015835
_cell_angle_alpha 90.000000
_cell_angle_beta 90.000000
_cell_angle_gamma 90.000000
_cell_volume 3032.749774
_symmetry_space_group_name_H-M "C M C A"
_symmetry_group_IT_number 64
_symmetry_cell_setting 'orthorhombic'
loop_
_space_group_symop_operation_xyz
x,y,z
-x,1/2-y,1/2+z
x,-y,-z
-x,1/2+y,1/2-z
-x,-y,-z
x,1/2+y,1/2-z
-x,y,z
x,1/2-y,1/2+z
1/2+x,1/2+y,z
1/2-x,-y,1/2+z
1/2+x,1/2-y,-z
1/2-x,y,1/2-z
1/2-x,1/2-y,-z
1/2+x,y,1/2-z
1/2-x,1/2+y,z
1/2+x,-y,1/2+z
loop_
_atom_site_type_symbol
_atom_site_label
_atom_site_fract_x
_atom_site_fract_y
_atom_site_fract_z
Si Si1 0.633897 0.744957 0.954637
Si Si2 0.050867 0.103563 0.091983
Si Si3 0.500000 0.500000 0.500000
Si Si4 0.444299 0.548125 0.713565
Si Si5 0.276405 0.979305 0.922417
O O1 0.589391 0.615284 0.921611
O O2 0.674096 0.850453 0.908331
O O3 0.651602 0.500000 0.000000
O O4 0.625765 0.000000 0.000000
O O5 0.066329 0.303928 0.147895
O O6 0.000000 0.973101 0.107407
O O7 0.038377 0.702747 0.967091
O O8 0.428994 0.748250 0.770247
O O9 0.500000 0.539755 0.714000
O O10 0.236735 0.775400 0.900282
O O11 0.275481 0.000000 0.000000
#
# Coordination Sequence:
#
# PCOD9481947 Si02
#       5
#    16  16   4  16  16
#     4  11  23  34  52  78 112 154 192 228 282 351
#     4   9  21  40  58  78 120 152 200 233 287 353
#     4   8  20  44  56  80 114 168 182 230 286 358
#     4   9  18  36  60  78  97 136 193 252 293 322
#     4   9  16  31  50  72 101 141 188 234 276 330
#
# _framework density 22.421896
#
# number of rings (size 3 to 8) (size 9 to 14) (size 15 to 20)
#    0.706    1.882    0.000    3.529    1.647    2.824 
#    0.000    2.353    0.000    0.000    0.000    0.000 
#    0.000    5.647    0.000    0.000    0.000    0.000 
#
# Total GULP energy -189312.790273 kJ/mol
# GULP energy per Si atom -5568.023243 kJ/mol
# Density = 2.237086 g / cm^3
# Si number density = 22.421896 Si / 1000 Ang^3
#
#
#
# Elastic Constant Matrix: (Units=GPa)
#
#
# Indices 1 2 3 4 5 6 
#
# 1 100.0685 37.0524 11.5095 0.0000 0.0000 0.0000
# 2 37.0524 139.1961 18.8762 0.0000 0.0000 0.0000
# 3 11.5095 18.8762 45.9856 0.0000 0.0000 0.0000
# 4 0.0000 0.0000 0.0000 27.2260 0.0000 0.0000
# 5 0.0000 0.0000 0.0000 0.0000 -7.5476 0.0000
# 6 0.0000 0.0000 0.0000 0.0000 0.0000 30.2123
#
#
#
# Elastic Compliance Matrix: (Units=1/GPa)
#
#
# Indices 1 2 3 4 5 6 
#
# 1 0.011206 -0.002756 -0.001673 0.000000 0.000000 0.000000
# 2 -0.002756 0.008285 -0.002711 0.000000 0.000000 0.000000
# 3 -0.001673 -0.002711 0.023278 0.000000 0.000000 0.000000
# 4 0.000000 0.000000 0.000000 0.036730 0.000000 0.000000
# 5 0.000000 0.000000 0.000000 0.000000 -0.132493 0.000000
# 6 0.000000 0.000000 0.000000 0.000000 0.000000 0.033099
#
#
# Mechanical properties :
#
#
# Convention : Reuss Voigt Hill
#
# Bulk Modulus (GPa) = 35.10268 46.68072 40.89170
# Shear Modulus (GPa) = 1287.99792 24.49897 656.24844
#
# Velocity S-wave (km/s) = 23.99343 3.30909 17.12651
# Velocity P-wave (km/s) = 27.98694 5.95521 20.23281
#
# Compressibility (1/GPa) = 0.02848785
#
# Stress axis : x y z
#
# Youngs Moduli (GPa) = 89.23722 120.69450 42.95965
#
# Poissons Ratio (x) = 0.33263 0.07189
# Poissons Ratio (y) = 0.24594 0.11647
# Poissons Ratio (z) = 0.14933 0.32723
#
# Static dielectric constant tensor:
#      x y z
#    x 1.949320 0.000000 0.000000 
#    y 0.000000 1.878630 0.000000 
#    z 0.000000 0.000000 1.917270 
# 
# From -- ./inp_files/42034.got.cif
#   From: 2010.05.17/outbox.cif.g08.bks.cpg/sg64_22_cif.got.tgz:42034.got - 2010.06.03 16:29:19.
