data_PCOD9481900
_publ_section_title
;
Structure prediction by ZEFSAII (Michael W. Deem and Ramdas Pophale) SiO2 
 PCOD9481900
Probable space group: C M C A
;
_chemical_formula_sum "Si O2"
_cell_formula_units_Z 52
_cell_length_a 15.164498
_cell_length_b 19.627256
_cell_length_c 7.596718
_cell_angle_alpha 90.000000
_cell_angle_beta 90.000000
_cell_angle_gamma 90.000000
_cell_volume 2261.068035
_symmetry_space_group_name_H-M "C M C A"
_symmetry_group_IT_number 64
_symmetry_cell_setting 'orthorhombic'
loop_
_space_group_symop_operation_xyz
x,y,z
-x,1/2-y,1/2+z
x,-y,-z
-x,1/2+y,1/2-z
-x,-y,-z
x,1/2+y,1/2-z
-x,y,z
x,1/2-y,1/2+z
1/2+x,1/2+y,z
1/2-x,-y,1/2+z
1/2+x,1/2-y,-z
1/2-x,y,1/2-z
1/2-x,1/2-y,-z
1/2+x,y,1/2-z
1/2-x,1/2+y,z
1/2+x,-y,1/2+z
loop_
_atom_site_type_symbol
_atom_site_label
_atom_site_fract_x
_atom_site_fract_y
_atom_site_fract_z
Si Si1 0.397966 0.665718 0.719505
Si Si2 0.000000 0.000000 0.500000
Si Si3 0.348430 0.975649 0.304400
Si Si4 0.815042 0.296877 0.883292
O O1 0.500000 0.653937 0.746696
O O2 0.345719 0.607170 0.817623
O O3 0.374314 0.741632 0.781461
O O4 0.373737 0.659790 0.513762
O O5 0.078487 0.006317 0.656458
O O6 0.250000 0.998469 0.250000
O O7 0.371750 0.000000 0.500000
O O8 0.750000 0.334697 0.750000
O O9 0.750000 0.250000 0.000000
#
# Coordination Sequence:
#
# PCOD9481900 Si02
#       4
#    16   4  16  16
#     4  11  22  41  65  99 136 179 235 291 357 432
#     4  12  26  52  72 112 140 192 254 300 366 434
#     4  12  26  51  75 106 148 194 248 303 366 436
#     4   9  19  39  61  94 129 173 226 281 353 420
#
# _framework density 22.997983000000001
#
# number of rings (size 3 to 8) (size 9 to 14) (size 15 to 20)
#    0.000    1.231    3.077    4.154    0.000    0.000 
#   16.615    0.000    0.000    0.000    0.000    0.000 
#    0.000    0.000    0.000    0.000    0.000    0.000 
#
# Total GULP energy -144766.202995 kJ/mol
# GULP energy per Si atom -5567.930884 kJ/mol
# Density = 2.294564 g / cm^3
# Si number density = 22.997983 Si / 1000 Ang^3
#
#
#
# Elastic Constant Matrix: (Units=GPa)
#
#
# Indices 1 2 3 4 5 6 
#
# 1 158.6381 4.7255 43.9488 0.0000 0.0000 0.0000
# 2 4.7255 75.8927 31.2146 0.0000 0.0000 0.0000
# 3 43.9488 31.2146 147.7275 0.0000 0.0000 0.0000
# 4 0.0000 0.0000 0.0000 7.4285 0.0000 0.0000
# 5 0.0000 0.0000 0.0000 0.0000 40.0032 0.0000
# 6 0.0000 0.0000 0.0000 0.0000 0.0000 12.9091
#
#
#
# Elastic Compliance Matrix: (Units=1/GPa)
#
#
# Indices 1 2 3 4 5 6 
#
# 1 0.006884 0.000453 -0.002144 0.000000 0.000000 0.000000
# 2 0.000453 0.014460 -0.003190 0.000000 0.000000 0.000000
# 3 -0.002144 -0.003190 0.008081 0.000000 0.000000 0.000000
# 4 0.000000 0.000000 0.000000 0.134617 0.000000 0.000000
# 5 0.000000 0.000000 0.000000 0.000000 0.024998 0.000000
# 6 0.000000 0.000000 0.000000 0.000000 0.000000 0.077464
#
#
# Mechanical properties :
#
#
# Convention : Reuss Voigt Hill
#
# Bulk Modulus (GPa) = 50.85503 60.22622 55.54062
# Shear Modulus (GPa) = 17.67897 32.22613 24.95255
#
# Velocity S-wave (km/s) = 2.77559 3.74740 3.29749
# Velocity P-wave (km/s) = 5.69497 6.70585 6.22098
#
# Compressibility (1/GPa) = 0.01966374
#
# Stress axis : x y z
#
# Youngs Moduli (GPa) = 145.26323 69.15418 123.74588
#
# Poissons Ratio (x) = -0.03133 0.26528
# Poissons Ratio (y) = -0.06582 0.39478
# Poissons Ratio (z) = 0.31141 0.22062
#
# Static dielectric constant tensor:
#      x y z
#    x 1.833920 0.000000 0.000000 
#    y 0.000000 2.392740 0.000000 
#    z 0.000000 0.000000 1.302500 
# 
# From -- ./inp_files/5266.got.cif
#   From: 2010.05.17/outbox.cif.g08.bks.cpg/sg64_3_cif.got.tgz:5266.got - 2010.06.03 16:29:19.
