data_PCOD9481129
_publ_section_title
;
Structure prediction by ZEFSAII (Michael W. Deem and Ramdas Pophale) SiO2 
 PCOD9481129
Probable space group: C M C A
;
_chemical_formula_sum "Si O2"
_cell_formula_units_Z 68
_cell_length_a 26.833873
_cell_length_b 19.847604
_cell_length_c 5.186260
_cell_angle_alpha 90.000000
_cell_angle_beta 90.000000
_cell_angle_gamma 90.000000
_cell_volume 2762.140282
_symmetry_space_group_name_H-M "C M C A"
_symmetry_group_IT_number 64
_symmetry_cell_setting 'orthorhombic'
loop_
_space_group_symop_operation_xyz
x,y,z
-x,1/2-y,1/2+z
x,-y,-z
-x,1/2+y,1/2-z
-x,-y,-z
x,1/2+y,1/2-z
-x,y,z
x,1/2-y,1/2+z
1/2+x,1/2+y,z
1/2-x,-y,1/2+z
1/2+x,1/2-y,-z
1/2-x,y,1/2-z
1/2-x,1/2-y,-z
1/2+x,y,1/2-z
1/2-x,1/2+y,z
1/2+x,-y,1/2+z
loop_
_atom_site_type_symbol
_atom_site_label
_atom_site_fract_x
_atom_site_fract_y
_atom_site_fract_z
Si Si1 0.750000 0.942139 0.250000
Si Si2 0.500000 0.500000 0.000000
Si Si3 0.250000 0.149171 0.250000
Si Si4 0.163538 0.500000 0.500000
Si Si5 0.642458 0.291652 0.611741
Si Si6 0.580771 0.603671 0.099472
Si Si7 0.000000 0.202600 0.874096
O O1 0.742546 0.894553 0.494257
O O2 0.701408 0.989190 0.263902
O O3 0.543301 0.457366 0.841791
O O4 0.300517 0.188639 0.178349
O O5 0.129079 0.565730 0.508496
O O6 0.633989 0.266494 0.323875
O O7 0.603630 0.350868 0.674982
O O8 0.547204 0.653023 0.921613
O O9 0.000000 0.258676 0.102532
#
# Coordination Sequence:
#
# PCOD9481129 Si02
#       7
#     8   4   8   8  16  16   8
#     4  12  25  47  68 104 148 199 241 294 354 420
#     4   8  20  44  76 102 144 174 240 302 366 422
#     4  12  25  47  68 102 152 193 243 294 350 424
#     4  11  24  45  74 106 148 195 242 295 352 434
#     4  12  25  44  70 105 142 189 238 289 352 426
#     4  10  22  44  75 106 141 186 240 296 365 428
#     4  11  24  49  76 105 142 182 234 304 366 427
#
# _framework density 24.618590999999999
#
# number of rings (size 3 to 8) (size 9 to 14) (size 15 to 20)
#    0.000    0.941    2.353    4.235    0.000    0.000 
#    0.000    0.000    0.000    8.471    0.000    0.000 
#    0.000    0.000    0.000    0.000    0.000    0.000 
#
# Total GULP energy -189579.773354 kJ/mol
# GULP energy per Si atom -5575.875687 kJ/mol
# Density = 2.456256 g / cm^3
# Si number density = 24.618591 Si / 1000 Ang^3
#
#
#
# Elastic Constant Matrix: (Units=GPa)
#
#
# Indices 1 2 3 4 5 6 
#
# 1 190.7392 51.0931 19.2494 0.0000 0.0000 0.0000
# 2 51.0931 93.2563 18.8346 0.0000 0.0000 0.0000
# 3 19.2494 18.8346 81.5048 0.0000 0.0000 0.0000
# 4 0.0000 0.0000 0.0000 10.5243 0.0000 0.0000
# 5 0.0000 0.0000 0.0000 0.0000 16.2745 0.0000
# 6 0.0000 0.0000 0.0000 0.0000 0.0000 82.5778
#
#
#
# Elastic Compliance Matrix: (Units=1/GPa)
#
#
# Indices 1 2 3 4 5 6 
#
# 1 0.006184 -0.003244 -0.000711 0.000000 0.000000 0.000000
# 2 -0.003244 0.012950 -0.002226 0.000000 0.000000 0.000000
# 3 -0.000711 -0.002226 0.012952 0.000000 0.000000 0.000000
# 4 0.000000 0.000000 0.000000 0.095018 0.000000 0.000000
# 5 0.000000 0.000000 0.000000 0.000000 0.061446 0.000000
# 6 0.000000 0.000000 0.000000 0.000000 0.000000 0.012110
#
#
# Mechanical properties :
#
#
# Convention : Reuss Voigt Hill
#
# Bulk Modulus (GPa) = 50.70325 60.42827 55.56576
# Shear Modulus (GPa) = 22.76905 40.29685 31.53295
#
# Velocity S-wave (km/s) = 3.04447 4.05018 3.58279
# Velocity P-wave (km/s) = 5.74444 6.81697 6.30356
#
# Compressibility (1/GPa) = 0.01972260
#
# Stress axis : x y z
#
# Youngs Moduli (GPa) = 161.71999 77.21846 77.21086
#
# Poissons Ratio (x) = 0.25052 0.05487
# Poissons Ratio (y) = 0.52467 0.17190
# Poissons Ratio (z) = 0.11493 0.17192
#
# Static dielectric constant tensor:
#      x y z
#    x 1.975970 0.000000 0.000000 
#    y 0.000000 2.057530 0.000000 
#    z 0.000000 0.000000 1.932530 
# 
# From -- ./inp_files/2789.got.cif
#   From: 2010.05.17/outbox.cif.g08.bks.cpg/sg64_2_cif.got.tgz:2789.got - 2010.06.03 16:29:19.
