data_PCOD9481070
_publ_section_title
;
Structure prediction by ZEFSAII (Michael W. Deem and Ramdas Pophale) SiO2 
 PCOD9481070
Probable space group: C M C A
;
_chemical_formula_sum "Si O2"
_cell_formula_units_Z 64
_cell_length_a 15.864158
_cell_length_b 12.254396
_cell_length_c 14.764437
_cell_angle_alpha 90.000000
_cell_angle_beta 90.000000
_cell_angle_gamma 90.000000
_cell_volume 2870.290331
_symmetry_space_group_name_H-M "C M C A"
_symmetry_group_IT_number 64
_symmetry_cell_setting 'orthorhombic'
loop_
_space_group_symop_operation_xyz
x,y,z
-x,1/2-y,1/2+z
x,-y,-z
-x,1/2+y,1/2-z
-x,-y,-z
x,1/2+y,1/2-z
-x,y,z
x,1/2-y,1/2+z
1/2+x,1/2+y,z
1/2-x,-y,1/2+z
1/2+x,1/2-y,-z
1/2-x,y,1/2-z
1/2-x,1/2-y,-z
1/2+x,y,1/2-z
1/2-x,1/2+y,z
1/2+x,-y,1/2+z
loop_
_atom_site_type_symbol
_atom_site_label
_atom_site_fract_x
_atom_site_fract_y
_atom_site_fract_z
Si Si1 0.717452 0.551429 0.851253
Si Si2 0.598538 0.265152 0.659672
Si Si3 0.904470 0.358355 0.640343
Si Si4 0.331286 0.324944 0.479869
O O1 0.750000 0.529855 0.750000
O O2 0.656110 0.657094 0.845275
O O3 0.663032 0.449737 0.885586
O O4 0.794595 0.580116 0.917267
O O5 0.500000 0.236365 0.652025
O O6 0.611356 0.323135 0.755916
O O7 0.625149 0.342508 0.576351
O O8 0.892246 0.251514 0.579581
O O9 0.000000 0.399650 0.632060
O O10 0.250000 0.250000 0.500000
#
# Coordination Sequence:
#
# PCOD9481070 Si02
#       4
#    16  16  16  16
#     4  11  23  40  67  97 132 171 226 272 328 390
#     4  10  22  43  68  98 134 175 220 274 335 394
#     4  11  24  44  68  95 135 180 222 271 334 401
#     4  10  23  41  65 100 131 170 217 282 326 388
#
# _framework density 22.297395999999999
#
# number of rings (size 3 to 8) (size 9 to 14) (size 15 to 20)
#    0.000    1.500    2.500    1.500    7.000    4.000 
#    0.000    6.250    0.000    3.000    0.000    0.000 
#    0.000    0.000    0.000    0.000    0.000    0.000 
#
# Total GULP energy -179114.480677 kJ/mol
# GULP energy per Si atom -5597.327521 kJ/mol
# Density = 2.224665 g / cm^3
# Si number density = 22.297396 Si / 1000 Ang^3
#
#
#
# Elastic Constant Matrix: (Units=GPa)
#
#
# Indices 1 2 3 4 5 6 
#
# 1 57.9102 32.1608 5.1033 0.0000 0.0000 0.0000
# 2 32.1608 79.0458 2.8679 0.0000 0.0000 0.0000
# 3 5.1033 2.8679 101.4663 0.0000 0.0000 0.0000
# 4 0.0000 0.0000 0.0000 15.8530 0.0000 0.0000
# 5 0.0000 0.0000 0.0000 0.0000 19.1837 0.0000
# 6 0.0000 0.0000 0.0000 0.0000 0.0000 39.8868
#
#
#
# Elastic Compliance Matrix: (Units=1/GPa)
#
#
# Indices 1 2 3 4 5 6 
#
# 1 0.022385 -0.009076 -0.000869 0.000000 0.000000 0.000000
# 2 -0.009076 0.016344 -0.000005 0.000000 0.000000 0.000000
# 3 -0.000869 -0.000005 0.009899 0.000000 0.000000 0.000000
# 4 0.000000 0.000000 0.000000 0.063080 0.000000 0.000000
# 5 0.000000 0.000000 0.000000 0.000000 0.052128 0.000000
# 6 0.000000 0.000000 0.000000 0.000000 0.000000 0.025071
#
#
# Mechanical properties :
#
#
# Convention : Reuss Voigt Hill
#
# Bulk Modulus (GPa) = 34.81109 35.40960 35.11035
# Shear Modulus (GPa) = 22.89543 28.20404 25.54974
#
# Velocity S-wave (km/s) = 3.20788 3.56041 3.38873
# Velocity P-wave (km/s) = 5.41911 5.72862 5.57601
#
# Compressibility (1/GPa) = 0.02872648
#
# Stress axis : x y z
#
# Youngs Moduli (GPa) = 44.67230 61.18502 101.01654
#
# Poissons Ratio (x) = 0.55533 0.08782
# Poissons Ratio (y) = 0.40545 0.00055
# Poissons Ratio (z) = 0.03884 0.00033
#
# Static dielectric constant tensor:
#      x y z
#    x 1.864560 0.000000 0.000000 
#    y 0.000000 1.842820 0.000000 
#    z 0.000000 0.000000 1.823420 
# 
# From -- ./inp_files/23236.got.cif
#   From: 2010.05.17/outbox.cif.g08.bks.cpg/sg64_12_cif.got.tgz:23236.got - 2010.06.03 16:29:19.
