data_PCOD9481877
_publ_section_title
;
Structure prediction by ZEFSAII (Michael W. Deem and Ramdas Pophale) SiO2 
 PCOD9481877
Probable space group: C M C A
;
_chemical_formula_sum "Si O2"
_cell_formula_units_Z 112
_cell_length_a 14.791291
_cell_length_b 23.797229
_cell_length_c 14.487515
_cell_angle_alpha 90.000000
_cell_angle_beta 90.000000
_cell_angle_gamma 90.000000
_cell_volume 5099.485601
_symmetry_space_group_name_H-M "C M C A"
_symmetry_group_IT_number 64
_symmetry_cell_setting 'orthorhombic'
loop_
_space_group_symop_operation_xyz
x,y,z
-x,1/2-y,1/2+z
x,-y,-z
-x,1/2+y,1/2-z
-x,-y,-z
x,1/2+y,1/2-z
-x,y,z
x,1/2-y,1/2+z
1/2+x,1/2+y,z
1/2-x,-y,1/2+z
1/2+x,1/2-y,-z
1/2-x,y,1/2-z
1/2-x,1/2-y,-z
1/2+x,y,1/2-z
1/2-x,1/2+y,z
1/2+x,-y,1/2+z
loop_
_atom_site_type_symbol
_atom_site_label
_atom_site_fract_x
_atom_site_fract_y
_atom_site_fract_z
Si Si1 0.600779 0.242116 0.240729
Si Si2 0.707680 0.073325 0.940276
Si Si3 0.104675 0.972049 0.621173
Si Si4 0.895027 0.892512 0.993238
Si Si5 0.901498 0.181023 0.582280
Si Si6 0.657910 0.266406 0.050793
Si Si7 0.144910 0.386006 0.722843
O O1 0.500000 0.256808 0.206734
O O2 0.611469 0.273573 0.337249
O O3 0.666617 0.262123 0.160338
O O4 0.607711 0.175897 0.256041
O O5 0.676508 0.135379 0.913797
O O6 0.666023 0.027825 0.870589
O O7 0.654573 0.060241 0.036549
O O8 0.815410 0.072847 0.955323
O O9 0.105395 0.933358 0.710758
O O10 0.000000 0.985225 0.599705
O O11 0.874080 0.898087 0.884241
O O12 0.000000 0.907230 0.011952
O O13 0.879028 0.826848 0.019841
O O14 0.902298 0.214930 0.486605
O O15 0.000000 0.153388 0.595017
O O16 0.750000 0.250000 0.000000
O O17 0.250000 0.384036 0.750000
#
# Coordination Sequence:
#
# PCOD9481877 Si02
#       7
#    16  16  16  16  16  16  16
#     4  11  24  39  65 103 140 184 234 285 352 425
#     4  11  23  43  68 101 134 176 233 292 357 415
#     4  11  23  43  73 100 132 176 235 302 352 405
#     4  12  24  43  68 100 145 189 231 286 356 434
#     4  11  22  39  65 101 142 180 229 288 349 418
#     4  12  23  41  63  98 144 193 231 282 349 420
#     4  12  23  42  68 103 139 177 236 291 344 422
#
# _framework density 21.962999
#
# number of rings (size 3 to 8) (size 9 to 14) (size 15 to 20)
#    0.000    0.571    4.286    6.000    0.000    0.000 
#    0.000    2.857    0.000    1.714    0.000    0.000 
#    0.000    0.000    0.000    0.000    0.000    0.000 
#
# Total GULP energy -313189.911285 kJ/mol
# GULP energy per Si atom -5592.676987 kJ/mol
# Density = 2.191301 g / cm^3
# Si number density = 21.962999 Si / 1000 Ang^3
#
#
#
# Elastic Constant Matrix: (Units=GPa)
#
#
# Indices 1 2 3 4 5 6 
#
# 1 185.4168 25.8660 3.0388 0.0000 0.0000 0.0000
# 2 25.8660 102.0465 23.3581 0.0000 0.0000 0.0000
# 3 3.0388 23.3581 56.5076 0.0000 0.0000 0.0000
# 4 0.0000 0.0000 0.0000 34.9290 0.0000 0.0000
# 5 0.0000 0.0000 0.0000 0.0000 28.9469 0.0000
# 6 0.0000 0.0000 0.0000 0.0000 0.0000 26.6505
#
#
#
# Elastic Compliance Matrix: (Units=1/GPa)
#
#
# Indices 1 2 3 4 5 6 
#
# 1 0.005596 -0.001491 0.000315 0.000000 0.000000 0.000000
# 2 -0.001491 0.011221 -0.004558 0.000000 0.000000 0.000000
# 3 0.000315 -0.004558 0.019564 0.000000 0.000000 0.000000
# 4 0.000000 0.000000 0.000000 0.028630 0.000000 0.000000
# 5 0.000000 0.000000 0.000000 0.000000 0.034546 0.000000
# 6 0.000000 0.000000 0.000000 0.000000 0.000000 0.037523
#
#
# Mechanical properties :
#
#
# Convention : Reuss Voigt Hill
#
# Bulk Modulus (GPa) = 40.13845 49.83294 44.98570
# Shear Modulus (GPa) = 31.87756 37.55248 34.71502
#
# Velocity S-wave (km/s) = 3.81388 4.13947 3.98001
# Velocity P-wave (km/s) = 6.14080 6.75172 6.45349
#
# Compressibility (1/GPa) = 0.02491377
#
# Stress axis : x y z
#
# Youngs Moduli (GPa) = 178.69816 89.12189 51.11455
#
# Poissons Ratio (x) = 0.13284 -0.01611
# Poissons Ratio (y) = 0.26637 0.23298
# Poissons Ratio (z) = -0.05633 0.40622
#
# Static dielectric constant tensor:
#      x y z
#    x 1.910230 0.000000 0.000000 
#    y 0.000000 1.798180 0.000000 
#    z 0.000000 0.000000 1.775870 
# 
# From -- ./inp_files/24261.got.cif
#   From: 2010.05.17/outbox.cif.g08.bks.cpg/sg64_13_cif.got.tgz:24261.got - 2010.06.03 16:29:19.
