data_PCOD9481369
_publ_section_title
;
Structure prediction by ZEFSAII (Michael W. Deem and Ramdas Pophale) SiO2 
 PCOD9481369
Probable space group: C M C A
;
_chemical_formula_sum "Si O2"
_cell_formula_units_Z 96
_cell_length_a 14.405758
_cell_length_b 20.483496
_cell_length_c 13.819161
_cell_angle_alpha 90.000000
_cell_angle_beta 90.000000
_cell_angle_gamma 90.000000
_cell_volume 4077.761985
_symmetry_space_group_name_H-M "C M C A"
_symmetry_group_IT_number 64
_symmetry_cell_setting 'orthorhombic'
loop_
_space_group_symop_operation_xyz
x,y,z
-x,1/2-y,1/2+z
x,-y,-z
-x,1/2+y,1/2-z
-x,-y,-z
x,1/2+y,1/2-z
-x,y,z
x,1/2-y,1/2+z
1/2+x,1/2+y,z
1/2-x,-y,1/2+z
1/2+x,1/2-y,-z
1/2-x,y,1/2-z
1/2-x,1/2-y,-z
1/2+x,y,1/2-z
1/2-x,1/2+y,z
1/2+x,-y,1/2+z
loop_
_atom_site_type_symbol
_atom_site_label
_atom_site_fract_x
_atom_site_fract_y
_atom_site_fract_z
Si Si1 0.106595 0.423148 0.622952
Si Si2 0.356950 0.944893 0.278998
Si Si3 0.102555 0.941149 0.430885
Si Si4 0.108655 0.333732 0.810544
Si Si5 0.605678 0.304173 0.130744
Si Si6 0.253609 0.350335 0.506871
O O1 0.119028 0.498714 0.646314
O O2 0.129602 0.379202 0.718582
O O3 0.176603 0.401943 0.540678
O O4 0.000000 0.409381 0.597617
O O5 0.250000 0.946789 0.250000
O O6 0.404476 0.964273 0.178480
O O7 0.383998 0.873766 0.317314
O O8 0.174739 0.882216 0.432182
O O9 0.000000 0.921036 0.464398
O O10 0.134075 0.000000 0.500000
O O11 0.115263 0.255628 0.793636
O O12 0.180096 0.342518 0.899146
O O13 0.000000 0.347059 0.835599
O O14 0.500000 0.298972 0.090557
O O15 0.686800 0.299105 0.049234
#
# Coordination Sequence:
#
# PCOD9481369 Si02
#       6
#    16  16  16  16  16  16
#     4  11  24  43  70  97 133 178 224 272 333 404
#     4  12  23  43  68  99 134 179 222 273 335 400
#     4  11  23  40  64  96 133 173 223 278 327 387
#     4  10  23  45  68  95 132 180 227 277 333 400
#     4  11  25  44  66  97 140 175 220 281 341 402
#     4  12  23  41  66  99 131 173 227 271 337 395
#
# _framework density 23.542325000000002
#
# number of rings (size 3 to 8) (size 9 to 14) (size 15 to 20)
#    0.000    0.833    1.667    6.500    0.000    4.000 
#    3.000    1.667    0.000    0.000    0.000    0.000 
#    0.000    0.000    0.000    0.000    0.000    0.000 
#
# Total GULP energy -268313.720852 kJ/mol
# GULP energy per Si atom -5589.869184 kJ/mol
# Density = 2.348874 g / cm^3
# Si number density = 23.542325 Si / 1000 Ang^3
#
#
#
# Elastic Constant Matrix: (Units=GPa)
#
#
# Indices 1 2 3 4 5 6 
#
# 1 139.7076 10.0970 3.3402 0.0000 0.0000 0.0000
# 2 10.0970 81.9013 8.2150 0.0000 0.0000 0.0000
# 3 3.3402 8.2150 42.3265 0.0000 0.0000 0.0000
# 4 0.0000 0.0000 0.0000 37.6357 0.0000 0.0000
# 5 0.0000 0.0000 0.0000 0.0000 -82.1037 0.0000
# 6 0.0000 0.0000 0.0000 0.0000 0.0000 -6.6651
#
#
#
# Elastic Compliance Matrix: (Units=1/GPa)
#
#
# Indices 1 2 3 4 5 6 
#
# 1 0.007229 -0.000851 -0.000405 0.000000 0.000000 0.000000
# 2 -0.000851 0.012552 -0.002369 0.000000 0.000000 0.000000
# 3 -0.000405 -0.002369 0.024118 0.000000 0.000000 0.000000
# 4 0.000000 0.000000 0.000000 0.026571 0.000000 0.000000
# 5 0.000000 0.000000 0.000000 0.000000 -0.012180 0.000000
# 6 0.000000 0.000000 0.000000 0.000000 0.000000 -0.150036
#
#
# Mechanical properties :
#
#
# Convention : Reuss Voigt Hill
#
# Bulk Modulus (GPa) = 27.28599 34.13775 30.71187
# Shear Modulus (GPa) = -69.17601 5.92560 -31.62520
#
# Velocity S-wave (km/s) = -5.42655 1.58823 -3.66913
# Velocity P-wave (km/s) = 5.25813 4.23029 2.20823
#
# Compressibility (1/GPa) = 0.03664885
#
# Stress axis : x y z
#
# Youngs Moduli (GPa) = 138.33232 79.66664 41.46337
#
# Poissons Ratio (x) = 0.06776 0.01681
# Poissons Ratio (y) = 0.11766 0.09823
# Poissons Ratio (z) = 0.05608 0.18874
#
# Static dielectric constant tensor:
#      x y z
#    x 1.910330 0.000000 0.000000 
#    y 0.000000 1.937090 0.000000 
#    z 0.000000 0.000000 1.885060 
# 
# From -- ./inp_files/23920.got.cif
#   From: 2010.05.17/outbox.cif.g08.bks.cpg/sg64_12_cif.got.tgz:23920.got - 2010.06.03 16:29:19.
