data_PCOD9481652
_publ_section_title
;
Structure prediction by ZEFSAII (Michael W. Deem and Ramdas Pophale) SiO2 
 PCOD9481652
Probable space group: C M C A
;
_chemical_formula_sum "Si O2"
_cell_formula_units_Z 88
_cell_length_a 14.212636
_cell_length_b 13.901010
_cell_length_c 21.868609
_cell_angle_alpha 90.000000
_cell_angle_beta 90.000000
_cell_angle_gamma 90.000000
_cell_volume 4320.580974
_symmetry_space_group_name_H-M "C M C A"
_symmetry_group_IT_number 64
_symmetry_cell_setting 'orthorhombic'
loop_
_space_group_symop_operation_xyz
x,y,z
-x,1/2-y,1/2+z
x,-y,-z
-x,1/2+y,1/2-z
-x,-y,-z
x,1/2+y,1/2-z
-x,y,z
x,1/2-y,1/2+z
1/2+x,1/2+y,z
1/2-x,-y,1/2+z
1/2+x,1/2-y,-z
1/2-x,y,1/2-z
1/2-x,1/2-y,-z
1/2+x,y,1/2-z
1/2-x,1/2+y,z
1/2+x,-y,1/2+z
loop_
_atom_site_type_symbol
_atom_site_label
_atom_site_fract_x
_atom_site_fract_y
_atom_site_fract_z
Si Si1 0.811781 0.500000 0.500000
Si Si2 0.889752 0.154373 0.913963
Si Si3 0.843220 0.846271 0.532550
Si Si4 0.142504 0.635168 0.730137
Si Si5 0.000000 0.036555 0.245474
Si Si6 0.000000 0.850544 0.428329
Si Si7 0.000000 0.237061 0.193640
Si Si8 0.500000 0.565976 0.382040
O O1 0.870058 0.552870 0.553176
O O2 0.744548 0.583536 0.473780
O O3 0.827979 0.236905 0.946596
O O4 0.868121 0.154256 0.842129
O O5 0.000000 0.178910 0.922677
O O6 0.908196 0.846854 0.471665
O O7 0.909461 0.891381 0.584883
O O8 0.250000 0.630302 0.750000
O O9 0.088912 0.534355 0.741276
O O10 0.088413 0.715292 0.770533
O O11 0.000000 0.122392 0.197530
O O12 0.000000 0.087401 0.311037
O O13 0.000000 0.770453 0.376408
O O14 0.000000 0.951922 0.393180
#
# Coordination Sequence:
#
# PCOD9481652 Si02
#       8
#     8  16  16  16   8   8   8   8
#     4  12  27  39  70 106 132 170 234 281 333 394
#     4  12  25  49  66  95 146 181 217 275 356 411
#     4  11  23  43  71 101 127 180 225 280 337 399
#     4  11  26  47  67  98 139 182 227 281 336 413
#     4  11  24  44  73 100 133 180 223 279 349 393
#     4  11  20  38  76  97 136 167 233 280 333 392
#     4  11  24  45  71 102 134 177 233 281 339 409
#     4  11  18  39  74  92 133 168 228 277 334 390
#
# _framework density 20.367632
#
# number of rings (size 3 to 8) (size 9 to 14) (size 15 to 20)
#    0.000    0.727    7.273    2.455    5.091    2.182 
#    3.273    0.000    0.000    0.000    0.000    0.000 
#    0.000    0.000    0.000    0.000    0.000    0.000 
#
# Total GULP energy -246097.143343 kJ/mol
# GULP energy per Si atom -5593.116894 kJ/mol
# Density = 2.032127 g / cm^3
# Si number density = 20.367632 Si / 1000 Ang^3
#
#
#
# Elastic Constant Matrix: (Units=GPa)
#
#
# Indices 1 2 3 4 5 6 
#
# 1 98.7896 31.2144 4.8867 0.0000 0.0000 0.0000
# 2 31.2144 74.8533 7.6809 0.0000 0.0000 0.0000
# 3 4.8867 7.6809 73.1703 0.0000 0.0000 0.0000
# 4 0.0000 0.0000 0.0000 39.7165 0.0000 0.0000
# 5 0.0000 0.0000 0.0000 0.0000 -5.0719 0.0000
# 6 0.0000 0.0000 0.0000 0.0000 0.0000 -8.9859
#
#
#
# Elastic Compliance Matrix: (Units=1/GPa)
#
#
# Indices 1 2 3 4 5 6 
#
# 1 0.011664 -0.004836 -0.000271 0.000000 0.000000 0.000000
# 2 -0.004836 0.015510 -0.001305 0.000000 0.000000 0.000000
# 3 -0.000271 -0.001305 0.013822 0.000000 0.000000 0.000000
# 4 0.000000 0.000000 0.000000 0.025178 0.000000 0.000000
# 5 0.000000 0.000000 0.000000 0.000000 -0.197164 0.000000
# 6 0.000000 0.000000 0.000000 0.000000 0.000000 -0.111285
#
#
# Mechanical properties :
#
#
# Convention : Reuss Voigt Hill
#
# Bulk Modulus (GPa) = 35.49782 37.15302 36.32542
# Shear Modulus (GPa) = -22.72118 18.66714 -2.02702
#
# Velocity S-wave (km/s) = -3.34361 3.03068 -0.99869
# Velocity P-wave (km/s) = 1.60001 5.52517 4.06740
#
# Compressibility (1/GPa) = 0.02817075
#
# Stress axis : x y z
#
# Youngs Moduli (GPa) = 85.73379 64.47415 72.34908
#
# Poissons Ratio (x) = 0.31181 0.01963
# Poissons Ratio (y) = 0.41462 0.09443
# Poissons Ratio (z) = 0.02326 0.08415
#
# Static dielectric constant tensor:
#      x y z
#    x 1.702180 0.000000 0.000000 
#    y 0.000000 1.731840 0.000000 
#    z 0.000000 0.000000 1.701200 
# 
# From -- ./inp_files/39126.got.cif
#   From: 2010.05.17/outbox.cif.g08.bks.cpg/sg64_20_cif.got.tgz:39126.got - 2010.06.03 16:29:19.
