data_PCOD9481184
_publ_section_title
;
Structure prediction by ZEFSAII (Michael W. Deem and Ramdas Pophale) SiO2 
 PCOD9481184
Probable space group: C M C A
;
_chemical_formula_sum "Si O2"
_cell_formula_units_Z 116
_cell_length_a 26.282545
_cell_length_b 12.053916
_cell_length_c 17.381643
_cell_angle_alpha 90.000000
_cell_angle_beta 90.000000
_cell_angle_gamma 90.000000
_cell_volume 5506.636424
_symmetry_space_group_name_H-M "C M C A"
_symmetry_group_IT_number 64
_symmetry_cell_setting 'orthorhombic'
loop_
_space_group_symop_operation_xyz
x,y,z
-x,1/2-y,1/2+z
x,-y,-z
-x,1/2+y,1/2-z
-x,-y,-z
x,1/2+y,1/2-z
-x,y,z
x,1/2-y,1/2+z
1/2+x,1/2+y,z
1/2-x,-y,1/2+z
1/2+x,1/2-y,-z
1/2-x,y,1/2-z
1/2-x,1/2-y,-z
1/2+x,y,1/2-z
1/2-x,1/2+y,z
1/2+x,-y,1/2+z
loop_
_atom_site_type_symbol
_atom_site_label
_atom_site_fract_x
_atom_site_fract_y
_atom_site_fract_z
Si Si1 0.414563 0.890694 0.081692
Si Si2 0.559008 0.154516 0.447936
Si Si3 0.210696 0.900723 0.943404
Si Si4 0.000000 0.500000 0.000000
Si Si5 0.058040 0.421602 0.793302
Si Si6 0.177630 0.163139 0.487088
Si Si7 0.097745 0.275506 0.385527
Si Si8 0.371464 0.514365 0.154651
O O1 0.424345 0.762841 0.102249
O O2 0.431938 0.981314 0.143549
O O3 0.455191 0.908313 0.013455
O O4 0.357422 0.900861 0.049491
O O5 0.500000 0.130199 0.437155
O O6 0.570589 0.181304 0.536882
O O7 0.594308 0.057994 0.416122
O O8 0.271335 0.890672 0.954220
O O9 0.184614 0.937077 0.863376
O O10 0.190688 0.781329 0.972164
O O11 0.194449 0.000000 0.000000
O O12 0.063063 0.300764 0.831812
O O13 0.100786 0.437869 0.729338
O O14 0.000000 0.436316 0.764732
O O15 0.141497 0.193706 0.416412
O O16 0.123233 0.381475 0.344633
#
# Coordination Sequence:
#
# PCOD9481184 Si02
#       8
#    16  16  16   4  16  16  16  16
#     4  11  22  39  65 102 138 178 231 289 349 414
#     4  11  21  38  68  98 132 178 234 292 344 414
#     4  11  21  43  70 104 131 175 233 302 355 410
#     4  12  20  36  68  96 142 176 226 308 334 398
#     4  12  28  43  66 100 152 199 230 283 361 439
#     4  10  23  39  75 103 131 171 236 305 353 398
#     4  11  24  44  67  99 133 178 240 295 344 422
#     4  12  25  45  65  97 146 187 230 290 358 435
#
# _framework density 21.06549
#
# number of rings (size 3 to 8) (size 9 to 14) (size 15 to 20)
#    0.000    0.828    5.517    2.897    4.828    2.759 
#    0.000    0.690    0.000    1.655    0.000    0.000 
#    0.000    0.000    0.000    0.000    0.000    0.000 
#
# Total GULP energy -323402.187572 kJ/mol
# GULP energy per Si atom -5575.899786 kJ/mol
# Density = 2.101754 g / cm^3
# Si number density = 21.065490 Si / 1000 Ang^3
#
#
#
# Elastic Constant Matrix: (Units=GPa)
#
#
# Indices 1 2 3 4 5 6 
#
# 1 142.1967 14.7319 13.7763 0.0000 0.0000 0.0000
# 2 14.7319 95.0937 11.5589 0.0000 0.0000 0.0000
# 3 13.7763 11.5589 54.1746 0.0000 0.0000 0.0000
# 4 0.0000 0.0000 0.0000 20.0522 0.0000 0.0000
# 5 0.0000 0.0000 0.0000 0.0000 60.6300 0.0000
# 6 0.0000 0.0000 0.0000 0.0000 0.0000 36.7611
#
#
#
# Elastic Compliance Matrix: (Units=1/GPa)
#
#
# Indices 1 2 3 4 5 6 
#
# 1 0.007289 -0.000928 -0.001656 0.000000 0.000000 0.000000
# 2 -0.000928 0.010914 -0.002093 0.000000 0.000000 0.000000
# 3 -0.001656 -0.002093 0.019326 0.000000 0.000000 0.000000
# 4 0.000000 0.000000 0.000000 0.049870 0.000000 0.000000
# 5 0.000000 0.000000 0.000000 0.000000 0.016493 0.000000
# 6 0.000000 0.000000 0.000000 0.000000 0.000000 0.027203
#
#
# Mechanical properties :
#
#
# Convention : Reuss Voigt Hill
#
# Bulk Modulus (GPa) = 35.48994 41.28879 38.38937
# Shear Modulus (GPa) = 33.36885 40.24852 36.80869
#
# Velocity S-wave (km/s) = 3.98433 4.37583 4.18466
# Velocity P-wave (km/s) = 6.16851 6.72110 6.45073
#
# Compressibility (1/GPa) = 0.02817700
#
# Stress axis : x y z
#
# Youngs Moduli (GPa) = 137.19209 91.62475 51.74282
#
# Poissons Ratio (x) = 0.08503 0.08566
# Poissons Ratio (y) = 0.12731 0.10828
# Poissons Ratio (z) = 0.22713 0.19174
#
# Static dielectric constant tensor:
#      x y z
#    x 1.753200 0.000000 0.000000 
#    y 0.000000 1.885070 0.000000 
#    z 0.000000 0.000000 1.820040 
# 
# From -- ./inp_files/35510.got.cif
#   From: 2010.05.17/outbox.cif.g08.bks.cpg/sg64_18_cif.got.tgz:35510.got - 2010.06.03 16:29:19.
