data_PCOD9481334
_publ_section_title
;
Structure prediction by ZEFSAII (Michael W. Deem and Ramdas Pophale) SiO2 
 PCOD9481334
Probable space group: C M C A
;
_chemical_formula_sum "Si O2"
_cell_formula_units_Z 112
_cell_length_a 31.921086
_cell_length_b 12.430438
_cell_length_c 13.388283
_cell_angle_alpha 90.000000
_cell_angle_beta 90.000000
_cell_angle_gamma 90.000000
_cell_volume 5312.378053
_symmetry_space_group_name_H-M "C M C A"
_symmetry_group_IT_number 64
_symmetry_cell_setting 'orthorhombic'
loop_
_space_group_symop_operation_xyz
x,y,z
-x,1/2-y,1/2+z
x,-y,-z
-x,1/2+y,1/2-z
-x,-y,-z
x,1/2+y,1/2-z
-x,y,z
x,1/2-y,1/2+z
1/2+x,1/2+y,z
1/2-x,-y,1/2+z
1/2+x,1/2-y,-z
1/2-x,y,1/2-z
1/2-x,1/2-y,-z
1/2+x,y,1/2-z
1/2-x,1/2+y,z
1/2+x,-y,1/2+z
loop_
_atom_site_type_symbol
_atom_site_label
_atom_site_fract_x
_atom_site_fract_y
_atom_site_fract_z
Si Si1 0.683904 0.020283 0.318274
Si Si2 0.048298 0.108178 0.433743
Si Si3 0.611886 0.344690 0.737576
Si Si4 0.261078 0.783500 0.633632
Si Si5 0.611749 0.208042 0.924146
Si Si6 0.671958 0.212779 0.587611
Si Si7 0.311396 0.936171 0.101854
O O1 0.637665 0.067359 0.299763
O O2 0.712693 0.106207 0.376815
O O3 0.680908 0.906286 0.372645
O O4 0.698506 0.001509 0.203039
O O5 0.075891 0.107720 0.332814
O O6 0.072108 0.190973 0.505692
O O7 0.000000 0.133712 0.412640
O O8 0.049520 0.000000 0.500000
O O9 0.598224 0.258164 0.819764
O O10 0.645643 0.282722 0.667671
O O11 0.250000 0.781716 0.750000
O O12 0.217117 0.768882 0.577610
O O13 0.287580 0.675458 0.618097
O O14 0.639506 0.099750 0.905587
O O15 0.643829 0.281247 0.988721
O O16 0.301665 0.000000 0.000000
#
# Coordination Sequence:
#
# PCOD9481334 Si02
#       7
#    16  16  16  16  16  16  16
#     4  12  22  42  67  88 131 187 230 292 349 399
#     4  10  23  43  74 109 137 176 223 274 348 429
#     4  11  22  42  68 100 136 173 236 280 344 417
#     4  12  24  43  60  91 132 180 249 288 339 415
#     4  11  22  45  65 101 138 175 235 279 344 428
#     4  11  25  41  65  92 136 186 235 295 348 409
#     4  12  25  41  65  93 130 185 230 293 355 399
#
# _framework density 21.082837999999999
#
# number of rings (size 3 to 8) (size 9 to 14) (size 15 to 20)
#    0.000    0.714    5.714    3.000    2.000    1.714 
#    5.143    0.000    0.000    0.000    0.000    3.000 
#    0.000    0.000    0.000    0.000    0.000    0.000 
#
# Total GULP energy -313314.640711 kJ/mol
# GULP energy per Si atom -5594.904298 kJ/mol
# Density = 2.103485 g / cm^3
# Si number density = 21.082838 Si / 1000 Ang^3
#
#
#
# Elastic Constant Matrix: (Units=GPa)
#
#
# Indices 1 2 3 4 5 6 
#
# 1 159.0379 60.4270 47.0703 0.0000 0.0000 0.0000
# 2 60.4270 121.0907 41.9581 0.0000 0.0000 0.0000
# 3 47.0703 41.9581 92.0386 0.0000 0.0000 0.0000
# 4 0.0000 0.0000 0.0000 38.9813 0.0000 0.0000
# 5 0.0000 0.0000 0.0000 0.0000 29.1147 0.0000
# 6 0.0000 0.0000 0.0000 0.0000 0.0000 22.0242
#
#
#
# Elastic Compliance Matrix: (Units=1/GPa)
#
#
# Indices 1 2 3 4 5 6 
#
# 1 0.008328 -0.003183 -0.002808 0.000000 0.000000 0.000000
# 2 -0.003183 0.011024 -0.003398 0.000000 0.000000 0.000000
# 3 -0.002808 -0.003398 0.013850 0.000000 0.000000 0.000000
# 4 0.000000 0.000000 0.000000 0.025653 0.000000 0.000000
# 5 0.000000 0.000000 0.000000 0.000000 0.034347 0.000000
# 6 0.000000 0.000000 0.000000 0.000000 0.000000 0.045405
#
#
# Mechanical properties :
#
#
# Convention : Reuss Voigt Hill
#
# Bulk Modulus (GPa) = 69.32609 74.56420 71.94514
# Shear Modulus (GPa) = 30.82740 32.87149 31.84945
#
# Velocity S-wave (km/s) = 3.82803 3.95290 3.89096
# Velocity P-wave (km/s) = 7.24517 7.50186 7.37463
#
# Compressibility (1/GPa) = 0.01442458
#
# Stress axis : x y z
#
# Youngs Moduli (GPa) = 120.07194 90.71153 72.20151
#
# Poissons Ratio (x) = 0.28873 0.20276
# Poissons Ratio (y) = 0.38219 0.24532
# Poissons Ratio (z) = 0.33719 0.30821
#
# Static dielectric constant tensor:
#      x y z
#    x 1.760300 0.000000 0.000000 
#    y 0.000000 1.793950 0.000000 
#    z 0.000000 0.000000 1.833300 
# 
# From -- ./inp_files/28424.got.cif
#   From: 2010.05.17/outbox.cif.g08.bks.cpg/sg64_15_cif.got.tgz:28424.got - 2010.06.03 16:29:19.
