data_PCOD9481221
_publ_section_title
;
Structure prediction by ZEFSAII (Michael W. Deem and Ramdas Pophale) SiO2 
 PCOD9481221
Probable space group: C M C A
;
_chemical_formula_sum "Si O2"
_cell_formula_units_Z 48
_cell_length_a 18.168839
_cell_length_b 9.243371
_cell_length_c 10.944946
_cell_angle_alpha 90.000000
_cell_angle_beta 90.000000
_cell_angle_gamma 90.000000
_cell_volume 1838.108673
_symmetry_space_group_name_H-M "C M C A"
_symmetry_group_IT_number 64
_symmetry_cell_setting 'orthorhombic'
loop_
_space_group_symop_operation_xyz
x,y,z
-x,1/2-y,1/2+z
x,-y,-z
-x,1/2+y,1/2-z
-x,-y,-z
x,1/2+y,1/2-z
-x,y,z
x,1/2-y,1/2+z
1/2+x,1/2+y,z
1/2-x,-y,1/2+z
1/2+x,1/2-y,-z
1/2-x,y,1/2-z
1/2-x,1/2-y,-z
1/2+x,y,1/2-z
1/2-x,1/2+y,z
1/2+x,-y,1/2+z
loop_
_atom_site_type_symbol
_atom_site_label
_atom_site_fract_x
_atom_site_fract_y
_atom_site_fract_z
Si Si1 0.744912 0.092924 0.117494
Si Si2 0.000000 0.011592 0.832244
Si Si3 0.500000 0.825261 0.089758
Si Si4 0.873725 0.205056 0.955593
O O1 0.750000 0.020712 0.250000
O O2 0.686643 0.222841 0.131742
O O3 0.823725 0.148072 0.067946
O O4 0.719801 0.000000 0.000000
O O5 0.000000 0.056101 0.692631
O O6 0.071678 0.090053 0.891830
O O7 0.000000 0.160445 0.147465
O O8 0.428305 0.825011 0.007275
#
# Coordination Sequence:
#
# PCOD9481221 Si02
#       4
#    16   8   8  16
#     4  11  24  42  67 101 140 183 232 289 350 415
#     4  11  23  43  68  98 135 180 231 289 348 413
#     4  11  23  41  68  96 133 178 230 289 348 411
#     4  10  23  41  64  95 134 184 233 279 342 420
#
# _framework density 26.113799
#
# number of rings (size 3 to 8) (size 9 to 14) (size 15 to 20)
#    0.000    1.333    0.000    6.000    0.000   13.333 
#    0.000    3.333    0.000    0.000    0.000    0.000 
#    0.000    0.000    0.000    0.000    0.000    0.000 
#
# Total GULP energy -134387.845141 kJ/mol
# GULP energy per Si atom -5599.493548 kJ/mol
# Density = 2.605436 g / cm^3
# Si number density = 26.113799 Si / 1000 Ang^3
#
#
#
# Elastic Constant Matrix: (Units=GPa)
#
#
# Indices 1 2 3 4 5 6 
#
# 1 194.7313 48.8319 24.1340 0.0000 0.0000 0.0000
# 2 48.8319 101.3350 50.9247 0.0000 0.0000 0.0000
# 3 24.1340 50.9247 128.0085 0.0000 0.0000 0.0000
# 4 0.0000 0.0000 0.0000 42.2203 0.0000 0.0000
# 5 0.0000 0.0000 0.0000 0.0000 3.0477 0.0000
# 6 0.0000 0.0000 0.0000 0.0000 0.0000 38.7905
#
#
#
# Elastic Compliance Matrix: (Units=1/GPa)
#
#
# Indices 1 2 3 4 5 6 
#
# 1 0.005841 -0.002826 0.000023 0.000000 0.000000 0.000000
# 2 -0.002826 0.013702 -0.004918 0.000000 0.000000 0.000000
# 3 0.000023 -0.004918 0.009764 0.000000 0.000000 0.000000
# 4 0.000000 0.000000 0.000000 0.023685 0.000000 0.000000
# 5 0.000000 0.000000 0.000000 0.000000 0.328120 0.000000
# 6 0.000000 0.000000 0.000000 0.000000 0.000000 0.025780
#
#
# Mechanical properties :
#
#
# Convention : Reuss Voigt Hill
#
# Bulk Modulus (GPa) = 72.12657 74.65068 73.38863
# Shear Modulus (GPa) = 11.71080 36.82397 24.26739
#
# Velocity S-wave (km/s) = 2.11997 3.75925 3.05174
# Velocity P-wave (km/s) = 5.80279 6.89140 6.37039
#
# Compressibility (1/GPa) = 0.01386452
#
# Stress axis : x y z
#
# Youngs Moduli (GPa) = 171.19829 72.98341 102.41589
#
# Poissons Ratio (x) = 0.20628 -0.00237
# Poissons Ratio (y) = 0.48388 0.50368
# Poissons Ratio (z) = -0.00396 0.35893
#
# Static dielectric constant tensor:
#      x y z
#    x 1.984310 0.000000 0.000000 
#    y 0.000000 2.155620 0.000000 
#    z 0.000000 0.000000 2.057520 
# 
# From -- ./inp_files/7495.got.cif
#   From: 2010.05.17/outbox.cif.g08.bks.cpg/sg64_4_cif.got.tgz:7495.got - 2010.06.03 16:29:19.
