data_PCOD9481740
_publ_section_title
;
Structure prediction by ZEFSAII (Michael W. Deem and Ramdas Pophale) SiO2 
 PCOD9481740
Probable space group: C M C A
;
_chemical_formula_sum "Si O2"
_cell_formula_units_Z 80
_cell_length_a 9.187587
_cell_length_b 26.112446
_cell_length_c 16.950250
_cell_angle_alpha 90.000000
_cell_angle_beta 90.000000
_cell_angle_gamma 90.000000
_cell_volume 4066.540739
_symmetry_space_group_name_H-M "C M C A"
_symmetry_group_IT_number 64
_symmetry_cell_setting 'orthorhombic'
loop_
_space_group_symop_operation_xyz
x,y,z
-x,1/2-y,1/2+z
x,-y,-z
-x,1/2+y,1/2-z
-x,-y,-z
x,1/2+y,1/2-z
-x,y,z
x,1/2-y,1/2+z
1/2+x,1/2+y,z
1/2-x,-y,1/2+z
1/2+x,1/2-y,-z
1/2-x,y,1/2-z
1/2-x,1/2-y,-z
1/2+x,y,1/2-z
1/2-x,1/2+y,z
1/2+x,-y,1/2+z
loop_
_atom_site_type_symbol
_atom_site_label
_atom_site_fract_x
_atom_site_fract_y
_atom_site_fract_z
Si Si1 0.671327 0.913359 0.948727
Si Si2 0.827026 0.898757 0.113296
Si Si3 0.666721 0.295949 0.396307
Si Si4 0.171715 0.002044 0.674875
Si Si5 0.334503 0.197004 0.088788
O O1 0.500000 0.910665 0.974835
O O2 0.690438 0.965034 0.900063
O O3 0.697033 0.862628 0.895830
O O4 0.776396 0.909569 0.023229
O O5 0.764284 0.842748 0.133923
O O6 0.000000 0.900328 0.121375
O O7 0.749061 0.943880 0.160599
O O8 0.500000 0.302179 0.371716
O O9 0.670882 0.299486 0.492598
O O10 0.728925 0.239960 0.377171
O O11 0.250000 0.977495 0.750000
O O12 0.000000 0.008725 0.687999
O O13 0.500000 0.208727 0.112353
#
# Coordination Sequence:
#
# PCOD9481740 Si02
#       5
#    16  16  16  16  16
#     4   9  19  35  55  78 106 139 172 212 260 309
#     4  11  21  33  53  80 107 137 175 217 258 305
#     4   9  16  27  45  72 105 137 168 207 256 305
#     4  11  23  39  56  75 103 138 175 215 262 312
#     4   8  14  26  45  72 103 133 167 206 252 305
#
# _framework density 19.672740999999998
#
# number of rings (size 3 to 8) (size 9 to 14) (size 15 to 20)
#    0.000    2.400    0.000    4.800    0.000    8.800 
#    0.000    0.000    0.000    1.200    0.000    5.600 
#    0.000    0.000    0.000    0.000    0.000    0.000 
#
# Total GULP energy -223215.612806 kJ/mol
# GULP energy per Si atom -5580.390320 kJ/mol
# Density = 1.962796 g / cm^3
# Si number density = 19.672741 Si / 1000 Ang^3
#
#
#
# Elastic Constant Matrix: (Units=GPa)
#
#
# Indices 1 2 3 4 5 6 
#
# 1 128.8791 60.9980 23.6142 0.0000 0.0000 0.0000
# 2 60.9980 101.9896 8.9908 0.0000 0.0000 0.0000
# 3 23.6142 8.9908 16.3744 0.0000 0.0000 0.0000
# 4 0.0000 0.0000 0.0000 0.1974 0.0000 0.0000
# 5 0.0000 0.0000 0.0000 0.0000 17.4304 0.0000
# 6 0.0000 0.0000 0.0000 0.0000 0.0000 25.6759
#
#
#
# Elastic Compliance Matrix: (Units=1/GPa)
#
#
# Indices 1 2 3 4 5 6 
#
# 1 0.014074 -0.006965 -0.016472 0.000000 0.000000 0.000000
# 2 -0.006965 0.013751 0.002495 0.000000 0.000000 0.000000
# 3 -0.016472 0.002495 0.083456 0.000000 0.000000 0.000000
# 4 0.000000 0.000000 0.000000 5.066894 0.000000 0.000000
# 5 0.000000 0.000000 0.000000 0.000000 0.057371 0.000000
# 6 0.000000 0.000000 0.000000 0.000000 0.000000 0.038947
#
#
# Mechanical properties :
#
#
# Convention : Reuss Voigt Hill
#
# Bulk Modulus (GPa) = 14.41015 48.27213 31.34114
# Shear Modulus (GPa) = 0.93642 18.90341 9.91991
#
# Velocity S-wave (km/s) = 0.69067 3.10319 2.24798
# Velocity P-wave (km/s) = 2.82434 6.11805 4.76484
#
# Compressibility (1/GPa) = 0.06939554
#
# Stress axis : x y z
#
# Youngs Moduli (GPa) = 71.05276 72.72295 11.98231
#
# Poissons Ratio (x) = 0.50654 0.19738
# Poissons Ratio (y) = 0.49491 -0.02989
# Poissons Ratio (z) = 1.17040 -0.18143
#
# Static dielectric constant tensor:
#      x y z
#    x 1.658520 0.000000 0.000000 
#    y 0.000000 1.708380 0.000000 
#    z 0.000000 0.000000 1.751770 
# 
# From -- ./inp_files/29715.got.cif
#   From: 2010.05.17/outbox.cif.g08.bks.cpg/sg64_15_cif.got.tgz:29715.got - 2010.06.03 16:29:19.
