data_PCOD9481703
_publ_section_title
;
Structure prediction by ZEFSAII (Michael W. Deem and Ramdas Pophale) SiO2 
 PCOD9481703
Probable space group: C M C A
;
_chemical_formula_sum "Si O2"
_cell_formula_units_Z 116
_cell_length_a 29.086939
_cell_length_b 17.457645
_cell_length_c 11.908799
_cell_angle_alpha 90.000000
_cell_angle_beta 90.000000
_cell_angle_gamma 90.000000
_cell_volume 6047.162556
_symmetry_space_group_name_H-M "C M C A"
_symmetry_group_IT_number 64
_symmetry_cell_setting 'orthorhombic'
loop_
_space_group_symop_operation_xyz
x,y,z
-x,1/2-y,1/2+z
x,-y,-z
-x,1/2+y,1/2-z
-x,-y,-z
x,1/2+y,1/2-z
-x,y,z
x,1/2-y,1/2+z
1/2+x,1/2+y,z
1/2-x,-y,1/2+z
1/2+x,1/2-y,-z
1/2-x,y,1/2-z
1/2-x,1/2-y,-z
1/2+x,y,1/2-z
1/2-x,1/2+y,z
1/2+x,-y,1/2+z
loop_
_atom_site_type_symbol
_atom_site_label
_atom_site_fract_x
_atom_site_fract_y
_atom_site_fract_z
Si Si1 0.702930 0.183856 0.896205
Si Si2 0.648867 0.871249 0.315492
Si Si3 0.500000 0.000000 0.500000
Si Si4 0.549859 0.450464 0.613789
Si Si5 0.199341 0.528933 0.283164
Si Si6 0.792817 0.648017 0.482522
Si Si7 0.148838 0.917466 0.566206
Si Si8 0.950864 0.918352 0.199236
O O1 0.680559 0.171774 0.775103
O O2 0.712758 0.272877 0.916046
O O3 0.750045 0.140589 0.931035
O O4 0.666829 0.147627 0.983732
O O5 0.662438 0.846615 0.440010
O O6 0.594547 0.867639 0.294610
O O7 0.664472 0.959642 0.302885
O O8 0.539412 0.956195 0.422020
O O9 0.547987 0.500000 0.500000
O O10 0.500000 0.411191 0.626992
O O11 0.596400 0.403007 0.603376
O O12 0.554950 0.510909 0.714729
O O13 0.250000 0.500407 0.250000
O O14 0.204138 0.579728 0.394338
O O15 0.180166 0.576002 0.176620
O O16 0.151146 0.000000 0.500000
O O17 0.000000 0.879781 0.230216
#
# Coordination Sequence:
#
# PCOD9481703 Si02
#       8
#    16  16   4  16  16  16  16  16
#     4  11  24  44  56  84 126 169 196 249 307 365
#     4  12  23  39  64  92 118 156 209 252 304 361
#     4   8  20  32  54  84 132 152 176 242 316 366
#     4   9  16  30  53  86 115 147 193 239 297 358
#     4  12  23  36  60  90 121 152 199 259 301 356
#     4  11  27  38  62  84 122 166 208 240 302 379
#     4  11  20  36  60  88 122 157 191 257 308 348
#     4   9  19  34  56  87 122 154 184 247 312 359
#
# _framework density 19.182551
#
# number of rings (size 3 to 8) (size 9 to 14) (size 15 to 20)
#    0.414    0.966    4.138    2.483    3.862    0.000 
#    0.000    0.000    0.000    1.655    0.000    0.000 
#    0.000    0.000    0.000    0.000    0.000    0.000 
#
# Total GULP energy -323007.354360 kJ/mol
# GULP energy per Si atom -5569.092317 kJ/mol
# Density = 1.913889 g / cm^3
# Si number density = 19.182551 Si / 1000 Ang^3
#
#
#
# Elastic Constant Matrix: (Units=GPa)
#
#
# Indices 1 2 3 4 5 6 
#
# 1 138.3767 1.5857 16.5942 0.0000 0.0000 0.0000
# 2 1.5857 24.3270 9.7594 0.0000 0.0000 0.0000
# 3 16.5942 9.7594 72.7749 0.0000 0.0000 0.0000
# 4 0.0000 0.0000 0.0000 14.7629 0.0000 0.0000
# 5 0.0000 0.0000 0.0000 0.0000 29.7087 0.0000
# 6 0.0000 0.0000 0.0000 0.0000 0.0000 7.9934
#
#
#
# Elastic Compliance Matrix: (Units=1/GPa)
#
#
# Indices 1 2 3 4 5 6 
#
# 1 0.007431 0.000206 -0.001722 0.000000 0.000000 0.000000
# 2 0.000206 0.043450 -0.005874 0.000000 0.000000 0.000000
# 3 -0.001722 -0.005874 0.014921 0.000000 0.000000 0.000000
# 4 0.000000 0.000000 0.000000 0.067737 0.000000 0.000000
# 5 0.000000 0.000000 0.000000 0.000000 0.033660 0.000000
# 6 0.000000 0.000000 0.000000 0.000000 0.000000 0.125103
#
#
# Mechanical properties :
#
#
# Convention : Reuss Voigt Hill
#
# Bulk Modulus (GPa) = 19.59902 32.37304 25.98603
# Shear Modulus (GPa) = 15.42788 24.32896 19.87842
#
# Velocity S-wave (km/s) = 2.83904 3.56516 3.22262
# Velocity P-wave (km/s) = 4.58106 5.81895 5.23671
#
# Compressibility (1/GPa) = 0.05102297
#
# Stress axis : x y z
#
# Youngs Moduli (GPa) = 134.57512 23.01515 67.01802
#
# Poissons Ratio (x) = -0.00475 0.11541
# Poissons Ratio (y) = -0.02779 0.39365
# Poissons Ratio (z) = 0.23175 0.13519
#
# Static dielectric constant tensor:
#      x y z
#    x 1.717270 0.000000 0.000000 
#    y 0.000000 1.659030 0.000000 
#    z 0.000000 0.000000 1.679380 
# 
# From -- ./inp_files/19942.got.cif
#   From: 2010.05.17/outbox.cif.g08.bks.cpg/sg64_10_cif.got.tgz:19942.got - 2010.06.03 16:29:19.
