data_PCOD9481054
_publ_section_title
;
Structure prediction by ZEFSAII (Michael W. Deem and Ramdas Pophale) SiO2 
 PCOD9481054
Probable space group: C M C A
;
_chemical_formula_sum "Si O2"
_cell_formula_units_Z 116
_cell_length_a 15.937930
_cell_length_b 13.002346
_cell_length_c 26.425623
_cell_angle_alpha 90.000000
_cell_angle_beta 90.000000
_cell_angle_gamma 90.000000
_cell_volume 5476.194549
_symmetry_space_group_name_H-M "C M C A"
_symmetry_group_IT_number 64
_symmetry_cell_setting 'orthorhombic'
loop_
_space_group_symop_operation_xyz
x,y,z
-x,1/2-y,1/2+z
x,-y,-z
-x,1/2+y,1/2-z
-x,-y,-z
x,1/2+y,1/2-z
-x,y,z
x,1/2-y,1/2+z
1/2+x,1/2+y,z
1/2-x,-y,1/2+z
1/2+x,1/2-y,-z
1/2-x,y,1/2-z
1/2-x,1/2-y,-z
1/2+x,y,1/2-z
1/2-x,1/2+y,z
1/2+x,-y,1/2+z
loop_
_atom_site_type_symbol
_atom_site_label
_atom_site_fract_x
_atom_site_fract_y
_atom_site_fract_z
Si Si1 0.000000 0.500000 0.500000
Si Si2 0.850043 0.510887 0.695776
Si Si3 0.676890 0.025710 0.913562
Si Si4 0.155017 0.952532 0.695146
Si Si5 0.634752 0.545705 0.087974
Si Si6 0.905869 0.180493 0.440533
Si Si7 0.899390 0.229123 0.836185
Si Si8 0.666357 0.756544 0.034821
O O1 0.927335 0.494586 0.545121
O O2 0.882728 0.494040 0.752589
O O3 0.756354 0.463123 0.696615
O O4 0.895301 0.464046 0.646250
O O5 0.850756 0.632680 0.686077
O O6 0.636309 0.010268 0.857809
O O7 0.777342 0.015303 0.912310
O O8 0.645178 0.925513 0.944422
O O9 0.657842 0.135310 0.937100
O O10 0.125612 0.835490 0.689968
O O11 0.657365 0.662536 0.072788
O O12 0.874442 0.250893 0.394657
O O13 0.904649 0.244497 0.491795
O O14 0.000000 0.150262 0.426948
O O15 0.000000 0.210988 0.833261
O O16 0.750000 0.750000 0.000000
#
# Coordination Sequence:
#
# PCOD9481054 Si02
#       8
#     4  16  16  16  16  16  16  16
#     4  12  28  44  60  92 144 184 216 284 330 436
#     4  10  23  41  69  98 130 173 223 285 335 399
#     4  10  22  43  66  92 129 172 224 281 336 400
#     4   9  22  42  68  99 127 172 227 280 334 405
#     4  11  26  40  63  95 133 173 220 273 335 410
#     4  10  23  41  64  92 128 176 225 270 333 417
#     4  10  23  42  66  95 133 179 222 271 345 418
#     4  12  24  37  61  94 130 175 215 271 336 403
#
# _framework density 21.182593000000001
#
# number of rings (size 3 to 8) (size 9 to 14) (size 15 to 20)
#    0.000    1.655    1.379    1.241    7.724    4.966 
#    0.000    0.000    0.000    0.000    0.000    0.000 
#    0.000    0.000    0.000    0.000    0.000    0.000 
#
# Total GULP energy -323332.947672 kJ/mol
# GULP energy per Si atom -5574.705994 kJ/mol
# Density = 2.113438 g / cm^3
# Si number density = 21.182593 Si / 1000 Ang^3
#
#
#
# Elastic Constant Matrix: (Units=GPa)
#
#
# Indices 1 2 3 4 5 6 
#
# 1 49.7570 1.3959 16.4841 0.0000 0.0000 0.0000
# 2 1.3959 107.7760 79.1490 0.0000 0.0000 0.0000
# 3 16.4841 79.1490 182.3696 0.0000 0.0000 0.0000
# 4 0.0000 0.0000 0.0000 26.2420 0.0000 0.0000
# 5 0.0000 0.0000 0.0000 0.0000 -4.1824 0.0000
# 6 0.0000 0.0000 0.0000 0.0000 0.0000 5.1426
#
#
#
# Elastic Compliance Matrix: (Units=1/GPa)
#
#
# Indices 1 2 3 4 5 6 
#
# 1 0.020914 0.001640 -0.002602 0.000000 0.000000 0.000000
# 2 0.001640 0.013748 -0.006115 0.000000 0.000000 0.000000
# 3 -0.002602 -0.006115 0.008372 0.000000 0.000000 0.000000
# 4 0.000000 0.000000 0.000000 0.038107 0.000000 0.000000
# 5 0.000000 0.000000 0.000000 0.000000 -0.239096 0.000000
# 6 0.000000 0.000000 0.000000 0.000000 0.000000 0.194455
#
#
# Mechanical properties :
#
#
# Convention : Reuss Voigt Hill
#
# Bulk Modulus (GPa) = 34.62571 59.32895 46.97733
# Shear Modulus (GPa) = 82.94493 21.63200 52.28846
#
# Velocity S-wave (km/s) = 6.26435 3.19911 4.97375
# Velocity P-wave (km/s) = 8.28883 6.45871 7.43033
#
# Compressibility (1/GPa) = 0.02888027
#
# Stress axis : x y z
#
# Youngs Moduli (GPa) = 47.81542 72.73802 119.43900
#
# Poissons Ratio (x) = -0.11930 0.31080
# Poissons Ratio (y) = -0.07842 0.73036
# Poissons Ratio (z) = 0.12442 0.44479
#
# Static dielectric constant tensor:
#      x y z
#    x 1.797700 0.000000 0.000000 
#    y 0.000000 1.733480 0.000000 
#    z 0.000000 0.000000 1.820600 
# 
# From -- ./inp_files/50476.got.cif
#   From: 2010.05.17/outbox.cif.g08.bks.cpg/sg64_26_cif.got.tgz:50476.got - 2010.06.03 16:29:19.
