data_PCOD9481234
_publ_section_title
;
Structure prediction by ZEFSAII (Michael W. Deem and Ramdas Pophale) SiO2 
 PCOD9481234
Probable space group: C M C A
;
_chemical_formula_sum "Si O2"
_cell_formula_units_Z 68
_cell_length_a 13.315106
_cell_length_b 8.798320
_cell_length_c 26.771986
_cell_angle_alpha 90.000000
_cell_angle_beta 90.000000
_cell_angle_gamma 90.000000
_cell_volume 3136.353244
_symmetry_space_group_name_H-M "C M C A"
_symmetry_group_IT_number 64
_symmetry_cell_setting 'orthorhombic'
loop_
_space_group_symop_operation_xyz
x,y,z
-x,1/2-y,1/2+z
x,-y,-z
-x,1/2+y,1/2-z
-x,-y,-z
x,1/2+y,1/2-z
-x,y,z
x,1/2-y,1/2+z
1/2+x,1/2+y,z
1/2-x,-y,1/2+z
1/2+x,1/2-y,-z
1/2-x,y,1/2-z
1/2-x,1/2-y,-z
1/2+x,y,1/2-z
1/2-x,1/2+y,z
1/2+x,-y,1/2+z
loop_
_atom_site_type_symbol
_atom_site_label
_atom_site_fract_x
_atom_site_fract_y
_atom_site_fract_z
Si Si1 0.380317 0.513741 0.185576
Si Si2 0.689039 0.815689 0.452983
Si Si3 0.212079 0.450209 0.883344
Si Si4 0.380123 0.832175 0.789427
Si Si5 0.000000 0.500000 0.500000
O O1 0.500000 0.514270 0.179261
O O2 0.324967 0.579869 0.137273
O O3 0.346581 0.338626 0.195658
O O4 0.353572 0.614442 0.233786
O O5 0.750000 0.750000 0.500000
O O6 0.661377 0.680920 0.415388
O O7 0.590611 0.905638 0.470168
O O8 0.769133 0.913449 0.421065
O O9 0.154207 0.454621 0.830787
O O10 0.500000 0.827096 0.790231
#
# Coordination Sequence:
#
# PCOD9481234 Si02
#       5
#    16  16  16  16   4
#     4  10  23  41  67  98 143 189 233 290 359 432
#     4  12  27  50  74 108 138 188 248 310 387 449
#     4  12  24  42  74 101 140 184 244 302 364 449
#     4  10  23  42  63 101 144 187 238 291 358 435
#     4  12  28  52  82  94 156 188 230 328 384 422
#
# _framework density 21.681231
#
# number of rings (size 3 to 8) (size 9 to 14) (size 15 to 20)
#    0.000    0.941    4.706    0.706    6.588    1.882 
#    2.118    1.176    0.000    0.000    0.000    0.000 
#    0.000    0.000    0.000    0.000    0.000    0.000 
#
# Total GULP energy -189295.609821 kJ/mol
# GULP energy per Si atom -5567.517936 kJ/mol
# Density = 2.163188 g / cm^3
# Si number density = 21.681231 Si / 1000 Ang^3
#
#
#
# Elastic Constant Matrix: (Units=GPa)
#
#
# Indices 1 2 3 4 5 6 
#
# 1 60.3833 24.6154 23.4371 0.0000 0.0000 0.0000
# 2 24.6154 40.1088 20.6466 0.0000 0.0000 0.0000
# 3 23.4371 20.6466 124.5409 0.0000 0.0000 0.0000
# 4 0.0000 0.0000 0.0000 30.2746 0.0000 0.0000
# 5 0.0000 0.0000 0.0000 0.0000 38.0956 0.0000
# 6 0.0000 0.0000 0.0000 0.0000 0.0000 24.6748
#
#
#
# Elastic Compliance Matrix: (Units=1/GPa)
#
#
# Indices 1 2 3 4 5 6 
#
# 1 0.022594 -0.012767 -0.002135 0.000000 0.000000 0.000000
# 2 -0.012767 0.034473 -0.003312 0.000000 0.000000 0.000000
# 3 -0.002135 -0.003312 0.008980 0.000000 0.000000 0.000000
# 4 0.000000 0.000000 0.000000 0.033031 0.000000 0.000000
# 5 0.000000 0.000000 0.000000 0.000000 0.026250 0.000000
# 6 0.000000 0.000000 0.000000 0.000000 0.000000 0.040527
#
#
# Mechanical properties :
#
#
# Convention : Reuss Voigt Hill
#
# Bulk Modulus (GPa) = 33.76372 40.27012 37.01692
# Shear Modulus (GPa) = 23.56737 29.03126 26.29931
#
# Velocity S-wave (km/s) = 3.30054 3.66321 3.48659
# Velocity P-wave (km/s) = 5.48920 6.04204 5.77224
#
# Compressibility (1/GPa) = 0.02961759
#
# Stress axis : x y z
#
# Youngs Moduli (GPa) = 44.25901 29.00847 111.35278
#
# Poissons Ratio (x) = 0.37036 0.23778
# Poissons Ratio (y) = 0.56506 0.36883
# Poissons Ratio (z) = 0.09451 0.09608
#
# Static dielectric constant tensor:
#      x y z
#    x 1.802480 0.000000 0.000000 
#    y 0.000000 1.862880 0.000000 
#    z 0.000000 0.000000 1.800760 
# 
# From -- ./inp_files/49766.got.cif
#   From: 2010.05.17/outbox.cif.g08.bks.cpg/sg64_25_cif.got.tgz:49766.got - 2010.06.03 16:29:19.
