data_PCOD9481801
_publ_section_title
;
Structure prediction by ZEFSAII (Michael W. Deem and Ramdas Pophale) SiO2 
 PCOD9481801
Probable space group: C M C A
;
_chemical_formula_sum "Si O2"
_cell_formula_units_Z 68
_cell_length_a 22.883456
_cell_length_b 4.853801
_cell_length_c 23.277366
_cell_angle_alpha 90.000000
_cell_angle_beta 90.000000
_cell_angle_gamma 90.000000
_cell_volume 2585.457582
_symmetry_space_group_name_H-M "C M C A"
_symmetry_group_IT_number 64
_symmetry_cell_setting 'orthorhombic'
loop_
_space_group_symop_operation_xyz
x,y,z
-x,1/2-y,1/2+z
x,-y,-z
-x,1/2+y,1/2-z
-x,-y,-z
x,1/2+y,1/2-z
-x,y,z
x,1/2-y,1/2+z
1/2+x,1/2+y,z
1/2-x,-y,1/2+z
1/2+x,1/2-y,-z
1/2-x,y,1/2-z
1/2-x,1/2-y,-z
1/2+x,y,1/2-z
1/2-x,1/2+y,z
1/2+x,-y,1/2+z
loop_
_atom_site_type_symbol
_atom_site_label
_atom_site_fract_x
_atom_site_fract_y
_atom_site_fract_z
Si Si1 0.909457 0.658672 0.422814
Si Si2 0.500000 0.000000 0.000000
Si Si3 0.175122 0.082338 0.788324
Si Si4 0.714691 0.415548 0.081140
Si Si5 0.565570 0.665109 0.345147
O O1 0.844696 0.560574 0.438729
O O2 0.937988 0.379246 0.398184
O O3 0.948941 0.805046 0.469738
O O4 0.907648 0.883355 0.370548
O O5 0.188341 0.782172 0.764593
O O6 0.205861 0.107336 0.849755
O O7 0.108451 0.180056 0.801795
O O8 0.731328 0.108952 0.064200
O O9 0.500000 0.611498 0.323898
#
# Coordination Sequence:
#
# PCOD9481801 Si02
#       5
#    16   4  16  16  16
#     4  11  24  41  68 102 130 172 228 278 351 410
#     4  12  24  46  76 106 128 166 232 300 328 426
#     4  11  23  37  60  96 127 171 232 270 311 383
#     4  11  23  43  65  90 136 182 215 272 338 393
#     4  11  21  41  61  92 141 178 213 277 351 409
#
# _framework density 26.30095
#
# number of rings (size 3 to 8) (size 9 to 14) (size 15 to 20)
#    0.000    0.941    2.353    7.059    0.000    5.647 
#    0.000    1.176    0.000    0.000    0.000    0.000 
#    0.000    0.000    0.000    0.000    0.000    0.000 
#
# Total GULP energy -189971.575711 kJ/mol
# GULP energy per Si atom -5587.399286 kJ/mol
# Density = 2.624109 g / cm^3
# Si number density = 26.300950 Si / 1000 Ang^3
#
#
#
# Elastic Constant Matrix: (Units=GPa)
#
#
# Indices 1 2 3 4 5 6 
#
# 1 178.9397 13.5021 19.2509 0.0000 0.0000 0.0000
# 2 13.5021 104.9291 11.9136 0.0000 0.0000 0.0000
# 3 19.2509 11.9136 103.9176 0.0000 0.0000 0.0000
# 4 0.0000 0.0000 0.0000 39.9819 0.0000 0.0000
# 5 0.0000 0.0000 0.0000 0.0000 132.0653 0.0000
# 6 0.0000 0.0000 0.0000 0.0000 0.0000 42.8241
#
#
#
# Elastic Compliance Matrix: (Units=1/GPa)
#
#
# Indices 1 2 3 4 5 6 
#
# 1 0.005742 -0.000626 -0.000992 0.000000 0.000000 0.000000
# 2 -0.000626 0.009724 -0.000999 0.000000 0.000000 0.000000
# 3 -0.000992 -0.000999 0.009921 0.000000 0.000000 0.000000
# 4 0.000000 0.000000 0.000000 0.025011 0.000000 0.000000
# 5 0.000000 0.000000 0.000000 0.000000 0.007572 0.000000
# 6 0.000000 0.000000 0.000000 0.000000 0.000000 0.023351
#
#
# Mechanical properties :
#
#
# Convention : Reuss Voigt Hill
#
# Bulk Modulus (GPa) = 49.61852 53.01330 51.31591
# Shear Modulus (GPa) = 53.60506 65.84890 59.72698
#
# Velocity S-wave (km/s) = 4.51948 5.00910 4.77057
# Velocity P-wave (km/s) = 6.79271 7.32495 7.06384
#
# Compressibility (1/GPa) = 0.02015377
#
# Stress axis : x y z
#
# Youngs Moduli (GPa) = 174.14149 102.83576 100.79339
#
# Poissons Ratio (x) = 0.06441 0.09999
# Poissons Ratio (y) = 0.10906 0.10067
# Poissons Ratio (z) = 0.17275 0.10271
#
# Static dielectric constant tensor:
#      x y z
#    x 2.110150 0.000000 0.000000 
#    y 0.000000 1.972210 0.000000 
#    z 0.000000 0.000000 2.121010 
# 
# From -- ./inp_files/50594.got.cif
#   From: 2010.05.17/outbox.cif.g08.bks.cpg/sg64_26_cif.got.tgz:50594.got - 2010.06.03 16:29:19.
