data_PCOD9481872
_publ_section_title
;
Structure prediction by ZEFSAII (Michael W. Deem and Ramdas Pophale) SiO2 
 PCOD9481872
Probable space group: C M C A
;
_chemical_formula_sum "Si O2"
_cell_formula_units_Z 80
_cell_length_a 19.424543
_cell_length_b 7.842799
_cell_length_c 22.027389
_cell_angle_alpha 90.000000
_cell_angle_beta 90.000000
_cell_angle_gamma 90.000000
_cell_volume 3355.713818
_symmetry_space_group_name_H-M "C M C A"
_symmetry_group_IT_number 64
_symmetry_cell_setting 'orthorhombic'
loop_
_space_group_symop_operation_xyz
x,y,z
-x,1/2-y,1/2+z
x,-y,-z
-x,1/2+y,1/2-z
-x,-y,-z
x,1/2+y,1/2-z
-x,y,z
x,1/2-y,1/2+z
1/2+x,1/2+y,z
1/2-x,-y,1/2+z
1/2+x,1/2-y,-z
1/2-x,y,1/2-z
1/2-x,1/2-y,-z
1/2+x,y,1/2-z
1/2-x,1/2+y,z
1/2+x,-y,1/2+z
loop_
_atom_site_type_symbol
_atom_site_label
_atom_site_fract_x
_atom_site_fract_y
_atom_site_fract_z
Si Si1 0.500000 0.263942 0.431262
Si Si2 0.367207 0.209788 0.149910
Si Si3 0.500000 0.179358 0.071534
Si Si4 0.733735 0.998105 0.071782
Si Si5 0.647372 0.817883 0.621651
Si Si6 0.169127 0.101614 0.735485
O O1 0.500000 0.240772 0.504236
O O2 0.500000 0.471467 0.427886
O O3 0.568277 0.190650 0.398882
O O4 0.433256 0.230422 0.108842
O O5 0.305965 0.155865 0.104091
O O6 0.363566 0.357080 0.200043
O O7 0.365937 0.043554 0.194893
O O8 0.810037 0.017993 0.099358
O O9 0.684995 0.839169 0.086834
O O10 0.739063 0.000000 0.000000
O O11 0.662215 0.767574 0.691501
O O12 0.250000 0.070488 0.750000
#
# Coordination Sequence:
#
# PCOD9481872 Si02
#       6
#     8  16   8  16  16  16
#     4  11  22  45  68  97 131 178 225 273 330 414
#     4  11  24  38  66  97 128 179 214 282 329 399
#     4  11  22  41  67  93 129 173 232 262 329 404
#     4  11  22  40  64 101 128 173 228 279 330 400
#     4  11  24  40  71  96 134 176 222 281 340 395
#     4  11  22  39  62  94 134 163 223 270 339 393
#
# _framework density 23.839935000000001
#
# number of rings (size 3 to 8) (size 9 to 14) (size 15 to 20)
#    0.000    1.000    6.000    2.400    2.800    1.600 
#    0.000    0.500    0.000    2.400    0.000    0.000 
#    0.000    0.000    0.000    0.000    0.000    0.000 
#
# Total GULP energy -223778.943363 kJ/mol
# GULP energy per Si atom -5594.473584 kJ/mol
# Density = 2.378567 g / cm^3
# Si number density = 23.839935 Si / 1000 Ang^3
#
#
#
# Elastic Constant Matrix: (Units=GPa)
#
#
# Indices 1 2 3 4 5 6 
#
# 1 187.8490 7.2787 68.9413 0.0000 0.0000 0.0000
# 2 7.2787 65.5403 -3.2749 0.0000 0.0000 0.0000
# 3 68.9413 -3.2749 195.2250 0.0000 0.0000 0.0000
# 4 0.0000 0.0000 0.0000 6.8739 0.0000 0.0000
# 5 0.0000 0.0000 0.0000 0.0000 34.8870 0.0000
# 6 0.0000 0.0000 0.0000 0.0000 0.0000 34.8817
#
#
#
# Elastic Compliance Matrix: (Units=1/GPa)
#
#
# Indices 1 2 3 4 5 6 
#
# 1 0.006157 -0.000793 -0.002188 0.000000 0.000000 0.000000
# 2 -0.000793 0.015373 0.000538 0.000000 0.000000 0.000000
# 3 -0.002188 0.000538 0.005904 0.000000 0.000000 0.000000
# 4 0.000000 0.000000 0.000000 0.145478 0.000000 0.000000
# 5 0.000000 0.000000 0.000000 0.000000 0.028664 0.000000
# 6 0.000000 0.000000 0.000000 0.000000 0.000000 0.028668
#
#
# Mechanical properties :
#
#
# Convention : Reuss Voigt Hill
#
# Bulk Modulus (GPa) = 44.34951 66.05606 55.20278
# Shear Modulus (GPa) = 20.60620 40.37313 30.48966
#
# Velocity S-wave (km/s) = 2.94318 4.11969 3.58010
# Velocity P-wave (km/s) = 5.49483 7.09911 6.34786
#
# Compressibility (1/GPa) = 0.02254816
#
# Stress axis : x y z
#
# Youngs Moduli (GPa) = 162.41661 65.05015 169.38145
#
# Poissons Ratio (x) = 0.05159 0.37053
# Poissons Ratio (y) = 0.12881 -0.09112
# Poissons Ratio (z) = 0.35530 -0.03499
#
# Static dielectric constant tensor:
#      x y z
#    x 1.897310 0.000000 0.000000 
#    y 0.000000 2.080340 0.000000 
#    z 0.000000 0.000000 1.919770 
# 
# From -- ./inp_files/39999.got.cif
#   From: 2010.05.17/outbox.cif.g08.bks.cpg/sg64_20_cif.got.tgz:39999.got - 2010.06.03 16:29:19.
