data_PCOD9481862
_publ_section_title
;
Structure prediction by ZEFSAII (Michael W. Deem and Ramdas Pophale) SiO2 
 PCOD9481862
Probable space group: C M C A
;
_chemical_formula_sum "Si O2"
_cell_formula_units_Z 48
_cell_length_a 15.322997
_cell_length_b 26.755450
_cell_length_c 5.042537
_cell_angle_alpha 90.000000
_cell_angle_beta 90.000000
_cell_angle_gamma 90.000000
_cell_volume 2067.307451
_symmetry_space_group_name_H-M "C M C A"
_symmetry_group_IT_number 64
_symmetry_cell_setting 'orthorhombic'
loop_
_space_group_symop_operation_xyz
x,y,z
-x,1/2-y,1/2+z
x,-y,-z
-x,1/2+y,1/2-z
-x,-y,-z
x,1/2+y,1/2-z
-x,y,z
x,1/2-y,1/2+z
1/2+x,1/2+y,z
1/2-x,-y,1/2+z
1/2+x,1/2-y,-z
1/2-x,y,1/2-z
1/2-x,1/2-y,-z
1/2+x,y,1/2-z
1/2-x,1/2+y,z
1/2+x,-y,1/2+z
loop_
_atom_site_type_symbol
_atom_site_label
_atom_site_fract_x
_atom_site_fract_y
_atom_site_fract_z
Si Si1 0.848857 0.890118 0.856002
Si Si2 0.855860 0.277701 0.716002
Si Si3 0.401126 0.049722 0.868942
O O1 0.750000 0.890332 0.750000
O O2 0.875668 0.832576 0.894729
O O3 0.902859 0.912329 0.613196
O O4 0.856984 0.924030 0.117369
O O5 0.887249 0.236264 0.508106
O O6 0.750000 0.275458 0.750000
O O7 0.500000 0.036661 0.784982
O O8 0.359465 0.000000 0.000000
#
# Coordination Sequence:
#
# PCOD9481862 Si02
#       3
#    16  16  16
#     4  11  22  38  64  94 120 153 205 260 299 344
#     4   9  17  31  54  85 119 153 191 240 299 358
#     4  11  24  42  62  85 121 167 204 241 304 375
#
# _framework density 23.218609000000001
#
# number of rings (size 3 to 8) (size 9 to 14) (size 15 to 20)
#    0.000    1.667    0.000    5.000    0.000   10.667 
#    0.000    0.000    0.000   20.000    0.000    0.000 
#    0.000    0.000    0.000    0.000    0.000    0.000 
#
# Total GULP energy -134103.673339 kJ/mol
# GULP energy per Si atom -5587.653056 kJ/mol
# Density = 2.316576 g / cm^3
# Si number density = 23.218609 Si / 1000 Ang^3
#
#
#
# Elastic Constant Matrix: (Units=GPa)
#
#
# Indices 1 2 3 4 5 6 
#
# 1 44.7971 19.5686 14.0356 0.0000 0.0000 0.0000
# 2 19.5686 139.5796 77.8523 0.0000 0.0000 0.0000
# 3 14.0356 77.8523 182.5001 0.0000 0.0000 0.0000
# 4 0.0000 0.0000 0.0000 48.3497 0.0000 0.0000
# 5 0.0000 0.0000 0.0000 0.0000 -37.8754 0.0000
# 6 0.0000 0.0000 0.0000 0.0000 0.0000 91.2826
#
#
#
# Elastic Compliance Matrix: (Units=1/GPa)
#
#
# Indices 1 2 3 4 5 6 
#
# 1 0.023819 -0.003041 -0.000535 0.000000 0.000000 0.000000
# 2 -0.003041 0.009790 -0.003942 0.000000 0.000000 0.000000
# 3 -0.000535 -0.003942 0.007202 0.000000 0.000000 0.000000
# 4 0.000000 0.000000 0.000000 0.020683 0.000000 0.000000
# 5 0.000000 0.000000 0.000000 0.000000 -0.026402 0.000000
# 6 0.000000 0.000000 0.000000 0.000000 0.000000 0.010955
#
#
# Mechanical properties :
#
#
# Convention : Reuss Voigt Hill
#
# Bulk Modulus (GPa) = 38.79759 65.53221 52.16490
# Shear Modulus (GPa) = 71.76344 37.37939 54.57142
#
# Velocity S-wave (km/s) = 5.56550 4.01670 4.85328
# Velocity P-wave (km/s) = 7.61878 7.05670 7.34312
#
# Compressibility (1/GPa) = 0.02577480
#
# Stress axis : x y z
#
# Youngs Moduli (GPa) = 41.98361 102.14967 138.84538
#
# Poissons Ratio (x) = 0.31066 0.07421
# Poissons Ratio (y) = 0.12768 0.54736
# Poissons Ratio (z) = 0.02244 0.40270
#
# Static dielectric constant tensor:
#      x y z
#    x 1.942860 0.000000 0.000000 
#    y 0.000000 1.893100 0.000000 
#    z 0.000000 0.000000 1.795450 
# 
# From -- ./inp_files/1107.got.cif
#   From: 2010.05.17/outbox.cif.g08.bks.cpg/sg64_1_cif.got.tgz:1107.got - 2010.06.03 16:29:19.
