data_PCOD9481257
_publ_section_title
;
Structure prediction by ZEFSAII (Michael W. Deem and Ramdas Pophale) SiO2 
 PCOD9481257
Probable space group: C M C A
;
_chemical_formula_sum "Si O2"
_cell_formula_units_Z 116
_cell_length_a 26.915163
_cell_length_b 8.791466
_cell_length_c 22.682614
_cell_angle_alpha 90.000000
_cell_angle_beta 90.000000
_cell_angle_gamma 90.000000
_cell_volume 5367.244967
_symmetry_space_group_name_H-M "C M C A"
_symmetry_group_IT_number 64
_symmetry_cell_setting 'orthorhombic'
loop_
_space_group_symop_operation_xyz
x,y,z
-x,1/2-y,1/2+z
x,-y,-z
-x,1/2+y,1/2-z
-x,-y,-z
x,1/2+y,1/2-z
-x,y,z
x,1/2-y,1/2+z
1/2+x,1/2+y,z
1/2-x,-y,1/2+z
1/2+x,1/2-y,-z
1/2-x,y,1/2-z
1/2-x,1/2-y,-z
1/2+x,y,1/2-z
1/2-x,1/2+y,z
1/2+x,-y,1/2+z
loop_
_atom_site_type_symbol
_atom_site_label
_atom_site_fract_x
_atom_site_fract_y
_atom_site_fract_z
Si Si1 0.733939 0.722723 0.640233
Si Si2 0.059390 0.389879 0.053576
Si Si3 0.089182 0.949109 0.915700
Si Si4 0.943056 0.060109 0.685910
Si Si5 0.296487 0.536225 0.285540
Si Si6 0.000000 0.000000 0.000000
Si Si7 0.697952 0.501632 0.933674
Si Si8 0.603530 0.369142 0.781147
O O1 0.695518 0.602725 0.669281
O O2 0.770555 0.821224 0.682057
O O3 0.704963 0.842780 0.600209
O O4 0.770969 0.623369 0.601708
O O5 0.086302 0.227642 0.061748
O O6 0.065131 0.471914 0.116771
O O7 0.000000 0.352256 0.044996
O O8 0.074356 0.500000 0.000000
O O9 0.139576 0.032110 0.933566
O O10 0.089862 0.944665 0.844174
O O11 0.043186 0.023200 0.948882
O O12 0.906727 0.192534 0.708019
O O13 0.000000 0.114163 0.690467
O O14 0.932865 0.921602 0.729025
O O15 0.250000 0.470065 0.250000
O O16 0.341593 0.587060 0.243581
O O17 0.716819 0.500000 0.000000
#
# Coordination Sequence:
#
# PCOD9481257 Si02
#       8
#    16  16  16  16  16   4  16  16
#     4  10  24  43  69  99 143 183 229 296 349 423
#     4   9  19  41  66  90 126 173 227 281 337 404
#     4  11  24  42  68  94 135 179 227 287 342 414
#     4  10  23  42  64  96 135 177 221 287 353 414
#     4  11  24  40  68 101 138 178 229 281 354 424
#     4  12  24  48  66 100 132 180 242 274 352 418
#     4  11  23  45  69 100 138 186 237 288 354 416
#     4  11  25  41  67  98 137 179 226 283 354 418
#
# _framework density 21.612577000000002
#
# number of rings (size 3 to 8) (size 9 to 14) (size 15 to 20)
#    0.000    1.517    1.379    2.897   11.586    0.000 
#    4.966    0.690    0.000    0.000    0.000    0.000 
#    0.000    0.000    0.000    0.000    0.000    0.000 
#
# Total GULP energy -323444.657296 kJ/mol
# GULP energy per Si atom -5576.632022 kJ/mol
# Density = 2.156339 g / cm^3
# Si number density = 21.612577 Si / 1000 Ang^3
#
#
#
# Elastic Constant Matrix: (Units=GPa)
#
#
# Indices 1 2 3 4 5 6 
#
# 1 134.9480 20.9191 47.7510 0.0000 0.0000 0.0000
# 2 20.9191 37.5382 39.6202 0.0000 0.0000 0.0000
# 3 47.7510 39.6202 140.5589 0.0000 0.0000 0.0000
# 4 0.0000 0.0000 0.0000 23.9823 0.0000 0.0000
# 5 0.0000 0.0000 0.0000 0.0000 43.5015 0.0000
# 6 0.0000 0.0000 0.0000 0.0000 0.0000 9.8764
#
#
#
# Elastic Compliance Matrix: (Units=1/GPa)
#
#
# Indices 1 2 3 4 5 6 
#
# 1 0.008575 -0.002426 -0.002229 0.000000 0.000000 0.000000
# 2 -0.002426 0.038608 -0.010059 0.000000 0.000000 0.000000
# 3 -0.002229 -0.010059 0.010707 0.000000 0.000000 0.000000
# 4 0.000000 0.000000 0.000000 0.041697 0.000000 0.000000
# 5 0.000000 0.000000 0.000000 0.000000 0.022988 0.000000
# 6 0.000000 0.000000 0.000000 0.000000 0.000000 0.101252
#
#
# Mechanical properties :
#
#
# Convention : Reuss Voigt Hill
#
# Bulk Modulus (GPa) = 35.13364 58.84729 46.99046
# Shear Modulus (GPa) = 19.03009 29.12233 24.07621
#
# Velocity S-wave (km/s) = 2.97056 3.67477 3.34127
# Velocity P-wave (km/s) = 5.29689 6.72998 6.05598
#
# Compressibility (1/GPa) = 0.02846275
#
# Stress axis : x y z
#
# Youngs Moduli (GPa) = 116.61591 25.90156 93.39587
#
# Poissons Ratio (x) = 0.06283 0.20822
# Poissons Ratio (y) = 0.28287 0.93943
# Poissons Ratio (z) = 0.25999 0.26053
#
# Static dielectric constant tensor:
#      x y z
#    x 1.796290 0.000000 0.000000 
#    y 0.000000 1.815810 0.000000 
#    z 0.000000 0.000000 1.912010 
# 
# From -- ./inp_files/46938.got.cif
#   From: 2010.05.17/outbox.cif.g08.bks.cpg/sg64_24_cif.got.tgz:46938.got - 2010.06.03 16:29:19.
