data_PCOD9481524
_publ_section_title
;
Structure prediction by ZEFSAII (Michael W. Deem and Ramdas Pophale) SiO2 
 PCOD9481524
Probable space group: C M C A
;
_chemical_formula_sum "Si O2"
_cell_formula_units_Z 72
_cell_length_a 7.690119
_cell_length_b 24.904041
_cell_length_c 14.881026
_cell_angle_alpha 90.000000
_cell_angle_beta 90.000000
_cell_angle_gamma 90.000000
_cell_volume 2849.940273
_symmetry_space_group_name_H-M "C M C A"
_symmetry_group_IT_number 64
_symmetry_cell_setting 'orthorhombic'
loop_
_space_group_symop_operation_xyz
x,y,z
-x,1/2-y,1/2+z
x,-y,-z
-x,1/2+y,1/2-z
-x,-y,-z
x,1/2+y,1/2-z
-x,y,z
x,1/2-y,1/2+z
1/2+x,1/2+y,z
1/2-x,-y,1/2+z
1/2+x,1/2-y,-z
1/2-x,y,1/2-z
1/2-x,1/2-y,-z
1/2+x,y,1/2-z
1/2-x,1/2+y,z
1/2+x,-y,1/2+z
loop_
_atom_site_type_symbol
_atom_site_label
_atom_site_fract_x
_atom_site_fract_y
_atom_site_fract_z
Si Si1 0.250000 0.920082 0.750000
Si Si2 0.208159 0.380449 0.398839
Si Si3 0.702013 0.349509 0.900538
Si Si4 0.206306 0.762986 0.148882
Si Si5 0.296525 0.502043 0.604982
O O1 0.184456 0.875855 0.677465
O O2 0.193956 0.963644 0.826513
O O3 0.241975 0.376793 0.505245
O O4 0.275535 0.323485 0.362456
O O5 0.284142 0.436069 0.364786
O O6 0.000000 0.382487 0.385090
O O7 0.500000 0.359798 0.876623
O O8 0.722290 0.285639 0.910433
O O9 0.250000 0.746325 0.250000
O O10 0.000000 0.765127 0.134499
O O11 0.239096 0.500000 0.500000
O O12 0.500000 0.485572 0.608905
#
# Coordination Sequence:
#
# PCOD9481524 Si02
#       5
#     8  16  16  16  16
#     4  12  24  42  68  98 130 172 224 276 326 394
#     4  10  24  45  66  94 131 174 217 269 329 389
#     4  11  23  42  69  96 127 169 221 272 327 390
#     4  11  24  41  65  97 133 169 214 266 327 392
#     4  11  25  44  67  99 134 174 223 276 331 394
#
# _framework density 25.263687999999998
#
# number of rings (size 3 to 8) (size 9 to 14) (size 15 to 20)
#    0.000    1.111    3.333    2.000    1.556    5.778 
#    0.000    0.000    0.000    0.000    0.000    0.000 
#    0.000    0.000    0.000    0.000    0.000    0.000 
#
# Total GULP energy -200925.998150 kJ/mol
# GULP energy per Si atom -5581.277726 kJ/mol
# Density = 2.520619 g / cm^3
# Si number density = 25.263688 Si / 1000 Ang^3
#
#
#
# Elastic Constant Matrix: (Units=GPa)
#
#
# Indices 1 2 3 4 5 6 
#
# 1 85.2106 18.3794 22.2319 0.0000 0.0000 0.0000
# 2 18.3794 216.2266 29.5550 0.0000 0.0000 0.0000
# 3 22.2319 29.5550 83.7760 0.0000 0.0000 0.0000
# 4 0.0000 0.0000 0.0000 70.6236 0.0000 0.0000
# 5 0.0000 0.0000 0.0000 0.0000 -3.5163 0.0000
# 6 0.0000 0.0000 0.0000 0.0000 0.0000 41.4889
#
#
#
# Elastic Compliance Matrix: (Units=1/GPa)
#
#
# Indices 1 2 3 4 5 6 
#
# 1 0.012695 -0.000650 -0.003140 0.000000 0.000000 0.000000
# 2 -0.000650 0.004892 -0.001553 0.000000 0.000000 0.000000
# 3 -0.003140 -0.001553 0.013318 0.000000 0.000000 0.000000
# 4 0.000000 0.000000 0.000000 0.014160 0.000000 0.000000
# 5 0.000000 0.000000 0.000000 0.000000 -0.284391 0.000000
# 6 0.000000 0.000000 0.000000 0.000000 0.000000 0.024103
#
#
# Mechanical properties :
#
#
# Convention : Reuss Voigt Hill
#
# Bulk Modulus (GPa) = 49.45827 58.39398 53.92612
# Shear Modulus (GPa) = -25.27835 42.72237 8.72201
#
# Velocity S-wave (km/s) = -3.16663 4.11671 1.86008
# Velocity P-wave (km/s) = 2.49986 6.76464 5.09949
#
# Compressibility (1/GPa) = 0.02021907
#
# Stress axis : x y z
#
# Youngs Moduli (GPa) = 78.77138 204.40032 75.08742
#
# Poissons Ratio (x) = 0.13285 0.23575
# Poissons Ratio (y) = 0.05120 0.11665
# Poissons Ratio (z) = 0.24731 0.31753
#
# Static dielectric constant tensor:
#      x y z
#    x 2.109880 0.000000 0.000000 
#    y 0.000000 1.976430 0.000000 
#    z 0.000000 0.000000 1.940220 
# 
# From -- ./inp_files/21121.got.cif
#   From: 2010.05.17/outbox.cif.g08.bks.cpg/sg64_11_cif.got.tgz:21121.got - 2010.06.03 16:29:19.
