data_PCOD9481432
_publ_section_title
;
Structure prediction by ZEFSAII (Michael W. Deem and Ramdas Pophale) SiO2 
 PCOD9481432
Probable space group: C M C A
;
_chemical_formula_sum "Si O2"
_cell_formula_units_Z 52
_cell_length_a 16.018530
_cell_length_b 5.335430
_cell_length_c 23.078074
_cell_angle_alpha 90.000000
_cell_angle_beta 90.000000
_cell_angle_gamma 90.000000
_cell_volume 1972.384800
_symmetry_space_group_name_H-M "C M C A"
_symmetry_group_IT_number 64
_symmetry_cell_setting 'orthorhombic'
loop_
_space_group_symop_operation_xyz
x,y,z
-x,1/2-y,1/2+z
x,-y,-z
-x,1/2+y,1/2-z
-x,-y,-z
x,1/2+y,1/2-z
-x,y,z
x,1/2-y,1/2+z
1/2+x,1/2+y,z
1/2-x,-y,1/2+z
1/2+x,1/2-y,-z
1/2-x,y,1/2-z
1/2-x,1/2-y,-z
1/2+x,y,1/2-z
1/2-x,1/2+y,z
1/2+x,-y,1/2+z
loop_
_atom_site_type_symbol
_atom_site_label
_atom_site_fract_x
_atom_site_fract_y
_atom_site_fract_z
Si Si1 0.845095 0.896758 0.773760
Si Si2 0.000000 0.500000 0.500000
Si Si3 0.194556 0.501414 0.064327
Si Si4 0.590444 0.635285 0.882614
O O1 0.883682 0.127749 0.738452
O O2 0.750000 0.869649 0.750000
O O3 0.849365 0.983535 0.840169
O O4 0.071726 0.528948 0.552470
O O5 0.246040 0.247212 0.068706
O O6 0.122761 0.581168 0.108470
O O7 0.156098 0.500000 0.000000
O O8 0.500000 0.631358 0.853879
#
# Coordination Sequence:
#
# PCOD9481432 Si02
#       4
#    16   4  16  16
#     4  10  24  46  75 109 146 199 261 323 384 456
#     4   8  24  48  70 116 158 200 244 310 404 466
#     4  10  24  41  68 103 145 199 252 300 371 450
#     4  10  24  46  76 110 158 203 253 326 389 475
#
# _framework density 26.364025000000002
#
# number of rings (size 3 to 8) (size 9 to 14) (size 15 to 20)
#    0.923    1.231    0.000    0.000   15.077    1.846 
#    0.000    4.615    0.000    0.923    0.000    0.000 
#    0.000    0.000    0.000    0.000    0.000    0.000 
#
# Total GULP energy -144740.189682 kJ/mol
# GULP energy per Si atom -5566.930372 kJ/mol
# Density = 2.630402 g / cm^3
# Si number density = 26.364025 Si / 1000 Ang^3
#
#
#
# Elastic Constant Matrix: (Units=GPa)
#
#
# Indices 1 2 3 4 5 6 
#
# 1 70.7106 -0.9654 34.5495 0.0000 0.0000 0.0000
# 2 -0.9654 124.9662 30.9316 0.0000 0.0000 0.0000
# 3 34.5495 30.9316 182.4248 0.0000 0.0000 0.0000
# 4 0.0000 0.0000 0.0000 39.8688 0.0000 0.0000
# 5 0.0000 0.0000 0.0000 0.0000 55.1610 0.0000
# 6 0.0000 0.0000 0.0000 0.0000 0.0000 1.0184
#
#
#
# Elastic Compliance Matrix: (Units=1/GPa)
#
#
# Indices 1 2 3 4 5 6 
#
# 1 0.015679 0.000894 -0.003121 0.000000 0.000000 0.000000
# 2 0.000894 0.008404 -0.001594 0.000000 0.000000 0.000000
# 3 -0.003121 -0.001594 0.006343 0.000000 0.000000 0.000000
# 4 0.000000 0.000000 0.000000 0.025082 0.000000 0.000000
# 5 0.000000 0.000000 0.000000 0.000000 0.018129 0.000000
# 6 0.000000 0.000000 0.000000 0.000000 0.000000 0.981954
#
#
# Mechanical properties :
#
#
# Convention : Reuss Voigt Hill
#
# Bulk Modulus (GPa) = 43.89241 56.34810 50.12025
# Shear Modulus (GPa) = 4.66928 40.11536 22.39232
#
# Velocity S-wave (km/s) = 1.33226 3.90499 2.91753
# Velocity P-wave (km/s) = 4.36478 6.46154 5.51375
#
# Compressibility (1/GPa) = 0.02278298
#
# Stress axis : x y z
#
# Youngs Moduli (GPa) = 63.77831 118.99584 157.65141
#
# Poissons Ratio (x) = -0.10634 0.49204
# Poissons Ratio (y) = -0.05700 0.25132
# Poissons Ratio (z) = 0.19905 0.18970
#
# Static dielectric constant tensor:
#      x y z
#    x 2.038920 0.000000 0.000000 
#    y 0.000000 2.116130 0.000000 
#    z 0.000000 0.000000 2.104850 
# 
# From -- ./inp_files/40643.got.cif
#   From: 2010.05.17/outbox.cif.g08.bks.cpg/sg64_21_cif.got.tgz:40643.got - 2010.06.03 16:29:19.
