data_PCOD9481460
_publ_section_title
;
Structure prediction by ZEFSAII (Michael W. Deem and Ramdas Pophale) SiO2 
 PCOD9481460
Probable space group: C M C A
;
_chemical_formula_sum "Si O2"
_cell_formula_units_Z 88
_cell_length_a 27.017986
_cell_length_b 11.944013
_cell_length_c 12.042412
_cell_angle_alpha 90.000000
_cell_angle_beta 90.000000
_cell_angle_gamma 90.000000
_cell_volume 3886.124599
_symmetry_space_group_name_H-M "C M C A"
_symmetry_group_IT_number 64
_symmetry_cell_setting 'orthorhombic'
loop_
_space_group_symop_operation_xyz
x,y,z
-x,1/2-y,1/2+z
x,-y,-z
-x,1/2+y,1/2-z
-x,-y,-z
x,1/2+y,1/2-z
-x,y,z
x,1/2-y,1/2+z
1/2+x,1/2+y,z
1/2-x,-y,1/2+z
1/2+x,1/2-y,-z
1/2-x,y,1/2-z
1/2-x,1/2-y,-z
1/2+x,y,1/2-z
1/2-x,1/2+y,z
1/2+x,-y,1/2+z
loop_
_atom_site_type_symbol
_atom_site_label
_atom_site_fract_x
_atom_site_fract_y
_atom_site_fract_z
Si Si1 0.500000 0.198345 0.025982
Si Si2 0.750000 0.322843 0.750000
Si Si3 0.656685 0.254236 0.392021
Si Si4 0.586708 0.619176 0.979471
Si Si5 0.500000 0.479219 0.323940
Si Si6 0.173173 0.905866 0.592809
Si Si7 0.608304 0.049235 0.753173
O O1 0.548060 0.278795 0.032967
O O2 0.500000 0.101496 0.118924
O O3 0.500000 0.121612 0.914829
O O4 0.705769 0.259581 0.816389
O O5 0.776123 0.397858 0.841854
O O6 0.622435 0.147383 0.416515
O O7 0.667127 0.295771 0.518181
O O8 0.623884 0.348738 0.333490
O O9 0.619325 0.594464 0.869646
O O10 0.560899 0.500000 0.000000
O O11 0.450261 0.467126 0.255613
O O12 0.173663 0.000000 0.500000
O O13 0.133120 0.942223 0.685227
#
# Coordination Sequence:
#
# PCOD9481460 Si02
#       7
#     8   8  16  16   8  16  16
#     4  11  24  43  73 103 145 192 247 293 362 429
#     4  12  24  42  68 102 134 196 232 312 374 424
#     4  11  24  44  69  99 141 185 250 300 361 436
#     4  12  25  43  67 106 151 186 234 310 362 430
#     4  11  23  45  76 101 137 195 246 289 355 438
#     4  10  24  42  67  97 138 178 247 296 361 441
#     4  11  24  45  71 105 136 195 235 297 363 438
#
# _framework density 22.644666999999998
#
# number of rings (size 3 to 8) (size 9 to 14) (size 15 to 20)
#    0.000    0.909    1.818    4.636    5.091    6.545 
#    3.273    0.000    0.000    0.000    0.000    0.000 
#    0.000    0.000    0.000    0.000    0.000    0.000 
#
# Total GULP energy -245627.267866 kJ/mol
# GULP energy per Si atom -5582.437906 kJ/mol
# Density = 2.259313 g / cm^3
# Si number density = 22.644667 Si / 1000 Ang^3
#
#
#
# Elastic Constant Matrix: (Units=GPa)
#
#
# Indices 1 2 3 4 5 6 
#
# 1 114.1316 41.0380 29.0069 0.0000 0.0000 0.0000
# 2 41.0380 92.8648 42.0283 0.0000 0.0000 0.0000
# 3 29.0069 42.0283 128.2790 0.0000 0.0000 0.0000
# 4 0.0000 0.0000 0.0000 17.2003 0.0000 0.0000
# 5 0.0000 0.0000 0.0000 0.0000 47.1065 0.0000
# 6 0.0000 0.0000 0.0000 0.0000 0.0000 29.5725
#
#
#
# Elastic Compliance Matrix: (Units=1/GPa)
#
#
# Indices 1 2 3 4 5 6 
#
# 1 0.010526 -0.004197 -0.001005 0.000000 0.000000 0.000000
# 2 -0.004197 0.014316 -0.003741 0.000000 0.000000 0.000000
# 3 -0.001005 -0.003741 0.009249 0.000000 0.000000 0.000000
# 4 0.000000 0.000000 0.000000 0.058139 0.000000 0.000000
# 5 0.000000 0.000000 0.000000 0.000000 0.021229 0.000000
# 6 0.000000 0.000000 0.000000 0.000000 0.000000 0.033815
#
#
# Mechanical properties :
#
#
# Convention : Reuss Voigt Hill
#
# Bulk Modulus (GPa) = 61.71221 62.15795 61.93508
# Shear Modulus (GPa) = 29.31488 33.65601 31.48544
#
# Velocity S-wave (km/s) = 3.60190 3.85939 3.73287
# Velocity P-wave (km/s) = 6.67906 6.88250 6.78154
#
# Compressibility (1/GPa) = 0.01620425
#
# Stress axis : x y z
#
# Youngs Moduli (GPa) = 95.00006 69.85081 108.12396
#
# Poissons Ratio (x) = 0.29315 0.10869
# Poissons Ratio (y) = 0.39869 0.40454
# Poissons Ratio (z) = 0.09550 0.26134
#
# Static dielectric constant tensor:
#      x y z
#    x 1.817900 0.000000 0.000000 
#    y 0.000000 1.896730 0.000000 
#    z 0.000000 0.000000 1.986840 
# 
# From -- ./inp_files/19720.got.cif
#   From: 2010.05.17/outbox.cif.g08.bks.cpg/sg64_10_cif.got.tgz:19720.got - 2010.06.03 16:29:19.
