data_PCOD9481560
_publ_section_title
;
Structure prediction by ZEFSAII (Michael W. Deem and Ramdas Pophale) SiO2 
 PCOD9481560
Probable space group: C M C A
;
_chemical_formula_sum "Si O2"
_cell_formula_units_Z 96
_cell_length_a 21.353895
_cell_length_b 21.672238
_cell_length_c 9.686520
_cell_angle_alpha 90.000000
_cell_angle_beta 90.000000
_cell_angle_gamma 90.000000
_cell_volume 4482.792574
_symmetry_space_group_name_H-M "C M C A"
_symmetry_group_IT_number 64
_symmetry_cell_setting 'orthorhombic'
loop_
_space_group_symop_operation_xyz
x,y,z
-x,1/2-y,1/2+z
x,-y,-z
-x,1/2+y,1/2-z
-x,-y,-z
x,1/2+y,1/2-z
-x,y,z
x,1/2-y,1/2+z
1/2+x,1/2+y,z
1/2-x,-y,1/2+z
1/2+x,1/2-y,-z
1/2-x,y,1/2-z
1/2-x,1/2-y,-z
1/2+x,y,1/2-z
1/2-x,1/2+y,z
1/2+x,-y,1/2+z
loop_
_atom_site_type_symbol
_atom_site_label
_atom_site_fract_x
_atom_site_fract_y
_atom_site_fract_z
Si Si1 0.306036 0.885062 0.660106
Si Si2 0.070470 0.530441 0.351294
Si Si3 0.778646 0.693547 0.594471
Si Si4 0.928791 0.687465 0.958482
Si Si5 0.876395 0.270636 0.773882
Si Si6 0.574503 0.446230 0.405004
O O1 0.250000 0.914301 0.750000
O O2 0.370692 0.923583 0.658709
O O3 0.282457 0.865083 0.507347
O O4 0.324355 0.821338 0.737884
O O5 0.069733 0.500000 0.500000
O O6 0.078761 0.473768 0.246242
O O7 0.000000 0.557549 0.323456
O O8 0.750000 0.685493 0.750000
O O9 0.750000 0.750000 0.500000
O O10 0.847600 0.715919 0.635145
O O11 0.899490 0.741171 0.866928
O O12 0.897640 0.621272 0.926834
O O13 0.000000 0.684762 0.911656
O O14 0.924850 0.698412 0.121632
O O15 0.602109 0.500000 0.500000
O O16 0.500000 0.441007 0.441316
#
# Coordination Sequence:
#
# PCOD9481560 Si02
#       6
#    16  16  16  16  16  16
#     4  12  25  44  72 101 138 179 236 288 347 421
#     4  10  24  47  72  99 136 184 234 289 353 416
#     4  12  21  42  66  93 133 180 226 272 344 422
#     4  11  24  38  61  99 142 184 226 286 349 423
#     4  12  22  39  63  99 138 176 227 281 347 425
#     4   9  19  40  64  89 127 180 234 277 338 411
#
# _framework density 21.415222
#
# number of rings (size 3 to 8) (size 9 to 14) (size 15 to 20)
#    0.000    1.000    5.000    1.500    2.333    2.667 
#    0.000    3.333    0.000    0.000    0.000    0.000 
#    0.000    0.000    0.000    0.000    0.000    0.000 
#
# Total GULP energy -267733.344106 kJ/mol
# GULP energy per Si atom -5577.778002 kJ/mol
# Density = 2.136648 g / cm^3
# Si number density = 21.415222 Si / 1000 Ang^3
#
#
#
# Elastic Constant Matrix: (Units=GPa)
#
#
# Indices 1 2 3 4 5 6 
#
# 1 91.5194 35.0111 30.0161 0.0000 0.0000 0.0000
# 2 35.0111 72.9828 38.1546 0.0000 0.0000 0.0000
# 3 30.0161 38.1546 138.9844 0.0000 0.0000 0.0000
# 4 0.0000 0.0000 0.0000 17.1500 0.0000 0.0000
# 5 0.0000 0.0000 0.0000 0.0000 36.5615 0.0000
# 6 0.0000 0.0000 0.0000 0.0000 0.0000 31.9406
#
#
#
# Elastic Compliance Matrix: (Units=1/GPa)
#
#
# Indices 1 2 3 4 5 6 
#
# 1 0.013592 -0.005821 -0.001337 0.000000 0.000000 0.000000
# 2 -0.005821 0.018491 -0.003819 0.000000 0.000000 0.000000
# 3 -0.001337 -0.003819 0.008532 0.000000 0.000000 0.000000
# 4 0.000000 0.000000 0.000000 0.058309 0.000000 0.000000
# 5 0.000000 0.000000 0.000000 0.000000 0.027351 0.000000
# 6 0.000000 0.000000 0.000000 0.000000 0.000000 0.031308
#
#
# Mechanical properties :
#
#
# Convention : Reuss Voigt Hill
#
# Bulk Modulus (GPa) = 53.59018 56.65005 55.12012
# Shear Modulus (GPa) = 26.91655 30.48406 28.70030
#
# Velocity S-wave (km/s) = 3.54911 3.77699 3.66482
# Velocity P-wave (km/s) = 6.47098 6.74770 6.61079
#
# Compressibility (1/GPa) = 0.01866014
#
# Stress axis : x y z
#
# Youngs Moduli (GPa) = 73.57152 54.08053 117.20173
#
# Poissons Ratio (x) = 0.31482 0.15675
# Poissons Ratio (y) = 0.42828 0.44759
# Poissons Ratio (z) = 0.09840 0.20653
#
# Static dielectric constant tensor:
#      x y z
#    x 1.830720 0.000000 0.000000 
#    y 0.000000 1.798270 0.000000 
#    z 0.000000 0.000000 1.755520 
# 
# From -- ./inp_files/9492.got.cif
#   From: 2010.05.17/outbox.cif.g08.bks.cpg/sg64_5_cif.got.tgz:9492.got - 2010.06.03 16:29:19.
