data_PCOD9481700
_publ_section_title
;
Structure prediction by ZEFSAII (Michael W. Deem and Ramdas Pophale) SiO2 
 PCOD9481700
Probable space group: C M C A
;
_chemical_formula_sum "Si O2"
_cell_formula_units_Z 112
_cell_length_a 14.472389
_cell_length_b 15.820025
_cell_length_c 27.837564
_cell_angle_alpha 90.000000
_cell_angle_beta 90.000000
_cell_angle_gamma 90.000000
_cell_volume 6373.509262
_symmetry_space_group_name_H-M "C M C A"
_symmetry_group_IT_number 64
_symmetry_cell_setting 'orthorhombic'
loop_
_space_group_symop_operation_xyz
x,y,z
-x,1/2-y,1/2+z
x,-y,-z
-x,1/2+y,1/2-z
-x,-y,-z
x,1/2+y,1/2-z
-x,y,z
x,1/2-y,1/2+z
1/2+x,1/2+y,z
1/2-x,-y,1/2+z
1/2+x,1/2-y,-z
1/2-x,y,1/2-z
1/2-x,1/2-y,-z
1/2+x,y,1/2-z
1/2-x,1/2+y,z
1/2+x,-y,1/2+z
loop_
_atom_site_type_symbol
_atom_site_label
_atom_site_fract_x
_atom_site_fract_y
_atom_site_fract_z
Si Si1 0.096935 0.657681 0.277960
Si Si2 0.660830 0.490189 0.715019
Si Si3 0.609823 0.390684 0.046280
Si Si4 0.109984 0.785024 0.137477
Si Si5 0.254493 0.625899 0.354485
Si Si6 0.358778 0.660780 0.758306
Si Si7 0.111384 0.408806 0.561065
O O1 0.104924 0.589137 0.235746
O O2 0.185987 0.648068 0.310776
O O3 0.096863 0.751703 0.257726
O O4 0.000000 0.641383 0.304455
O O5 0.750000 0.496314 0.750000
O O6 0.696158 0.461840 0.662477
O O7 0.613050 0.579745 0.726331
O O8 0.500000 0.377397 0.045490
O O9 0.644443 0.333664 0.089878
O O10 0.622147 0.489643 0.057532
O O11 0.639343 0.373536 0.991573
O O12 0.169643 0.699705 0.141920
O O13 0.123580 0.844455 0.184584
O O14 0.000000 0.767197 0.134276
O O15 0.185040 0.620529 0.399392
O O16 0.250000 0.672614 0.750000
O O17 0.000000 0.392405 0.569438
#
# Coordination Sequence:
#
# PCOD9481700 Si02
#       7
#    16  16  16  16  16  16  16
#     4  11  21  35  51  76 111 144 183 223 264 323
#     4   9  21  34  50  73 104 143 184 220 259 318
#     4   8  18  35  56  83 109 136 182 231 275 333
#     4  11  22  36  55  76 105 145 184 227 275 322
#     4  11  21  35  53  81 112 142 183 226 275 329
#     4  11  20  36  53  73 108 147 183 223 269 319
#     4   9  18  35  57  84 113 138 174 229 282 332
#
# _framework density 17.572737
#
# number of rings (size 3 to 8) (size 9 to 14) (size 15 to 20)
#    0.000    2.000    2.857    2.143    6.000    1.714 
#    0.000    0.000    0.000    0.000    0.000    2.000 
#    0.000    0.000    0.000    0.000    0.000    0.000 
#
# Total GULP energy -311792.790510 kJ/mol
# GULP energy per Si atom -5567.728402 kJ/mol
# Density = 1.753274 g / cm^3
# Si number density = 17.572737 Si / 1000 Ang^3
#
#
#
# Elastic Constant Matrix: (Units=GPa)
#
#
# Indices 1 2 3 4 5 6 
#
# 1 87.3387 24.4907 26.7747 0.0000 0.0000 0.0000
# 2 24.4907 80.4013 24.4431 0.0000 0.0000 0.0000
# 3 26.7747 24.4431 95.4137 0.0000 0.0000 0.0000
# 4 0.0000 0.0000 0.0000 25.8714 0.0000 0.0000
# 5 0.0000 0.0000 0.0000 0.0000 29.6693 0.0000
# 6 0.0000 0.0000 0.0000 0.0000 0.0000 -21.6686
#
#
#
# Elastic Compliance Matrix: (Units=1/GPa)
#
#
# Indices 1 2 3 4 5 6 
#
# 1 0.013222 -0.003144 -0.002905 0.000000 0.000000 0.000000
# 2 -0.003144 0.014236 -0.002765 0.000000 0.000000 0.000000
# 3 -0.002905 -0.002765 0.012004 0.000000 0.000000 0.000000
# 4 0.000000 0.000000 0.000000 0.038653 0.000000 0.000000
# 5 0.000000 0.000000 0.000000 0.000000 0.033705 0.000000
# 6 0.000000 0.000000 0.000000 0.000000 0.000000 -0.046150
#
#
# Mechanical properties :
#
#
# Convention : Reuss Voigt Hill
#
# Bulk Modulus (GPa) = 45.79941 46.06343 45.93142
# Shear Modulus (GPa) = 55.20275 19.27077 37.23676
#
# Velocity S-wave (km/s) = 5.61089 3.31513 4.60826
# Velocity P-wave (km/s) = 8.25199 6.39714 7.38305
#
# Compressibility (1/GPa) = 0.02183434
#
# Stress axis : x y z
#
# Youngs Moduli (GPa) = 75.63218 70.24506 83.30530
#
# Poissons Ratio (x) = 0.22088 0.24198
# Poissons Ratio (y) = 0.23782 0.23030
# Poissons Ratio (z) = 0.21969 0.19420
#
# Static dielectric constant tensor:
#      x y z
#    x 1.640780 0.000000 0.000000 
#    y 0.000000 1.625120 0.000000 
#    z 0.000000 0.000000 1.638800 
# 
# From -- ./inp_files/53386.got.cif
#   From: 2010.05.17/outbox.cif.g08.bks.cpg/sg64_27_cif.got.tgz:53386.got - 2010.06.03 16:29:19.
