data_PCOD9481095
_publ_section_title
;
Structure prediction by ZEFSAII (Michael W. Deem and Ramdas Pophale) SiO2 
 PCOD9481095
Probable space group: C M C A
;
_chemical_formula_sum "Si O2"
_cell_formula_units_Z 96
_cell_length_a 25.025693
_cell_length_b 10.648718
_cell_length_c 13.234938
_cell_angle_alpha 90.000000
_cell_angle_beta 90.000000
_cell_angle_gamma 90.000000
_cell_volume 3526.999109
_symmetry_space_group_name_H-M "C M C A"
_symmetry_group_IT_number 64
_symmetry_cell_setting 'orthorhombic'
loop_
_space_group_symop_operation_xyz
x,y,z
-x,1/2-y,1/2+z
x,-y,-z
-x,1/2+y,1/2-z
-x,-y,-z
x,1/2+y,1/2-z
-x,y,z
x,1/2-y,1/2+z
1/2+x,1/2+y,z
1/2-x,-y,1/2+z
1/2+x,1/2-y,-z
1/2-x,y,1/2-z
1/2-x,1/2-y,-z
1/2+x,y,1/2-z
1/2-x,1/2+y,z
1/2+x,-y,1/2+z
loop_
_atom_site_type_symbol
_atom_site_label
_atom_site_fract_x
_atom_site_fract_y
_atom_site_fract_z
Si Si1 0.189821 0.500000 0.500000
Si Si2 0.591015 0.580435 0.129975
Si Si3 0.250000 0.105117 0.250000
Si Si4 0.500000 0.912954 0.317311
Si Si5 0.693370 0.279924 0.123381
Si Si6 0.645819 0.952249 0.207532
Si Si7 0.597623 0.325650 0.485935
Si Si8 0.500000 0.378357 0.634854
O O1 0.148084 0.558920 0.421452
O O2 0.218804 0.395482 0.437846
O O3 0.550579 0.463776 0.118156
O O4 0.606351 0.558407 0.246053
O O5 0.573008 0.710199 0.081933
O O6 0.255406 0.201248 0.157431
O O7 0.298109 0.018985 0.217733
O O8 0.500000 0.001569 0.214071
O O9 0.500000 0.761251 0.308305
O O10 0.657575 0.332976 0.218107
O O11 0.648473 0.216854 0.053413
O O12 0.623482 0.912275 0.100608
O O13 0.550704 0.373832 0.558649
#
# Coordination Sequence:
#
# PCOD9481095 Si02
#       8
#     8  16   8   8  16  16  16   8
#     4   8  18  43  76 110 140 206 272 337 412 510
#     4  10  22  43  78 111 165 222 276 344 421 511
#     4  12  26  46  74 112 154 214 270 362 446 514
#     4  12  27  46  85 128 178 240 290 353 439 520
#     4  10  23  49  77 111 158 213 280 350 435 515
#     4  11  25  47  79 117 165 218 285 362 437 511
#     4  11  26  51  83 122 169 227 286 357 429 530
#     4  12  29  52  83 134 178 236 300 358 437 540
#
# _framework density 27.218606999999999
#
# number of rings (size 3 to 8) (size 9 to 14) (size 15 to 20)
#    0.000    1.333    0.000    5.000    7.000    2.333 
#    0.000   28.333    0.000    0.000    0.000    0.000 
#    0.000    0.000    0.000    0.000    0.000    0.000 
#
# Total GULP energy -268290.388487 kJ/mol
# GULP energy per Si atom -5589.383093 kJ/mol
# Density = 2.715666 g / cm^3
# Si number density = 27.218607 Si / 1000 Ang^3
#
#
#
# Elastic Constant Matrix: (Units=GPa)
#
#
# Indices 1 2 3 4 5 6 
#
# 1 113.1317 54.5485 67.5541 0.0000 0.0000 0.0000
# 2 54.5485 154.1244 98.4197 0.0000 0.0000 0.0000
# 3 67.5541 98.4197 213.8079 0.0000 0.0000 0.0000
# 4 0.0000 0.0000 0.0000 68.9164 0.0000 0.0000
# 5 0.0000 0.0000 0.0000 0.0000 35.2735 0.0000
# 6 0.0000 0.0000 0.0000 0.0000 0.0000 36.5260
#
#
#
# Elastic Compliance Matrix: (Units=1/GPa)
#
#
# Indices 1 2 3 4 5 6 
#
# 1 0.011530 -0.002485 -0.002499 0.000000 0.000000 0.000000
# 2 -0.002485 0.009725 -0.003692 0.000000 0.000000 0.000000
# 3 -0.002499 -0.003692 0.007166 0.000000 0.000000 0.000000
# 4 0.000000 0.000000 0.000000 0.014510 0.000000 0.000000
# 5 0.000000 0.000000 0.000000 0.000000 0.028350 0.000000
# 6 0.000000 0.000000 0.000000 0.000000 0.000000 0.027378
#
#
# Mechanical properties :
#
#
# Convention : Reuss Voigt Hill
#
# Bulk Modulus (GPa) = 90.33551 102.45650 96.39601
# Shear Modulus (GPa) = 41.77141 45.51266 43.64203
#
# Velocity S-wave (km/s) = 3.92173 4.09359 4.00858
# Velocity P-wave (km/s) = 7.33263 7.75030 7.54436
#
# Compressibility (1/GPa) = 0.01106984
#
# Stress axis : x y z
#
# Youngs Moduli (GPa) = 86.73326 102.82792 139.54871
#
# Poissons Ratio (x) = 0.25550 0.34874
# Poissons Ratio (y) = 0.21551 0.51514
# Poissons Ratio (z) = 0.21675 0.37959
#
# Static dielectric constant tensor:
#      x y z
#    x 2.125940 0.000000 0.000000 
#    y 0.000000 2.280230 0.000000 
#    z 0.000000 0.000000 2.281350 
# 
# From -- ./inp_files/35465.got.cif
#   From: 2010.05.17/outbox.cif.g08.bks.cpg/sg64_18_cif.got.tgz:35465.got - 2010.06.03 16:29:19.
