data_PCOD9481451
_publ_section_title
;
Structure prediction by ZEFSAII (Michael W. Deem and Ramdas Pophale) SiO2 
 PCOD9481451
Probable space group: C M C A
;
_chemical_formula_sum "Si O2"
_cell_formula_units_Z 48
_cell_length_a 18.485772
_cell_length_b 9.188519
_cell_length_c 11.424260
_cell_angle_alpha 90.000000
_cell_angle_beta 90.000000
_cell_angle_gamma 90.000000
_cell_volume 1940.489014
_symmetry_space_group_name_H-M "C M C A"
_symmetry_group_IT_number 64
_symmetry_cell_setting 'orthorhombic'
loop_
_space_group_symop_operation_xyz
x,y,z
-x,1/2-y,1/2+z
x,-y,-z
-x,1/2+y,1/2-z
-x,-y,-z
x,1/2+y,1/2-z
-x,y,z
x,1/2-y,1/2+z
1/2+x,1/2+y,z
1/2-x,-y,1/2+z
1/2+x,1/2-y,-z
1/2-x,y,1/2-z
1/2-x,1/2-y,-z
1/2+x,y,1/2-z
1/2-x,1/2+y,z
1/2+x,-y,1/2+z
loop_
_atom_site_type_symbol
_atom_site_label
_atom_site_fract_x
_atom_site_fract_y
_atom_site_fract_z
Si Si1 0.376880 0.500000 0.000000
Si Si2 0.751954 0.655568 0.619448
Si Si3 0.000000 0.808829 0.893875
Si Si4 0.873259 0.500000 0.000000
Si Si5 0.000000 0.538513 0.147902
O O1 0.322800 0.444623 0.102008
O O2 0.428789 0.630470 0.040576
O O3 0.750000 0.721576 0.750000
O O4 0.750000 0.750000 0.500000
O O5 0.678867 0.566037 0.597876
O O6 0.000000 0.638385 0.859039
O O7 0.000000 0.900888 0.775175
O O8 0.929469 0.408370 0.922025
#
# Coordination Sequence:
#
# PCOD9481451 Si02
#       5
#     8  16   8   8   8
#     4  10  24  42  64  98 142 188 240 296 354 430
#     4  11  24  43  69 102 141 187 238 295 361 434
#     4  11  24  44  69 103 144 190 244 303 367 436
#     4  10  24  42  64  98 138 188 240 288 354 434
#     4  11  24  42  69 101 140 189 242 302 367 435
#
# _framework density 24.736032000000002
#
# number of rings (size 3 to 8) (size 9 to 14) (size 15 to 20)
#    0.000    1.333    0.000    4.000    0.000   18.667 
#    0.000    0.000    0.000    0.000    0.000    0.000 
#    0.000    0.000    0.000    0.000    0.000    0.000 
#
# Total GULP energy -134069.076273 kJ/mol
# GULP energy per Si atom -5586.211511 kJ/mol
# Density = 2.467973 g / cm^3
# Si number density = 24.736032 Si / 1000 Ang^3
#
#
#
# Elastic Constant Matrix: (Units=GPa)
#
#
# Indices 1 2 3 4 5 6 
#
# 1 176.9737 41.0836 61.1597 0.0000 0.0000 0.0000
# 2 41.0836 144.3440 65.6816 0.0000 0.0000 0.0000
# 3 61.1597 65.6816 183.7634 0.0000 0.0000 0.0000
# 4 0.0000 0.0000 0.0000 44.5502 0.0000 0.0000
# 5 0.0000 0.0000 0.0000 0.0000 1.1779 0.0000
# 6 0.0000 0.0000 0.0000 0.0000 0.0000 -0.1783
#
#
#
# Elastic Compliance Matrix: (Units=1/GPa)
#
#
# Indices 1 2 3 4 5 6 
#
# 1 0.006512 -0.001036 -0.001797 0.000000 0.000000 0.000000
# 2 -0.001036 0.008438 -0.002671 0.000000 0.000000 0.000000
# 3 -0.001797 -0.002671 0.006995 0.000000 0.000000 0.000000
# 4 0.000000 0.000000 0.000000 0.022447 0.000000 0.000000
# 5 0.000000 0.000000 0.000000 0.000000 0.848989 0.000000
# 6 0.000000 0.000000 0.000000 0.000000 0.000000 -5.609413
#
#
# Mechanical properties :
#
#
# Convention : Reuss Voigt Hill
#
# Bulk Modulus (GPa) = 91.43590 93.43675 92.43632
# Shear Modulus (GPa) = -1.06352 31.58703 15.26176
#
# Velocity S-wave (km/s) = -0.65641 3.57734 2.48661
# Velocity P-wave (km/s) = 6.03907 7.41071 6.75977
#
# Compressibility (1/GPa) = 0.01093662
#
# Stress axis : x y z
#
# Youngs Moduli (GPa) = 153.56122 118.50818 142.96541
#
# Poissons Ratio (x) = 0.12274 0.25693
# Poissons Ratio (y) = 0.15905 0.38191
# Poissons Ratio (z) = 0.27597 0.31657
#
# Static dielectric constant tensor:
#      x y z
#    x 1.970490 0.000000 0.000000 
#    y 0.000000 2.143240 0.000000 
#    z 0.000000 0.000000 1.945970 
# 
# From -- ./inp_files/15255.got.cif
#   From: 2010.05.17/outbox.cif.g08.bks.cpg/sg64_8_cif.got.tgz:15255.got - 2010.06.03 16:29:19.
