data_PCOD9481612
_publ_section_title
;
Structure prediction by ZEFSAII (Michael W. Deem and Ramdas Pophale) SiO2 
 PCOD9481612
Probable space group: C M C A
;
_chemical_formula_sum "Si O2"
_cell_formula_units_Z 60
_cell_length_a 20.924785
_cell_length_b 23.285573
_cell_length_c 5.383722
_cell_angle_alpha 90.000000
_cell_angle_beta 90.000000
_cell_angle_gamma 90.000000
_cell_volume 2623.194903
_symmetry_space_group_name_H-M "C M C A"
_symmetry_group_IT_number 64
_symmetry_cell_setting 'orthorhombic'
loop_
_space_group_symop_operation_xyz
x,y,z
-x,1/2-y,1/2+z
x,-y,-z
-x,1/2+y,1/2-z
-x,-y,-z
x,1/2+y,1/2-z
-x,y,z
x,1/2-y,1/2+z
1/2+x,1/2+y,z
1/2-x,-y,1/2+z
1/2+x,1/2-y,-z
1/2-x,y,1/2-z
1/2-x,1/2-y,-z
1/2+x,y,1/2-z
1/2-x,1/2+y,z
1/2+x,-y,1/2+z
loop_
_atom_site_type_symbol
_atom_site_label
_atom_site_fract_x
_atom_site_fract_y
_atom_site_fract_z
Si Si1 0.132972 0.786262 0.435415
Si Si2 0.500000 0.500000 0.500000
Si Si3 0.429797 0.900419 0.950111
Si Si4 0.750000 0.650737 0.750000
Si Si5 0.183942 0.937281 0.900896
O O1 0.123905 0.752899 0.693130
O O2 0.084758 0.840177 0.425414
O O3 0.205500 0.810736 0.425092
O O4 0.556158 0.543359 0.614574
O O5 0.500000 0.901226 0.816349
O O6 0.371994 0.912951 0.768619
O O7 0.799278 0.609367 0.609590
O O8 0.250000 0.943178 0.750000
O O9 0.168488 0.000000 0.000000
#
# Coordination Sequence:
#
# PCOD9481612 Si02
#       5
#    16   4  16   8  16
#     4  12  27  49  78 113 158 211 270 326 390 475
#     4   8  24  48  74 104 160 190 266 316 416 482
#     4  10  25  48  75 110 156 204 259 328 408 475
#     4  12  26  44  74 112 164 208 268 330 416 462
#     4  12  25  42  74 118 159 205 263 334 404 493
#
# _framework density 22.872872000000001
#
# number of rings (size 3 to 8) (size 9 to 14) (size 15 to 20)
#    0.800    0.000    4.000    2.400    5.600    1.600 
#    0.000    4.000    0.000    0.000    0.000    0.000 
#    0.000    0.000    0.000    0.000    0.000    0.000 
#
# Total GULP energy -167114.592965 kJ/mol
# GULP energy per Si atom -5570.486432 kJ/mol
# Density = 2.282081 g / cm^3
# Si number density = 22.872872 Si / 1000 Ang^3
#
#
#
# Elastic Constant Matrix: (Units=GPa)
#
#
# Indices 1 2 3 4 5 6 
#
# 1 102.6304 -33.5567 5.1162 0.0000 0.0000 0.0000
# 2 -33.5567 10.6493 -6.4877 0.0000 0.0000 0.0000
# 3 5.1162 -6.4877 61.6991 0.0000 0.0000 0.0000
# 4 0.0000 0.0000 0.0000 31.0532 0.0000 0.0000
# 5 0.0000 0.0000 0.0000 0.0000 -22.0663 0.0000
# 6 0.0000 0.0000 0.0000 0.0000 0.0000 28.1533
#
#
#
# Elastic Compliance Matrix: (Units=1/GPa)
#
#
# Indices 1 2 3 4 5 6 
#
# 1 -0.139331 -0.461571 -0.036981 0.000000 0.000000 0.000000
# 2 -0.461571 -1.428748 -0.111959 0.000000 0.000000 0.000000
# 3 -0.036981 -0.111959 0.007502 0.000000 0.000000 0.000000
# 4 0.000000 0.000000 0.000000 0.032203 0.000000 0.000000
# 5 0.000000 0.000000 0.000000 0.000000 -0.045318 0.000000
# 6 0.000000 0.000000 0.000000 0.000000 0.000000 0.035520
#
#
# Mechanical properties :
#
#
# Convention : Reuss Voigt Hill
#
# Bulk Modulus (GPa) = -0.35951 11.68028 5.66039
# Shear Modulus (GPa) = -4.01816 21.42183 8.70184
#
# Velocity S-wave (km/s) = -1.32686 3.06365 1.95261
# Velocity P-wave (km/s) = 1.58269 4.19908 2.75021
#
# Compressibility (1/GPa) = -2.78159964
#
# Stress axis : x y z
#
# Youngs Moduli (GPa) = -7.17715 -0.69991 133.30343
#
# Poissons Ratio (x) = -0.32306 4.92966
# Poissons Ratio (y) = -3.31277 14.92451
# Poissons Ratio (z) = -0.26542 -0.07836
#
# Static dielectric constant tensor:
#      x y z
#    x 1.848070 0.000000 0.000000 
#    y 0.000000 4.131570 0.000000 
#    z 0.000000 0.000000 2.107370 
# 
# From -- ./inp_files/2152.got.cif
#   From: 2010.05.17/outbox.cif.g08.bks.cpg/sg64_2_cif.got.tgz:2152.got - 2010.06.03 16:29:19.
