data_PCOD9481332
_publ_section_title
;
Structure prediction by ZEFSAII (Michael W. Deem and Ramdas Pophale) SiO2 
 PCOD9481332
Probable space group: C M C A
;
_chemical_formula_sum "Si O2"
_cell_formula_units_Z 108
_cell_length_a 23.141949
_cell_length_b 13.766018
_cell_length_c 14.293258
_cell_angle_alpha 90.000000
_cell_angle_beta 90.000000
_cell_angle_gamma 90.000000
_cell_volume 4553.438741
_symmetry_space_group_name_H-M "C M C A"
_symmetry_group_IT_number 64
_symmetry_cell_setting 'orthorhombic'
loop_
_space_group_symop_operation_xyz
x,y,z
-x,1/2-y,1/2+z
x,-y,-z
-x,1/2+y,1/2-z
-x,-y,-z
x,1/2+y,1/2-z
-x,y,z
x,1/2-y,1/2+z
1/2+x,1/2+y,z
1/2-x,-y,1/2+z
1/2+x,1/2-y,-z
1/2-x,y,1/2-z
1/2-x,1/2-y,-z
1/2+x,y,1/2-z
1/2-x,1/2+y,z
1/2+x,-y,1/2+z
loop_
_atom_site_type_symbol
_atom_site_label
_atom_site_fract_x
_atom_site_fract_y
_atom_site_fract_z
Si Si1 0.845179 0.366626 0.703902
Si Si2 0.236278 0.544064 0.652515
Si Si3 0.088126 0.679894 0.469449
Si Si4 0.857266 0.188279 0.840751
Si Si5 0.434656 0.474119 0.260123
Si Si6 0.167385 0.500000 0.000000
Si Si7 0.938467 0.883822 0.460768
Si Si8 0.500000 0.500000 0.000000
O O1 0.796225 0.447472 0.688153
O O2 0.857739 0.334575 0.598122
O O3 0.836632 0.277864 0.776194
O O4 0.901979 0.426000 0.738186
O O5 0.250000 0.596849 0.750000
O O6 0.191902 0.621433 0.609267
O O7 0.290481 0.518841 0.587937
O O8 0.101721 0.716524 0.573765
O O9 0.060310 0.774594 0.423632
O O10 0.050397 0.583299 0.478301
O O11 0.894978 0.111746 0.780882
O O12 0.500000 0.472703 0.218747
O O13 0.438068 0.452487 0.369622
O O14 0.122424 0.589160 0.008595
O O15 0.000000 0.896095 0.512351
#
# Coordination Sequence:
#
# PCOD9481332 Si02
#       8
#    16  16  16  16  16   8  16   4
#     4  11  25  47  73 108 153 204 254 328 386 445
#     4  11  26  48  74 106 142 200 261 322 379 454
#     4  12  26  43  76 107 156 197 253 312 375 464
#     4  11  25  46  71 109 152 196 266 317 384 460
#     4  10  23  43  72 108 153 206 254 306 385 464
#     4  12  25  49  82 104 156 204 254 322 402 454
#     4  11  25  48  73 116 154 198 248 308 381 476
#     4  12  24  46  72 114 150 198 246 310 370 450
#
# _framework density 23.718339
#
# number of rings (size 3 to 8) (size 9 to 14) (size 15 to 20)
#    0.000    0.889    2.222    4.667    8.296    1.185 
#    0.000    1.481    0.000    0.000    0.000    0.000 
#    0.000    0.000    0.000    0.000    0.000    0.000 
#
# Total GULP energy -300979.918323 kJ/mol
# GULP energy per Si atom -5573.702191 kJ/mol
# Density = 2.366436 g / cm^3
# Si number density = 23.718339 Si / 1000 Ang^3
#
#
#
# Elastic Constant Matrix: (Units=GPa)
#
#
# Indices 1 2 3 4 5 6 
#
# 1 141.4584 47.9438 23.5642 0.0000 0.0000 0.0000
# 2 47.9438 148.3223 22.8678 0.0000 0.0000 0.0000
# 3 23.5642 22.8678 83.6545 0.0000 0.0000 0.0000
# 4 0.0000 0.0000 0.0000 27.6463 0.0000 0.0000
# 5 0.0000 0.0000 0.0000 0.0000 29.7482 0.0000
# 6 0.0000 0.0000 0.0000 0.0000 0.0000 -37.9332
#
#
#
# Elastic Compliance Matrix: (Units=1/GPa)
#
#
# Indices 1 2 3 4 5 6 
#
# 1 0.008150 -0.002381 -0.001645 0.000000 0.000000 0.000000
# 2 -0.002381 0.007734 -0.001444 0.000000 0.000000 0.000000
# 3 -0.001645 -0.001444 0.012812 0.000000 0.000000 0.000000
# 4 0.000000 0.000000 0.000000 0.036171 0.000000 0.000000
# 5 0.000000 0.000000 0.000000 0.000000 0.033615 0.000000
# 6 0.000000 0.000000 0.000000 0.000000 0.000000 -0.026362
#
#
# Mechanical properties :
#
#
# Convention : Reuss Voigt Hill
#
# Bulk Modulus (GPa) = 56.31414 62.46522 59.38968
# Shear Modulus (GPa) = 56.19318 22.49622 39.34470
#
# Velocity S-wave (km/s) = 4.87271 3.08307 4.07729
# Velocity P-wave (km/s) = 7.44662 6.25038 6.87457
#
# Compressibility (1/GPa) = 0.01775753
#
# Stress axis : x y z
#
# Youngs Moduli (GPa) = 122.69696 129.29537 78.05246
#
# Poissons Ratio (x) = 0.30783 0.12839
# Poissons Ratio (y) = 0.29212 0.11267
# Poissons Ratio (z) = 0.20183 0.18665
#
# Static dielectric constant tensor:
#      x y z
#    x 2.037420 0.000000 0.000000 
#    y 0.000000 1.908430 0.000000 
#    z 0.000000 0.000000 2.048480 
# 
# From -- ./inp_files/27463.got.cif
#   From: 2010.05.17/outbox.cif.g08.bks.cpg/sg64_14_cif.got.tgz:27463.got - 2010.06.03 16:29:19.
