data_PCOD9481283
_publ_section_title
;
Structure prediction by ZEFSAII (Michael W. Deem and Ramdas Pophale) SiO2 
 PCOD9481283
Probable space group: C M C A
;
_chemical_formula_sum "Si O2"
_cell_formula_units_Z 64
_cell_length_a 16.590226
_cell_length_b 10.822688
_cell_length_c 15.274315
_cell_angle_alpha 90.000000
_cell_angle_beta 90.000000
_cell_angle_gamma 90.000000
_cell_volume 2742.516086
_symmetry_space_group_name_H-M "C M C A"
_symmetry_group_IT_number 64
_symmetry_cell_setting 'orthorhombic'
loop_
_space_group_symop_operation_xyz
x,y,z
-x,1/2-y,1/2+z
x,-y,-z
-x,1/2+y,1/2-z
-x,-y,-z
x,1/2+y,1/2-z
-x,y,z
x,1/2-y,1/2+z
1/2+x,1/2+y,z
1/2-x,-y,1/2+z
1/2+x,1/2-y,-z
1/2-x,y,1/2-z
1/2-x,1/2-y,-z
1/2+x,y,1/2-z
1/2-x,1/2+y,z
1/2+x,-y,1/2+z
loop_
_atom_site_type_symbol
_atom_site_label
_atom_site_fract_x
_atom_site_fract_y
_atom_site_fract_z
Si Si1 0.500000 0.141843 0.029570
Si Si2 0.751282 0.000000 0.500000
Si Si3 0.137869 0.299480 0.428950
Si Si4 0.500000 0.018339 0.603260
Si Si5 0.000000 0.425780 0.775440
Si Si6 0.820988 0.567760 0.179626
O O1 0.418666 0.214452 0.008334
O O2 0.500000 0.155381 0.136248
O O3 0.500000 0.000000 0.000000
O O4 0.697323 0.122502 0.510150
O O5 0.800815 0.001447 0.411120
O O6 0.174176 0.210980 0.353983
O O7 0.079743 0.399938 0.383682
O O8 0.500000 0.000000 0.500000
O O9 0.500000 0.904449 0.670705
O O10 0.090939 0.477839 0.788895
O O11 0.750000 0.551881 0.250000
#
# Coordination Sequence:
#
# PCOD9481283 Si02
#       6
#     8   8  16   8   8  16
#     4   9  21  44  70 107 149 189 244 302 378 450
#     4  12  24  46  72 106 150 200 254 307 380 447
#     4  10  23  42  69 106 146 190 249 304 371 451
#     4  11  21  43  74 101 142 185 250 313 366 444
#     4  10  24  44  71 102 141 198 243 303 377 452
#     4  11  26  46  72 108 154 194 253 312 380 448
#
# _framework density 23.336236
#
# number of rings (size 3 to 8) (size 9 to 14) (size 15 to 20)
#    0.000    1.500    1.250    3.000    7.000    3.000 
#    4.500    2.500    0.000    0.000    0.000    0.000 
#    0.000    0.000    0.000    0.000    0.000    0.000 
#
# Total GULP energy -178196.740539 kJ/mol
# GULP energy per Si atom -5568.648142 kJ/mol
# Density = 2.328312 g / cm^3
# Si number density = 23.336236 Si / 1000 Ang^3
#
#
#
# Elastic Constant Matrix: (Units=GPa)
#
#
# Indices 1 2 3 4 5 6 
#
# 1 172.7812 32.2906 74.7351 0.0000 0.0000 0.0000
# 2 32.2906 77.7264 40.7967 0.0000 0.0000 0.0000
# 3 74.7351 40.7967 154.2105 0.0000 0.0000 0.0000
# 4 0.0000 0.0000 0.0000 33.3654 0.0000 0.0000
# 5 0.0000 0.0000 0.0000 0.0000 28.9076 0.0000
# 6 0.0000 0.0000 0.0000 0.0000 0.0000 5.3688
#
#
#
# Elastic Compliance Matrix: (Units=1/GPa)
#
#
# Indices 1 2 3 4 5 6 
#
# 1 0.007450 -0.001394 -0.003242 0.000000 0.000000 0.000000
# 2 -0.001394 0.015201 -0.003346 0.000000 0.000000 0.000000
# 3 -0.003242 -0.003346 0.008941 0.000000 0.000000 0.000000
# 4 0.000000 0.000000 0.000000 0.029971 0.000000 0.000000
# 5 0.000000 0.000000 0.000000 0.000000 0.034593 0.000000
# 6 0.000000 0.000000 0.000000 0.000000 0.000000 0.186261
#
#
# Mechanical properties :
#
#
# Convention : Reuss Voigt Hill
#
# Bulk Modulus (GPa) = 63.98350 77.81810 70.90080
# Shear Modulus (GPa) = 16.46956 30.65473 23.56215
#
# Velocity S-wave (km/s) = 2.65948 3.62831 3.18099
# Velocity P-wave (km/s) = 6.07520 7.13945 6.62872
#
# Compressibility (1/GPa) = 0.01562903
#
# Stress axis : x y z
#
# Youngs Moduli (GPa) = 134.22062 65.78590 111.84382
#
# Poissons Ratio (x) = 0.09167 0.36260
# Poissons Ratio (y) = 0.18704 0.37424
# Poissons Ratio (z) = 0.43515 0.22012
#
# Static dielectric constant tensor:
#      x y z
#    x 1.989070 0.000000 0.000000 
#    y 0.000000 1.938580 0.000000 
#    z 0.000000 0.000000 1.899290 
# 
# From -- ./inp_files/24956.got.cif
#   From: 2010.05.17/outbox.cif.g08.bks.cpg/sg64_13_cif.got.tgz:24956.got - 2010.06.03 16:29:19.
