data_PCOD9481076
_publ_section_title
;
Structure prediction by ZEFSAII (Michael W. Deem and Ramdas Pophale) SiO2 
 PCOD9481076
Probable space group: C M C A
;
_chemical_formula_sum "Si O2"
_cell_formula_units_Z 80
_cell_length_a 25.459839
_cell_length_b 8.596888
_cell_length_c 18.168934
_cell_angle_alpha 90.000000
_cell_angle_beta 90.000000
_cell_angle_gamma 90.000000
_cell_volume 3976.732413
_symmetry_space_group_name_H-M "C M C A"
_symmetry_group_IT_number 64
_symmetry_cell_setting 'orthorhombic'
loop_
_space_group_symop_operation_xyz
x,y,z
-x,1/2-y,1/2+z
x,-y,-z
-x,1/2+y,1/2-z
-x,-y,-z
x,1/2+y,1/2-z
-x,y,z
x,1/2-y,1/2+z
1/2+x,1/2+y,z
1/2-x,-y,1/2+z
1/2+x,1/2-y,-z
1/2-x,y,1/2-z
1/2-x,1/2-y,-z
1/2+x,y,1/2-z
1/2-x,1/2+y,z
1/2+x,-y,1/2+z
loop_
_atom_site_type_symbol
_atom_site_label
_atom_site_fract_x
_atom_site_fract_y
_atom_site_fract_z
Si Si1 0.272121 0.087701 0.928363
Si Si2 0.645721 0.065550 0.167673
Si Si3 0.060786 0.598982 0.924675
Si Si4 0.825682 0.412603 0.318181
Si Si5 0.144385 0.137918 0.059228
O O1 0.228563 0.112261 0.864561
O O2 0.305825 0.243021 0.945225
O O3 0.315238 0.965944 0.899662
O O4 0.250398 0.000000 0.000000
O O5 0.644471 0.248609 0.181584
O O6 0.591206 0.990401 0.141240
O O7 0.673681 0.975506 0.235195
O O8 0.093349 0.754310 0.941632
O O9 0.000000 0.626171 0.906896
O O10 0.063571 0.500000 0.000000
O O11 0.852866 0.549906 0.363372
O O12 0.141563 0.000000 0.000000
#
# Coordination Sequence:
#
# PCOD9481076 Si02
#       5
#    16  16  16  16  16
#     4  11  23  39  60  89 127 169 209 250 302 366
#     4  11  23  41  61  88 124 163 206 256 310 367
#     4  10  22  43  69  94 122 158 204 261 319 373
#     4  12  24  39  60  88 124 166 210 254 306 368
#     4  11  22  39  64  95 130 165 206 256 308 369
#
# _framework density 20.117018999999999
#
# number of rings (size 3 to 8) (size 9 to 14) (size 15 to 20)
#    0.000    1.000    0.000    9.600    0.000    4.400 
#    0.000    8.000    0.000    0.000    0.000    0.000 
#    0.000    0.000    0.000    0.000    0.000    0.000 
#
# Total GULP energy -223427.763294 kJ/mol
# GULP energy per Si atom -5585.694082 kJ/mol
# Density = 2.007123 g / cm^3
# Si number density = 20.117019 Si / 1000 Ang^3
#
#
#
# Elastic Constant Matrix: (Units=GPa)
#
#
# Indices 1 2 3 4 5 6 
#
# 1 161.8859 66.2597 46.7353 0.0000 0.0000 0.0000
# 2 66.2597 156.0172 43.3764 0.0000 0.0000 0.0000
# 3 46.7353 43.3764 92.0443 0.0000 0.0000 0.0000
# 4 0.0000 0.0000 0.0000 41.4279 0.0000 0.0000
# 5 0.0000 0.0000 0.0000 0.0000 32.5583 0.0000
# 6 0.0000 0.0000 0.0000 0.0000 0.0000 -7.2984
#
#
#
# Elastic Compliance Matrix: (Units=1/GPa)
#
#
# Indices 1 2 3 4 5 6 
#
# 1 0.008083 -0.002637 -0.002861 0.000000 0.000000 0.000000
# 2 -0.002637 0.008236 -0.002542 0.000000 0.000000 0.000000
# 3 -0.002861 -0.002542 0.013515 0.000000 0.000000 0.000000
# 4 0.000000 0.000000 0.000000 0.024138 0.000000 0.000000
# 5 0.000000 0.000000 0.000000 0.000000 0.030714 0.000000
# 6 0.000000 0.000000 0.000000 0.000000 0.000000 -0.137016
#
#
# Mechanical properties :
#
#
# Convention : Reuss Voigt Hill
#
# Bulk Modulus (GPa) = 72.71294 80.29891 76.50592
# Shear Modulus (GPa) = -157.90810 30.24262 -63.83274
#
# Velocity S-wave (km/s) = -8.86934 3.88149 -5.63911
# Velocity P-wave (km/s) = 8.28634 7.75181 2.07038
#
# Compressibility (1/GPa) = 0.01375271
#
# Stress axis : x y z
#
# Youngs Moduli (GPa) = 123.72308 121.41239 73.99076
#
# Poissons Ratio (x) = 0.32018 0.21170
# Poissons Ratio (y) = 0.32628 0.18812
# Poissons Ratio (z) = 0.35399 0.30868
#
# Static dielectric constant tensor:
#      x y z
#    x 1.714300 0.000000 0.000000 
#    y 0.000000 1.707230 0.000000 
#    z 0.000000 0.000000 1.966120 
# 
# From -- ./inp_files/35331.got.cif
#   From: 2010.05.17/outbox.cif.g08.bks.cpg/sg64_18_cif.got.tgz:35331.got - 2010.06.03 16:29:19.
