data_PCOD9481714
_publ_section_title
;
Structure prediction by ZEFSAII (Michael W. Deem and Ramdas Pophale) SiO2 
 PCOD9481714
Probable space group: C M C A
;
_chemical_formula_sum "Si O2"
_cell_formula_units_Z 64
_cell_length_a 15.482623
_cell_length_b 10.339263
_cell_length_c 17.712049
_cell_angle_alpha 90.000000
_cell_angle_beta 90.000000
_cell_angle_gamma 90.000000
_cell_volume 2835.325518
_symmetry_space_group_name_H-M "C M C A"
_symmetry_group_IT_number 64
_symmetry_cell_setting 'orthorhombic'
loop_
_space_group_symop_operation_xyz
x,y,z
-x,1/2-y,1/2+z
x,-y,-z
-x,1/2+y,1/2-z
-x,-y,-z
x,1/2+y,1/2-z
-x,y,z
x,1/2-y,1/2+z
1/2+x,1/2+y,z
1/2-x,-y,1/2+z
1/2+x,1/2-y,-z
1/2-x,y,1/2-z
1/2-x,1/2-y,-z
1/2+x,y,1/2-z
1/2-x,1/2+y,z
1/2+x,-y,1/2+z
loop_
_atom_site_type_symbol
_atom_site_label
_atom_site_fract_x
_atom_site_fract_y
_atom_site_fract_z
Si Si1 0.900396 0.690735 0.535121
Si Si2 0.500000 0.957519 0.163346
Si Si3 0.000000 0.180915 0.221194
Si Si4 0.832648 0.459007 0.914467
Si Si5 0.852094 0.429564 0.615853
O O1 0.864126 0.812022 0.579381
O O2 0.893798 0.561993 0.585152
O O3 0.850194 0.664229 0.457288
O O4 0.000000 0.713758 0.514623
O O5 0.500000 0.836589 0.220830
O O6 0.500000 0.097283 0.203280
O O7 0.412660 0.955507 0.114274
O O8 0.914350 0.133902 0.176757
O O9 0.746568 0.462731 0.864243
O O10 0.810207 0.500000 0.000000
#
# Coordination Sequence:
#
# PCOD9481714 Si02
#       5
#    16   8   8  16  16
#     4  11  20  39  69 104 139 175 221 279 363 392
#     4  12  31  48  70  99 139 195 231 285 344 410
#     4  12  28  51  70  96 141 185 241 276 344 431
#     4  12  25  43  70 108 141 175 231 295 351 410
#     4  11  23  41  72 103 137 178 223 287 347 419
#
# _framework density 22.572364
#
# number of rings (size 3 to 8) (size 9 to 14) (size 15 to 20)
#    0.000    0.500    6.250    3.375    7.000    1.000 
#    0.000    2.500    0.000    0.000    0.000    0.000 
#    0.000    0.000    0.000    0.000    0.000    0.000 
#
# Total GULP energy -179119.778538 kJ/mol
# GULP energy per Si atom -5597.493079 kJ/mol
# Density = 2.252099 g / cm^3
# Si number density = 22.572364 Si / 1000 Ang^3
#
#
#
# Elastic Constant Matrix: (Units=GPa)
#
#
# Indices 1 2 3 4 5 6 
#
# 1 171.5133 7.7259 16.7894 0.0000 0.0000 0.0000
# 2 7.7259 81.8126 3.9942 0.0000 0.0000 0.0000
# 3 16.7894 3.9942 29.9913 0.0000 0.0000 0.0000
# 4 0.0000 0.0000 0.0000 25.2813 0.0000 0.0000
# 5 0.0000 0.0000 0.0000 0.0000 7.4930 0.0000
# 6 0.0000 0.0000 0.0000 0.0000 0.0000 18.9930
#
#
#
# Elastic Compliance Matrix: (Units=1/GPa)
#
#
# Indices 1 2 3 4 5 6 
#
# 1 0.006183 -0.000418 -0.003405 0.000000 0.000000 0.000000
# 2 -0.000418 0.012331 -0.001409 0.000000 0.000000 0.000000
# 3 -0.003405 -0.001409 0.035437 0.000000 0.000000 0.000000
# 4 0.000000 0.000000 0.000000 0.039555 0.000000 0.000000
# 5 0.000000 0.000000 0.000000 0.000000 0.133457 0.000000
# 6 0.000000 0.000000 0.000000 0.000000 0.000000 0.052651
#
#
# Mechanical properties :
#
#
# Convention : Reuss Voigt Hill
#
# Bulk Modulus (GPa) = 22.99495 37.81512 30.40503
# Shear Modulus (GPa) = 16.41641 27.34064 21.87852
#
# Velocity S-wave (km/s) = 2.69974 3.48407 3.11667
# Velocity P-wave (km/s) = 4.46402 5.74232 5.14304
#
# Compressibility (1/GPa) = 0.04348781
#
# Stress axis : x y z
#
# Youngs Moduli (GPa) = 161.74365 81.09471 28.21905
#
# Poissons Ratio (x) = 0.03386 0.09610
# Poissons Ratio (y) = 0.06754 0.03975
# Poissons Ratio (z) = 0.55081 0.11422
#
# Static dielectric constant tensor:
#      x y z
#    x 1.864900 0.000000 0.000000 
#    y 0.000000 1.827810 0.000000 
#    z 0.000000 0.000000 1.835380 
# 
# From -- ./inp_files/31679.got.cif
#   From: 2010.05.17/outbox.cif.g08.bks.cpg/sg64_16_cif.got.tgz:31679.got - 2010.06.03 16:29:19.
