data_PCOD9481631
_publ_section_title
;
Structure prediction by ZEFSAII (Michael W. Deem and Ramdas Pophale) SiO2 
 PCOD9481631
Probable space group: C M C A
;
_chemical_formula_sum "Si O2"
_cell_formula_units_Z 72
_cell_length_a 14.044604
_cell_length_b 11.733407
_cell_length_c 19.558358
_cell_angle_alpha 90.000000
_cell_angle_beta 90.000000
_cell_angle_gamma 90.000000
_cell_volume 3223.042447
_symmetry_space_group_name_H-M "C M C A"
_symmetry_group_IT_number 64
_symmetry_cell_setting 'orthorhombic'
loop_
_space_group_symop_operation_xyz
x,y,z
-x,1/2-y,1/2+z
x,-y,-z
-x,1/2+y,1/2-z
-x,-y,-z
x,1/2+y,1/2-z
-x,y,z
x,1/2-y,1/2+z
1/2+x,1/2+y,z
1/2-x,-y,1/2+z
1/2+x,1/2-y,-z
1/2-x,y,1/2-z
1/2-x,1/2-y,-z
1/2+x,y,1/2-z
1/2-x,1/2+y,z
1/2+x,-y,1/2+z
loop_
_atom_site_type_symbol
_atom_site_label
_atom_site_fract_x
_atom_site_fract_y
_atom_site_fract_z
Si Si1 0.862620 0.332931 0.159654
Si Si2 0.500000 0.904690 0.274578
Si Si3 0.000000 0.896389 0.071223
Si Si4 0.106019 0.453483 0.931331
Si Si5 0.000000 0.125534 0.141358
Si Si6 0.192687 0.223724 0.930255
O O1 0.905803 0.363095 0.234050
O O2 0.901679 0.439547 0.117074
O O3 0.755157 0.329599 0.131008
O O4 0.910756 0.211615 0.140925
O O5 0.500000 0.852383 0.349623
O O6 0.500000 0.040823 0.292253
O O7 0.899270 0.848780 0.046660
O O8 0.000000 0.033828 0.079742
O O9 0.160046 0.346497 0.902446
O O10 0.000000 0.412157 0.950797
O O11 0.154487 0.500000 0.000000
O O12 0.250000 0.250000 0.000000
#
# Coordination Sequence:
#
# PCOD9481631 Si02
#       6
#    16   8   8  16   8  16
#     4  11  23  44  78 105 142 198 246 299 377 446
#     4   9  23  47  71 100 148 186 249 306 370 436
#     4  10  26  49  67 102 153 190 245 319 369 429
#     4  11  22  40  68 105 152 188 238 301 368 440
#     4   9  23  46  71 101 142 186 244 310 369 435
#     4  12  26  44  74 112 152 195 246 303 378 459
#
# _framework density 22.33914
#
# number of rings (size 3 to 8) (size 9 to 14) (size 15 to 20)
#    0.667    0.667    5.556    0.000    3.111    6.222 
#    0.000    1.111    0.000    0.000    0.000    0.000 
#    0.000    0.000    0.000    0.000    0.000    0.000 
#
# Total GULP energy -200598.080525 kJ/mol
# GULP energy per Si atom -5572.168903 kJ/mol
# Density = 2.228829 g / cm^3
# Si number density = 22.339140 Si / 1000 Ang^3
#
#
#
# Elastic Constant Matrix: (Units=GPa)
#
#
# Indices 1 2 3 4 5 6 
#
# 1 122.0106 50.8605 25.3771 0.0000 0.0000 0.0000
# 2 50.8605 140.6348 7.7386 0.0000 0.0000 0.0000
# 3 25.3771 7.7386 61.7887 0.0000 0.0000 0.0000
# 4 0.0000 0.0000 0.0000 42.6601 0.0000 0.0000
# 5 0.0000 0.0000 0.0000 0.0000 43.1604 0.0000
# 6 0.0000 0.0000 0.0000 0.0000 0.0000 -372.2575
#
#
#
# Elastic Compliance Matrix: (Units=1/GPa)
#
#
# Indices 1 2 3 4 5 6 
#
# 1 0.010492 -0.003582 -0.003861 0.000000 0.000000 0.000000
# 2 -0.003582 0.008383 0.000421 0.000000 0.000000 0.000000
# 3 -0.003861 0.000421 0.017717 0.000000 0.000000 0.000000
# 4 0.000000 0.000000 0.000000 0.023441 0.000000 0.000000
# 5 0.000000 0.000000 0.000000 0.000000 0.023169 0.000000
# 6 0.000000 0.000000 0.000000 0.000000 0.000000 -0.002686
#
#
# Mechanical properties :
#
#
# Convention : Reuss Voigt Hill
#
# Bulk Modulus (GPa) = 44.34720 54.70961 49.52841
# Shear Modulus (GPa) = 48.98340 -41.25687 3.86326
#
# Velocity S-wave (km/s) = 4.68772 -4.30215 1.31648
# Velocity P-wave (km/s) = 7.01388 0.36658 4.95279
#
# Compressibility (1/GPa) = 0.02254934
#
# Stress axis : x y z
#
# Youngs Moduli (GPa) = 95.30918 119.29072 56.44294
#
# Poissons Ratio (x) = 0.42731 0.21790
# Poissons Ratio (y) = 0.34140 -0.02378
# Poissons Ratio (z) = 0.36795 -0.05025
#
# Static dielectric constant tensor:
#      x y z
#    x 1.875980 0.000000 0.000000 
#    y 0.000000 1.848090 0.000000 
#    z 0.000000 0.000000 1.893240 
# 
# From -- ./inp_files/44907.got.cif
#   From: 2010.05.17/outbox.cif.g08.bks.cpg/sg64_23_cif.got.tgz:44907.got - 2010.06.03 16:29:19.
