data_PCOD9481486
_publ_section_title
;
Structure prediction by ZEFSAII (Michael W. Deem and Ramdas Pophale) SiO2 
 PCOD9481486
Probable space group: C M C A
;
_chemical_formula_sum "Si O2"
_cell_formula_units_Z 116
_cell_length_a 25.189062
_cell_length_b 18.619527
_cell_length_c 10.602518
_cell_angle_alpha 90.000000
_cell_angle_beta 90.000000
_cell_angle_gamma 90.000000
_cell_volume 4972.670215
_symmetry_space_group_name_H-M "C M C A"
_symmetry_group_IT_number 64
_symmetry_cell_setting 'orthorhombic'
loop_
_space_group_symop_operation_xyz
x,y,z
-x,1/2-y,1/2+z
x,-y,-z
-x,1/2+y,1/2-z
-x,-y,-z
x,1/2+y,1/2-z
-x,y,z
x,1/2-y,1/2+z
1/2+x,1/2+y,z
1/2-x,-y,1/2+z
1/2+x,1/2-y,-z
1/2-x,y,1/2-z
1/2-x,1/2-y,-z
1/2+x,y,1/2-z
1/2-x,1/2+y,z
1/2+x,-y,1/2+z
loop_
_atom_site_type_symbol
_atom_site_label
_atom_site_fract_x
_atom_site_fract_y
_atom_site_fract_z
Si Si1 0.944355 0.016009 0.759987
Si Si2 0.500000 0.500000 0.500000
Si Si3 0.863510 0.100777 0.278626
Si Si4 0.590662 0.712889 0.460821
Si Si5 0.814737 0.200223 0.076078
Si Si6 0.729550 0.077186 0.041431
Si Si7 0.919085 0.678936 0.749822
Si Si8 0.700093 0.156678 0.819167
O O1 0.894522 0.965118 0.784309
O O2 0.000000 0.988638 0.819083
O O3 0.938053 0.099774 0.787348
O O4 0.954976 0.011667 0.610203
O O5 0.898568 0.138399 0.388083
O O6 0.852824 0.163793 0.179007
O O7 0.805993 0.077909 0.333015
O O8 0.646414 0.754841 0.485661
O O9 0.567699 0.699328 0.602620
O O10 0.563301 0.763806 0.355839
O O11 0.776069 0.136027 0.037856
O O12 0.780651 0.264877 0.134555
O O13 0.688678 0.104152 0.934521
O O14 0.749716 0.000000 0.000000
O O15 0.854859 0.670747 0.750705
O O16 0.750000 0.122867 0.750000
#
# Coordination Sequence:
#
# PCOD9481486 Si02
#       8
#    16   4  16  16  16  16  16  16
#     4  10  24  43  71  99 130 170 220 289 343 408
#     4   8  20  40  72  96 122 168 220 260 348 392
#     4  12  22  42  67  96 131 170 230 278 340 392
#     4  11  22  40  69  99 131 180 219 278 328 398
#     4  11  24  40  62  96 136 180 218 271 328 398
#     4  12  25  35  59  92 133 176 229 270 315 390
#     4  11  22  42  67 101 135 173 228 270 342 392
#     4  11  21  36  60  87 128 178 214 269 317 383
#
# _framework density 23.327507000000001
#
# number of rings (size 3 to 8) (size 9 to 14) (size 15 to 20)
#    0.414    0.552    5.517    4.138    0.966    3.310 
#    0.000    1.379    0.000    2.483    0.000    0.000 
#    0.000    0.000    0.000    0.000    0.000    0.000 
#
# Total GULP energy -323115.024855 kJ/mol
# GULP energy per Si atom -5570.948704 kJ/mol
# Density = 2.327441 g / cm^3
# Si number density = 23.327507 Si / 1000 Ang^3
#
#
#
# Elastic Constant Matrix: (Units=GPa)
#
#
# Indices 1 2 3 4 5 6 
#
# 1 71.5290 33.7530 5.1275 0.0000 0.0000 0.0000
# 2 33.7530 123.7252 7.0818 0.0000 0.0000 0.0000
# 3 5.1275 7.0818 52.5944 0.0000 0.0000 0.0000
# 4 0.0000 0.0000 0.0000 21.2000 0.0000 0.0000
# 5 0.0000 0.0000 0.0000 0.0000 0.6904 0.0000
# 6 0.0000 0.0000 0.0000 0.0000 0.0000 -53.7330
#
#
#
# Elastic Compliance Matrix: (Units=1/GPa)
#
#
# Indices 1 2 3 4 5 6 
#
# 1 0.016096 -0.004335 -0.000986 0.000000 0.000000 0.000000
# 2 -0.004335 0.009313 -0.000831 0.000000 0.000000 0.000000
# 3 -0.000986 -0.000831 0.019221 0.000000 0.000000 0.000000
# 4 0.000000 0.000000 0.000000 0.047170 0.000000 0.000000
# 5 0.000000 0.000000 0.000000 0.000000 1.448444 0.000000
# 6 0.000000 0.000000 0.000000 0.000000 0.000000 -0.018611
#
#
# Mechanical properties :
#
#
# Convention : Reuss Voigt Hill
#
# Bulk Modulus (GPa) = 30.93382 37.75258 34.34320
# Shear Modulus (GPa) = 3.23685 7.09056 5.16371
#
# Velocity S-wave (km/s) = 1.17923 1.74533 1.48942
# Velocity P-wave (km/s) = 3.89147 4.50338 4.20856
#
# Compressibility (1/GPa) = 0.03232707
#
# Stress axis : x y z
#
# Youngs Moduli (GPa) = 62.12532 107.38167 52.02520
#
# Poissons Ratio (x) = 0.46548 0.05128
# Poissons Ratio (y) = 0.26930 0.04325
# Poissons Ratio (z) = 0.06123 0.08927
#
# Static dielectric constant tensor:
#      x y z
#    x 1.922040 0.000000 0.000000 
#    y 0.000000 1.854490 0.000000 
#    z 0.000000 0.000000 1.995020 
# 
# From -- ./inp_files/19953.got.cif
#   From: 2010.05.17/outbox.cif.g08.bks.cpg/sg64_10_cif.got.tgz:19953.got - 2010.06.03 16:29:19.
