data_PCOD9481668
_publ_section_title
;
Structure prediction by ZEFSAII (Michael W. Deem and Ramdas Pophale) SiO2 
 PCOD9481668
Probable space group: C M C A
;
_chemical_formula_sum "Si O2"
_cell_formula_units_Z 80
_cell_length_a 12.918261
_cell_length_b 22.067074
_cell_length_c 13.817714
_cell_angle_alpha 90.000000
_cell_angle_beta 90.000000
_cell_angle_gamma 90.000000
_cell_volume 3938.991154
_symmetry_space_group_name_H-M "C M C A"
_symmetry_group_IT_number 64
_symmetry_cell_setting 'orthorhombic'
loop_
_space_group_symop_operation_xyz
x,y,z
-x,1/2-y,1/2+z
x,-y,-z
-x,1/2+y,1/2-z
-x,-y,-z
x,1/2+y,1/2-z
-x,y,z
x,1/2-y,1/2+z
1/2+x,1/2+y,z
1/2-x,-y,1/2+z
1/2+x,1/2-y,-z
1/2-x,y,1/2-z
1/2-x,1/2-y,-z
1/2+x,y,1/2-z
1/2-x,1/2+y,z
1/2+x,-y,1/2+z
loop_
_atom_site_type_symbol
_atom_site_label
_atom_site_fract_x
_atom_site_fract_y
_atom_site_fract_z
Si Si1 0.000000 0.976732 0.835121
Si Si2 0.500000 0.390391 0.070059
Si Si3 0.500000 0.546207 0.637171
Si Si4 0.000000 0.817655 0.405778
Si Si5 0.823427 0.000000 0.500000
Si Si6 0.822769 0.397015 0.582200
Si Si7 0.673900 0.290934 0.564257
Si Si8 0.000000 0.727400 0.695024
O O1 0.901062 0.932851 0.847423
O O2 0.000000 0.037152 0.904998
O O3 0.000000 0.008548 0.733567
O O4 0.500000 0.342109 0.156244
O O5 0.600607 0.376999 0.004680
O O6 0.500000 0.617637 0.644834
O O7 0.398245 0.527710 0.579543
O O8 0.096080 0.814383 0.480068
O O9 0.000000 0.771676 0.313106
O O10 0.752888 0.051911 0.457265
O O11 0.748331 0.341928 0.611508
O O12 0.750000 0.250000 0.500000
O O13 0.601068 0.258906 0.645117
#
# Coordination Sequence:
#
# PCOD9481668 Si02
#       8
#     8   8   8   8   8  16  16   8
#     4  11  23  39  68 108 134 166 228 293 334 401
#     4  11  19  38  69 101 130 164 222 288 334 388
#     4  11  24  40  66 102 137 169 229 280 339 411
#     4  11  24  43  72  99 131 183 236 294 336 409
#     4  11  22  41  64  96 136 177 216 275 348 416
#     4  11  21  41  67  95 137 181 212 272 357 410
#     4  11  24  44  68  96 137 190 225 280 355 407
#     4  11  24  42  69 104 134 170 245 292 321 409
#
# _framework density 20.30977
#
# number of rings (size 3 to 8) (size 9 to 14) (size 15 to 20)
#    0.000    1.000    7.000    0.600    0.000    1.600 
#    0.000   10.000    0.000    0.000    0.000    0.000 
#    0.000    0.000    0.000    0.000    0.000    0.000 
#
# Total GULP energy -223140.302751 kJ/mol
# GULP energy per Si atom -5578.507569 kJ/mol
# Density = 2.026354 g / cm^3
# Si number density = 20.309770 Si / 1000 Ang^3
#
#
#
# Elastic Constant Matrix: (Units=GPa)
#
#
# Indices 1 2 3 4 5 6 
#
# 1 154.9558 61.7432 39.8322 0.0000 0.0000 0.0000
# 2 61.7432 112.5370 30.0354 0.0000 0.0000 0.0000
# 3 39.8322 30.0354 102.5513 0.0000 0.0000 0.0000
# 4 0.0000 0.0000 0.0000 13.0108 0.0000 0.0000
# 5 0.0000 0.0000 0.0000 0.0000 27.6863 0.0000
# 6 0.0000 0.0000 0.0000 0.0000 0.0000 -65.4833
#
#
#
# Elastic Compliance Matrix: (Units=1/GPa)
#
#
# Indices 1 2 3 4 5 6 
#
# 1 0.008672 -0.004186 -0.002142 0.000000 0.000000 0.000000
# 2 -0.004186 0.011660 -0.001789 0.000000 0.000000 0.000000
# 3 -0.002142 -0.001789 0.011107 0.000000 0.000000 0.000000
# 4 0.000000 0.000000 0.000000 0.076859 0.000000 0.000000
# 5 0.000000 0.000000 0.000000 0.000000 0.036119 0.000000
# 6 0.000000 0.000000 0.000000 0.000000 0.000000 -0.015271
#
#
# Mechanical properties :
#
#
# Convention : Reuss Voigt Hill
#
# Bulk Modulus (GPa) = 65.77009 70.36284 68.06646
# Shear Modulus (GPa) = 33.23363 10.93833 22.08598
#
# Velocity S-wave (km/s) = 4.04955 2.32324 3.30124
# Velocity P-wave (km/s) = 7.37014 6.47430 6.93670
#
# Compressibility (1/GPa) = 0.01520448
#
# Stress axis : x y z
#
# Youngs Moduli (GPa) = 115.31146 85.76176 90.03083
#
# Poissons Ratio (x) = 0.35902 0.19287
# Poissons Ratio (y) = 0.48272 0.16107
# Poissons Ratio (z) = 0.24703 0.15344
#
# Static dielectric constant tensor:
#      x y z
#    x 1.667890 0.000000 0.000000 
#    y 0.000000 1.760960 0.000000 
#    z 0.000000 0.000000 1.692290 
# 
# From -- ./inp_files/22417.got.cif
#   From: 2010.05.17/outbox.cif.g08.bks.cpg/sg64_12_cif.got.tgz:22417.got - 2010.06.03 16:29:19.
