data_PCOD9481686
_publ_section_title
;
Structure prediction by ZEFSAII (Michael W. Deem and Ramdas Pophale) SiO2 
 PCOD9481686
Probable space group: C M C A
;
_chemical_formula_sum "Si O2"
_cell_formula_units_Z 64
_cell_length_a 16.403023
_cell_length_b 10.348103
_cell_length_c 14.438832
_cell_angle_alpha 90.000000
_cell_angle_beta 90.000000
_cell_angle_gamma 90.000000
_cell_volume 2450.849820
_symmetry_space_group_name_H-M "C M C A"
_symmetry_group_IT_number 64
_symmetry_cell_setting 'orthorhombic'
loop_
_space_group_symop_operation_xyz
x,y,z
-x,1/2-y,1/2+z
x,-y,-z
-x,1/2+y,1/2-z
-x,-y,-z
x,1/2+y,1/2-z
-x,y,z
x,1/2-y,1/2+z
1/2+x,1/2+y,z
1/2-x,-y,1/2+z
1/2+x,1/2-y,-z
1/2-x,y,1/2-z
1/2-x,1/2-y,-z
1/2+x,y,1/2-z
1/2-x,1/2+y,z
1/2+x,-y,1/2+z
loop_
_atom_site_type_symbol
_atom_site_label
_atom_site_fract_x
_atom_site_fract_y
_atom_site_fract_z
Si Si1 0.093845 0.314816 0.014990
Si Si2 0.840442 0.065243 0.676609
Si Si3 0.340648 0.836197 0.360270
Si Si4 0.406430 0.407614 0.836510
O O1 0.106074 0.434875 0.084881
O O2 0.115244 0.199067 0.087683
O O3 0.000000 0.305759 0.986970
O O4 0.150329 0.284239 0.927396
O O5 0.750345 0.104163 0.643532
O O6 0.865191 0.176395 0.751998
O O7 0.852493 0.943712 0.745057
O O8 0.398497 0.954005 0.390361
O O9 0.500000 0.388458 0.807192
#
# Coordination Sequence:
#
# PCOD9481686 Si02
#       4
#    16  16  16  16
#     4  11  20  32  61  85 105 149 184 225 279 320
#     4   9  20  36  51  80 118 141 177 226 278 321
#     4   9  19  36  51  80 113 141 183 226 269 322
#     4   9  18  34  55  83 110 135 184 232 266 323
#
# _framework density 26.113391
#
# number of rings (size 3 to 8) (size 9 to 14) (size 15 to 20)
#    1.500    1.000    0.000    3.000    0.000    2.000 
#    9.000    0.000    0.000    0.000    0.000    5.250 
#    0.000    0.000    0.000    0.000    0.000    0.000 
#
# Total GULP energy -178383.231928 kJ/mol
# GULP energy per Si atom -5574.475998 kJ/mol
# Density = 2.605396 g / cm^3
# Si number density = 26.113391 Si / 1000 Ang^3
#
#
#
# Elastic Constant Matrix: (Units=GPa)
#
#
# Indices 1 2 3 4 5 6 
#
# 1 102.3693 -5.3396 44.6042 0.0000 0.0000 0.0000
# 2 -5.3396 71.2476 9.2843 0.0000 0.0000 0.0000
# 3 44.6042 9.2843 139.5843 0.0000 0.0000 0.0000
# 4 0.0000 0.0000 0.0000 51.3847 0.0000 0.0000
# 5 0.0000 0.0000 0.0000 0.0000 21.0249 0.0000
# 6 0.0000 0.0000 0.0000 0.0000 0.0000 10.1775
#
#
#
# Elastic Compliance Matrix: (Units=1/GPa)
#
#
# Indices 1 2 3 4 5 6 
#
# 1 0.011476 0.001350 -0.003757 0.000000 0.000000 0.000000
# 2 0.001350 0.014317 -0.001384 0.000000 0.000000 0.000000
# 3 -0.003757 -0.001384 0.008457 0.000000 0.000000 0.000000
# 4 0.000000 0.000000 0.000000 0.019461 0.000000 0.000000
# 5 0.000000 0.000000 0.000000 0.000000 0.047563 0.000000
# 6 0.000000 0.000000 0.000000 0.000000 0.000000 0.098256
#
#
# Mechanical properties :
#
#
# Convention : Reuss Voigt Hill
#
# Bulk Modulus (GPa) = 37.49828 45.58879 41.54353
# Shear Modulus (GPa) = 23.14815 34.16091 28.65453
#
# Velocity S-wave (km/s) = 2.98056 3.62080 3.31616
# Velocity P-wave (km/s) = 5.12210 5.91406 5.53227
#
# Compressibility (1/GPa) = 0.02666789
#
# Stress axis : x y z
#
# Youngs Moduli (GPa) = 87.13909 69.84711 118.24979
#
# Poissons Ratio (x) = -0.09427 0.44425
# Poissons Ratio (y) = -0.11760 0.16360
# Poissons Ratio (z) = 0.32737 0.09664
#
# Static dielectric constant tensor:
#      x y z
#    x 2.008590 0.000000 0.000000 
#    y 0.000000 2.331280 0.000000 
#    z 0.000000 0.000000 2.071610 
# 
# From -- ./inp_files/32764.got.cif
#   From: 2010.05.17/outbox.cif.g08.bks.cpg/sg64_17_cif.got.tgz:32764.got - 2010.06.03 16:29:19.
