data_PCOD9481724
_publ_section_title
;
Structure prediction by ZEFSAII (Michael W. Deem and Ramdas Pophale) SiO2 
 PCOD9481724
Probable space group: C M C A
;
_chemical_formula_sum "Si O2"
_cell_formula_units_Z 88
_cell_length_a 22.498414
_cell_length_b 15.332747
_cell_length_c 12.160256
_cell_angle_alpha 90.000000
_cell_angle_beta 90.000000
_cell_angle_gamma 90.000000
_cell_volume 4194.832186
_symmetry_space_group_name_H-M "C M C A"
_symmetry_group_IT_number 64
_symmetry_cell_setting 'orthorhombic'
loop_
_space_group_symop_operation_xyz
x,y,z
-x,1/2-y,1/2+z
x,-y,-z
-x,1/2+y,1/2-z
-x,-y,-z
x,1/2+y,1/2-z
-x,y,z
x,1/2-y,1/2+z
1/2+x,1/2+y,z
1/2-x,-y,1/2+z
1/2+x,1/2-y,-z
1/2-x,y,1/2-z
1/2-x,1/2-y,-z
1/2+x,y,1/2-z
1/2-x,1/2+y,z
1/2+x,-y,1/2+z
loop_
_atom_site_type_symbol
_atom_site_label
_atom_site_fract_x
_atom_site_fract_y
_atom_site_fract_z
Si Si1 0.902592 0.244174 0.620432
Si Si2 0.308276 0.816277 0.287913
Si Si3 0.652641 0.099082 0.505403
Si Si4 0.773176 0.373116 0.870672
Si Si5 0.406596 0.591806 0.443544
Si Si6 0.500000 0.325060 0.721761
O O1 0.843213 0.214097 0.681700
O O2 0.889249 0.334580 0.558853
O O3 0.917263 0.170060 0.531469
O O4 0.949281 0.265821 0.714341
O O5 0.250000 0.866814 0.250000
O O6 0.347132 0.872435 0.368595
O O7 0.286775 0.730321 0.354518
O O8 0.719536 0.109265 0.455433
O O9 0.633506 0.000000 0.500000
O O10 0.750000 0.402785 0.750000
O O11 0.836822 0.410536 0.907888
O O12 0.421474 0.500000 0.500000
O O13 0.447581 0.617413 0.340855
#
# Coordination Sequence:
#
# PCOD9481724 Si02
#       6
#    16  16  16  16  16   8
#     4  12  24  45  69  93 137 180 221 285 345 407
#     4  11  21  40  67  93 135 181 218 267 343 410
#     4  12  24  40  65 103 138 174 220 275 338 412
#     4  11  20  41  69  98 140 179 221 272 340 410
#     4  12  26  46  71 103 135 179 238 289 339 407
#     4  12  25  46  68  94 127 176 231 282 341 394
#
# _framework density 20.978193999999998
#
# number of rings (size 3 to 8) (size 9 to 14) (size 15 to 20)
#    0.000    0.364    7.273    3.000    0.000    3.636 
#    0.000    2.273    0.000    0.000    0.000    0.000 
#    0.000    0.000    0.000    0.000    0.000    0.000 
#
# Total GULP energy -244958.333425 kJ/mol
# GULP energy per Si atom -5567.234851 kJ/mol
# Density = 2.093045 g / cm^3
# Si number density = 20.978194 Si / 1000 Ang^3
#
#
#
# Elastic Constant Matrix: (Units=GPa)
#
#
# Indices 1 2 3 4 5 6 
#
# 1 73.1132 15.0535 -4.6984 0.0000 0.0000 0.0000
# 2 15.0535 123.2341 34.6859 0.0000 0.0000 0.0000
# 3 -4.6984 34.6859 48.2915 0.0000 0.0000 0.0000
# 4 0.0000 0.0000 0.0000 -28.9552 0.0000 0.0000
# 5 0.0000 0.0000 0.0000 0.0000 -10.8611 0.0000
# 6 0.0000 0.0000 0.0000 0.0000 0.0000 15.1446
#
#
#
# Elastic Compliance Matrix: (Units=1/GPa)
#
#
# Indices 1 2 3 4 5 6 
#
# 1 0.014450 -0.002708 0.003351 0.000000 0.000000 0.000000
# 2 -0.002708 0.010678 -0.007933 0.000000 0.000000 0.000000
# 3 0.003351 -0.007933 0.026732 0.000000 0.000000 0.000000
# 4 0.000000 0.000000 0.000000 -0.034536 0.000000 0.000000
# 5 0.000000 0.000000 0.000000 0.000000 -0.092072 0.000000
# 6 0.000000 0.000000 0.000000 0.000000 0.000000 0.066030
#
#
# Mechanical properties :
#
#
# Convention : Reuss Voigt Hill
#
# Bulk Modulus (GPa) = 26.82432 37.19120 32.00776
# Shear Modulus (GPa) = 273.36307 8.37218 140.86762
#
# Velocity S-wave (km/s) = 11.42765 1.99989 8.20337
# Velocity P-wave (km/s) = 13.67245 4.80622 10.24782
#
# Compressibility (1/GPa) = 0.03727960
#
# Stress axis : x y z
#
# Youngs Moduli (GPa) = 69.20212 93.64656 37.40851
#
# Poissons Ratio (x) = 0.25364 -0.12537
# Poissons Ratio (y) = 0.18743 0.29678
# Poissons Ratio (z) = -0.23191 0.74294
#
# Static dielectric constant tensor:
#      x y z
#    x 1.731150 0.000000 0.000000 
#    y 0.000000 1.748780 0.000000 
#    z 0.000000 0.000000 1.775120 
# 
# From -- ./inp_files/18215.got.cif
#   From: 2010.05.17/outbox.cif.g08.bks.cpg/sg64_10_cif.got.tgz:18215.got - 2010.06.03 16:29:19.
