data_PCOD9481743
_publ_section_title
;
Structure prediction by ZEFSAII (Michael W. Deem and Ramdas Pophale) SiO2 
 PCOD9481743
Probable space group: C M C A
;
_chemical_formula_sum "Si O2"
_cell_formula_units_Z 112
_cell_length_a 16.644242
_cell_length_b 17.696222
_cell_length_c 19.138877
_cell_angle_alpha 90.000000
_cell_angle_beta 90.000000
_cell_angle_gamma 90.000000
_cell_volume 5637.168687
_symmetry_space_group_name_H-M "C M C A"
_symmetry_group_IT_number 64
_symmetry_cell_setting 'orthorhombic'
loop_
_space_group_symop_operation_xyz
x,y,z
-x,1/2-y,1/2+z
x,-y,-z
-x,1/2+y,1/2-z
-x,-y,-z
x,1/2+y,1/2-z
-x,y,z
x,1/2-y,1/2+z
1/2+x,1/2+y,z
1/2-x,-y,1/2+z
1/2+x,1/2-y,-z
1/2-x,y,1/2-z
1/2-x,1/2-y,-z
1/2+x,y,1/2-z
1/2-x,1/2+y,z
1/2+x,-y,1/2+z
loop_
_atom_site_type_symbol
_atom_site_label
_atom_site_fract_x
_atom_site_fract_y
_atom_site_fract_z
Si Si1 0.366578 0.946920 0.614845
Si Si2 0.781855 0.140780 0.330407
Si Si3 0.152254 0.513063 0.232098
Si Si4 0.352875 0.119664 0.604524
Si Si5 0.906752 0.647693 0.764005
Si Si6 0.087739 0.697746 0.468182
Si Si7 0.209377 0.712884 0.874801
O O1 0.278850 0.908805 0.622682
O O2 0.388932 0.961352 0.695695
O O3 0.412577 0.881157 0.575267
O O4 0.367080 0.031704 0.585423
O O5 0.750000 0.148383 0.250000
O O6 0.854940 0.083842 0.319720
O O7 0.778089 0.224216 0.359979
O O8 0.250000 0.498010 0.250000
O O9 0.113322 0.436051 0.207153
O O10 0.386151 0.138501 0.681828
O O11 0.391720 0.172119 0.546135
O O12 0.257861 0.137600 0.607219
O O13 0.846708 0.702030 0.806577
O O14 0.000000 0.667837 0.773043
O O15 0.153670 0.753163 0.435199
O O16 0.000000 0.733005 0.463550
#
# Coordination Sequence:
#
# PCOD9481743 Si02
#       7
#    16  16  16  16  16  16  16
#     4   8  17  30  50  76 104 138 174 213 262 311
#     4   8  14  28  50  74  99 132 174 218 253 295
#     4   8  15  31  52  77 105 138 180 219 256 308
#     4  11  21  36  56  78 105 143 186 221 261 320
#     4  11  21  33  54  82 110 138 173 224 276 317
#     4  11  23  37  53  79 114 143 173 221 278 326
#     4  11  21  36  56  79 107 145 185 218 261 322
#
# _framework density 19.868131000000002
#
# number of rings (size 3 to 8) (size 9 to 14) (size 15 to 20)
#    0.000    2.571    0.000    5.571    0.000    3.429 
#    0.000    0.000    0.000    1.714    0.000    0.000 
#    0.000   14.857    0.000    0.000    0.000    0.000 
#
# Total GULP energy -311773.346414 kJ/mol
# GULP energy per Si atom -5567.381186 kJ/mol
# Density = 1.982291 g / cm^3
# Si number density = 19.868131 Si / 1000 Ang^3
#
#
#
# Elastic Constant Matrix: (Units=GPa)
#
#
# Indices 1 2 3 4 5 6 
#
# 1 65.1952 13.7532 11.1571 0.0000 0.0000 0.0000
# 2 13.7532 51.0257 0.7839 0.0000 0.0000 0.0000
# 3 11.1571 0.7839 34.0296 0.0000 0.0000 0.0000
# 4 0.0000 0.0000 0.0000 19.4769 0.0000 0.0000
# 5 0.0000 0.0000 0.0000 0.0000 -17.7328 0.0000
# 6 0.0000 0.0000 0.0000 0.0000 0.0000 14.0066
#
#
#
# Elastic Compliance Matrix: (Units=1/GPa)
#
#
# Indices 1 2 3 4 5 6 
#
# 1 0.017251 -0.004565 -0.005551 0.000000 0.000000 0.000000
# 2 -0.004565 0.020813 0.001017 0.000000 0.000000 0.000000
# 3 -0.005551 0.001017 0.031183 0.000000 0.000000 0.000000
# 4 0.000000 0.000000 0.000000 0.051343 0.000000 0.000000
# 5 0.000000 0.000000 0.000000 0.000000 -0.056393 0.000000
# 6 0.000000 0.000000 0.000000 0.000000 0.000000 0.071395
#
#
# Mechanical properties :
#
#
# Convention : Reuss Voigt Hill
#
# Bulk Modulus (GPa) = 19.58869 22.40435 20.99652
# Shear Modulus (GPa) = 29.27309 11.45390 20.36350
#
# Velocity S-wave (km/s) = 3.84261 2.40364 3.20493
# Velocity P-wave (km/s) = 5.43768 4.35939 4.92812
#
# Compressibility (1/GPa) = 0.05104988
#
# Stress axis : x y z
#
# Youngs Moduli (GPa) = 57.96621 48.04768 32.06906
#
# Poissons Ratio (x) = 0.21932 0.17802
# Poissons Ratio (y) = 0.26459 -0.03262
# Poissons Ratio (z) = 0.32177 -0.04887
#
# Static dielectric constant tensor:
#      x y z
#    x 1.736990 0.000000 0.000000 
#    y 0.000000 1.758100 0.000000 
#    z 0.000000 0.000000 1.724470 
# 
# From -- ./inp_files/40495.got.cif
#   From: 2010.05.17/outbox.cif.g08.bks.cpg/sg64_21_cif.got.tgz:40495.got - 2010.06.03 16:29:19.
