data_PCOD9481782
_publ_section_title
;
Structure prediction by ZEFSAII (Michael W. Deem and Ramdas Pophale) SiO2 
 PCOD9481782
Probable space group: C M C A
;
_chemical_formula_sum "Si O2"
_cell_formula_units_Z 48
_cell_length_a 14.084624
_cell_length_b 20.395933
_cell_length_c 8.776884
_cell_angle_alpha 90.000000
_cell_angle_beta 90.000000
_cell_angle_gamma 90.000000
_cell_volume 2521.327106
_symmetry_space_group_name_H-M "C M C A"
_symmetry_group_IT_number 64
_symmetry_cell_setting 'orthorhombic'
loop_
_space_group_symop_operation_xyz
x,y,z
-x,1/2-y,1/2+z
x,-y,-z
-x,1/2+y,1/2-z
-x,-y,-z
x,1/2+y,1/2-z
-x,y,z
x,1/2-y,1/2+z
1/2+x,1/2+y,z
1/2-x,-y,1/2+z
1/2+x,1/2-y,-z
1/2-x,y,1/2-z
1/2-x,1/2-y,-z
1/2+x,y,1/2-z
1/2-x,1/2+y,z
1/2+x,-y,1/2+z
loop_
_atom_site_type_symbol
_atom_site_label
_atom_site_fract_x
_atom_site_fract_y
_atom_site_fract_z
Si Si1 0.500000 0.650157 0.565626
Si Si2 0.500000 0.234828 0.644939
Si Si3 0.704994 0.311771 0.080140
Si Si4 0.805551 0.566950 0.909839
O O1 0.500000 0.688203 0.402310
O O2 0.500000 0.713302 0.678051
O O3 0.593159 0.605657 0.597872
O O4 0.405862 0.200311 0.583529
O O5 0.750000 0.312746 0.250000
O O6 0.736964 0.380215 0.007868
O O7 0.750000 0.250000 0.000000
O O8 0.750000 0.553255 0.750000
O O9 0.818318 0.500000 0.000000
#
# Coordination Sequence:
#
# PCOD9481782 Si02
#       4
#     8   8  16  16
#     4  12  23  42  66  96 129 161 211 268 319 377
#     4  12  20  40  68  96 127 158 207 268 324 367
#     4  11  21  38  64  93 126 161 208 265 316 372
#     4  11  24  44  63  89 132 172 211 261 313 376
#
# _framework density 19.037592
#
# number of rings (size 3 to 8) (size 9 to 14) (size 15 to 20)
#    0.000    0.667   10.000    0.500    0.000    1.333 
#    6.000    3.333    0.000    0.000    0.000    0.000 
#    0.000    0.000    0.000    0.000    0.000    0.000 
#
# Total GULP energy -133718.774689 kJ/mol
# GULP energy per Si atom -5571.615612 kJ/mol
# Density = 1.899426 g / cm^3
# Si number density = 19.037592 Si / 1000 Ang^3
#
#
#
# Elastic Constant Matrix: (Units=GPa)
#
#
# Indices 1 2 3 4 5 6 
#
# 1 193.7519 59.0092 29.5106 0.0000 0.0000 0.0000
# 2 59.0092 149.5785 62.3063 0.0000 0.0000 0.0000
# 3 29.5106 62.3063 57.4602 0.0000 0.0000 0.0000
# 4 0.0000 0.0000 0.0000 35.2435 0.0000 0.0000
# 5 0.0000 0.0000 0.0000 0.0000 24.2566 0.0000
# 6 0.0000 0.0000 0.0000 0.0000 0.0000 14.5863
#
#
#
# Elastic Compliance Matrix: (Units=1/GPa)
#
#
# Indices 1 2 3 4 5 6 
#
# 1 0.005893 -0.001941 -0.000922 0.000000 0.000000 0.000000
# 2 -0.001941 0.012832 -0.012917 0.000000 0.000000 0.000000
# 3 -0.000922 -0.012917 0.031884 0.000000 0.000000 0.000000
# 4 0.000000 0.000000 0.000000 0.028374 0.000000 0.000000
# 5 0.000000 0.000000 0.000000 0.000000 0.041226 0.000000
# 6 0.000000 0.000000 0.000000 0.000000 0.000000 0.068557
#
#
# Mechanical properties :
#
#
# Convention : Reuss Voigt Hill
#
# Bulk Modulus (GPa) = 52.49877 78.04919 65.27398
# Shear Modulus (GPa) = 22.05810 31.48160 26.76985
#
# Velocity S-wave (km/s) = 3.40760 4.07093 3.75394
# Velocity P-wave (km/s) = 6.56647 7.94877 7.29046
#
# Compressibility (1/GPa) = 0.01904807
#
# Stress axis : x y z
#
# Youngs Moduli (GPa) = 169.70101 77.93265 31.36418
#
# Poissons Ratio (x) = 0.15123 0.02892
# Poissons Ratio (y) = 0.32932 0.40514
# Poissons Ratio (z) = 0.15649 1.00667
#
# Static dielectric constant tensor:
#      x y z
#    x 1.659400 0.000000 0.000000 
#    y 0.000000 1.684770 0.000000 
#    z 0.000000 0.000000 1.752570 
# 
# From -- ./inp_files/4365.got.cif
#   From: 2010.05.17/outbox.cif.g08.bks.cpg/sg64_3_cif.got.tgz:4365.got - 2010.06.03 16:29:19.
