data_PCOD9481366
_publ_section_title
;
Structure prediction by ZEFSAII (Michael W. Deem and Ramdas Pophale) SiO2 
 PCOD9481366
Probable space group: C M C A
;
_chemical_formula_sum "Si O2"
_cell_formula_units_Z 108
_cell_length_a 22.040750
_cell_length_b 14.411588
_cell_length_c 14.708669
_cell_angle_alpha 90.000000
_cell_angle_beta 90.000000
_cell_angle_gamma 90.000000
_cell_volume 4672.094101
_symmetry_space_group_name_H-M "C M C A"
_symmetry_group_IT_number 64
_symmetry_cell_setting 'orthorhombic'
loop_
_space_group_symop_operation_xyz
x,y,z
-x,1/2-y,1/2+z
x,-y,-z
-x,1/2+y,1/2-z
-x,-y,-z
x,1/2+y,1/2-z
-x,y,z
x,1/2-y,1/2+z
1/2+x,1/2+y,z
1/2-x,-y,1/2+z
1/2+x,1/2-y,-z
1/2-x,y,1/2-z
1/2-x,1/2-y,-z
1/2+x,y,1/2-z
1/2-x,1/2+y,z
1/2+x,-y,1/2+z
loop_
_atom_site_type_symbol
_atom_site_label
_atom_site_fract_x
_atom_site_fract_y
_atom_site_fract_z
Si Si1 0.500000 0.500000 0.500000
Si Si2 0.101624 0.862967 0.505136
Si Si3 0.569598 0.964554 0.352834
Si Si4 0.750000 0.968001 0.750000
Si Si5 0.859531 0.352925 0.669307
Si Si6 0.732612 0.922878 0.068398
Si Si7 0.347734 0.323945 0.041821
Si Si8 0.432365 0.817968 0.199255
O O1 0.554837 0.436027 0.547153
O O2 0.168467 0.898032 0.476430
O O3 0.115435 0.770193 0.562006
O O4 0.069895 0.839724 0.408179
O O5 0.500000 0.955332 0.381893
O O6 0.613761 0.910782 0.421570
O O7 0.577879 0.909742 0.257860
O O8 0.587801 0.070622 0.340386
O O9 0.804383 0.903637 0.783033
O O10 0.727309 0.030810 0.833401
O O11 0.842462 0.325632 0.566855
O O12 0.882984 0.260419 0.717197
O O13 0.779413 0.837722 0.077158
O O14 0.760822 0.000000 0.000000
O O15 0.500000 0.783980 0.221470
#
# Coordination Sequence:
#
# PCOD9481366 Si02
#       8
#     4  16  16   8  16  16  16  16
#     4  12  24  48  72 108 138 196 252 296 368 444
#     4  11  25  43  70  97 141 187 239 298 362 436
#     4  11  23  42  69 104 136 183 236 296 365 432
#     4  12  24  42  74 102 138 188 244 294 366 438
#     4  11  23  44  69  99 140 186 235 299 360 436
#     4  12  23  45  70 103 142 188 239 299 365 442
#     4  11  24  45  68 102 144 183 240 301 361 441
#     4  10  23  45  65  98 140 181 236 295 362 434
#
# _framework density 23.115970999999998
#
# number of rings (size 3 to 8) (size 9 to 14) (size 15 to 20)
#    0.000    0.889    4.444    2.222    1.037    2.963 
#    8.000    0.000    0.000    0.000    0.000    0.000 
#    0.000    0.000    0.000    0.000    0.000    0.000 
#
# Total GULP energy -301679.098125 kJ/mol
# GULP energy per Si atom -5586.649965 kJ/mol
# Density = 2.306336 g / cm^3
# Si number density = 23.115971 Si / 1000 Ang^3
#
#
#
# Elastic Constant Matrix: (Units=GPa)
#
#
# Indices 1 2 3 4 5 6 
#
# 1 125.8801 10.5164 -14.0297 0.0000 0.0000 0.0000
# 2 10.5164 59.2226 -18.6638 0.0000 0.0000 0.0000
# 3 -14.0297 -18.6638 55.7997 0.0000 0.0000 0.0000
# 4 0.0000 0.0000 0.0000 3.3606 0.0000 0.0000
# 5 0.0000 0.0000 0.0000 0.0000 13.0830 0.0000
# 6 0.0000 0.0000 0.0000 0.0000 0.0000 34.3073
#
#
#
# Elastic Compliance Matrix: (Units=1/GPa)
#
#
# Indices 1 2 3 4 5 6 
#
# 1 0.008216 -0.000903 0.001764 0.000000 0.000000 0.000000
# 2 -0.000903 0.018974 0.006119 0.000000 0.000000 0.000000
# 3 0.001764 0.006119 0.020412 0.000000 0.000000 0.000000
# 4 0.000000 0.000000 0.000000 0.297568 0.000000 0.000000
# 5 0.000000 0.000000 0.000000 0.000000 0.076435 0.000000
# 6 0.000000 0.000000 0.000000 0.000000 0.000000 0.029148
#
#
# Mechanical properties :
#
#
# Convention : Reuss Voigt Hill
#
# Bulk Modulus (GPa) = 16.24380 21.83867 19.04123
# Shear Modulus (GPa) = 10.93341 27.68881 19.31111
#
# Velocity S-wave (km/s) = 2.17717 3.46471 2.89347
# Velocity P-wave (km/s) = 3.65547 5.04714 4.40659
#
# Compressibility (1/GPa) = 0.06156195
#
# Stress axis : x y z
#
# Youngs Moduli (GPa) = 121.71240 52.70276 48.99194
#
# Poissons Ratio (x) = 0.04760 -0.08641
# Poissons Ratio (y) = 0.10992 -0.29980
# Poissons Ratio (z) = -0.21466 -0.32251
#
# Static dielectric constant tensor:
#      x y z
#    x 1.859080 0.000000 0.000000 
#    y 0.000000 1.918610 0.000000 
#    z 0.000000 0.000000 1.864080 
# 
# From -- ./inp_files/27478.got.cif
#   From: 2010.05.17/outbox.cif.g08.bks.cpg/sg64_14_cif.got.tgz:27478.got - 2010.06.03 16:29:19.
