data_PCOD9481950
_publ_section_title
;
Structure prediction by ZEFSAII (Michael W. Deem and Ramdas Pophale) SiO2 
 PCOD9481950
Probable space group: C M C A
;
_chemical_formula_sum "Si O2"
_cell_formula_units_Z 64
_cell_length_a 7.673813
_cell_length_b 14.544979
_cell_length_c 25.539550
_cell_angle_alpha 90.000000
_cell_angle_beta 90.000000
_cell_angle_gamma 90.000000
_cell_volume 2850.608339
_symmetry_space_group_name_H-M "C M C A"
_symmetry_group_IT_number 64
_symmetry_cell_setting 'orthorhombic'
loop_
_space_group_symop_operation_xyz
x,y,z
-x,1/2-y,1/2+z
x,-y,-z
-x,1/2+y,1/2-z
-x,-y,-z
x,1/2+y,1/2-z
-x,y,z
x,1/2-y,1/2+z
1/2+x,1/2+y,z
1/2-x,-y,1/2+z
1/2+x,1/2-y,-z
1/2-x,y,1/2-z
1/2-x,1/2-y,-z
1/2+x,y,1/2-z
1/2-x,1/2+y,z
1/2+x,-y,1/2+z
loop_
_atom_site_type_symbol
_atom_site_label
_atom_site_fract_x
_atom_site_fract_y
_atom_site_fract_z
Si Si1 0.285574 0.355011 0.898838
Si Si2 0.795915 0.389214 0.488926
Si Si3 0.204668 0.220234 0.690452
Si Si4 0.291159 0.436492 0.120407
O O1 0.500000 0.353225 0.900468
O O2 0.218911 0.285851 0.854728
O O3 0.233048 0.458348 0.882396
O O4 0.223789 0.341081 0.958916
O O5 0.788508 0.500000 0.500000
O O6 0.719065 0.381577 0.430673
O O7 0.000000 0.364594 0.486431
O O8 0.250000 0.241252 0.750000
O O9 0.249676 0.117102 0.673041
O O10 0.000000 0.231007 0.686453
O O11 0.500000 0.438635 0.114647
#
# Coordination Sequence:
#
# PCOD9481950 Si02
#       4
#    16  16  16  16
#     4   8  16  32  54  78 104 135 168 204 248 301
#     4   7  11  24  50  80 104 128 161 198 242 303
#     4  11  23  37  51  71 101 135 175 217 254 295
#     4   9  17  33  57  81 104 132 166 204 250 304
#
# _framework density 22.451350000000001
#
# number of rings (size 3 to 8) (size 9 to 14) (size 15 to 20)
#    0.000    3.250    0.000    3.750    0.000    2.000 
#    0.000    5.000    0.000    8.250    0.000    0.000 
#    0.000    0.000    0.000    0.000    0.000    0.000 
#
# Total GULP energy -178493.188832 kJ/mol
# GULP energy per Si atom -5577.912151 kJ/mol
# Density = 2.240025 g / cm^3
# Si number density = 22.451350 Si / 1000 Ang^3
#
#
#
# Elastic Constant Matrix: (Units=GPa)
#
#
# Indices 1 2 3 4 5 6 
#
# 1 42.0762 0.1882 4.4314 0.0000 0.0000 0.0000
# 2 0.1882 50.3491 42.7084 0.0000 0.0000 0.0000
# 3 4.4314 42.7084 116.8001 0.0000 0.0000 0.0000
# 4 0.0000 0.0000 0.0000 39.6976 0.0000 0.0000
# 5 0.0000 0.0000 0.0000 0.0000 -34.4817 0.0000
# 6 0.0000 0.0000 0.0000 0.0000 0.0000 6.1798
#
#
#
# Elastic Compliance Matrix: (Units=1/GPa)
#
#
# Indices 1 2 3 4 5 6 
#
# 1 0.023895 0.000985 -0.001267 0.000000 0.000000 0.000000
# 2 0.000985 0.028832 -0.010580 0.000000 0.000000 0.000000
# 3 -0.001267 -0.010580 0.012478 0.000000 0.000000 0.000000
# 4 0.000000 0.000000 0.000000 0.025190 0.000000 0.000000
# 5 0.000000 0.000000 0.000000 0.000000 -0.029001 0.000000
# 6 0.000000 0.000000 0.000000 0.000000 0.000000 0.161817
#
#
# Mechanical properties :
#
#
# Convention : Reuss Voigt Hill
#
# Bulk Modulus (GPa) = 22.99767 33.76463 28.38115
# Shear Modulus (GPa) = 19.27310 13.07231 16.17270
#
# Velocity S-wave (km/s) = 2.93309 2.41560 2.68683
# Velocity P-wave (km/s) = 4.66222 4.78036 4.72166
#
# Compressibility (1/GPa) = 0.04348267
#
# Stress axis : x y z
#
# Youngs Moduli (GPa) = 41.84907 34.68366 80.13917
#
# Poissons Ratio (x) = -0.03417 0.10153
# Poissons Ratio (y) = -0.04123 0.84787
# Poissons Ratio (z) = 0.05302 0.36695
#
# Static dielectric constant tensor:
#      x y z
#    x 1.817320 0.000000 0.000000 
#    y 0.000000 1.875280 0.000000 
#    z 0.000000 0.000000 1.732530 
# 
# From -- ./inp_files/37802.got.cif
#   From: 2010.05.17/outbox.cif.g08.bks.cpg/sg64_19_cif.got.tgz:37802.got - 2010.06.03 16:29:19.
