data_PCOD9481789
_publ_section_title
;
Structure prediction by ZEFSAII (Michael W. Deem and Ramdas Pophale) SiO2 
 PCOD9481789
Probable space group: C M C A
;
_chemical_formula_sum "Si O2"
_cell_formula_units_Z 64
_cell_length_a 15.659206
_cell_length_b 19.568346
_cell_length_c 10.252636
_cell_angle_alpha 90.000000
_cell_angle_beta 90.000000
_cell_angle_gamma 90.000000
_cell_volume 3141.661537
_symmetry_space_group_name_H-M "C M C A"
_symmetry_group_IT_number 64
_symmetry_cell_setting 'orthorhombic'
loop_
_space_group_symop_operation_xyz
x,y,z
-x,1/2-y,1/2+z
x,-y,-z
-x,1/2+y,1/2-z
-x,-y,-z
x,1/2+y,1/2-z
-x,y,z
x,1/2-y,1/2+z
1/2+x,1/2+y,z
1/2-x,-y,1/2+z
1/2+x,1/2-y,-z
1/2-x,y,1/2-z
1/2-x,1/2-y,-z
1/2+x,y,1/2-z
1/2-x,1/2+y,z
1/2+x,-y,1/2+z
loop_
_atom_site_type_symbol
_atom_site_label
_atom_site_fract_x
_atom_site_fract_y
_atom_site_fract_z
Si Si1 0.648982 0.054912 0.893657
Si Si2 0.355819 0.053733 0.602578
Si Si3 0.904776 0.290660 0.446327
Si Si4 0.840400 0.291969 0.174448
O O1 0.623492 0.031475 0.749188
O O2 0.752364 0.055882 0.905344
O O3 0.627150 0.136025 0.887413
O O4 0.617400 0.000000 0.000000
O O5 0.389836 0.128653 0.570781
O O6 0.388929 0.000000 0.500000
O O7 0.894358 0.264668 0.297618
O O8 0.841494 0.260131 0.554505
O O9 0.000000 0.275805 0.493257
O O10 0.750000 0.304144 0.250000
#
# Coordination Sequence:
#
# PCOD9481789 Si02
#       4
#    16  16  16  16
#     4   9  17  33  56  84 112 143 192 246 288 335
#     4   9  18  34  53  82 113 150 190 239 294 343
#     4  11  23  38  58  85 122 158 195 246 298 349
#     4  11  21  39  60  87 117 157 200 243 289 351
#
# _framework density 20.371386999999999
#
# number of rings (size 3 to 8) (size 9 to 14) (size 15 to 20)
#    0.000    2.000    5.000    1.500    0.000    2.500 
#    4.500    0.000    0.000   18.750    0.000    0.000 
#    0.000    0.000    0.000    0.000    0.000    0.000 
#
# Total GULP energy -178246.926561 kJ/mol
# GULP energy per Si atom -5570.216455 kJ/mol
# Density = 2.032502 g / cm^3
# Si number density = 20.371387 Si / 1000 Ang^3
#
#
#
# Elastic Constant Matrix: (Units=GPa)
#
#
# Indices 1 2 3 4 5 6 
#
# 1 45.3457 5.2168 15.4029 0.0000 0.0000 0.0000
# 2 5.2168 68.2739 84.5138 0.0000 0.0000 0.0000
# 3 15.4029 84.5138 154.5865 0.0000 0.0000 0.0000
# 4 0.0000 0.0000 0.0000 48.7945 0.0000 0.0000
# 5 0.0000 0.0000 0.0000 0.0000 13.4340 0.0000
# 6 0.0000 0.0000 0.0000 0.0000 0.0000 -0.9975
#
#
#
# Elastic Compliance Matrix: (Units=1/GPa)
#
#
# Indices 1 2 3 4 5 6 
#
# 1 0.023070 0.003349 -0.004130 0.000000 0.000000 0.000000
# 2 0.003349 0.045798 -0.025372 0.000000 0.000000 0.000000
# 3 -0.004130 -0.025372 0.020751 0.000000 0.000000 0.000000
# 4 0.000000 0.000000 0.000000 0.020494 0.000000 0.000000
# 5 0.000000 0.000000 0.000000 0.000000 0.074438 0.000000
# 6 0.000000 0.000000 0.000000 0.000000 0.000000 -1.002488
#
#
# Mechanical properties :
#
#
# Convention : Reuss Voigt Hill
#
# Bulk Modulus (GPa) = 26.79894 53.16368 39.98131
# Shear Modulus (GPa) = -6.63840 23.11769 8.23965
#
# Velocity S-wave (km/s) = -1.80714 3.37235 2.01333
# Velocity P-wave (km/s) = 2.97143 6.42787 5.00734
#
# Compressibility (1/GPa) = 0.03731491
#
# Stress axis : x y z
#
# Youngs Moduli (GPa) = 43.34579 21.83512 48.18965
#
# Poissons Ratio (x) = -0.07313 0.19901
# Poissons Ratio (y) = -0.14518 1.22266
# Poissons Ratio (z) = 0.17901 0.55400
#
# Static dielectric constant tensor:
#      x y z
#    x 1.801420 0.000000 0.000000 
#    y 0.000000 1.699590 0.000000 
#    z 0.000000 0.000000 1.727180 
# 
# From -- ./inp_files/6586.got.cif
#   From: 2010.05.17/outbox.cif.g08.bks.cpg/sg64_4_cif.got.tgz:6586.got - 2010.06.03 16:29:19.
