data_PCOD9481673
_publ_section_title
;
Structure prediction by ZEFSAII (Michael W. Deem and Ramdas Pophale) SiO2 
 PCOD9481673
Probable space group: C M C A
;
_chemical_formula_sum "Si O2"
_cell_formula_units_Z 96
_cell_length_a 7.621222
_cell_length_b 24.889656
_cell_length_c 27.044203
_cell_angle_alpha 90.000000
_cell_angle_beta 90.000000
_cell_angle_gamma 90.000000
_cell_volume 5130.003884
_symmetry_space_group_name_H-M "C M C A"
_symmetry_group_IT_number 64
_symmetry_cell_setting 'orthorhombic'
loop_
_space_group_symop_operation_xyz
x,y,z
-x,1/2-y,1/2+z
x,-y,-z
-x,1/2+y,1/2-z
-x,-y,-z
x,1/2+y,1/2-z
-x,y,z
x,1/2-y,1/2+z
1/2+x,1/2+y,z
1/2-x,-y,1/2+z
1/2+x,1/2-y,-z
1/2-x,y,1/2-z
1/2-x,1/2-y,-z
1/2+x,y,1/2-z
1/2-x,1/2+y,z
1/2+x,-y,1/2+z
loop_
_atom_site_type_symbol
_atom_site_label
_atom_site_fract_x
_atom_site_fract_y
_atom_site_fract_z
Si Si1 0.288596 0.329299 0.890529
Si Si2 0.710389 0.410084 0.807479
Si Si3 0.714221 0.496209 0.122375
Si Si4 0.284740 0.894249 0.428487
Si Si5 0.786996 0.923021 0.962986
Si Si6 0.296025 0.274951 0.053629
O O1 0.500000 0.329004 0.889649
O O2 0.226521 0.359779 0.840979
O O3 0.234033 0.368072 0.935697
O O4 0.233111 0.269609 0.904307
O O5 0.500000 0.410310 0.812735
O O6 0.750000 0.405663 0.750000
O O7 0.773758 0.465986 0.832384
O O8 0.500000 0.495920 0.123971
O O9 0.771768 0.434757 0.115059
O O10 0.766900 0.529060 0.073010
O O11 0.500000 0.893781 0.426856
O O12 0.231802 0.921211 0.480615
O O13 0.218590 0.832975 0.431550
O O14 0.000000 0.924550 0.963542
O O15 0.500000 0.285540 0.049051
O O16 0.250000 0.250000 0.000000
#
# Coordination Sequence:
#
# PCOD9481673 Si02
#       6
#    16  16  16  16  16  16
#     4   9  17  31  47  68  95 122 157 196 232 275
#     4   9  18  32  53  75  93 115 148 196 247 288
#     4   8  14  24  41  67  92 115 148 190 231 268
#     4   9  15  23  39  64  93 123 155 186 219 266
#     4   8  12  21  39  63  90 117 147 185 222 261
#     4  11  20  29  44  67  97 133 165 195 228 273
#
# _framework density 18.713436999999999
#
# number of rings (size 3 to 8) (size 9 to 14) (size 15 to 20)
#    0.000    3.000    1.667    3.000    0.000    2.667 
#    0.000    0.000    0.000    3.000    0.000    7.000 
#    0.000    0.000    0.000    0.000    0.000    0.000 
#
# Total GULP energy -267315.882224 kJ/mol
# GULP energy per Si atom -5569.080880 kJ/mol
# Density = 1.867084 g / cm^3
# Si number density = 18.713437 Si / 1000 Ang^3
#
#
#
# Elastic Constant Matrix: (Units=GPa)
#
#
# Indices 1 2 3 4 5 6 
#
# 1 31.7441 -1.8164 -3.8864 0.0000 0.0000 0.0000
# 2 -1.8164 120.9998 51.9643 0.0000 0.0000 0.0000
# 3 -3.8864 51.9643 97.9486 0.0000 0.0000 0.0000
# 4 0.0000 0.0000 0.0000 12.2503 0.0000 0.0000
# 5 0.0000 0.0000 0.0000 0.0000 16.1640 0.0000
# 6 0.0000 0.0000 0.0000 0.0000 0.0000 7.5449
#
#
#
# Elastic Compliance Matrix: (Units=1/GPa)
#
#
# Indices 1 2 3 4 5 6 
#
# 1 0.031656 -0.000083 0.001300 0.000000 0.000000 0.000000
# 2 -0.000083 0.010703 -0.005682 0.000000 0.000000 0.000000
# 3 0.001300 -0.005682 0.013275 0.000000 0.000000 0.000000
# 4 0.000000 0.000000 0.000000 0.081631 0.000000 0.000000
# 5 0.000000 0.000000 0.000000 0.000000 0.061866 0.000000
# 6 0.000000 0.000000 0.000000 0.000000 0.000000 0.132541
#
#
# Mechanical properties :
#
#
# Convention : Reuss Voigt Hill
#
# Bulk Modulus (GPa) = 21.41072 38.13506 29.77289
# Shear Modulus (GPa) = 14.03824 20.82056 17.42940
#
# Velocity S-wave (km/s) = 2.74189 3.33918 3.05517
# Velocity P-wave (km/s) = 4.63575 5.94050 5.32821
#
# Compressibility (1/GPa) = 0.04670559
#
# Stress axis : x y z
#
# Youngs Moduli (GPa) = 31.58929 93.42941 75.32786
#
# Poissons Ratio (x) = 0.00777 -0.09794
# Poissons Ratio (y) = 0.00263 0.42799
# Poissons Ratio (z) = -0.04107 0.53083
#
# Static dielectric constant tensor:
#      x y z
#    x 1.727800 0.000000 0.000000 
#    y 0.000000 1.711400 0.000000 
#    z 0.000000 0.000000 -0.585720 
# 
# From -- ./inp_files/48340.got.cif
#   From: 2010.05.17/outbox.cif.g08.bks.cpg/sg64_25_cif.got.tgz:48340.got - 2010.06.03 16:29:19.
