data_PCOD9481210
_publ_section_title
;
Structure prediction by ZEFSAII (Michael W. Deem and Ramdas Pophale) SiO2 
 PCOD9481210
Probable space group: C M C A
;
_chemical_formula_sum "Si O2"
_cell_formula_units_Z 88
_cell_length_a 15.493734
_cell_length_b 13.158125
_cell_length_c 21.126948
_cell_angle_alpha 90.000000
_cell_angle_beta 90.000000
_cell_angle_gamma 90.000000
_cell_volume 4307.118959
_symmetry_space_group_name_H-M "C M C A"
_symmetry_group_IT_number 64
_symmetry_cell_setting 'orthorhombic'
loop_
_space_group_symop_operation_xyz
x,y,z
-x,1/2-y,1/2+z
x,-y,-z
-x,1/2+y,1/2-z
-x,-y,-z
x,1/2+y,1/2-z
-x,y,z
x,1/2-y,1/2+z
1/2+x,1/2+y,z
1/2-x,-y,1/2+z
1/2+x,1/2-y,-z
1/2-x,y,1/2-z
1/2-x,1/2-y,-z
1/2+x,y,1/2-z
1/2-x,1/2+y,z
1/2+x,-y,1/2+z
loop_
_atom_site_type_symbol
_atom_site_label
_atom_site_fract_x
_atom_site_fract_y
_atom_site_fract_z
Si Si1 0.838592 0.358318 0.370393
Si Si2 0.357099 0.557023 0.198468
Si Si3 0.336182 0.875783 0.832710
Si Si4 0.325691 0.544634 0.564029
Si Si5 0.000000 0.358845 0.460876
Si Si6 0.500000 0.164663 0.961562
Si Si7 0.000000 0.134627 0.104842
O O1 0.850074 0.435777 0.311616
O O2 0.847377 0.241513 0.350227
O O3 0.745545 0.385327 0.401168
O O4 0.914564 0.381258 0.420715
O O5 0.384398 0.590400 0.268544
O O6 0.264197 0.604527 0.183443
O O7 0.419129 0.597787 0.144330
O O8 0.353485 0.952787 0.890001
O O9 0.284307 0.500000 0.500000
O O10 0.412096 0.602526 0.543196
O O11 0.000000 0.597063 0.467795
O O12 0.000000 0.237342 0.476989
O O13 0.500000 0.244277 0.903360
#
# Coordination Sequence:
#
# PCOD9481210 Si02
#       7
#    16  16  16  16   8   8   8
#     4  11  24  42  67  97 132 175 220 274 328 384
#     4  10  23  42  64  97 127 177 218 270 327 392
#     4  10  24  42  65  95 136 171 224 267 326 401
#     4  11  24  40  68  96 133 179 217 267 335 389
#     4  10  25  40  67  97 134 163 221 278 319 381
#     4  10  23  41  61  97 133 169 215 269 330 384
#     4  10  23  41  67  96 132 166 224 272 331 382
#
# _framework density 20.431291000000002
#
# number of rings (size 3 to 8) (size 9 to 14) (size 15 to 20)
#    0.545    1.091    0.000    3.000    5.091   11.636 
#    0.000    0.000    0.000    0.000    0.000    0.000 
#    0.000    0.000    0.000    0.000    0.000    0.000 
#
# Total GULP energy -245687.116485 kJ/mol
# GULP energy per Si atom -5583.798102 kJ/mol
# Density = 2.038479 g / cm^3
# Si number density = 20.431291 Si / 1000 Ang^3
#
#
#
# Elastic Constant Matrix: (Units=GPa)
#
#
# Indices 1 2 3 4 5 6 
#
# 1 81.5783 28.5205 23.5537 0.0000 0.0000 0.0000
# 2 28.5205 109.8202 62.8730 0.0000 0.0000 0.0000
# 3 23.5537 62.8730 137.4742 0.0000 0.0000 0.0000
# 4 0.0000 0.0000 0.0000 26.4577 0.0000 0.0000
# 5 0.0000 0.0000 0.0000 0.0000 8.9821 0.0000
# 6 0.0000 0.0000 0.0000 0.0000 0.0000 28.2319
#
#
#
# Elastic Compliance Matrix: (Units=1/GPa)
#
#
# Indices 1 2 3 4 5 6 
#
# 1 0.013576 -0.002972 -0.000967 0.000000 0.000000 0.000000
# 2 -0.002972 0.012986 -0.005430 0.000000 0.000000 0.000000
# 3 -0.000967 -0.005430 0.009923 0.000000 0.000000 0.000000
# 4 0.000000 0.000000 0.000000 0.037796 0.000000 0.000000
# 5 0.000000 0.000000 0.000000 0.000000 0.111332 0.000000
# 6 0.000000 0.000000 0.000000 0.000000 0.000000 0.035421
#
#
# Mechanical properties :
#
#
# Convention : Reuss Voigt Hill
#
# Bulk Modulus (GPa) = 56.34489 62.08522 59.21505
# Shear Modulus (GPa) = 20.35088 26.99604 23.67346
#
# Velocity S-wave (km/s) = 3.15947 3.63892 3.40764
# Velocity P-wave (km/s) = 6.39901 6.93606 6.67294
#
# Compressibility (1/GPa) = 0.01774784
#
# Stress axis : x y z
#
# Youngs Moduli (GPa) = 73.65703 77.00329 100.77499
#
# Poissons Ratio (x) = 0.22888 0.09742
# Poissons Ratio (y) = 0.21894 0.54721
# Poissons Ratio (z) = 0.07120 0.41813
#
# Static dielectric constant tensor:
#      x y z
#    x 1.709140 0.000000 0.000000 
#    y 0.000000 1.750260 0.000000 
#    z 0.000000 0.000000 1.739490 
# 
# From -- ./inp_files/40088.got.cif
#   From: 2010.05.17/outbox.cif.g08.bks.cpg/sg64_21_cif.got.tgz:40088.got - 2010.06.03 16:29:19.
