data_PCOD9481528
_publ_section_title
;
Structure prediction by ZEFSAII (Michael W. Deem and Ramdas Pophale) SiO2 
 PCOD9481528
Probable space group: C M C A
;
_chemical_formula_sum "Si O2"
_cell_formula_units_Z 64
_cell_length_a 13.327027
_cell_length_b 22.873552
_cell_length_c 8.687249
_cell_angle_alpha 90.000000
_cell_angle_beta 90.000000
_cell_angle_gamma 90.000000
_cell_volume 2648.190103
_symmetry_space_group_name_H-M "C M C A"
_symmetry_group_IT_number 64
_symmetry_cell_setting 'orthorhombic'
loop_
_space_group_symop_operation_xyz
x,y,z
-x,1/2-y,1/2+z
x,-y,-z
-x,1/2+y,1/2-z
-x,-y,-z
x,1/2+y,1/2-z
-x,y,z
x,1/2-y,1/2+z
1/2+x,1/2+y,z
1/2-x,-y,1/2+z
1/2+x,1/2-y,-z
1/2-x,y,1/2-z
1/2-x,1/2-y,-z
1/2+x,y,1/2-z
1/2-x,1/2+y,z
1/2+x,-y,1/2+z
loop_
_atom_site_type_symbol
_atom_site_label
_atom_site_fract_x
_atom_site_fract_y
_atom_site_fract_z
Si Si1 0.385048 0.898181 0.116389
Si Si2 0.651476 0.667411 0.169680
Si Si3 0.888323 0.729146 0.013305
Si Si4 0.662676 0.433348 0.036372
O O1 0.500000 0.913078 0.062580
O O2 0.373963 0.915313 0.294181
O O3 0.285320 0.925165 0.036914
O O4 0.375101 0.828328 0.091269
O O5 0.750000 0.643185 0.250000
O O6 0.610200 0.705332 0.312148
O O7 0.675451 0.714728 0.037505
O O8 0.611397 0.610845 0.084397
O O9 0.000000 0.753309 0.982797
O O10 0.639631 0.500000 0.000000
#
# Coordination Sequence:
#
# PCOD9481528 Si02
#       4
#    16  16  16  16
#     4  10  24  45  69  98 135 180 229 287 350 412
#     4  12  24  41  69 101 136 178 225 283 348 414
#     4  11  24  42  69 103 139 176 226 289 354 421
#     4  11  26  45  71 100 138 185 238 287 341 414
#
# _framework density 24.167449000000001
#
# number of rings (size 3 to 8) (size 9 to 14) (size 15 to 20)
#    0.000    1.000    2.500    3.000    7.000    5.000 
#    0.000    2.500    0.000    0.000    0.000    0.000 
#    0.000    0.000    0.000    0.000    0.000    0.000 
#
# Total GULP energy -178528.685943 kJ/mol
# GULP energy per Si atom -5579.021436 kJ/mol
# Density = 2.411244 g / cm^3
# Si number density = 24.167449 Si / 1000 Ang^3
#
#
#
# Elastic Constant Matrix: (Units=GPa)
#
#
# Indices 1 2 3 4 5 6 
#
# 1 86.4527 16.0910 28.6404 0.0000 0.0000 0.0000
# 2 16.0910 191.8643 89.8177 0.0000 0.0000 0.0000
# 3 28.6404 89.8177 138.8350 0.0000 0.0000 0.0000
# 4 0.0000 0.0000 0.0000 30.5389 0.0000 0.0000
# 5 0.0000 0.0000 0.0000 0.0000 9.6052 0.0000
# 6 0.0000 0.0000 0.0000 0.0000 0.0000 -72.2202
#
#
#
# Elastic Compliance Matrix: (Units=1/GPa)
#
#
# Indices 1 2 3 4 5 6 
#
# 1 0.012422 0.000226 -0.002709 0.000000 0.000000 0.000000
# 2 0.000226 0.007480 -0.004886 0.000000 0.000000 0.000000
# 3 -0.002709 -0.004886 0.010923 0.000000 0.000000 0.000000
# 4 0.000000 0.000000 0.000000 0.032745 0.000000 0.000000
# 5 0.000000 0.000000 0.000000 0.000000 0.104110 0.000000
# 6 0.000000 0.000000 0.000000 0.000000 0.000000 -0.013847
#
#
# Mechanical properties :
#
#
# Convention : Reuss Voigt Hill
#
# Bulk Modulus (GPa) = 62.15864 76.25004 69.20434
# Shear Modulus (GPa) = 28.74651 12.42497 20.58574
#
# Velocity S-wave (km/s) = 3.45261 2.26988 2.92172
# Velocity P-wave (km/s) = 6.45522 6.20395 6.33083
#
# Compressibility (1/GPa) = 0.01608787
#
# Stress axis : x y z
#
# Youngs Moduli (GPa) = 80.50007 133.68397 91.55331
#
# Poissons Ratio (x) = -0.03026 0.24802
# Poissons Ratio (y) = -0.01822 0.44733
# Poissons Ratio (z) = 0.21808 0.65318
#
# Static dielectric constant tensor:
#      x y z
#    x 2.135220 0.000000 0.000000 
#    y 0.000000 1.804100 0.000000 
#    z 0.000000 0.000000 1.902560 
# 
# From -- ./inp_files/5572.got.cif
#   From: 2010.05.17/outbox.cif.g08.bks.cpg/sg64_3_cif.got.tgz:5572.got - 2010.06.03 16:29:19.
