data_PCOD9481622
_publ_section_title
;
Structure prediction by ZEFSAII (Michael W. Deem and Ramdas Pophale) SiO2 
 PCOD9481622
Probable space group: C M C A
;
_chemical_formula_sum "Si O2"
_cell_formula_units_Z 104
_cell_length_a 30.065075
_cell_length_b 8.066830
_cell_length_c 18.740624
_cell_angle_alpha 90.000000
_cell_angle_beta 90.000000
_cell_angle_gamma 90.000000
_cell_volume 4545.160708
_symmetry_space_group_name_H-M "C M C A"
_symmetry_group_IT_number 64
_symmetry_cell_setting 'orthorhombic'
loop_
_space_group_symop_operation_xyz
x,y,z
-x,1/2-y,1/2+z
x,-y,-z
-x,1/2+y,1/2-z
-x,-y,-z
x,1/2+y,1/2-z
-x,y,z
x,1/2-y,1/2+z
1/2+x,1/2+y,z
1/2-x,-y,1/2+z
1/2+x,1/2-y,-z
1/2-x,y,1/2-z
1/2-x,1/2-y,-z
1/2+x,y,1/2-z
1/2-x,1/2+y,z
1/2+x,-y,1/2+z
loop_
_atom_site_type_symbol
_atom_site_label
_atom_site_fract_x
_atom_site_fract_y
_atom_site_fract_z
Si Si1 0.951327 0.302964 0.018096
Si Si2 0.184470 0.680679 0.637858
Si Si3 0.950442 0.391415 0.178119
Si Si4 0.324809 0.309267 0.840768
Si Si5 0.602721 0.696048 0.280869
Si Si6 0.250000 0.234683 0.750000
Si Si7 0.146856 0.699420 0.997165
O O1 0.948191 0.291831 0.104119
O O2 0.000000 0.235735 0.995007
O O3 0.952439 0.500000 0.000000
O O4 0.904165 0.240137 0.988879
O O5 0.197813 0.490681 0.652830
O O6 0.134560 0.702733 0.667479
O O7 0.216955 0.793704 0.685829
O O8 0.180527 0.728041 0.555661
O O9 0.912878 0.531810 0.179231
O O10 0.940116 0.286143 0.248555
O O11 0.000000 0.462926 0.180798
O O12 0.366853 0.332047 0.788897
O O13 0.290914 0.182519 0.802124
O O14 0.339160 0.252631 0.918292
O O15 0.146952 0.500000 0.000000
#
# Coordination Sequence:
#
# PCOD9481622 Si02
#       7
#    16  16  16  16  16   8  16
#     4   9  18  34  57  87 123 166 217 258 303 371
#     4  11  24  42  68  93 128 165 213 267 331 385
#     4  11  21  36  60  90 129 172 220 270 317 377
#     4  11  23  43  66  93 133 163 214 271 328 388
#     4  11  21  38  60  92 126 171 214 268 325 384
#     4  10  26  44  72  96 122 170 216 264 330 402
#     4  11  23  40  67  96 128 176 215 261 323 393
#
# _framework density 22.88148
#
# number of rings (size 3 to 8) (size 9 to 14) (size 15 to 20)
#    0.000    1.385    3.077    3.231    0.000    3.077 
#    0.000    0.769    0.000    0.923    0.000    0.000 
#    0.000    0.000    0.000    0.000    0.000    0.000 
#
# Total GULP energy -289761.777071 kJ/mol
# GULP energy per Si atom -5572.341867 kJ/mol
# Density = 2.282940 g / cm^3
# Si number density = 22.881480 Si / 1000 Ang^3
#
#
#
# Elastic Constant Matrix: (Units=GPa)
#
#
# Indices 1 2 3 4 5 6 
#
# 1 115.4478 10.4681 53.3151 0.0000 0.0000 0.0000
# 2 10.4681 64.8538 3.9651 0.0000 0.0000 0.0000
# 3 53.3151 3.9651 121.0021 0.0000 0.0000 0.0000
# 4 0.0000 0.0000 0.0000 4.4487 0.0000 0.0000
# 5 0.0000 0.0000 0.0000 0.0000 -527.9556 0.0000
# 6 0.0000 0.0000 0.0000 0.0000 0.0000 2.6274
#
#
#
# Elastic Compliance Matrix: (Units=1/GPa)
#
#
# Indices 1 2 3 4 5 6 
#
# 1 0.011015 -0.001484 -0.004805 0.000000 0.000000 0.000000
# 2 -0.001484 0.015650 0.000141 0.000000 0.000000 0.000000
# 3 -0.004805 0.000141 0.010377 0.000000 0.000000 0.000000
# 4 0.000000 0.000000 0.000000 0.224786 0.000000 0.000000
# 5 0.000000 0.000000 0.000000 0.000000 -0.001894 0.000000
# 6 0.000000 0.000000 0.000000 0.000000 0.000000 0.380609
#
#
# Mechanical properties :
#
#
# Convention : Reuss Voigt Hill
#
# Bulk Modulus (GPa) = 40.40982 48.53336 44.47159
# Shear Modulus (GPa) = 7.56328 -88.60555 -40.52114
#
# Velocity S-wave (km/s) = 1.82005 -6.22959 -4.21279
# Velocity P-wave (km/s) = 4.70272 5.52149 2.04588
#
# Compressibility (1/GPa) = 0.02474646
#
# Stress axis : x y z
#
# Youngs Moduli (GPa) = 90.78139 63.89681 96.36878
#
# Poissons Ratio (x) = 0.09484 0.46304
# Poissons Ratio (y) = 0.13474 -0.01360
# Poissons Ratio (z) = 0.43620 -0.00902
#
# Static dielectric constant tensor:
#      x y z
#    x 1.864400 0.000000 0.000000 
#    y 0.000000 1.976340 0.000000 
#    z 0.000000 0.000000 1.634090 
# 
# From -- ./inp_files/41872.got.cif
#   From: 2010.05.17/outbox.cif.g08.bks.cpg/sg64_21_cif.got.tgz:41872.got - 2010.06.03 16:29:19.
