data_PCOD9481176
_publ_section_title
;
Structure prediction by ZEFSAII (Michael W. Deem and Ramdas Pophale) SiO2 
 PCOD9481176
Probable space group: C M C A
;
_chemical_formula_sum "Si O2"
_cell_formula_units_Z 64
_cell_length_a 17.904346
_cell_length_b 14.646512
_cell_length_c 10.191784
_cell_angle_alpha 90.000000
_cell_angle_beta 90.000000
_cell_angle_gamma 90.000000
_cell_volume 2672.654896
_symmetry_space_group_name_H-M "C M C A"
_symmetry_group_IT_number 64
_symmetry_cell_setting 'orthorhombic'
loop_
_space_group_symop_operation_xyz
x,y,z
-x,1/2-y,1/2+z
x,-y,-z
-x,1/2+y,1/2-z
-x,-y,-z
x,1/2+y,1/2-z
-x,y,z
x,1/2-y,1/2+z
1/2+x,1/2+y,z
1/2-x,-y,1/2+z
1/2+x,1/2-y,-z
1/2-x,y,1/2-z
1/2-x,1/2-y,-z
1/2+x,y,1/2-z
1/2-x,1/2+y,z
1/2+x,-y,1/2+z
loop_
_atom_site_type_symbol
_atom_site_label
_atom_site_fract_x
_atom_site_fract_y
_atom_site_fract_z
Si Si1 0.500000 0.574042 0.800004
Si Si2 0.724193 0.857699 0.387079
Si Si3 0.128520 0.293192 0.969982
Si Si4 0.124150 0.500000 0.500000
Si Si5 0.000000 0.584956 0.136369
Si Si6 0.000000 0.734186 0.343331
O O1 0.429321 0.535746 0.882294
O O2 0.500000 0.522147 0.660455
O O3 0.500000 0.681841 0.762973
O O4 0.750000 0.903243 0.250000
O O5 0.801168 0.824973 0.448006
O O6 0.666327 0.773640 0.362329
O O7 0.682720 0.916627 0.498445
O O8 0.071340 0.240225 0.063625
O O9 0.076744 0.376258 0.922808
O O10 0.000000 0.637307 0.275251
#
# Coordination Sequence:
#
# PCOD9481176 Si02
#       6
#     8  16  16   8   8   8
#     4  11  24  41  64  94 122 163 217 262 317 391
#     4  11  23  41  62  90 127 167 209 263 320 385
#     4  10  23  39  63  91 120 161 213 256 320 390
#     4  11  24  40  62  89 124 164 210 257 316 384
#     4  11  22  39  64  90 122 161 204 260 319 376
#     4  11  22  43  66  90 128 168 209 271 324 377
#
# _framework density 23.946227
#
# number of rings (size 3 to 8) (size 9 to 14) (size 15 to 20)
#    0.000    1.250    0.000    6.000    0.000   12.000 
#    0.000    1.250    0.000    0.000    0.000    0.000 
#    0.000    0.000    0.000    0.000    0.000    0.000 
#
# Total GULP energy -178636.927929 kJ/mol
# GULP energy per Si atom -5582.403998 kJ/mol
# Density = 2.389172 g / cm^3
# Si number density = 23.946227 Si / 1000 Ang^3
#
#
#
# Elastic Constant Matrix: (Units=GPa)
#
#
# Indices 1 2 3 4 5 6 
#
# 1 194.2510 28.3467 29.6138 0.0000 0.0000 0.0000
# 2 28.3467 69.9453 3.7477 0.0000 0.0000 0.0000
# 3 29.6138 3.7477 45.3001 0.0000 0.0000 0.0000
# 4 0.0000 0.0000 0.0000 38.8888 0.0000 0.0000
# 5 0.0000 0.0000 0.0000 0.0000 -15.1260 0.0000
# 6 0.0000 0.0000 0.0000 0.0000 0.0000 1.1613
#
#
#
# Elastic Compliance Matrix: (Units=1/GPa)
#
#
# Indices 1 2 3 4 5 6 
#
# 1 0.006051 -0.002250 -0.003770 0.000000 0.000000 0.000000
# 2 -0.002250 0.015197 0.000214 0.000000 0.000000 0.000000
# 3 -0.003770 0.000214 0.024522 0.000000 0.000000 0.000000
# 4 0.000000 0.000000 0.000000 0.025714 0.000000 0.000000
# 5 0.000000 0.000000 0.000000 0.000000 -0.066111 0.000000
# 6 0.000000 0.000000 0.000000 0.000000 0.000000 0.861137
#
#
# Mechanical properties :
#
#
# Convention : Reuss Voigt Hill
#
# Bulk Modulus (GPa) = 29.27583 48.10141 38.68862
# Shear Modulus (GPa) = 5.62109 21.50404 13.56256
#
# Velocity S-wave (km/s) = 1.53378 2.99994 2.38245
# Velocity P-wave (km/s) = 3.92286 5.66837 4.87438
#
# Compressibility (1/GPa) = 0.03415787
#
# Stress axis : x y z
#
# Youngs Moduli (GPa) = 165.26107 65.80067 40.78049
#
# Poissons Ratio (x) = 0.14807 0.15372
# Poissons Ratio (y) = 0.37189 -0.00872
# Poissons Ratio (z) = 0.62296 -0.01407
#
# Static dielectric constant tensor:
#      x y z
#    x 1.818810 0.000000 0.000000 
#    y 0.000000 1.951060 0.000000 
#    z 0.000000 0.000000 1.958190 
# 
# From -- ./inp_files/15568.got.cif
#   From: 2010.05.17/outbox.cif.g08.bks.cpg/sg64_8_cif.got.tgz:15568.got - 2010.06.03 16:29:19.
