data_PCOD9481887
_publ_section_title
;
Structure prediction by ZEFSAII (Michael W. Deem and Ramdas Pophale) SiO2 
 PCOD9481887
Probable space group: C M C A
;
_chemical_formula_sum "Si O2"
_cell_formula_units_Z 96
_cell_length_a 27.374106
_cell_length_b 9.905985
_cell_length_c 18.177879
_cell_angle_alpha 90.000000
_cell_angle_beta 90.000000
_cell_angle_gamma 90.000000
_cell_volume 4929.249702
_symmetry_space_group_name_H-M "C M C A"
_symmetry_group_IT_number 64
_symmetry_cell_setting 'orthorhombic'
loop_
_space_group_symop_operation_xyz
x,y,z
-x,1/2-y,1/2+z
x,-y,-z
-x,1/2+y,1/2-z
-x,-y,-z
x,1/2+y,1/2-z
-x,y,z
x,1/2-y,1/2+z
1/2+x,1/2+y,z
1/2-x,-y,1/2+z
1/2+x,1/2-y,-z
1/2-x,y,1/2-z
1/2-x,1/2-y,-z
1/2+x,y,1/2-z
1/2-x,1/2+y,z
1/2+x,-y,1/2+z
loop_
_atom_site_type_symbol
_atom_site_label
_atom_site_fract_x
_atom_site_fract_y
_atom_site_fract_z
Si Si1 0.350621 0.498243 0.584487
Si Si2 0.677877 0.275911 0.163043
Si Si3 0.443383 0.577601 0.178613
Si Si4 0.646310 0.047130 0.417386
Si Si5 0.396739 0.347758 0.281505
Si Si6 0.274079 0.778223 0.080840
O O1 0.368206 0.500000 0.500000
O O2 0.346095 0.348020 0.617634
O O3 0.383018 0.585043 0.640871
O O4 0.297699 0.572687 0.582539
O O5 0.665892 0.421107 0.128790
O O6 0.652439 0.286636 0.242772
O O7 0.735194 0.259198 0.146393
O O8 0.500000 0.553000 0.164474
O O9 0.408446 0.577752 0.107784
O O10 0.420609 0.463842 0.231633
O O11 0.434127 0.724558 0.212990
O O12 0.681833 0.173821 0.409492
O O13 0.647456 0.000000 0.500000
O O14 0.250000 0.750000 0.000000
#
# Coordination Sequence:
#
# PCOD9481887 Si02
#       6
#    16  16  16  16  16  16
#     4  12  23  41  67  97 137 178 224 275 335 398
#     4  11  24  38  63  95 138 179 220 264 332 405
#     4  11  24  45  71  93 127 175 225 287 350 402
#     4  11  22  40  64  98 133 171 227 272 327 406
#     4  11  24  46  66  98 131 172 228 287 340 411
#     4  12  22  38  65  99 135 187 216 263 335 407
#
# _framework density 19.475580000000001
#
# number of rings (size 3 to 8) (size 9 to 14) (size 15 to 20)
#    0.000    0.667    6.667    1.500    0.000    1.000 
#    0.000    1.667    0.000    2.000    0.000    0.000 
#    0.000    0.000    0.000    0.000    0.000    0.000 
#
# Total GULP energy -268111.899699 kJ/mol
# GULP energy per Si atom -5585.664577 kJ/mol
# Density = 1.943125 g / cm^3
# Si number density = 19.475580 Si / 1000 Ang^3
#
#
#
# Elastic Constant Matrix: (Units=GPa)
#
#
# Indices 1 2 3 4 5 6 
#
# 1 136.4084 22.2324 44.6572 0.0000 0.0000 0.0000
# 2 22.2324 77.7914 5.8508 0.0000 0.0000 0.0000
# 3 44.6572 5.8508 71.6497 0.0000 0.0000 0.0000
# 4 0.0000 0.0000 0.0000 34.2385 0.0000 0.0000
# 5 0.0000 0.0000 0.0000 0.0000 12.6341 0.0000
# 6 0.0000 0.0000 0.0000 0.0000 0.0000 -27.0179
#
#
#
# Elastic Compliance Matrix: (Units=1/GPa)
#
#
# Indices 1 2 3 4 5 6 
#
# 1 0.009606 -0.002309 -0.005798 0.000000 0.000000 0.000000
# 2 -0.002309 0.013489 0.000338 0.000000 0.000000 0.000000
# 3 -0.005798 0.000338 0.017543 0.000000 0.000000 0.000000
# 4 0.000000 0.000000 0.000000 0.029207 0.000000 0.000000
# 5 0.000000 0.000000 0.000000 0.000000 0.079151 0.000000
# 6 0.000000 0.000000 0.000000 0.000000 0.000000 -0.037012
#
#
# Mechanical properties :
#
#
# Convention : Reuss Voigt Hill
#
# Bulk Modulus (GPa) = 39.84282 47.92558 43.88420
# Shear Modulus (GPa) = 36.79479 18.17822 27.48651
#
# Velocity S-wave (km/s) = 4.35130 3.05845 3.76085
# Velocity P-wave (km/s) = 6.76368 6.09374 6.43743
#
# Compressibility (1/GPa) = 0.02509862
#
# Stress axis : x y z
#
# Youngs Moduli (GPa) = 104.10695 74.13214 57.00245
#
# Poissons Ratio (x) = 0.17118 0.33052
# Poissons Ratio (y) = 0.24039 -0.01925
# Poissons Ratio (z) = 0.60364 -0.02503
#
# Static dielectric constant tensor:
#      x y z
#    x 1.680420 0.000000 0.000000 
#    y 0.000000 1.645680 0.000000 
#    z 0.000000 0.000000 1.710010 
# 
# From -- ./inp_files/41823.got.cif
#   From: 2010.05.17/outbox.cif.g08.bks.cpg/sg64_21_cif.got.tgz:41823.got - 2010.06.03 16:29:19.
