data_PCOD9481753
_publ_section_title
;
Structure prediction by ZEFSAII (Michael W. Deem and Ramdas Pophale) SiO2 
 PCOD9481753
Probable space group: C M C A
;
_chemical_formula_sum "Si O2"
_cell_formula_units_Z 64
_cell_length_a 17.982790
_cell_length_b 20.017942
_cell_length_c 9.849073
_cell_angle_alpha 90.000000
_cell_angle_beta 90.000000
_cell_angle_gamma 90.000000
_cell_volume 3545.454005
_symmetry_space_group_name_H-M "C M C A"
_symmetry_group_IT_number 64
_symmetry_cell_setting 'orthorhombic'
loop_
_space_group_symop_operation_xyz
x,y,z
-x,1/2-y,1/2+z
x,-y,-z
-x,1/2+y,1/2-z
-x,-y,-z
x,1/2+y,1/2-z
-x,y,z
x,1/2-y,1/2+z
1/2+x,1/2+y,z
1/2-x,-y,1/2+z
1/2+x,1/2-y,-z
1/2-x,y,1/2-z
1/2-x,1/2-y,-z
1/2+x,y,1/2-z
1/2-x,1/2+y,z
1/2+x,-y,1/2+z
loop_
_atom_site_type_symbol
_atom_site_label
_atom_site_fract_x
_atom_site_fract_y
_atom_site_fract_z
Si Si1 0.415597 0.013463 0.775012
Si Si2 0.235098 0.313905 0.908837
Si Si3 0.913741 0.110340 0.486547
Si Si4 0.708563 0.952748 0.606939
O O1 0.500000 0.023992 0.731022
O O2 0.365202 0.992436 0.649174
O O3 0.394456 0.077535 0.866940
O O4 0.414249 0.950384 0.878166
O O5 0.250000 0.298961 0.750000
O O6 0.289461 0.376854 0.943943
O O7 0.250000 0.250000 0.000000
O O8 0.151019 0.340043 0.937792
O O9 0.000000 0.135209 0.491938
O O10 0.750000 0.949211 0.750000
O O11 0.749532 0.000000 0.500000
#
# Coordination Sequence:
#
# PCOD9481753 Si02
#       4
#    16  16  16  16
#     4   9  17  32  60  90 112 139 184 238 290 348
#     4  11  23  38  54  81 117 153 197 240 286 344
#     4   9  17  35  61  85 111 147 190 233 291 358
#     4  11  21  35  57  84 113 149 190 240 295 344
#
# _framework density 18.051283000000002
#
# number of rings (size 3 to 8) (size 9 to 14) (size 15 to 20)
#    0.000    2.000    5.000    3.000    0.000    3.500 
#    0.000    2.500    0.000    0.000    0.000    0.000 
#    0.000    0.000    0.000    0.000    0.000    0.000 
#
# Total GULP energy -178186.772916 kJ/mol
# GULP energy per Si atom -5568.336654 kJ/mol
# Density = 1.801020 g / cm^3
# Si number density = 18.051283 Si / 1000 Ang^3
#
#
#
# Elastic Constant Matrix: (Units=GPa)
#
#
# Indices 1 2 3 4 5 6 
#
# 1 123.8726 41.5481 41.7753 0.0000 0.0000 0.0000
# 2 41.5481 105.8908 63.9220 0.0000 0.0000 0.0000
# 3 41.7753 63.9220 75.1595 0.0000 0.0000 0.0000
# 4 0.0000 0.0000 0.0000 32.3481 0.0000 0.0000
# 5 0.0000 0.0000 0.0000 0.0000 22.6948 0.0000
# 6 0.0000 0.0000 0.0000 0.0000 0.0000 14.6349
#
#
#
# Elastic Compliance Matrix: (Units=1/GPa)
#
#
# Indices 1 2 3 4 5 6 
#
# 1 0.010005 -0.001169 -0.004567 0.000000 0.000000 0.000000
# 2 -0.001169 0.019544 -0.015972 0.000000 0.000000 0.000000
# 3 -0.004567 -0.015972 0.029428 0.000000 0.000000 0.000000
# 4 0.000000 0.000000 0.000000 0.030914 0.000000 0.000000
# 5 0.000000 0.000000 0.000000 0.000000 0.044063 0.000000
# 6 0.000000 0.000000 0.000000 0.000000 0.000000 0.068330
#
#
# Mechanical properties :
#
#
# Convention : Reuss Voigt Hill
#
# Bulk Modulus (GPa) = 64.26471 66.60153 65.43312
# Shear Modulus (GPa) = 19.92933 24.44741 22.18837
#
# Velocity S-wave (km/s) = 3.32631 3.68412 3.50978
# Velocity P-wave (km/s) = 7.10148 7.42110 7.26305
#
# Compressibility (1/GPa) = 0.01556064
#
# Stress axis : x y z
#
# Youngs Moduli (GPa) = 99.94989 51.16619 33.98149
#
# Poissons Ratio (x) = 0.05980 0.15520
# Poissons Ratio (y) = 0.11681 0.54277
# Poissons Ratio (z) = 0.45648 0.81725
#
# Static dielectric constant tensor:
#      x y z
#    x 1.696990 0.000000 0.000000 
#    y 0.000000 1.605540 0.000000 
#    z 0.000000 0.000000 1.657550 
# 
# From -- ./inp_files/6580.got.cif
#   From: 2010.05.17/outbox.cif.g08.bks.cpg/sg64_4_cif.got.tgz:6580.got - 2010.06.03 16:29:19.
