data_PCOD9481223
_publ_section_title
;
Structure prediction by ZEFSAII (Michael W. Deem and Ramdas Pophale) SiO2 
 PCOD9481223
Probable space group: C M C A
;
_chemical_formula_sum "Si O2"
_cell_formula_units_Z 80
_cell_length_a 14.019040
_cell_length_b 13.392961
_cell_length_c 21.321096
_cell_angle_alpha 90.000000
_cell_angle_beta 90.000000
_cell_angle_gamma 90.000000
_cell_volume 4003.173423
_symmetry_space_group_name_H-M "C M C A"
_symmetry_group_IT_number 64
_symmetry_cell_setting 'orthorhombic'
loop_
_space_group_symop_operation_xyz
x,y,z
-x,1/2-y,1/2+z
x,-y,-z
-x,1/2+y,1/2-z
-x,-y,-z
x,1/2+y,1/2-z
-x,y,z
x,1/2-y,1/2+z
1/2+x,1/2+y,z
1/2-x,-y,1/2+z
1/2+x,1/2-y,-z
1/2-x,y,1/2-z
1/2-x,1/2-y,-z
1/2+x,y,1/2-z
1/2-x,1/2+y,z
1/2+x,-y,1/2+z
loop_
_atom_site_type_symbol
_atom_site_label
_atom_site_fract_x
_atom_site_fract_y
_atom_site_fract_z
Si Si1 0.612191 0.684029 0.247328
Si Si2 0.790237 0.216346 0.433344
Si Si3 0.500000 0.427337 0.406799
Si Si4 0.500000 0.152267 0.049120
Si Si5 0.259190 0.073779 0.339087
Si Si6 0.187327 0.142459 0.666954
O O1 0.500000 0.685589 0.259891
O O2 0.641351 0.615382 0.187681
O O3 0.674945 0.633998 0.302070
O O4 0.651617 0.792707 0.226494
O O5 0.750000 0.250000 0.500000
O O6 0.904189 0.212022 0.435909
O O7 0.755122 0.106105 0.411013
O O8 0.747807 0.288706 0.380239
O O9 0.500000 0.378867 0.475864
O O10 0.500000 0.546921 0.414054
O O11 0.592299 0.391500 0.369474
O O12 0.245214 0.958974 0.323203
#
# Coordination Sequence:
#
# PCOD9481223 Si02
#       6
#    16  16   8   8  16  16
#     4  10  23  41  65  90 121 165 211 264 310 369
#     4  11  23  39  63  94 131 158 207 266 311 373
#     4  11  20  36  69  94 123 170 217 250 316 374
#     4  11  22  38  63 101 124 165 218 262 307 378
#     4  10  24  41  61  92 130 163 209 257 317 379
#     4  11  22  42  66  91 126 171 207 259 318 373
#
# _framework density 19.984145000000002
#
# number of rings (size 3 to 8) (size 9 to 14) (size 15 to 20)
#    0.000    1.400    5.000    0.000    2.800    7.200 
#    1.800    0.000    0.000    1.200    0.000    0.000 
#    0.000    0.000    0.000    0.000    0.000    0.000 
#
# Total GULP energy -223436.572313 kJ/mol
# GULP energy per Si atom -5585.914308 kJ/mol
# Density = 1.993866 g / cm^3
# Si number density = 19.984145 Si / 1000 Ang^3
#
#
#
# Elastic Constant Matrix: (Units=GPa)
#
#
# Indices 1 2 3 4 5 6 
#
# 1 110.4415 26.4979 8.6870 0.0000 0.0000 0.0000
# 2 26.4979 116.1259 16.5088 0.0000 0.0000 0.0000
# 3 8.6870 16.5088 57.0866 0.0000 0.0000 0.0000
# 4 0.0000 0.0000 0.0000 23.4609 0.0000 0.0000
# 5 0.0000 0.0000 0.0000 0.0000 31.4559 0.0000
# 6 0.0000 0.0000 0.0000 0.0000 0.0000 27.1134
#
#
#
# Elastic Compliance Matrix: (Units=1/GPa)
#
#
# Indices 1 2 3 4 5 6 
#
# 1 0.009620 -0.002072 -0.000865 0.000000 0.000000 0.000000
# 2 -0.002072 0.009427 -0.002411 0.000000 0.000000 0.000000
# 3 -0.000865 -0.002411 0.018346 0.000000 0.000000 0.000000
# 4 0.000000 0.000000 0.000000 0.042624 0.000000 0.000000
# 5 0.000000 0.000000 0.000000 0.000000 0.031791 0.000000
# 6 0.000000 0.000000 0.000000 0.000000 0.000000 0.036882
#
#
# Mechanical properties :
#
#
# Convention : Reuss Voigt Hill
#
# Bulk Modulus (GPa) = 37.45673 43.00459 40.23066
# Shear Modulus (GPa) = 29.71172 31.87005 30.79089
#
# Velocity S-wave (km/s) = 3.86004 3.99779 3.92952
# Velocity P-wave (km/s) = 6.21695 6.54796 6.38460
#
# Compressibility (1/GPa) = 0.02669747
#
# Stress axis : x y z
#
# Youngs Moduli (GPa) = 103.95297 106.07940 54.50778
#
# Poissons Ratio (x) = 0.21981 0.04713
# Poissons Ratio (y) = 0.21540 0.13141
# Poissons Ratio (z) = 0.08988 0.25574
#
# Static dielectric constant tensor:
#      x y z
#    x 1.678260 0.000000 0.000000 
#    y 0.000000 1.735390 0.000000 
#    z 0.000000 0.000000 1.769440 
# 
# From -- ./inp_files/45011.got.cif
#   From: 2010.05.17/outbox.cif.g08.bks.cpg/sg64_23_cif.got.tgz:45011.got - 2010.06.03 16:29:19.
