data_PCOD9481790
_publ_section_title
;
Structure prediction by ZEFSAII (Michael W. Deem and Ramdas Pophale) SiO2 
 PCOD9481790
Probable space group: C M C A
;
_chemical_formula_sum "Si O2"
_cell_formula_units_Z 88
_cell_length_a 24.634345
_cell_length_b 13.699173
_cell_length_c 10.673902
_cell_angle_alpha 90.000000
_cell_angle_beta 90.000000
_cell_angle_gamma 90.000000
_cell_volume 3602.123351
_symmetry_space_group_name_H-M "C M C A"
_symmetry_group_IT_number 64
_symmetry_cell_setting 'orthorhombic'
loop_
_space_group_symop_operation_xyz
x,y,z
-x,1/2-y,1/2+z
x,-y,-z
-x,1/2+y,1/2-z
-x,-y,-z
x,1/2+y,1/2-z
-x,y,z
x,1/2-y,1/2+z
1/2+x,1/2+y,z
1/2-x,-y,1/2+z
1/2+x,1/2-y,-z
1/2-x,y,1/2-z
1/2-x,1/2-y,-z
1/2+x,y,1/2-z
1/2-x,1/2+y,z
1/2+x,-y,1/2+z
loop_
_atom_site_type_symbol
_atom_site_label
_atom_site_fract_x
_atom_site_fract_y
_atom_site_fract_z
Si Si1 0.336142 0.438582 0.833850
Si Si2 0.250000 0.074376 0.750000
Si Si3 0.939193 0.239192 0.787188
Si Si4 0.934327 0.356307 0.540670
Si Si5 0.196208 0.775158 0.423027
Si Si6 0.886423 0.092544 0.421822
O O1 0.285290 0.511008 0.849371
O O2 0.394622 0.438414 0.902403
O O3 0.349415 0.450327 0.688398
O O4 0.318121 0.328489 0.862496
O O5 0.208694 0.147212 0.683795
O O6 0.925859 0.265835 0.642152
O O7 0.932977 0.344079 0.855354
O O8 0.000000 0.203414 0.779116
O O9 0.915540 0.169294 0.897660
O O10 0.000000 0.375434 0.543102
O O11 0.250000 0.750000 0.500000
O O12 0.152627 0.830660 0.508680
O O13 0.905967 0.000000 0.500000
#
# Coordination Sequence:
#
# PCOD9481790 Si02
#       6
#    16   8  16  16  16  16
#     4  11  23  40  64  94 129 173 214 271 332 390
#     4  12  24  42  64  92 130 170 220 270 326 402
#     4   9  18  34  61  93 127 167 213 266 329 393
#     4   9  18  36  63  96 130 169 220 272 330 398
#     4  12  25  41  63  91 125 170 216 271 327 392
#     4  11  21  39  60  87 128 160 210 272 318 384
#
# _framework density 24.430033000000002
#
# number of rings (size 3 to 8) (size 9 to 14) (size 15 to 20)
#    0.000    1.455    3.636    2.727    0.000    0.364 
#    0.000    0.000    4.000    1.091    0.000    3.818 
#    0.000    0.727    0.000    0.000    0.000    0.000 
#
# Total GULP energy -245231.508264 kJ/mol
# GULP energy per Si atom -5573.443370 kJ/mol
# Density = 2.437443 g / cm^3
# Si number density = 24.430033 Si / 1000 Ang^3
#
#
#
# Elastic Constant Matrix: (Units=GPa)
#
#
# Indices 1 2 3 4 5 6 
#
# 1 77.6183 16.0830 13.0498 0.0000 0.0000 0.0000
# 2 16.0830 99.2094 23.4666 0.0000 0.0000 0.0000
# 3 13.0498 23.4666 98.6839 0.0000 0.0000 0.0000
# 4 0.0000 0.0000 0.0000 43.2169 0.0000 0.0000
# 5 0.0000 0.0000 0.0000 0.0000 17.1373 0.0000
# 6 0.0000 0.0000 0.0000 0.0000 0.0000 252.6297
#
#
#
# Elastic Compliance Matrix: (Units=1/GPa)
#
#
# Indices 1 2 3 4 5 6 
#
# 1 0.013497 -0.001871 -0.001340 0.000000 0.000000 0.000000
# 2 -0.001871 0.010940 -0.002354 0.000000 0.000000 0.000000
# 3 -0.001340 -0.002354 0.010870 0.000000 0.000000 0.000000
# 4 0.000000 0.000000 0.000000 0.023139 0.000000 0.000000
# 5 0.000000 0.000000 0.000000 0.000000 0.058352 0.000000
# 6 0.000000 0.000000 0.000000 0.000000 0.000000 0.003958
#
#
# Mechanical properties :
#
#
# Convention : Reuss Voigt Hill
#
# Bulk Modulus (GPa) = 41.36183 42.30116 41.83150
# Shear Modulus (GPa) = 35.72826 77.45757 56.59292
#
# Velocity S-wave (km/s) = 3.82838 5.63691 4.81826
# Velocity P-wave (km/s) = 6.04231 7.72781 6.93645
#
# Compressibility (1/GPa) = 0.02417688
#
# Stress axis : x y z
#
# Youngs Moduli (GPa) = 74.09325 91.40920 91.99366
#
# Poissons Ratio (x) = 0.17103 0.12326
# Poissons Ratio (y) = 0.13863 0.21655
# Poissons Ratio (z) = 0.09927 0.21518
#
# Static dielectric constant tensor:
#      x y z
#    x 2.018130 0.000000 0.000000 
#    y 0.000000 1.849000 0.000000 
#    z 0.000000 0.000000 2.730730 
# 
# From -- ./inp_files/19770.got.cif
#   From: 2010.05.17/outbox.cif.g08.bks.cpg/sg64_10_cif.got.tgz:19770.got - 2010.06.03 16:29:19.
