data_PCOD9481288
_publ_section_title
;
Structure prediction by ZEFSAII (Michael W. Deem and Ramdas Pophale) SiO2 
 PCOD9481288
Probable space group: C M C A
;
_chemical_formula_sum "Si O2"
_cell_formula_units_Z 72
_cell_length_a 26.850308
_cell_length_b 16.715133
_cell_length_c 8.045390
_cell_angle_alpha 90.000000
_cell_angle_beta 90.000000
_cell_angle_gamma 90.000000
_cell_volume 3610.823080
_symmetry_space_group_name_H-M "C M C A"
_symmetry_group_IT_number 64
_symmetry_cell_setting 'orthorhombic'
loop_
_space_group_symop_operation_xyz
x,y,z
-x,1/2-y,1/2+z
x,-y,-z
-x,1/2+y,1/2-z
-x,-y,-z
x,1/2+y,1/2-z
-x,y,z
x,1/2-y,1/2+z
1/2+x,1/2+y,z
1/2-x,-y,1/2+z
1/2+x,1/2-y,-z
1/2-x,y,1/2-z
1/2-x,1/2-y,-z
1/2+x,y,1/2-z
1/2-x,1/2+y,z
1/2+x,-y,1/2+z
loop_
_atom_site_type_symbol
_atom_site_label
_atom_site_fract_x
_atom_site_fract_y
_atom_site_fract_z
Si Si1 0.824470 0.344271 0.451099
Si Si2 0.141121 0.823883 0.420495
Si Si3 0.726543 0.410823 0.570398
Si Si4 0.058761 0.443168 0.160627
Si Si5 0.113085 0.500000 0.500000
O O1 0.832269 0.340275 0.254529
O O2 0.851358 0.267825 0.531297
O O3 0.765717 0.352386 0.479974
O O4 0.851182 0.423509 0.520901
O O5 0.171772 0.874124 0.557160
O O6 0.086816 0.860814 0.388622
O O7 0.725603 0.500000 0.500000
O O8 0.750000 0.416218 0.750000
O O9 0.081853 0.480423 0.331362
O O10 0.000000 0.431641 0.185142
O O11 0.066287 0.500000 0.000000
#
# Coordination Sequence:
#
# PCOD9481288 Si02
#       5
#    16  16  16  16   8
#     4  11  23  41  62  96 128 173 213 266 333 395
#     4  11  24  40  64  92 132 165 217 272 325 392
#     4  12  24  38  62  94 131 173 215 265 327 403
#     4  10  23  43  69  96 127 172 221 271 333 390
#     4  10  23  42  70  92 134 170 223 268 330 400
#
# _framework density 19.940052000000001
#
# number of rings (size 3 to 8) (size 9 to 14) (size 15 to 20)
#    0.000    1.111    1.111    5.000    9.333    0.000 
#    0.000    5.556    0.000    0.000    0.000    0.000 
#    0.000    0.000    0.000    0.000    0.000    0.000 
#
# Total GULP energy -201144.072496 kJ/mol
# GULP energy per Si atom -5587.335347 kJ/mol
# Density = 1.989467 g / cm^3
# Si number density = 19.940052 Si / 1000 Ang^3
#
#
#
# Elastic Constant Matrix: (Units=GPa)
#
#
# Indices 1 2 3 4 5 6 
#
# 1 103.0334 44.2638 25.1504 0.0000 0.0000 0.0000
# 2 44.2638 137.7676 31.1750 0.0000 0.0000 0.0000
# 3 25.1504 31.1750 71.6047 0.0000 0.0000 0.0000
# 4 0.0000 0.0000 0.0000 40.8904 0.0000 0.0000
# 5 0.0000 0.0000 0.0000 0.0000 31.9276 0.0000
# 6 0.0000 0.0000 0.0000 0.0000 0.0000 11.5420
#
#
#
# Elastic Compliance Matrix: (Units=1/GPa)
#
#
# Indices 1 2 3 4 5 6 
#
# 1 0.011728 -0.003146 -0.002750 0.000000 0.000000 0.000000
# 2 -0.003146 0.008896 -0.002768 0.000000 0.000000 0.000000
# 3 -0.002750 -0.002768 0.016137 0.000000 0.000000 0.000000
# 4 0.000000 0.000000 0.000000 0.024456 0.000000 0.000000
# 5 0.000000 0.000000 0.000000 0.000000 0.031321 0.000000
# 6 0.000000 0.000000 0.000000 0.000000 0.000000 0.086640
#
#
# Mechanical properties :
#
#
# Convention : Reuss Voigt Hill
#
# Bulk Modulus (GPa) = 51.45866 57.06490 54.26178
# Shear Modulus (GPa) = 24.63265 30.99310 27.81288
#
# Velocity S-wave (km/s) = 3.51855 3.94676 3.73879
# Velocity P-wave (km/s) = 6.50919 7.03204 6.77566
#
# Compressibility (1/GPa) = 0.01943308
#
# Stress axis : x y z
#
# Youngs Moduli (GPa) = 85.26354 112.41319 61.97123
#
# Poissons Ratio (x) = 0.35365 0.17041
# Poissons Ratio (y) = 0.26824 0.17154
# Poissons Ratio (z) = 0.23445 0.31116
#
# Static dielectric constant tensor:
#      x y z
#    x 1.689250 0.000000 0.000000 
#    y 0.000000 1.728020 0.000000 
#    z 0.000000 0.000000 1.716440 
# 
# From -- ./inp_files/10001.got.cif
#   From: 2010.05.17/outbox.cif.g08.bks.cpg/sg64_6_cif.got.tgz:10001.got - 2010.06.03 16:29:19.
