data_PCOD9481196
_publ_section_title
;
Structure prediction by ZEFSAII (Michael W. Deem and Ramdas Pophale) SiO2 
 PCOD9481196
Probable space group: C M C A
;
_chemical_formula_sum "Si O2"
_cell_formula_units_Z 72
_cell_length_a 22.722556
_cell_length_b 13.523812
_cell_length_c 10.744861
_cell_angle_alpha 90.000000
_cell_angle_beta 90.000000
_cell_angle_gamma 90.000000
_cell_volume 3301.848245
_symmetry_space_group_name_H-M "C M C A"
_symmetry_group_IT_number 64
_symmetry_cell_setting 'orthorhombic'
loop_
_space_group_symop_operation_xyz
x,y,z
-x,1/2-y,1/2+z
x,-y,-z
-x,1/2+y,1/2-z
-x,-y,-z
x,1/2+y,1/2-z
-x,y,z
x,1/2-y,1/2+z
1/2+x,1/2+y,z
1/2-x,-y,1/2+z
1/2+x,1/2-y,-z
1/2-x,y,1/2-z
1/2-x,1/2-y,-z
1/2+x,y,1/2-z
1/2-x,1/2+y,z
1/2+x,-y,1/2+z
loop_
_atom_site_type_symbol
_atom_site_label
_atom_site_fract_x
_atom_site_fract_y
_atom_site_fract_z
Si Si1 0.091431 0.990270 0.645240
Si Si2 0.862036 0.287640 0.857478
Si Si3 0.209832 0.591620 0.938005
Si Si4 0.933169 0.912451 0.096259
Si Si5 0.750000 0.232012 0.750000
O O1 0.158161 0.036278 0.639317
O O2 0.064306 0.045761 0.762163
O O3 0.070630 0.000000 0.500000
O O4 0.091811 0.873733 0.673977
O O5 0.892387 0.185187 0.894653
O O6 0.812876 0.283623 0.748072
O O7 0.825040 0.336769 0.969567
O O8 0.254095 0.659062 0.865423
O O9 0.242472 0.500000 0.000000
O O10 0.000000 0.884560 0.058528
O O11 0.914084 0.000000 0.000000
#
# Coordination Sequence:
#
# PCOD9481196 Si02
#       5
#    16  16  16  16   8
#     4   9  21  43  64  89 130 167 211 259 312 385
#     4  10  23  40  63  92 132 162 212 266 315 380
#     4   9  21  39  57  93 130 166 213 252 313 386
#     4  11  25  43  66  96 126 166 215 268 329 373
#     4  12  20  36  66  94 124 178 208 258 320 384
#
# _framework density 21.805968
#
# number of rings (size 3 to 8) (size 9 to 14) (size 15 to 20)
#    0.000    2.444    2.222    0.667    3.111    5.778 
#    0.000    7.778    0.000    0.667    0.000    0.000 
#    0.000    0.000    0.000    0.000    0.000    0.000 
#
# Total GULP energy -200409.779599 kJ/mol
# GULP energy per Si atom -5566.938322 kJ/mol
# Density = 2.175634 g / cm^3
# Si number density = 21.805968 Si / 1000 Ang^3
#
#
#
# Elastic Constant Matrix: (Units=GPa)
#
#
# Indices 1 2 3 4 5 6 
#
# 1 49.5469 44.8154 7.0203 0.0000 0.0000 0.0000
# 2 44.8154 162.7587 43.1907 0.0000 0.0000 0.0000
# 3 7.0203 43.1907 59.9646 0.0000 0.0000 0.0000
# 4 0.0000 0.0000 0.0000 22.1643 0.0000 0.0000
# 5 0.0000 0.0000 0.0000 0.0000 10.5344 0.0000
# 6 0.0000 0.0000 0.0000 0.0000 0.0000 -12.8663
#
#
#
# Elastic Compliance Matrix: (Units=1/GPa)
#
#
# Indices 1 2 3 4 5 6 
#
# 1 0.027235 -0.008225 0.002736 0.000000 0.000000 0.000000
# 2 -0.008225 0.010080 -0.006297 0.000000 0.000000 0.000000
# 3 0.002736 -0.006297 0.020892 0.000000 0.000000 0.000000
# 4 0.000000 0.000000 0.000000 0.045118 0.000000 0.000000
# 5 0.000000 0.000000 0.000000 0.000000 0.094927 0.000000
# 6 0.000000 0.000000 0.000000 0.000000 0.000000 -0.077723
#
#
# Mechanical properties :
#
#
# Convention : Reuss Voigt Hill
#
# Bulk Modulus (GPa) = 28.87370 51.36921 40.12145
# Shear Modulus (GPa) = 32.12398 15.78273 23.95335
#
# Velocity S-wave (km/s) = 3.84236 2.69324 3.31792
# Velocity P-wave (km/s) = 5.74063 5.76887 5.75477
#
# Compressibility (1/GPa) = 0.03463360
#
# Stress axis : x y z
#
# Youngs Moduli (GPa) = 36.71759 99.20702 47.86518
#
# Poissons Ratio (x) = 0.81599 -0.13095
# Poissons Ratio (y) = 0.30201 0.30142
# Poissons Ratio (z) = -0.10045 0.62474
#
# Static dielectric constant tensor:
#      x y z
#    x 1.891320 0.000000 0.000000 
#    y 0.000000 1.823530 0.000000 
#    z 0.000000 0.000000 1.884450 
# 
# From -- ./inp_files/18921.got.cif
#   From: 2010.05.17/outbox.cif.g08.bks.cpg/sg64_10_cif.got.tgz:18921.got - 2010.06.03 16:29:19.
