data_PCOD9481320
_publ_section_title
;
Structure prediction by ZEFSAII (Michael W. Deem and Ramdas Pophale) SiO2 
 PCOD9481320
Probable space group: C M C A
;
_chemical_formula_sum "Si O2"
_cell_formula_units_Z 116
_cell_length_a 27.182368
_cell_length_b 10.894101
_cell_length_c 18.357288
_cell_angle_alpha 90.000000
_cell_angle_beta 90.000000
_cell_angle_gamma 90.000000
_cell_volume 5436.097112
_symmetry_space_group_name_H-M "C M C A"
_symmetry_group_IT_number 64
_symmetry_cell_setting 'orthorhombic'
loop_
_space_group_symop_operation_xyz
x,y,z
-x,1/2-y,1/2+z
x,-y,-z
-x,1/2+y,1/2-z
-x,-y,-z
x,1/2+y,1/2-z
-x,y,z
x,1/2-y,1/2+z
1/2+x,1/2+y,z
1/2-x,-y,1/2+z
1/2+x,1/2-y,-z
1/2-x,y,1/2-z
1/2-x,1/2-y,-z
1/2+x,y,1/2-z
1/2-x,1/2+y,z
1/2+x,-y,1/2+z
loop_
_atom_site_type_symbol
_atom_site_label
_atom_site_fract_x
_atom_site_fract_y
_atom_site_fract_z
Si Si1 0.304811 0.859450 0.929244
Si Si2 0.894100 0.950672 0.779603
Si Si3 0.417292 0.301920 0.551335
Si Si4 0.442960 0.210816 0.707398
Si Si5 0.371382 0.111489 0.444207
Si Si6 0.785461 0.285367 0.085733
Si Si7 0.000000 0.000000 0.500000
Si Si8 0.202864 0.537718 0.799454
O O1 0.363653 0.852556 0.924084
O O2 0.272643 0.738902 0.908002
O O3 0.286195 0.953970 0.869450
O O4 0.294028 0.870520 0.015175
O O5 0.915932 0.828585 0.742540
O O6 0.890728 0.927462 0.865689
O O7 0.923864 0.077602 0.767224
O O8 0.840885 0.979539 0.745965
O O9 0.435905 0.223403 0.620171
O O10 0.404485 0.217906 0.481332
O O11 0.456511 0.405779 0.531307
O O12 0.500000 0.221081 0.725938
O O13 0.316331 0.164466 0.434547
O O14 0.370931 0.000000 0.500000
O O15 0.808506 0.334296 0.160458
O O16 0.250000 0.551425 0.750000
#
# Coordination Sequence:
#
# PCOD9481320 Si02
#       8
#    16  16  16  16  16  16   4  16
#     4  10  23  43  67  99 141 193 246 303 364 452
#     4  12  27  47  76 107 152 195 253 308 391 446
#     4  11  25  47  77 104 151 188 253 310 383 442
#     4  12  26  51  74 106 145 198 248 323 377 454
#     4  11  24  47  74 108 145 198 245 308 373 460
#     4  10  24  41  70 104 142 193 250 298 370 455
#     4  12  28  48  78 120 140 196 250 332 374 464
#     4  12  26  40  68 108 153 195 244 308 372 452
#
# _framework density 21.338837999999999
#
# number of rings (size 3 to 8) (size 9 to 14) (size 15 to 20)
#    0.000    0.828    3.448    2.483    5.793    7.172 
#    4.966    1.034    0.000    0.000    0.000    0.000 
#    0.000    0.000    0.000    0.000    0.000    0.000 
#
# Total GULP energy -323549.102592 kJ/mol
# GULP energy per Si atom -5578.432803 kJ/mol
# Density = 2.129027 g / cm^3
# Si number density = 21.338838 Si / 1000 Ang^3
#
#
#
# Elastic Constant Matrix: (Units=GPa)
#
#
# Indices 1 2 3 4 5 6 
#
# 1 70.7657 23.5051 18.8167 0.0000 0.0000 0.0000
# 2 23.5051 84.4198 40.3038 0.0000 0.0000 0.0000
# 3 18.8167 40.3038 117.0888 0.0000 0.0000 0.0000
# 4 0.0000 0.0000 0.0000 29.6725 0.0000 0.0000
# 5 0.0000 0.0000 0.0000 0.0000 -0.1653 0.0000
# 6 0.0000 0.0000 0.0000 0.0000 0.0000 26.1901
#
#
#
# Elastic Compliance Matrix: (Units=1/GPa)
#
#
# Indices 1 2 3 4 5 6 
#
# 1 0.015715 -0.003793 -0.001220 0.000000 0.000000 0.000000
# 2 -0.003793 0.015091 -0.004585 0.000000 0.000000 0.000000
# 3 -0.001220 -0.004585 0.010315 0.000000 0.000000 0.000000
# 4 0.000000 0.000000 0.000000 0.033701 0.000000 0.000000
# 5 0.000000 0.000000 0.000000 0.000000 -6.049188 0.000000
# 6 0.000000 0.000000 0.000000 0.000000 0.000000 0.038182
#
#
# Mechanical properties :
#
#
# Convention : Reuss Voigt Hill
#
# Bulk Modulus (GPa) = 45.61026 48.61395 47.11210
# Shear Modulus (GPa) = -0.84607 23.78271 11.46832
#
# Velocity S-wave (km/s) = -0.63036 3.34207 2.32079
# Velocity P-wave (km/s) = 4.57066 6.14199 5.41363
#
# Compressibility (1/GPa) = 0.02192489
#
# Stress axis : x y z
#
# Youngs Moduli (GPa) = 63.63166 66.26628 96.94870
#
# Poissons Ratio (x) = 0.25137 0.11826
# Poissons Ratio (y) = 0.24137 0.44449
# Poissons Ratio (z) = 0.07762 0.30382
#
# Static dielectric constant tensor:
#      x y z
#    x 1.752380 0.000000 0.000000 
#    y 0.000000 1.878300 0.000000 
#    z 0.000000 0.000000 1.756730 
# 
# From -- ./inp_files/35506.got.cif
#   From: 2010.05.17/outbox.cif.g08.bks.cpg/sg64_18_cif.got.tgz:35506.got - 2010.06.03 16:29:19.
