data_PCOD9481616
_publ_section_title
;
Structure prediction by ZEFSAII (Michael W. Deem and Ramdas Pophale) SiO2 
 PCOD9481616
Probable space group: C M C A
;
_chemical_formula_sum "Si O2"
_cell_formula_units_Z 64
_cell_length_a 22.986400
_cell_length_b 20.436313
_cell_length_c 5.073867
_cell_angle_alpha 90.000000
_cell_angle_beta 90.000000
_cell_angle_gamma 90.000000
_cell_volume 2383.485886
_symmetry_space_group_name_H-M "C M C A"
_symmetry_group_IT_number 64
_symmetry_cell_setting 'orthorhombic'
loop_
_space_group_symop_operation_xyz
x,y,z
-x,1/2-y,1/2+z
x,-y,-z
-x,1/2+y,1/2-z
-x,-y,-z
x,1/2+y,1/2-z
-x,y,z
x,1/2-y,1/2+z
1/2+x,1/2+y,z
1/2-x,-y,1/2+z
1/2+x,1/2-y,-z
1/2-x,y,1/2-z
1/2-x,1/2-y,-z
1/2+x,y,1/2-z
1/2-x,1/2+y,z
1/2+x,-y,1/2+z
loop_
_atom_site_type_symbol
_atom_site_label
_atom_site_fract_x
_atom_site_fract_y
_atom_site_fract_z
Si Si1 0.000000 0.796312 0.584362
Si Si2 0.809688 0.582194 0.208271
Si Si3 0.594886 0.000000 0.500000
Si Si4 0.595892 0.622899 0.687895
Si Si5 0.675587 0.294131 0.044327
O O1 0.055197 0.843559 0.527056
O O2 0.000000 0.759261 0.858665
O O3 0.750000 0.542923 0.250000
O O4 0.862852 0.539268 0.308646
O O5 0.797177 0.641465 0.413909
O O6 0.839824 0.606908 0.937483
O O7 0.568419 0.058333 0.677688
O O8 0.610255 0.678398 0.905855
O O9 0.687390 0.260495 0.324053
#
# Coordination Sequence:
#
# PCOD9481616 Si02
#       5
#     8  16   8  16  16
#     4  12  30  49  87 113 151 202 256 328 396 472
#     4  11  26  45  73 110 153 206 255 316 386 456
#     4  10  26  43  78 104 156 199 260 320 372 462
#     4  11  25  49  73 113 151 204 262 320 387 453
#     4  11  22  42  70  99 147 189 243 308 373 452
#
# _framework density 26.851429
#
# number of rings (size 3 to 8) (size 9 to 14) (size 15 to 20)
#    0.000    1.000    2.500    2.250   10.500    4.500 
#    0.000    2.500    0.000    0.000    0.000    0.000 
#    0.000    0.000    0.000    0.000    0.000    0.000 
#
# Total GULP energy -178626.994672 kJ/mol
# GULP energy per Si atom -5582.093583 kJ/mol
# Density = 2.679031 g / cm^3
# Si number density = 26.851429 Si / 1000 Ang^3
#
#
#
# Elastic Constant Matrix: (Units=GPa)
#
#
# Indices 1 2 3 4 5 6 
#
# 1 114.5351 5.2475 30.8366 0.0000 0.0000 0.0000
# 2 5.2475 91.5172 17.6670 0.0000 0.0000 0.0000
# 3 30.8366 17.6670 145.4018 0.0000 0.0000 0.0000
# 4 0.0000 0.0000 0.0000 49.0534 0.0000 0.0000
# 5 0.0000 0.0000 0.0000 0.0000 25.8482 0.0000
# 6 0.0000 0.0000 0.0000 0.0000 0.0000 68.5928
#
#
#
# Elastic Compliance Matrix: (Units=1/GPa)
#
#
# Indices 1 2 3 4 5 6 
#
# 1 0.009262 -0.000156 -0.001945 0.000000 0.000000 0.000000
# 2 -0.000156 0.011192 -0.001327 0.000000 0.000000 0.000000
# 3 -0.001945 -0.001327 0.007451 0.000000 0.000000 0.000000
# 4 0.000000 0.000000 0.000000 0.020386 0.000000 0.000000
# 5 0.000000 0.000000 0.000000 0.000000 0.038687 0.000000
# 6 0.000000 0.000000 0.000000 0.000000 0.000000 0.014579
#
#
# Mechanical properties :
#
#
# Convention : Reuss Voigt Hill
#
# Bulk Modulus (GPa) = 47.50693 50.99516 49.25105
# Shear Modulus (GPa) = 43.31660 48.54576 45.93118
#
# Velocity S-wave (km/s) = 4.02082 4.25660 4.14039
# Velocity P-wave (km/s) = 6.26793 6.57199 6.42176
#
# Compressibility (1/GPa) = 0.02104956
#
# Stress axis : x y z
#
# Youngs Moduli (GPa) = 107.97016 89.34976 134.20514
#
# Poissons Ratio (x) = 0.01390 0.26107
# Poissons Ratio (y) = 0.01679 0.17808
# Poissons Ratio (z) = 0.21004 0.11856
#
# Static dielectric constant tensor:
#      x y z
#    x 2.266470 0.000000 0.000000 
#    y 0.000000 2.234620 0.000000 
#    z 0.000000 0.000000 2.441650 
# 
# From -- ./inp_files/2723.got.cif
#   From: 2010.05.17/outbox.cif.g08.bks.cpg/sg64_2_cif.got.tgz:2723.got - 2010.06.03 16:29:19.
