data_PCOD9481127
_publ_section_title
;
Structure prediction by ZEFSAII (Michael W. Deem and Ramdas Pophale) SiO2 
 PCOD9481127
Probable space group: C M C A
;
_chemical_formula_sum "Si O2"
_cell_formula_units_Z 64
_cell_length_a 19.068015
_cell_length_b 10.321460
_cell_length_c 14.551123
_cell_angle_alpha 90.000000
_cell_angle_beta 90.000000
_cell_angle_gamma 90.000000
_cell_volume 2863.802940
_symmetry_space_group_name_H-M "C M C A"
_symmetry_group_IT_number 64
_symmetry_cell_setting 'orthorhombic'
loop_
_space_group_symop_operation_xyz
x,y,z
-x,1/2-y,1/2+z
x,-y,-z
-x,1/2+y,1/2-z
-x,-y,-z
x,1/2+y,1/2-z
-x,y,z
x,1/2-y,1/2+z
1/2+x,1/2+y,z
1/2-x,-y,1/2+z
1/2+x,1/2-y,-z
1/2-x,y,1/2-z
1/2-x,1/2-y,-z
1/2+x,y,1/2-z
1/2-x,1/2+y,z
1/2+x,-y,1/2+z
loop_
_atom_site_type_symbol
_atom_site_label
_atom_site_fract_x
_atom_site_fract_y
_atom_site_fract_z
Si Si1 0.579222 0.282804 0.126627
Si Si2 0.189188 0.852070 0.972025
Si Si3 0.075913 0.983423 0.391584
Si Si4 0.824860 0.697529 0.798027
O O1 0.500000 0.331900 0.120109
O O2 0.621779 0.315534 0.034257
O O3 0.577539 0.128915 0.143814
O O4 0.620991 0.327260 0.215483
O O5 0.250000 0.750000 0.000000
O O6 0.175178 0.825965 0.863220
O O7 0.206897 0.000000 0.000000
O O8 0.000000 0.921375 0.364325
O O9 0.073678 0.000000 0.500000
O O10 0.147052 0.910720 0.367523
O O11 0.750000 0.685737 0.750000
#
# Coordination Sequence:
#
# PCOD9481127 Si02
#       4
#    16  16  16  16
#     4  11  26  46  72 109 147 192 245 303 368 436
#     4  12  29  50  75 105 148 196 248 309 367 442
#     4  10  22  44  74 102 142 194 243 296 359 437
#     4  12  26  44  74 108 145 189 245 307 364 434
#
# _framework density 22.347906999999999
#
# number of rings (size 3 to 8) (size 9 to 14) (size 15 to 20)
#    0.000    0.750    5.000    0.750    7.000    2.500 
#    0.000    0.000    0.000    0.000    0.000    0.000 
#    0.000    0.000    0.000    0.000    0.000    0.000 
#
# Total GULP energy -178635.772254 kJ/mol
# GULP energy per Si atom -5582.367883 kJ/mol
# Density = 2.229704 g / cm^3
# Si number density = 22.347907 Si / 1000 Ang^3
#
#
#
# Elastic Constant Matrix: (Units=GPa)
#
#
# Indices 1 2 3 4 5 6 
#
# 1 186.3268 51.2298 92.1625 0.0000 0.0000 0.0000
# 2 51.2298 83.9654 6.3590 0.0000 0.0000 0.0000
# 3 92.1625 6.3590 107.3803 0.0000 0.0000 0.0000
# 4 0.0000 0.0000 0.0000 19.1578 0.0000 0.0000
# 5 0.0000 0.0000 0.0000 0.0000 52.5888 0.0000
# 6 0.0000 0.0000 0.0000 0.0000 0.0000 22.5424
#
#
#
# Elastic Compliance Matrix: (Units=1/GPa)
#
#
# Indices 1 2 3 4 5 6 
#
# 1 0.012171 -0.006665 -0.010052 0.000000 0.000000 0.000000
# 2 -0.006665 0.015613 0.004796 0.000000 0.000000 0.000000
# 3 -0.010052 0.004796 0.017656 0.000000 0.000000 0.000000
# 4 0.000000 0.000000 0.000000 0.052198 0.000000 0.000000
# 5 0.000000 0.000000 0.000000 0.000000 0.019015 0.000000
# 6 0.000000 0.000000 0.000000 0.000000 0.000000 0.044361
#
#
# Mechanical properties :
#
#
# Convention : Reuss Voigt Hill
#
# Bulk Modulus (GPa) = 46.29974 75.24169 60.77072
# Shear Modulus (GPa) = 26.03421 34.05255 30.04338
#
# Velocity S-wave (km/s) = 3.41684 3.90775 3.67051
# Velocity P-wave (km/s) = 6.02736 7.35542 6.72426
#
# Compressibility (1/GPa) = 0.02159839
#
# Stress axis : x y z
#
# Youngs Moduli (GPa) = 82.16138 64.04987 56.63858
#
# Poissons Ratio (x) = 0.42688 0.56931
# Poissons Ratio (y) = 0.54758 -0.27162
# Poissons Ratio (z) = 0.82585 -0.30716
#
# Static dielectric constant tensor:
#      x y z
#    x 1.880950 0.000000 0.000000 
#    y 0.000000 1.766650 0.000000 
#    z 0.000000 0.000000 1.980860 
# 
# From -- ./inp_files/25986.got.cif
#   From: 2010.05.17/outbox.cif.g08.bks.cpg/sg64_13_cif.got.tgz:25986.got - 2010.06.03 16:29:19.
