data_PCOD9481800
_publ_section_title
;
Structure prediction by ZEFSAII (Michael W. Deem and Ramdas Pophale) SiO2 
 PCOD9481800
Probable space group: C M C A
;
_chemical_formula_sum "Si O2"
_cell_formula_units_Z 56
_cell_length_a 15.697356
_cell_length_b 14.675411
_cell_length_c 10.567361
_cell_angle_alpha 90.000000
_cell_angle_beta 90.000000
_cell_angle_gamma 90.000000
_cell_volume 2434.351712
_symmetry_space_group_name_H-M "C M C A"
_symmetry_group_IT_number 64
_symmetry_cell_setting 'orthorhombic'
loop_
_space_group_symop_operation_xyz
x,y,z
-x,1/2-y,1/2+z
x,-y,-z
-x,1/2+y,1/2-z
-x,-y,-z
x,1/2+y,1/2-z
-x,y,z
x,1/2-y,1/2+z
1/2+x,1/2+y,z
1/2-x,-y,1/2+z
1/2+x,1/2-y,-z
1/2-x,y,1/2-z
1/2-x,1/2-y,-z
1/2+x,y,1/2-z
1/2-x,1/2+y,z
1/2+x,-y,1/2+z
loop_
_atom_site_type_symbol
_atom_site_label
_atom_site_fract_x
_atom_site_fract_y
_atom_site_fract_z
Si Si1 0.500000 0.101471 0.644097
Si Si2 0.226077 0.000000 0.500000
Si Si3 0.661522 0.355967 0.675749
Si Si4 0.679361 0.660979 0.857774
Si Si5 0.500000 0.616622 0.150656
O O1 0.411493 0.134290 0.700793
O O2 0.500000 0.139054 0.498521
O O3 0.500000 0.992955 0.648217
O O4 0.164649 0.949201 0.598204
O O5 0.288171 0.919879 0.448434
O O6 0.750000 0.359310 0.750000
O O7 0.665843 0.263871 0.591531
O O8 0.583247 0.351515 0.772786
O O9 0.750000 0.665782 0.750000
#
# Coordination Sequence:
#
# PCOD9481800 Si02
#       5
#     8   8  16  16   8
#     4  11  21  40  68  93 123 169 213 255 319 386
#     4  12  22  40  66  92 128 174 218 262 322 382
#     4  11  24  42  63  94 132 168 214 270 322 381
#     4  11  24  42  66  96 129 169 215 267 324 383
#     4  11  23  41  66  93 127 169 213 262 317 381
#
# _framework density 23.004073000000002
#
# number of rings (size 3 to 8) (size 9 to 14) (size 15 to 20)
#    0.000    0.857    0.000    9.429    0.000    2.857 
#    0.000    4.286    0.000    0.000    0.000    0.000 
#    0.000    0.000    0.000    0.000    0.000    0.000 
#
# Total GULP energy -156532.220431 kJ/mol
# GULP energy per Si atom -5590.436444 kJ/mol
# Density = 2.295171 g / cm^3
# Si number density = 23.004073 Si / 1000 Ang^3
#
#
#
# Elastic Constant Matrix: (Units=GPa)
#
#
# Indices 1 2 3 4 5 6 
#
# 1 172.1057 19.3710 37.9051 0.0000 0.0000 0.0000
# 2 19.3710 142.3611 47.6185 0.0000 0.0000 0.0000
# 3 37.9051 47.6185 49.8417 0.0000 0.0000 0.0000
# 4 0.0000 0.0000 0.0000 42.8827 0.0000 0.0000
# 5 0.0000 0.0000 0.0000 0.0000 32.6942 0.0000
# 6 0.0000 0.0000 0.0000 0.0000 0.0000 27.9459
#
#
#
# Elastic Compliance Matrix: (Units=1/GPa)
#
#
# Indices 1 2 3 4 5 6 
#
# 1 0.007125 0.001239 -0.006602 0.000000 0.000000 0.000000
# 2 0.001239 0.010539 -0.011011 0.000000 0.000000 0.000000
# 3 -0.006602 -0.011011 0.035605 0.000000 0.000000 0.000000
# 4 0.000000 0.000000 0.000000 0.023319 0.000000 0.000000
# 5 0.000000 0.000000 0.000000 0.000000 0.030586 0.000000
# 6 0.000000 0.000000 0.000000 0.000000 0.000000 0.035783
#
#
# Mechanical properties :
#
#
# Convention : Reuss Voigt Hill
#
# Bulk Modulus (GPa) = 48.73386 63.78864 56.26125
# Shear Modulus (GPa) = 27.39025 37.99880 32.69453
#
# Velocity S-wave (km/s) = 3.45435 4.06868 3.77404
# Velocity P-wave (km/s) = 6.09434 7.06128 6.59555
#
# Compressibility (1/GPa) = 0.02051961
#
# Stress axis : x y z
#
# Youngs Moduli (GPa) = 140.34974 94.88648 28.08629
#
# Poissons Ratio (x) = -0.11756 0.18544
# Poissons Ratio (y) = -0.17388 0.30926
# Poissons Ratio (z) = 0.92664 1.04480
#
# Static dielectric constant tensor:
#      x y z
#    x 1.851050 0.000000 0.000000 
#    y 0.000000 1.921020 0.000000 
#    z 0.000000 0.000000 1.910540 
# 
# From -- ./inp_files/13798.got.cif
#   From: 2010.05.17/outbox.cif.g08.bks.cpg/sg64_7_cif.got.tgz:13798.got - 2010.06.03 16:29:19.
