data_PCOD9481762
_publ_section_title
;
Structure prediction by ZEFSAII (Michael W. Deem and Ramdas Pophale) SiO2 
 PCOD9481762
Probable space group: C M C A
;
_chemical_formula_sum "Si O2"
_cell_formula_units_Z 96
_cell_length_a 8.413624
_cell_length_b 21.877315
_cell_length_c 23.689913
_cell_angle_alpha 90.000000
_cell_angle_beta 90.000000
_cell_angle_gamma 90.000000
_cell_volume 4360.543121
_symmetry_space_group_name_H-M "C M C A"
_symmetry_group_IT_number 64
_symmetry_cell_setting 'orthorhombic'
loop_
_space_group_symop_operation_xyz
x,y,z
-x,1/2-y,1/2+z
x,-y,-z
-x,1/2+y,1/2-z
-x,-y,-z
x,1/2+y,1/2-z
-x,y,z
x,1/2-y,1/2+z
1/2+x,1/2+y,z
1/2-x,-y,1/2+z
1/2+x,1/2-y,-z
1/2-x,y,1/2-z
1/2-x,1/2-y,-z
1/2+x,y,1/2-z
1/2-x,1/2+y,z
1/2+x,-y,1/2+z
loop_
_atom_site_type_symbol
_atom_site_label
_atom_site_fract_x
_atom_site_fract_y
_atom_site_fract_z
Si Si1 0.688044 0.039572 0.870079
Si Si2 0.312509 0.417170 0.812951
Si Si3 0.811958 0.338409 0.313152
Si Si4 0.812740 0.346596 0.914039
Si Si5 0.686156 0.593772 0.980037
Si Si6 0.186204 0.284891 0.077730
O O1 0.500000 0.051531 0.868777
O O2 0.775853 0.092943 0.835068
O O3 0.746376 0.045749 0.934789
O O4 0.727354 0.975904 0.840615
O O5 0.500000 0.428454 0.811357
O O6 0.250000 0.406540 0.750000
O O7 0.273316 0.362478 0.855721
O O8 0.750000 0.332049 0.250000
O O9 0.716733 0.294832 0.355738
O O10 0.000000 0.326532 0.316997
O O11 0.750177 0.281795 0.936843
O O12 0.000000 0.343586 0.905328
O O13 0.771955 0.398345 0.960211
O O14 0.500000 0.583659 0.988638
O O15 0.717504 0.659490 0.950129
O O16 0.000000 0.291174 0.063792
#
# Coordination Sequence:
#
# PCOD9481762 Si02
#       6
#    16  16  16  16  16  16
#     4  11  22  40  64  93 124 160 202 253 308 364
#     4  12  26  46  67  92 123 163 207 252 302 362
#     4  11  21  36  58  88 121 159 204 257 310 364
#     4  12  25  43  64  91 124 164 206 251 302 363
#     4  11  22  40  65  96 127 161 202 253 307 362
#     4  11  22  39  61  90 124 163 205 253 307 366
#
# _framework density 22.015605000000001
#
# number of rings (size 3 to 8) (size 9 to 14) (size 15 to 20)
#    0.000    0.667    0.000   12.000    0.000    1.333 
#    0.000    6.667    0.000    0.000    0.000    0.000 
#    0.000    0.000    0.000    0.000    0.000    0.000 
#
# Total GULP energy -268881.903748 kJ/mol
# GULP energy per Si atom -5601.706328 kJ/mol
# Density = 2.196550 g / cm^3
# Si number density = 22.015605 Si / 1000 Ang^3
#
#
#
# Elastic Constant Matrix: (Units=GPa)
#
#
# Indices 1 2 3 4 5 6 
#
# 1 90.3504 -16.5601 -20.3685 0.0000 0.0000 0.0000
# 2 -16.5601 55.0265 18.7433 0.0000 0.0000 0.0000
# 3 -20.3685 18.7433 72.6713 0.0000 0.0000 0.0000
# 4 0.0000 0.0000 0.0000 26.2266 0.0000 0.0000
# 5 0.0000 0.0000 0.0000 0.0000 38.0996 0.0000
# 6 0.0000 0.0000 0.0000 0.0000 0.0000 27.4554
#
#
#
# Elastic Compliance Matrix: (Units=1/GPa)
#
#
# Indices 1 2 3 4 5 6 
#
# 1 0.012181 0.002744 0.002706 0.000000 0.000000 0.000000
# 2 0.002744 0.020542 -0.004529 0.000000 0.000000 0.000000
# 3 0.002706 -0.004529 0.015687 0.000000 0.000000 0.000000
# 4 0.000000 0.000000 0.000000 0.038129 0.000000 0.000000
# 5 0.000000 0.000000 0.000000 0.000000 0.026247 0.000000
# 6 0.000000 0.000000 0.000000 0.000000 0.000000 0.036423
#
#
# Mechanical properties :
#
#
# Convention : Reuss Voigt Hill
#
# Bulk Modulus (GPa) = 19.89938 20.18640 20.04289
# Shear Modulus (GPa) = 30.46611 34.10523 32.28567
#
# Velocity S-wave (km/s) = 3.72404 3.94018 3.83363
# Velocity P-wave (km/s) = 5.24878 5.46709 5.35904
#
# Compressibility (1/GPa) = 0.05025282
#
# Stress axis : x y z
#
# Youngs Moduli (GPa) = 82.09443 48.68188 63.74596
#
# Poissons Ratio (x) = -0.13358 -0.17252
# Poissons Ratio (y) = -0.22527 0.28870
# Poissons Ratio (z) = -0.22218 0.22048
#
# Static dielectric constant tensor:
#      x y z
#    x 1.725230 0.000000 0.000000 
#    y 0.000000 1.828810 0.000000 
#    z 0.000000 0.000000 1.821630 
# 
# From -- ./inp_files/43071.got.cif
#   From: 2010.05.17/outbox.cif.g08.bks.cpg/sg64_22_cif.got.tgz:43071.got - 2010.06.03 16:29:19.
