data_PCOD9481340
_publ_section_title
;
Structure prediction by ZEFSAII (Michael W. Deem and Ramdas Pophale) SiO2 
 PCOD9481340
Probable space group: C M C A
;
_chemical_formula_sum "Si O2"
_cell_formula_units_Z 104
_cell_length_a 22.134960
_cell_length_b 9.751848
_cell_length_c 23.711913
_cell_angle_alpha 90.000000
_cell_angle_beta 90.000000
_cell_angle_gamma 90.000000
_cell_volume 5118.376842
_symmetry_space_group_name_H-M "C M C A"
_symmetry_group_IT_number 64
_symmetry_cell_setting 'orthorhombic'
loop_
_space_group_symop_operation_xyz
x,y,z
-x,1/2-y,1/2+z
x,-y,-z
-x,1/2+y,1/2-z
-x,-y,-z
x,1/2+y,1/2-z
-x,y,z
x,1/2-y,1/2+z
1/2+x,1/2+y,z
1/2-x,-y,1/2+z
1/2+x,1/2-y,-z
1/2-x,y,1/2-z
1/2-x,1/2-y,-z
1/2+x,y,1/2-z
1/2-x,1/2+y,z
1/2+x,-y,1/2+z
loop_
_atom_site_type_symbol
_atom_site_label
_atom_site_fract_x
_atom_site_fract_y
_atom_site_fract_z
Si Si1 0.187876 0.439254 0.715497
Si Si2 0.895358 0.360825 0.027221
Si Si3 0.067690 0.387241 0.450865
Si Si4 0.693479 0.706139 0.620745
Si Si5 0.000000 0.539010 0.885273
Si Si6 0.621849 0.452730 0.674081
Si Si7 0.829473 0.830945 0.130424
O O1 0.250000 0.423112 0.750000
O O2 0.188422 0.332652 0.663895
O O3 0.134206 0.422697 0.760251
O O4 0.181997 0.589338 0.688576
O O5 0.846487 0.281181 0.064735
O O6 0.947704 0.409316 0.069432
O O7 0.869417 0.500000 0.000000
O O8 0.921676 0.260483 0.979794
O O9 0.069470 0.500000 0.500000
O O10 0.121283 0.409947 0.406910
O O11 0.000000 0.389751 0.425454
O O12 0.666318 0.575163 0.654119
O O13 0.763077 0.683376 0.604380
O O14 0.054034 0.490670 0.841853
O O15 0.642556 0.317409 0.641203
#
# Coordination Sequence:
#
# PCOD9481340 Si02
#       7
#    16  16  16  16   8  16  16
#     4  12  23  43  66  94 138 180 214 271 343 403
#     4  11  23  42  74  96 132 177 228 284 334 404
#     4  11  25  43  64  95 136 182 219 279 352 401
#     4  11  23  41  66 104 130 173 228 276 336 404
#     4  10  23  44  67 100 127 176 233 272 318 408
#     4  11  24  40  70  97 133 175 226 277 328 391
#     4  12  24  40  67  98 134 173 227 276 330 414
#
# _framework density 20.318942
#
# number of rings (size 3 to 8) (size 9 to 14) (size 15 to 20)
#    0.000    0.769    3.846    3.923    3.231    1.231 
#    1.385    6.154    0.000    0.000    0.000    0.000 
#    0.000    0.000    0.000    0.000    0.000    0.000 
#
# Total GULP energy -289707.041453 kJ/mol
# GULP energy per Si atom -5571.289259 kJ/mol
# Density = 2.027269 g / cm^3
# Si number density = 20.318942 Si / 1000 Ang^3
#
#
#
# Elastic Constant Matrix: (Units=GPa)
#
#
# Indices 1 2 3 4 5 6 
#
# 1 159.5588 6.5059 59.8867 0.0000 0.0000 0.0000
# 2 6.5059 67.2996 3.7563 0.0000 0.0000 0.0000
# 3 59.8867 3.7563 60.4875 0.0000 0.0000 0.0000
# 4 0.0000 0.0000 0.0000 27.8571 0.0000 0.0000
# 5 0.0000 0.0000 0.0000 0.0000 23.4427 0.0000
# 6 0.0000 0.0000 0.0000 0.0000 0.0000 2.5744
#
#
#
# Elastic Compliance Matrix: (Units=1/GPa)
#
#
# Indices 1 2 3 4 5 6 
#
# 1 0.009985 -0.000415 -0.009860 0.000000 0.000000 0.000000
# 2 -0.000415 0.014928 -0.000516 0.000000 0.000000 0.000000
# 3 -0.009860 -0.000516 0.026326 0.000000 0.000000 0.000000
# 4 0.000000 0.000000 0.000000 0.035897 0.000000 0.000000
# 5 0.000000 0.000000 0.000000 0.000000 0.042657 0.000000
# 6 0.000000 0.000000 0.000000 0.000000 0.000000 0.388448
#
#
# Mechanical properties :
#
#
# Convention : Reuss Voigt Hill
#
# Bulk Modulus (GPa) = 33.71887 47.51597 40.61742
# Shear Modulus (GPa) = 9.09572 25.25464 17.17518
#
# Velocity S-wave (km/s) = 2.11806 3.52932 2.91052
# Velocity P-wave (km/s) = 4.75525 6.32803 5.59716
#
# Compressibility (1/GPa) = 0.02965698
#
# Stress axis : x y z
#
# Youngs Moduli (GPa) = 100.15098 66.98889 37.98459
#
# Poissons Ratio (x) = 0.02780 0.37453
# Poissons Ratio (y) = 0.04156 0.01961
# Poissons Ratio (z) = 0.98749 0.03458
#
# Static dielectric constant tensor:
#      x y z
#    x 1.702970 0.000000 0.000000 
#    y 0.000000 1.768920 0.000000 
#    z 0.000000 0.000000 1.735260 
# 
# From -- ./inp_files/50769.got.cif
#   From: 2010.05.17/outbox.cif.g08.bks.cpg/sg64_26_cif.got.tgz:50769.got - 2010.06.03 16:29:19.
