data_PCOD9481437
_publ_section_title
;
Structure prediction by ZEFSAII (Michael W. Deem and Ramdas Pophale) SiO2 
 PCOD9481437
Probable space group: C M C A
;
_chemical_formula_sum "Si O2"
_cell_formula_units_Z 96
_cell_length_a 28.737446
_cell_length_b 11.228214
_cell_length_c 14.673941
_cell_angle_alpha 90.000000
_cell_angle_beta 90.000000
_cell_angle_gamma 90.000000
_cell_volume 4734.843382
_symmetry_space_group_name_H-M "C M C A"
_symmetry_group_IT_number 64
_symmetry_cell_setting 'orthorhombic'
loop_
_space_group_symop_operation_xyz
x,y,z
-x,1/2-y,1/2+z
x,-y,-z
-x,1/2+y,1/2-z
-x,-y,-z
x,1/2+y,1/2-z
-x,y,z
x,1/2-y,1/2+z
1/2+x,1/2+y,z
1/2-x,-y,1/2+z
1/2+x,1/2-y,-z
1/2-x,y,1/2-z
1/2-x,1/2-y,-z
1/2+x,y,1/2-z
1/2-x,1/2+y,z
1/2+x,-y,1/2+z
loop_
_atom_site_type_symbol
_atom_site_label
_atom_site_fract_x
_atom_site_fract_y
_atom_site_fract_z
Si Si1 0.149724 0.578975 0.092445
Si Si2 0.000000 0.124538 0.221255
Si Si3 0.500000 0.260817 0.085515
Si Si4 0.000000 0.845736 0.404444
Si Si5 0.920185 0.549042 0.782803
Si Si6 0.335044 0.000000 0.500000
Si Si7 0.749057 0.876552 0.947455
Si Si8 0.599126 0.825258 0.393514
O O1 0.125556 0.507751 0.173900
O O2 0.202805 0.623127 0.114795
O O3 0.118778 0.696616 0.081370
O O4 0.146415 0.500000 0.000000
O O5 0.000000 0.207135 0.312515
O O6 0.000000 0.210940 0.134976
O O7 0.046323 0.043352 0.228407
O O8 0.453315 0.334107 0.070909
O O9 0.500000 0.154912 0.012635
O O10 0.954225 0.905501 0.362293
O O11 0.905250 0.653046 0.714359
O O12 0.303259 0.087399 0.435150
O O13 0.366520 0.079529 0.564108
O O14 0.750000 0.750000 0.000000
O O15 0.737733 0.000000 0.000000
#
# Coordination Sequence:
#
# PCOD9481437 Si02
#       8
#    16   8   8   8  16   8  16  16
#     4  11  21  40  72  97 124 180 236 274 345 422
#     4  11  22  42  58  90 140 182 224 281 332 414
#     4  12  23  40  67  92 135 184 227 278 336 433
#     4  11  23  40  61  90 136 179 229 275 335 403
#     4  11  23  38  61  92 138 179 220 290 337 400
#     4  10  24  41  70  94 136 177 222 284 356 412
#     4   9  18  39  67  97 124 167 228 291 337 406
#     4  12  24  44  62 104 142 174 228 285 350 424
#
# _framework density 20.275223
#
# number of rings (size 3 to 8) (size 9 to 14) (size 15 to 20)
#    0.500    0.667    5.000    1.500    2.333    1.000 
#    3.000    0.833    0.000    2.000    0.000    0.000 
#    0.000    0.000    0.000    0.000    0.000    0.000 
#
# Total GULP energy -267237.367190 kJ/mol
# GULP energy per Si atom -5567.445150 kJ/mol
# Density = 2.022908 g / cm^3
# Si number density = 20.275223 Si / 1000 Ang^3
#
#
#
# Elastic Constant Matrix: (Units=GPa)
#
#
# Indices 1 2 3 4 5 6 
#
# 1 152.9613 40.0679 29.9958 0.0000 0.0000 0.0000
# 2 40.0679 99.7183 16.0689 0.0000 0.0000 0.0000
# 3 29.9958 16.0689 42.0496 0.0000 0.0000 0.0000
# 4 0.0000 0.0000 0.0000 39.6942 0.0000 0.0000
# 5 0.0000 0.0000 0.0000 0.0000 13.9751 0.0000
# 6 0.0000 0.0000 0.0000 0.0000 0.0000 29.7829
#
#
#
# Elastic Compliance Matrix: (Units=1/GPa)
#
#
# Indices 1 2 3 4 5 6 
#
# 1 0.008142 -0.002489 -0.004857 0.000000 0.000000 0.000000
# 2 -0.002489 0.011447 -0.002599 0.000000 0.000000 0.000000
# 3 -0.004857 -0.002599 0.028239 0.000000 0.000000 0.000000
# 4 0.000000 0.000000 0.000000 0.025193 0.000000 0.000000
# 5 0.000000 0.000000 0.000000 0.000000 0.071556 0.000000
# 6 0.000000 0.000000 0.000000 0.000000 0.000000 0.033576
#
#
# Mechanical properties :
#
#
# Convention : Reuss Voigt Hill
#
# Bulk Modulus (GPa) = 35.79252 51.88825 43.84038
# Shear Modulus (GPa) = 24.11313 30.59687 27.35500
#
# Velocity S-wave (km/s) = 3.45235 3.88890 3.67711
# Velocity P-wave (km/s) = 5.79511 6.76847 6.30061
#
# Compressibility (1/GPa) = 0.02793880
#
# Stress axis : x y z
#
# Youngs Moduli (GPa) = 122.81980 87.35826 35.41166
#
# Poissons Ratio (x) = 0.21743 0.17199
# Poissons Ratio (y) = 0.30568 0.09203
# Poissons Ratio (z) = 0.59653 0.22704
#
# Static dielectric constant tensor:
#      x y z
#    x 1.815270 0.000000 0.000000 
#    y 0.000000 1.733560 0.000000 
#    z 0.000000 0.000000 1.717790 
# 
# From -- ./inp_files/28363.got.cif
#   From: 2010.05.17/outbox.cif.g08.bks.cpg/sg64_15_cif.got.tgz:28363.got - 2010.06.03 16:29:19.
