data_PCOD9481674
_publ_section_title
;
Structure prediction by ZEFSAII (Michael W. Deem and Ramdas Pophale) SiO2 
 PCOD9481674
Probable space group: C M C A
;
_chemical_formula_sum "Si O2"
_cell_formula_units_Z 80
_cell_length_a 8.616326
_cell_length_b 19.999706
_cell_length_c 26.453910
_cell_angle_alpha 90.000000
_cell_angle_beta 90.000000
_cell_angle_gamma 90.000000
_cell_volume 4558.643238
_symmetry_space_group_name_H-M "C M C A"
_symmetry_group_IT_number 64
_symmetry_cell_setting 'orthorhombic'
loop_
_space_group_symop_operation_xyz
x,y,z
-x,1/2-y,1/2+z
x,-y,-z
-x,1/2+y,1/2-z
-x,-y,-z
x,1/2+y,1/2-z
-x,y,z
x,1/2-y,1/2+z
1/2+x,1/2+y,z
1/2-x,-y,1/2+z
1/2+x,1/2-y,-z
1/2-x,y,1/2-z
1/2-x,1/2-y,-z
1/2+x,y,1/2-z
1/2-x,1/2+y,z
1/2+x,-y,1/2+z
loop_
_atom_site_type_symbol
_atom_site_label
_atom_site_fract_x
_atom_site_fract_y
_atom_site_fract_z
Si Si1 0.188871 0.229088 0.607643
Si Si2 0.187356 0.384094 0.029274
Si Si3 0.312570 0.372197 0.306313
Si Si4 0.186857 0.513739 0.883169
Si Si5 0.314573 0.122587 0.416657
O O1 0.233381 0.183089 0.559714
O O2 0.238021 0.189688 0.658070
O O3 0.242948 0.304970 0.602342
O O4 0.000000 0.229428 0.607962
O O5 0.231099 0.445829 0.065751
O O6 0.000000 0.384790 0.024601
O O7 0.259734 0.386895 0.974282
O O8 0.500000 0.371626 0.305110
O O9 0.250000 0.368922 0.250000
O O10 0.264951 0.439547 0.336280
O O11 0.253963 0.439912 0.884679
O O12 0.000000 0.510247 0.882979
O O13 0.500000 0.123087 0.415259
#
# Coordination Sequence:
#
# PCOD9481674 Si02
#       5
#    16  16  16  16  16
#     4   8  17  33  50  70  97 129 160 192 237 288
#     4   9  17  32  51  67  93 136 172 191 222 281
#     4   9  18  36  58  73  89 119 161 203 241 285
#     4   9  19  34  50  69  96 131 164 192 232 289
#     4  11  20  29  46  74 105 129 155 199 242 274
#
# _framework density 17.54908
#
# number of rings (size 3 to 8) (size 9 to 14) (size 15 to 20)
#    0.000    2.800    0.000    4.200    0.000    4.000 
#    0.000    7.000    0.000    4.800    0.000    0.000 
#    0.000    0.000    0.000    0.000    0.000    0.000 
#
# Total GULP energy -223071.844769 kJ/mol
# GULP energy per Si atom -5576.796119 kJ/mol
# Density = 1.750914 g / cm^3
# Si number density = 17.549080 Si / 1000 Ang^3
#
#
#
# Elastic Constant Matrix: (Units=GPa)
#
#
# Indices 1 2 3 4 5 6 
#
# 1 9.1064 17.2968 11.9255 0.0000 0.0000 0.0000
# 2 17.2968 117.4525 25.0024 0.0000 0.0000 0.0000
# 3 11.9255 25.0024 87.1058 0.0000 0.0000 0.0000
# 4 0.0000 0.0000 0.0000 5.4562 0.0000 0.0000
# 5 0.0000 0.0000 0.0000 0.0000 30.1650 0.0000
# 6 0.0000 0.0000 0.0000 0.0000 0.0000 25.7287
#
#
#
# Elastic Compliance Matrix: (Units=1/GPa)
#
#
# Indices 1 2 3 4 5 6 
#
# 1 0.174575 -0.021963 -0.017597 0.000000 0.000000 0.000000
# 2 -0.021963 0.011831 -0.000389 0.000000 0.000000 0.000000
# 3 -0.017597 -0.000389 0.014001 0.000000 0.000000 0.000000
# 4 0.000000 0.000000 0.000000 0.183278 0.000000 0.000000
# 5 0.000000 0.000000 0.000000 0.000000 0.033151 0.000000
# 6 0.000000 0.000000 0.000000 0.000000 0.000000 0.038867
#
#
# Mechanical properties :
#
#
# Convention : Reuss Voigt Hill
#
# Bulk Modulus (GPa) = 8.29809 35.79045 22.04427
# Shear Modulus (GPa) = 8.68400 22.89930 15.79165
#
# Velocity S-wave (km/s) = 2.22692 3.61622 3.00301
# Velocity P-wave (km/s) = 3.36912 6.15425 4.96114
#
# Compressibility (1/GPa) = 0.12050966
#
# Stress axis : x y z
#
# Youngs Moduli (GPa) = 5.72820 84.52129 71.42299
#
# Poissons Ratio (x) = 1.85636 1.25680
# Poissons Ratio (y) = 0.12581 0.02779
# Poissons Ratio (z) = 0.10080 0.03288
#
# Static dielectric constant tensor:
#      x y z
#    x 1.600740 0.000000 0.000000 
#    y 0.000000 1.615540 0.000000 
#    z 0.000000 0.000000 1.565320 
# 
# From -- ./inp_files/47788.got.cif
#   From: 2010.05.17/outbox.cif.g08.bks.cpg/sg64_24_cif.got.tgz:47788.got - 2010.06.03 16:29:19.
