data_PCOD9481052
_publ_section_title
;
Structure prediction by ZEFSAII (Michael W. Deem and Ramdas Pophale) SiO2 
 PCOD9481052
Probable space group: C M C A
;
_chemical_formula_sum "Si O2"
_cell_formula_units_Z 104
_cell_length_a 19.513211
_cell_length_b 8.577984
_cell_length_c 29.698722
_cell_angle_alpha 90.000000
_cell_angle_beta 90.000000
_cell_angle_gamma 90.000000
_cell_volume 4971.091232
_symmetry_space_group_name_H-M "C M C A"
_symmetry_group_IT_number 64
_symmetry_cell_setting 'orthorhombic'
loop_
_space_group_symop_operation_xyz
x,y,z
-x,1/2-y,1/2+z
x,-y,-z
-x,1/2+y,1/2-z
-x,-y,-z
x,1/2+y,1/2-z
-x,y,z
x,1/2-y,1/2+z
1/2+x,1/2+y,z
1/2-x,-y,1/2+z
1/2+x,1/2-y,-z
1/2-x,y,1/2-z
1/2-x,1/2-y,-z
1/2+x,y,1/2-z
1/2-x,1/2+y,z
1/2+x,-y,1/2+z
loop_
_atom_site_type_symbol
_atom_site_label
_atom_site_fract_x
_atom_site_fract_y
_atom_site_fract_z
Si Si1 0.638910 0.158956 0.529182
Si Si2 0.317219 0.638238 0.145398
Si Si3 0.916951 0.792954 0.699993
Si Si4 0.074666 0.386069 0.382514
Si Si5 0.349287 0.000000 0.000000
Si Si6 0.328704 0.996078 0.260986
Si Si7 0.772025 0.079913 0.588869
O O1 0.578831 0.145291 0.565169
O O2 0.625593 0.317965 0.501504
O O3 0.707225 0.157126 0.561539
O O4 0.644358 0.000000 0.500000
O O5 0.378964 0.532233 0.128485
O O6 0.320035 0.627213 0.199309
O O7 0.253112 0.543059 0.125678
O O8 0.314363 0.797457 0.118267
O O9 0.907128 0.766574 0.646589
O O10 0.877218 0.640920 0.719729
O O11 0.872567 0.932946 0.720179
O O12 0.000000 0.802067 0.709858
O O13 0.000000 0.428939 0.366333
O O14 0.311297 0.002294 0.952189
O O15 0.250000 0.948648 0.250000
#
# Coordination Sequence:
#
# PCOD9481052 Si02
#       7
#    16  16  16  16   8  16  16
#     4  11  22  36  60  92 125 166 212 261 321 381
#     4  10  23  36  61  87 123 156 202 251 322 380
#     4  10  22  43  66  87 125 175 214 253 321 410
#     4   9  21  42  62  84 119 168 211 254 314 384
#     4  12  20  34  59  92 127 158 210 258 312 396
#     4  11  24  37  61  97 126 157 210 271 325 374
#     4  11  20  37  56  89 123 159 194 254 319 383
#
# _framework density 20.920959
#
# number of rings (size 3 to 8) (size 9 to 14) (size 15 to 20)
#    0.000    1.538    2.308    3.231    8.615    0.923 
#    0.000    0.385    0.000    0.923    0.000    0.000 
#    0.000    0.000    0.000    0.000    0.000    0.000 
#
# Total GULP energy -289496.280618 kJ/mol
# GULP energy per Si atom -5567.236166 kJ/mol
# Density = 2.087334 g / cm^3
# Si number density = 20.920959 Si / 1000 Ang^3
#
#
#
# Elastic Constant Matrix: (Units=GPa)
#
#
# Indices 1 2 3 4 5 6 
#
# 1 78.5108 10.7812 16.5344 0.0000 0.0000 0.0000
# 2 10.7812 65.7486 3.1735 0.0000 0.0000 0.0000
# 3 16.5344 3.1735 58.8565 0.0000 0.0000 0.0000
# 4 0.0000 0.0000 0.0000 35.0255 0.0000 0.0000
# 5 0.0000 0.0000 0.0000 0.0000 185.1310 0.0000
# 6 0.0000 0.0000 0.0000 0.0000 0.0000 11.1589
#
#
#
# Elastic Compliance Matrix: (Units=1/GPa)
#
#
# Indices 1 2 3 4 5 6 
#
# 1 0.013817 -0.002084 -0.003769 0.000000 0.000000 0.000000
# 2 -0.002084 0.015563 -0.000254 0.000000 0.000000 0.000000
# 3 -0.003769 -0.000254 0.018063 0.000000 0.000000 0.000000
# 4 0.000000 0.000000 0.000000 0.028551 0.000000 0.000000
# 5 0.000000 0.000000 0.000000 0.000000 0.005402 0.000000
# 6 0.000000 0.000000 0.000000 0.000000 0.000000 0.089614
#
#
# Mechanical properties :
#
#
# Convention : Reuss Voigt Hill
#
# Bulk Modulus (GPa) = 28.38493 29.34378 28.86435
# Shear Modulus (GPa) = 25.64541 57.77155 41.70848
#
# Velocity S-wave (km/s) = 3.50497 5.26062 4.46984
# Velocity P-wave (km/s) = 5.47512 7.13830 6.36130
#
# Compressibility (1/GPa) = 0.03522996
#
# Stress axis : x y z
#
# Youngs Moduli (GPa) = 72.37441 64.25338 55.36172
#
# Poissons Ratio (x) = 0.13389 0.20867
# Poissons Ratio (y) = 0.15081 0.01405
# Poissons Ratio (z) = 0.27279 0.01631
#
# Static dielectric constant tensor:
#      x y z
#    x 1.753170 0.000000 0.000000 
#    y 0.000000 1.795690 0.000000 
#    z 0.000000 0.000000 1.650600 
# 
# From -- ./inp_files/50786.got.cif
#   From: 2010.05.17/outbox.cif.g08.bks.cpg/sg64_26_cif.got.tgz:50786.got - 2010.06.03 16:29:19.
