data_PCOD9481182
_publ_section_title
;
Structure prediction by ZEFSAII (Michael W. Deem and Ramdas Pophale) SiO2 
 PCOD9481182
Probable space group: C M C A
;
_chemical_formula_sum "Si O2"
_cell_formula_units_Z 64
_cell_length_a 16.033876
_cell_length_b 18.384223
_cell_length_c 9.583701
_cell_angle_alpha 90.000000
_cell_angle_beta 90.000000
_cell_angle_gamma 90.000000
_cell_volume 2824.990917
_symmetry_space_group_name_H-M "C M C A"
_symmetry_group_IT_number 64
_symmetry_cell_setting 'orthorhombic'
loop_
_space_group_symop_operation_xyz
x,y,z
-x,1/2-y,1/2+z
x,-y,-z
-x,1/2+y,1/2-z
-x,-y,-z
x,1/2+y,1/2-z
-x,y,z
x,1/2-y,1/2+z
1/2+x,1/2+y,z
1/2-x,-y,1/2+z
1/2+x,1/2-y,-z
1/2-x,y,1/2-z
1/2-x,1/2-y,-z
1/2+x,y,1/2-z
1/2-x,1/2+y,z
1/2+x,-y,1/2+z
loop_
_atom_site_type_symbol
_atom_site_label
_atom_site_fract_x
_atom_site_fract_y
_atom_site_fract_z
Si Si1 0.340151 0.306197 0.361098
Si Si2 0.593899 0.811078 0.829795
Si Si3 0.835297 0.104066 0.880790
Si Si4 0.839821 0.434059 0.689904
O O1 0.380540 0.296553 0.511326
O O2 0.344630 0.230063 0.278240
O O3 0.252134 0.349315 0.387719
O O4 0.384309 0.356481 0.243495
O O5 0.500000 0.786308 0.803190
O O6 0.599303 0.897374 0.800568
O O7 0.831707 0.020325 0.832270
O O8 0.864385 0.098813 0.039384
O O9 0.750000 0.412013 0.750000
#
# Coordination Sequence:
#
# PCOD9481182 Si02
#       4
#    16  16  16  16
#     4  11  23  42  65  94 134 168 225 272 321 390
#     4  12  27  43  64  97 139 182 214 265 339 403
#     4  10  23  39  69 104 125 166 223 281 327 367
#     4  11  21  42  70 101 135 164 221 278 325 390
#
# _framework density 22.654938999999999
#
# number of rings (size 3 to 8) (size 9 to 14) (size 15 to 20)
#    0.000    1.000    5.000    2.250    3.500    6.000 
#    0.000    7.500    0.000    0.000    0.000    0.000 
#    0.000    0.000    0.000    0.000    0.000    0.000 
#
# Total GULP energy -178232.806576 kJ/mol
# GULP energy per Si atom -5569.775205 kJ/mol
# Density = 2.260338 g / cm^3
# Si number density = 22.654939 Si / 1000 Ang^3
#
#
#
# Elastic Constant Matrix: (Units=GPa)
#
#
# Indices 1 2 3 4 5 6 
#
# 1 69.6294 36.6556 11.9224 0.0000 0.0000 0.0000
# 2 36.6556 125.8111 55.2902 0.0000 0.0000 0.0000
# 3 11.9224 55.2902 140.2285 0.0000 0.0000 0.0000
# 4 0.0000 0.0000 0.0000 28.7130 0.0000 0.0000
# 5 0.0000 0.0000 0.0000 0.0000 13.6257 0.0000
# 6 0.0000 0.0000 0.0000 0.0000 0.0000 -1.2701
#
#
#
# Elastic Compliance Matrix: (Units=1/GPa)
#
#
# Indices 1 2 3 4 5 6 
#
# 1 0.017007 -0.005225 0.000614 0.000000 0.000000 0.000000
# 2 -0.005225 0.011220 -0.003980 0.000000 0.000000 0.000000
# 3 0.000614 -0.003980 0.008648 0.000000 0.000000 0.000000
# 4 0.000000 0.000000 0.000000 0.034827 0.000000 0.000000
# 5 0.000000 0.000000 0.000000 0.000000 0.073390 0.000000
# 6 0.000000 0.000000 0.000000 0.000000 0.000000 -0.787364
#
#
# Mechanical properties :
#
#
# Convention : Reuss Voigt Hill
#
# Bulk Modulus (GPa) = 50.77635 60.37838 55.57737
# Shear Modulus (GPa) = -8.08373 23.66712 7.79169
#
# Velocity S-wave (km/s) = -1.89102 3.23565 1.85654
# Velocity P-wave (km/s) = 4.20638 6.37718 5.40195
#
# Compressibility (1/GPa) = 0.01969421
#
# Stress axis : x y z
#
# Youngs Moduli (GPa) = 58.79845 89.12938 115.63273
#
# Poissons Ratio (x) = 0.46571 -0.07102
# Poissons Ratio (y) = 0.30723 0.46016
# Poissons Ratio (z) = -0.03611 0.35469
#
# Static dielectric constant tensor:
#      x y z
#    x 1.909350 0.000000 0.000000 
#    y 0.000000 1.936910 0.000000 
#    z 0.000000 0.000000 1.830410 
# 
# From -- ./inp_files/15661.got.cif
#   From: 2010.05.17/outbox.cif.g08.bks.cpg/sg64_8_cif.got.tgz:15661.got - 2010.06.03 16:29:19.
