data_PCOD9481383
_publ_section_title
;
Structure prediction by ZEFSAII (Michael W. Deem and Ramdas Pophale) SiO2 
 PCOD9481383
Probable space group: C M C A
;
_chemical_formula_sum "Si O2"
_cell_formula_units_Z 64
_cell_length_a 13.894605
_cell_length_b 16.590578
_cell_length_c 12.050966
_cell_angle_alpha 90.000000
_cell_angle_beta 90.000000
_cell_angle_gamma 90.000000
_cell_volume 2777.982995
_symmetry_space_group_name_H-M "C M C A"
_symmetry_group_IT_number 64
_symmetry_cell_setting 'orthorhombic'
loop_
_space_group_symop_operation_xyz
x,y,z
-x,1/2-y,1/2+z
x,-y,-z
-x,1/2+y,1/2-z
-x,-y,-z
x,1/2+y,1/2-z
-x,y,z
x,1/2-y,1/2+z
1/2+x,1/2+y,z
1/2-x,-y,1/2+z
1/2+x,1/2-y,-z
1/2-x,y,1/2-z
1/2-x,1/2-y,-z
1/2+x,y,1/2-z
1/2-x,1/2+y,z
1/2+x,-y,1/2+z
loop_
_atom_site_type_symbol
_atom_site_label
_atom_site_fract_x
_atom_site_fract_y
_atom_site_fract_z
Si Si1 0.614785 0.383634 0.971080
Si Si2 0.276527 0.075244 0.868691
Si Si3 0.614939 0.300474 0.521470
Si Si4 0.114785 0.584566 0.211991
O O1 0.500000 0.394000 0.990945
O O2 0.678975 0.430381 0.060335
O O3 0.643583 0.290346 0.993224
O O4 0.633624 0.404036 0.842412
O O5 0.250000 0.111463 0.750000
O O6 0.329473 0.990916 0.841772
O O7 0.345101 0.134446 0.935834
O O8 0.500000 0.300542 0.514380
O O9 0.640517 0.335107 0.642923
O O10 0.000000 0.570814 0.199615
#
# Coordination Sequence:
#
# PCOD9481383 Si02
#       4
#    16  16  16  16
#     4  10  25  48  74 107 145 188 238 299 361 422
#     4  12  27  41  69 109 144 189 239 293 355 431
#     4  10  23  46  75 103 139 187 242 299 359 423
#     4  10  24  46  74 104 143 189 238 295 357 426
#
# _framework density 23.038298000000001
#
# number of rings (size 3 to 8) (size 9 to 14) (size 15 to 20)
#    0.000    1.500    0.000    2.250   10.500    4.000 
#    0.000    2.500    0.000    0.000    0.000    0.000 
#    0.000    0.000    0.000    0.000    0.000    0.000 
#
# Total GULP energy -179254.905507 kJ/mol
# GULP energy per Si atom -5601.715797 kJ/mol
# Density = 2.298586 g / cm^3
# Si number density = 23.038298 Si / 1000 Ang^3
#
#
#
# Elastic Constant Matrix: (Units=GPa)
#
#
# Indices 1 2 3 4 5 6 
#
# 1 102.2340 69.8999 66.9051 0.0000 0.0000 0.0000
# 2 69.8999 129.0279 97.6908 0.0000 0.0000 0.0000
# 3 66.9051 97.6908 204.3752 0.0000 0.0000 0.0000
# 4 0.0000 0.0000 0.0000 22.7262 0.0000 0.0000
# 5 0.0000 0.0000 0.0000 0.0000 47.7077 0.0000
# 6 0.0000 0.0000 0.0000 0.0000 0.0000 38.3638
#
#
#
# Elastic Compliance Matrix: (Units=1/GPa)
#
#
# Indices 1 2 3 4 5 6 
#
# 1 0.015907 -0.007326 -0.001705 0.000000 0.000000 0.000000
# 2 -0.007326 0.015520 -0.005020 0.000000 0.000000 0.000000
# 3 -0.001705 -0.005020 0.007851 0.000000 0.000000 0.000000
# 4 0.000000 0.000000 0.000000 0.044002 0.000000 0.000000
# 5 0.000000 0.000000 0.000000 0.000000 0.020961 0.000000
# 6 0.000000 0.000000 0.000000 0.000000 0.000000 0.026066
#
#
# Mechanical properties :
#
#
# Convention : Reuss Voigt Hill
#
# Bulk Modulus (GPa) = 89.49249 100.51429 95.00339
# Shear Modulus (GPa) = 30.83851 35.16897 33.00374
#
# Velocity S-wave (km/s) = 3.66262 3.91134 3.78902
# Velocity P-wave (km/s) = 7.53763 8.00762 7.77618
#
# Compressibility (1/GPa) = 0.01117412
#
# Stress axis : x y z
#
# Youngs Moduli (GPa) = 62.86719 64.43258 127.37342
#
# Poissons Ratio (x) = 0.47204 0.21722
# Poissons Ratio (y) = 0.46057 0.63945
# Poissons Ratio (z) = 0.10721 0.32347
#
# Static dielectric constant tensor:
#      x y z
#    x 1.883790 0.000000 0.000000 
#    y 0.000000 1.899490 0.000000 
#    z 0.000000 0.000000 1.822760 
# 
# From -- ./inp_files/14045.got.cif
#   From: 2010.05.17/outbox.cif.g08.bks.cpg/sg64_8_cif.got.tgz:14045.got - 2010.06.03 16:29:19.
