data_PCOD9481822
_publ_section_title
;
Structure prediction by ZEFSAII (Michael W. Deem and Ramdas Pophale) SiO2 
 PCOD9481822
Probable space group: C M C A
;
_chemical_formula_sum "Si O2"
_cell_formula_units_Z 88
_cell_length_a 16.046606
_cell_length_b 20.728326
_cell_length_c 12.291493
_cell_angle_alpha 90.000000
_cell_angle_beta 90.000000
_cell_angle_gamma 90.000000
_cell_volume 4088.387556
_symmetry_space_group_name_H-M "C M C A"
_symmetry_group_IT_number 64
_symmetry_cell_setting 'orthorhombic'
loop_
_space_group_symop_operation_xyz
x,y,z
-x,1/2-y,1/2+z
x,-y,-z
-x,1/2+y,1/2-z
-x,-y,-z
x,1/2+y,1/2-z
-x,y,z
x,1/2-y,1/2+z
1/2+x,1/2+y,z
1/2-x,-y,1/2+z
1/2+x,1/2-y,-z
1/2-x,y,1/2-z
1/2-x,1/2-y,-z
1/2+x,y,1/2-z
1/2-x,1/2+y,z
1/2+x,-y,1/2+z
loop_
_atom_site_type_symbol
_atom_site_label
_atom_site_fract_x
_atom_site_fract_y
_atom_site_fract_z
Si Si1 0.182737 0.653797 0.848551
Si Si2 0.000000 0.400779 0.227180
Si Si3 0.000000 0.192714 0.297160
Si Si4 0.678092 0.936587 0.955013
Si Si5 0.860567 0.702637 0.377956
Si Si6 0.500000 0.184314 0.555060
Si Si7 0.000000 0.952867 0.624149
Si Si8 0.250000 0.606556 0.250000
O O1 0.250000 0.644860 0.750000
O O2 0.088517 0.629246 0.816598
O O3 0.181388 0.728097 0.885630
O O4 0.204377 0.616800 0.959295
O O5 0.000000 0.371383 0.352156
O O6 0.000000 0.478835 0.193786
O O7 0.920590 0.210397 0.226097
O O8 0.000000 0.242068 0.397630
O O9 0.000000 0.115340 0.309766
O O10 0.578849 0.942856 0.954321
O O11 0.691449 0.934207 0.826041
O O12 0.720817 0.000000 0.000000
O O13 0.918064 0.681630 0.478582
O O14 0.796286 0.649485 0.338604
#
# Coordination Sequence:
#
# PCOD9481822 Si02
#       8
#    16   8   8  16  16   8   8   8
#     4  12  26  45  79 113 149 193 250 311 374 451
#     4  12  25  47  71 115 147 192 253 314 365 445
#     4  11  21  44  70 102 137 185 236 295 365 445
#     4  12  27  46  74 101 141 195 245 297 364 453
#     4  11  24  45  69 106 144 189 238 303 381 435
#     4  11  24  43  77 105 150 194 250 313 377 447
#     4  12  23  47  75  98 144 196 243 296 374 438
#     4  12  28  46  68 104 152 184 242 310 368 442
#
# _framework density 21.524377000000001
#
# number of rings (size 3 to 8) (size 9 to 14) (size 15 to 20)
#    0.000    0.364    6.364    2.455    3.818    0.727 
#    0.000    1.818    0.000    0.000    0.000    0.000 
#    0.000    0.000    0.000    0.000    0.000    0.000 
#
# Total GULP energy -245217.849003 kJ/mol
# GULP energy per Si atom -5573.132932 kJ/mol
# Density = 2.147539 g / cm^3
# Si number density = 21.524377 Si / 1000 Ang^3
#
#
#
# Elastic Constant Matrix: (Units=GPa)
#
#
# Indices 1 2 3 4 5 6 
#
# 1 54.7464 -15.6454 31.0579 0.0000 0.0000 0.0000
# 2 -15.6454 96.4681 46.9565 0.0000 0.0000 0.0000
# 3 31.0579 46.9565 149.0816 0.0000 0.0000 0.0000
# 4 0.0000 0.0000 0.0000 41.1294 0.0000 0.0000
# 5 0.0000 0.0000 0.0000 0.0000 283.2650 0.0000
# 6 0.0000 0.0000 0.0000 0.0000 0.0000 9.7130
#
#
#
# Elastic Compliance Matrix: (Units=1/GPa)
#
#
# Indices 1 2 3 4 5 6 
#
# 1 0.024777 0.007713 -0.007591 0.000000 0.000000 0.000000
# 2 0.007713 0.014645 -0.006220 0.000000 0.000000 0.000000
# 3 -0.007591 -0.006220 0.010248 0.000000 0.000000 0.000000
# 4 0.000000 0.000000 0.000000 0.024314 0.000000 0.000000
# 5 0.000000 0.000000 0.000000 0.000000 0.003530 0.000000
# 6 0.000000 0.000000 0.000000 0.000000 0.000000 0.102954
#
#
# Mechanical properties :
#
#
# Convention : Reuss Voigt Hill
#
# Bulk Modulus (GPa) = 26.68448 47.22602 36.95525
# Shear Modulus (GPa) = 24.37193 82.68329 53.52761
#
# Velocity S-wave (km/s) = 3.36861 6.20461 4.99223
# Velocity P-wave (km/s) = 5.24922 8.56259 7.10184
#
# Compressibility (1/GPa) = 0.03747497
#
# Stress axis : x y z
#
# Youngs Moduli (GPa) = 40.36010 68.28496 97.57815
#
# Poissons Ratio (x) = -0.52671 0.74074
# Poissons Ratio (y) = -0.31132 0.60689
# Poissons Ratio (z) = 0.30638 0.42470
#
# Static dielectric constant tensor:
#      x y z
#    x 1.616260 0.000000 0.000000 
#    y 0.000000 1.982740 0.000000 
#    z 0.000000 0.000000 1.740790 
# 
# From -- ./inp_files/16107.got.cif
#   From: 2010.05.17/outbox.cif.g08.bks.cpg/sg64_9_cif.got.tgz:16107.got - 2010.06.03 16:29:19.
