data_PCOD9481554
_publ_section_title
;
Structure prediction by ZEFSAII (Michael W. Deem and Ramdas Pophale) SiO2 
 PCOD9481554
Probable space group: C M C A
;
_chemical_formula_sum "Si O2"
_cell_formula_units_Z 52
_cell_length_a 15.343340
_cell_length_b 13.909541
_cell_length_c 10.103698
_cell_angle_alpha 90.000000
_cell_angle_beta 90.000000
_cell_angle_gamma 90.000000
_cell_volume 2156.319273
_symmetry_space_group_name_H-M "C M C A"
_symmetry_group_IT_number 64
_symmetry_cell_setting 'orthorhombic'
loop_
_space_group_symop_operation_xyz
x,y,z
-x,1/2-y,1/2+z
x,-y,-z
-x,1/2+y,1/2-z
-x,-y,-z
x,1/2+y,1/2-z
-x,y,z
x,1/2-y,1/2+z
1/2+x,1/2+y,z
1/2-x,-y,1/2+z
1/2+x,1/2-y,-z
1/2-x,y,1/2-z
1/2-x,1/2-y,-z
1/2+x,y,1/2-z
1/2-x,1/2+y,z
1/2+x,-y,1/2+z
loop_
_atom_site_type_symbol
_atom_site_label
_atom_site_fract_x
_atom_site_fract_y
_atom_site_fract_z
Si Si1 0.401431 0.035122 0.283711
Si Si2 0.500000 0.000000 0.000000
Si Si3 0.345446 0.863688 0.962857
Si Si4 0.351292 0.359012 0.050569
O O1 0.500000 0.042305 0.222154
O O2 0.338273 0.081675 0.177236
O O3 0.382418 0.428083 0.167497
O O4 0.394324 0.098926 0.416675
O O5 0.422275 0.919605 0.033813
O O6 0.369952 0.753214 0.935590
O O7 0.253152 0.868338 0.035615
#
# Coordination Sequence:
#
# PCOD9481554 Si02
#       4
#    16   4  16  16
#     4  11  23  43  73 102 138 188 233 298 357 426
#     4  12  24  40  68 108 146 174 240 302 348 424
#     4  11  25  45  69 105 141 191 233 300 362 430
#     4  10  24  46  73  99 145 187 244 289 360 441
#
# _framework density 24.115165999999999
#
# number of rings (size 3 to 8) (size 9 to 14) (size 15 to 20)
#    0.000    1.231    1.538    4.615    4.308    2.462 
#    0.000   12.308    0.000    0.000    0.000    0.000 
#    0.000    0.000    0.000    0.000    0.000    0.000 
#
# Total GULP energy -145314.621130 kJ/mol
# GULP energy per Si atom -5589.023890 kJ/mol
# Density = 2.406028 g / cm^3
# Si number density = 24.115166 Si / 1000 Ang^3
#
#
#
# Elastic Constant Matrix: (Units=GPa)
#
#
# Indices 1 2 3 4 5 6 
#
# 1 114.1244 49.6490 -2.3739 0.0000 0.0000 0.0000
# 2 49.6490 200.2792 27.4364 0.0000 0.0000 0.0000
# 3 -2.3739 27.4364 74.7495 0.0000 0.0000 0.0000
# 4 0.0000 0.0000 0.0000 21.7258 0.0000 0.0000
# 5 0.0000 0.0000 0.0000 0.0000 39.6751 0.0000
# 6 0.0000 0.0000 0.0000 0.0000 0.0000 61.0210
#
#
#
# Elastic Compliance Matrix: (Units=1/GPa)
#
#
# Indices 1 2 3 4 5 6 
#
# 1 0.009937 -0.002639 0.001284 0.000000 0.000000 0.000000
# 2 -0.002639 0.005958 -0.002271 0.000000 0.000000 0.000000
# 3 0.001284 -0.002271 0.014252 0.000000 0.000000 0.000000
# 4 0.000000 0.000000 0.000000 0.046028 0.000000 0.000000
# 5 0.000000 0.000000 0.000000 0.000000 0.025205 0.000000
# 6 0.000000 0.000000 0.000000 0.000000 0.000000 0.016388
#
#
# Mechanical properties :
#
#
# Convention : Reuss Voigt Hill
#
# Bulk Modulus (GPa) = 43.67510 59.84179 51.75845
# Shear Modulus (GPa) = 37.69242 45.44715 41.56978
#
# Velocity S-wave (km/s) = 3.95779 4.34589 4.15637
# Velocity P-wave (km/s) = 6.24787 7.07469 6.67410
#
# Compressibility (1/GPa) = 0.02289634
#
# Stress axis : x y z
#
# Youngs Moduli (GPa) = 100.63057 167.82971 70.16407
#
# Poissons Ratio (x) = 0.44297 -0.09012
# Poissons Ratio (y) = 0.26560 0.15933
# Poissons Ratio (z) = -0.12925 0.38111
#
# Static dielectric constant tensor:
#      x y z
#    x 1.890590 0.000000 0.000000 
#    y 0.000000 1.813670 0.000000 
#    z 0.000000 0.000000 1.692030 
# 
# From -- ./inp_files/13876.got.cif
#   From: 2010.05.17/outbox.cif.g08.bks.cpg/sg64_7_cif.got.tgz:13876.got - 2010.06.03 16:29:19.
