data_PCOD9481794
_publ_section_title
;
Structure prediction by ZEFSAII (Michael W. Deem and Ramdas Pophale) SiO2 
 PCOD9481794
Probable space group: C M C A
;
_chemical_formula_sum "Si O2"
_cell_formula_units_Z 116
_cell_length_a 22.803530
_cell_length_b 27.993836
_cell_length_c 9.468703
_cell_angle_alpha 90.000000
_cell_angle_beta 90.000000
_cell_angle_gamma 90.000000
_cell_volume 6044.424952
_symmetry_space_group_name_H-M "C M C A"
_symmetry_group_IT_number 64
_symmetry_cell_setting 'orthorhombic'
loop_
_space_group_symop_operation_xyz
x,y,z
-x,1/2-y,1/2+z
x,-y,-z
-x,1/2+y,1/2-z
-x,-y,-z
x,1/2+y,1/2-z
-x,y,z
x,1/2-y,1/2+z
1/2+x,1/2+y,z
1/2-x,-y,1/2+z
1/2+x,1/2-y,-z
1/2-x,y,1/2-z
1/2-x,1/2-y,-z
1/2+x,y,1/2-z
1/2-x,1/2+y,z
1/2+x,-y,1/2+z
loop_
_atom_site_type_symbol
_atom_site_label
_atom_site_fract_x
_atom_site_fract_y
_atom_site_fract_z
Si Si1 0.069498 0.851057 0.302523
Si Si2 0.860703 0.677607 0.067599
Si Si3 0.500000 0.000000 0.500000
Si Si4 0.931978 0.854641 0.835065
Si Si5 0.741647 0.156862 0.579511
Si Si6 0.616800 0.710346 0.934089
Si Si7 0.268981 0.454933 0.089395
Si Si8 0.402957 0.931169 0.426071
O O1 0.104201 0.850827 0.447322
O O2 0.089999 0.893745 0.200939
O O3 0.000000 0.852320 0.321195
O O4 0.089503 0.804470 0.215737
O O5 0.792748 0.677244 0.020207
O O6 0.877531 0.733248 0.062245
O O7 0.883853 0.654905 0.213847
O O8 0.449453 0.027608 0.589675
O O9 0.924781 0.811013 0.944961
O O10 0.000000 0.857255 0.785243
O O11 0.918343 0.901706 0.930052
O O12 0.750000 0.163581 0.750000
O O13 0.679167 0.182155 0.548659
O O14 0.746468 0.099938 0.551109
O O15 0.250000 0.462153 0.250000
O O16 0.338800 0.452398 0.075089
O O17 0.246168 0.500000 0.000000
#
# Coordination Sequence:
#
# PCOD9481794 Si02
#       8
#    16  16   4  16  16  16  16  16
#     4  11  21  39  64  89 130 171 214 261 329 380
#     4  12  25  38  63  93 130 172 214 267 328 379
#     4  12  20  40  84  98 112 172 240 248 316 412
#     4  11  24  41  61  95 137 160 211 277 324 373
#     4  11  22  44  64  86 129 167 217 272 316 387
#     4  11  22  41  64  89 123 178 222 258 314 392
#     4  11  23  41  67  95 126 165 211 269 332 390
#     4  11  21  43  70  97 124 172 215 265 317 401
#
# _framework density 19.191237999999998
#
# number of rings (size 3 to 8) (size 9 to 14) (size 15 to 20)
#    0.000    0.828    6.207    3.724    0.000    4.966 
#    0.000    0.000    0.000    0.828    0.000    0.000 
#    0.000    0.000    0.000    0.000    0.000    0.000 
#
# Total GULP energy -323161.329758 kJ/mol
# GULP energy per Si atom -5571.747065 kJ/mol
# Density = 1.914756 g / cm^3
# Si number density = 19.191238 Si / 1000 Ang^3
#
#
#
# Elastic Constant Matrix: (Units=GPa)
#
#
# Indices 1 2 3 4 5 6 
#
# 1 50.4160 -9.6206 8.6010 0.0000 0.0000 0.0000
# 2 -9.6206 49.1015 -2.5269 0.0000 0.0000 0.0000
# 3 8.6010 -2.5269 56.5813 0.0000 0.0000 0.0000
# 4 0.0000 0.0000 0.0000 13.2366 0.0000 0.0000
# 5 0.0000 0.0000 0.0000 0.0000 28.7660 0.0000
# 6 0.0000 0.0000 0.0000 0.0000 0.0000 52.1981
#
#
#
# Elastic Compliance Matrix: (Units=1/GPa)
#
#
# Indices 1 2 3 4 5 6 
#
# 1 0.021112 0.003980 -0.003031 0.000000 0.000000 0.000000
# 2 0.003980 0.021163 0.000340 0.000000 0.000000 0.000000
# 3 -0.003031 0.000340 0.018150 0.000000 0.000000 0.000000
# 4 0.000000 0.000000 0.000000 0.075548 0.000000 0.000000
# 5 0.000000 0.000000 0.000000 0.000000 0.034763 0.000000
# 6 0.000000 0.000000 0.000000 0.000000 0.000000 0.019158
#
#
# Mechanical properties :
#
#
# Convention : Reuss Voigt Hill
#
# Bulk Modulus (GPa) = 15.87228 16.55621 16.21424
# Shear Modulus (GPa) = 24.00192 29.48317 26.74255
#
# Velocity S-wave (km/s) = 3.54032 3.92380 3.73698
# Velocity P-wave (km/s) = 5.00004 5.40129 5.20453
#
# Compressibility (1/GPa) = 0.06300292
#
# Stress axis : x y z
#
# Youngs Moduli (GPa) = 47.36705 47.25144 55.09737
#
# Poissons Ratio (x) = -0.18808 0.16703
# Poissons Ratio (y) = -0.18854 -0.01874
# Poissons Ratio (z) = 0.14359 -0.01607
#
# Static dielectric constant tensor:
#      x y z
#    x 1.810150 0.000000 0.000000 
#    y 0.000000 1.710150 0.000000 
#    z 0.000000 0.000000 1.628340 
# 
# From -- ./inp_files/9803.got.cif
#   From: 2010.05.17/outbox.cif.g08.bks.cpg/sg64_5_cif.got.tgz:9803.got - 2010.06.03 16:29:19.
