data_PCOD9481738
_publ_section_title
;
Structure prediction by ZEFSAII (Michael W. Deem and Ramdas Pophale) SiO2 
 PCOD9481738
Probable space group: C M C A
;
_chemical_formula_sum "Si O2"
_cell_formula_units_Z 96
_cell_length_a 24.132014
_cell_length_b 8.282265
_cell_length_c 25.423955
_cell_angle_alpha 90.000000
_cell_angle_beta 90.000000
_cell_angle_gamma 90.000000
_cell_volume 5081.428299
_symmetry_space_group_name_H-M "C M C A"
_symmetry_group_IT_number 64
_symmetry_cell_setting 'orthorhombic'
loop_
_space_group_symop_operation_xyz
x,y,z
-x,1/2-y,1/2+z
x,-y,-z
-x,1/2+y,1/2-z
-x,-y,-z
x,1/2+y,1/2-z
-x,y,z
x,1/2-y,1/2+z
1/2+x,1/2+y,z
1/2-x,-y,1/2+z
1/2+x,1/2-y,-z
1/2-x,y,1/2-z
1/2-x,1/2-y,-z
1/2+x,y,1/2-z
1/2-x,1/2+y,z
1/2+x,-y,1/2+z
loop_
_atom_site_type_symbol
_atom_site_label
_atom_site_fract_x
_atom_site_fract_y
_atom_site_fract_z
Si Si1 0.913024 0.502520 0.344882
Si Si2 0.000000 0.004621 0.671449
Si Si3 0.191046 0.936651 0.318625
Si Si4 0.595842 0.857103 0.105870
Si Si5 0.000000 0.394284 0.422497
Si Si6 0.500000 0.653485 0.229376
Si Si7 0.000000 0.261798 0.030592
Si Si8 0.814940 0.814341 0.205189
O O1 0.904992 0.672548 0.374193
O O2 0.948051 0.556370 0.294060
O O3 0.858862 0.411816 0.328208
O O4 0.947558 0.390863 0.384438
O O5 0.055594 0.024938 0.638549
O O6 0.000000 0.852053 0.708561
O O7 0.000000 0.167584 0.706808
O O8 0.157870 0.906185 0.373486
O O9 0.168821 0.841994 0.266723
O O10 0.255353 0.884598 0.313296
O O11 0.186043 0.125020 0.305636
O O12 0.557583 0.842268 0.052287
O O13 0.000000 0.262949 0.468198
O O14 0.000000 0.577256 0.446629
#
# Coordination Sequence:
#
# PCOD9481738 Si02
#       8
#    16   8  16  16   8   8   8  16
#     4   9  17  30  47  70  98 126 160 198 237 285
#     4   9  17  26  39  61  91 124 152 185 227 275
#     4  11  21  33  49  70  98 132 167 200 238 283
#     4   9  17  30  47  70  98 126 160 198 237 285
#     4   8  15  30  54  79 100 126 160 200 248 296
#     4   9  17  26  39  61  91 124 152 185 227 275
#     4   8  15  30  54  79 100 126 160 200 248 296
#     4  11  21  33  49  70  98 132 167 200 238 283
#
# _framework density 18.892325
#
# number of rings (size 3 to 8) (size 9 to 14) (size 15 to 20)
#    0.000    2.500    0.000    7.000    0.000    4.000 
#    0.000    2.500    0.000    3.000    0.000    0.000 
#    0.000    0.000    0.000    0.000    0.000    0.000 
#
# Total GULP energy -267240.664208 kJ/mol
# GULP energy per Si atom -5567.513838 kJ/mol
# Density = 1.884933 g / cm^3
# Si number density = 18.892325 Si / 1000 Ang^3
#
#
#
# Elastic Constant Matrix: (Units=GPa)
#
#
# Indices 1 2 3 4 5 6 
#
# 1 73.7479 11.9265 17.7203 0.0000 0.0000 0.0000
# 2 11.9265 59.6114 -0.2759 0.0000 0.0000 0.0000
# 3 17.7203 -0.2759 35.9849 0.0000 0.0000 0.0000
# 4 0.0000 0.0000 0.0000 7.7874 0.0000 0.0000
# 5 0.0000 0.0000 0.0000 0.0000 27.0238 0.0000
# 6 0.0000 0.0000 0.0000 0.0000 0.0000 254.6308
#
#
#
# Elastic Compliance Matrix: (Units=1/GPa)
#
#
# Indices 1 2 3 4 5 6 
#
# 1 0.015979 -0.003234 -0.007894 0.000000 0.000000 0.000000
# 2 -0.003234 0.017430 0.001726 0.000000 0.000000 0.000000
# 3 -0.007894 0.001726 0.031690 0.000000 0.000000 0.000000
# 4 0.000000 0.000000 0.000000 0.128413 0.000000 0.000000
# 5 0.000000 0.000000 0.000000 0.000000 0.037004 0.000000
# 6 0.000000 0.000000 0.000000 0.000000 0.000000 0.003927
#
#
# Mechanical properties :
#
#
# Convention : Reuss Voigt Hill
#
# Bulk Modulus (GPa) = 21.59972 25.34290 23.47131
# Shear Modulus (GPa) = 18.60961 67.21996 42.91478
#
# Velocity S-wave (km/s) = 3.14193 5.97142 4.77124
# Velocity P-wave (km/s) = 4.96187 7.80943 6.54246
#
# Compressibility (1/GPa) = 0.04629691
#
# Stress axis : x y z
#
# Youngs Moduli (GPa) = 62.58094 57.37161 31.55599
#
# Poissons Ratio (x) = 0.18551 0.24909
# Poissons Ratio (y) = 0.20236 -0.05446
# Poissons Ratio (z) = 0.49399 -0.09902
#
# Static dielectric constant tensor:
#      x y z
#    x 1.674870 0.000000 0.000000 
#    y 0.000000 1.664790 0.000000 
#    z 0.000000 0.000000 1.687740 
# 
# From -- ./inp_files/50999.got.cif
#   From: 2010.05.17/outbox.cif.g08.bks.cpg/sg64_26_cif.got.tgz:50999.got - 2010.06.03 16:29:19.
