data_PCOD9481943
_publ_section_title
;
Structure prediction by ZEFSAII (Michael W. Deem and Ramdas Pophale) SiO2 
 PCOD9481943
Probable space group: C M C A
;
_chemical_formula_sum "Si O2"
_cell_formula_units_Z 80
_cell_length_a 20.958344
_cell_length_b 12.401852
_cell_length_c 14.257107
_cell_angle_alpha 90.000000
_cell_angle_beta 90.000000
_cell_angle_gamma 90.000000
_cell_volume 3705.739764
_symmetry_space_group_name_H-M "C M C A"
_symmetry_group_IT_number 64
_symmetry_cell_setting 'orthorhombic'
loop_
_space_group_symop_operation_xyz
x,y,z
-x,1/2-y,1/2+z
x,-y,-z
-x,1/2+y,1/2-z
-x,-y,-z
x,1/2+y,1/2-z
-x,y,z
x,1/2-y,1/2+z
1/2+x,1/2+y,z
1/2-x,-y,1/2+z
1/2+x,1/2-y,-z
1/2-x,y,1/2-z
1/2-x,1/2-y,-z
1/2+x,y,1/2-z
1/2-x,1/2+y,z
1/2+x,-y,1/2+z
loop_
_atom_site_type_symbol
_atom_site_label
_atom_site_fract_x
_atom_site_fract_y
_atom_site_fract_z
Si Si1 0.892834 0.050102 0.234540
Si Si2 0.500000 0.796078 0.404908
Si Si3 0.638740 0.692058 0.396408
Si Si4 0.695903 0.500000 0.500000
Si Si5 0.213810 0.102425 0.846717
Si Si6 0.500000 0.405291 0.298214
Si Si7 0.000000 0.830594 0.884009
O O1 0.846990 0.969846 0.180358
O O2 0.937523 0.979915 0.304965
O O3 0.853515 0.134395 0.295963
O O4 0.939110 0.115805 0.165765
O O5 0.565315 0.728787 0.401329
O O6 0.500000 0.868050 0.311382
O O7 0.500000 0.853112 0.505642
O O8 0.654710 0.603918 0.473790
O O9 0.686184 0.793038 0.399246
O O10 0.739943 0.465869 0.412919
O O11 0.250000 0.130743 0.750000
O O12 0.500000 0.297863 0.360898
#
# Coordination Sequence:
#
# PCOD9481943 Si02
#       7
#    16   8  16   8  16   8   8
#     4  11  23  45  73  97 145 193 239 294 368 423
#     4  12  25  44  73 110 141 184 231 317 359 425
#     4  12  27  50  72 108 148 185 253 300 367 436
#     4  12  30  47  72 111 142 204 238 302 362 442
#     4  12  27  47  75 105 147 195 248 299 358 442
#     4  11  22  46  64 108 141 178 242 295 357 425
#     4  11  25  40  75 104 144 190 234 303 366 430
#
# _framework density 21.588132999999999
#
# number of rings (size 3 to 8) (size 9 to 14) (size 15 to 20)
#    0.000    0.400    6.000    1.200    8.400    3.600 
#    0.000    0.000    0.000    0.000    0.000    0.000 
#    0.000    0.000    0.000    0.000    0.000    0.000 
#
# Total GULP energy -223939.421563 kJ/mol
# GULP energy per Si atom -5598.485539 kJ/mol
# Density = 2.153900 g / cm^3
# Si number density = 21.588133 Si / 1000 Ang^3
#
#
#
# Elastic Constant Matrix: (Units=GPa)
#
#
# Indices 1 2 3 4 5 6 
#
# 1 46.1587 25.9522 2.2513 0.0000 0.0000 0.0000
# 2 25.9522 77.8547 -10.3402 0.0000 0.0000 0.0000
# 3 2.2513 -10.3402 47.0267 0.0000 0.0000 0.0000
# 4 0.0000 0.0000 0.0000 37.7719 0.0000 0.0000
# 5 0.0000 0.0000 0.0000 0.0000 2.3906 0.0000
# 6 0.0000 0.0000 0.0000 0.0000 0.0000 74.4782
#
#
#
# Elastic Compliance Matrix: (Units=1/GPa)
#
#
# Indices 1 2 3 4 5 6 
#
# 1 0.027176 -0.009510 -0.003392 0.000000 0.000000 0.000000
# 2 -0.009510 0.016558 0.004096 0.000000 0.000000 0.000000
# 3 -0.003392 0.004096 0.022328 0.000000 0.000000 0.000000
# 4 0.000000 0.000000 0.000000 0.026475 0.000000 0.000000
# 5 0.000000 0.000000 0.000000 0.000000 0.418297 0.000000
# 6 0.000000 0.000000 0.000000 0.000000 0.000000 0.013427
#
#
# Mechanical properties :
#
#
# Convention : Reuss Voigt Hill
#
# Bulk Modulus (GPa) = 20.63919 22.97410 21.80664
# Shear Modulus (GPa) = 8.96022 33.13994 21.05008
#
# Velocity S-wave (km/s) = 2.03950 3.92229 3.12601
# Velocity P-wave (km/s) = 3.88938 5.58369 4.81169
#
# Compressibility (1/GPa) = 0.04845153
#
# Stress axis : x y z
#
# Youngs Moduli (GPa) = 36.79656 60.39237 44.78770
#
# Poissons Ratio (x) = 0.57430 0.15192
# Poissons Ratio (y) = 0.34992 -0.18346
# Poissons Ratio (z) = 0.12481 -0.24737
#
# Static dielectric constant tensor:
#      x y z
#    x 1.755660 0.000000 0.000000 
#    y 0.000000 1.780730 0.000000 
#    z 0.000000 0.000000 1.785340 
# 
# From -- ./inp_files/27149.got.cif
#   From: 2010.05.17/outbox.cif.g08.bks.cpg/sg64_14_cif.got.tgz:27149.got - 2010.06.03 16:29:19.
