data_PCOD9481968
_publ_section_title
;
Structure prediction by ZEFSAII (Michael W. Deem and Ramdas Pophale) SiO2 
 PCOD9481968
Probable space group: C M C A
;
_chemical_formula_sum "Si O2"
_cell_formula_units_Z 80
_cell_length_a 18.123733
_cell_length_b 7.535468
_cell_length_c 25.545245
_cell_angle_alpha 90.000000
_cell_angle_beta 90.000000
_cell_angle_gamma 90.000000
_cell_volume 3488.734803
_symmetry_space_group_name_H-M "C M C A"
_symmetry_group_IT_number 64
_symmetry_cell_setting 'orthorhombic'
loop_
_space_group_symop_operation_xyz
x,y,z
-x,1/2-y,1/2+z
x,-y,-z
-x,1/2+y,1/2-z
-x,-y,-z
x,1/2+y,1/2-z
-x,y,z
x,1/2-y,1/2+z
1/2+x,1/2+y,z
1/2-x,-y,1/2+z
1/2+x,1/2-y,-z
1/2-x,y,1/2-z
1/2-x,1/2-y,-z
1/2+x,y,1/2-z
1/2-x,1/2+y,z
1/2+x,-y,1/2+z
loop_
_atom_site_type_symbol
_atom_site_label
_atom_site_fract_x
_atom_site_fract_y
_atom_site_fract_z
Si Si1 0.844214 0.527600 0.422836
Si Si2 0.823727 0.755010 0.222710
Si Si3 0.085714 0.068350 0.187274
Si Si4 0.586998 0.861511 0.047436
Si Si5 0.681009 0.873142 0.892369
O O1 0.887948 0.596558 0.371522
O O2 0.877952 0.667460 0.464208
O O3 0.758162 0.574330 0.418778
O O4 0.847157 0.314021 0.416730
O O5 0.750000 0.837702 0.250000
O O6 0.861792 0.661934 0.271368
O O7 0.802319 0.648670 0.169843
O O8 0.891684 0.867842 0.199881
O O9 0.000000 0.107156 0.193937
O O10 0.500000 0.840482 0.055452
O O11 0.625124 0.967611 0.095376
O O12 0.598799 0.000000 0.000000
#
# Coordination Sequence:
#
# PCOD9481968 Si02
#       5
#    16  16  16  16  16
#     4  11  23  44  69 100 138 179 228 284 337 409
#     4  11  23  39  63  93 134 178 224 275 331 404
#     4  11  24  38  60  95 133 176 225 277 336 398
#     4  11  27  49  74 104 137 178 228 290 360 415
#     4  11  24  43  71 102 136 182 231 280 341 408
#
# _framework density 22.930948999999998
#
# number of rings (size 3 to 8) (size 9 to 14) (size 15 to 20)
#    0.000    1.000    4.000    1.800    5.600    6.400 
#    0.000    2.000    0.000    0.000    0.000    0.000 
#    0.000    0.000    0.000    0.000    0.000    0.000 
#
# Total GULP energy -223136.138613 kJ/mol
# GULP energy per Si atom -5578.403465 kJ/mol
# Density = 2.287876 g / cm^3
# Si number density = 22.930949 Si / 1000 Ang^3
#
#
#
# Elastic Constant Matrix: (Units=GPa)
#
#
# Indices 1 2 3 4 5 6 
#
# 1 103.1140 25.2115 -3.5421 0.0000 0.0000 0.0000
# 2 25.2115 121.1297 -7.6025 0.0000 0.0000 0.0000
# 3 -3.5421 -7.6025 48.0662 0.0000 0.0000 0.0000
# 4 0.0000 0.0000 0.0000 30.2381 0.0000 0.0000
# 5 0.0000 0.0000 0.0000 0.0000 -48.0605 0.0000
# 6 0.0000 0.0000 0.0000 0.0000 0.0000 5.8621
#
#
#
# Elastic Compliance Matrix: (Units=1/GPa)
#
#
# Indices 1 2 3 4 5 6 
#
# 1 0.010226 -0.002102 0.000421 0.000000 0.000000 0.000000
# 2 -0.002102 0.008770 0.001232 0.000000 0.000000 0.000000
# 3 0.000421 0.001232 0.021031 0.000000 0.000000 0.000000
# 4 0.000000 0.000000 0.000000 0.033071 0.000000 0.000000
# 5 0.000000 0.000000 0.000000 0.000000 -0.020807 0.000000
# 6 0.000000 0.000000 0.000000 0.000000 0.000000 0.170588
#
#
# Mechanical properties :
#
#
# Convention : Reuss Voigt Hill
#
# Bulk Modulus (GPa) = 25.55573 33.38265 29.46919
# Shear Modulus (GPa) = 21.11310 14.82414 17.96862
#
# Velocity S-wave (km/s) = 3.03764 2.54533 2.80232
# Velocity P-wave (km/s) = 4.84477 4.81952 4.83216
#
# Compressibility (1/GPa) = 0.03913017
#
# Stress axis : x y z
#
# Youngs Moduli (GPa) = 97.78591 114.01892 47.54985
#
# Poissons Ratio (x) = 0.23967 -0.02002
# Poissons Ratio (y) = 0.20555 -0.05860
# Poissons Ratio (z) = -0.04118 -0.14050
#
# Static dielectric constant tensor:
#      x y z
#    x 1.765570 0.000000 0.000000 
#    y 0.000000 2.099870 0.000000 
#    z 0.000000 0.000000 1.654860 
# 
# From -- ./inp_files/53532.got.cif
#   From: 2010.05.17/outbox.cif.g08.bks.cpg/sg64_27_cif.got.tgz:53532.got - 2010.06.03 16:29:19.
