data_PCOD9481527
_publ_section_title
;
Structure prediction by ZEFSAII (Michael W. Deem and Ramdas Pophale) SiO2 
 PCOD9481527
Probable space group: C M C A
;
_chemical_formula_sum "Si O2"
_cell_formula_units_Z 48
_cell_length_a 18.924979
_cell_length_b 6.866233
_cell_length_c 11.903411
_cell_angle_alpha 90.000000
_cell_angle_beta 90.000000
_cell_angle_gamma 90.000000
_cell_volume 1546.768689
_symmetry_space_group_name_H-M "C M C A"
_symmetry_group_IT_number 64
_symmetry_cell_setting 'orthorhombic'
loop_
_space_group_symop_operation_xyz
x,y,z
-x,1/2-y,1/2+z
x,-y,-z
-x,1/2+y,1/2-z
-x,-y,-z
x,1/2+y,1/2-z
-x,y,z
x,1/2-y,1/2+z
1/2+x,1/2+y,z
1/2-x,-y,1/2+z
1/2+x,1/2-y,-z
1/2-x,y,1/2-z
1/2-x,1/2-y,-z
1/2+x,y,1/2-z
1/2-x,1/2+y,z
1/2+x,-y,1/2+z
loop_
_atom_site_type_symbol
_atom_site_label
_atom_site_fract_x
_atom_site_fract_y
_atom_site_fract_z
Si Si1 0.607468 0.849939 0.898610
Si Si2 0.076293 0.917855 0.851526
Si Si3 0.735075 0.416622 0.874257
O O1 0.576521 0.633103 0.906612
O O2 0.579534 0.943221 0.783566
O O3 0.690374 0.801935 0.879523
O O4 0.595772 0.000000 0.000000
O O5 0.155129 0.830615 0.873113
O O6 0.000000 0.824574 0.875154
O O7 0.750000 0.511614 0.750000
O O8 0.739635 0.500000 0.000000
#
# Coordination Sequence:
#
# PCOD9481527 Si02
#       3
#    16  16  16
#     4  10  24  45  69  96 136 185 231 280 341 414
#     4  11  24  41  65 100 137 174 223 286 350 407
#     4   9  21  40  66  96 132 176 229 280 336 405
#
# _framework density 31.032433999999999
#
# number of rings (size 3 to 8) (size 9 to 14) (size 15 to 20)
#    0.000    2.000    0.000    1.000    0.000   26.000 
#    0.000    0.000    0.000    0.000    0.000    0.000 
#    0.000    0.000    0.000    0.000    0.000    0.000 
#
# Total GULP energy -134220.256216 kJ/mol
# GULP energy per Si atom -5592.510676 kJ/mol
# Density = 3.096180 g / cm^3
# Si number density = 31.032434 Si / 1000 Ang^3
#
#
#
# Elastic Constant Matrix: (Units=GPa)
#
#
# Indices 1 2 3 4 5 6 
#
# 1 352.0077 43.8879 68.7555 0.0000 0.0000 0.0000
# 2 43.8879 120.7053 71.5661 0.0000 0.0000 0.0000
# 3 68.7555 71.5661 246.3245 0.0000 0.0000 0.0000
# 4 0.0000 0.0000 0.0000 63.7797 0.0000 0.0000
# 5 0.0000 0.0000 0.0000 0.0000 6.8611 0.0000
# 6 0.0000 0.0000 0.0000 0.0000 0.0000 42.6198
#
#
#
# Elastic Compliance Matrix: (Units=1/GPa)
#
#
# Indices 1 2 3 4 5 6 
#
# 1 0.003057 -0.000732 -0.000641 0.000000 0.000000 0.000000
# 2 -0.000732 0.010184 -0.002755 0.000000 0.000000 0.000000
# 3 -0.000641 -0.002755 0.005039 0.000000 0.000000 0.000000
# 4 0.000000 0.000000 0.000000 0.015679 0.000000 0.000000
# 5 0.000000 0.000000 0.000000 0.000000 0.145748 0.000000
# 6 0.000000 0.000000 0.000000 0.000000 0.000000 0.023463
#
#
# Mechanical properties :
#
#
# Convention : Reuss Voigt Hill
#
# Bulk Modulus (GPa) = 99.74149 120.82851 110.28500
# Shear Modulus (GPa) = 23.28110 58.30732 40.79421
#
# Velocity S-wave (km/s) = 2.74198 4.33935 3.62963
# Velocity P-wave (km/s) = 6.49888 8.00795 7.29256
#
# Compressibility (1/GPa) = 0.01002592
#
# Stress axis : x y z
#
# Youngs Moduli (GPa) = 327.09349 98.19479 198.45866
#
# Poissons Ratio (x) = 0.07185 0.12717
# Poissons Ratio (y) = 0.23933 0.54666
# Poissons Ratio (z) = 0.20959 0.27048
#
# Static dielectric constant tensor:
#      x y z
#    x 2.201870 0.000000 0.000000 
#    y 0.000000 2.730980 0.000000 
#    z 0.000000 0.000000 2.464950 
# 
# From -- ./inp_files/6183.got.cif
#   From: 2010.05.17/outbox.cif.g08.bks.cpg/sg64_4_cif.got.tgz:6183.got - 2010.06.03 16:29:19.
