data_PCOD9481677
_publ_section_title
;
Structure prediction by ZEFSAII (Michael W. Deem and Ramdas Pophale) SiO2 
 PCOD9481677
Probable space group: C M C A
;
_chemical_formula_sum "Si O2"
_cell_formula_units_Z 104
_cell_length_a 29.611544
_cell_length_b 8.243238
_cell_length_c 21.491556
_cell_angle_alpha 90.000000
_cell_angle_beta 90.000000
_cell_angle_gamma 90.000000
_cell_volume 5245.981464
_symmetry_space_group_name_H-M "C M C A"
_symmetry_group_IT_number 64
_symmetry_cell_setting 'orthorhombic'
loop_
_space_group_symop_operation_xyz
x,y,z
-x,1/2-y,1/2+z
x,-y,-z
-x,1/2+y,1/2-z
-x,-y,-z
x,1/2+y,1/2-z
-x,y,z
x,1/2-y,1/2+z
1/2+x,1/2+y,z
1/2-x,-y,1/2+z
1/2+x,1/2-y,-z
1/2-x,y,1/2-z
1/2-x,1/2-y,-z
1/2+x,y,1/2-z
1/2-x,1/2+y,z
1/2+x,-y,1/2+z
loop_
_atom_site_type_symbol
_atom_site_label
_atom_site_fract_x
_atom_site_fract_y
_atom_site_fract_z
Si Si1 0.216631 0.352884 0.307702
Si Si2 0.198615 0.745419 0.523822
Si Si3 0.428399 0.000000 0.000000
Si Si4 0.865775 0.179236 0.592105
Si Si5 0.295397 0.482020 0.638972
Si Si6 0.449560 0.147610 0.550084
Si Si7 0.137399 0.543061 0.613940
O O1 0.250000 0.385337 0.250000
O O2 0.250200 0.412915 0.362601
O O3 0.209524 0.161208 0.311708
O O4 0.167966 0.428930 0.324135
O O5 0.250000 0.750000 0.500000
O O6 0.168816 0.785656 0.464175
O O7 0.196371 0.887216 0.575046
O O8 0.172897 0.596759 0.559168
O O9 0.400846 0.943419 0.061346
O O10 0.450069 0.173480 0.018636
O O11 0.879645 0.358645 0.611596
O O12 0.837764 0.097868 0.647681
O O13 0.500000 0.118178 0.575890
O O14 0.407759 0.144529 0.598364
O O15 0.441097 0.000000 0.500000
#
# Coordination Sequence:
#
# PCOD9481677 Si02
#       7
#    16  16   8  16  16  16  16
#     4  11  23  39  55  74 109 154 206 265 316 362
#     4  11  20  31  48  78 113 155 191 234 286 366
#     4  12  19  36  54  84 126 166 208 248 299 362
#     4  12  20  33  53  82 120 160 200 242 297 381
#     4  11  22  33  49  78 108 151 197 242 300 367
#     4  11  22  37  58  87 125 169 210 253 309 379
#     4  11  21  38  56  79 116 162 205 252 307 365
#
# _framework density 19.824698000000001
#
# number of rings (size 3 to 8) (size 9 to 14) (size 15 to 20)
#    0.000    0.769    4.615    5.769    0.000    2.462 
#    0.000    0.769    0.000    0.000    0.000    0.000 
#    0.000   32.000    0.000    0.000    0.000    0.308 
#
# Total GULP energy -289638.809925 kJ/mol
# GULP energy per Si atom -5569.977114 kJ/mol
# Density = 1.977958 g / cm^3
# Si number density = 19.824698 Si / 1000 Ang^3
#
#
#
# Elastic Constant Matrix: (Units=GPa)
#
#
# Indices 1 2 3 4 5 6 
#
# 1 112.5530 25.7049 27.4796 0.0000 0.0000 0.0000
# 2 25.7049 132.4851 11.3366 0.0000 0.0000 0.0000
# 3 27.4796 11.3366 44.7354 0.0000 0.0000 0.0000
# 4 0.0000 0.0000 0.0000 20.1710 0.0000 0.0000
# 5 0.0000 0.0000 0.0000 0.0000 15.5590 0.0000
# 6 0.0000 0.0000 0.0000 0.0000 0.0000 7.4246
#
#
#
# Elastic Compliance Matrix: (Units=1/GPa)
#
#
# Indices 1 2 3 4 5 6 
#
# 1 0.010757 -0.001555 -0.006214 0.000000 0.000000 0.000000
# 2 -0.001555 0.007940 -0.001057 0.000000 0.000000 0.000000
# 3 -0.006214 -0.001057 0.026438 0.000000 0.000000 0.000000
# 4 0.000000 0.000000 0.000000 0.049576 0.000000 0.000000
# 5 0.000000 0.000000 0.000000 0.000000 0.064272 0.000000
# 6 0.000000 0.000000 0.000000 0.000000 0.000000 0.134687
#
#
# Mechanical properties :
#
#
# Convention : Reuss Voigt Hill
#
# Bulk Modulus (GPa) = 36.38466 46.53508 41.45987
# Shear Modulus (GPa) = 15.60146 23.64773 19.62459
#
# Velocity S-wave (km/s) = 2.80834 3.45750 3.14969
# Velocity P-wave (km/s) = 5.37669 6.28198 5.84688
#
# Compressibility (1/GPa) = 0.02748411
#
# Stress axis : x y z
#
# Youngs Moduli (GPa) = 92.96318 125.94104 37.82402
#
# Poissons Ratio (x) = 0.19589 0.23502
# Poissons Ratio (y) = 0.14459 0.03997
# Poissons Ratio (z) = 0.57763 0.13309
#
# Static dielectric constant tensor:
#      x y z
#    x 1.770390 0.000000 0.000000 
#    y 0.000000 1.785540 0.000000 
#    z 0.000000 0.000000 1.878170 
# 
# From -- ./inp_files/51310.got.cif
#   From: 2010.05.17/outbox.cif.g08.bks.cpg/sg64_26_cif.got.tgz:51310.got - 2010.06.03 16:29:19.
