data_PCOD9481691
_publ_section_title
;
Structure prediction by ZEFSAII (Michael W. Deem and Ramdas Pophale) SiO2 
 PCOD9481691
Probable space group: C M C A
;
_chemical_formula_sum "Si O2"
_cell_formula_units_Z 112
_cell_length_a 20.498368
_cell_length_b 20.575598
_cell_length_c 11.933530
_cell_angle_alpha 90.000000
_cell_angle_beta 90.000000
_cell_angle_gamma 90.000000
_cell_volume 5033.159358
_symmetry_space_group_name_H-M "C M C A"
_symmetry_group_IT_number 64
_symmetry_cell_setting 'orthorhombic'
loop_
_space_group_symop_operation_xyz
x,y,z
-x,1/2-y,1/2+z
x,-y,-z
-x,1/2+y,1/2-z
-x,-y,-z
x,1/2+y,1/2-z
-x,y,z
x,1/2-y,1/2+z
1/2+x,1/2+y,z
1/2-x,-y,1/2+z
1/2+x,1/2-y,-z
1/2-x,y,1/2-z
1/2-x,1/2-y,-z
1/2+x,y,1/2-z
1/2-x,1/2+y,z
1/2+x,-y,1/2+z
loop_
_atom_site_type_symbol
_atom_site_label
_atom_site_fract_x
_atom_site_fract_y
_atom_site_fract_z
Si Si1 0.926658 0.636463 0.168140
Si Si2 0.427932 0.729265 0.931224
Si Si3 0.808133 0.380849 0.675473
Si Si4 0.236235 0.890911 0.064407
Si Si5 0.116254 0.067405 0.553818
Si Si6 0.124470 0.128074 0.773267
Si Si7 0.184299 0.735158 0.891549
O O1 0.926044 0.714603 0.163248
O O2 0.875159 0.610834 0.257887
O O3 0.000000 0.613940 0.189632
O O4 0.905753 0.617797 0.041550
O O5 0.500000 0.732773 0.984633
O O6 0.417661 0.660217 0.871362
O O7 0.369891 0.745012 0.016633
O O8 0.750000 0.409007 0.750000
O O9 0.801574 0.406417 0.549950
O O10 0.795944 0.303264 0.662084
O O11 0.305119 0.927713 0.064907
O O12 0.187698 0.902795 0.166897
O O13 0.258433 0.813756 0.065748
O O14 0.091746 0.083096 0.678788
O O15 0.096085 0.000000 0.500000
O O16 0.151236 0.188711 0.700615
#
# Coordination Sequence:
#
# PCOD9481691 Si02
#       7
#    16  16  16  16  16  16  16
#     4  11  24  41  61  95 130 173 224 272 332 402
#     4  11  22  36  57  89 133 174 213 267 334 409
#     4  12  20  35  62  91 129 170 215 267 340 407
#     4  11  22  39  59  95 132 169 223 277 337 393
#     4  11  24  46  68  94 128 175 229 282 333 399
#     4  11  22  39  62  97 134 172 215 278 346 401
#     4  11  20  33  58  89 131 169 203 259 330 405
#
# _framework density 22.252424999999999
#
# number of rings (size 3 to 8) (size 9 to 14) (size 15 to 20)
#    0.000    0.857    7.143    3.000    0.000    2.000 
#    5.143    0.000    0.000    0.000    0.000    1.000 
#    0.000    0.000    0.000    0.000    0.000    0.000 
#
# Total GULP energy -312827.735206 kJ/mol
# GULP energy per Si atom -5586.209557 kJ/mol
# Density = 2.220178 g / cm^3
# Si number density = 22.252425 Si / 1000 Ang^3
#
#
#
# Elastic Constant Matrix: (Units=GPa)
#
#
# Indices 1 2 3 4 5 6 
#
# 1 112.2243 -13.7284 53.3530 0.0000 0.0000 0.0000
# 2 -13.7284 32.4325 4.3108 0.0000 0.0000 0.0000
# 3 53.3530 4.3108 129.5850 0.0000 0.0000 0.0000
# 4 0.0000 0.0000 0.0000 19.8926 0.0000 0.0000
# 5 0.0000 0.0000 0.0000 0.0000 15.5344 0.0000
# 6 0.0000 0.0000 0.0000 0.0000 0.0000 3.7339
#
#
#
# Elastic Compliance Matrix: (Units=1/GPa)
#
#
# Indices 1 2 3 4 5 6 
#
# 1 0.012075 0.005798 -0.005165 0.000000 0.000000 0.000000
# 2 0.005798 0.033754 -0.003510 0.000000 0.000000 0.000000
# 3 -0.005165 -0.003510 0.009960 0.000000 0.000000 0.000000
# 4 0.000000 0.000000 0.000000 0.050270 0.000000 0.000000
# 5 0.000000 0.000000 0.000000 0.000000 0.064373 0.000000
# 6 0.000000 0.000000 0.000000 0.000000 0.000000 0.267817
#
#
# Mechanical properties :
#
#
# Convention : Reuss Voigt Hill
#
# Bulk Modulus (GPa) = 19.98561 40.23474 30.11017
# Shear Modulus (GPa) = 10.85347 23.18592 17.01970
#
# Velocity S-wave (km/s) = 2.21089 3.23143 2.76859
# Velocity P-wave (km/s) = 3.93931 5.66067 4.87654
#
# Compressibility (1/GPa) = 0.05003600
#
# Stress axis : x y z
#
# Youngs Moduli (GPa) = 82.81393 29.62609 100.40097
#
# Poissons Ratio (x) = -0.17177 0.51852
# Poissons Ratio (y) = -0.48014 0.35240
# Poissons Ratio (z) = 0.42770 0.10399
#
# Static dielectric constant tensor:
#      x y z
#    x 1.842960 0.000000 0.000000 
#    y 0.000000 1.891920 0.000000 
#    z 0.000000 0.000000 1.878510 
# 
# From -- ./inp_files/17533.got.cif
#   From: 2010.05.17/outbox.cif.g08.bks.cpg/sg64_9_cif.got.tgz:17533.got - 2010.06.03 16:29:19.
