data_PCOD9481557
_publ_section_title
;
Structure prediction by ZEFSAII (Michael W. Deem and Ramdas Pophale) SiO2 
 PCOD9481557
Probable space group: C M C A
;
_chemical_formula_sum "Si O2"
_cell_formula_units_Z 56
_cell_length_a 14.894491
_cell_length_b 30.161395
_cell_length_c 4.774127
_cell_angle_alpha 90.000000
_cell_angle_beta 90.000000
_cell_angle_gamma 90.000000
_cell_volume 2144.722256
_symmetry_space_group_name_H-M "C M C A"
_symmetry_group_IT_number 64
_symmetry_cell_setting 'orthorhombic'
loop_
_space_group_symop_operation_xyz
x,y,z
-x,1/2-y,1/2+z
x,-y,-z
-x,1/2+y,1/2-z
-x,-y,-z
x,1/2+y,1/2-z
-x,y,z
x,1/2-y,1/2+z
1/2+x,1/2+y,z
1/2-x,-y,1/2+z
1/2+x,1/2-y,-z
1/2-x,y,1/2-z
1/2-x,1/2-y,-z
1/2+x,y,1/2-z
1/2-x,1/2+y,z
1/2+x,-y,1/2+z
loop_
_atom_site_type_symbol
_atom_site_label
_atom_site_fract_x
_atom_site_fract_y
_atom_site_fract_z
Si Si1 0.895022 0.541008 0.308554
Si Si2 0.150117 0.598720 0.812903
Si Si3 0.155067 0.281051 0.642860
Si Si4 0.500000 0.657527 0.376363
O O1 0.863563 0.500000 0.500000
O O2 0.889870 0.582094 0.520174
O O3 0.000000 0.533253 0.235802
O O4 0.844515 0.556549 0.029085
O O5 0.250000 0.615737 0.750000
O O6 0.079167 0.631086 0.950036
O O7 0.148060 0.264496 0.325031
O O8 0.250000 0.299710 0.750000
O O9 0.077026 0.313951 0.711186
#
# Coordination Sequence:
#
# PCOD9481557 Si02
#       4
#    16  16  16   8
#     4  11  23  47  76 103 143 197 258 318 381 441
#     4  12  27  45  71 112 151 199 253 312 383 460
#     4  10  24  46  75 109 143 191 251 301 361 445
#     4  12  26  48  75 110 158 204 238 318 385 448
#
# _framework density 26.110605
#
# number of rings (size 3 to 8) (size 9 to 14) (size 15 to 20)
#    0.000    0.857    2.857    2.571    0.000   14.857 
#    0.000    0.000    0.000    0.000    0.000    0.000 
#    0.000    0.000    0.000    0.000    0.000    0.000 
#
# Total GULP energy -156033.382591 kJ/mol
# GULP energy per Si atom -5572.620807 kJ/mol
# Density = 2.605118 g / cm^3
# Si number density = 26.110605 Si / 1000 Ang^3
#
#
#
# Elastic Constant Matrix: (Units=GPa)
#
#
# Indices 1 2 3 4 5 6 
#
# 1 210.7664 56.8310 16.4652 0.0000 0.0000 0.0000
# 2 56.8310 51.3561 22.8767 0.0000 0.0000 0.0000
# 3 16.4652 22.8767 122.6563 0.0000 0.0000 0.0000
# 4 0.0000 0.0000 0.0000 57.0404 0.0000 0.0000
# 5 0.0000 0.0000 0.0000 0.0000 -9.9643 0.0000
# 6 0.0000 0.0000 0.0000 0.0000 0.0000 46.1467
#
#
#
# Elastic Compliance Matrix: (Units=1/GPa)
#
#
# Indices 1 2 3 4 5 6 
#
# 1 0.006794 -0.007757 0.000535 0.000000 0.000000 0.000000
# 2 -0.007757 0.030092 -0.004571 0.000000 0.000000 0.000000
# 3 0.000535 -0.004571 0.008934 0.000000 0.000000 0.000000
# 4 0.000000 0.000000 0.000000 0.017531 0.000000 0.000000
# 5 0.000000 0.000000 0.000000 0.000000 -0.100359 0.000000
# 6 0.000000 0.000000 0.000000 0.000000 0.000000 0.021670
#
#
# Mechanical properties :
#
#
# Convention : Reuss Voigt Hill
#
# Bulk Modulus (GPa) = 44.97784 64.12497 54.55140
# Shear Modulus (GPa) = 319.27495 37.88496 178.57996
#
# Velocity S-wave (km/s) = 11.06993 3.81326 8.27902
# Velocity P-wave (km/s) = 13.44077 6.63326 10.59846
#
# Compressibility (1/GPa) = 0.02223317
#
# Stress axis : x y z
#
# Youngs Moduli (GPa) = 147.18047 33.23152 111.93609
#
# Poissons Ratio (x) = 0.25777 -0.05985
# Poissons Ratio (y) = 1.14166 0.51168
# Poissons Ratio (z) = -0.07869 0.15191
#
# Static dielectric constant tensor:
#      x y z
#    x 2.009010 0.000000 0.000000 
#    y 0.000000 2.096920 0.000000 
#    z 0.000000 0.000000 1.994100 
# 
# From -- ./inp_files/881.got.cif
#   From: 2010.05.17/outbox.cif.g08.bks.cpg/sg64_1_cif.got.tgz:881.got - 2010.06.03 16:29:19.
