data_PCOD9481375
_publ_section_title
;
Structure prediction by ZEFSAII (Michael W. Deem and Ramdas Pophale) SiO2 
 PCOD9481375
Probable space group: C M C A
;
_chemical_formula_sum "Si O2"
_cell_formula_units_Z 64
_cell_length_a 17.976329
_cell_length_b 9.510737
_cell_length_c 18.178041
_cell_angle_alpha 90.000000
_cell_angle_beta 90.000000
_cell_angle_gamma 90.000000
_cell_volume 3107.865810
_symmetry_space_group_name_H-M "C M C A"
_symmetry_group_IT_number 64
_symmetry_cell_setting 'orthorhombic'
loop_
_space_group_symop_operation_xyz
x,y,z
-x,1/2-y,1/2+z
x,-y,-z
-x,1/2+y,1/2-z
-x,-y,-z
x,1/2+y,1/2-z
-x,y,z
x,1/2-y,1/2+z
1/2+x,1/2+y,z
1/2-x,-y,1/2+z
1/2+x,1/2-y,-z
1/2-x,y,1/2-z
1/2-x,1/2-y,-z
1/2+x,y,1/2-z
1/2-x,1/2+y,z
1/2+x,-y,1/2+z
loop_
_atom_site_type_symbol
_atom_site_label
_atom_site_fract_x
_atom_site_fract_y
_atom_site_fract_z
Si Si1 0.191868 0.148082 0.540756
Si Si2 0.410009 0.263145 0.688371
Si Si3 0.588323 0.350237 0.026848
Si Si4 0.676255 0.943836 0.203751
O O1 0.250000 0.250000 0.500000
O O2 0.114670 0.228262 0.527244
O O3 0.191659 0.000000 0.500000
O O4 0.202548 0.122389 0.626637
O O5 0.500000 0.271571 0.695342
O O6 0.391189 0.190848 0.609985
O O7 0.372598 0.416690 0.690074
O O8 0.373513 0.167902 0.751594
O O9 0.500000 0.359576 0.025518
O O10 0.619792 0.500000 0.000000
O O11 0.750000 0.979864 0.250000
#
# Coordination Sequence:
#
# PCOD9481375 Si02
#       4
#    16  16  16  16
#     4  12  26  45  71 101 135 182 237 290 347 415
#     4  11  25  46  70 103 141 185 234 286 349 421
#     4  10  23  45  71 101 138 182 233 288 347 410
#     4  12  27  45  71 101 142 184 232 287 352 421
#
# _framework density 20.592911000000001
#
# number of rings (size 3 to 8) (size 9 to 14) (size 15 to 20)
#    0.000    0.750    2.500    3.750    7.000    2.500 
#    0.000    0.000    0.000    0.000    0.000    0.000 
#    0.000    0.000    0.000    0.000    0.000    0.000 
#
# Total GULP energy -179053.012615 kJ/mol
# GULP energy per Si atom -5595.406644 kJ/mol
# Density = 2.054604 g / cm^3
# Si number density = 20.592911 Si / 1000 Ang^3
#
#
#
# Elastic Constant Matrix: (Units=GPa)
#
#
# Indices 1 2 3 4 5 6 
#
# 1 90.8089 51.3454 62.2809 0.0000 0.0000 0.0000
# 2 51.3454 165.7727 68.0202 0.0000 0.0000 0.0000
# 3 62.2809 68.0202 149.4909 0.0000 0.0000 0.0000
# 4 0.0000 0.0000 0.0000 38.1766 0.0000 0.0000
# 5 0.0000 0.0000 0.0000 0.0000 34.6774 0.0000
# 6 0.0000 0.0000 0.0000 0.0000 0.0000 20.7037
#
#
#
# Elastic Compliance Matrix: (Units=1/GPa)
#
#
# Indices 1 2 3 4 5 6 
#
# 1 0.016411 -0.002800 -0.005563 0.000000 0.000000 0.000000
# 2 -0.002800 0.007895 -0.002426 0.000000 0.000000 0.000000
# 3 -0.005563 -0.002426 0.010111 0.000000 0.000000 0.000000
# 4 0.000000 0.000000 0.000000 0.026194 0.000000 0.000000
# 5 0.000000 0.000000 0.000000 0.000000 0.028837 0.000000
# 6 0.000000 0.000000 0.000000 0.000000 0.000000 0.048301
#
#
# Mechanical properties :
#
#
# Convention : Reuss Voigt Hill
#
# Bulk Modulus (GPa) = 77.88944 85.48504 81.68724
# Shear Modulus (GPa) = 30.56130 33.67328 32.11729
#
# Velocity S-wave (km/s) = 3.85654 4.04813 3.95350
# Velocity P-wave (km/s) = 7.59843 7.96567 7.78421
#
# Compressibility (1/GPa) = 0.01283871
#
# Stress axis : x y z
#
# Youngs Moduli (GPa) = 60.93542 126.66200 98.90560
#
# Poissons Ratio (x) = 0.35471 0.55020
# Poissons Ratio (y) = 0.17065 0.23991
# Poissons Ratio (z) = 0.33897 0.30723
#
# Static dielectric constant tensor:
#      x y z
#    x 1.776580 0.000000 0.000000 
#    y 0.000000 1.707260 0.000000 
#    z 0.000000 0.000000 1.712210 
# 
# From -- ./inp_files/39806.got.cif
#   From: 2010.05.17/outbox.cif.g08.bks.cpg/sg64_20_cif.got.tgz:39806.got - 2010.06.03 16:29:19.
