data_PCOD9481710
_publ_section_title
;
Structure prediction by ZEFSAII (Michael W. Deem and Ramdas Pophale) SiO2 
 PCOD9481710
Probable space group: C M C A
;
_chemical_formula_sum "Si O2"
_cell_formula_units_Z 72
_cell_length_a 24.130214
_cell_length_b 29.431426
_cell_length_c 4.934412
_cell_angle_alpha 90.000000
_cell_angle_beta 90.000000
_cell_angle_gamma 90.000000
_cell_volume 3504.353319
_symmetry_space_group_name_H-M "C M C A"
_symmetry_group_IT_number 64
_symmetry_cell_setting 'orthorhombic'
loop_
_space_group_symop_operation_xyz
x,y,z
-x,1/2-y,1/2+z
x,-y,-z
-x,1/2+y,1/2-z
-x,-y,-z
x,1/2+y,1/2-z
-x,y,z
x,1/2-y,1/2+z
1/2+x,1/2+y,z
1/2-x,-y,1/2+z
1/2+x,1/2-y,-z
1/2-x,y,1/2-z
1/2-x,1/2-y,-z
1/2+x,y,1/2-z
1/2-x,1/2+y,z
1/2+x,-y,1/2+z
loop_
_atom_site_type_symbol
_atom_site_label
_atom_site_fract_x
_atom_site_fract_y
_atom_site_fract_z
Si Si1 0.089631 0.856578 0.982555
Si Si2 0.500000 0.218773 0.452793
Si Si3 0.665481 0.029901 0.763673
Si Si4 0.213437 0.376839 0.481464
Si Si5 0.437174 0.083874 0.982241
O O1 0.053506 0.813004 0.909905
O O2 0.072667 0.897733 0.783491
O O3 0.155676 0.851760 0.958430
O O4 0.073394 0.873380 0.282448
O O5 0.500000 0.238832 0.752829
O O6 0.695293 0.075113 0.653461
O O7 0.609068 0.047770 0.900760
O O8 0.654871 0.000000 0.500000
O O9 0.694887 0.000000 0.000000
O O10 0.250000 0.353097 0.250000
O O11 0.250000 0.383523 0.750000
O O12 0.500000 0.067815 0.949524
#
# Coordination Sequence:
#
# PCOD9481710 Si02
#       5
#    16   8  16  16  16
#     4  11  22  41  63  93 126 154 203 248 291 377
#     4  12  24  40  70 104 128 150 180 242 322 364
#     4  11  23  37  54  86 122 158 213 272 313 345
#     4  11  23  41  64  85 115 171 217 249 298 352
#     4  11  20  37  61  82 120 171 205 245 309 366
#
# _framework density 20.545874000000001
#
# number of rings (size 3 to 8) (size 9 to 14) (size 15 to 20)
#    0.000    0.889    2.222    8.000    0.000    2.667 
#    0.000    2.222    0.000    4.000    0.000    0.000 
#    0.000    0.000    0.000    0.000    0.000    0.000 
#
# Total GULP energy -201355.484765 kJ/mol
# GULP energy per Si atom -5593.207910 kJ/mol
# Density = 2.049911 g / cm^3
# Si number density = 20.545874 Si / 1000 Ang^3
#
#
#
# Elastic Constant Matrix: (Units=GPa)
#
#
# Indices 1 2 3 4 5 6 
#
# 1 168.0465 35.5579 24.4448 0.0000 0.0000 0.0000
# 2 35.5579 55.0581 5.8989 0.0000 0.0000 0.0000
# 3 24.4448 5.8989 86.4262 0.0000 0.0000 0.0000
# 4 0.0000 0.0000 0.0000 34.0489 0.0000 0.0000
# 5 0.0000 0.0000 0.0000 0.0000 34.7270 0.0000
# 6 0.0000 0.0000 0.0000 0.0000 0.0000 6.6711
#
#
#
# Elastic Compliance Matrix: (Units=1/GPa)
#
#
# Indices 1 2 3 4 5 6 
#
# 1 0.007137 -0.004425 -0.001717 0.000000 0.000000 0.000000
# 2 -0.004425 0.021040 -0.000184 0.000000 0.000000 0.000000
# 3 -0.001717 -0.000184 0.012069 0.000000 0.000000 0.000000
# 4 0.000000 0.000000 0.000000 0.029369 0.000000 0.000000
# 5 0.000000 0.000000 0.000000 0.000000 0.028796 0.000000
# 6 0.000000 0.000000 0.000000 0.000000 0.000000 0.149901
#
#
# Mechanical properties :
#
#
# Convention : Reuss Voigt Hill
#
# Bulk Modulus (GPa) = 36.24062 49.03714 42.63888
# Shear Modulus (GPa) = 18.50737 31.33134 24.91935
#
# Velocity S-wave (km/s) = 3.00456 3.90929 3.48640
# Velocity P-wave (km/s) = 5.45103 6.65550 6.08315
#
# Compressibility (1/GPa) = 0.02759335
#
# Stress axis : x y z
#
# Youngs Moduli (GPa) = 140.11908 47.52786 82.85922
#
# Poissons Ratio (x) = 0.21032 0.14223
# Poissons Ratio (y) = 0.62006 0.01528
# Poissons Ratio (z) = 0.24052 0.00877
#
# Static dielectric constant tensor:
#      x y z
#    x 1.773850 0.000000 0.000000 
#    y 0.000000 1.698880 0.000000 
#    z 0.000000 0.000000 1.720420 
# 
# From -- ./inp_files/2247.got.cif
#   From: 2010.05.17/outbox.cif.g08.bks.cpg/sg64_2_cif.got.tgz:2247.got - 2010.06.03 16:29:19.
