data_PCOD9481016
_publ_section_title
;
Structure prediction by ZEFSAII (Michael W. Deem and Ramdas Pophale) SiO2 
 PCOD9481016
Probable space group: C M C A
;
_chemical_formula_sum "Si O2"
_cell_formula_units_Z 72
_cell_length_a 16.414085
_cell_length_b 23.061758
_cell_length_c 7.660306
_cell_angle_alpha 90.000000
_cell_angle_beta 90.000000
_cell_angle_gamma 90.000000
_cell_volume 2899.714278
_symmetry_space_group_name_H-M "C M C A"
_symmetry_group_IT_number 64
_symmetry_cell_setting 'orthorhombic'
loop_
_space_group_symop_operation_xyz
x,y,z
-x,1/2-y,1/2+z
x,-y,-z
-x,1/2+y,1/2-z
-x,-y,-z
x,1/2+y,1/2-z
-x,y,z
x,1/2-y,1/2+z
1/2+x,1/2+y,z
1/2-x,-y,1/2+z
1/2+x,1/2-y,-z
1/2-x,y,1/2-z
1/2-x,1/2-y,-z
1/2+x,y,1/2-z
1/2-x,1/2+y,z
1/2+x,-y,1/2+z
loop_
_atom_site_type_symbol
_atom_site_label
_atom_site_fract_x
_atom_site_fract_y
_atom_site_fract_z
Si Si1 0.640582 0.435179 0.552109
Si Si2 0.250000 0.269617 0.750000
Si Si3 0.167993 0.435334 0.535281
Si Si4 0.000000 0.846611 0.467433
Si Si5 0.648739 0.315259 0.046461
Si Si6 0.500000 0.729824 0.179946
O O1 0.611378 0.500000 0.500000
O O2 0.735178 0.433871 0.494741
O O3 0.646834 0.425533 0.761369
O O4 0.579639 0.387078 0.477776
O O5 0.323581 0.226531 0.700677
O O6 0.273546 0.309091 0.913454
O O7 0.138082 0.500000 0.500000
O O8 0.133191 0.382630 0.422690
O O9 0.000000 0.799938 0.310980
O O10 0.000000 0.805853 0.640648
O O11 0.576306 0.290048 0.934373
#
# Coordination Sequence:
#
# PCOD9481016 Si02
#       6
#    16   8  16   8  16   8
#     4  10  22  43  69  95 130 175 221 278 336 403
#     4  10  24  38  70  92 132 176 232 270 346 398
#     4  10  22  42  68  96 129 168 226 281 334 394
#     4  12  25  46  64 100 135 182 220 281 341 407
#     4  11  23  43  63  99 132 179 221 286 332 409
#     4  12  26  42  68  96 143 177 224 275 345 399
#
# _framework density 24.830033
#
# number of rings (size 3 to 8) (size 9 to 14) (size 15 to 20)
#    0.000    1.333    2.222    3.000    6.222    3.556 
#    4.000    2.222    0.000    0.000    0.000    0.000 
#    0.000    0.000    0.000    0.000    0.000    0.000 
#
# Total GULP energy -201613.194348 kJ/mol
# GULP energy per Si atom -5600.366510 kJ/mol
# Density = 2.477352 g / cm^3
# Si number density = 24.830033 Si / 1000 Ang^3
#
#
#
# Elastic Constant Matrix: (Units=GPa)
#
#
# Indices 1 2 3 4 5 6 
#
# 1 62.1572 45.3742 22.8336 0.0000 0.0000 0.0000
# 2 45.3742 226.6586 36.7045 0.0000 0.0000 0.0000
# 3 22.8336 36.7045 82.4421 0.0000 0.0000 0.0000
# 4 0.0000 0.0000 0.0000 44.1041 0.0000 0.0000
# 5 0.0000 0.0000 0.0000 0.0000 28.0715 0.0000
# 6 0.0000 0.0000 0.0000 0.0000 0.0000 56.1520
#
#
#
# Elastic Compliance Matrix: (Units=1/GPa)
#
#
# Indices 1 2 3 4 5 6 
#
# 1 0.020024 -0.003352 -0.004054 0.000000 0.000000 0.000000
# 2 -0.003352 0.005316 -0.001438 0.000000 0.000000 0.000000
# 3 -0.004054 -0.001438 0.013893 0.000000 0.000000 0.000000
# 4 0.000000 0.000000 0.000000 0.022674 0.000000 0.000000
# 5 0.000000 0.000000 0.000000 0.000000 0.035623 0.000000
# 6 0.000000 0.000000 0.000000 0.000000 0.000000 0.017809
#
#
# Mechanical properties :
#
#
# Convention : Reuss Voigt Hill
#
# Bulk Modulus (GPa) = 46.41468 64.56472 55.48970
# Shear Modulus (GPa) = 35.66112 43.42190 39.54151
#
# Velocity S-wave (km/s) = 3.79385 4.18636 3.99493
# Velocity P-wave (km/s) = 6.15829 7.03041 6.60875
#
# Compressibility (1/GPa) = 0.02154491
#
# Stress axis : x y z
#
# Youngs Moduli (GPa) = 49.93905 188.11488 71.97983
#
# Poissons Ratio (x) = 0.63060 0.29178
# Poissons Ratio (y) = 0.16741 0.10353
# Poissons Ratio (z) = 0.20243 0.27056
#
# Static dielectric constant tensor:
#      x y z
#    x 1.974000 0.000000 0.000000 
#    y 0.000000 1.959190 0.000000 
#    z 0.000000 0.000000 2.019250 
# 
# From -- ./inp_files/6910.got.cif
#   From: 2010.05.17/outbox.cif.g08.bks.cpg/sg64_4_cif.got.tgz:6910.got - 2010.06.03 16:29:19.
