data_PCOD9481704
_publ_section_title
;
Structure prediction by ZEFSAII (Michael W. Deem and Ramdas Pophale) SiO2 
 PCOD9481704
Probable space group: C M C A
;
_chemical_formula_sum "Si O2"
_cell_formula_units_Z 116
_cell_length_a 16.801899
_cell_length_b 18.073881
_cell_length_c 15.619618
_cell_angle_alpha 90.000000
_cell_angle_beta 90.000000
_cell_angle_gamma 90.000000
_cell_volume 4743.295667
_symmetry_space_group_name_H-M "C M C A"
_symmetry_group_IT_number 64
_symmetry_cell_setting 'orthorhombic'
loop_
_space_group_symop_operation_xyz
x,y,z
-x,1/2-y,1/2+z
x,-y,-z
-x,1/2+y,1/2-z
-x,-y,-z
x,1/2+y,1/2-z
-x,y,z
x,1/2-y,1/2+z
1/2+x,1/2+y,z
1/2-x,-y,1/2+z
1/2+x,1/2-y,-z
1/2-x,y,1/2-z
1/2-x,1/2-y,-z
1/2+x,y,1/2-z
1/2-x,1/2+y,z
1/2+x,-y,1/2+z
loop_
_atom_site_type_symbol
_atom_site_label
_atom_site_fract_x
_atom_site_fract_y
_atom_site_fract_z
Si Si1 0.408834 0.842925 0.361525
Si Si2 0.000000 0.000000 0.000000
Si Si3 0.591400 0.213879 0.461923
Si Si4 0.195244 0.065064 0.605727
Si Si5 0.405817 0.054030 0.206753
Si Si6 0.911111 0.122460 0.461572
Si Si7 0.635987 0.991279 0.622689
Si Si8 0.822698 0.722713 0.801239
O O1 0.500000 0.821170 0.375551
O O2 0.370591 0.828189 0.455666
O O3 0.405119 0.931037 0.349141
O O4 0.380133 0.803107 0.275995
O O5 0.072522 0.960467 0.944652
O O6 0.500000 0.192134 0.442452
O O7 0.587089 0.296481 0.500700
O O8 0.640455 0.225868 0.374749
O O9 0.131999 0.017403 0.660121
O O10 0.155758 0.081017 0.514789
O O11 0.276286 0.018593 0.599406
O O12 0.206096 0.144667 0.653732
O O13 0.500000 0.045021 0.222011
O O14 0.361707 0.061409 0.296026
O O15 0.394972 0.119592 0.139004
O O16 0.000000 0.089463 0.474030
O O17 0.750000 0.757842 0.750000
#
# Coordination Sequence:
#
# PCOD9481704 Si02
#       8
#    16   4  16  16  16  16  16  16
#     4  11  21  40  65  88 122 166 220 262 312 376
#     4  12  28  44  60  88 128 172 208 268 314 370
#     4   9  21  39  61  91 126 167 209 260 317 388
#     4  11  21  36  60  96 124 156 205 259 319 382
#     4  11  20  36  61  90 121 158 201 255 315 377
#     4   9  20  37  59  92 128 158 197 254 331 379
#     4  12  24  42  60  90 121 170 218 260 311 374
#     4  11  20  36  61  95 124 156 205 270 318 379
#
# _framework density 24.455569000000001
#
# number of rings (size 3 to 8) (size 9 to 14) (size 15 to 20)
#    0.000    1.379    4.138    1.655    1.931    2.759 
#    0.000    1.379    3.034    1.655    0.000    0.000 
#    0.000    0.000    0.000    0.000    0.000    0.000 
#
# Total GULP energy -323757.140945 kJ/mol
# GULP energy per Si atom -5582.019671 kJ/mol
# Density = 2.439991 g / cm^3
# Si number density = 24.455569 Si / 1000 Ang^3
#
#
#
# Elastic Constant Matrix: (Units=GPa)
#
#
# Indices 1 2 3 4 5 6 
#
# 1 120.5152 25.9133 60.8991 0.0000 0.0000 0.0000
# 2 25.9133 59.7193 43.4548 0.0000 0.0000 0.0000
# 3 60.8991 43.4548 174.0316 0.0000 0.0000 0.0000
# 4 0.0000 0.0000 0.0000 31.2818 0.0000 0.0000
# 5 0.0000 0.0000 0.0000 0.0000 36.0505 0.0000
# 6 0.0000 0.0000 0.0000 0.0000 0.0000 22.3313
#
#
#
# Elastic Compliance Matrix: (Units=1/GPa)
#
#
# Indices 1 2 3 4 5 6 
#
# 1 0.010324 -0.002262 -0.003048 0.000000 0.000000 0.000000
# 2 -0.002262 0.020959 -0.004442 0.000000 0.000000 0.000000
# 3 -0.003048 -0.004442 0.007922 0.000000 0.000000 0.000000
# 4 0.000000 0.000000 0.000000 0.031968 0.000000 0.000000
# 5 0.000000 0.000000 0.000000 0.000000 0.027739 0.000000
# 6 0.000000 0.000000 0.000000 0.000000 0.000000 0.044780
#
#
# Mechanical properties :
#
#
# Convention : Reuss Voigt Hill
#
# Bulk Modulus (GPa) = 50.75840 68.31117 59.53479
# Shear Modulus (GPa) = 29.45308 32.86598 31.15953
#
# Velocity S-wave (km/s) = 3.47414 3.66991 3.57337
# Velocity P-wave (km/s) = 6.07398 6.77872 6.43601
#
# Compressibility (1/GPa) = 0.01970117
#
# Stress axis : x y z
#
# Youngs Moduli (GPa) = 96.85874 47.71330 126.23502
#
# Poissons Ratio (x) = 0.10793 0.38476
# Poissons Ratio (y) = 0.21910 0.56070
# Poissons Ratio (z) = 0.29522 0.21193
#
# Static dielectric constant tensor:
#      x y z
#    x 1.913260 0.000000 0.000000 
#    y 0.000000 1.966810 0.000000 
#    z 0.000000 0.000000 1.998640 
# 
# From -- ./inp_files/16472.got.cif
#   From: 2010.05.17/outbox.cif.g08.bks.cpg/sg64_9_cif.got.tgz:16472.got - 2010.06.03 16:29:19.
