data_PCOD9481826
_publ_section_title
;
Structure prediction by ZEFSAII (Michael W. Deem and Ramdas Pophale) SiO2 
 PCOD9481826
Probable space group: C M C A
;
_chemical_formula_sum "Si O2"
_cell_formula_units_Z 80
_cell_length_a 7.789687
_cell_length_b 26.460314
_cell_length_c 21.553452
_cell_angle_alpha 90.000000
_cell_angle_beta 90.000000
_cell_angle_gamma 90.000000
_cell_volume 4442.545022
_symmetry_space_group_name_H-M "C M C A"
_symmetry_group_IT_number 64
_symmetry_cell_setting 'orthorhombic'
loop_
_space_group_symop_operation_xyz
x,y,z
-x,1/2-y,1/2+z
x,-y,-z
-x,1/2+y,1/2-z
-x,-y,-z
x,1/2+y,1/2-z
-x,y,z
x,1/2-y,1/2+z
1/2+x,1/2+y,z
1/2-x,-y,1/2+z
1/2+x,1/2-y,-z
1/2-x,y,1/2-z
1/2-x,1/2-y,-z
1/2+x,y,1/2-z
1/2-x,1/2+y,z
1/2+x,-y,1/2+z
loop_
_atom_site_type_symbol
_atom_site_label
_atom_site_fract_x
_atom_site_fract_y
_atom_site_fract_z
Si Si1 0.705948 0.037419 0.086928
Si Si2 0.291010 0.709579 0.084645
Si Si3 0.204447 0.681293 0.943752
Si Si4 0.702552 0.374912 0.821736
Si Si5 0.789677 0.429082 0.050315
O O1 0.500000 0.035907 0.083791
O O2 0.752812 0.072984 0.143738
O O3 0.765582 0.979158 0.087354
O O4 0.763754 0.061820 0.021405
O O5 0.500000 0.710134 0.084870
O O6 0.229670 0.767760 0.089029
O O7 0.225512 0.671754 0.137567
O O8 0.235454 0.689458 0.017180
O O9 0.272048 0.625650 0.927274
O O10 0.000000 0.680268 0.933421
O O11 0.500000 0.369636 0.824990
O O12 0.750000 0.374221 0.750000
O O13 0.000000 0.428140 0.050749
#
# Coordination Sequence:
#
# PCOD9481826 Si02
#       5
#    16  16  16  16  16
#     4   9  16  29  47  70  95 122 157 189 224 277
#     4   9  18  29  43  68  96 119 153 193 231 271
#     4   9  15  27  48  70  94 123 149 183 231 281
#     4  11  22  34  47  66  93 126 161 196 230 271
#     4   8  14  25  47  73  96 121 150 184 228 281
#
# _framework density 18.007694999999998
#
# number of rings (size 3 to 8) (size 9 to 14) (size 15 to 20)
#    0.000    2.800    2.000    1.800    0.000    0.800 
#    0.000    3.000    0.000    1.200    0.000    2.800 
#    0.000    0.000    0.000    0.000    0.000    0.000 
#
# Total GULP energy -222825.761849 kJ/mol
# GULP energy per Si atom -5570.644046 kJ/mol
# Density = 1.796671 g / cm^3
# Si number density = 18.007695 Si / 1000 Ang^3
#
#
#
# Elastic Constant Matrix: (Units=GPa)
#
#
# Indices 1 2 3 4 5 6 
#
# 1 17.4686 2.0277 -5.9932 0.0000 0.0000 0.0000
# 2 2.0277 200.0726 67.3226 0.0000 0.0000 0.0000
# 3 -5.9932 67.3226 82.0375 0.0000 0.0000 0.0000
# 4 0.0000 0.0000 0.0000 26.9974 0.0000 0.0000
# 5 0.0000 0.0000 0.0000 0.0000 10.3382 0.0000
# 6 0.0000 0.0000 0.0000 0.0000 0.0000 11.8149
#
#
#
# Elastic Compliance Matrix: (Units=1/GPa)
#
#
# Indices 1 2 3 4 5 6 
#
# 1 0.059889 -0.002872 0.006732 0.000000 0.000000 0.000000
# 2 -0.002872 0.007043 -0.005989 0.000000 0.000000 0.000000
# 3 0.006732 -0.005989 0.017596 0.000000 0.000000 0.000000
# 4 0.000000 0.000000 0.000000 0.037041 0.000000 0.000000
# 5 0.000000 0.000000 0.000000 0.000000 0.096729 0.000000
# 6 0.000000 0.000000 0.000000 0.000000 0.000000 0.084639
#
#
# Mechanical properties :
#
#
# Convention : Reuss Voigt Hill
#
# Bulk Modulus (GPa) = 12.45808 47.36588 29.91198
# Shear Modulus (GPa) = 14.97227 25.57822 20.27525
#
# Velocity S-wave (km/s) = 2.88659 3.77291 3.35912
# Velocity P-wave (km/s) = 4.24772 6.73350 5.62953
#
# Compressibility (1/GPa) = 0.08026918
#
# Stress axis : x y z
#
# Youngs Moduli (GPa) = 16.69762 141.99256 56.83001
#
# Poissons Ratio (x) = 0.40785 -0.38260
# Poissons Ratio (y) = 0.04796 0.34037
# Poissons Ratio (z) = -0.11241 0.85043
#
# Static dielectric constant tensor:
#      x y z
#    x 1.649500 0.000000 0.000000 
#    y 0.000000 1.694290 0.000000 
#    z 0.000000 0.000000 1.518560 
# 
# From -- ./inp_files/29707.got.cif
#   From: 2010.05.17/outbox.cif.g08.bks.cpg/sg64_15_cif.got.tgz:29707.got - 2010.06.03 16:29:19.
