data_PCOD9481428
_publ_section_title
;
Structure prediction by ZEFSAII (Michael W. Deem and Ramdas Pophale) SiO2 
 PCOD9481428
Probable space group: C M C A
;
_chemical_formula_sum "Si O2"
_cell_formula_units_Z 112
_cell_length_a 14.335729
_cell_length_b 15.415790
_cell_length_c 22.276620
_cell_angle_alpha 90.000000
_cell_angle_beta 90.000000
_cell_angle_gamma 90.000000
_cell_volume 4923.057007
_symmetry_space_group_name_H-M "C M C A"
_symmetry_group_IT_number 64
_symmetry_cell_setting 'orthorhombic'
loop_
_space_group_symop_operation_xyz
x,y,z
-x,1/2-y,1/2+z
x,-y,-z
-x,1/2+y,1/2-z
-x,-y,-z
x,1/2+y,1/2-z
-x,y,z
x,1/2-y,1/2+z
1/2+x,1/2+y,z
1/2-x,-y,1/2+z
1/2+x,1/2-y,-z
1/2-x,y,1/2-z
1/2-x,1/2-y,-z
1/2+x,y,1/2-z
1/2-x,1/2+y,z
1/2+x,-y,1/2+z
loop_
_atom_site_type_symbol
_atom_site_label
_atom_site_fract_x
_atom_site_fract_y
_atom_site_fract_z
Si Si1 0.144927 0.303415 0.744630
Si Si2 0.391561 0.077301 0.900131
Si Si3 0.890308 0.894020 0.266059
Si Si4 0.740949 0.431133 0.566144
Si Si5 0.607012 0.530811 0.166387
Si Si6 0.605268 0.714993 0.382972
Si Si7 0.729093 0.327378 0.045710
O O1 0.250000 0.334742 0.750000
O O2 0.147782 0.202950 0.723788
O O3 0.102063 0.376425 0.701654
O O4 0.103478 0.294584 0.811326
O O5 0.500000 0.092287 0.913860
O O6 0.382566 0.057568 0.829470
O O7 0.323540 0.156074 0.917044
O O8 0.344660 0.998298 0.934482
O O9 0.000000 0.880575 0.254526
O O10 0.857003 0.955605 0.212279
O O11 0.821454 0.461041 0.611621
O O12 0.686135 0.349208 0.594722
O O13 0.783612 0.405280 0.501765
O O14 0.500000 0.510201 0.148687
O O15 0.500000 0.697760 0.405435
O O16 0.644121 0.805885 0.409702
O O17 0.750000 0.250000 0.000000
#
# Coordination Sequence:
#
# PCOD9481428 Si02
#       7
#    16  16  16  16  16  16  16
#     4  12  23  40  68  99 141 182 232 297 356 422
#     4  11  24  44  72 101 136 178 230 295 352 408
#     4  10  24  41  64 102 138 177 232 283 351 433
#     4  11  24  44  68 100 140 180 236 292 344 427
#     4  11  25  44  68 104 147 189 232 291 364 434
#     4  11  23  42  67  96 134 182 234 290 351 415
#     4  10  25  44  63  98 135 176 236 286 340 414
#
# _framework density 22.750093
#
# number of rings (size 3 to 8) (size 9 to 14) (size 15 to 20)
#    0.000    1.143    1.429    3.857    6.000    5.143 
#    0.000    0.000    0.000    1.714    0.000    0.000 
#    0.000    0.000    0.000    0.000    0.000    0.000 
#
# Total GULP energy -312670.056256 kJ/mol
# GULP energy per Si atom -5583.393862 kJ/mol
# Density = 2.269831 g / cm^3
# Si number density = 22.750093 Si / 1000 Ang^3
#
#
#
# Elastic Constant Matrix: (Units=GPa)
#
#
# Indices 1 2 3 4 5 6 
#
# 1 121.5463 -6.8599 39.9757 0.0000 0.0000 0.0000
# 2 -6.8599 56.1979 9.4825 0.0000 0.0000 0.0000
# 3 39.9757 9.4825 104.5790 0.0000 0.0000 0.0000
# 4 0.0000 0.0000 0.0000 37.4776 0.0000 0.0000
# 5 0.0000 0.0000 0.0000 0.0000 13.5373 0.0000
# 6 0.0000 0.0000 0.0000 0.0000 0.0000 28.8640
#
#
#
# Elastic Compliance Matrix: (Units=1/GPa)
#
#
# Indices 1 2 3 4 5 6 
#
# 1 0.009590 0.001817 -0.003830 0.000000 0.000000 0.000000
# 2 0.001817 0.018415 -0.002364 0.000000 0.000000 0.000000
# 3 -0.003830 -0.002364 0.011241 0.000000 0.000000 0.000000
# 4 0.000000 0.000000 0.000000 0.026683 0.000000 0.000000
# 5 0.000000 0.000000 0.000000 0.000000 0.073870 0.000000
# 6 0.000000 0.000000 0.000000 0.000000 0.000000 0.034645
#
#
# Mechanical properties :
#
#
# Convention : Reuss Voigt Hill
#
# Bulk Modulus (GPa) = 32.79785 40.83553 36.81669
# Shear Modulus (GPa) = 25.85820 31.95743 28.90782
#
# Velocity S-wave (km/s) = 3.37504 3.75202 3.56851
# Velocity P-wave (km/s) = 5.44387 6.06290 5.76171
#
# Compressibility (1/GPa) = 0.03048980
#
# Stress axis : x y z
#
# Youngs Moduli (GPa) = 104.27895 54.30360 88.96230
#
# Poissons Ratio (x) = -0.09866 0.34076
# Poissons Ratio (y) = -0.18946 0.21033
# Poissons Ratio (z) = 0.39943 0.12839
#
# Static dielectric constant tensor:
#      x y z
#    x 1.855560 0.000000 0.000000 
#    y 0.000000 2.021580 0.000000 
#    z 0.000000 0.000000 1.873430 
# 
# From -- ./inp_files/45309.got.cif
#   From: 2010.05.17/outbox.cif.g08.bks.cpg/sg64_23_cif.got.tgz:45309.got - 2010.06.03 16:29:19.
