data_PCOD9481073
_publ_section_title
;
Structure prediction by ZEFSAII (Michael W. Deem and Ramdas Pophale) SiO2 
 PCOD9481073
Probable space group: C M C A
;
_chemical_formula_sum "Si O2"
_cell_formula_units_Z 64
_cell_length_a 20.067813
_cell_length_b 14.491702
_cell_length_c 9.179427
_cell_angle_alpha 90.000000
_cell_angle_beta 90.000000
_cell_angle_gamma 90.000000
_cell_volume 2669.531272
_symmetry_space_group_name_H-M "C M C A"
_symmetry_group_IT_number 64
_symmetry_cell_setting 'orthorhombic'
loop_
_space_group_symop_operation_xyz
x,y,z
-x,1/2-y,1/2+z
x,-y,-z
-x,1/2+y,1/2-z
-x,-y,-z
x,1/2+y,1/2-z
-x,y,z
x,1/2-y,1/2+z
1/2+x,1/2+y,z
1/2-x,-y,1/2+z
1/2+x,1/2-y,-z
1/2-x,y,1/2-z
1/2-x,1/2-y,-z
1/2+x,y,1/2-z
1/2-x,1/2+y,z
1/2+x,-y,1/2+z
loop_
_atom_site_type_symbol
_atom_site_label
_atom_site_fract_x
_atom_site_fract_y
_atom_site_fract_z
Si Si1 0.613708 0.189406 0.389119
Si Si2 0.077152 0.369392 0.285522
Si Si3 0.888435 0.453072 0.860655
Si Si4 0.254571 0.087219 0.413788
O O1 0.585675 0.164967 0.548029
O O2 0.595908 0.288761 0.327028
O O3 0.588208 0.122183 0.257759
O O4 0.693476 0.170739 0.410388
O O5 0.120628 0.458281 0.244570
O O6 0.000000 0.395510 0.267269
O O7 0.824453 0.403773 0.940386
O O8 0.924687 0.500000 0.000000
O O9 0.250000 0.054564 0.250000
O O10 0.281156 0.000000 0.500000
#
# Coordination Sequence:
#
# PCOD9481073 Si02
#       4
#    16  16  16  16
#     4  11  23  43  66  97 134 175 227 278 334 395
#     4  12  26  43  67  98 137 185 229 273 329 402
#     4  10  22  43  68  99 134 174 221 276 341 400
#     4   9  18  38  64  93 129 165 213 271 331 391
#
# _framework density 23.974246000000001
#
# number of rings (size 3 to 8) (size 9 to 14) (size 15 to 20)
#    0.000    1.500    0.000    6.000    0.000    3.500 
#    0.000   42.500    0.000    0.000    0.000    0.000 
#    0.000    0.000    0.000    0.000    0.000    0.000 
#
# Total GULP energy -178246.988357 kJ/mol
# GULP energy per Si atom -5570.218386 kJ/mol
# Density = 2.391968 g / cm^3
# Si number density = 23.974246 Si / 1000 Ang^3
#
#
#
# Elastic Constant Matrix: (Units=GPa)
#
#
# Indices 1 2 3 4 5 6 
#
# 1 123.3338 8.3305 22.0990 0.0000 0.0000 0.0000
# 2 8.3305 63.6078 -4.6651 0.0000 0.0000 0.0000
# 3 22.0990 -4.6651 120.8065 0.0000 0.0000 0.0000
# 4 0.0000 0.0000 0.0000 53.0804 0.0000 0.0000
# 5 0.0000 0.0000 0.0000 0.0000 13.4859 0.0000
# 6 0.0000 0.0000 0.0000 0.0000 0.0000 15.6902
#
#
#
# Elastic Compliance Matrix: (Units=1/GPa)
#
#
# Indices 1 2 3 4 5 6 
#
# 1 0.008477 -0.001227 -0.001598 0.000000 0.000000 0.000000
# 2 -0.001227 0.015944 0.000840 0.000000 0.000000 0.000000
# 3 -0.001598 0.000840 0.008602 0.000000 0.000000 0.000000
# 4 0.000000 0.000000 0.000000 0.018839 0.000000 0.000000
# 5 0.000000 0.000000 0.000000 0.000000 0.074151 0.000000
# 6 0.000000 0.000000 0.000000 0.000000 0.000000 0.063734
#
#
# Mechanical properties :
#
#
# Convention : Reuss Voigt Hill
#
# Bulk Modulus (GPa) = 34.42013 39.91968 37.16991
# Shear Modulus (GPa) = 24.58170 35.25022 29.91596
#
# Velocity S-wave (km/s) = 3.20556 3.83866 3.53631
# Velocity P-wave (km/s) = 5.29992 6.02779 5.67554
#
# Compressibility (1/GPa) = 0.02905276
#
# Stress axis : x y z
#
# Youngs Moduli (GPa) = 117.96152 62.72063 116.24534
#
# Poissons Ratio (x) = 0.07699 0.18578
# Poissons Ratio (y) = 0.14479 -0.09767
# Poissons Ratio (z) = 0.18852 -0.05270
#
# Static dielectric constant tensor:
#      x y z
#    x 2.314490 0.000000 0.000000 
#    y 0.000000 1.896160 0.000000 
#    z 0.000000 0.000000 1.911410 
# 
# From -- ./inp_files/8937.got.cif
#   From: 2010.05.17/outbox.cif.g08.bks.cpg/sg64_5_cif.got.tgz:8937.got - 2010.06.03 16:29:19.
