data_PCOD9481297
_publ_section_title
;
Structure prediction by ZEFSAII (Michael W. Deem and Ramdas Pophale) SiO2 
 PCOD9481297
Probable space group: C M C A
;
_chemical_formula_sum "Si O2"
_cell_formula_units_Z 116
_cell_length_a 18.116854
_cell_length_b 14.961316
_cell_length_c 24.300304
_cell_angle_alpha 90.000000
_cell_angle_beta 90.000000
_cell_angle_gamma 90.000000
_cell_volume 6586.645456
_symmetry_space_group_name_H-M "C M C A"
_symmetry_group_IT_number 64
_symmetry_cell_setting 'orthorhombic'
loop_
_space_group_symop_operation_xyz
x,y,z
-x,1/2-y,1/2+z
x,-y,-z
-x,1/2+y,1/2-z
-x,-y,-z
x,1/2+y,1/2-z
-x,y,z
x,1/2-y,1/2+z
1/2+x,1/2+y,z
1/2-x,-y,1/2+z
1/2+x,1/2-y,-z
1/2-x,y,1/2-z
1/2-x,1/2-y,-z
1/2+x,y,1/2-z
1/2-x,1/2+y,z
1/2+x,-y,1/2+z
loop_
_atom_site_type_symbol
_atom_site_label
_atom_site_fract_x
_atom_site_fract_y
_atom_site_fract_z
Si Si1 0.162790 0.738770 0.111962
Si Si2 0.411840 0.396463 0.176796
Si Si3 0.500000 0.000000 0.000000
Si Si4 0.418141 0.186230 1.000000
Si Si5 0.837210 0.238770 0.611962
Si Si6 0.913657 0.606851 0.194737
Si Si7 0.411840 0.603537 0.176796
Si Si8 0.913657 0.893148 0.305263
O O1 0.129283 0.829476 0.136986
O O2 0.125661 0.714313 0.054160
O O3 0.250000 0.750000 0.107062
O O4 0.138780 0.661621 0.154890
O O5 0.500000 0.388760 0.169244
O O6 0.391281 0.500000 0.168238
O O7 0.397735 0.374292 0.241125
O O8 0.436857 0.080347 1.000000
O O9 0.500000 0.229774 0.000000
O O10 0.374339 0.214313 0.945840
O O11 0.870717 0.329477 0.636986
O O12 0.861220 0.161622 0.654890
O O13 0.897735 0.625707 0.258875
O O14 0.907557 0.500000 0.186592
O O15 0.000000 0.630904 0.183887
O O16 0.500000 0.611239 0.169244
O O17 0.000000 0.869095 0.316113
#
# Coordination Sequence:
#
# PCOD9481297 Si02
#       8
#    16  16   4  16  16  16  16  16
#     4  12  24  36  56  86 124 152 182 232 303 358
#     4   9  19  38  58  83 115 157 204 239 271 332
#     4   8  24  44  72  92  94 140 202 268 284 322
#     4  10  23  43  65  86 107 138 196 244 288 335
#     4  12  24  36  56  86 124 152 182 232 303 358
#     4   9  19  35  61  87 113 152 204 249 281 321
#     4   9  19  38  58  83 115 157 204 239 271 332
#     4   9  19  35  61  87 113 152 204 249 281 321
#
# _framework density 17.611391999999999
#
# number of rings (size 3 to 8) (size 9 to 14) (size 15 to 20)
#    0.414    1.655    0.000    5.379    1.931    5.517 
#    0.000    3.448    0.000    2.483    0.000    0.000 
#    0.000    0.000    0.000    0.000    0.000    0.000 
#
# Total GULP energy -323258.446307 kJ/mol
# GULP energy per Si atom -5573.421488 kJ/mol
# Density = 1.757131 g / cm^3
# Si number density = 17.611392 Si / 1000 Ang^3
#
#
#
# Elastic Constant Matrix: (Units=GPa)
#
#
# Indices 1 2 3 4 5 6 
#
# 1 123.1660 79.2987 101.1693 0.0000 0.0000 0.0000
# 2 79.2987 99.4833 92.9538 0.0000 0.0000 0.0000
# 3 101.1693 92.9538 134.1031 0.0000 0.0000 0.0000
# 4 0.0000 0.0000 0.0000 32.0022 0.0000 0.0000
# 5 0.0000 0.0000 0.0000 0.0000 85.2572 0.0000
# 6 0.0000 0.0000 0.0000 0.0000 0.0000 -28.0343
#
#
#
# Elastic Compliance Matrix: (Units=1/GPa)
#
#
# Indices 1 2 3 4 5 6 
#
# 1 0.022501 -0.005888 -0.012894 0.000000 0.000000 0.000000
# 2 -0.005888 0.030070 -0.016401 0.000000 0.000000 0.000000
# 3 -0.012894 -0.016401 0.028552 0.000000 0.000000 0.000000
# 4 0.000000 0.000000 0.000000 0.031248 0.000000 0.000000
# 5 0.000000 0.000000 0.000000 0.000000 0.011729 0.000000
# 6 0.000000 0.000000 0.000000 0.000000 0.000000 -0.035671
#
#
# Mechanical properties :
#
#
# Convention : Reuss Voigt Hill
#
# Bulk Modulus (GPa) = 92.95558 100.39955 96.67757
# Shear Modulus (GPa) = 30.79167 23.40039 27.09603
#
# Velocity S-wave (km/s) = 4.18592 3.64910 3.92669
# Velocity P-wave (km/s) = 8.73262 8.65371 8.69325
#
# Compressibility (1/GPa) = 0.01075783
#
# Stress axis : x y z
#
# Youngs Moduli (GPa) = 44.44191 33.25584 35.02344
#
# Poissons Ratio (x) = 0.19583 0.45158
# Poissons Ratio (y) = 0.26169 0.57441
# Poissons Ratio (z) = 0.57302 0.54542
#
# Static dielectric constant tensor:
#      x y z
#    x 1.583340 0.000000 0.000000 
#    y 0.000000 1.598850 0.000000 
#    z 0.000000 0.000000 1.588800 
# 
# From -- ./inp_files/45906.got.cif
#   From: 2010.05.17/outbox.cif.g08.bks.cpg/sg64_23_cif.got.tgz:45906.got - 2010.06.03 16:29:19.
