data_PCOD9481779
_publ_section_title
;
Structure prediction by ZEFSAII (Michael W. Deem and Ramdas Pophale) SiO2 
 PCOD9481779
Probable space group: C M C A
;
_chemical_formula_sum "Si O2"
_cell_formula_units_Z 116
_cell_length_a 27.301948
_cell_length_b 9.085467
_cell_length_c 23.738468
_cell_angle_alpha 90.000000
_cell_angle_beta 90.000000
_cell_angle_gamma 90.000000
_cell_volume 5888.349482
_symmetry_space_group_name_H-M "C M C A"
_symmetry_group_IT_number 64
_symmetry_cell_setting 'orthorhombic'
loop_
_space_group_symop_operation_xyz
x,y,z
-x,1/2-y,1/2+z
x,-y,-z
-x,1/2+y,1/2-z
-x,-y,-z
x,1/2+y,1/2-z
-x,y,z
x,1/2-y,1/2+z
1/2+x,1/2+y,z
1/2-x,-y,1/2+z
1/2+x,1/2-y,-z
1/2-x,y,1/2-z
1/2-x,1/2-y,-z
1/2+x,y,1/2-z
1/2-x,1/2+y,z
1/2+x,-y,1/2+z
loop_
_atom_site_type_symbol
_atom_site_label
_atom_site_fract_x
_atom_site_fract_y
_atom_site_fract_z
Si Si1 0.943373 0.489784 0.405530
Si Si2 0.675471 0.127311 0.037849
Si Si3 0.078603 0.736889 0.499609
Si Si4 0.333158 0.415308 0.367874
Si Si5 0.803954 0.115911 0.272626
Si Si6 0.855264 0.900382 0.844718
Si Si7 0.500000 0.000000 0.000000
Si Si8 0.718587 0.844592 0.373774
O O1 0.931990 0.341377 0.440091
O O2 0.932760 0.617466 0.451510
O O3 0.906200 0.516188 0.354190
O O4 0.000000 0.493327 0.389154
O O5 0.634999 0.213016 0.002308
O O6 0.707883 0.242384 0.072309
O O7 0.648832 0.033249 0.086936
O O8 0.700369 0.000000 0.000000
O O9 0.042754 0.873091 0.492734
O O10 0.332633 0.491547 0.307153
O O11 0.358751 0.259683 0.372522
O O12 0.275066 0.387689 0.375857
O O13 0.750000 0.069601 0.250000
O O14 0.836110 0.140336 0.217381
O O15 0.793912 0.249023 0.317069
O O16 0.814553 0.009013 0.871716
#
# Coordination Sequence:
#
# PCOD9481779 Si02
#       8
#    16  16  16  16  16  16   4  16
#     4  11  23  42  62  92 126 166 213 259 314 385
#     4  11  23  39  56  87 133 165 205 254 316 379
#     4  11  21  39  64  92 123 160 210 265 311 368
#     4  11  23  38  61  92 126 165 215 263 314 379
#     4  11  21  38  64  90 123 156 213 272 313 366
#     4  12  22  35  63  94 122 162 205 270 322 365
#     4  12  20  34  72  92 108 154 208 268 324 342
#     4  11  22  39  59  90 125 167 212 257 318 380
#
# _framework density 19.699918
#
# number of rings (size 3 to 8) (size 9 to 14) (size 15 to 20)
#    0.000    0.828    6.207    2.897    0.000    0.552 
#    0.000    1.379    0.000    3.310    3.586    0.000 
#    0.000    0.000    0.000    0.000    0.000    0.000 
#
# Total GULP energy -323409.245095 kJ/mol
# GULP energy per Si atom -5576.021467 kJ/mol
# Density = 1.965508 g / cm^3
# Si number density = 19.699918 Si / 1000 Ang^3
#
#
#
# Elastic Constant Matrix: (Units=GPa)
#
#
# Indices 1 2 3 4 5 6 
#
# 1 43.6820 -28.5900 -0.8086 0.0000 0.0000 0.0000
# 2 -28.5900 61.9441 -5.6480 0.0000 0.0000 0.0000
# 3 -0.8086 -5.6480 65.1948 0.0000 0.0000 0.0000
# 4 0.0000 0.0000 0.0000 20.0315 0.0000 0.0000
# 5 0.0000 0.0000 0.0000 0.0000 18.1081 0.0000
# 6 0.0000 0.0000 0.0000 0.0000 0.0000 21.8314
#
#
#
# Elastic Compliance Matrix: (Units=1/GPa)
#
#
# Indices 1 2 3 4 5 6 
#
# 1 0.032997 0.015388 0.001742 0.000000 0.000000 0.000000
# 2 0.015388 0.023449 0.002222 0.000000 0.000000 0.000000
# 3 0.001742 0.002222 0.015553 0.000000 0.000000 0.000000
# 4 0.000000 0.000000 0.000000 0.049921 0.000000 0.000000
# 5 0.000000 0.000000 0.000000 0.000000 0.055224 0.000000
# 6 0.000000 0.000000 0.000000 0.000000 0.000000 0.045806
#
#
# Mechanical properties :
#
#
# Convention : Reuss Voigt Hill
#
# Bulk Modulus (GPa) = 9.03312 11.19199 10.11256
# Shear Modulus (GPa) = 22.60965 25.71869 24.16417
#
# Velocity S-wave (km/s) = 3.39145 3.61712 3.50610
# Velocity P-wave (km/s) = 4.46444 4.81023 4.64056
#
# Compressibility (1/GPa) = 0.11070376
#
# Stress axis : x y z
#
# Youngs Moduli (GPa) = 30.30613 42.64651 64.29725
#
# Poissons Ratio (x) = -0.65626 -0.11203
# Poissons Ratio (y) = -0.46636 -0.14288
# Poissons Ratio (z) = -0.05280 -0.09477
#
# Static dielectric constant tensor:
#      x y z
#    x 1.653780 0.000000 0.000000 
#    y 0.000000 1.731710 0.000000 
#    z 0.000000 0.000000 1.753920 
# 
# From -- ./inp_files/47161.got.cif
#   From: 2010.05.17/outbox.cif.g08.bks.cpg/sg64_24_cif.got.tgz:47161.got - 2010.06.03 16:29:19.
