data_PCOD9481315
_publ_section_title
;
Structure prediction by ZEFSAII (Michael W. Deem and Ramdas Pophale) SiO2 
 PCOD9481315
Probable space group: C M C A
;
_chemical_formula_sum "Si O2"
_cell_formula_units_Z 72
_cell_length_a 14.817186
_cell_length_b 27.339475
_cell_length_c 9.287028
_cell_angle_alpha 90.000000
_cell_angle_beta 90.000000
_cell_angle_gamma 90.000000
_cell_volume 3762.120121
_symmetry_space_group_name_H-M "C M C A"
_symmetry_group_IT_number 64
_symmetry_cell_setting 'orthorhombic'
loop_
_space_group_symop_operation_xyz
x,y,z
-x,1/2-y,1/2+z
x,-y,-z
-x,1/2+y,1/2-z
-x,-y,-z
x,1/2+y,1/2-z
-x,y,z
x,1/2-y,1/2+z
1/2+x,1/2+y,z
1/2-x,-y,1/2+z
1/2+x,1/2-y,-z
1/2-x,y,1/2-z
1/2-x,1/2-y,-z
1/2+x,y,1/2-z
1/2-x,1/2+y,z
1/2+x,-y,1/2+z
loop_
_atom_site_type_symbol
_atom_site_label
_atom_site_fract_x
_atom_site_fract_y
_atom_site_fract_z
Si Si1 0.227208 0.941990 0.979654
Si Si2 0.324119 0.281545 0.411112
Si Si3 0.900628 0.704603 0.201275
Si Si4 0.250000 0.375123 0.250000
Si Si5 0.889828 0.092871 0.283950
O O1 0.149622 0.930104 0.862526
O O2 0.325540 0.927583 0.911667
O O3 0.210368 0.911477 0.127185
O O4 0.227779 0.000000 0.000000
O O5 0.250000 0.250000 0.500000
O O6 0.349137 0.247641 0.278791
O O7 0.400042 0.287701 0.531177
O O8 0.303285 0.335287 0.348600
O O9 0.865427 0.650316 0.227421
O O10 0.000000 0.705590 0.263378
O O11 0.000000 0.087799 0.301637
#
# Coordination Sequence:
#
# PCOD9481315 Si02
#       5
#    16  16  16   8  16
#     4  11  24  44  68  93 124 166 219 271 325 377
#     4  12  22  37  61  91 123 169 207 250 306 379
#     4  11  23  39  59  91 130 165 202 249 306 378
#     4  12  22  38  66  92 126 166 220 266 320 380
#     4  10  23  43  67  92 128 168 207 260 320 380
#
# _framework density 19.138145999999999
#
# number of rings (size 3 to 8) (size 9 to 14) (size 15 to 20)
#    0.000    0.889    4.444    3.333    3.111    0.889 
#    0.000    2.222    0.000    0.000    0.000    0.000 
#    0.000    0.000    0.000    0.000    0.000    0.000 
#
# Total GULP energy -200425.450510 kJ/mol
# GULP energy per Si atom -5567.373625 kJ/mol
# Density = 1.909459 g / cm^3
# Si number density = 19.138146 Si / 1000 Ang^3
#
#
#
# Elastic Constant Matrix: (Units=GPa)
#
#
# Indices 1 2 3 4 5 6 
#
# 1 70.0883 30.3248 13.5357 0.0000 0.0000 0.0000
# 2 30.3248 172.3031 52.7278 0.0000 0.0000 0.0000
# 3 13.5357 52.7278 114.5191 0.0000 0.0000 0.0000
# 4 0.0000 0.0000 0.0000 21.2439 0.0000 0.0000
# 5 0.0000 0.0000 0.0000 0.0000 17.6472 0.0000
# 6 0.0000 0.0000 0.0000 0.0000 0.0000 100.9005
#
#
#
# Elastic Compliance Matrix: (Units=1/GPa)
#
#
# Indices 1 2 3 4 5 6 
#
# 1 0.015488 -0.002521 -0.000670 0.000000 0.000000 0.000000
# 2 -0.002521 0.007166 -0.003001 0.000000 0.000000 0.000000
# 3 -0.000670 -0.003001 0.010193 0.000000 0.000000 0.000000
# 4 0.000000 0.000000 0.000000 0.047072 0.000000 0.000000
# 5 0.000000 0.000000 0.000000 0.000000 0.056666 0.000000
# 6 0.000000 0.000000 0.000000 0.000000 0.000000 0.009911
#
#
# Mechanical properties :
#
#
# Convention : Reuss Voigt Hill
#
# Bulk Modulus (GPa) = 48.86962 61.12078 54.99520
# Shear Modulus (GPa) = 30.17481 45.31316 37.74398
#
# Velocity S-wave (km/s) = 3.97506 4.87117 4.44575
# Velocity P-wave (km/s) = 6.83072 7.97770 7.42638
#
# Compressibility (1/GPa) = 0.02046261
#
# Stress axis : x y z
#
# Youngs Moduli (GPa) = 64.56713 139.55065 98.10381
#
# Poissons Ratio (x) = 0.35178 0.06573
# Poissons Ratio (y) = 0.16276 0.29445
# Poissons Ratio (z) = 0.04326 0.41885
#
# Static dielectric constant tensor:
#      x y z
#    x 1.729710 0.000000 0.000000 
#    y 0.000000 1.667920 0.000000 
#    z 0.000000 0.000000 1.760830 
# 
# From -- ./inp_files/5837.got.cif
#   From: 2010.05.17/outbox.cif.g08.bks.cpg/sg64_3_cif.got.tgz:5837.got - 2010.06.03 16:29:19.
