data_PCOD9481972
_publ_section_title
;
Structure prediction by ZEFSAII (Michael W. Deem and Ramdas Pophale) SiO2 
 PCOD9481972
Probable space group: C M C A
;
_chemical_formula_sum "Si O2"
_cell_formula_units_Z 96
_cell_length_a 23.449144
_cell_length_b 13.214132
_cell_length_c 13.957410
_cell_angle_alpha 90.000000
_cell_angle_beta 90.000000
_cell_angle_gamma 90.000000
_cell_volume 4324.844236
_symmetry_space_group_name_H-M "C M C A"
_symmetry_group_IT_number 64
_symmetry_cell_setting 'orthorhombic'
loop_
_space_group_symop_operation_xyz
x,y,z
-x,1/2-y,1/2+z
x,-y,-z
-x,1/2+y,1/2-z
-x,-y,-z
x,1/2+y,1/2-z
-x,y,z
x,1/2-y,1/2+z
1/2+x,1/2+y,z
1/2-x,-y,1/2+z
1/2+x,1/2-y,-z
1/2-x,y,1/2-z
1/2-x,1/2-y,-z
1/2+x,y,1/2-z
1/2-x,1/2+y,z
1/2+x,-y,1/2+z
loop_
_atom_site_type_symbol
_atom_site_label
_atom_site_fract_x
_atom_site_fract_y
_atom_site_fract_z
Si Si1 0.181126 0.390944 0.616335
Si Si2 0.886930 0.216657 0.946336
Si Si3 0.500000 0.499441 0.337050
Si Si4 0.197613 0.606386 0.031559
Si Si5 0.108888 0.439360 0.278595
Si Si6 0.000000 0.169830 0.498675
Si Si7 0.298553 0.176051 0.825093
O O1 0.147720 0.354224 0.520892
O O2 0.246612 0.418261 0.593212
O O3 0.147338 0.480194 0.665550
O O4 0.184564 0.292724 0.683546
O O5 0.845910 0.312875 0.924206
O O6 0.903129 0.151146 0.853647
O O7 0.943413 0.261779 0.995225
O O8 0.445481 0.490856 0.268511
O O9 0.500000 0.598340 0.404100
O O10 0.500000 0.403795 0.409714
O O11 0.169918 0.500000 0.000000
O O12 0.220314 0.658572 0.933848
O O13 0.146840 0.391515 0.194873
O O14 0.250000 0.150046 0.750000
#
# Coordination Sequence:
#
# PCOD9481972 Si02
#       7
#    16  16   8  16  16   8  16
#     4  11  24  44  67 102 145 189 226 285 355 423
#     4  11  24  45  73  98 143 185 232 283 355 417
#     4  11  27  49  70 103 133 177 235 287 351 417
#     4  11  23  41  68  99 142 193 229 278 352 420
#     4  12  26  45  71 106 138 177 239 294 345 412
#     4  11  27  49  74  97 134 184 230 288 356 423
#     4  11  23  39  64 103 139 183 234 289 337 407
#
# _framework density 22.197330999999998
#
# number of rings (size 3 to 8) (size 9 to 14) (size 15 to 20)
#    0.000    0.833    0.000    9.000    7.000    2.667 
#    3.000    1.667    0.000    0.000    0.000    0.000 
#    0.000    0.000    0.000    0.000    0.000    0.000 
#
# Total GULP energy -268903.382271 kJ/mol
# GULP energy per Si atom -5602.153797 kJ/mol
# Density = 2.214681 g / cm^3
# Si number density = 22.197331 Si / 1000 Ang^3
#
#
#
# Elastic Constant Matrix: (Units=GPa)
#
#
# Indices 1 2 3 4 5 6 
#
# 1 65.7013 -2.6004 -0.3625 0.0000 0.0000 0.0000
# 2 -2.6004 90.9840 1.0064 0.0000 0.0000 0.0000
# 3 -0.3625 1.0064 49.4453 0.0000 0.0000 0.0000
# 4 0.0000 0.0000 0.0000 33.2418 0.0000 0.0000
# 5 0.0000 0.0000 0.0000 0.0000 11.1768 0.0000
# 6 0.0000 0.0000 0.0000 0.0000 0.0000 34.4894
#
#
#
# Elastic Compliance Matrix: (Units=1/GPa)
#
#
# Indices 1 2 3 4 5 6 
#
# 1 0.015238 0.000434 0.000103 0.000000 0.000000 0.000000
# 2 0.000434 0.011006 -0.000221 0.000000 0.000000 0.000000
# 3 0.000103 -0.000221 0.020230 0.000000 0.000000 0.000000
# 4 0.000000 0.000000 0.000000 0.030083 0.000000 0.000000
# 5 0.000000 0.000000 0.000000 0.000000 0.089471 0.000000
# 6 0.000000 0.000000 0.000000 0.000000 0.000000 0.028994
#
#
# Mechanical properties :
#
#
# Convention : Reuss Voigt Hill
#
# Bulk Modulus (GPa) = 21.22852 22.46862 21.84857
# Shear Modulus (GPa) = 23.79923 29.65408 26.72665
#
# Velocity S-wave (km/s) = 3.27795 3.65900 3.47370
# Velocity P-wave (km/s) = 4.88988 5.29105 5.09442
#
# Compressibility (1/GPa) = 0.04710645
#
# Stress axis : x y z
#
# Youngs Moduli (GPa) = 65.62473 90.86120 49.43246
#
# Poissons Ratio (x) = -0.03947 -0.00509
# Poissons Ratio (y) = -0.02851 0.01092
# Poissons Ratio (z) = -0.00675 0.02006
#
# Static dielectric constant tensor:
#      x y z
#    x 1.804510 0.000000 0.000000 
#    y 0.000000 1.816350 0.000000 
#    z 0.000000 0.000000 1.839220 
# 
# From -- ./inp_files/26381.got.cif
#   From: 2010.05.17/outbox.cif.g08.bks.cpg/sg64_14_cif.got.tgz:26381.got - 2010.06.03 16:29:19.
