data_PCOD9481068
_publ_section_title
;
Structure prediction by ZEFSAII (Michael W. Deem and Ramdas Pophale) SiO2 
 PCOD9481068
Probable space group: C M C A
;
_chemical_formula_sum "Si O2"
_cell_formula_units_Z 80
_cell_length_a 16.084948
_cell_length_b 26.331535
_cell_length_c 9.204079
_cell_angle_alpha 90.000000
_cell_angle_beta 90.000000
_cell_angle_gamma 90.000000
_cell_volume 3898.308241
_symmetry_space_group_name_H-M "C M C A"
_symmetry_group_IT_number 64
_symmetry_cell_setting 'orthorhombic'
loop_
_space_group_symop_operation_xyz
x,y,z
-x,1/2-y,1/2+z
x,-y,-z
-x,1/2+y,1/2-z
-x,-y,-z
x,1/2+y,1/2-z
-x,y,z
x,1/2-y,1/2+z
1/2+x,1/2+y,z
1/2-x,-y,1/2+z
1/2+x,1/2-y,-z
1/2-x,y,1/2-z
1/2-x,1/2-y,-z
1/2+x,y,1/2-z
1/2-x,1/2+y,z
1/2+x,-y,1/2+z
loop_
_atom_site_type_symbol
_atom_site_label
_atom_site_fract_x
_atom_site_fract_y
_atom_site_fract_z
Si Si1 0.749779 0.101005 0.588067
Si Si2 0.907837 0.555144 0.426642
Si Si3 0.096824 0.790695 0.776552
Si Si4 0.315995 0.713063 0.927584
Si Si5 0.097034 0.101423 0.377756
O O1 0.750000 0.078456 0.750000
O O2 0.672008 0.080700 0.497054
O O3 0.729625 0.160577 0.601946
O O4 0.836134 0.092340 0.503662
O O5 0.910894 0.500000 0.500000
O O6 0.897148 0.560261 0.252551
O O7 0.000000 0.579126 0.454625
O O8 0.145703 0.743378 0.707401
O O9 0.118285 0.843678 0.695334
O O10 0.000000 0.781935 0.753222
O O11 0.116108 0.795955 0.946389
O O12 0.250000 0.750000 0.000000
O O13 0.000000 0.103035 0.425750
#
# Coordination Sequence:
#
# PCOD9481068 Si02
#       5
#    16  16  16  16  16
#     4  12  25  40  64  99 137 184 224 277 336 402
#     4  10  23  45  73 100 128 169 226 288 346 406
#     4  11  23  39  60  88 127 177 227 276 332 394
#     4  12  23  38  58  90 131 174 223 278 327 392
#     4  10  22  43  68  95 132 179 227 279 340 402
#
# _framework density 20.521720999999999
#
# number of rings (size 3 to 8) (size 9 to 14) (size 15 to 20)
#    0.000    1.000    4.000    3.000    0.000    3.200 
#    0.000    0.000    0.000    4.200    0.000    0.000 
#    0.000    0.000    0.000    0.000    0.000    0.000 
#
# Total GULP energy -223425.460028 kJ/mol
# GULP energy per Si atom -5585.636501 kJ/mol
# Density = 2.047501 g / cm^3
# Si number density = 20.521721 Si / 1000 Ang^3
#
#
#
# Elastic Constant Matrix: (Units=GPa)
#
#
# Indices 1 2 3 4 5 6 
#
# 1 122.8144 35.6445 76.9176 0.0000 0.0000 0.0000
# 2 35.6445 53.4961 22.4724 0.0000 0.0000 0.0000
# 3 76.9176 22.4724 135.2592 0.0000 0.0000 0.0000
# 4 0.0000 0.0000 0.0000 26.9621 0.0000 0.0000
# 5 0.0000 0.0000 0.0000 0.0000 35.9229 0.0000
# 6 0.0000 0.0000 0.0000 0.0000 0.0000 20.8987
#
#
#
# Elastic Compliance Matrix: (Units=1/GPa)
#
#
# Indices 1 2 3 4 5 6 
#
# 1 0.014584 -0.006701 -0.007180 0.000000 0.000000 0.000000
# 2 -0.006701 0.023175 -0.000040 0.000000 0.000000 0.000000
# 3 -0.007180 -0.000040 0.011483 0.000000 0.000000 0.000000
# 4 0.000000 0.000000 0.000000 0.037089 0.000000 0.000000
# 5 0.000000 0.000000 0.000000 0.000000 0.027837 0.000000
# 6 0.000000 0.000000 0.000000 0.000000 0.000000 0.047850
#
#
# Mechanical properties :
#
#
# Convention : Reuss Voigt Hill
#
# Bulk Modulus (GPa) = 46.72942 64.62650 55.67796
# Shear Modulus (GPa) = 25.38160 28.52575 26.95368
#
# Velocity S-wave (km/s) = 3.52066 3.73235 3.62805
# Velocity P-wave (km/s) = 6.27270 7.08054 6.68883
#
# Compressibility (1/GPa) = 0.02139980
#
# Stress axis : x y z
#
# Youngs Moduli (GPa) = 68.56767 43.15079 87.08586
#
# Poissons Ratio (x) = 0.28916 0.62529
# Poissons Ratio (y) = 0.45949 0.00344
# Poissons Ratio (z) = 0.49233 0.00171
#
# Static dielectric constant tensor:
#      x y z
#    x 1.722520 0.000000 0.000000 
#    y 0.000000 1.727600 0.000000 
#    z 0.000000 0.000000 1.708940 
# 
# From -- ./inp_files/7108.got.cif
#   From: 2010.05.17/outbox.cif.g08.bks.cpg/sg64_4_cif.got.tgz:7108.got - 2010.06.03 16:29:19.
