data_PCOD9481401
_publ_section_title
;
Structure prediction by ZEFSAII (Michael W. Deem and Ramdas Pophale) SiO2 
 PCOD9481401
Probable space group: C M C A
;
_chemical_formula_sum "Si O2"
_cell_formula_units_Z 88
_cell_length_a 14.753128
_cell_length_b 29.533180
_cell_length_c 9.785318
_cell_angle_alpha 90.000000
_cell_angle_beta 90.000000
_cell_angle_gamma 90.000000
_cell_volume 4263.529444
_symmetry_space_group_name_H-M "C M C A"
_symmetry_group_IT_number 64
_symmetry_cell_setting 'orthorhombic'
loop_
_space_group_symop_operation_xyz
x,y,z
-x,1/2-y,1/2+z
x,-y,-z
-x,1/2+y,1/2-z
-x,-y,-z
x,1/2+y,1/2-z
-x,y,z
x,1/2-y,1/2+z
1/2+x,1/2+y,z
1/2-x,-y,1/2+z
1/2+x,1/2-y,-z
1/2-x,y,1/2-z
1/2-x,1/2-y,-z
1/2+x,y,1/2-z
1/2-x,1/2+y,z
1/2+x,-y,1/2+z
loop_
_atom_site_type_symbol
_atom_site_label
_atom_site_fract_x
_atom_site_fract_y
_atom_site_fract_z
Si Si1 0.108412 0.274948 0.812124
Si Si2 0.500000 0.951785 0.921338
Si Si3 0.891520 0.196064 0.616780
Si Si4 0.320638 0.896947 0.015182
Si Si5 0.500000 0.489466 0.162084
Si Si6 0.193842 0.971410 0.136819
Si Si7 0.750000 0.349011 0.750000
O O1 0.128211 0.278106 0.973515
O O2 0.135459 0.227798 0.742499
O O3 0.163337 0.315663 0.741799
O O4 0.000000 0.280904 0.794062
O O5 0.410610 0.923565 0.963552
O O6 0.500000 0.966568 0.760966
O O7 0.500000 0.000000 0.000000
O O8 0.848251 0.146964 0.602302
O O9 0.000000 0.190080 0.623281
O O10 0.266767 0.879155 0.882680
O O11 0.255193 0.928989 0.100503
O O12 0.592690 0.462770 0.189708
O O13 0.500000 0.500000 0.000000
O O14 0.250000 0.998779 0.250000
O O15 0.187283 0.000000 0.000000
#
# Coordination Sequence:
#
# PCOD9481401 Si02
#       7
#    16   8  16  16   8  16   8
#     4   9  19  38  63  88 126 167 205 252 319 376
#     4  12  24  44  72  88 125 177 217 259 330 392
#     4   9  18  39  64  93 126 164 213 256 308 384
#     4  11  23  39  67  97 128 164 220 271 308 395
#     4  10  24  40  64  94 123 167 205 271 326 384
#     4  11  24  44  65  93 128 170 216 269 333 387
#     4  10  24  38  62  98 122 170 216 254 324 384
#
# _framework density 20.640177000000001
#
# number of rings (size 3 to 8) (size 9 to 14) (size 15 to 20)
#    0.000    1.818    0.909    2.727    7.636    2.909 
#    6.545    0.000    0.000    0.000    0.000    0.000 
#    0.000    0.000    0.000    0.000    0.000    0.000 
#
# Total GULP energy -245813.018009 kJ/mol
# GULP energy per Si atom -5586.659500 kJ/mol
# Density = 2.059320 g / cm^3
# Si number density = 20.640177 Si / 1000 Ang^3
#
#
#
# Elastic Constant Matrix: (Units=GPa)
#
#
# Indices 1 2 3 4 5 6 
#
# 1 116.1931 39.5906 33.6910 0.0000 0.0000 0.0000
# 2 39.5906 94.7567 36.2653 0.0000 0.0000 0.0000
# 3 33.6910 36.2653 43.7543 0.0000 0.0000 0.0000
# 4 0.0000 0.0000 0.0000 33.6224 0.0000 0.0000
# 5 0.0000 0.0000 0.0000 0.0000 25.2292 0.0000
# 6 0.0000 0.0000 0.0000 0.0000 0.0000 101.0212
#
#
#
# Elastic Compliance Matrix: (Units=1/GPa)
#
#
# Indices 1 2 3 4 5 6 
#
# 1 0.011345 -0.002046 -0.007040 0.000000 0.000000 0.000000
# 2 -0.002046 0.015825 -0.011541 0.000000 0.000000 0.000000
# 3 -0.007040 -0.011541 0.037842 0.000000 0.000000 0.000000
# 4 0.000000 0.000000 0.000000 0.029742 0.000000 0.000000
# 5 0.000000 0.000000 0.000000 0.000000 0.039637 0.000000
# 6 0.000000 0.000000 0.000000 0.000000 0.000000 0.009899
#
#
# Mechanical properties :
#
#
# Convention : Reuss Voigt Hill
#
# Bulk Modulus (GPa) = 42.09190 52.64423 47.36807
# Shear Modulus (GPa) = 25.84486 41.65171 33.74828
#
# Velocity S-wave (km/s) = 3.54243 4.49708 4.04800
# Velocity P-wave (km/s) = 6.09666 7.24749 6.69684
#
# Compressibility (1/GPa) = 0.02375754
#
# Stress axis : x y z
#
# Youngs Moduli (GPa) = 88.14727 63.19051 26.42594
#
# Poissons Ratio (x) = 0.12926 0.18604
# Poissons Ratio (y) = 0.18032 0.30499
# Poissons Ratio (z) = 0.62055 0.72931
#
# Static dielectric constant tensor:
#      x y z
#    x 1.764080 0.000000 0.000000 
#    y 0.000000 1.712800 0.000000 
#    z 0.000000 0.000000 1.742860 
# 
# From -- ./inp_files/14626.got.cif
#   From: 2010.05.17/outbox.cif.g08.bks.cpg/sg64_8_cif.got.tgz:14626.got - 2010.06.03 16:29:19.
