data_PCOD9481295
_publ_section_title
;
Structure prediction by ZEFSAII (Michael W. Deem and Ramdas Pophale) SiO2 
 PCOD9481295
Probable space group: C M C A
;
_chemical_formula_sum "Si O2"
_cell_formula_units_Z 64
_cell_length_a 13.577727
_cell_length_b 8.037489
_cell_length_c 23.526706
_cell_angle_alpha 90.000000
_cell_angle_beta 90.000000
_cell_angle_gamma 90.000000
_cell_volume 2567.488986
_symmetry_space_group_name_H-M "C M C A"
_symmetry_group_IT_number 64
_symmetry_cell_setting 'orthorhombic'
loop_
_space_group_symop_operation_xyz
x,y,z
-x,1/2-y,1/2+z
x,-y,-z
-x,1/2+y,1/2-z
-x,-y,-z
x,1/2+y,1/2-z
-x,y,z
x,1/2-y,1/2+z
1/2+x,1/2+y,z
1/2-x,-y,1/2+z
1/2+x,1/2-y,-z
1/2-x,y,1/2-z
1/2-x,1/2-y,-z
1/2+x,y,1/2-z
1/2-x,1/2+y,z
1/2+x,-y,1/2+z
loop_
_atom_site_type_symbol
_atom_site_label
_atom_site_fract_x
_atom_site_fract_y
_atom_site_fract_z
Si Si1 0.882621 0.386402 0.111625
Si Si2 0.114816 0.860410 0.163890
Si Si3 0.616972 0.714035 0.226331
Si Si4 0.211463 0.552129 0.434929
O O1 0.854713 0.343873 0.176883
O O2 0.824327 0.543414 0.086927
O O3 0.000000 0.401985 0.107944
O O4 0.845596 0.223452 0.076885
O O5 0.158079 0.730648 0.209912
O O6 0.163387 0.911098 0.105031
O O7 0.000000 0.823498 0.152476
O O8 0.123816 0.031750 0.200171
O O9 0.500000 0.745852 0.233863
O O10 0.206832 0.500000 0.500000
#
# Coordination Sequence:
#
# PCOD9481295 Si02
#       4
#    16  16  16  16
#     4  10  23  43  64  90 127 163 205 267 316 362
#     4   9  18  34  59  90 124 160 202 257 310 366
#     4   8  16  33  56  85 119 155 200 253 313 370
#     4  11  23  41  64  93 127 169 216 252 306 383
#
# _framework density 24.927077000000001
#
# number of rings (size 3 to 8) (size 9 to 14) (size 15 to 20)
#    0.000    2.500    0.000    3.000    0.000    5.500 
#    0.000   10.000    0.000    0.000    0.000    0.000 
#    0.000    0.000    0.000    0.000    0.000    0.000 
#
# Total GULP energy -179086.983714 kJ/mol
# GULP energy per Si atom -5596.468241 kJ/mol
# Density = 2.487034 g / cm^3
# Si number density = 24.927077 Si / 1000 Ang^3
#
#
#
# Elastic Constant Matrix: (Units=GPa)
#
#
# Indices 1 2 3 4 5 6 
#
# 1 135.8654 17.7751 51.2751 0.0000 0.0000 0.0000
# 2 17.7751 90.6215 17.8998 0.0000 0.0000 0.0000
# 3 51.2751 17.8998 138.0281 0.0000 0.0000 0.0000
# 4 0.0000 0.0000 0.0000 23.1537 0.0000 0.0000
# 5 0.0000 0.0000 0.0000 0.0000 18.8438 0.0000
# 6 0.0000 0.0000 0.0000 0.0000 0.0000 27.0948
#
#
#
# Elastic Compliance Matrix: (Units=1/GPa)
#
#
# Indices 1 2 3 4 5 6 
#
# 1 0.008664 -0.001092 -0.003077 0.000000 0.000000 0.000000
# 2 -0.001092 0.011463 -0.001081 0.000000 0.000000 0.000000
# 3 -0.003077 -0.001081 0.008528 0.000000 0.000000 0.000000
# 4 0.000000 0.000000 0.000000 0.043190 0.000000 0.000000
# 5 0.000000 0.000000 0.000000 0.000000 0.053068 0.000000
# 6 0.000000 0.000000 0.000000 0.000000 0.000000 0.036907
#
#
# Mechanical properties :
#
#
# Convention : Reuss Voigt Hill
#
# Bulk Modulus (GPa) = 55.07934 59.82386 57.45160
# Shear Modulus (GPa) = 28.03142 32.32280 30.17711
#
# Velocity S-wave (km/s) = 3.35705 3.60487 3.48316
# Velocity P-wave (km/s) = 6.09676 6.43261 6.26694
#
# Compressibility (1/GPa) = 0.01815563
#
# Stress axis : x y z
#
# Youngs Moduli (GPa) = 115.41577 87.24064 117.25860
#
# Poissons Ratio (x) = 0.09524 0.36081
# Poissons Ratio (y) = 0.12600 0.12675
# Poissons Ratio (z) = 0.35514 0.09430
#
# Static dielectric constant tensor:
#      x y z
#    x 2.047780 0.000000 0.000000 
#    y 0.000000 2.003830 0.000000 
#    z 0.000000 0.000000 1.938020 
# 
# From -- ./inp_files/44780.got.cif
#   From: 2010.05.17/outbox.cif.g08.bks.cpg/sg64_23_cif.got.tgz:44780.got - 2010.06.03 16:29:19.
