data_PCOD9481341
_publ_section_title
;
Structure prediction by ZEFSAII (Michael W. Deem and Ramdas Pophale) SiO2 
 PCOD9481341
Probable space group: C M C A
;
_chemical_formula_sum "Si O2"
_cell_formula_units_Z 64
_cell_length_a 21.650701
_cell_length_b 8.863027
_cell_length_c 15.953082
_cell_angle_alpha 90.000000
_cell_angle_beta 90.000000
_cell_angle_gamma 90.000000
_cell_volume 3061.248830
_symmetry_space_group_name_H-M "C M C A"
_symmetry_group_IT_number 64
_symmetry_cell_setting 'orthorhombic'
loop_
_space_group_symop_operation_xyz
x,y,z
-x,1/2-y,1/2+z
x,-y,-z
-x,1/2+y,1/2-z
-x,-y,-z
x,1/2+y,1/2-z
-x,y,z
x,1/2-y,1/2+z
1/2+x,1/2+y,z
1/2-x,-y,1/2+z
1/2+x,1/2-y,-z
1/2-x,y,1/2-z
1/2-x,1/2-y,-z
1/2+x,y,1/2-z
1/2-x,1/2+y,z
1/2+x,-y,1/2+z
loop_
_atom_site_type_symbol
_atom_site_label
_atom_site_fract_x
_atom_site_fract_y
_atom_site_fract_z
Si Si1 0.213013 0.802591 0.363263
Si Si2 0.073102 0.313541 0.347042
Si Si3 0.829677 0.668029 0.531027
Si Si4 0.149401 0.940896 0.743490
O O1 0.182864 0.780947 0.454892
O O2 0.285168 0.800045 0.388845
O O3 0.189812 0.666255 0.304426
O O4 0.191068 0.953438 0.316486
O O5 0.099997 0.324215 0.440568
O O6 0.102230 0.162563 0.308218
O O7 0.106175 0.450523 0.298719
O O8 0.000000 0.318282 0.341083
O O9 0.813565 0.500000 0.500000
#
# Coordination Sequence:
#
# PCOD9481341 Si02
#       4
#    16  16  16  16
#     4  10  24  43  68  96 132 162 218 268 330 388
#     4  11  24  42  65  94 132 174 220 260 320 391
#     4  11  24  43  65  99 132 172 207 271 331 387
#     4  10  23  44  67  96 127 173 214 273 322 377
#
# _framework density 20.906500999999999
#
# number of rings (size 3 to 8) (size 9 to 14) (size 15 to 20)
#    0.000    1.500    2.500    0.750    7.000    6.500 
#    0.000    3.750    0.000    0.000    0.000    0.000 
#    0.000    0.000    0.000    0.000    0.000    0.000 
#
# Total GULP energy -179060.146688 kJ/mol
# GULP energy per Si atom -5595.629584 kJ/mol
# Density = 2.085892 g / cm^3
# Si number density = 20.906501 Si / 1000 Ang^3
#
#
#
# Elastic Constant Matrix: (Units=GPa)
#
#
# Indices 1 2 3 4 5 6 
#
# 1 161.2216 69.6748 80.0173 0.0000 0.0000 0.0000
# 2 69.6748 130.0095 48.3018 0.0000 0.0000 0.0000
# 3 80.0173 48.3018 94.5479 0.0000 0.0000 0.0000
# 4 0.0000 0.0000 0.0000 34.6492 0.0000 0.0000
# 5 0.0000 0.0000 0.0000 0.0000 30.5589 0.0000
# 6 0.0000 0.0000 0.0000 0.0000 0.0000 -1.0735
#
#
#
# Elastic Compliance Matrix: (Units=1/GPa)
#
#
# Indices 1 2 3 4 5 6 
#
# 1 0.011678 -0.003193 -0.008252 0.000000 0.000000 0.000000
# 2 -0.003193 0.010366 -0.002594 0.000000 0.000000 0.000000
# 3 -0.008252 -0.002594 0.018886 0.000000 0.000000 0.000000
# 4 0.000000 0.000000 0.000000 0.028861 0.000000 0.000000
# 5 0.000000 0.000000 0.000000 0.000000 0.032724 0.000000
# 6 0.000000 0.000000 0.000000 0.000000 0.000000 -0.931500
#
#
# Mechanical properties :
#
#
# Convention : Reuss Voigt Hill
#
# Bulk Modulus (GPa) = 77.80504 86.86298 82.33401
# Shear Modulus (GPa) = -6.27650 25.34592 9.53471
#
# Velocity S-wave (km/s) = -1.73456 3.48565 2.13788
# Velocity P-wave (km/s) = 5.76931 7.60514 6.74993
#
# Compressibility (1/GPa) = 0.01285264
#
# Stress axis : x y z
#
# Youngs Moduli (GPa) = 85.62934 96.46494 52.94925
#
# Poissons Ratio (x) = 0.30798 0.43696
# Poissons Ratio (y) = 0.27338 0.13735
# Poissons Ratio (z) = 0.70665 0.25023
#
# Static dielectric constant tensor:
#      x y z
#    x 1.711280 0.000000 0.000000 
#    y 0.000000 1.778800 0.000000 
#    z 0.000000 0.000000 1.775900 
# 
# From -- ./inp_files/33881.got.cif
#   From: 2010.05.17/outbox.cif.g08.bks.cpg/sg64_17_cif.got.tgz:33881.got - 2010.06.03 16:29:19.
