data_PCOD9481083
_publ_section_title
;
Structure prediction by ZEFSAII (Michael W. Deem and Ramdas Pophale) SiO2 
 PCOD9481083
Probable space group: C M C A
;
_chemical_formula_sum "Si O2"
_cell_formula_units_Z 88
_cell_length_a 27.087146
_cell_length_b 24.996797
_cell_length_c 5.103142
_cell_angle_alpha 90.000000
_cell_angle_beta 90.000000
_cell_angle_gamma 90.000000
_cell_volume 3455.296061
_symmetry_space_group_name_H-M "C M C A"
_symmetry_group_IT_number 64
_symmetry_cell_setting 'orthorhombic'
loop_
_space_group_symop_operation_xyz
x,y,z
-x,1/2-y,1/2+z
x,-y,-z
-x,1/2+y,1/2-z
-x,-y,-z
x,1/2+y,1/2-z
-x,y,z
x,1/2-y,1/2+z
1/2+x,1/2+y,z
1/2-x,-y,1/2+z
1/2+x,1/2-y,-z
1/2-x,y,1/2-z
1/2-x,1/2-y,-z
1/2+x,y,1/2-z
1/2-x,1/2+y,z
1/2+x,-y,1/2+z
loop_
_atom_site_type_symbol
_atom_site_label
_atom_site_fract_x
_atom_site_fract_y
_atom_site_fract_z
Si Si1 0.377883 0.367447 0.289780
Si Si2 0.197973 0.945626 0.108894
Si Si3 0.250000 0.869092 0.750000
Si Si4 0.943083 0.287987 0.910083
Si Si5 0.443744 0.034970 0.760365
Si Si6 0.306537 0.787922 0.458426
O O1 0.332796 0.409835 0.313325
O O2 0.402584 0.333337 0.522988
O O3 0.419543 0.408169 0.197061
O O4 0.353742 0.325408 0.090580
O O5 0.250000 0.958076 0.250000
O O6 0.208573 0.910191 0.850780
O O7 0.174518 0.000000 0.000000
O O8 0.259060 0.826443 0.514193
O O9 0.938057 0.243090 0.137322
O O10 0.000000 0.308813 0.925174
O O11 0.500000 0.046142 0.840060
O O12 0.443205 0.000000 0.500000
O O13 0.421117 0.000000 0.000000
O O14 0.308306 0.748186 0.215215
#
# Coordination Sequence:
#
# PCOD9481083 Si02
#       6
#    16  16   8  16  16  16
#     4  11  24  42  69 100 138 182 236 281 364 418
#     4  11  24  45  66  95 135 181 240 307 361 430
#     4  10  24  42  68  88 126 180 228 284 366 416
#     4  10  22  43  70 103 143 182 226 282 344 423
#     4  10  23  44  68 100 138 176 227 287 347 423
#     4  11  25  42  65  97 135 172 225 284 339 418
#
# _framework density 25.468152
#
# number of rings (size 3 to 8) (size 9 to 14) (size 15 to 20)
#    0.000    1.455    0.909    2.727    5.091    3.636 
#    6.545    5.455    0.000    0.000    0.000    0.000 
#    0.000    0.000    0.000    0.000    0.000    0.000 
#
# Total GULP energy -245618.341301 kJ/mol
# GULP energy per Si atom -5582.235030 kJ/mol
# Density = 2.541019 g / cm^3
# Si number density = 25.468152 Si / 1000 Ang^3
#
#
#
# Elastic Constant Matrix: (Units=GPa)
#
#
# Indices 1 2 3 4 5 6 
#
# 1 92.5710 41.2562 15.0871 0.0000 0.0000 0.0000
# 2 41.2562 155.5728 48.1012 0.0000 0.0000 0.0000
# 3 15.0871 48.1012 140.2072 0.0000 0.0000 0.0000
# 4 0.0000 0.0000 0.0000 3.8308 0.0000 0.0000
# 5 0.0000 0.0000 0.0000 0.0000 7.8917 0.0000
# 6 0.0000 0.0000 0.0000 0.0000 0.0000 74.2341
#
#
#
# Elastic Compliance Matrix: (Units=1/GPa)
#
#
# Indices 1 2 3 4 5 6 
#
# 1 0.012257 -0.003180 -0.000228 0.000000 0.000000 0.000000
# 2 -0.003180 0.008016 -0.002408 0.000000 0.000000 0.000000
# 3 -0.000228 -0.002408 0.007983 0.000000 0.000000 0.000000
# 4 0.000000 0.000000 0.000000 0.261042 0.000000 0.000000
# 5 0.000000 0.000000 0.000000 0.000000 0.126715 0.000000
# 6 0.000000 0.000000 0.000000 0.000000 0.000000 0.013471
#
#
# Mechanical properties :
#
#
# Convention : Reuss Voigt Hill
#
# Bulk Modulus (GPa) = 60.15377 66.36000 63.25689
# Shear Modulus (GPa) = 11.19431 36.11843 23.65637
#
# Velocity S-wave (km/s) = 2.09880 3.76996 3.05103
# Velocity P-wave (km/s) = 5.43542 6.71288 6.10764
#
# Compressibility (1/GPa) = 0.01662406
#
# Stress axis : x y z
#
# Youngs Moduli (GPa) = 81.58699 124.75712 125.26835
#
# Poissons Ratio (x) = 0.39671 0.02856
# Poissons Ratio (y) = 0.25944 0.30161
# Poissons Ratio (z) = 0.01860 0.30038
#
# Static dielectric constant tensor:
#      x y z
#    x 2.133990 0.000000 0.000000 
#    y 0.000000 2.028860 0.000000 
#    z 0.000000 0.000000 1.925150 
# 
# From -- ./inp_files/3308.got.cif
#   From: 2010.05.17/outbox.cif.g08.bks.cpg/sg64_2_cif.got.tgz:3308.got - 2010.06.03 16:29:19.
