data_PCOD9481259
_publ_section_title
;
Structure prediction by ZEFSAII (Michael W. Deem and Ramdas Pophale) SiO2 
 PCOD9481259
Probable space group: C M C A
;
_chemical_formula_sum "Si O2"
_cell_formula_units_Z 52
_cell_length_a 24.984859
_cell_length_b 11.387786
_cell_length_c 8.765426
_cell_angle_alpha 90.000000
_cell_angle_beta 90.000000
_cell_angle_gamma 90.000000
_cell_volume 2493.958531
_symmetry_space_group_name_H-M "C M C A"
_symmetry_group_IT_number 64
_symmetry_cell_setting 'orthorhombic'
loop_
_space_group_symop_operation_xyz
x,y,z
-x,1/2-y,1/2+z
x,-y,-z
-x,1/2+y,1/2-z
-x,-y,-z
x,1/2+y,1/2-z
-x,y,z
x,1/2-y,1/2+z
1/2+x,1/2+y,z
1/2-x,-y,1/2+z
1/2+x,1/2-y,-z
1/2-x,y,1/2-z
1/2-x,1/2-y,-z
1/2+x,y,1/2-z
1/2-x,1/2+y,z
1/2+x,-y,1/2+z
loop_
_atom_site_type_symbol
_atom_site_label
_atom_site_fract_x
_atom_site_fract_y
_atom_site_fract_z
Si Si1 0.500000 0.000000 0.000000
Si Si2 0.187889 0.598254 0.752322
Si Si3 0.402450 0.413650 0.687837
Si Si4 0.364205 0.713702 0.032987
O O1 0.547085 0.986210 0.868296
O O2 0.250000 0.568269 0.750000
O O3 0.150683 0.493605 0.813095
O O4 0.168127 0.632247 0.583214
O O5 0.175445 0.711302 0.858664
O O6 0.403205 0.358731 0.856630
O O7 0.396178 0.305851 0.570755
#
# Coordination Sequence:
#
# PCOD9481259 Si02
#       4
#     4  16  16  16
#     4  12  24  48  70  88 136 174 232 294 334 416
#     4  11  22  41  68 102 142 178 227 280 342 413
#     4  11  24  44  67  96 134 178 228 282 342 402
#     4  10  23  42  65 100 135 179 228 273 354 405
#
# _framework density 20.850386
#
# number of rings (size 3 to 8) (size 9 to 14) (size 15 to 20)
#    0.000    1.231    3.077    1.846    0.000   11.077 
#    0.000    3.077    0.000    0.000    0.000    0.000 
#    0.000    0.000    0.000    0.000    0.000    0.000 
#
# Total GULP energy -144829.944102 kJ/mol
# GULP energy per Si atom -5570.382465 kJ/mol
# Density = 2.080293 g / cm^3
# Si number density = 20.850386 Si / 1000 Ang^3
#
#
#
# Elastic Constant Matrix: (Units=GPa)
#
#
# Indices 1 2 3 4 5 6 
#
# 1 95.3080 1.5353 33.5744 0.0000 0.0000 0.0000
# 2 1.5353 49.4474 33.6829 0.0000 0.0000 0.0000
# 3 33.5744 33.6829 155.2877 0.0000 0.0000 0.0000
# 4 0.0000 0.0000 0.0000 53.0080 0.0000 0.0000
# 5 0.0000 0.0000 0.0000 0.0000 25.9162 0.0000
# 6 0.0000 0.0000 0.0000 0.0000 0.0000 -21.0745
#
#
#
# Elastic Compliance Matrix: (Units=1/GPa)
#
#
# Indices 1 2 3 4 5 6 
#
# 1 0.011459 0.001563 -0.002817 0.000000 0.000000 0.000000
# 2 0.001563 0.023943 -0.005531 0.000000 0.000000 0.000000
# 3 -0.002817 -0.005531 0.008248 0.000000 0.000000 0.000000
# 4 0.000000 0.000000 0.000000 0.018865 0.000000 0.000000
# 5 0.000000 0.000000 0.000000 0.000000 0.038586 0.000000
# 6 0.000000 0.000000 0.000000 0.000000 0.000000 -0.047451
#
#
# Mechanical properties :
#
#
# Convention : Reuss Voigt Hill
#
# Bulk Modulus (GPa) = 33.24409 48.62536 40.93473
# Shear Modulus (GPa) = 64.72682 26.98663 45.85673
#
# Velocity S-wave (km/s) = 5.57771 3.60154 4.69478
# Velocity P-wave (km/s) = 7.58023 6.37703 7.00451
#
# Compressibility (1/GPa) = 0.03008053
#
# Stress axis : x y z
#
# Youngs Moduli (GPa) = 87.26511 41.76616 121.23569
#
# Poissons Ratio (x) = -0.06527 0.34147
# Poissons Ratio (y) = -0.13638 0.67059
# Poissons Ratio (z) = 0.24579 0.23102
#
# Static dielectric constant tensor:
#      x y z
#    x 1.677270 0.000000 0.000000 
#    y 0.000000 1.804170 0.000000 
#    z 0.000000 0.000000 1.774670 
# 
# From -- ./inp_files/7534.got.cif
#   From: 2010.05.17/outbox.cif.g08.bks.cpg/sg64_4_cif.got.tgz:7534.got - 2010.06.03 16:29:19.
