data_PCOD9481615
_publ_section_title
;
Structure prediction by ZEFSAII (Michael W. Deem and Ramdas Pophale) SiO2 
 PCOD9481615
Probable space group: C M C A
;
_chemical_formula_sum "Si O2"
_cell_formula_units_Z 100
_cell_length_a 31.115301
_cell_length_b 15.419593
_cell_length_c 10.049596
_cell_angle_alpha 90.000000
_cell_angle_beta 90.000000
_cell_angle_gamma 90.000000
_cell_volume 4821.648206
_symmetry_space_group_name_H-M "C M C A"
_symmetry_group_IT_number 64
_symmetry_cell_setting 'orthorhombic'
loop_
_space_group_symop_operation_xyz
x,y,z
-x,1/2-y,1/2+z
x,-y,-z
-x,1/2+y,1/2-z
-x,-y,-z
x,1/2+y,1/2-z
-x,y,z
x,1/2-y,1/2+z
1/2+x,1/2+y,z
1/2-x,-y,1/2+z
1/2+x,1/2-y,-z
1/2-x,y,1/2-z
1/2-x,1/2-y,-z
1/2+x,y,1/2-z
1/2-x,1/2+y,z
1/2+x,-y,1/2+z
loop_
_atom_site_type_symbol
_atom_site_label
_atom_site_fract_x
_atom_site_fract_y
_atom_site_fract_z
Si Si1 0.220911 0.282053 0.620653
Si Si2 0.500000 0.311746 0.819666
Si Si3 0.571034 0.566576 0.700479
Si Si4 0.000000 0.500000 0.000000
Si Si5 0.155298 0.898686 0.990453
Si Si6 0.000000 0.856786 0.131963
Si Si7 0.407076 0.622283 0.237204
Si Si8 0.638755 0.293333 0.251657
O O1 0.250000 0.285659 0.750000
O O2 0.250000 0.250000 0.500000
O O3 0.198357 0.372760 0.587213
O O4 0.178795 0.224172 0.651865
O O5 0.500000 0.219115 0.744722
O O6 0.457673 0.359972 0.766271
O O7 0.500000 0.318289 0.981666
O O8 0.537487 0.552796 0.582793
O O9 0.542187 0.585802 0.833088
O O10 0.597606 0.476669 0.714779
O O11 0.601451 0.649343 0.681711
O O12 0.155430 0.849409 0.128864
O O13 0.113119 0.870393 0.909491
O O14 0.152848 0.000000 0.000000
O O15 0.381719 0.702872 0.303249
#
# Coordination Sequence:
#
# PCOD9481615 Si02
#       8
#    16   8  16   4  16   8  16  16
#     4  11  24  48  74 105 145 186 231 298 377 440
#     4  12  24  39  62  99 134 193 240 288 352 419
#     4  11  23  47  63 102 140 188 241 301 358 421
#     4  10  26  42  66  90 156 190 240 308 348 414
#     4  11  23  45  75 103 138 180 239 297 359 440
#     4  11  25  41  65  91 142 184 238 296 353 418
#     4  11  25  39  69  98 138 186 236 293 360 426
#     4  11  23  44  72 104 140 185 238 294 361 441
#
# _framework density 20.739795999999998
#
# number of rings (size 3 to 8) (size 9 to 14) (size 15 to 20)
#    0.000    0.960    4.800    1.920    0.000    5.760 
#    2.880    0.000    0.000    0.000    0.000    0.000 
#    0.000    0.000    0.000    0.000    0.000    0.000 
#
# Total GULP energy -278747.728106 kJ/mol
# GULP energy per Si atom -5574.954562 kJ/mol
# Density = 2.069259 g / cm^3
# Si number density = 20.739796 Si / 1000 Ang^3
#
#
#
# Elastic Constant Matrix: (Units=GPa)
#
#
# Indices 1 2 3 4 5 6 
#
# 1 109.7954 14.1967 11.3920 0.0000 0.0000 0.0000
# 2 14.1967 106.7875 10.1893 0.0000 0.0000 0.0000
# 3 11.3920 10.1893 53.2375 0.0000 0.0000 0.0000
# 4 0.0000 0.0000 0.0000 29.7755 0.0000 0.0000
# 5 0.0000 0.0000 0.0000 0.0000 26.2022 0.0000
# 6 0.0000 0.0000 0.0000 0.0000 0.0000 21.5530
#
#
#
# Elastic Compliance Matrix: (Units=1/GPa)
#
#
# Indices 1 2 3 4 5 6 
#
# 1 0.009436 -0.001082 -0.001812 0.000000 0.000000 0.000000
# 2 -0.001082 0.009663 -0.001618 0.000000 0.000000 0.000000
# 3 -0.001812 -0.001618 0.019481 0.000000 0.000000 0.000000
# 4 0.000000 0.000000 0.000000 0.033585 0.000000 0.000000
# 5 0.000000 0.000000 0.000000 0.000000 0.038165 0.000000
# 6 0.000000 0.000000 0.000000 0.000000 0.000000 0.046397
#
#
# Mechanical properties :
#
#
# Convention : Reuss Voigt Hill
#
# Bulk Modulus (GPa) = 33.83368 37.93073 35.88220
# Shear Modulus (GPa) = 28.47362 31.10898 29.79130
#
# Velocity S-wave (km/s) = 3.70928 3.87714 3.79414
# Velocity P-wave (km/s) = 5.89015 6.19448 6.04423
#
# Compressibility (1/GPa) = 0.02955635
#
# Stress axis : x y z
#
# Youngs Moduli (GPa) = 105.98042 103.49238 51.33166
#
# Poissons Ratio (x) = 0.11193 0.09302
# Poissons Ratio (y) = 0.11462 0.08305
# Poissons Ratio (z) = 0.19205 0.16744
#
# Static dielectric constant tensor:
#      x y z
#    x 1.737870 0.000000 0.000000 
#    y 0.000000 1.772900 0.000000 
#    z 0.000000 0.000000 1.768760 
# 
# From -- ./inp_files/19815.got.cif
#   From: 2010.05.17/outbox.cif.g08.bks.cpg/sg64_10_cif.got.tgz:19815.got - 2010.06.03 16:29:19.
