data_PCOD9481604
_publ_section_title
;
Structure prediction by ZEFSAII (Michael W. Deem and Ramdas Pophale) SiO2 
 PCOD9481604
Probable space group: C M C A
;
_chemical_formula_sum "Si O2"
_cell_formula_units_Z 112
_cell_length_a 14.558931
_cell_length_b 14.374728
_cell_length_c 25.614908
_cell_angle_alpha 90.000000
_cell_angle_beta 90.000000
_cell_angle_gamma 90.000000
_cell_volume 5360.705188
_symmetry_space_group_name_H-M "C M C A"
_symmetry_group_IT_number 64
_symmetry_cell_setting 'orthorhombic'
loop_
_space_group_symop_operation_xyz
x,y,z
-x,1/2-y,1/2+z
x,-y,-z
-x,1/2+y,1/2-z
-x,-y,-z
x,1/2+y,1/2-z
-x,y,z
x,1/2-y,1/2+z
1/2+x,1/2+y,z
1/2-x,-y,1/2+z
1/2+x,1/2-y,-z
1/2-x,y,1/2-z
1/2-x,1/2-y,-z
1/2+x,y,1/2-z
1/2-x,1/2+y,z
1/2+x,-y,1/2+z
loop_
_atom_site_type_symbol
_atom_site_label
_atom_site_fract_x
_atom_site_fract_y
_atom_site_fract_z
Si Si1 0.859120 0.649896 0.742781
Si Si2 0.397119 0.650038 0.636040
Si Si3 0.296328 0.038093 0.130699
Si Si4 0.890604 0.264412 0.539623
Si Si5 0.096174 0.031140 0.176905
Si Si6 0.353621 0.149235 0.228455
Si Si7 0.279350 0.393912 0.520086
O O1 0.750000 0.633885 0.750000
O O2 0.894101 0.662145 0.801817
O O3 0.896250 0.563924 0.710275
O O4 0.879665 0.746476 0.713808
O O5 0.500000 0.619369 0.621144
O O6 0.326782 0.568031 0.622963
O O7 0.378445 0.741539 0.601624
O O8 0.188279 0.040156 0.143839
O O9 0.351245 0.079035 0.180225
O O10 0.313342 0.098214 0.079639
O O11 0.821621 0.345795 0.521384
O O12 0.849387 0.171726 0.511740
O O13 0.000000 0.277868 0.529787
O O14 0.095238 0.109188 0.221714
O O15 0.000000 0.033900 0.146908
O O16 0.250000 0.155999 0.250000
O O17 0.274695 0.500000 0.500000
#
# Coordination Sequence:
#
# PCOD9481604 Si02
#       7
#    16  16  16  16  16  16  16
#     4  11  20  36  60  86 128 169 208 260 312 371
#     4  11  22  39  66  93 122 167 220 272 323 383
#     4  11  22  41  63  91 128 168 215 265 323 382
#     4  10  25  46  70 101 130 167 222 278 334 400
#     4  11  22  37  56  85 127 167 209 256 310 378
#     4   9  21  36  57  86 119 167 210 256 305 369
#     4  11  24  44  72  98 131 172 217 277 339 397
#
# _framework density 20.892772999999998
#
# number of rings (size 3 to 8) (size 9 to 14) (size 15 to 20)
#    0.000    1.429    4.286    0.857    6.000    2.857 
#    0.000    0.000    0.000    0.000    0.000    0.000 
#    0.000    0.000    0.000    0.000    0.000    0.000 
#
# Total GULP energy -312762.041159 kJ/mol
# GULP energy per Si atom -5585.036449 kJ/mol
# Density = 2.084522 g / cm^3
# Si number density = 20.892773 Si / 1000 Ang^3
#
#
#
# Elastic Constant Matrix: (Units=GPa)
#
#
# Indices 1 2 3 4 5 6 
#
# 1 91.8769 0.6053 -1.6944 0.0000 0.0000 0.0000
# 2 0.6053 75.5728 -10.5120 0.0000 0.0000 0.0000
# 3 -1.6944 -10.5120 59.3942 0.0000 0.0000 0.0000
# 4 0.0000 0.0000 0.0000 19.9733 0.0000 0.0000
# 5 0.0000 0.0000 0.0000 0.0000 17.4490 0.0000
# 6 0.0000 0.0000 0.0000 0.0000 0.0000 309.8160
#
#
#
# Elastic Compliance Matrix: (Units=1/GPa)
#
#
# Indices 1 2 3 4 5 6 
#
# 1 0.010890 -0.000045 0.000303 0.000000 0.000000 0.000000
# 2 -0.000045 0.013566 0.002400 0.000000 0.000000 0.000000
# 3 0.000303 0.002400 0.017270 0.000000 0.000000 0.000000
# 4 0.000000 0.000000 0.000000 0.050067 0.000000 0.000000
# 5 0.000000 0.000000 0.000000 0.000000 0.057310 0.000000
# 6 0.000000 0.000000 0.000000 0.000000 0.000000 0.003228
#
#
# Mechanical properties :
#
#
# Convention : Reuss Voigt Hill
#
# Bulk Modulus (GPa) = 21.25795 22.62685 21.94240
# Shear Modulus (GPa) = 30.73209 85.34401 58.03805
#
# Velocity S-wave (km/s) = 3.83945 6.39822 5.27630
# Velocity P-wave (km/s) = 5.46370 8.08928 6.90248
#
# Compressibility (1/GPa) = 0.04704122
#
# Stress axis : x y z
#
# Youngs Moduli (GPa) = 91.82731 73.71129 57.90378
#
# Poissons Ratio (x) = 0.00333 -0.01753
# Poissons Ratio (y) = 0.00414 -0.13896
# Poissons Ratio (z) = -0.02779 -0.17689
#
# Static dielectric constant tensor:
#      x y z
#    x 1.814800 0.000000 0.000000 
#    y 0.000000 1.764950 0.000000 
#    z 0.000000 0.000000 1.742820 
# 
# From -- ./inp_files/50082.got.cif
#   From: 2010.05.17/outbox.cif.g08.bks.cpg/sg64_26_cif.got.tgz:50082.got - 2010.06.03 16:29:19.
