data_PCOD9481960
_publ_section_title
;
Structure prediction by ZEFSAII (Michael W. Deem and Ramdas Pophale) SiO2 
 PCOD9481960
Probable space group: C M C A
;
_chemical_formula_sum "Si O2"
_cell_formula_units_Z 64
_cell_length_a 23.152504
_cell_length_b 9.229115
_cell_length_c 10.655752
_cell_angle_alpha 90.000000
_cell_angle_beta 90.000000
_cell_angle_gamma 90.000000
_cell_volume 2276.890420
_symmetry_space_group_name_H-M "C M C A"
_symmetry_group_IT_number 64
_symmetry_cell_setting 'orthorhombic'
loop_
_space_group_symop_operation_xyz
x,y,z
-x,1/2-y,1/2+z
x,-y,-z
-x,1/2+y,1/2-z
-x,-y,-z
x,1/2+y,1/2-z
-x,y,z
x,1/2-y,1/2+z
1/2+x,1/2+y,z
1/2-x,-y,1/2+z
1/2+x,1/2-y,-z
1/2-x,y,1/2-z
1/2-x,1/2-y,-z
1/2+x,y,1/2-z
1/2-x,1/2+y,z
1/2+x,-y,1/2+z
loop_
_atom_site_type_symbol
_atom_site_label
_atom_site_fract_x
_atom_site_fract_y
_atom_site_fract_z
Si Si1 0.061770 0.492336 0.801860
Si Si2 0.564864 0.250801 0.500497
Si Si3 0.219967 0.622568 0.080501
Si Si4 0.661182 0.595852 0.165080
O O1 0.060364 0.615636 0.903983
O O2 0.114788 0.518930 0.711843
O O3 0.000000 0.491096 0.736923
O O4 0.068634 0.334510 0.866585
O O5 0.500000 0.181590 0.497749
O O6 0.622716 0.173863 0.443967
O O7 0.277559 0.536514 0.123249
O O8 0.184515 0.671274 0.203962
O O9 0.185990 0.500000 0.000000
O O10 0.250000 0.750000 0.000000
#
# Coordination Sequence:
#
# PCOD9481960 Si02
#       4
#    16  16  16  16
#     4   9  19  36  63  96 130 166 212 269 329 399
#     4   9  19  37  62  97 131 167 213 265 329 399
#     4  11  28  45  63  96 130 170 227 282 330 386
#     4  11  23  38  70  87 129 174 221 266 338 396
#
# _framework density 28.108509000000002
#
# number of rings (size 3 to 8) (size 9 to 14) (size 15 to 20)
#    0.000    2.000    0.000    3.750   10.500    2.000 
#    0.000    0.000    0.000    1.500    0.000    0.000 
#    0.000    0.000    0.000    0.000    0.000    0.000 
#
# Total GULP energy -178473.051104 kJ/mol
# GULP energy per Si atom -5577.282847 kJ/mol
# Density = 2.804453 g / cm^3
# Si number density = 28.108509 Si / 1000 Ang^3
#
#
#
# Elastic Constant Matrix: (Units=GPa)
#
#
# Indices 1 2 3 4 5 6 
#
# 1 237.0493 6.8768 28.7734 0.0000 0.0000 0.0000
# 2 6.8768 80.2185 45.5159 0.0000 0.0000 0.0000
# 3 28.7734 45.5159 119.6746 0.0000 0.0000 0.0000
# 4 0.0000 0.0000 0.0000 30.7801 0.0000 0.0000
# 5 0.0000 0.0000 0.0000 0.0000 26.8956 0.0000
# 6 0.0000 0.0000 0.0000 0.0000 0.0000 18.6909
#
#
#
# Elastic Compliance Matrix: (Units=1/GPa)
#
#
# Indices 1 2 3 4 5 6 
#
# 1 0.004350 0.000281 -0.001153 0.000000 0.000000 0.000000
# 2 0.000281 0.015915 -0.006120 0.000000 0.000000 0.000000
# 3 -0.001153 -0.006120 0.010961 0.000000 0.000000 0.000000
# 4 0.000000 0.000000 0.000000 0.032489 0.000000 0.000000
# 5 0.000000 0.000000 0.000000 0.000000 0.037181 0.000000
# 6 0.000000 0.000000 0.000000 0.000000 0.000000 0.053502
#
#
# Mechanical properties :
#
#
# Convention : Reuss Voigt Hill
#
# Bulk Modulus (GPa) = 57.99907 66.58607 62.29257
# Shear Modulus (GPa) = 28.71440 38.99172 33.85306
#
# Velocity S-wave (km/s) = 3.19965 3.72853 3.47417
# Velocity P-wave (km/s) = 5.85910 6.50202 6.18892
#
# Compressibility (1/GPa) = 0.01724165
#
# Stress axis : x y z
#
# Youngs Moduli (GPa) = 229.86837 62.83556 91.23286
#
# Poissons Ratio (x) = -0.01767 0.10518
# Poissons Ratio (y) = -0.06464 0.55838
# Poissons Ratio (z) = 0.26502 0.38458
#
# Static dielectric constant tensor:
#      x y z
#    x 2.198740 0.000000 0.000000 
#    y 0.000000 2.165120 0.000000 
#    z 0.000000 0.000000 2.489060 
# 
# From -- ./inp_files/16772.got.cif
#   From: 2010.05.17/outbox.cif.g08.bks.cpg/sg64_9_cif.got.tgz:16772.got - 2010.06.03 16:29:19.
