data_PCOD9481858
_publ_section_title
;
Structure prediction by ZEFSAII (Michael W. Deem and Ramdas Pophale) SiO2 
 PCOD9481858
Probable space group: C M C A
;
_chemical_formula_sum "Si O2"
_cell_formula_units_Z 68
_cell_length_a 24.363711
_cell_length_b 5.087904
_cell_length_c 22.667627
_cell_angle_alpha 90.000000
_cell_angle_beta 90.000000
_cell_angle_gamma 90.000000
_cell_volume 2809.884090
_symmetry_space_group_name_H-M "C M C A"
_symmetry_group_IT_number 64
_symmetry_cell_setting 'orthorhombic'
loop_
_space_group_symop_operation_xyz
x,y,z
-x,1/2-y,1/2+z
x,-y,-z
-x,1/2+y,1/2-z
-x,-y,-z
x,1/2+y,1/2-z
-x,y,z
x,1/2-y,1/2+z
1/2+x,1/2+y,z
1/2-x,-y,1/2+z
1/2+x,1/2-y,-z
1/2-x,y,1/2-z
1/2-x,1/2-y,-z
1/2+x,y,1/2-z
1/2-x,1/2+y,z
1/2+x,-y,1/2+z
loop_
_atom_site_type_symbol
_atom_site_label
_atom_site_fract_x
_atom_site_fract_y
_atom_site_fract_z
Si Si1 0.216119 0.222827 0.170916
Si Si2 0.821650 0.238680 0.538559
Si Si3 0.000000 0.000000 0.000000
Si Si4 0.091910 0.363156 0.712328
Si Si5 0.939494 0.791830 0.919684
O O1 0.237710 0.510626 0.186531
O O2 0.208626 0.214192 0.100176
O O3 0.157094 0.156867 0.198321
O O4 0.823425 0.500000 0.500000
O O5 0.883871 0.167712 0.558554
O O6 0.799025 0.000000 0.500000
O O7 0.949598 0.925598 0.049597
O O8 0.078499 0.645629 0.738891
O O9 0.062640 0.306393 0.650203
O O10 0.000000 0.700984 0.945735
#
# Coordination Sequence:
#
# PCOD9481858 Si02
#       5
#    16  16   4  16  16
#     4  11  24  41  62  92 123 166 216 262 321 378
#     4  11  22  38  61  91 130 167 207 260 315 381
#     4   8  16  44  66 100 126 176 206 258 316 390
#     4  11  25  44  66  95 128 168 217 268 321 379
#     4   9  20  41  68  96 131 171 213 261 320 389
#
# _framework density 24.200285999999998
#
# number of rings (size 3 to 8) (size 9 to 14) (size 15 to 20)
#    0.706    0.941    1.176    2.824    0.000   12.706 
#    0.000    2.353    0.000    0.000    0.000    0.000 
#    0.000    0.000    0.000    0.000    0.000    0.000 
#
# Total GULP energy -189614.554403 kJ/mol
# GULP energy per Si atom -5576.898659 kJ/mol
# Density = 2.414521 g / cm^3
# Si number density = 24.200286 Si / 1000 Ang^3
#
#
#
# Elastic Constant Matrix: (Units=GPa)
#
#
# Indices 1 2 3 4 5 6 
#
# 1 112.5205 -12.7472 13.3020 0.0000 0.0000 0.0000
# 2 -12.7472 54.6687 -2.9983 0.0000 0.0000 0.0000
# 3 13.3020 -2.9983 147.6142 0.0000 0.0000 0.0000
# 4 0.0000 0.0000 0.0000 17.7388 0.0000 0.0000
# 5 0.0000 0.0000 0.0000 0.0000 64.4974 0.0000
# 6 0.0000 0.0000 0.0000 0.0000 0.0000 10.0183
#
#
#
# Elastic Compliance Matrix: (Units=1/GPa)
#
#
# Indices 1 2 3 4 5 6 
#
# 1 0.009219 0.002106 -0.000788 0.000000 0.000000 0.000000
# 2 0.002106 0.018794 0.000192 0.000000 0.000000 0.000000
# 3 -0.000788 0.000192 0.006849 0.000000 0.000000 0.000000
# 4 0.000000 0.000000 0.000000 0.056373 0.000000 0.000000
# 5 0.000000 0.000000 0.000000 0.000000 0.015504 0.000000
# 6 0.000000 0.000000 0.000000 0.000000 0.000000 0.099818
#
#
# Mechanical properties :
#
#
# Convention : Reuss Voigt Hill
#
# Bulk Modulus (GPa) = 26.39724 34.43517 30.41620
# Shear Modulus (GPa) = 23.13055 39.60071 31.36563
#
# Velocity S-wave (km/s) = 3.09495 4.04960 3.60402
# Velocity P-wave (km/s) = 4.86858 6.01048 5.46941
#
# Compressibility (1/GPa) = 0.03788275
#
# Stress axis : x y z
#
# Youngs Moduli (GPa) = 108.47106 53.20937 145.99992
#
# Poissons Ratio (x) = -0.11208 0.11504
# Poissons Ratio (y) = -0.22848 -0.02802
# Poissons Ratio (z) = 0.08547 -0.01021
#
# Static dielectric constant tensor:
#      x y z
#    x 1.965450 0.000000 0.000000 
#    y 0.000000 2.081040 0.000000 
#    z 0.000000 0.000000 2.032210 
# 
# From -- ./inp_files/41728.got.cif
#   From: 2010.05.17/outbox.cif.g08.bks.cpg/sg64_21_cif.got.tgz:41728.got - 2010.06.03 16:29:19.
