data_PCOD9481744
_publ_section_title
;
Structure prediction by ZEFSAII (Michael W. Deem and Ramdas Pophale) SiO2 
 PCOD9481744
Probable space group: C M C A
;
_chemical_formula_sum "Si O2"
_cell_formula_units_Z 96
_cell_length_a 26.207644
_cell_length_b 8.533727
_cell_length_c 23.705274
_cell_angle_alpha 90.000000
_cell_angle_beta 90.000000
_cell_angle_gamma 90.000000
_cell_volume 5301.657961
_symmetry_space_group_name_H-M "C M C A"
_symmetry_group_IT_number 64
_symmetry_cell_setting 'orthorhombic'
loop_
_space_group_symop_operation_xyz
x,y,z
-x,1/2-y,1/2+z
x,-y,-z
-x,1/2+y,1/2-z
-x,-y,-z
x,1/2+y,1/2-z
-x,y,z
x,1/2-y,1/2+z
1/2+x,1/2+y,z
1/2-x,-y,1/2+z
1/2+x,1/2-y,-z
1/2-x,y,1/2-z
1/2-x,1/2-y,-z
1/2+x,y,1/2-z
1/2-x,1/2+y,z
1/2+x,-y,1/2+z
loop_
_atom_site_type_symbol
_atom_site_label
_atom_site_fract_x
_atom_site_fract_y
_atom_site_fract_z
Si Si1 0.656839 0.987713 0.288796
Si Si2 0.555971 0.325118 0.790434
Si Si3 0.727978 0.381071 0.881857
Si Si4 0.338792 0.865913 0.831246
Si Si5 0.556130 0.465586 0.668121
Si Si6 0.727504 0.120029 0.958526
O O1 0.604059 0.070516 0.307575
O O2 0.666141 0.017905 0.222566
O O3 0.608651 0.083420 0.138096
O O4 0.655970 0.805900 0.303939
O O5 0.500000 0.379009 0.811213
O O6 0.554849 0.351555 0.722892
O O7 0.561318 0.143697 0.808055
O O8 0.700961 0.431534 0.825026
O O9 0.788228 0.362671 0.868803
O O10 0.704140 0.223246 0.908103
O O11 0.728064 0.519148 0.928150
O O12 0.500000 0.454694 0.640445
O O13 0.750000 0.250000 0.000000
O O14 0.698443 0.000000 0.000000
#
# Coordination Sequence:
#
# PCOD9481744 Si02
#       6
#    16  16  16  16  16  16
#     4  11  22  31  46  73 107 143 171 196 236 294
#     4   9  17  29  45  64  93 135 176 208 235 269
#     4  11  21  34  53  76 103 132 161 201 253 305
#     4  11  22  31  46  73 107 143 171 196 237 292
#     4   9  17  29  45  64  93 135 176 208 234 270
#     4   9  20  38  56  72  94 124 164 213 257 299
#
# _framework density 18.107541999999999
#
# number of rings (size 3 to 8) (size 9 to 14) (size 15 to 20)
#    0.000    2.000    1.667    4.500    4.667    3.333 
#    0.000    0.000    0.000    0.000    0.000    0.000 
#    0.000   26.667    0.000    0.000    0.000    0.000 
#
# Total GULP energy -267230.004655 kJ/mol
# GULP energy per Si atom -5567.291764 kJ/mol
# Density = 1.806633 g / cm^3
# Si number density = 18.107542 Si / 1000 Ang^3
#
#
#
# Elastic Constant Matrix: (Units=GPa)
#
#
# Indices 1 2 3 4 5 6 
#
# 1 111.8892 17.8029 15.4351 0.0000 0.0000 0.0000
# 2 17.8029 74.3658 10.3646 0.0000 0.0000 0.0000
# 3 15.4351 10.3646 36.0992 0.0000 0.0000 0.0000
# 4 0.0000 0.0000 0.0000 28.2262 0.0000 0.0000
# 5 0.0000 0.0000 0.0000 0.0000 -0.6551 0.0000
# 6 0.0000 0.0000 0.0000 0.0000 0.0000 17.4903
#
#
#
# Elastic Compliance Matrix: (Units=1/GPa)
#
#
# Indices 1 2 3 4 5 6 
#
# 1 0.009729 -0.001822 -0.003637 0.000000 0.000000 0.000000
# 2 -0.001822 0.014349 -0.003341 0.000000 0.000000 0.000000
# 3 -0.003637 -0.003341 0.030216 0.000000 0.000000 0.000000
# 4 0.000000 0.000000 0.000000 0.035428 0.000000 0.000000
# 5 0.000000 0.000000 0.000000 0.000000 -1.526386 0.000000
# 6 0.000000 0.000000 0.000000 0.000000 0.000000 0.057174
#
#
# Mechanical properties :
#
#
# Convention : Reuss Voigt Hill
#
# Bulk Modulus (GPa) = 27.25214 34.39546 30.82380
# Shear Modulus (GPa) = -3.70464 20.92905 8.61220
#
# Velocity S-wave (km/s) = -1.43190 3.40342 2.18322
# Velocity P-wave (km/s) = 3.51412 5.87203 4.83889
#
# Compressibility (1/GPa) = 0.03669436
#
# Stress axis : x y z
#
# Youngs Moduli (GPa) = 102.78513 69.69194 33.09555
#
# Poissons Ratio (x) = 0.12699 0.12036
# Poissons Ratio (y) = 0.18730 0.11056
# Poissons Ratio (z) = 0.37380 0.23281
#
# Static dielectric constant tensor:
#      x y z
#    x 1.687060 0.000000 0.000000 
#    y 0.000000 1.684050 0.000000 
#    z 0.000000 0.000000 1.632690 
# 
# From -- ./inp_files/46858.got.cif
#   From: 2010.05.17/outbox.cif.g08.bks.cpg/sg64_24_cif.got.tgz:46858.got - 2010.06.03 16:29:19.
