data_PCOD9481810
_publ_section_title
;
Structure prediction by ZEFSAII (Michael W. Deem and Ramdas Pophale) SiO2 
 PCOD9481810
Probable space group: C M C A
;
_chemical_formula_sum "Si O2"
_cell_formula_units_Z 96
_cell_length_a 23.060012
_cell_length_b 17.852192
_cell_length_c 12.094443
_cell_angle_alpha 90.000000
_cell_angle_beta 90.000000
_cell_angle_gamma 90.000000
_cell_volume 4978.940657
_symmetry_space_group_name_H-M "C M C A"
_symmetry_group_IT_number 64
_symmetry_cell_setting 'orthorhombic'
loop_
_space_group_symop_operation_xyz
x,y,z
-x,1/2-y,1/2+z
x,-y,-z
-x,1/2+y,1/2-z
-x,-y,-z
x,1/2+y,1/2-z
-x,y,z
x,1/2-y,1/2+z
1/2+x,1/2+y,z
1/2-x,-y,1/2+z
1/2+x,1/2-y,-z
1/2-x,y,1/2-z
1/2-x,1/2-y,-z
1/2+x,y,1/2-z
1/2-x,1/2+y,z
1/2+x,-y,1/2+z
loop_
_atom_site_type_symbol
_atom_site_label
_atom_site_fract_x
_atom_site_fract_y
_atom_site_fract_z
Si Si1 0.000000 0.113412 0.569037
Si Si2 0.612526 0.877154 0.715743
Si Si3 0.806027 0.155777 0.808157
Si Si4 0.888159 0.711950 0.880050
Si Si5 0.000000 0.547491 0.179384
Si Si6 0.692598 0.313753 0.590943
Si Si7 0.300076 0.581400 0.029529
O O1 0.055664 0.164879 0.589130
O O2 0.000000 0.085801 0.442103
O O3 0.000000 0.040976 0.650066
O O4 0.598063 0.796616 0.658987
O O5 0.556714 0.923807 0.754591
O O6 0.651078 0.856827 0.823237
O O7 0.653208 0.919189 0.627317
O O8 0.750000 0.119321 0.750000
O O9 0.855698 0.170525 0.720161
O O10 0.786514 0.237437 0.851938
O O11 0.826826 0.112011 0.915521
O O12 0.844284 0.709663 0.983615
O O13 0.747419 0.364272 0.561638
O O14 0.276575 0.500000 0.000000
#
# Coordination Sequence:
#
# PCOD9481810 Si02
#       7
#     8  16  16  16   8  16  16
#     4  11  25  44  67 100 126 173 235 269 328 395
#     4  11  24  44  68  96 134 173 219 277 333 385
#     4  11  22  39  67  94 129 170 215 268 321 390
#     4  11  22  42  71  96 126 169 229 274 317 394
#     4  11  25  44  68  93 134 175 212 285 332 388
#     4  11  21  42  68  96 130 170 215 276 321 386
#     4  12  26  40  62  99 137 173 211 261 341 404
#
# _framework density 19.281210000000002
#
# number of rings (size 3 to 8) (size 9 to 14) (size 15 to 20)
#    0.000    0.833    5.000    3.500    2.333    2.667 
#    0.000    1.250    0.000    0.000    0.000    0.000 
#    0.000    0.000    0.000    0.000    0.000    0.000 
#
# Total GULP energy -268362.243857 kJ/mol
# GULP energy per Si atom -5590.880080 kJ/mol
# Density = 1.923732 g / cm^3
# Si number density = 19.281210 Si / 1000 Ang^3
#
#
#
# Elastic Constant Matrix: (Units=GPa)
#
#
# Indices 1 2 3 4 5 6 
#
# 1 106.9262 35.5918 49.9906 0.0000 0.0000 0.0000
# 2 35.5918 37.6100 24.8157 0.0000 0.0000 0.0000
# 3 49.9906 24.8157 125.3948 0.0000 0.0000 0.0000
# 4 0.0000 0.0000 0.0000 15.9176 0.0000 0.0000
# 5 0.0000 0.0000 0.0000 0.0000 34.9402 0.0000
# 6 0.0000 0.0000 0.0000 0.0000 0.0000 -9.5420
#
#
#
# Elastic Compliance Matrix: (Units=1/GPa)
#
#
# Indices 1 2 3 4 5 6 
#
# 1 0.014970 -0.011765 -0.003640 0.000000 0.000000 0.000000
# 2 -0.011765 0.039828 -0.003192 0.000000 0.000000 0.000000
# 3 -0.003640 -0.003192 0.010057 0.000000 0.000000 0.000000
# 4 0.000000 0.000000 0.000000 0.062823 0.000000 0.000000
# 5 0.000000 0.000000 0.000000 0.000000 0.028620 0.000000
# 6 0.000000 0.000000 0.000000 0.000000 0.000000 -0.104800
#
#
# Mechanical properties :
#
#
# Convention : Reuss Voigt Hill
#
# Bulk Modulus (GPa) = 36.14966 54.52527 45.33746
# Shear Modulus (GPa) = 51.06522 18.89870 34.98196
#
# Velocity S-wave (km/s) = 5.15189 3.13415 4.26408
# Velocity P-wave (km/s) = 7.36061 6.43720 6.91434
#
# Compressibility (1/GPa) = 0.02766278
#
# Stress axis : x y z
#
# Youngs Moduli (GPa) = 66.79968 25.10765 99.42851
#
# Poissons Ratio (x) = 0.29540 0.36189
# Poissons Ratio (y) = 0.78592 0.31734
# Poissons Ratio (z) = 0.24313 0.08014
#
# Static dielectric constant tensor:
#      x y z
#    x 1.651340 0.000000 0.000000 
#    y 0.000000 1.672930 0.000000 
#    z 0.000000 0.000000 1.674500 
# 
# From -- ./inp_files/18386.got.cif
#   From: 2010.05.17/outbox.cif.g08.bks.cpg/sg64_10_cif.got.tgz:18386.got - 2010.06.03 16:29:19.
