data_PCOD9481827
_publ_section_title
;
Structure prediction by ZEFSAII (Michael W. Deem and Ramdas Pophale) SiO2 
 PCOD9481827
Probable space group: C M C A
;
_chemical_formula_sum "Si O2"
_cell_formula_units_Z 64
_cell_length_a 14.780313
_cell_length_b 12.597124
_cell_length_c 12.282388
_cell_angle_alpha 90.000000
_cell_angle_beta 90.000000
_cell_angle_gamma 90.000000
_cell_volume 2286.850890
_symmetry_space_group_name_H-M "C M C A"
_symmetry_group_IT_number 64
_symmetry_cell_setting 'orthorhombic'
loop_
_space_group_symop_operation_xyz
x,y,z
-x,1/2-y,1/2+z
x,-y,-z
-x,1/2+y,1/2-z
-x,-y,-z
x,1/2+y,1/2-z
-x,y,z
x,1/2-y,1/2+z
1/2+x,1/2+y,z
1/2-x,-y,1/2+z
1/2+x,1/2-y,-z
1/2-x,y,1/2-z
1/2-x,1/2-y,-z
1/2+x,y,1/2-z
1/2-x,1/2+y,z
1/2+x,-y,1/2+z
loop_
_atom_site_type_symbol
_atom_site_label
_atom_site_fract_x
_atom_site_fract_y
_atom_site_fract_z
Si Si1 0.666701 0.157362 0.669643
Si Si2 0.889559 0.844888 0.938038
Si Si3 0.400379 0.393170 0.383551
Si Si4 0.390272 0.607791 0.304419
O O1 0.750000 0.132056 0.750000
O O2 0.656139 0.115085 0.548368
O O3 0.589287 0.122223 0.752750
O O4 0.655442 0.283740 0.659351
O O5 0.861912 0.720048 0.921639
O O6 0.867000 0.901639 0.824029
O O7 0.000000 0.848452 0.950897
O O8 0.500000 0.397293 0.434008
O O9 0.360930 0.511702 0.382298
O O10 0.500000 0.617298 0.309441
#
# Coordination Sequence:
#
# PCOD9481827 Si02
#       4
#    16  16  16  16
#     4  11  22  34  53  81 119 157 193 240 291 351
#     4   9  18  35  60  87 116 155 199 243 296 351
#     4   9  19  36  57  82 112 148 198 251 289 335
#     4   9  19  36  57  82 112 148 198 251 289 335
#
# _framework density 27.986084999999999
#
# number of rings (size 3 to 8) (size 9 to 14) (size 15 to 20)
#    0.000    2.500    0.000    3.750    0.000    7.000 
#    0.000    7.500    0.000   12.000    0.000    0.000 
#    0.000    0.000    0.000    0.000    0.000    2.500 
#
# Total GULP energy -178888.305856 kJ/mol
# GULP energy per Si atom -5590.259558 kJ/mol
# Density = 2.792239 g / cm^3
# Si number density = 27.986085 Si / 1000 Ang^3
#
#
#
# Elastic Constant Matrix: (Units=GPa)
#
#
# Indices 1 2 3 4 5 6 
#
# 1 114.4307 17.1148 42.7032 0.0000 0.0000 0.0000
# 2 17.1148 100.6629 24.4445 0.0000 0.0000 0.0000
# 3 42.7032 24.4445 266.7973 0.0000 0.0000 0.0000
# 4 0.0000 0.0000 0.0000 33.3479 0.0000 0.0000
# 5 0.0000 0.0000 0.0000 0.0000 3.9794 0.0000
# 6 0.0000 0.0000 0.0000 0.0000 0.0000 19.5430
#
#
#
# Elastic Compliance Matrix: (Units=1/GPa)
#
#
# Indices 1 2 3 4 5 6 
#
# 1 0.009450 -0.001268 -0.001396 0.000000 0.000000 0.000000
# 2 -0.001268 0.010330 -0.000744 0.000000 0.000000 0.000000
# 3 -0.001396 -0.000744 0.004040 0.000000 0.000000 0.000000
# 4 0.000000 0.000000 0.000000 0.029987 0.000000 0.000000
# 5 0.000000 0.000000 0.000000 0.000000 0.251295 0.000000
# 6 0.000000 0.000000 0.000000 0.000000 0.000000 0.051169
#
#
# Mechanical properties :
#
#
# Convention : Reuss Voigt Hill
#
# Bulk Modulus (GPa) = 58.80757 72.26845 65.53801
# Shear Modulus (GPa) = 13.55917 37.88262 25.72090
#
# Velocity S-wave (km/s) = 2.20352 3.68315 3.03489
# Velocity P-wave (km/s) = 5.24717 6.63073 5.97910
#
# Compressibility (1/GPa) = 0.01700461
#
# Stress axis : x y z
#
# Youngs Moduli (GPa) = 105.82475 96.80331 247.53750
#
# Poissons Ratio (x) = 0.12270 0.34565
# Poissons Ratio (y) = 0.13414 0.18407
# Poissons Ratio (z) = 0.14777 0.07198
#
# Static dielectric constant tensor:
#      x y z
#    x 2.454820 0.000000 0.000000 
#    y 0.000000 2.292890 0.000000 
#    z 0.000000 0.000000 2.159560 
# 
# From -- ./inp_files/15473.got.cif
#   From: 2010.05.17/outbox.cif.g08.bks.cpg/sg64_8_cif.got.tgz:15473.got - 2010.06.03 16:29:19.
