data_PCOD9481407
_publ_section_title
;
Structure prediction by ZEFSAII (Michael W. Deem and Ramdas Pophale) SiO2 
 PCOD9481407
Probable space group: C M C A
;
_chemical_formula_sum "Si O2"
_cell_formula_units_Z 72
_cell_length_a 18.112298
_cell_length_b 8.162358
_cell_length_c 22.542363
_cell_angle_alpha 90.000000
_cell_angle_beta 90.000000
_cell_angle_gamma 90.000000
_cell_volume 3332.641767
_symmetry_space_group_name_H-M "C M C A"
_symmetry_group_IT_number 64
_symmetry_cell_setting 'orthorhombic'
loop_
_space_group_symop_operation_xyz
x,y,z
-x,1/2-y,1/2+z
x,-y,-z
-x,1/2+y,1/2-z
-x,-y,-z
x,1/2+y,1/2-z
-x,y,z
x,1/2-y,1/2+z
1/2+x,1/2+y,z
1/2-x,-y,1/2+z
1/2+x,1/2-y,-z
1/2-x,y,1/2-z
1/2-x,1/2-y,-z
1/2+x,y,1/2-z
1/2-x,1/2+y,z
1/2+x,-y,1/2+z
loop_
_atom_site_type_symbol
_atom_site_label
_atom_site_fract_x
_atom_site_fract_y
_atom_site_fract_z
Si Si1 0.711705 0.091808 0.562424
Si Si2 0.500000 0.544305 0.782225
Si Si3 0.363751 0.948522 0.934424
Si Si4 0.250000 0.704762 0.750000
Si Si5 0.844747 0.048061 0.178376
Si Si6 0.500000 0.092302 0.156261
O O1 0.679003 0.274145 0.560384
O O2 0.665424 0.991181 0.610185
O O3 0.705942 0.000000 0.500000
O O4 0.798099 0.076934 0.580730
O O5 0.428782 0.445007 0.803581
O O6 0.500000 0.535908 0.710720
O O7 0.500000 0.725200 0.813129
O O8 0.427725 0.931743 0.885434
O O9 0.392248 0.000000 0.000000
O O10 0.189323 0.602997 0.715165
O O11 0.206066 0.807077 0.798621
#
# Coordination Sequence:
#
# PCOD9481407 Si02
#       6
#    16   8  16   8  16   8
#     4  11  23  43  72 103 135 175 229 286 335 399
#     4  12  26  46  66  96 143 179 220 277 341 399
#     4  11  24  47  73 101 137 177 229 282 341 403
#     4  10  24  38  70  96 130 174 228 272 338 398
#     4  11  23  43  65  98 133 176 221 280 333 403
#     4  12  27  50  66 104 137 186 220 283 341 411
#
# _framework density 21.604482000000001
#
# number of rings (size 3 to 8) (size 9 to 14) (size 15 to 20)
#    0.000    0.889    2.222    5.667    6.222    0.000 
#    8.000    2.222    0.000    0.000    0.000    0.778 
#    0.000    0.000    0.000    0.000    0.000    0.000 
#
# Total GULP energy -201456.747673 kJ/mol
# GULP energy per Si atom -5596.020769 kJ/mol
# Density = 2.155531 g / cm^3
# Si number density = 21.604482 Si / 1000 Ang^3
#
#
#
# Elastic Constant Matrix: (Units=GPa)
#
#
# Indices 1 2 3 4 5 6 
#
# 1 457.6283 255.5970 258.1837 0.0000 0.0000 0.0000
# 2 255.5970 230.3834 180.7141 0.0000 0.0000 0.0000
# 3 258.1837 180.7141 266.8590 0.0000 0.0000 0.0000
# 4 0.0000 0.0000 0.0000 38.0119 0.0000 0.0000
# 5 0.0000 0.0000 0.0000 0.0000 34.9551 0.0000
# 6 0.0000 0.0000 0.0000 0.0000 0.0000 246.3316
#
#
#
# Elastic Compliance Matrix: (Units=1/GPa)
#
#
# Indices 1 2 3 4 5 6 
#
# 1 0.006782 -0.005071 -0.003127 0.000000 0.000000 0.000000
# 2 -0.005071 0.013050 -0.003932 0.000000 0.000000 0.000000
# 3 -0.003127 -0.003932 0.009435 0.000000 0.000000 0.000000
# 4 0.000000 0.000000 0.000000 0.026308 0.000000 0.000000
# 5 0.000000 0.000000 0.000000 0.000000 0.028608 0.000000
# 6 0.000000 0.000000 0.000000 0.000000 0.000000 0.004060
#
#
# Mechanical properties :
#
#
# Convention : Reuss Voigt Hill
#
# Bulk Modulus (GPa) = 199.68193 260.42893 230.05543
# Shear Modulus (GPa) = 43.79373 81.21814 62.50594
#
# Velocity S-wave (km/s) = 4.50718 6.13798 5.38468
# Velocity P-wave (km/s) = 10.94135 13.07818 12.05719
#
# Compressibility (1/GPa) = 0.00500796
#
# Stress axis : x y z
#
# Youngs Moduli (GPa) = 147.45411 76.62640 105.98374
#
# Poissons Ratio (x) = 0.38856 0.33145
# Poissons Ratio (y) = 0.74772 0.41668
# Poissons Ratio (z) = 0.46114 0.30126
#
# Static dielectric constant tensor:
#      x y z
#    x 1.829750 0.000000 0.000000 
#    y 0.000000 1.758790 0.000000 
#    z 0.000000 0.000000 1.778330 
# 
# From -- ./inp_files/45664.got.cif
#   From: 2010.05.17/outbox.cif.g08.bks.cpg/sg64_23_cif.got.tgz:45664.got - 2010.06.03 16:29:19.
