data_PCOD9481204
_publ_section_title
;
Structure prediction by ZEFSAII (Michael W. Deem and Ramdas Pophale) SiO2 
 PCOD9481204
Probable space group: C M C A
;
_chemical_formula_sum "Si O2"
_cell_formula_units_Z 72
_cell_length_a 20.273372
_cell_length_b 9.394609
_cell_length_c 15.502908
_cell_angle_alpha 90.000000
_cell_angle_beta 90.000000
_cell_angle_gamma 90.000000
_cell_volume 2952.690106
_symmetry_space_group_name_H-M "C M C A"
_symmetry_group_IT_number 64
_symmetry_cell_setting 'orthorhombic'
loop_
_space_group_symop_operation_xyz
x,y,z
-x,1/2-y,1/2+z
x,-y,-z
-x,1/2+y,1/2-z
-x,-y,-z
x,1/2+y,1/2-z
-x,y,z
x,1/2-y,1/2+z
1/2+x,1/2+y,z
1/2-x,-y,1/2+z
1/2+x,1/2-y,-z
1/2-x,y,1/2-z
1/2-x,1/2-y,-z
1/2+x,y,1/2-z
1/2-x,1/2+y,z
1/2+x,-y,1/2+z
loop_
_atom_site_type_symbol
_atom_site_label
_atom_site_fract_x
_atom_site_fract_y
_atom_site_fract_z
Si Si1 0.865138 0.340687 0.479858
Si Si2 0.608999 0.444660 0.756598
Si Si3 0.925311 0.107007 0.581371
Si Si4 0.500000 0.057297 0.611225
Si Si5 0.686101 0.303807 0.197792
O O1 0.841466 0.500000 0.500000
O O2 0.874164 0.232831 0.559118
O O3 0.819507 0.277290 0.404152
O O4 0.940499 0.362969 0.444190
O O5 0.588719 0.514684 0.665851
O O6 0.556421 0.478664 0.829287
O O7 0.673528 0.529949 0.786740
O O8 0.624095 0.281402 0.738096
O O9 0.000000 0.163650 0.590126
O O10 0.923269 0.000000 0.500000
O O11 0.750000 0.260516 0.250000
#
# Coordination Sequence:
#
# PCOD9481204 Si02
#       5
#    16  16  16   8  16
#     4  11  24  43  69 106 145 182 229 292 355 418
#     4  11  24  41  72 101 136 183 228 282 350 422
#     4  11  22  39  66 106 148 173 218 283 357 428
#     4  10  23  40  66 108 143 176 223 276 361 419
#     4  11  26  48  68  94 137 187 240 283 340 410
#
# _framework density 24.384543000000001
#
# number of rings (size 3 to 8) (size 9 to 14) (size 15 to 20)
#    0.000    1.111    4.444    1.000    6.222    3.556 
#    0.000    2.222    0.000    0.000    0.000    0.000 
#    0.000    0.000    0.000    0.000    0.000    0.000 
#
# Total GULP energy -200449.396216 kJ/mol
# GULP energy per Si atom -5568.038784 kJ/mol
# Density = 2.432904 g / cm^3
# Si number density = 24.384543 Si / 1000 Ang^3
#
#
#
# Elastic Constant Matrix: (Units=GPa)
#
#
# Indices 1 2 3 4 5 6 
#
# 1 59.3041 8.1074 17.7548 0.0000 0.0000 0.0000
# 2 8.1074 86.3738 8.0529 0.0000 0.0000 0.0000
# 3 17.7548 8.0529 101.0500 0.0000 0.0000 0.0000
# 4 0.0000 0.0000 0.0000 46.2188 0.0000 0.0000
# 5 0.0000 0.0000 0.0000 0.0000 5.7881 0.0000
# 6 0.0000 0.0000 0.0000 0.0000 0.0000 5.0716
#
#
#
# Elastic Compliance Matrix: (Units=1/GPa)
#
#
# Indices 1 2 3 4 5 6 
#
# 1 0.017966 -0.001402 -0.003045 0.000000 0.000000 0.000000
# 2 -0.001402 0.011774 -0.000692 0.000000 0.000000 0.000000
# 3 -0.003045 -0.000692 0.010486 0.000000 0.000000 0.000000
# 4 0.000000 0.000000 0.000000 0.021636 0.000000 0.000000
# 5 0.000000 0.000000 0.000000 0.000000 0.172767 0.000000
# 6 0.000000 0.000000 0.000000 0.000000 0.000000 0.197175
#
#
# Mechanical properties :
#
#
# Convention : Reuss Voigt Hill
#
# Bulk Modulus (GPa) = 33.39210 34.95090 34.17150
# Shear Modulus (GPa) = 11.06036 25.60323 18.33180
#
# Velocity S-wave (km/s) = 2.13205 3.24385 2.74483
# Velocity P-wave (km/s) = 4.44798 5.32864 4.90811
#
# Compressibility (1/GPa) = 0.02994721
#
# Stress axis : x y z
#
# Youngs Moduli (GPa) = 55.66214 84.93490 95.36332
#
# Poissons Ratio (x) = 0.11912 0.29037
# Poissons Ratio (y) = 0.07806 0.06598
# Poissons Ratio (z) = 0.16948 0.05876
#
# Static dielectric constant tensor:
#      x y z
#    x 1.931070 0.000000 0.000000 
#    y 0.000000 1.939460 0.000000 
#    z 0.000000 0.000000 1.985900 
# 
# From -- ./inp_files/34836.got.cif
#   From: 2010.05.17/outbox.cif.g08.bks.cpg/sg64_18_cif.got.tgz:34836.got - 2010.06.03 16:29:19.
