data_PCOD9481761
_publ_section_title
;
Structure prediction by ZEFSAII (Michael W. Deem and Ramdas Pophale) SiO2 
 PCOD9481761
Probable space group: C M C A
;
_chemical_formula_sum "Si O2"
_cell_formula_units_Z 64
_cell_length_a 14.947498
_cell_length_b 37.751583
_cell_length_c 5.032109
_cell_angle_alpha 90.000000
_cell_angle_beta 90.000000
_cell_angle_gamma 90.000000
_cell_volume 2839.577400
_symmetry_space_group_name_H-M "C M C A"
_symmetry_group_IT_number 64
_symmetry_cell_setting 'orthorhombic'
loop_
_space_group_symop_operation_xyz
x,y,z
-x,1/2-y,1/2+z
x,-y,-z
-x,1/2+y,1/2-z
-x,-y,-z
x,1/2+y,1/2-z
-x,y,z
x,1/2-y,1/2+z
1/2+x,1/2+y,z
1/2-x,-y,1/2+z
1/2+x,1/2-y,-z
1/2-x,y,1/2-z
1/2-x,1/2-y,-z
1/2+x,y,1/2-z
1/2-x,1/2+y,z
1/2+x,-y,1/2+z
loop_
_atom_site_type_symbol
_atom_site_label
_atom_site_fract_x
_atom_site_fract_y
_atom_site_fract_z
Si Si1 0.683587 0.538405 0.000756
Si Si2 0.898917 0.656266 0.872612
Si Si3 0.650394 0.113311 0.365854
Si Si4 0.890594 0.729343 0.114405
O O1 0.750000 0.543429 0.750000
O O2 0.636459 0.500000 0.000000
O O3 0.750000 0.535743 0.250000
O O4 0.625627 0.573738 0.039043
O O5 0.852452 0.638965 0.619244
O O6 0.858894 0.692106 0.996594
O O7 0.000000 0.664592 0.780618
O O8 0.902740 0.629014 0.117913
O O9 0.750000 0.111313 0.250000
O O10 0.863349 0.760283 0.910298
O O11 0.000000 0.727709 0.118590
#
# Coordination Sequence:
#
# PCOD9481761 Si02
#       4
#    16  16  16  16
#     4   9  17  31  53  80 106 137 183 229 261 303
#     4  11  22  36  57  83 111 143 180 226 275 324
#     4  11  21  36  57  82 112 144 180 223 273 325
#     4   9  17  31  52  76 100 133 182 228 260 304
#
# _framework density 22.538564999999998
#
# number of rings (size 3 to 8) (size 9 to 14) (size 15 to 20)
#    0.000    2.000    0.000    6.000    0.000    4.000 
#    0.000    0.000    0.000   19.500    0.000    0.000 
#    0.000    0.000    0.000    0.000    0.000    0.000 
#
# Total GULP energy -178715.907102 kJ/mol
# GULP energy per Si atom -5584.872097 kJ/mol
# Density = 2.248727 g / cm^3
# Si number density = 22.538565 Si / 1000 Ang^3
#
#
#
# Elastic Constant Matrix: (Units=GPa)
#
#
# Indices 1 2 3 4 5 6 
#
# 1 29.1395 9.0978 0.1571 0.0000 0.0000 0.0000
# 2 9.0978 100.5668 7.3646 0.0000 0.0000 0.0000
# 3 0.1571 7.3646 126.9994 0.0000 0.0000 0.0000
# 4 0.0000 0.0000 0.0000 35.8412 0.0000 0.0000
# 5 0.0000 0.0000 0.0000 0.0000 5.6410 0.0000
# 6 0.0000 0.0000 0.0000 0.0000 0.0000 26.2851
#
#
#
# Elastic Compliance Matrix: (Units=1/GPa)
#
#
# Indices 1 2 3 4 5 6 
#
# 1 0.035318 -0.003205 0.000142 0.000000 0.000000 0.000000
# 2 -0.003205 0.010277 -0.000592 0.000000 0.000000 0.000000
# 3 0.000142 -0.000592 0.007908 0.000000 0.000000 0.000000
# 4 0.000000 0.000000 0.000000 0.027901 0.000000 0.000000
# 5 0.000000 0.000000 0.000000 0.000000 0.177272 0.000000
# 6 0.000000 0.000000 0.000000 0.000000 0.000000 0.038044
#
#
# Mechanical properties :
#
#
# Convention : Reuss Voigt Hill
#
# Bulk Modulus (GPa) = 21.64860 32.21610 26.93235
# Shear Modulus (GPa) = 15.65298 29.55922 22.60610
#
# Velocity S-wave (km/s) = 2.63819 3.62539 3.17045
# Velocity P-wave (km/s) = 4.34811 5.64352 5.03763
#
# Compressibility (1/GPa) = 0.04619236
#
# Stress axis : x y z
#
# Youngs Moduli (GPa) = 28.31443 97.30493 126.45094
#
# Poissons Ratio (x) = 0.31191 -0.01798
# Poissons Ratio (y) = 0.09076 0.07486
# Poissons Ratio (z) = -0.00403 0.05760
#
# Static dielectric constant tensor:
#      x y z
#    x 1.856090 0.000000 0.000000 
#    y 0.000000 1.924690 0.000000 
#    z 0.000000 0.000000 1.773200 
# 
# From -- ./inp_files/1913.got.cif
#   From: 2010.05.17/outbox.cif.g08.bks.cpg/sg64_1_cif.got.tgz:1913.got - 2010.06.03 16:29:19.
