data_PCOD9481995
_publ_section_title
;
Structure prediction by ZEFSAII (Michael W. Deem and Ramdas Pophale) SiO2 
 PCOD9481995
Probable space group: C M C A
;
_chemical_formula_sum "Si O2"
_cell_formula_units_Z 80
_cell_length_a 8.850187
_cell_length_b 24.559154
_cell_length_c 19.094647
_cell_angle_alpha 90.000000
_cell_angle_beta 90.000000
_cell_angle_gamma 90.000000
_cell_volume 4150.280823
_symmetry_space_group_name_H-M "C M C A"
_symmetry_group_IT_number 64
_symmetry_cell_setting 'orthorhombic'
loop_
_space_group_symop_operation_xyz
x,y,z
-x,1/2-y,1/2+z
x,-y,-z
-x,1/2+y,1/2-z
-x,-y,-z
x,1/2+y,1/2-z
-x,y,z
x,1/2-y,1/2+z
1/2+x,1/2+y,z
1/2-x,-y,1/2+z
1/2+x,1/2-y,-z
1/2-x,y,1/2-z
1/2-x,1/2-y,-z
1/2+x,y,1/2-z
1/2-x,1/2+y,z
1/2+x,-y,1/2+z
loop_
_atom_site_type_symbol
_atom_site_label
_atom_site_fract_x
_atom_site_fract_y
_atom_site_fract_z
Si Si1 0.679513 0.721893 0.431476
Si Si2 0.819721 0.696565 0.826897
Si Si3 0.679245 0.592930 0.448238
Si Si4 0.820371 0.020435 0.173890
Si Si5 0.179104 0.907245 0.097975
O O1 0.500000 0.732243 0.429968
O O2 0.750000 0.750000 0.500000
O O3 0.756843 0.749651 0.364756
O O4 0.703512 0.657286 0.435337
O O5 0.750000 0.690971 0.750000
O O6 0.765488 0.645496 0.873482
O O7 0.000000 0.697646 0.823591
O O8 0.500000 0.583349 0.455093
O O9 0.745368 0.558878 0.384124
O O10 0.761242 0.578384 0.520820
O O11 0.750000 0.029413 0.250000
O O12 0.000000 0.029822 0.175686
O O13 0.794912 0.958260 0.149049
O O14 0.000000 0.895941 0.095304
#
# Coordination Sequence:
#
# PCOD9481995 Si02
#       5
#    16  16  16  16  16
#     4  11  23  41  65  94 127 167 211 259 315 377
#     4  12  25  41  64  95 129 169 213 264 323 380
#     4  11  24  41  66  96 127 167 213 260 316 380
#     4  11  25  43  64  92 127 169 212 262 321 379
#     4  11  23  41  66  95 128 166 212 264 318 380
#
# _framework density 19.275804000000001
#
# number of rings (size 3 to 8) (size 9 to 14) (size 15 to 20)
#    0.000    0.800    2.000    5.400    0.000   10.400 
#    0.000    0.000    0.000    0.000    0.000    0.000 
#    0.000    0.000    0.000    0.000    0.000    0.000 
#
# Total GULP energy -223922.832857 kJ/mol
# GULP energy per Si atom -5598.070821 kJ/mol
# Density = 1.923193 g / cm^3
# Si number density = 19.275804 Si / 1000 Ang^3
#
#
#
# Elastic Constant Matrix: (Units=GPa)
#
#
# Indices 1 2 3 4 5 6 
#
# 1 102.2793 33.5937 32.5318 0.0000 0.0000 0.0000
# 2 33.5937 25.3134 4.7928 0.0000 0.0000 0.0000
# 3 32.5318 4.7928 125.5857 0.0000 0.0000 0.0000
# 4 0.0000 0.0000 0.0000 26.9110 0.0000 0.0000
# 5 0.0000 0.0000 0.0000 0.0000 42.2711 0.0000
# 6 0.0000 0.0000 0.0000 0.0000 0.0000 25.8495
#
#
#
# Elastic Compliance Matrix: (Units=1/GPa)
#
#
# Indices 1 2 3 4 5 6 
#
# 1 0.019156 -0.024661 -0.004021 0.000000 0.000000 0.000000
# 2 -0.024661 0.071540 0.003658 0.000000 0.000000 0.000000
# 3 -0.004021 0.003658 0.008865 0.000000 0.000000 0.000000
# 4 0.000000 0.000000 0.000000 0.037159 0.000000 0.000000
# 5 0.000000 0.000000 0.000000 0.000000 0.023657 0.000000
# 6 0.000000 0.000000 0.000000 0.000000 0.000000 0.038685
#
#
# Mechanical properties :
#
#
# Convention : Reuss Voigt Hill
#
# Bulk Modulus (GPa) = 20.19680 43.89053 32.04366
# Shear Modulus (GPa) = 18.82430 31.15701 24.99065
#
# Velocity S-wave (km/s) = 3.12841 4.02478 3.60457
# Velocity P-wave (km/s) = 4.85282 6.66466 5.82956
#
# Compressibility (1/GPa) = 0.04951279
#
# Stress axis : x y z
#
# Youngs Moduli (GPa) = 52.20315 13.97823 112.80699
#
# Poissons Ratio (x) = 0.34471 0.45360
# Poissons Ratio (y) = 1.28737 -0.41264
# Poissons Ratio (z) = 0.20991 -0.05113
#
# Static dielectric constant tensor:
#      x y z
#    x 1.641620 0.000000 0.000000 
#    y 0.000000 1.656230 0.000000 
#    z 0.000000 0.000000 1.645850 
# 
# From -- ./inp_files/29720.got.cif
#   From: 2010.05.17/outbox.cif.g08.bks.cpg/sg64_15_cif.got.tgz:29720.got - 2010.06.03 16:29:19.
