data_PCOD9481424
_publ_section_title
;
Structure prediction by ZEFSAII (Michael W. Deem and Ramdas Pophale) SiO2 
 PCOD9481424
Probable space group: C M C A
;
_chemical_formula_sum "Si O2"
_cell_formula_units_Z 88
_cell_length_a 28.594411
_cell_length_b 8.959857
_cell_length_c 15.362405
_cell_angle_alpha 90.000000
_cell_angle_beta 90.000000
_cell_angle_gamma 90.000000
_cell_volume 3935.876329
_symmetry_space_group_name_H-M "C M C A"
_symmetry_group_IT_number 64
_symmetry_cell_setting 'orthorhombic'
loop_
_space_group_symop_operation_xyz
x,y,z
-x,1/2-y,1/2+z
x,-y,-z
-x,1/2+y,1/2-z
-x,-y,-z
x,1/2+y,1/2-z
-x,y,z
x,1/2-y,1/2+z
1/2+x,1/2+y,z
1/2-x,-y,1/2+z
1/2+x,1/2-y,-z
1/2-x,y,1/2-z
1/2-x,1/2-y,-z
1/2+x,y,1/2-z
1/2-x,1/2+y,z
1/2+x,-y,1/2+z
loop_
_atom_site_type_symbol
_atom_site_label
_atom_site_fract_x
_atom_site_fract_y
_atom_site_fract_z
Si Si1 0.685255 0.871938 0.221189
Si Si2 0.092391 0.777045 0.846141
Si Si3 0.353650 0.067288 0.597443
Si Si4 0.750000 0.617975 0.250000
Si Si5 0.000000 0.616653 0.129755
Si Si6 0.000000 0.330080 0.243773
Si Si7 0.906311 0.851179 0.529961
O O1 0.633836 0.833143 0.186981
O O2 0.683556 0.896826 0.326417
O O3 0.716253 0.728744 0.197642
O O4 0.714402 0.017099 0.193608
O O5 0.047142 0.751076 0.788378
O O6 0.113090 0.943485 0.855926
O O7 0.078193 0.731715 0.942858
O O8 0.378306 0.226735 0.582413
O O9 0.341487 0.000000 0.500000
O O10 0.000000 0.792177 0.154846
O O11 0.048122 0.592597 0.079963
O O12 0.000000 0.495620 0.207261
O O13 0.878845 0.000000 0.500000
#
# Coordination Sequence:
#
# PCOD9481424 Si02
#       7
#    16  16  16   8   8   8  16
#     4  11  22  45  71 103 137 181 231 297 345 437
#     4  11  24  42  69  99 141 183 235 285 354 415
#     4  10  24  43  67 102 144 187 231 289 361 416
#     4  10  24  40  76 102 132 176 242 286 366 408
#     4  12  26  43  60  97 141 182 247 293 337 419
#     4  12  27  40  67 105 136 186 233 276 341 426
#     4  11  23  42  67  91 135 191 228 297 344 408
#
# _framework density 22.358426999999999
#
# number of rings (size 3 to 8) (size 9 to 14) (size 15 to 20)
#    0.000    1.091    3.636    1.909    7.636    0.000 
#    0.000    3.636    0.000    0.000    0.000    0.000 
#    0.000    0.000    0.000    0.000    0.000    0.000 
#
# Total GULP energy -245403.602061 kJ/mol
# GULP energy per Si atom -5577.354592 kJ/mol
# Density = 2.230754 g / cm^3
# Si number density = 22.358427 Si / 1000 Ang^3
#
#
#
# Elastic Constant Matrix: (Units=GPa)
#
#
# Indices 1 2 3 4 5 6 
#
# 1 107.9777 33.0150 19.3449 0.0000 0.0000 0.0000
# 2 33.0150 140.8155 17.6138 0.0000 0.0000 0.0000
# 3 19.3449 17.6138 46.1031 0.0000 0.0000 0.0000
# 4 0.0000 0.0000 0.0000 36.7472 0.0000 0.0000
# 5 0.0000 0.0000 0.0000 0.0000 6.4859 0.0000
# 6 0.0000 0.0000 0.0000 0.0000 0.0000 -0.2194
#
#
#
# Elastic Compliance Matrix: (Units=1/GPa)
#
#
# Indices 1 2 3 4 5 6 
#
# 1 0.010530 -0.002012 -0.003650 0.000000 0.000000 0.000000
# 2 -0.002012 0.007842 -0.002152 0.000000 0.000000 0.000000
# 3 -0.003650 -0.002152 0.024044 0.000000 0.000000 0.000000
# 4 0.000000 0.000000 0.000000 0.027213 0.000000 0.000000
# 5 0.000000 0.000000 0.000000 0.000000 0.154179 0.000000
# 6 0.000000 0.000000 0.000000 0.000000 0.000000 -4.558096
#
#
# Mechanical properties :
#
#
# Convention : Reuss Voigt Hill
#
# Bulk Modulus (GPa) = 37.32873 48.31596 42.82234
# Shear Modulus (GPa) = -1.16017 23.59761 11.21872
#
# Velocity S-wave (km/s) = -0.72112 3.25225 2.24245
# Velocity P-wave (km/s) = 4.00481 5.97993 5.08911
#
# Compressibility (1/GPa) = 0.02678902
#
# Stress axis : x y z
#
# Youngs Moduli (GPa) = 94.96375 127.51098 41.59032
#
# Poissons Ratio (x) = 0.25660 0.15179
# Poissons Ratio (y) = 0.19110 0.08950
# Poissons Ratio (z) = 0.34659 0.27438
#
# Static dielectric constant tensor:
#      x y z
#    x 1.921580 0.000000 0.000000 
#    y 0.000000 1.881510 0.000000 
#    z 0.000000 0.000000 1.857910 
# 
# From -- ./inp_files/35750.got.cif
#   From: 2010.05.17/outbox.cif.g08.bks.cpg/sg64_18_cif.got.tgz:35750.got - 2010.06.03 16:29:19.
