data_PCOD9481313
_publ_section_title
;
Structure prediction by ZEFSAII (Michael W. Deem and Ramdas Pophale) SiO2 
 PCOD9481313
Probable space group: C M C A
;
_chemical_formula_sum "Si O2"
_cell_formula_units_Z 56
_cell_length_a 9.548501
_cell_length_b 18.329666
_cell_length_c 14.468560
_cell_angle_alpha 90.000000
_cell_angle_beta 90.000000
_cell_angle_gamma 90.000000
_cell_volume 2532.299440
_symmetry_space_group_name_H-M "C M C A"
_symmetry_group_IT_number 64
_symmetry_cell_setting 'orthorhombic'
loop_
_space_group_symop_operation_xyz
x,y,z
-x,1/2-y,1/2+z
x,-y,-z
-x,1/2+y,1/2-z
-x,-y,-z
x,1/2+y,1/2-z
-x,y,z
x,1/2-y,1/2+z
1/2+x,1/2+y,z
1/2-x,-y,1/2+z
1/2+x,1/2-y,-z
1/2-x,y,1/2-z
1/2-x,1/2-y,-z
1/2+x,y,1/2-z
1/2-x,1/2+y,z
1/2+x,-y,1/2+z
loop_
_atom_site_type_symbol
_atom_site_label
_atom_site_fract_x
_atom_site_fract_y
_atom_site_fract_z
Si Si1 0.835710 0.925738 0.402784
Si Si2 0.750000 0.527490 0.250000
Si Si3 0.845003 0.869544 0.597128
Si Si4 0.336843 0.742394 0.656236
O O1 0.817398 0.925257 0.513231
O O2 0.822892 0.839681 0.380332
O O3 0.000000 0.946253 0.381818
O O4 0.731318 0.970427 0.335550
O O5 0.843485 0.585943 0.193308
O O6 0.731216 0.806099 0.595499
O O7 0.000000 0.838178 0.582249
O O8 0.500000 0.757292 0.671363
O O9 0.250000 0.746030 0.750000
#
# Coordination Sequence:
#
# PCOD9481313 Si02
#       4
#    16   8  16  16
#     4  10  23  43  66  95 132 177 219 266 328 388
#     4  12  22  38  64  96 132 176 220 260 316 390
#     4  11  24  43  68  97 134 174 216 268 329 389
#     4  11  22  41  69  97 128 169 219 271 326 383
#
# _framework density 22.114288999999999
#
# number of rings (size 3 to 8) (size 9 to 14) (size 15 to 20)
#    0.000    1.143    2.857    3.429    0.000    3.429 
#    0.000    4.286    0.000    8.571    0.000    0.000 
#    0.000    0.000    0.000    0.000    0.000    0.000 
#
# Total GULP energy -156014.882971 kJ/mol
# GULP energy per Si atom -5571.960106 kJ/mol
# Density = 2.206396 g / cm^3
# Si number density = 22.114289 Si / 1000 Ang^3
#
#
#
# Elastic Constant Matrix: (Units=GPa)
#
#
# Indices 1 2 3 4 5 6 
#
# 1 89.1607 47.3415 37.5401 0.0000 0.0000 0.0000
# 2 47.3415 97.1317 16.5188 0.0000 0.0000 0.0000
# 3 37.5401 16.5188 116.2605 0.0000 0.0000 0.0000
# 4 0.0000 0.0000 0.0000 41.8573 0.0000 0.0000
# 5 0.0000 0.0000 0.0000 0.0000 24.0957 0.0000
# 6 0.0000 0.0000 0.0000 0.0000 0.0000 15.4696
#
#
#
# Elastic Compliance Matrix: (Units=1/GPa)
#
#
# Indices 1 2 3 4 5 6 
#
# 1 0.017117 -0.007586 -0.004449 0.000000 0.000000 0.000000
# 2 -0.007586 0.013912 0.000473 0.000000 0.000000 0.000000
# 3 -0.004449 0.000473 0.009971 0.000000 0.000000 0.000000
# 4 0.000000 0.000000 0.000000 0.023891 0.000000 0.000000
# 5 0.000000 0.000000 0.000000 0.000000 0.041501 0.000000
# 6 0.000000 0.000000 0.000000 0.000000 0.000000 0.064643
#
#
# Mechanical properties :
#
#
# Convention : Reuss Voigt Hill
#
# Bulk Modulus (GPa) = 55.94334 56.15041 56.04687
# Shear Modulus (GPa) = 24.98523 29.69467 27.33995
#
# Velocity S-wave (km/s) = 3.36493 3.66837 3.51992
# Velocity P-wave (km/s) = 6.35998 6.58701 6.47449
#
# Compressibility (1/GPa) = 0.01787523
#
# Stress axis : x y z
#
# Youngs Moduli (GPa) = 58.42171 71.87887 100.29277
#
# Poissons Ratio (x) = 0.54528 0.44622
# Poissons Ratio (y) = 0.44319 -0.04742
# Poissons Ratio (z) = 0.25993 -0.03398
#
# Static dielectric constant tensor:
#      x y z
#    x 1.743430 0.000000 0.000000 
#    y 0.000000 1.869840 0.000000 
#    z 0.000000 0.000000 1.862420 
# 
# From -- ./inp_files/20686.got.cif
#   From: 2010.05.17/outbox.cif.g08.bks.cpg/sg64_11_cif.got.tgz:20686.got - 2010.06.03 16:29:19.
