data_PCOD9481529
_publ_section_title
;
Structure prediction by ZEFSAII (Michael W. Deem and Ramdas Pophale) SiO2 
 PCOD9481529
Probable space group: C M C A
;
_chemical_formula_sum "Si O2"
_cell_formula_units_Z 64
_cell_length_a 18.015405
_cell_length_b 18.565561
_cell_length_c 9.607249
_cell_angle_alpha 90.000000
_cell_angle_beta 90.000000
_cell_angle_gamma 90.000000
_cell_volume 3213.299109
_symmetry_space_group_name_H-M "C M C A"
_symmetry_group_IT_number 64
_symmetry_cell_setting 'orthorhombic'
loop_
_space_group_symop_operation_xyz
x,y,z
-x,1/2-y,1/2+z
x,-y,-z
-x,1/2+y,1/2-z
-x,-y,-z
x,1/2+y,1/2-z
-x,y,z
x,1/2-y,1/2+z
1/2+x,1/2+y,z
1/2-x,-y,1/2+z
1/2+x,1/2-y,-z
1/2-x,y,1/2-z
1/2-x,1/2-y,-z
1/2+x,y,1/2-z
1/2-x,1/2+y,z
1/2+x,-y,1/2+z
loop_
_atom_site_type_symbol
_atom_site_label
_atom_site_fract_x
_atom_site_fract_y
_atom_site_fract_z
Si Si1 0.326894 0.791024 0.532013
Si Si2 0.186504 0.452266 0.638482
Si Si3 0.089679 0.185817 0.741516
Si Si4 0.088589 0.975152 0.349148
O O1 0.250000 0.750000 0.500000
O O2 0.310345 0.868977 0.597333
O O3 0.373603 0.802287 0.391377
O O4 0.375849 0.743937 0.637341
O O5 0.191325 0.500000 0.500000
O O6 0.250000 0.470522 0.750000
O O7 0.113158 0.472608 0.725115
O O8 0.111603 0.106168 0.687471
O O9 0.000000 0.190503 0.747597
O O10 0.000000 0.974975 0.357244
O O11 0.118011 0.000000 0.500000
#
# Coordination Sequence:
#
# PCOD9481529 Si02
#       4
#    16  16  16  16
#     4  12  27  46  68 103 141 181 232 287 348 417
#     4  12  26  44  70 100 135 181 229 284 348 415
#     4  11  25  46  71 101 139 185 231 285 347 415
#     4  10  24  45  71 102 138 179 228 285 345 413
#
# _framework density 19.917224000000001
#
# number of rings (size 3 to 8) (size 9 to 14) (size 15 to 20)
#    0.000    0.750    2.500    3.750   10.500    2.500 
#    0.000    0.000    0.000    0.000    0.000    0.000 
#    0.000    0.000    0.000    0.000    0.000    0.000 
#
# Total GULP energy -179039.940037 kJ/mol
# GULP energy per Si atom -5594.998126 kJ/mol
# Density = 1.987189 g / cm^3
# Si number density = 19.917224 Si / 1000 Ang^3
#
#
#
# Elastic Constant Matrix: (Units=GPa)
#
#
# Indices 1 2 3 4 5 6 
#
# 1 45.6485 20.2184 30.8533 0.0000 0.0000 0.0000
# 2 20.2184 122.3369 53.0574 0.0000 0.0000 0.0000
# 3 30.8533 53.0574 166.6306 0.0000 0.0000 0.0000
# 4 0.0000 0.0000 0.0000 48.4824 0.0000 0.0000
# 5 0.0000 0.0000 0.0000 0.0000 41.8614 0.0000
# 6 0.0000 0.0000 0.0000 0.0000 0.0000 23.0993
#
#
#
# Elastic Compliance Matrix: (Units=1/GPa)
#
#
# Indices 1 2 3 4 5 6 
#
# 1 0.025700 -0.002533 -0.003952 0.000000 0.000000 0.000000
# 2 -0.002533 0.009734 -0.002630 0.000000 0.000000 0.000000
# 3 -0.003952 -0.002630 0.007571 0.000000 0.000000 0.000000
# 4 0.000000 0.000000 0.000000 0.020626 0.000000 0.000000
# 5 0.000000 0.000000 0.000000 0.000000 0.023888 0.000000
# 6 0.000000 0.000000 0.000000 0.000000 0.000000 0.043291
#
#
# Mechanical properties :
#
#
# Convention : Reuss Voigt Hill
#
# Bulk Modulus (GPa) = 40.36699 60.31935 50.34317
# Shear Modulus (GPa) = 31.78678 38.05439 34.92059
#
# Velocity S-wave (km/s) = 3.99926 4.37581 4.19177
# Velocity P-wave (km/s) = 6.45266 7.47537 6.98276
#
# Compressibility (1/GPa) = 0.02477272
#
# Stress axis : x y z
#
# Youngs Moduli (GPa) = 38.91110 102.73737 132.09136
#
# Poissons Ratio (x) = 0.26028 0.52201
# Poissons Ratio (y) = 0.09858 0.34743
# Poissons Ratio (z) = 0.15377 0.27022
#
# Static dielectric constant tensor:
#      x y z
#    x 1.714860 0.000000 0.000000 
#    y 0.000000 1.671560 0.000000 
#    z 0.000000 0.000000 1.677780 
# 
# From -- ./inp_files/6587.got.cif
#   From: 2010.05.17/outbox.cif.g08.bks.cpg/sg64_4_cif.got.tgz:6587.got - 2010.06.03 16:29:19.
