data_PCOD9481469
_publ_section_title
;
Structure prediction by ZEFSAII (Michael W. Deem and Ramdas Pophale) SiO2 
 PCOD9481469
Probable space group: C M C A
;
_chemical_formula_sum "Si O2"
_cell_formula_units_Z 80
_cell_length_a 24.881301
_cell_length_b 9.436281
_cell_length_c 17.485730
_cell_angle_alpha 90.000000
_cell_angle_beta 90.000000
_cell_angle_gamma 90.000000
_cell_volume 4105.421178
_symmetry_space_group_name_H-M "C M C A"
_symmetry_group_IT_number 64
_symmetry_cell_setting 'orthorhombic'
loop_
_space_group_symop_operation_xyz
x,y,z
-x,1/2-y,1/2+z
x,-y,-z
-x,1/2+y,1/2-z
-x,-y,-z
x,1/2+y,1/2-z
-x,y,z
x,1/2-y,1/2+z
1/2+x,1/2+y,z
1/2-x,-y,1/2+z
1/2+x,1/2-y,-z
1/2-x,y,1/2-z
1/2-x,1/2-y,-z
1/2+x,y,1/2-z
1/2-x,1/2+y,z
1/2+x,-y,1/2+z
loop_
_atom_site_type_symbol
_atom_site_label
_atom_site_fract_x
_atom_site_fract_y
_atom_site_fract_z
Si Si1 0.000000 0.413052 0.311138
Si Si2 0.250000 0.011862 0.750000
Si Si3 0.000000 0.178600 0.432993
Si Si4 0.678431 0.737742 0.312255
Si Si5 0.591358 0.658778 0.697935
Si Si6 0.880936 0.433933 0.921873
Si Si7 0.500000 0.190330 0.400636
O O1 0.947868 0.421625 0.257414
O O2 0.000000 0.263367 0.353542
O O3 0.000000 0.527147 0.377922
O O4 0.286713 0.119070 0.699350
O O5 0.284615 0.899783 0.798829
O O6 0.055422 0.093072 0.432555
O O7 0.000000 0.271778 0.510341
O O8 0.632530 0.747939 0.246892
O O9 0.647963 0.708327 0.392064
O O10 0.622705 0.548617 0.645426
O O11 0.551939 0.744129 0.641729
O O12 0.859201 0.500000 0.000000
#
# Coordination Sequence:
#
# PCOD9481469 Si02
#       7
#     8   8   8  16  16  16   8
#     4  11  23  34  56  94 121 168 224 258 291 382
#     4  10  24  42  70  96 120 152 224 280 330 368
#     4  12  22  39  57  89 143 175 203 253 313 377
#     4  11  22  43  69  94 121 165 213 276 322 382
#     4  11  22  37  64  91 125 170 211 260 307 387
#     4  12  23  40  63  95 133 171 212 252 320 385
#     4  11  23  36  55  92 139 171 209 249 311 378
#
# _framework density 19.486428
#
# number of rings (size 3 to 8) (size 9 to 14) (size 15 to 20)
#    0.000    0.800    6.000    3.000    2.800    0.000 
#    0.000    1.000    0.000    0.000    0.000    0.000 
#    0.000    0.000    0.000    0.000    0.000    0.000 
#
# Total GULP energy -223320.517481 kJ/mol
# GULP energy per Si atom -5583.012937 kJ/mol
# Density = 1.944208 g / cm^3
# Si number density = 19.486428 Si / 1000 Ang^3
#
#
#
# Elastic Constant Matrix: (Units=GPa)
#
#
# Indices 1 2 3 4 5 6 
#
# 1 70.5345 14.1192 9.4113 0.0000 0.0000 0.0000
# 2 14.1192 69.0574 13.7292 0.0000 0.0000 0.0000
# 3 9.4113 13.7292 97.9996 0.0000 0.0000 0.0000
# 4 0.0000 0.0000 0.0000 38.5700 0.0000 0.0000
# 5 0.0000 0.0000 0.0000 0.0000 18.5657 0.0000
# 6 0.0000 0.0000 0.0000 0.0000 0.0000 42.0269
#
#
#
# Elastic Compliance Matrix: (Units=1/GPa)
#
#
# Indices 1 2 3 4 5 6 
#
# 1 0.014883 -0.002838 -0.001032 0.000000 0.000000 0.000000
# 2 -0.002838 0.015437 -0.001890 0.000000 0.000000 0.000000
# 3 -0.001032 -0.001890 0.010568 0.000000 0.000000 0.000000
# 4 0.000000 0.000000 0.000000 0.025927 0.000000 0.000000
# 5 0.000000 0.000000 0.000000 0.000000 0.053863 0.000000
# 6 0.000000 0.000000 0.000000 0.000000 0.000000 0.023794
#
#
# Mechanical properties :
#
#
# Convention : Reuss Voigt Hill
#
# Bulk Modulus (GPa) = 34.04997 34.67898 34.36447
# Shear Modulus (GPa) = 30.16035 33.18797 31.67416
#
# Velocity S-wave (km/s) = 3.93843 4.13138 4.03606
# Velocity P-wave (km/s) = 6.18007 6.37125 6.27639
#
# Compressibility (1/GPa) = 0.02936860
#
# Stress axis : x y z
#
# Youngs Moduli (GPa) = 67.18993 64.78075 94.62537
#
# Poissons Ratio (x) = 0.18384 0.09763
# Poissons Ratio (y) = 0.19067 0.17885
# Poissons Ratio (z) = 0.06932 0.12244
#
# Static dielectric constant tensor:
#      x y z
#    x 1.717890 0.000000 0.000000 
#    y 0.000000 1.724190 0.000000 
#    z 0.000000 0.000000 1.663190 
# 
# From -- ./inp_files/27932.got.cif
#   From: 2010.05.17/outbox.cif.g08.bks.cpg/sg64_14_cif.got.tgz:27932.got - 2010.06.03 16:29:19.
