data_PCOD9481185
_publ_section_title
;
Structure prediction by ZEFSAII (Michael W. Deem and Ramdas Pophale) SiO2 
 PCOD9481185
Probable space group: C M C A
;
_chemical_formula_sum "Si O2"
_cell_formula_units_Z 72
_cell_length_a 23.654690
_cell_length_b 31.796653
_cell_length_c 5.234124
_cell_angle_alpha 90.000000
_cell_angle_beta 90.000000
_cell_angle_gamma 90.000000
_cell_volume 3936.793867
_symmetry_space_group_name_H-M "C M C A"
_symmetry_group_IT_number 64
_symmetry_cell_setting 'orthorhombic'
loop_
_space_group_symop_operation_xyz
x,y,z
-x,1/2-y,1/2+z
x,-y,-z
-x,1/2+y,1/2-z
-x,-y,-z
x,1/2+y,1/2-z
-x,y,z
x,1/2-y,1/2+z
1/2+x,1/2+y,z
1/2-x,-y,1/2+z
1/2+x,1/2-y,-z
1/2-x,y,1/2-z
1/2-x,1/2-y,-z
1/2+x,y,1/2-z
1/2-x,1/2+y,z
1/2+x,-y,1/2+z
loop_
_atom_site_type_symbol
_atom_site_label
_atom_site_fract_x
_atom_site_fract_y
_atom_site_fract_z
Si Si1 0.568415 0.525796 0.752280
Si Si2 0.724610 0.298077 0.996917
Si Si3 0.431824 0.879753 0.099399
Si Si4 0.601955 0.330662 0.889828
Si Si5 0.500000 0.727349 0.141217
O O1 0.582682 0.500000 0.500000
O O2 0.500000 0.527327 0.775928
O O3 0.585341 0.573790 0.697446
O O4 0.589218 0.500000 0.000000
O O5 0.750000 0.319619 0.750000
O O6 0.658253 0.304416 0.960749
O O7 0.750000 0.317883 0.250000
O O8 0.750000 0.250000 0.000000
O O9 0.500000 0.879802 0.042750
O O10 0.419409 0.850816 0.345296
O O11 0.398409 0.864326 0.844701
O O12 0.555662 0.298061 0.791512
O O13 0.500000 0.765645 0.337909
#
# Coordination Sequence:
#
# PCOD9481185 Si02
#       5
#    16  16  16  16   8
#     4   9  17  29  49  78 116 159 190 212 255 335
#     4  10  23  40  58  76 101 143 196 251 297 336
#     4  11  20  36  55  85 122 155 187 231 287 350
#     4  12  23  39  57  81 114 149 199 243 302 347
#     4  12  26  36  56  80 110 150 192 244 294 368
#
# _framework density 18.288996000000001
#
# number of rings (size 3 to 8) (size 9 to 14) (size 15 to 20)
#    0.000    1.333    2.222    4.000    6.222    3.556 
#    0.000    0.000    0.000    0.000    0.000    0.000 
#    0.000   49.778    0.000    0.000    0.000    0.000 
#
# Total GULP energy -200446.454513 kJ/mol
# GULP energy per Si atom -5567.957070 kJ/mol
# Density = 1.824737 g / cm^3
# Si number density = 18.288996 Si / 1000 Ang^3
#
#
#
# Elastic Constant Matrix: (Units=GPa)
#
#
# Indices 1 2 3 4 5 6 
#
# 1 81.4725 36.3964 20.0703 0.0000 0.0000 0.0000
# 2 36.3964 86.6009 25.3409 0.0000 0.0000 0.0000
# 3 20.0703 25.3409 112.8240 0.0000 0.0000 0.0000
# 4 0.0000 0.0000 0.0000 10.0484 0.0000 0.0000
# 5 0.0000 0.0000 0.0000 0.0000 26.4156 0.0000
# 6 0.0000 0.0000 0.0000 0.0000 0.0000 14.5974
#
#
#
# Elastic Compliance Matrix: (Units=1/GPa)
#
#
# Indices 1 2 3 4 5 6 
#
# 1 0.015306 -0.006032 -0.001368 0.000000 0.000000 0.000000
# 2 -0.006032 0.014737 -0.002237 0.000000 0.000000 0.000000
# 3 -0.001368 -0.002237 0.009609 0.000000 0.000000 0.000000
# 4 0.000000 0.000000 0.000000 0.099518 0.000000 0.000000
# 5 0.000000 0.000000 0.000000 0.000000 0.037856 0.000000
# 6 0.000000 0.000000 0.000000 0.000000 0.000000 0.068505
#
#
# Mechanical properties :
#
#
# Convention : Reuss Voigt Hill
#
# Bulk Modulus (GPa) = 49.07337 49.39031 49.23184
# Shear Modulus (GPa) = 18.40949 23.48494 20.94721
#
# Velocity S-wave (km/s) = 3.17612 3.58732 3.38797
# Velocity P-wave (km/s) = 6.35144 6.65001 6.50244
#
# Compressibility (1/GPa) = 0.02037765
#
# Stress axis : x y z
#
# Youngs Moduli (GPa) = 65.33409 67.85598 104.06792
#
# Poissons Ratio (x) = 0.40934 0.14235
# Poissons Ratio (y) = 0.39413 0.23279
# Poissons Ratio (z) = 0.08937 0.15179
#
# Static dielectric constant tensor:
#      x y z
#    x 1.522280 0.000000 0.000000 
#    y 0.000000 1.849890 0.000000 
#    z 0.000000 0.000000 1.683900 
# 
# From -- ./inp_files/2251.got.cif
#   From: 2010.05.17/outbox.cif.g08.bks.cpg/sg64_2_cif.got.tgz:2251.got - 2010.06.03 16:29:19.
