data_PCOD9481217
_publ_section_title
;
Structure prediction by ZEFSAII (Michael W. Deem and Ramdas Pophale) SiO2 
 PCOD9481217
Probable space group: C M C A
;
_chemical_formula_sum "Si O2"
_cell_formula_units_Z 112
_cell_length_a 13.242802
_cell_length_b 14.080859
_cell_length_c 23.984492
_cell_angle_alpha 90.000000
_cell_angle_beta 90.000000
_cell_angle_gamma 90.000000
_cell_volume 4472.388888
_symmetry_space_group_name_H-M "C M C A"
_symmetry_group_IT_number 64
_symmetry_cell_setting 'orthorhombic'
loop_
_space_group_symop_operation_xyz
x,y,z
-x,1/2-y,1/2+z
x,-y,-z
-x,1/2+y,1/2-z
-x,-y,-z
x,1/2+y,1/2-z
-x,y,z
x,1/2-y,1/2+z
1/2+x,1/2+y,z
1/2-x,-y,1/2+z
1/2+x,1/2-y,-z
1/2-x,y,1/2-z
1/2-x,1/2-y,-z
1/2+x,y,1/2-z
1/2-x,1/2+y,z
1/2+x,-y,1/2+z
loop_
_atom_site_type_symbol
_atom_site_label
_atom_site_fract_x
_atom_site_fract_y
_atom_site_fract_z
Si Si1 0.118685 0.732328 0.206301
Si Si2 0.882723 0.870673 0.821850
Si Si3 0.726890 0.432730 0.186923
Si Si4 0.393675 0.905357 0.464124
Si Si5 0.117742 0.147315 0.413760
Si Si6 0.174338 0.066102 0.583955
Si Si7 0.165593 0.729999 0.437669
O O1 0.149180 0.686459 0.265902
O O2 0.171977 0.830642 0.188703
O O3 0.130314 0.661093 0.153513
O O4 0.000000 0.753371 0.211478
O O5 0.867677 0.808854 0.877465
O O6 0.000000 0.890997 0.813990
O O7 0.830452 0.971916 0.831815
O O8 0.750000 0.454312 0.250000
O O9 0.828444 0.424194 0.150498
O O10 0.500000 0.892526 0.432638
O O11 0.293947 0.918648 0.427916
O O12 0.381692 0.828309 0.512378
O O13 0.398624 0.000000 0.500000
O O14 0.212707 0.207802 0.437655
O O15 0.000000 0.171790 0.425956
O O16 0.136938 0.037826 0.431636
O O17 0.131713 0.160750 0.556861
#
# Coordination Sequence:
#
# PCOD9481217 Si02
#       7
#    16  16  16  16  16  16  16
#     4  10  23  41  63  97 137 181 231 278 341 415
#     4  11  24  41  66  98 137 179 231 287 345 405
#     4  12  23  38  68  97 135 180 228 279 339 410
#     4  11  24  45  73 100 135 174 226 289 342 401
#     4  11  24  44  67  98 140 181 222 281 343 410
#     4  12  25  43  69 101 135 181 229 279 348 414
#     4  12  24  45  70 100 136 180 233 284 346 413
#
# _framework density 25.042545
#
# number of rings (size 3 to 8) (size 9 to 14) (size 15 to 20)
#    0.000    0.714    4.286    3.000    0.000    4.000 
#    0.000    5.000    0.000    0.000    0.000    0.000 
#    0.000    0.000    0.000    0.000    0.000    0.000 
#
# Total GULP energy -313439.048112 kJ/mol
# GULP energy per Si atom -5597.125859 kJ/mol
# Density = 2.498555 g / cm^3
# Si number density = 25.042545 Si / 1000 Ang^3
#
#
#
# Elastic Constant Matrix: (Units=GPa)
#
#
# Indices 1 2 3 4 5 6 
#
# 1 60.9354 -0.7765 -7.4574 0.0000 0.0000 0.0000
# 2 -0.7765 207.5206 22.0492 0.0000 0.0000 0.0000
# 3 -7.4574 22.0492 54.0468 0.0000 0.0000 0.0000
# 4 0.0000 0.0000 0.0000 41.5858 0.0000 0.0000
# 5 0.0000 0.0000 0.0000 0.0000 33.6179 0.0000
# 6 0.0000 0.0000 0.0000 0.0000 0.0000 -43.5502
#
#
#
# Elastic Compliance Matrix: (Units=1/GPa)
#
#
# Indices 1 2 3 4 5 6 
#
# 1 0.016700 -0.000191 0.002382 0.000000 0.000000 0.000000
# 2 -0.000191 0.005039 -0.002082 0.000000 0.000000 0.000000
# 3 0.002382 -0.002082 0.019681 0.000000 0.000000 0.000000
# 4 0.000000 0.000000 0.000000 0.024047 0.000000 0.000000
# 5 0.000000 0.000000 0.000000 0.000000 0.029746 0.000000
# 6 0.000000 0.000000 0.000000 0.000000 0.000000 -0.022962
#
#
# Mechanical properties :
#
#
# Convention : Reuss Voigt Hill
#
# Bulk Modulus (GPa) = 24.01635 38.90373 31.46004
# Shear Modulus (GPa) = 58.19942 26.90985 42.55464
#
# Velocity S-wave (km/s) = 4.82604 3.28161 4.12672
# Velocity P-wave (km/s) = 6.37693 5.47060 5.94107
#
# Compressibility (1/GPa) = 0.04163829
#
# Stress axis : x y z
#
# Youngs Moduli (GPa) = 59.88062 198.43958 50.81147
#
# Poissons Ratio (x) = 0.03782 -0.12103
# Poissons Ratio (y) = 0.01141 0.10580
# Poissons Ratio (z) = -0.14264 0.41318
#
# Static dielectric constant tensor:
#      x y z
#    x 2.045170 0.000000 0.000000 
#    y 0.000000 1.992830 0.000000 
#    z 0.000000 0.000000 2.015280 
# 
# From -- ./inp_files/45302.got.cif
#   From: 2010.05.17/outbox.cif.g08.bks.cpg/sg64_23_cif.got.tgz:45302.got - 2010.06.03 16:29:19.
