data_PCOD9481643
_publ_section_title
;
Structure prediction by ZEFSAII (Michael W. Deem and Ramdas Pophale) SiO2 
 PCOD9481643
Probable space group: C M C A
;
_chemical_formula_sum "Si O2"
_cell_formula_units_Z 128
_cell_length_a 24.379434
_cell_length_b 23.993989
_cell_length_c 13.255501
_cell_angle_alpha 90.000000
_cell_angle_beta 90.000000
_cell_angle_gamma 90.000000
_cell_volume 7753.936158
_symmetry_space_group_name_H-M "C M C A"
_symmetry_group_IT_number 64
_symmetry_cell_setting 'orthorhombic'
loop_
_space_group_symop_operation_xyz
x,y,z
-x,1/2-y,1/2+z
x,-y,-z
-x,1/2+y,1/2-z
-x,-y,-z
x,1/2+y,1/2-z
-x,y,z
x,1/2-y,1/2+z
1/2+x,1/2+y,z
1/2-x,-y,1/2+z
1/2+x,1/2-y,-z
1/2-x,y,1/2-z
1/2-x,1/2-y,-z
1/2+x,y,1/2-z
1/2-x,1/2+y,z
1/2+x,-y,1/2+z
loop_
_atom_site_type_symbol
_atom_site_label
_atom_site_fract_x
_atom_site_fract_y
_atom_site_fract_z
Si Si1 0.284509 0.892520 0.957259
Si Si2 0.385482 0.274771 0.874398
Si Si3 0.308468 0.597350 0.693639
Si Si4 0.938739 0.355811 0.485080
Si Si5 0.624816 0.194137 0.698712
Si Si6 0.308363 0.231861 0.045152
Si Si7 0.685927 0.471269 0.716744
Si Si8 0.340808 0.392086 0.892335
O O1 0.302442 0.831470 0.918951
O O2 0.313638 0.939614 0.890104
O O3 0.218744 0.898037 0.943076
O O4 0.298588 0.895926 0.074650
O O5 0.398747 0.239360 0.776596
O O6 0.346794 0.328582 0.851386
O O7 0.434482 0.304332 0.935240
O O8 0.352030 0.237508 0.954391
O O9 0.250000 0.601435 0.750000
O O10 0.346880 0.644864 0.738961
O O11 0.331506 0.535212 0.711530
O O12 0.918994 0.331523 0.378442
O O13 0.890393 0.395906 0.527202
O O14 0.000000 0.378455 0.482600
O O15 0.670520 0.225904 0.630675
O O16 0.250000 0.250000 0.000000
O O17 0.750000 0.471114 0.750000
O O18 0.655104 0.435505 0.801528
#
# Coordination Sequence:
#
# PCOD9481643 Si02
#       8
#    16  16  16  16  16  16  16  16
#     4  11  18  32  52  76 112 145 174 208 251 324
#     4   9  19  31  49  76  99 134 168 213 269 315
#     4  11  21  31  48  76 109 148 179 209 252 304
#     4   9  20  37  55  74 101 134 176 228 276 318
#     4  11  21  32  50  77 108 134 176 216 261 316
#     4  11  18  29  45  76 107 139 167 202 257 308
#     4   9  20  33  49  73 106 148 180 211 252 304
#     4   9  18  35  51  75 106 137 181 214 256 315
#
# _framework density 16.507743999999999
#
# number of rings (size 3 to 8) (size 9 to 14) (size 15 to 20)
#    0.750    1.250    2.500    2.625    0.000    0.500 
#    0.000    1.875    0.000    1.500    0.000    0.000 
#    0.000    2.000    0.000    0.000    0.000    0.000 
#
# Total GULP energy -356526.863879 kJ/mol
# GULP energy per Si atom -5570.732248 kJ/mol
# Density = 1.647017 g / cm^3
# Si number density = 16.507744 Si / 1000 Ang^3
#
#
#
# Elastic Constant Matrix: (Units=GPa)
#
#
# Indices 1 2 3 4 5 6 
#
# 1 49.7509 10.2838 21.8395 0.0000 0.0000 0.0000
# 2 10.2838 78.8913 37.3297 0.0000 0.0000 0.0000
# 3 21.8395 37.3297 110.2400 0.0000 0.0000 0.0000
# 4 0.0000 0.0000 0.0000 22.5794 0.0000 0.0000
# 5 0.0000 0.0000 0.0000 0.0000 5.5297 0.0000
# 6 0.0000 0.0000 0.0000 0.0000 0.0000 6.6783
#
#
#
# Elastic Compliance Matrix: (Units=1/GPa)
#
#
# Indices 1 2 3 4 5 6 
#
# 1 0.022076 -0.000962 -0.004048 0.000000 0.000000 0.000000
# 2 -0.000962 0.015136 -0.004935 0.000000 0.000000 0.000000
# 3 -0.004048 -0.004935 0.011544 0.000000 0.000000 0.000000
# 4 0.000000 0.000000 0.000000 0.044288 0.000000 0.000000
# 5 0.000000 0.000000 0.000000 0.000000 0.180843 0.000000
# 6 0.000000 0.000000 0.000000 0.000000 0.000000 0.149738
#
#
# Mechanical properties :
#
#
# Convention : Reuss Voigt Hill
#
# Bulk Modulus (GPa) = 34.64224 41.97647 38.30935
# Shear Modulus (GPa) = 11.03420 18.25276 14.64348
#
# Velocity S-wave (km/s) = 2.58820 3.32883 2.98160
# Velocity P-wave (km/s) = 5.47382 6.34495 5.92541
#
# Compressibility (1/GPa) = 0.02886650
#
# Stress axis : x y z
#
# Youngs Moduli (GPa) = 45.29840 66.06695 86.62519
#
# Poissons Ratio (x) = 0.06359 0.35062
# Poissons Ratio (y) = 0.04360 0.42748
# Poissons Ratio (z) = 0.18335 0.32602
#
# Static dielectric constant tensor:
#      x y z
#    x 1.526880 0.000000 0.000000 
#    y 0.000000 1.567050 0.000000 
#    z 0.000000 0.000000 1.568850 
# 
# From -- ./inp_files/19397.got.cif
#   From: 2010.05.17/outbox.cif.g08.bks.cpg/sg64_10_cif.got.tgz:19397.got - 2010.06.03 16:29:19.
