data_PCOD9481606
_publ_section_title
;
Structure prediction by ZEFSAII (Michael W. Deem and Ramdas Pophale) SiO2 
 PCOD9481606
Probable space group: C M C A
;
_chemical_formula_sum "Si O2"
_cell_formula_units_Z 36
_cell_length_a 17.510127
_cell_length_b 10.190483
_cell_length_c 9.064391
_cell_angle_alpha 90.000000
_cell_angle_beta 90.000000
_cell_angle_gamma 90.000000
_cell_volume 1617.419578
_symmetry_space_group_name_H-M "C M C A"
_symmetry_group_IT_number 64
_symmetry_cell_setting 'orthorhombic'
loop_
_space_group_symop_operation_xyz
x,y,z
-x,1/2-y,1/2+z
x,-y,-z
-x,1/2+y,1/2-z
-x,-y,-z
x,1/2+y,1/2-z
-x,y,z
x,1/2-y,1/2+z
1/2+x,1/2+y,z
1/2-x,-y,1/2+z
1/2+x,1/2-y,-z
1/2-x,y,1/2-z
1/2-x,1/2-y,-z
1/2+x,y,1/2-z
1/2-x,1/2+y,z
1/2+x,-y,1/2+z
loop_
_atom_site_type_symbol
_atom_site_label
_atom_site_fract_x
_atom_site_fract_y
_atom_site_fract_z
Si Si1 0.182870 0.146093 0.016629
Si Si2 0.500000 0.500000 0.500000
Si Si3 0.916775 0.293410 0.798868
O O1 0.139802 0.164637 0.170842
O O2 0.250000 0.250000 0.000000
O O3 0.120332 0.175896 0.890573
O O4 0.213022 0.000000 0.000000
O O5 0.564979 0.588094 0.410733
O O6 0.000000 0.251353 0.734416
#
# Coordination Sequence:
#
# PCOD9481606 Si02
#       3
#    16   4  16
#     4  12  29  46  73 107 153 202 257 316 388 464
#     4   8  24  44  80 108 142 186 248 324 390 456
#     4  10  25  46  77 106 149 190 257 314 392 455
#
# _framework density 22.257677000000001
#
# number of rings (size 3 to 8) (size 9 to 14) (size 15 to 20)
#    1.333    0.000    0.000    2.667    9.333    7.111 
#    0.000    0.000    0.000    0.000    0.000    0.000 
#    0.000    0.000    0.000    0.000    0.000    0.000 
#
# Total GULP energy -100230.359536 kJ/mol
# GULP energy per Si atom -5568.353308 kJ/mol
# Density = 2.220702 g / cm^3
# Si number density = 22.257677 Si / 1000 Ang^3
#
#
#
# Elastic Constant Matrix: (Units=GPa)
#
#
# Indices 1 2 3 4 5 6 
#
# 1 129.5767 74.9686 34.0287 0.0000 0.0000 0.0000
# 2 74.9686 153.3972 58.0953 0.0000 0.0000 0.0000
# 3 34.0287 58.0953 80.0657 0.0000 0.0000 0.0000
# 4 0.0000 0.0000 0.0000 25.4838 0.0000 0.0000
# 5 0.0000 0.0000 0.0000 0.0000 -115.6186 0.0000
# 6 0.0000 0.0000 0.0000 0.0000 0.0000 42.1796
#
#
#
# Elastic Compliance Matrix: (Units=1/GPa)
#
#
# Indices 1 2 3 4 5 6 
#
# 1 0.010824 -0.004892 -0.001051 0.000000 0.000000 0.000000
# 2 -0.004892 0.011200 -0.006048 0.000000 0.000000 0.000000
# 3 -0.001051 -0.006048 0.017325 0.000000 0.000000 0.000000
# 4 0.000000 0.000000 0.000000 0.039241 0.000000 0.000000
# 5 0.000000 0.000000 0.000000 0.000000 -0.008649 0.000000
# 6 0.000000 0.000000 0.000000 0.000000 0.000000 0.023708
#
#
# Mechanical properties :
#
#
# Convention : Reuss Voigt Hill
#
# Bulk Modulus (GPa) = 65.07087 77.46944 71.27016
# Shear Modulus (GPa) = 40.73289 3.47209 22.10249
#
# Velocity S-wave (km/s) = 4.28256 1.25034 3.15465
# Velocity P-wave (km/s) = 7.33161 6.07995 6.73492
#
# Compressibility (1/GPa) = 0.01536786
#
# Stress axis : x y z
#
# Youngs Moduli (GPa) = 92.39072 89.28417 57.72171
#
# Poissons Ratio (x) = 0.43676 0.06065
# Poissons Ratio (y) = 0.45196 0.34909
# Poissons Ratio (z) = 0.09707 0.53997
#
# Static dielectric constant tensor:
#      x y z
#    x 1.832280 0.000000 0.000000 
#    y 0.000000 1.740050 0.000000 
#    z 0.000000 0.000000 1.819060 
# 
# From -- ./inp_files/6103.got.cif
#   From: 2010.05.17/outbox.cif.g08.bks.cpg/sg64_4_cif.got.tgz:6103.got - 2010.06.03 16:29:19.
