data_PCOD9481311
_publ_section_title
;
Structure prediction by ZEFSAII (Michael W. Deem and Ramdas Pophale) SiO2 
 PCOD9481311
Probable space group: C M C A
;
_chemical_formula_sum "Si O2"
_cell_formula_units_Z 88
_cell_length_a 25.224218
_cell_length_b 13.044799
_cell_length_c 12.829907
_cell_angle_alpha 90.000000
_cell_angle_beta 90.000000
_cell_angle_gamma 90.000000
_cell_volume 4221.614872
_symmetry_space_group_name_H-M "C M C A"
_symmetry_group_IT_number 64
_symmetry_cell_setting 'orthorhombic'
loop_
_space_group_symop_operation_xyz
x,y,z
-x,1/2-y,1/2+z
x,-y,-z
-x,1/2+y,1/2-z
-x,-y,-z
x,1/2+y,1/2-z
-x,y,z
x,1/2-y,1/2+z
1/2+x,1/2+y,z
1/2-x,-y,1/2+z
1/2+x,1/2-y,-z
1/2-x,y,1/2-z
1/2-x,1/2-y,-z
1/2+x,y,1/2-z
1/2-x,1/2+y,z
1/2+x,-y,1/2+z
loop_
_atom_site_type_symbol
_atom_site_label
_atom_site_fract_x
_atom_site_fract_y
_atom_site_fract_z
Si Si1 0.615018 0.325540 0.799702
Si Si2 0.616843 0.000000 0.000000
Si Si3 0.061361 0.991573 0.117563
Si Si4 0.063853 0.615571 0.819245
Si Si5 0.794228 0.887516 0.950544
Si Si6 0.320578 0.689627 0.412363
O O1 0.566622 0.403563 0.817081
O O2 0.594020 0.219837 0.847151
O O3 0.660579 0.382952 0.864168
O O4 0.641577 0.305935 0.688138
O O5 0.652630 0.899813 0.981418
O O6 0.581533 0.027463 0.899413
O O7 0.000000 0.964227 0.102903
O O8 0.082301 0.910136 0.201084
O O9 0.083836 0.000000 0.000000
O O10 0.000000 0.626980 0.821714
O O11 0.739353 0.851221 0.897487
O O12 0.812145 0.800209 0.033726
O O13 0.788140 0.000000 0.000000
#
# Coordination Sequence:
#
# PCOD9481311 Si02
#       6
#    16   8  16  16  16  16
#     4  12  24  41  66 100 133 179 226 282 347 408
#     4  12  21  48  68 102 142 178 227 292 348 412
#     4  10  23  43  66  94 131 176 229 284 342 410
#     4  11  25  43  69 102 137 182 229 285 348 409
#     4  11  25  45  69  98 140 180 231 281 342 417
#     4  11  25  44  69 102 136 181 227 289 346 410
#
# _framework density 20.845102000000001
#
# number of rings (size 3 to 8) (size 9 to 14) (size 15 to 20)
#    0.000    0.909    4.545    1.909    5.091    0.000 
#    0.000    1.818    0.000    0.000    0.000    0.000 
#    0.000    0.000    0.000    0.000    0.000    0.000 
#
# Total GULP energy -245345.860725 kJ/mol
# GULP energy per Si atom -5576.042289 kJ/mol
# Density = 2.079766 g / cm^3
# Si number density = 20.845102 Si / 1000 Ang^3
#
#
#
# Elastic Constant Matrix: (Units=GPa)
#
#
# Indices 1 2 3 4 5 6 
#
# 1 55.0689 11.3976 23.6029 0.0000 0.0000 0.0000
# 2 11.3976 115.2598 15.7820 0.0000 0.0000 0.0000
# 3 23.6029 15.7820 76.3323 0.0000 0.0000 0.0000
# 4 0.0000 0.0000 0.0000 29.0300 0.0000 0.0000
# 5 0.0000 0.0000 0.0000 0.0000 23.6398 0.0000
# 6 0.0000 0.0000 0.0000 0.0000 0.0000 27.0942
#
#
#
# Elastic Compliance Matrix: (Units=1/GPa)
#
#
# Indices 1 2 3 4 5 6 
#
# 1 0.021101 -0.001228 -0.006271 0.000000 0.000000 0.000000
# 2 -0.001228 0.009000 -0.001481 0.000000 0.000000 0.000000
# 3 -0.006271 -0.001481 0.015346 0.000000 0.000000 0.000000
# 4 0.000000 0.000000 0.000000 0.034447 0.000000 0.000000
# 5 0.000000 0.000000 0.000000 0.000000 0.042301 0.000000
# 6 0.000000 0.000000 0.000000 0.000000 0.000000 0.036908
#
#
# Mechanical properties :
#
#
# Convention : Reuss Voigt Hill
#
# Bulk Modulus (GPa) = 36.38046 38.69179 37.53613
# Shear Modulus (GPa) = 26.84907 29.01137 27.93022
#
# Velocity S-wave (km/s) = 3.59280 3.73468 3.66443
# Velocity P-wave (km/s) = 5.89081 6.09909 5.99586
#
# Compressibility (1/GPa) = 0.02748728
#
# Stress axis : x y z
#
# Youngs Moduli (GPa) = 47.39127 111.10763 65.16419
#
# Poissons Ratio (x) = 0.13644 0.40863
# Poissons Ratio (y) = 0.05819 0.09652
# Poissons Ratio (z) = 0.29718 0.16457
#
# Static dielectric constant tensor:
#      x y z
#    x 1.758310 0.000000 0.000000 
#    y 0.000000 1.758220 0.000000 
#    z 0.000000 0.000000 1.774640 
# 
# From -- ./inp_files/19690.got.cif
#   From: 2010.05.17/outbox.cif.g08.bks.cpg/sg64_10_cif.got.tgz:19690.got - 2010.06.03 16:29:19.
