data_PCOD9481363
_publ_section_title
;
Structure prediction by ZEFSAII (Michael W. Deem and Ramdas Pophale) SiO2 
 PCOD9481363
Probable space group: C M C A
;
_chemical_formula_sum "Si O2"
_cell_formula_units_Z 64
_cell_length_a 29.993517
_cell_length_b 5.205527
_cell_length_c 20.163547
_cell_angle_alpha 90.000000
_cell_angle_beta 90.000000
_cell_angle_gamma 90.000000
_cell_volume 3148.176182
_symmetry_space_group_name_H-M "C M C A"
_symmetry_group_IT_number 64
_symmetry_cell_setting 'orthorhombic'
loop_
_space_group_symop_operation_xyz
x,y,z
-x,1/2-y,1/2+z
x,-y,-z
-x,1/2+y,1/2-z
-x,-y,-z
x,1/2+y,1/2-z
-x,y,z
x,1/2-y,1/2+z
1/2+x,1/2+y,z
1/2-x,-y,1/2+z
1/2+x,1/2-y,-z
1/2-x,y,1/2-z
1/2-x,1/2-y,-z
1/2+x,y,1/2-z
1/2-x,1/2+y,z
1/2+x,-y,1/2+z
loop_
_atom_site_type_symbol
_atom_site_label
_atom_site_fract_x
_atom_site_fract_y
_atom_site_fract_z
Si Si1 0.000000 0.223406 0.331742
Si Si2 0.402089 0.121956 0.213052
Si Si3 0.367409 0.116530 0.069635
Si Si4 0.500000 0.267086 0.920122
Si Si5 0.280731 0.000000 0.000000
Si Si6 0.420446 0.000000 0.500000
O O1 0.955519 0.156747 0.291628
O O2 0.000000 0.510004 0.362901
O O3 0.000000 0.018644 0.391883
O O4 0.386994 0.403555 0.235936
O O5 0.385762 0.039049 0.140332
O O6 0.315291 0.050491 0.060970
O O7 0.386749 0.401939 0.057368
O O8 0.384966 0.000000 0.000000
O O9 0.456049 0.316218 0.963350
O O10 0.250000 0.250000 0.000000
#
# Coordination Sequence:
#
# PCOD9481363 Si02
#       6
#     8  16  16   8   8   8
#     4  12  22  44  54  89 132 196 229 271 319 374
#     4  12  26  42  63  94 140 184 228 274 328 387
#     4  10  24  40  73  97 130 171 225 274 335 408
#     4  11  24  33  64  85 141 165 239 281 322 367
#     4  10  23  44  73 107 126 157 209 284 351 412
#     4  11  21  38  59 102 126 180 221 288 325 379
#
# _framework density 20.329232000000001
#
# number of rings (size 3 to 8) (size 9 to 14) (size 15 to 20)
#    0.750    0.250    2.500    4.500    3.500    1.000 
#    0.000    0.000    0.000    4.500    0.000    0.000 
#    0.000    0.000    0.000    0.000    0.000    0.000 
#
# Total GULP energy -178296.348635 kJ/mol
# GULP energy per Si atom -5571.760895 kJ/mol
# Density = 2.028296 g / cm^3
# Si number density = 20.329232 Si / 1000 Ang^3
#
#
#
# Elastic Constant Matrix: (Units=GPa)
#
#
# Indices 1 2 3 4 5 6 
#
# 1 104.4367 42.9773 20.1473 0.0000 0.0000 0.0000
# 2 42.9773 78.8876 23.7970 0.0000 0.0000 0.0000
# 3 20.1473 23.7970 86.8376 0.0000 0.0000 0.0000
# 4 0.0000 0.0000 0.0000 43.0654 0.0000 0.0000
# 5 0.0000 0.0000 0.0000 0.0000 -0.9456 0.0000
# 6 0.0000 0.0000 0.0000 0.0000 0.0000 10.6244
#
#
#
# Elastic Compliance Matrix: (Units=1/GPa)
#
#
# Indices 1 2 3 4 5 6 
#
# 1 0.012442 -0.006440 -0.001122 0.000000 0.000000 0.000000
# 2 -0.006440 0.017152 -0.003206 0.000000 0.000000 0.000000
# 3 -0.001122 -0.003206 0.012655 0.000000 0.000000 0.000000
# 4 0.000000 0.000000 0.000000 0.023221 0.000000 0.000000
# 5 0.000000 0.000000 0.000000 0.000000 -1.057552 0.000000
# 6 0.000000 0.000000 0.000000 0.000000 0.000000 0.094123
#
#
# Mechanical properties :
#
#
# Convention : Reuss Voigt Hill
#
# Bulk Modulus (GPa) = 48.27992 49.33390 48.80691
# Shear Modulus (GPa) = -5.75029 22.76485 8.50728
#
# Velocity S-wave (km/s) = -1.68366 3.34998 2.04789
# Velocity P-wave (km/s) = 4.47448 6.26764 5.44538
#
# Compressibility (1/GPa) = 0.02071254
#
# Stress axis : x y z
#
# Youngs Moduli (GPa) = 80.37537 58.30327 79.02228
#
# Poissons Ratio (x) = 0.37545 0.08865
# Poissons Ratio (y) = 0.51759 0.25336
# Poissons Ratio (z) = 0.09017 0.18693
#
# Static dielectric constant tensor:
#      x y z
#    x 1.703590 0.000000 0.000000 
#    y 0.000000 2.084300 0.000000 
#    z 0.000000 0.000000 1.763040 
# 
# From -- ./inp_files/35651.got.cif
#   From: 2010.05.17/outbox.cif.g08.bks.cpg/sg64_18_cif.got.tgz:35651.got - 2010.06.03 16:29:19.
