data_PCOD9481917
_publ_section_title
;
Structure prediction by ZEFSAII (Michael W. Deem and Ramdas Pophale) SiO2 
 PCOD9481917
Probable space group: C M C A
;
_chemical_formula_sum "Si O2"
_cell_formula_units_Z 88
_cell_length_a 14.332339
_cell_length_b 15.428608
_cell_length_c 19.056708
_cell_angle_alpha 90.000000
_cell_angle_beta 90.000000
_cell_angle_gamma 90.000000
_cell_volume 4213.972492
_symmetry_space_group_name_H-M "C M C A"
_symmetry_group_IT_number 64
_symmetry_cell_setting 'orthorhombic'
loop_
_space_group_symop_operation_xyz
x,y,z
-x,1/2-y,1/2+z
x,-y,-z
-x,1/2+y,1/2-z
-x,-y,-z
x,1/2+y,1/2-z
-x,y,z
x,1/2-y,1/2+z
1/2+x,1/2+y,z
1/2-x,-y,1/2+z
1/2+x,1/2-y,-z
1/2-x,y,1/2-z
1/2-x,1/2-y,-z
1/2+x,y,1/2-z
1/2-x,1/2+y,z
1/2+x,-y,1/2+z
loop_
_atom_site_type_symbol
_atom_site_label
_atom_site_fract_x
_atom_site_fract_y
_atom_site_fract_z
Si Si1 0.500000 0.632156 0.276274
Si Si2 0.105640 0.427547 0.444646
Si Si3 0.810962 0.878507 0.188984
Si Si4 0.826731 0.705000 0.449679
Si Si5 0.000000 0.731495 0.858462
Si Si6 0.000000 0.922967 0.260919
Si Si7 0.205579 0.326424 0.823669
O O1 0.500000 0.696905 0.206919
O O2 0.500000 0.527903 0.260943
O O3 0.404276 0.651501 0.318954
O O4 0.127222 0.500000 0.500000
O O5 0.182341 0.425124 0.384597
O O6 0.111323 0.342905 0.491993
O O7 0.000000 0.441167 0.417777
O O8 0.750000 0.919070 0.250000
O O9 0.785349 0.778649 0.176870
O O10 0.912623 0.884687 0.220461
O O11 0.750000 0.750000 0.500000
O O12 0.766020 0.649542 0.392419
O O13 0.904703 0.753457 0.402308
O O14 0.000000 0.631613 0.833005
O O15 0.250000 0.357846 0.750000
#
# Coordination Sequence:
#
# PCOD9481917 Si02
#       7
#     8  16  16  16   8   8  16
#     4  12  26  41  73 101 135 181 230 292 342 406
#     4  11  25  42  66 101 137 175 232 289 342 416
#     4  11  22  42  72  97 134 180 226 286 342 405
#     4  12  25  42  71  99 135 187 224 280 362 419
#     4  12  24  48  69  97 146 182 231 296 349 426
#     4  12  26  41  68 104 134 176 235 284 345 403
#     4  11  22  43  69  99 131 178 236 279 339 413
#
# _framework density 20.882909000000001
#
# number of rings (size 3 to 8) (size 9 to 14) (size 15 to 20)
#    0.000    0.545    7.273    1.091    2.545    2.909 
#    0.000    0.000    0.000    1.091    0.000    0.000 
#    0.000    0.000    0.000    0.000    0.000    0.000 
#
# Total GULP energy -245245.057386 kJ/mol
# GULP energy per Si atom -5573.751304 kJ/mol
# Density = 2.083538 g / cm^3
# Si number density = 20.882909 Si / 1000 Ang^3
#
#
#
# Elastic Constant Matrix: (Units=GPa)
#
#
# Indices 1 2 3 4 5 6 
#
# 1 106.9102 -1.3233 37.9744 0.0000 0.0000 0.0000
# 2 -1.3233 63.3037 15.3271 0.0000 0.0000 0.0000
# 3 37.9744 15.3271 114.4053 0.0000 0.0000 0.0000
# 4 0.0000 0.0000 0.0000 -22.5453 0.0000 0.0000
# 5 0.0000 0.0000 0.0000 0.0000 184.6188 0.0000
# 6 0.0000 0.0000 0.0000 0.0000 0.0000 9.3459
#
#
#
# Elastic Compliance Matrix: (Units=1/GPa)
#
#
# Indices 1 2 3 4 5 6 
#
# 1 0.010680 0.001118 -0.003695 0.000000 0.000000 0.000000
# 2 0.001118 0.016443 -0.002574 0.000000 0.000000 0.000000
# 3 -0.003695 -0.002574 0.010312 0.000000 0.000000 0.000000
# 4 0.000000 0.000000 0.000000 -0.044355 0.000000 0.000000
# 5 0.000000 0.000000 0.000000 0.000000 0.005417 0.000000
# 6 0.000000 0.000000 0.000000 0.000000 0.000000 0.106999
#
#
# Mechanical properties :
#
#
# Convention : Reuss Voigt Hill
#
# Bulk Modulus (GPa) = 36.85468 43.17506 40.01487
# Shear Modulus (GPa) = 40.05049 49.79328 44.92188
#
# Velocity S-wave (km/s) = 4.38409 4.88833 4.64306
# Velocity P-wave (km/s) = 6.58130 7.25126 6.92439
#
# Compressibility (1/GPa) = 0.02713359
#
# Stress axis : x y z
#
# Youngs Moduli (GPa) = 93.63445 60.81450 96.97371
#
# Poissons Ratio (x) = -0.06798 0.35829
# Poissons Ratio (y) = -0.10467 0.24961
# Poissons Ratio (z) = 0.34595 0.15654
#
# Static dielectric constant tensor:
#      x y z
#    x 1.734460 0.000000 0.000000 
#    y 0.000000 1.715280 0.000000 
#    z 0.000000 0.000000 1.792400 
# 
# From -- ./inp_files/32211.got.cif
#   From: 2010.05.17/outbox.cif.g08.bks.cpg/sg64_17_cif.got.tgz:32211.got - 2010.06.03 16:29:19.
