data_PCOD9481272
_publ_section_title
;
Structure prediction by ZEFSAII (Michael W. Deem and Ramdas Pophale) SiO2 
 PCOD9481272
Probable space group: C M C A
;
_chemical_formula_sum "Si O2"
_cell_formula_units_Z 56
_cell_length_a 10.820765
_cell_length_b 24.402635
_cell_length_c 9.902402
_cell_angle_alpha 90.000000
_cell_angle_beta 90.000000
_cell_angle_gamma 90.000000
_cell_volume 2614.780530
_symmetry_space_group_name_H-M "C M C A"
_symmetry_group_IT_number 64
_symmetry_cell_setting 'orthorhombic'
loop_
_space_group_symop_operation_xyz
x,y,z
-x,1/2-y,1/2+z
x,-y,-z
-x,1/2+y,1/2-z
-x,-y,-z
x,1/2+y,1/2-z
-x,y,z
x,1/2-y,1/2+z
1/2+x,1/2+y,z
1/2-x,-y,1/2+z
1/2+x,1/2-y,-z
1/2-x,y,1/2-z
1/2-x,1/2-y,-z
1/2+x,y,1/2-z
1/2-x,1/2+y,z
1/2+x,-y,1/2+z
loop_
_atom_site_type_symbol
_atom_site_label
_atom_site_fract_x
_atom_site_fract_y
_atom_site_fract_z
Si Si1 0.500000 0.815191 0.003918
Si Si2 0.700412 0.957206 0.610867
Si Si3 0.741129 0.369903 0.402010
Si Si4 0.000000 0.810730 0.024561
Si Si5 0.000000 0.125679 0.225537
O O1 0.500000 0.753454 0.949273
O O2 0.500000 0.856153 0.877589
O O3 0.373961 0.828272 0.084226
O O4 0.750000 0.984336 0.750000
O O5 0.780896 0.918927 0.509771
O O6 0.612138 0.912173 0.678469
O O7 0.647344 0.000000 0.500000
O O8 0.750000 0.390821 0.250000
O O9 0.873633 0.340418 0.428287
O O10 0.000000 0.819667 0.863420
#
# Coordination Sequence:
#
# PCOD9481272 Si02
#       5
#     8  16  16   8   8
#     4  12  23  43  68  98 138 176 236 274 332 407
#     4  11  22  43  67  97 133 180 224 279 345 399
#     4  11  24  43  66 100 137 176 231 279 335 403
#     4  10  25  41  66  97 139 187 221 279 342 392
#     4  10  23  42  66  97 138 176 230 282 326 410
#
# _framework density 21.416712
#
# number of rings (size 3 to 8) (size 9 to 14) (size 15 to 20)
#    0.000    1.143    2.857    3.000    4.000    0.000 
#    0.000    5.714    0.000    0.000    0.000    0.000 
#    0.000    0.000    0.000    0.000    0.000    0.000 
#
# Total GULP energy -155894.808172 kJ/mol
# GULP energy per Si atom -5567.671720 kJ/mol
# Density = 2.136797 g / cm^3
# Si number density = 21.416712 Si / 1000 Ang^3
#
#
#
# Elastic Constant Matrix: (Units=GPa)
#
#
# Indices 1 2 3 4 5 6 
#
# 1 106.0170 26.9005 38.6345 0.0000 0.0000 0.0000
# 2 26.9005 105.5794 44.3972 0.0000 0.0000 0.0000
# 3 38.6345 44.3972 184.1912 0.0000 0.0000 0.0000
# 4 0.0000 0.0000 0.0000 28.2225 0.0000 0.0000
# 5 0.0000 0.0000 0.0000 0.0000 238.0169 0.0000
# 6 0.0000 0.0000 0.0000 0.0000 0.0000 29.3849
#
#
#
# Elastic Compliance Matrix: (Units=1/GPa)
#
#
# Indices 1 2 3 4 5 6 
#
# 1 0.010565 -0.001958 -0.001744 0.000000 0.000000 0.000000
# 2 -0.001958 0.010903 -0.002217 0.000000 0.000000 0.000000
# 3 -0.001744 -0.002217 0.006329 0.000000 0.000000 0.000000
# 4 0.000000 0.000000 0.000000 0.035433 0.000000 0.000000
# 5 0.000000 0.000000 0.000000 0.000000 0.004201 0.000000
# 6 0.000000 0.000000 0.000000 0.000000 0.000000 0.034031
#
#
# Mechanical properties :
#
#
# Convention : Reuss Voigt Hill
#
# Bulk Modulus (GPa) = 62.66491 68.40578 65.53534
# Shear Modulus (GPa) = 42.15106 78.18188 60.16647
#
# Velocity S-wave (km/s) = 4.44118 6.04850 5.30606
# Velocity P-wave (km/s) = 7.45803 8.98826 8.25866
#
# Compressibility (1/GPa) = 0.01595790
#
# Stress axis : x y z
#
# Youngs Moduli (GPa) = 94.65291 91.71860 157.99345
#
# Poissons Ratio (x) = 0.17963 0.27553
# Poissons Ratio (y) = 0.18538 0.35031
# Poissons Ratio (z) = 0.16507 0.20336
#
# Static dielectric constant tensor:
#      x y z
#    x 1.889180 0.000000 0.000000 
#    y 0.000000 1.780330 0.000000 
#    z 0.000000 0.000000 1.808060 
# 
# From -- ./inp_files/4495.got.cif
#   From: 2010.05.17/outbox.cif.g08.bks.cpg/sg64_3_cif.got.tgz:4495.got - 2010.06.03 16:29:19.
