data_PCOD9481049
_publ_section_title
;
Structure prediction by ZEFSAII (Michael W. Deem and Ramdas Pophale) SiO2 
 PCOD9481049
Probable space group: C M C A
;
_chemical_formula_sum "Si O2"
_cell_formula_units_Z 88
_cell_length_a 9.799805
_cell_length_b 18.744349
_cell_length_c 21.902631
_cell_angle_alpha 90.000000
_cell_angle_beta 90.000000
_cell_angle_gamma 90.000000
_cell_volume 4023.315426
_symmetry_space_group_name_H-M "C M C A"
_symmetry_group_IT_number 64
_symmetry_cell_setting 'orthorhombic'
loop_
_space_group_symop_operation_xyz
x,y,z
-x,1/2-y,1/2+z
x,-y,-z
-x,1/2+y,1/2-z
-x,-y,-z
x,1/2+y,1/2-z
-x,y,z
x,1/2-y,1/2+z
1/2+x,1/2+y,z
1/2-x,-y,1/2+z
1/2+x,1/2-y,-z
1/2-x,y,1/2-z
1/2-x,1/2-y,-z
1/2+x,y,1/2-z
1/2-x,1/2+y,z
1/2+x,-y,1/2+z
loop_
_atom_site_type_symbol
_atom_site_label
_atom_site_fract_x
_atom_site_fract_y
_atom_site_fract_z
Si Si1 0.343830 0.177644 0.305169
Si Si2 0.729043 0.512978 0.833272
Si Si3 0.846299 0.339771 0.157753
Si Si4 0.342753 0.412176 0.929827
Si Si5 0.158123 0.820000 0.487614
Si Si6 0.000000 0.021456 0.268307
O O1 0.500000 0.165583 0.284855
O O2 0.250000 0.153911 0.250000
O O3 0.320057 0.261657 0.315854
O O4 0.326927 0.139102 0.369915
O O5 0.744079 0.597896 0.824984
O O6 0.684535 0.489581 0.901084
O O7 0.617707 0.486370 0.785589
O O8 0.877513 0.480291 0.819922
O O9 0.000000 0.361603 0.177982
O O10 0.845700 0.332496 0.084801
O O11 0.500000 0.405610 0.950835
O O12 0.234266 0.384450 0.978309
O O13 0.250000 0.750000 0.500000
O O14 0.000000 0.810654 0.507864
#
# Coordination Sequence:
#
# PCOD9481049 Si02
#       6
#    16  16  16  16  16   8
#     4  10  23  39  61  90 127 162 210 265 321 383
#     4  11  23  41  64  97 127 178 213 269 320 388
#     4  10  22  43  65  92 128 171 214 266 326 387
#     4  11  24  44  64  94 132 172 217 270 325 385
#     4  11  23  44  70  94 128 174 218 269 331 390
#     4  10  24  40  64  88 142 174 212 252 336 394
#
# _framework density 21.872508
#
# number of rings (size 3 to 8) (size 9 to 14) (size 15 to 20)
#    0.000    1.455    3.636    0.545    6.364    1.455 
#    3.273    2.727    0.000    0.000    0.000    0.000 
#    0.000    0.000    0.000    0.000    0.000    0.000 
#
# Total GULP energy -245142.655795 kJ/mol
# GULP energy per Si atom -5571.423995 kJ/mol
# Density = 2.182273 g / cm^3
# Si number density = 21.872508 Si / 1000 Ang^3
#
#
#
# Elastic Constant Matrix: (Units=GPa)
#
#
# Indices 1 2 3 4 5 6 
#
# 1 166.8192 34.4382 40.3044 0.0000 0.0000 0.0000
# 2 34.4382 88.1664 -5.9499 0.0000 0.0000 0.0000
# 3 40.3044 -5.9499 50.2451 0.0000 0.0000 0.0000
# 4 0.0000 0.0000 0.0000 -76.1745 0.0000 0.0000
# 5 0.0000 0.0000 0.0000 0.0000 269.6941 0.0000
# 6 0.0000 0.0000 0.0000 0.0000 0.0000 28.4529
#
#
#
# Elastic Compliance Matrix: (Units=1/GPa)
#
#
# Indices 1 2 3 4 5 6 
#
# 1 0.008554 -0.003835 -0.007315 0.000000 0.000000 0.000000
# 2 -0.003835 0.013153 0.004634 0.000000 0.000000 0.000000
# 3 -0.007315 0.004634 0.026319 0.000000 0.000000 0.000000
# 4 0.000000 0.000000 0.000000 -0.013128 0.000000 0.000000
# 5 0.000000 0.000000 0.000000 0.000000 0.003708 0.000000
# 6 0.000000 0.000000 0.000000 0.000000 0.000000 0.035146
#
#
# Mechanical properties :
#
#
# Convention : Reuss Voigt Hill
#
# Bulk Modulus (GPa) = 28.57760 49.20180 38.88970
# Shear Modulus (GPa) = 50.78774 60.15703 55.47238
#
# Velocity S-wave (km/s) = 4.82393 5.25007 5.04150
# Velocity P-wave (km/s) = 6.64236 7.70030 7.19081
#
# Compressibility (1/GPa) = 0.03499244
#
# Stress axis : x y z
#
# Youngs Moduli (GPa) = 116.90957 76.02963 37.99495
#
# Poissons Ratio (x) = 0.29156 0.27795
# Poissons Ratio (y) = 0.44832 -0.17605
# Poissons Ratio (z) = 0.85525 -0.35229
#
# Static dielectric constant tensor:
#      x y z
#    x 1.772260 0.000000 0.000000 
#    y 0.000000 1.911550 0.000000 
#    z 0.000000 0.000000 1.669160 
# 
# From -- ./inp_files/36781.got.cif
#   From: 2010.05.17/outbox.cif.g08.bks.cpg/sg64_19_cif.got.tgz:36781.got - 2010.06.03 16:29:19.
