data_PCOD9481741
_publ_section_title
;
Structure prediction by ZEFSAII (Michael W. Deem and Ramdas Pophale) SiO2 
 PCOD9481741
Probable space group: C M C A
;
_chemical_formula_sum "Si O2"
_cell_formula_units_Z 80
_cell_length_a 9.002713
_cell_length_b 18.462478
_cell_length_c 26.808191
_cell_angle_alpha 90.000000
_cell_angle_beta 90.000000
_cell_angle_gamma 90.000000
_cell_volume 4455.853517
_symmetry_space_group_name_H-M "C M C A"
_symmetry_group_IT_number 64
_symmetry_cell_setting 'orthorhombic'
loop_
_space_group_symop_operation_xyz
x,y,z
-x,1/2-y,1/2+z
x,-y,-z
-x,1/2+y,1/2-z
-x,-y,-z
x,1/2+y,1/2-z
-x,y,z
x,1/2-y,1/2+z
1/2+x,1/2+y,z
1/2-x,-y,1/2+z
1/2+x,1/2-y,-z
1/2-x,y,1/2-z
1/2-x,1/2-y,-z
1/2+x,y,1/2-z
1/2-x,1/2+y,z
1/2+x,-y,1/2+z
loop_
_atom_site_type_symbol
_atom_site_label
_atom_site_fract_x
_atom_site_fract_y
_atom_site_fract_z
Si Si1 0.672082 0.083143 0.800894
Si Si2 0.178695 0.076054 0.408122
Si Si3 0.677371 0.328092 0.493734
Si Si4 0.830276 0.406518 0.799984
Si Si5 0.322225 0.918461 0.404806
O O1 0.500000 0.105196 0.803379
O O2 0.750000 0.108095 0.750000
O O3 0.760634 0.104359 0.850488
O O4 0.673897 0.994759 0.799670
O O5 0.202781 0.125927 0.455794
O O6 0.226957 0.111935 0.355408
O O7 0.000000 0.061573 0.404012
O O8 0.262883 0.000140 0.413673
O O9 0.500000 0.323088 0.486148
O O10 0.750000 0.250000 0.500000
O O11 0.752875 0.368896 0.447609
O O12 0.750000 0.381153 0.750000
O O13 0.000000 0.382878 0.796806
O O14 0.500000 0.916700 0.405532
#
# Coordination Sequence:
#
# PCOD9481741 Si02
#       5
#    16  16  16  16  16
#     4   9  16  28  47  74 107 139 171 210 258 307
#     4   9  19  35  54  76 105 139 172 213 264 313
#     4  11  23  39  56  74 101 137 177 222 272 321
#     4   8  14  25  43  70 101 131 162 198 246 300
#     4  11  21  33  53  81 109 138 175 217 260 311
#
# _framework density 17.953911999999999
#
# number of rings (size 3 to 8) (size 9 to 14) (size 15 to 20)
#    0.000    2.400    0.000    4.800    0.000    8.800 
#    0.000    0.000    0.000    1.200    0.000    5.600 
#    0.000    0.000    0.000    0.000    0.000    0.000 
#
# Total GULP energy -223088.330282 kJ/mol
# GULP energy per Si atom -5577.208257 kJ/mol
# Density = 1.791305 g / cm^3
# Si number density = 17.953912 Si / 1000 Ang^3
#
#
#
# Elastic Constant Matrix: (Units=GPa)
#
#
# Indices 1 2 3 4 5 6 
#
# 1 129.3640 54.0336 108.1780 0.0000 0.0000 0.0000
# 2 54.0336 52.5891 69.5611 0.0000 0.0000 0.0000
# 3 108.1780 69.5611 207.2492 0.0000 0.0000 0.0000
# 4 0.0000 0.0000 0.0000 -6.2146 0.0000 0.0000
# 5 0.0000 0.0000 0.0000 0.0000 35.1900 0.0000
# 6 0.0000 0.0000 0.0000 0.0000 0.0000 13.7076
#
#
#
# Elastic Compliance Matrix: (Units=1/GPa)
#
#
# Indices 1 2 3 4 5 6 
#
# 1 0.016089 -0.009752 -0.005125 0.000000 0.000000 0.000000
# 2 -0.009752 0.040109 -0.008372 0.000000 0.000000 0.000000
# 3 -0.005125 -0.008372 0.010310 0.000000 0.000000 0.000000
# 4 0.000000 0.000000 0.000000 -0.160912 0.000000 0.000000
# 5 0.000000 0.000000 0.000000 0.000000 0.028417 0.000000
# 6 0.000000 0.000000 0.000000 0.000000 0.000000 0.072952
#
#
# Mechanical properties :
#
#
# Convention : Reuss Voigt Hill
#
# Bulk Modulus (GPa) = 49.97390 94.74974 72.36182
# Shear Modulus (GPa) = 83.14923 19.03191 51.09057
#
# Velocity S-wave (km/s) = 6.81272 3.25936 5.34025
# Velocity P-wave (km/s) = 9.47519 8.18859 8.85529
#
# Compressibility (1/GPa) = 0.02001045
#
# Stress axis : x y z
#
# Youngs Moduli (GPa) = 62.15445 24.93196 96.99350
#
# Poissons Ratio (x) = 0.24314 0.49706
# Poissons Ratio (y) = 0.60615 0.81201
# Poissons Ratio (z) = 0.31852 0.20873
#
# Static dielectric constant tensor:
#      x y z
#    x 1.604090 0.000000 0.000000 
#    y 0.000000 1.585580 0.000000 
#    z 0.000000 0.000000 1.638890 
# 
# From -- ./inp_files/47882.got.cif
#   From: 2010.05.17/outbox.cif.g08.bks.cpg/sg64_24_cif.got.tgz:47882.got - 2010.06.03 16:29:19.
