data_PCOD9481912
_publ_section_title
;
Structure prediction by ZEFSAII (Michael W. Deem and Ramdas Pophale) SiO2 
 PCOD9481912
Probable space group: C M C A
;
_chemical_formula_sum "Si O2"
_cell_formula_units_Z 64
_cell_length_a 32.686216
_cell_length_b 8.328076
_cell_length_c 9.380636
_cell_angle_alpha 90.000000
_cell_angle_beta 90.000000
_cell_angle_gamma 90.000000
_cell_volume 2553.533797
_symmetry_space_group_name_H-M "C M C A"
_symmetry_group_IT_number 64
_symmetry_cell_setting 'orthorhombic'
loop_
_space_group_symop_operation_xyz
x,y,z
-x,1/2-y,1/2+z
x,-y,-z
-x,1/2+y,1/2-z
-x,-y,-z
x,1/2+y,1/2-z
-x,y,z
x,1/2-y,1/2+z
1/2+x,1/2+y,z
1/2-x,-y,1/2+z
1/2+x,1/2-y,-z
1/2-x,y,1/2-z
1/2-x,1/2-y,-z
1/2+x,y,1/2-z
1/2-x,1/2+y,z
1/2+x,-y,1/2+z
loop_
_atom_site_type_symbol
_atom_site_label
_atom_site_fract_x
_atom_site_fract_y
_atom_site_fract_z
Si Si1 0.670890 0.941214 0.287041
Si Si2 0.546924 0.244542 0.537657
Si Si3 0.422300 0.552075 0.212411
Si Si4 0.702943 0.238297 0.458234
O O1 0.675965 0.796831 0.401809
O O2 0.687987 0.885798 0.136449
O O3 0.624117 0.994151 0.281857
O O4 0.696867 0.083901 0.356475
O O5 0.500000 0.265320 0.493593
O O6 0.573883 0.199604 0.400277
O O7 0.561893 0.389727 0.635663
O O8 0.551058 0.088526 0.640912
O O9 0.750000 0.250000 0.500000
#
# Coordination Sequence:
#
# PCOD9481912 Si02
#       4
#    16  16  16  16
#     4  11  26  48  71 104 142 189 239 299 367 435
#     4  11  22  42  69 104 141 184 236 294 353 424
#     4  11  24  44  69 100 142 187 233 292 358 427
#     4  11  25  46  72 104 143 187 239 301 364 433
#
# _framework density 25.063303999999999
#
# number of rings (size 3 to 8) (size 9 to 14) (size 15 to 20)
#    0.000    1.000    0.000    8.250    0.000   10.000 
#    0.000    7.500    0.000    0.000    0.000    0.000 
#    0.000    0.000    0.000    0.000    0.000    0.000 
#
# Total GULP energy -179693.086447 kJ/mol
# GULP energy per Si atom -5615.408951 kJ/mol
# Density = 2.500626 g / cm^3
# Si number density = 25.063304 Si / 1000 Ang^3
#
#
#
# Elastic Constant Matrix: (Units=GPa)
#
#
# Indices 1 2 3 4 5 6 
#
# 1 218.5856 44.7184 75.9770 0.0000 0.0000 0.0000
# 2 44.7184 54.6080 55.1144 0.0000 0.0000 0.0000
# 3 75.9770 55.1144 170.6811 0.0000 0.0000 0.0000
# 4 0.0000 0.0000 0.0000 76.2202 0.0000 0.0000
# 5 0.0000 0.0000 0.0000 0.0000 -12.2958 0.0000
# 6 0.0000 0.0000 0.0000 0.0000 0.0000 39.2422
#
#
#
# Elastic Compliance Matrix: (Units=1/GPa)
#
#
# Indices 1 2 3 4 5 6 
#
# 1 0.005757 -0.003157 -0.001543 0.000000 0.000000 0.000000
# 2 -0.003157 0.028897 -0.007926 0.000000 0.000000 0.000000
# 3 -0.001543 -0.007926 0.009105 0.000000 0.000000 0.000000
# 4 0.000000 0.000000 0.000000 0.013120 0.000000 0.000000
# 5 0.000000 0.000000 0.000000 0.000000 -0.081328 0.000000
# 6 0.000000 0.000000 0.000000 0.000000 0.000000 0.025483
#
#
# Mechanical properties :
#
#
# Convention : Reuss Voigt Hill
#
# Bulk Modulus (GPa) = 54.03324 88.38826 71.21075
# Shear Modulus (GPa) = 154.06255 38.50431 96.28343
#
# Velocity S-wave (km/s) = 7.84875 3.92380 6.20480
# Velocity P-wave (km/s) = 10.18541 7.47468 8.93346
#
# Compressibility (1/GPa) = 0.01850713
#
# Stress axis : x y z
#
# Youngs Moduli (GPa) = 173.69712 34.60598 109.82744
#
# Poissons Ratio (x) = 0.10925 0.16950
# Poissons Ratio (y) = 0.54833 0.87047
# Poissons Ratio (z) = 0.26808 0.27428
#
# Static dielectric constant tensor:
#      x y z
#    x 1.867120 0.000000 0.000000 
#    y 0.000000 2.116120 0.000000 
#    z 0.000000 0.000000 1.998960 
# 
# From -- ./inp_files/19488.got.cif
#   From: 2010.05.17/outbox.cif.g08.bks.cpg/sg64_10_cif.got.tgz:19488.got - 2010.06.03 16:29:19.
