data_PCOD9481562
_publ_section_title
;
Structure prediction by ZEFSAII (Michael W. Deem and Ramdas Pophale) SiO2 
 PCOD9481562
Probable space group: C M C A
;
_chemical_formula_sum "Si O2"
_cell_formula_units_Z 64
_cell_length_a 31.322268
_cell_length_b 17.764596
_cell_length_c 5.030139
_cell_angle_alpha 90.000000
_cell_angle_beta 90.000000
_cell_angle_gamma 90.000000
_cell_volume 2798.907351
_symmetry_space_group_name_H-M "C M C A"
_symmetry_group_IT_number 64
_symmetry_cell_setting 'orthorhombic'
loop_
_space_group_symop_operation_xyz
x,y,z
-x,1/2-y,1/2+z
x,-y,-z
-x,1/2+y,1/2-z
-x,-y,-z
x,1/2+y,1/2-z
-x,y,z
x,1/2-y,1/2+z
1/2+x,1/2+y,z
1/2-x,-y,1/2+z
1/2+x,1/2-y,-z
1/2-x,y,1/2-z
1/2-x,1/2-y,-z
1/2+x,y,1/2-z
1/2-x,1/2+y,z
1/2+x,-y,1/2+z
loop_
_atom_site_type_symbol
_atom_site_label
_atom_site_fract_x
_atom_site_fract_y
_atom_site_fract_z
Si Si1 0.298871 0.697362 0.726532
Si Si2 0.366448 0.913307 0.476739
Si Si3 0.905055 0.194586 0.347180
Si Si4 0.046829 0.418778 0.138757
O O1 0.304205 0.734727 0.438859
O O2 0.250000 0.670148 0.750000
O O3 0.332112 0.633887 0.810916
O O4 0.373119 0.872645 0.760642
O O5 0.413173 0.910780 0.336681
O O6 0.354078 0.000000 0.500000
O O7 0.901129 0.249112 0.599503
O O8 0.947207 0.146822 0.419685
O O9 0.000000 0.412776 0.265748
O O10 0.049920 0.500000 0.000000
#
# Coordination Sequence:
#
# PCOD9481562 Si02
#       4
#    16  16  16  16
#     4  10  24  47  75 108 145 188 235 293 369 440
#     4  12  25  44  76 109 145 196 248 304 365 442
#     4  12  25  44  68 102 140 183 239 304 364 425
#     4  11  26  47  70 102 146 197 247 301 366 433
#
# _framework density 22.866067000000001
#
# number of rings (size 3 to 8) (size 9 to 14) (size 15 to 20)
#    0.000    0.750    5.000    1.500    3.500    2.500 
#    0.000    5.000    0.000    0.000    0.000    0.000 
#    0.000    0.000    0.000    0.000    0.000    0.000 
#
# Total GULP energy -178963.452898 kJ/mol
# GULP energy per Si atom -5592.607903 kJ/mol
# Density = 2.281402 g / cm^3
# Si number density = 22.866067 Si / 1000 Ang^3
#
#
#
# Elastic Constant Matrix: (Units=GPa)
#
#
# Indices 1 2 3 4 5 6 
#
# 1 176.1462 51.8837 27.6021 0.0000 0.0000 0.0000
# 2 51.8837 155.7634 30.1000 0.0000 0.0000 0.0000
# 3 27.6021 30.1000 117.5528 0.0000 0.0000 0.0000
# 4 0.0000 0.0000 0.0000 28.9307 0.0000 0.0000
# 5 0.0000 0.0000 0.0000 0.0000 31.4615 0.0000
# 6 0.0000 0.0000 0.0000 0.0000 0.0000 13.9897
#
#
#
# Elastic Compliance Matrix: (Units=1/GPa)
#
#
# Indices 1 2 3 4 5 6 
#
# 1 0.006406 -0.001939 -0.001008 0.000000 0.000000 0.000000
# 2 -0.001939 0.007341 -0.001424 0.000000 0.000000 0.000000
# 3 -0.001008 -0.001424 0.009108 0.000000 0.000000 0.000000
# 4 0.000000 0.000000 0.000000 0.034565 0.000000 0.000000
# 5 0.000000 0.000000 0.000000 0.000000 0.031785 0.000000
# 6 0.000000 0.000000 0.000000 0.000000 0.000000 0.071481
#
#
# Mechanical properties :
#
#
# Convention : Reuss Voigt Hill
#
# Bulk Modulus (GPa) = 70.85653 74.29265 72.57459
# Shear Modulus (GPa) = 28.71355 37.53482 33.12418
#
# Velocity S-wave (km/s) = 3.54747 4.05595 3.81020
# Velocity P-wave (km/s) = 6.91623 7.38208 7.15295
#
# Compressibility (1/GPa) = 0.01411303
#
# Stress axis : x y z
#
# Youngs Moduli (GPa) = 156.09939 136.21827 109.79174
#
# Poissons Ratio (x) = 0.26414 0.11064
# Poissons Ratio (y) = 0.30270 0.15639
# Poissons Ratio (z) = 0.15730 0.19403
#
# Static dielectric constant tensor:
#      x y z
#    x 1.907060 0.000000 0.000000 
#    y 0.000000 1.824240 0.000000 
#    z 0.000000 0.000000 1.925110 
# 
# From -- ./inp_files/3158.got.cif
#   From: 2010.05.17/outbox.cif.g08.bks.cpg/sg64_2_cif.got.tgz:3158.got - 2010.06.03 16:29:19.
