data_PCOD9481709
_publ_section_title
;
Structure prediction by ZEFSAII (Michael W. Deem and Ramdas Pophale) SiO2 
 PCOD9481709
Probable space group: C M C A
;
_chemical_formula_sum "Si O2"
_cell_formula_units_Z 80
_cell_length_a 22.910274
_cell_length_b 18.783072
_cell_length_c 9.069351
_cell_angle_alpha 90.000000
_cell_angle_beta 90.000000
_cell_angle_gamma 90.000000
_cell_volume 3902.771426
_symmetry_space_group_name_H-M "C M C A"
_symmetry_group_IT_number 64
_symmetry_cell_setting 'orthorhombic'
loop_
_space_group_symop_operation_xyz
x,y,z
-x,1/2-y,1/2+z
x,-y,-z
-x,1/2+y,1/2-z
-x,-y,-z
x,1/2+y,1/2-z
-x,y,z
x,1/2-y,1/2+z
1/2+x,1/2+y,z
1/2-x,-y,1/2+z
1/2+x,1/2-y,-z
1/2-x,y,1/2-z
1/2-x,1/2-y,-z
1/2+x,y,1/2-z
1/2-x,1/2+y,z
1/2+x,-y,1/2+z
loop_
_atom_site_type_symbol
_atom_site_label
_atom_site_fract_x
_atom_site_fract_y
_atom_site_fract_z
Si Si1 0.500000 0.392260 0.492191
Si Si2 0.616056 0.461463 0.130414
Si Si3 0.000000 0.504414 0.748368
Si Si4 0.607420 0.674669 0.350887
Si Si5 0.306565 0.961883 0.848793
Si Si6 0.071893 0.314075 0.502944
O O1 0.500000 0.418101 0.324805
O O2 0.500000 0.454565 0.612115
O O3 0.557521 0.351820 0.536865
O O4 0.557406 0.507045 0.157124
O O5 0.652503 0.476810 0.275280
O O6 0.594262 0.385333 0.078576
O O7 0.650187 0.500000 0.000000
O O8 0.657157 0.612962 0.358189
O O9 0.611264 0.753809 0.420240
O O10 0.586175 0.681628 0.179425
O O11 0.250000 0.948843 0.750000
O O12 0.290044 0.000000 0.000000
O O13 0.000000 0.306186 0.487280
#
# Coordination Sequence:
#
# PCOD9481709 Si02
#       6
#     8  16   8  16  16  16
#     4  11  20  37  61 100 146 177 228 289 349 428
#     4  12  23  41  69 102 143 183 236 296 355 421
#     4  11  21  31  65 104 135 178 228 292 359 418
#     4  12  26  44  67 104 149 187 233 287 351 429
#     4  12  28  51  77 102 133 184 248 309 355 411
#     4  12  25  41  67 108 151 193 225 280 358 438
#
# _framework density 20.498255
#
# number of rings (size 3 to 8) (size 9 to 14) (size 15 to 20)
#    0.000    0.200    7.000    2.100    5.600    0.000 
#    0.000    2.000    0.000    0.000    0.000    0.000 
#    0.000    0.000    0.000    0.000    0.000    0.000 
#
# Total GULP energy -222856.652967 kJ/mol
# GULP energy per Si atom -5571.416324 kJ/mol
# Density = 2.045160 g / cm^3
# Si number density = 20.498255 Si / 1000 Ang^3
#
#
#
# Elastic Constant Matrix: (Units=GPa)
#
#
# Indices 1 2 3 4 5 6 
#
# 1 103.4018 38.3705 29.0978 0.0000 0.0000 0.0000
# 2 38.3705 132.6284 45.4165 0.0000 0.0000 0.0000
# 3 29.0978 45.4165 84.5634 0.0000 0.0000 0.0000
# 4 0.0000 0.0000 0.0000 38.3350 0.0000 0.0000
# 5 0.0000 0.0000 0.0000 0.0000 10.2412 0.0000
# 6 0.0000 0.0000 0.0000 0.0000 0.0000 2.3537
#
#
#
# Elastic Compliance Matrix: (Units=1/GPa)
#
#
# Indices 1 2 3 4 5 6 
#
# 1 0.011285 -0.002371 -0.002610 0.000000 0.000000 0.000000
# 2 -0.002371 0.009737 -0.004414 0.000000 0.000000 0.000000
# 3 -0.002610 -0.004414 0.015094 0.000000 0.000000 0.000000
# 4 0.000000 0.000000 0.000000 0.026086 0.000000 0.000000
# 5 0.000000 0.000000 0.000000 0.000000 0.097645 0.000000
# 6 0.000000 0.000000 0.000000 0.000000 0.000000 0.424857
#
#
# Mechanical properties :
#
#
# Convention : Reuss Voigt Hill
#
# Bulk Modulus (GPa) = 57.71259 60.70700 59.20980
# Shear Modulus (GPa) = 8.20655 24.03324 16.11990
#
# Velocity S-wave (km/s) = 2.00305 3.42782 2.80733
# Velocity P-wave (km/s) = 5.79359 6.73399 6.28141
#
# Compressibility (1/GPa) = 0.01732724
#
# Stress axis : x y z
#
# Youngs Moduli (GPa) = 88.61060 102.69808 66.25213
#
# Poissons Ratio (x) = 0.24353 0.17290
# Poissons Ratio (y) = 0.21012 0.29241
# Poissons Ratio (z) = 0.23124 0.45327
#
# Static dielectric constant tensor:
#      x y z
#    x 1.730290 0.000000 0.000000 
#    y 0.000000 2.040000 0.000000 
#    z 0.000000 0.000000 1.898450 
# 
# From -- ./inp_files/9267.got.cif
#   From: 2010.05.17/outbox.cif.g08.bks.cpg/sg64_5_cif.got.tgz:9267.got - 2010.06.03 16:29:19.
