data_PCOD9481600
_publ_section_title
;
Structure prediction by ZEFSAII (Michael W. Deem and Ramdas Pophale) SiO2 
 PCOD9481600
Probable space group: C M C A
;
_chemical_formula_sum "Si O2"
_cell_formula_units_Z 48
_cell_length_a 8.821206
_cell_length_b 20.026066
_cell_length_c 11.236611
_cell_angle_alpha 90.000000
_cell_angle_beta 90.000000
_cell_angle_gamma 90.000000
_cell_volume 1984.992881
_symmetry_space_group_name_H-M "C M C A"
_symmetry_group_IT_number 64
_symmetry_cell_setting 'orthorhombic'
loop_
_space_group_symop_operation_xyz
x,y,z
-x,1/2-y,1/2+z
x,-y,-z
-x,1/2+y,1/2-z
-x,-y,-z
x,1/2+y,1/2-z
-x,y,z
x,1/2-y,1/2+z
1/2+x,1/2+y,z
1/2-x,-y,1/2+z
1/2+x,1/2-y,-z
1/2-x,y,1/2-z
1/2-x,1/2-y,-z
1/2+x,y,1/2-z
1/2-x,1/2+y,z
1/2+x,-y,1/2+z
loop_
_atom_site_type_symbol
_atom_site_label
_atom_site_fract_x
_atom_site_fract_y
_atom_site_fract_z
Si Si1 0.750000 0.999539 0.750000
Si Si2 0.000000 0.325955 0.594173
Si Si3 0.000000 0.332335 0.101277
Si Si4 0.665912 0.873141 0.887664
Si Si5 0.000000 0.404502 0.346269
O O1 0.669564 0.948841 0.842043
O O2 0.639200 0.045786 0.675789
O O3 0.831780 0.344626 0.644448
O O4 0.000000 0.367003 0.470544
O O5 0.000000 0.246551 0.582401
O O6 0.000000 0.351781 0.237903
O O7 0.857392 0.363339 0.029662
O O8 0.500000 0.843238 0.848628
#
# Coordination Sequence:
#
# PCOD9481600 Si02
#       5
#     8   8   8  16   8
#     4  12  24  46  70 108 144 186 240 288 362 422
#     4  12  25  46  75 103 142 195 237 287 361 422
#     4  10  25  48  69 105 152 185 237 301 351 414
#     4  10  25  45  71 103 144 182 233 297 346 421
#     4  12  26  42  74 106 138 192 242 292 354 436
#
# _framework density 24.181446999999999
#
# number of rings (size 3 to 8) (size 9 to 14) (size 15 to 20)
#    1.000    0.000    1.667    4.000    0.000   10.667 
#    0.000    0.000    0.000    0.000    0.000    0.000 
#    0.000    0.000    0.000    0.000    0.000    0.000 
#
# Total GULP energy -133957.802666 kJ/mol
# GULP energy per Si atom -5581.575111 kJ/mol
# Density = 2.412641 g / cm^3
# Si number density = 24.181447 Si / 1000 Ang^3
#
#
#
# Elastic Constant Matrix: (Units=GPa)
#
#
# Indices 1 2 3 4 5 6 
#
# 1 227.4380 69.4340 90.0963 0.0000 0.0000 0.0000
# 2 69.4340 174.7248 59.8648 0.0000 0.0000 0.0000
# 3 90.0963 59.8648 90.4189 0.0000 0.0000 0.0000
# 4 0.0000 0.0000 0.0000 -197.2065 0.0000 0.0000
# 5 0.0000 0.0000 0.0000 0.0000 -27.2697 0.0000
# 6 0.0000 0.0000 0.0000 0.0000 0.0000 25.6969
#
#
#
# Elastic Compliance Matrix: (Units=1/GPa)
#
#
# Indices 1 2 3 4 5 6 
#
# 1 0.007302 -0.000529 -0.006926 0.000000 0.000000 0.000000
# 2 -0.000529 0.007441 -0.004400 0.000000 0.000000 0.000000
# 3 -0.006926 -0.004400 0.020873 0.000000 0.000000 0.000000
# 4 0.000000 0.000000 0.000000 -0.005071 0.000000 0.000000
# 5 0.000000 0.000000 0.000000 0.000000 -0.036671 0.000000
# 6 0.000000 0.000000 0.000000 0.000000 0.000000 0.038915
#
#
# Mechanical properties :
#
#
# Convention : Reuss Voigt Hill
#
# Bulk Modulus (GPa) = 83.97645 103.48574 93.73110
# Shear Modulus (GPa) = 82.69053 -21.54341 30.57356
#
# Velocity S-wave (km/s) = 5.85407 -2.98804 3.55961
# Velocity P-wave (km/s) = 8.97198 5.56632 7.46593
#
# Compressibility (1/GPa) = 0.01190810
#
# Stress axis : x y z
#
# Youngs Moduli (GPa) = 136.95478 134.39412 47.90806
#
# Poissons Ratio (x) = 0.07106 0.33179
# Poissons Ratio (y) = 0.07242 0.21077
# Poissons Ratio (z) = 0.94849 0.59127
#
# Static dielectric constant tensor:
#      x y z
#    x 1.975260 0.000000 0.000000 
#    y 0.000000 1.813240 0.000000 
#    z 0.000000 0.000000 2.051500 
# 
# From -- ./inp_files/20531.got.cif
#   From: 2010.05.17/outbox.cif.g08.bks.cpg/sg64_11_cif.got.tgz:20531.got - 2010.06.03 16:29:19.
