data_PCOD9481859
_publ_section_title
;
Structure prediction by ZEFSAII (Michael W. Deem and Ramdas Pophale) SiO2 
 PCOD9481859
Probable space group: C M C A
;
_chemical_formula_sum "Si O2"
_cell_formula_units_Z 72
_cell_length_a 8.286494
_cell_length_b 14.961784
_cell_length_c 26.014191
_cell_angle_alpha 90.000000
_cell_angle_beta 90.000000
_cell_angle_gamma 90.000000
_cell_volume 3225.258478
_symmetry_space_group_name_H-M "C M C A"
_symmetry_group_IT_number 64
_symmetry_cell_setting 'orthorhombic'
loop_
_space_group_symop_operation_xyz
x,y,z
-x,1/2-y,1/2+z
x,-y,-z
-x,1/2+y,1/2-z
-x,-y,-z
x,1/2+y,1/2-z
-x,y,z
x,1/2-y,1/2+z
1/2+x,1/2+y,z
1/2-x,-y,1/2+z
1/2+x,1/2-y,-z
1/2-x,y,1/2-z
1/2-x,1/2-y,-z
1/2+x,y,1/2-z
1/2-x,1/2+y,z
1/2+x,-y,1/2+z
loop_
_atom_site_type_symbol
_atom_site_label
_atom_site_fract_x
_atom_site_fract_y
_atom_site_fract_z
Si Si1 0.243381 0.500000 0.500000
Si Si2 0.809188 0.914451 0.305426
Si Si3 0.695034 0.758615 0.850294
Si Si4 0.807493 0.448124 0.610329
Si Si5 0.678955 0.690414 0.956158
O O1 0.294686 0.542413 0.443434
O O2 0.173571 0.589363 0.525126
O O3 0.750000 0.948581 0.250000
O O4 0.765452 0.809234 0.308615
O O5 0.000000 0.927237 0.310703
O O6 0.722012 0.968909 0.351403
O O7 0.500000 0.758358 0.844540
O O8 0.755270 0.859522 0.858455
O O9 0.760080 0.709393 0.902285
O O10 0.000000 0.442971 0.596664
O O11 0.500000 0.723487 0.947928
O O12 0.750000 0.750000 0.000000
#
# Coordination Sequence:
#
# PCOD9481859 Si02
#       5
#     8  16  16  16  16
#     4  12  23  40  67 100 143 190 231 278 341 408
#     4  12  27  49  74 101 132 175 228 289 352 415
#     4  11  24  43  66  99 137 178 227 280 337 405
#     4  12  24  43  70 104 143 186 231 283 342 410
#     4  11  22  38  61  94 134 178 223 271 327 394
#
# _framework density 22.323792999999998
#
# number of rings (size 3 to 8) (size 9 to 14) (size 15 to 20)
#    0.000    0.444    4.444    5.333    0.000    1.778 
#    0.000    7.222    0.000    0.000    0.000    0.000 
#    0.000    0.000    0.000    0.000    0.000    0.000 
#
# Total GULP energy -200477.988393 kJ/mol
# GULP energy per Si atom -5568.833011 kJ/mol
# Density = 2.227298 g / cm^3
# Si number density = 22.323793 Si / 1000 Ang^3
#
#
#
# Elastic Constant Matrix: (Units=GPa)
#
#
# Indices 1 2 3 4 5 6 
#
# 1 62.7378 10.2336 -3.4272 0.0000 0.0000 0.0000
# 2 10.2336 116.9050 15.5982 0.0000 0.0000 0.0000
# 3 -3.4272 15.5982 113.3821 0.0000 0.0000 0.0000
# 4 0.0000 0.0000 0.0000 37.1688 0.0000 0.0000
# 5 0.0000 0.0000 0.0000 0.0000 8.6666 0.0000
# 6 0.0000 0.0000 0.0000 0.0000 0.0000 18.4952
#
#
#
# Elastic Compliance Matrix: (Units=1/GPa)
#
#
# Indices 1 2 3 4 5 6 
#
# 1 0.016224 -0.001513 0.000699 0.000000 0.000000 0.000000
# 2 -0.001513 0.008855 -0.001264 0.000000 0.000000 0.000000
# 3 0.000699 -0.001264 0.009015 0.000000 0.000000 0.000000
# 4 0.000000 0.000000 0.000000 0.026904 0.000000 0.000000
# 5 0.000000 0.000000 0.000000 0.000000 0.115385 0.000000
# 6 0.000000 0.000000 0.000000 0.000000 0.000000 0.054068
#
#
# Mechanical properties :
#
#
# Convention : Reuss Voigt Hill
#
# Bulk Modulus (GPa) = 33.40387 37.53709 35.47048
# Shear Modulus (GPa) = 20.44253 30.90748 25.67500
#
# Velocity S-wave (km/s) = 3.02938 3.72494 3.39502
# Velocity P-wave (km/s) = 5.21843 5.94571 5.59391
#
# Compressibility (1/GPa) = 0.02993665
#
# Stress axis : x y z
#
# Youngs Moduli (GPa) = 61.63556 112.92944 110.92946
#
# Poissons Ratio (x) = 0.17091 -0.07750
# Poissons Ratio (y) = 0.09328 0.14021
# Poissons Ratio (z) = -0.04306 0.14274
#
# Static dielectric constant tensor:
#      x y z
#    x 1.810840 0.000000 0.000000 
#    y 0.000000 1.758480 0.000000 
#    z 0.000000 0.000000 1.721930 
# 
# From -- ./inp_files/47626.got.cif
#   From: 2010.05.17/outbox.cif.g08.bks.cpg/sg64_24_cif.got.tgz:47626.got - 2010.06.03 16:29:19.
