data_PCOD9481866
_publ_section_title
;
Structure prediction by ZEFSAII (Michael W. Deem and Ramdas Pophale) SiO2 
 PCOD9481866
Probable space group: C M C A
;
_chemical_formula_sum "Si O2"
_cell_formula_units_Z 96
_cell_length_a 15.348592
_cell_length_b 14.085089
_cell_length_c 18.529910
_cell_angle_alpha 90.000000
_cell_angle_beta 90.000000
_cell_angle_gamma 90.000000
_cell_volume 4005.912392
_symmetry_space_group_name_H-M "C M C A"
_symmetry_group_IT_number 64
_symmetry_cell_setting 'orthorhombic'
loop_
_space_group_symop_operation_xyz
x,y,z
-x,1/2-y,1/2+z
x,-y,-z
-x,1/2+y,1/2-z
-x,-y,-z
x,1/2+y,1/2-z
-x,y,z
x,1/2-y,1/2+z
1/2+x,1/2+y,z
1/2-x,-y,1/2+z
1/2+x,1/2-y,-z
1/2-x,y,1/2-z
1/2-x,1/2-y,-z
1/2+x,y,1/2-z
1/2-x,1/2+y,z
1/2+x,-y,1/2+z
loop_
_atom_site_type_symbol
_atom_site_label
_atom_site_fract_x
_atom_site_fract_y
_atom_site_fract_z
Si Si1 0.715324 0.235782 0.620620
Si Si2 0.140474 0.824875 0.976569
Si Si3 0.862622 0.500000 0.000000
Si Si4 0.601007 0.382350 0.709199
Si Si5 0.500000 0.163244 0.996936
Si Si6 0.095417 0.460143 0.642295
Si Si7 0.781209 0.450362 0.148935
O O1 0.772276 0.303848 0.569291
O O2 0.659632 0.174950 0.561982
O O3 0.654595 0.298314 0.671712
O O4 0.778401 0.162292 0.661934
O O5 0.075272 0.737212 0.968738
O O6 0.102129 0.916439 0.937256
O O7 0.805371 0.466417 0.065976
O O8 0.924242 0.412960 0.978263
O O9 0.500000 0.382581 0.684843
O O10 0.599468 0.377812 0.796156
O O11 0.650103 0.481143 0.688936
O O12 0.182312 0.517262 0.659961
O O13 0.000000 0.506973 0.651905
#
# Coordination Sequence:
#
# PCOD9481866 Si02
#       7
#    16  16   8  16   8  16  16
#     4  11  25  43  71 107 141 180 241 299 360 434
#     4  11  22  43  69 103 138 180 236 294 363 427
#     4  11  24  38  67 110 148 172 239 310 365 418
#     4  11  27  48  75 103 146 197 244 300 371 436
#     4  11  22  38  68 105 144 188 236 297 362 435
#     4  11  25  48  68  96 144 195 240 297 364 437
#     4  12  24  44  71 103 142 188 237 299 361 436
#
# _framework density 23.964577999999999
#
# number of rings (size 3 to 8) (size 9 to 14) (size 15 to 20)
#    0.000    0.833    4.167    2.500    5.833    0.667 
#    6.000    1.250    0.000    0.000    0.000    0.000 
#    0.000    0.000    0.000    0.000    0.000    0.000 
#
# Total GULP energy -267412.733813 kJ/mol
# GULP energy per Si atom -5571.098621 kJ/mol
# Density = 2.391003 g / cm^3
# Si number density = 23.964578 Si / 1000 Ang^3
#
#
#
# Elastic Constant Matrix: (Units=GPa)
#
#
# Indices 1 2 3 4 5 6 
#
# 1 148.5113 30.7704 23.7482 0.0000 0.0000 0.0000
# 2 30.7704 83.5521 27.7300 0.0000 0.0000 0.0000
# 3 23.7482 27.7300 100.1775 0.0000 0.0000 0.0000
# 4 0.0000 0.0000 0.0000 16.2472 0.0000 0.0000
# 5 0.0000 0.0000 0.0000 0.0000 27.6799 0.0000
# 6 0.0000 0.0000 0.0000 0.0000 0.0000 -0.3101
#
#
#
# Elastic Compliance Matrix: (Units=1/GPa)
#
#
# Indices 1 2 3 4 5 6 
#
# 1 0.007398 -0.002359 -0.001101 0.000000 0.000000 0.000000
# 2 -0.002359 0.013932 -0.003297 0.000000 0.000000 0.000000
# 3 -0.001101 -0.003297 0.011156 0.000000 0.000000 0.000000
# 4 0.000000 0.000000 0.000000 0.061549 0.000000 0.000000
# 5 0.000000 0.000000 0.000000 0.000000 0.036127 0.000000
# 6 0.000000 0.000000 0.000000 0.000000 0.000000 -3.225140
#
#
# Mechanical properties :
#
#
# Convention : Reuss Voigt Hill
#
# Bulk Modulus (GPa) = 52.71047 55.19310 53.95178
# Shear Modulus (GPa) = -1.62594 25.38958 11.88182
#
# Velocity S-wave (km/s) = -0.82459 3.25847 2.22909
# Velocity P-wave (km/s) = 4.59742 6.10229 5.40251
#
# Compressibility (1/GPa) = 0.01897156
#
# Stress axis : x y z
#
# Youngs Moduli (GPa) = 135.16530 71.77861 89.63864
#
# Poissons Ratio (x) = 0.16935 0.09867
# Poissons Ratio (y) = 0.31890 0.29555
# Poissons Ratio (z) = 0.14879 0.23666
#
# Static dielectric constant tensor:
#      x y z
#    x 1.897840 0.000000 0.000000 
#    y 0.000000 1.939020 0.000000 
#    z 0.000000 0.000000 1.967490 
# 
# From -- ./inp_files/39264.got.cif
#   From: 2010.05.17/outbox.cif.g08.bks.cpg/sg64_20_cif.got.tgz:39264.got - 2010.06.03 16:29:19.
