data_PCOD9481920
_publ_section_title
;
Structure prediction by ZEFSAII (Michael W. Deem and Ramdas Pophale) SiO2 
 PCOD9481920
Probable space group: C M C A
;
_chemical_formula_sum "Si O2"
_cell_formula_units_Z 96
_cell_length_a 23.237266
_cell_length_b 24.781666
_cell_length_c 8.344343
_cell_angle_alpha 90.000000
_cell_angle_beta 90.000000
_cell_angle_gamma 90.000000
_cell_volume 4805.158046
_symmetry_space_group_name_H-M "C M C A"
_symmetry_group_IT_number 64
_symmetry_cell_setting 'orthorhombic'
loop_
_space_group_symop_operation_xyz
x,y,z
-x,1/2-y,1/2+z
x,-y,-z
-x,1/2+y,1/2-z
-x,-y,-z
x,1/2+y,1/2-z
-x,y,z
x,1/2-y,1/2+z
1/2+x,1/2+y,z
1/2-x,-y,1/2+z
1/2+x,1/2-y,-z
1/2-x,y,1/2-z
1/2-x,1/2-y,-z
1/2+x,y,1/2-z
1/2-x,1/2+y,z
1/2+x,-y,1/2+z
loop_
_atom_site_type_symbol
_atom_site_label
_atom_site_fract_x
_atom_site_fract_y
_atom_site_fract_z
Si Si1 0.000000 0.666543 0.890243
Si Si2 0.500000 0.779506 0.757384
Si Si3 0.795402 0.291729 0.102853
Si Si4 0.696676 0.456915 0.138641
Si Si5 0.778282 0.135395 0.101365
Si Si6 0.884344 0.873830 0.261474
Si Si7 0.615663 0.193342 0.431024
O O1 0.000000 0.714766 0.758208
O O2 0.057159 0.631744 0.861055
O O3 0.000000 0.803234 0.562935
O O4 0.557249 0.797330 0.662966
O O5 0.750000 0.282363 0.250000
O O6 0.832910 0.343805 0.148230
O O7 0.845300 0.247809 0.061217
O O8 0.756707 0.311218 0.953057
O O9 0.750000 0.474502 0.250000
O O10 0.639033 0.433884 0.223713
O O11 0.684046 0.500000 0.000000
O O12 0.718335 0.403005 0.048906
O O13 0.750000 0.106965 0.250000
O O14 0.841331 0.152770 0.157904
O O15 0.892552 0.836480 0.101297
#
# Coordination Sequence:
#
# PCOD9481920 Si02
#       7
#     8   8  16  16  16  16  16
#     4  12  26  40  59  83 129 174 223 268 300 366
#     4  12  26  38  58  91 122 186 227 256 303 359
#     4  12  21  37  57  87 130 166 200 254 310 384
#     4  11  22  43  66  94 123 156 206 268 335 385
#     4  11  23  35  58  93 124 162 203 248 318 382
#     4  11  23  42  62  89 127 171 212 264 315 372
#     4  11  24  36  58  85 129 169 213 251 299 377
#
# _framework density 19.978532000000001
#
# number of rings (size 3 to 8) (size 9 to 14) (size 15 to 20)
#    0.000    0.667    6.667    3.000    4.667    0.000 
#    0.000    0.417    0.000    0.000    0.000    5.250 
#    0.000    0.000    0.000    0.000    0.000    0.000 
#
# Total GULP energy -267822.755919 kJ/mol
# GULP energy per Si atom -5579.640748 kJ/mol
# Density = 1.993306 g / cm^3
# Si number density = 19.978532 Si / 1000 Ang^3
#
#
#
# Elastic Constant Matrix: (Units=GPa)
#
#
# Indices 1 2 3 4 5 6 
#
# 1 165.1822 44.9286 53.4710 0.0000 0.0000 0.0000
# 2 44.9286 70.1108 16.1523 0.0000 0.0000 0.0000
# 3 53.4710 16.1523 57.3436 0.0000 0.0000 0.0000
# 4 0.0000 0.0000 0.0000 36.9315 0.0000 0.0000
# 5 0.0000 0.0000 0.0000 0.0000 33.5948 0.0000
# 6 0.0000 0.0000 0.0000 0.0000 0.0000 18.1467
#
#
#
# Elastic Compliance Matrix: (Units=1/GPa)
#
#
# Indices 1 2 3 4 5 6 
#
# 1 0.009831 -0.004479 -0.007906 0.000000 0.000000 0.000000
# 2 -0.004479 0.017293 -0.000695 0.000000 0.000000 0.000000
# 3 -0.007906 -0.000695 0.025006 0.000000 0.000000 0.000000
# 4 0.000000 0.000000 0.000000 0.027077 0.000000 0.000000
# 5 0.000000 0.000000 0.000000 0.000000 0.029767 0.000000
# 6 0.000000 0.000000 0.000000 0.000000 0.000000 0.055106
#
#
# Mechanical properties :
#
#
# Convention : Reuss Voigt Hill
#
# Bulk Modulus (GPa) = 38.50267 57.97114 48.23691
# Shear Modulus (GPa) = 25.13863 29.60692 27.37277
#
# Velocity S-wave (km/s) = 3.55108 3.85377 3.70551
# Velocity P-wave (km/s) = 6.01061 6.99155 6.51955
#
# Compressibility (1/GPa) = 0.02597222
#
# Stress axis : x y z
#
# Youngs Moduli (GPa) = 101.71589 57.82583 39.98986
#
# Poissons Ratio (x) = 0.25899 0.31615
# Poissons Ratio (y) = 0.45556 0.02778
# Poissons Ratio (z) = 0.80415 0.04018
#
# Static dielectric constant tensor:
#      x y z
#    x 1.733570 0.000000 0.000000 
#    y 0.000000 1.738280 0.000000 
#    z 0.000000 0.000000 1.749470 
# 
# From -- ./inp_files/9512.got.cif
#   From: 2010.05.17/outbox.cif.g08.bks.cpg/sg64_5_cif.got.tgz:9512.got - 2010.06.03 16:29:19.
