data_PCOD9481851
_publ_section_title
;
Structure prediction by ZEFSAII (Michael W. Deem and Ramdas Pophale) SiO2 
 PCOD9481851
Probable space group: C M C A
;
_chemical_formula_sum "Si O2"
_cell_formula_units_Z 72
_cell_length_a 8.028646
_cell_length_b 15.587872
_cell_length_c 22.932643
_cell_angle_alpha 90.000000
_cell_angle_beta 90.000000
_cell_angle_gamma 90.000000
_cell_volume 2870.008947
_symmetry_space_group_name_H-M "C M C A"
_symmetry_group_IT_number 64
_symmetry_cell_setting 'orthorhombic'
loop_
_space_group_symop_operation_xyz
x,y,z
-x,1/2-y,1/2+z
x,-y,-z
-x,1/2+y,1/2-z
-x,-y,-z
x,1/2+y,1/2-z
-x,y,z
x,1/2-y,1/2+z
1/2+x,1/2+y,z
1/2-x,-y,1/2+z
1/2+x,1/2-y,-z
1/2-x,y,1/2-z
1/2-x,1/2-y,-z
1/2+x,y,1/2-z
1/2-x,1/2+y,z
1/2+x,-y,1/2+z
loop_
_atom_site_type_symbol
_atom_site_label
_atom_site_fract_x
_atom_site_fract_y
_atom_site_fract_z
Si Si1 0.692670 0.685170 0.817211
Si Si2 0.304330 0.870148 0.683248
Si Si3 0.500000 0.210326 0.043893
Si Si4 0.678142 0.875147 0.497750
Si Si5 0.808038 0.030531 0.607769
O O1 0.500000 0.660583 0.821039
O O2 0.750000 0.685144 0.750000
O O3 0.795491 0.616095 0.852623
O O4 0.710724 0.783948 0.837376
O O5 0.500000 0.851405 0.682926
O O6 0.250000 0.887052 0.750000
O O7 0.260908 0.951922 0.645081
O O8 0.652063 0.140562 0.032615
O O9 0.358363 0.289068 0.040956
O O10 0.500000 0.882609 0.530897
O O11 0.705103 0.948787 0.449990
O O12 0.000000 0.017970 0.593962
#
# Coordination Sequence:
#
# PCOD9481851 Si02
#       5
#    16  16   8  16  16
#     4  11  22  38  55  77 110 149 184 228 276 325
#     4  11  22  38  55  77 110 149 184 228 276 325
#     4   8  16  30  50  76 110 138 176 222 276 338
#     4   9  16  30  50  79 109 140 178 225 274 327
#     4  12  22  34  55  86 110 143 189 231 269 324
#
# _framework density 25.087029000000001
#
# number of rings (size 3 to 8) (size 9 to 14) (size 15 to 20)
#    0.667    0.889    1.111    8.000    0.000    0.000 
#    0.000    0.000    0.000    0.000    0.000    9.333 
#    0.000    0.000    0.000    0.000    0.000    0.000 
#
# Total GULP energy -200717.031489 kJ/mol
# GULP energy per Si atom -5575.473097 kJ/mol
# Density = 2.502993 g / cm^3
# Si number density = 25.087029 Si / 1000 Ang^3
#
#
#
# Elastic Constant Matrix: (Units=GPa)
#
#
# Indices 1 2 3 4 5 6 
#
# 1 181.9259 17.3245 11.8856 0.0000 0.0000 0.0000
# 2 17.3245 138.4249 63.6688 0.0000 0.0000 0.0000
# 3 11.8856 63.6688 93.8719 0.0000 0.0000 0.0000
# 4 0.0000 0.0000 0.0000 53.0607 0.0000 0.0000
# 5 0.0000 0.0000 0.0000 0.0000 18.7585 0.0000
# 6 0.0000 0.0000 0.0000 0.0000 0.0000 47.8760
#
#
#
# Elastic Compliance Matrix: (Units=1/GPa)
#
#
# Indices 1 2 3 4 5 6 
#
# 1 0.005570 -0.000542 -0.000338 0.000000 0.000000 0.000000
# 2 -0.000542 0.010552 -0.007089 0.000000 0.000000 0.000000
# 3 -0.000338 -0.007089 0.015503 0.000000 0.000000 0.000000
# 4 0.000000 0.000000 0.000000 0.018846 0.000000 0.000000
# 5 0.000000 0.000000 0.000000 0.000000 0.053309 0.000000
# 6 0.000000 0.000000 0.000000 0.000000 0.000000 0.020887
#
#
# Mechanical properties :
#
#
# Convention : Reuss Voigt Hill
#
# Bulk Modulus (GPa) = 63.73551 66.66449 65.20000
# Shear Modulus (GPa) = 34.28528 45.36196 39.82362
#
# Velocity S-wave (km/s) = 3.70084 4.25689 3.98856
# Velocity P-wave (km/s) = 6.61230 7.12688 6.87441
#
# Compressibility (1/GPa) = 0.01568984
#
# Stress axis : x y z
#
# Youngs Moduli (GPa) = 179.52014 94.76583 64.50197
#
# Poissons Ratio (x) = 0.05134 0.02179
# Poissons Ratio (y) = 0.09726 0.45722
# Poissons Ratio (z) = 0.06065 0.67175
#
# Static dielectric constant tensor:
#      x y z
#    x 1.899640 0.000000 0.000000 
#    y 0.000000 2.017990 0.000000 
#    z 0.000000 0.000000 2.022860 
# 
# From -- ./inp_files/51662.got.cif
#   From: 2010.05.17/outbox.cif.g08.bks.cpg/sg64_26_cif.got.tgz:51662.got - 2010.06.03 16:29:19.
