data_PCOD9481884
_publ_section_title
;
Structure prediction by ZEFSAII (Michael W. Deem and Ramdas Pophale) SiO2 
 PCOD9481884
Probable space group: C M C A
;
_chemical_formula_sum "Si O2"
_cell_formula_units_Z 68
_cell_length_a 23.881988
_cell_length_b 15.578139
_cell_length_c 6.908008
_cell_angle_alpha 90.000000
_cell_angle_beta 90.000000
_cell_angle_gamma 90.000000
_cell_volume 2570.034079
_symmetry_space_group_name_H-M "C M C A"
_symmetry_group_IT_number 64
_symmetry_cell_setting 'orthorhombic'
loop_
_space_group_symop_operation_xyz
x,y,z
-x,1/2-y,1/2+z
x,-y,-z
-x,1/2+y,1/2-z
-x,-y,-z
x,1/2+y,1/2-z
-x,y,z
x,1/2-y,1/2+z
1/2+x,1/2+y,z
1/2-x,-y,1/2+z
1/2+x,1/2-y,-z
1/2-x,y,1/2-z
1/2-x,1/2-y,-z
1/2+x,y,1/2-z
1/2-x,1/2+y,z
1/2+x,-y,1/2+z
loop_
_atom_site_type_symbol
_atom_site_label
_atom_site_fract_x
_atom_site_fract_y
_atom_site_fract_z
Si Si1 0.083540 0.367314 0.085201
Si Si2 0.705364 0.102684 0.007376
Si Si3 0.561124 0.826023 0.638395
Si Si4 0.674597 0.601814 0.043758
Si Si5 0.500000 0.000000 0.000000
O O1 0.062951 0.276384 0.160921
O O2 0.049126 0.451741 0.134134
O O3 0.150277 0.372869 0.110788
O O4 0.067874 0.362251 0.854796
O O5 0.688717 0.119533 0.229791
O O6 0.767111 0.135645 0.952326
O O7 0.710644 0.000000 0.000000
O O8 0.500000 0.851867 0.564799
O O9 0.614442 0.855333 0.514414
O O10 0.669592 0.500000 0.000000
#
# Coordination Sequence:
#
# PCOD9481884 Si02
#       5
#    16  16  16  16   4
#     4  11  23  39  63  85 118 153 196 235 291 346
#     4   9  18  36  59  82 111 155 195 234 279 350
#     4  11  22  40  55  86 120 149 191 243 286 342
#     4   9  20  36  56  84 118 149 193 239 289 338
#     4  12  20  40  64  90 106 160 194 226 290 362
#
# _framework density 26.458794999999999
#
# number of rings (size 3 to 8) (size 9 to 14) (size 15 to 20)
#    0.000    1.882    3.529    0.000    0.000    3.294 
#    0.000    0.000    0.000    0.000    0.000    0.000 
#    0.000    0.000    0.000    0.000    0.000    0.000 
#
# Total GULP energy -189730.879102 kJ/mol
# GULP energy per Si atom -5580.319974 kJ/mol
# Density = 2.639857 g / cm^3
# Si number density = 26.458795 Si / 1000 Ang^3
#
#
#
# Elastic Constant Matrix: (Units=GPa)
#
#
# Indices 1 2 3 4 5 6 
#
# 1 328.8582 51.6804 32.2301 0.0000 0.0000 0.0000
# 2 51.6804 88.9775 2.8156 0.0000 0.0000 0.0000
# 3 32.2301 2.8156 77.6092 0.0000 0.0000 0.0000
# 4 0.0000 0.0000 0.0000 36.4570 0.0000 0.0000
# 5 0.0000 0.0000 0.0000 0.0000 14.9218 0.0000
# 6 0.0000 0.0000 0.0000 0.0000 0.0000 9.6995
#
#
#
# Elastic Compliance Matrix: (Units=1/GPa)
#
#
# Indices 1 2 3 4 5 6 
#
# 1 0.003487 -0.001982 -0.001376 0.000000 0.000000 0.000000
# 2 -0.001982 0.012378 0.000374 0.000000 0.000000 0.000000
# 3 -0.001376 0.000374 0.013443 0.000000 0.000000 0.000000
# 4 0.000000 0.000000 0.000000 0.027430 0.000000 0.000000
# 5 0.000000 0.000000 0.000000 0.000000 0.067016 0.000000
# 6 0.000000 0.000000 0.000000 0.000000 0.000000 0.103098
#
#
# Mechanical properties :
#
#
# Convention : Reuss Voigt Hill
#
# Bulk Modulus (GPa) = 42.84499 74.32192 58.58346
# Shear Modulus (GPa) = 20.78134 39.46358 30.12246
#
# Velocity S-wave (km/s) = 2.80558 3.86620 3.37778
# Velocity P-wave (km/s) = 5.16946 6.93402 6.11571
#
# Compressibility (1/GPa) = 0.02333995
#
# Stress axis : x y z
#
# Youngs Moduli (GPa) = 286.76615 80.78795 74.38786
#
# Poissons Ratio (x) = 0.16011 0.10238
# Poissons Ratio (y) = 0.56834 -0.02782
# Poissons Ratio (z) = 0.39467 -0.03021
#
# Static dielectric constant tensor:
#      x y z
#    x 2.426410 0.000000 0.000000 
#    y 0.000000 2.056890 0.000000 
#    z 0.000000 0.000000 2.160530 
# 
# From -- ./inp_files/7866.got.cif
#   From: 2010.05.17/outbox.cif.g08.bks.cpg/sg64_4_cif.got.tgz:7866.got - 2010.06.03 16:29:19.
