data_PCOD9481110
_publ_section_title
;
Structure prediction by ZEFSAII (Michael W. Deem and Ramdas Pophale) SiO2 
 PCOD9481110
Probable space group: C M C A
;
_chemical_formula_sum "Si O2"
_cell_formula_units_Z 120
_cell_length_a 27.025278
_cell_length_b 13.775494
_cell_length_c 14.716983
_cell_angle_alpha 90.000000
_cell_angle_beta 90.000000
_cell_angle_gamma 90.000000
_cell_volume 5478.934900
_symmetry_space_group_name_H-M "C M C A"
_symmetry_group_IT_number 64
_symmetry_cell_setting 'orthorhombic'
loop_
_space_group_symop_operation_xyz
x,y,z
-x,1/2-y,1/2+z
x,-y,-z
-x,1/2+y,1/2-z
-x,-y,-z
x,1/2+y,1/2-z
-x,y,z
x,1/2-y,1/2+z
1/2+x,1/2+y,z
1/2-x,-y,1/2+z
1/2+x,1/2-y,-z
1/2-x,y,1/2-z
1/2-x,1/2-y,-z
1/2+x,y,1/2-z
1/2-x,1/2+y,z
1/2+x,-y,1/2+z
loop_
_atom_site_type_symbol
_atom_site_label
_atom_site_fract_x
_atom_site_fract_y
_atom_site_fract_z
Si Si1 0.237051 0.452206 0.354389
Si Si2 0.899637 0.673383 0.640843
Si Si3 0.245153 0.239641 0.391303
Si Si4 0.858716 0.750040 0.330687
Si Si5 0.000000 0.229387 0.418202
Si Si6 0.826263 0.055819 0.371742
Si Si7 0.138104 0.535194 0.334302
Si Si8 0.897122 0.829384 0.506394
O O1 0.250000 0.474860 0.250000
O O2 0.221920 0.341168 0.359607
O O3 0.289154 0.470532 0.402731
O O4 0.191131 0.517740 0.383166
O O5 0.874144 0.715780 0.731057
O O6 0.956047 0.710059 0.636115
O O7 0.894249 0.557567 0.639234
O O8 0.877317 0.728480 0.552871
O O9 0.250000 0.250000 0.500000
O O10 0.299815 0.238485 0.345987
O O11 0.211968 0.147343 0.365386
O O12 0.881228 0.643000 0.350647
O O13 0.881169 0.824825 0.402754
O O14 0.955384 0.173323 0.474987
O O15 0.849839 0.032749 0.273691
O O16 0.869671 0.087409 0.437954
#
# Coordination Sequence:
#
# PCOD9481110 Si02
#       8
#    16  16  16  16   8  16  16  16
#     4  10  23  36  61  89 131 184 223 265 330 407
#     4  10  23  46  67  95 136 169 229 291 339 403
#     4  12  25  40  57  96 141 182 221 281 335 413
#     4  12  23  40  71  99 132 182 225 267 359 411
#     4   8  22  48  71  94 134 175 222 310 352 381
#     4  11  21  41  61  96 139 176 229 270 335 412
#     4  11  22  39  66  96 130 186 224 274 334 411
#     4  10  22  44  69  97 136 170 224 300 340 408
#
# _framework density 21.902066000000001
#
# number of rings (size 3 to 8) (size 9 to 14) (size 15 to 20)
#    0.800    0.533    4.000    2.400    1.867    1.600 
#    2.400    4.000    0.000    0.000    0.000    5.600 
#    0.000    0.000    0.000    0.000    0.000    0.000 
#
# Total GULP energy -334243.821150 kJ/mol
# GULP energy per Si atom -5570.730353 kJ/mol
# Density = 2.185222 g / cm^3
# Si number density = 21.902066 Si / 1000 Ang^3
#
#
#
# Elastic Constant Matrix: (Units=GPa)
#
#
# Indices 1 2 3 4 5 6 
#
# 1 140.0552 11.1625 15.7010 0.0000 0.0000 0.0000
# 2 11.1625 73.2507 -13.4787 0.0000 0.0000 0.0000
# 3 15.7010 -13.4787 74.6245 0.0000 0.0000 0.0000
# 4 0.0000 0.0000 0.0000 30.3216 0.0000 0.0000
# 5 0.0000 0.0000 0.0000 0.0000 18.1561 0.0000
# 6 0.0000 0.0000 0.0000 0.0000 0.0000 24.0512
#
#
#
# Elastic Compliance Matrix: (Units=1/GPa)
#
#
# Indices 1 2 3 4 5 6 
#
# 1 0.007464 -0.001475 -0.001837 0.000000 0.000000 0.000000
# 2 -0.001475 0.014413 0.002914 0.000000 0.000000 0.000000
# 3 -0.001837 0.002914 0.014313 0.000000 0.000000 0.000000
# 4 0.000000 0.000000 0.000000 0.032980 0.000000 0.000000
# 5 0.000000 0.000000 0.000000 0.000000 0.055078 0.000000
# 6 0.000000 0.000000 0.000000 0.000000 0.000000 0.041578
#
#
# Mechanical properties :
#
#
# Convention : Reuss Voigt Hill
#
# Bulk Modulus (GPa) = 28.25468 34.96668 31.61068
# Shear Modulus (GPa) = 28.02383 32.80882 30.41633
#
# Velocity S-wave (km/s) = 3.58090 3.87457 3.73063
# Velocity P-wave (km/s) = 5.47956 6.00134 5.74638
#
# Compressibility (1/GPa) = 0.03539237
#
# Stress axis : x y z
#
# Youngs Moduli (GPa) = 133.98465 69.38329 69.86585
#
# Poissons Ratio (x) = 0.10236 0.12833
# Poissons Ratio (y) = 0.19767 -0.20356
# Poissons Ratio (z) = 0.24610 -0.20216
#
# Static dielectric constant tensor:
#      x y z
#    x 1.783140 0.000000 0.000000 
#    y 0.000000 1.858780 0.000000 
#    z 0.000000 0.000000 1.837530 
# 
# From -- ./inp_files/28498.got.cif
#   From: 2010.05.17/outbox.cif.g08.bks.cpg/sg64_15_cif.got.tgz:28498.got - 2010.06.03 16:29:19.
