data_PCOD9481412
_publ_section_title
;
Structure prediction by ZEFSAII (Michael W. Deem and Ramdas Pophale) SiO2 
 PCOD9481412
Probable space group: C M C A
;
_chemical_formula_sum "Si O2"
_cell_formula_units_Z 112
_cell_length_a 28.898135
_cell_length_b 13.169401
_cell_length_c 14.249456
_cell_angle_alpha 90.000000
_cell_angle_beta 90.000000
_cell_angle_gamma 90.000000
_cell_volume 5422.931543
_symmetry_space_group_name_H-M "C M C A"
_symmetry_group_IT_number 64
_symmetry_cell_setting 'orthorhombic'
loop_
_space_group_symop_operation_xyz
x,y,z
-x,1/2-y,1/2+z
x,-y,-z
-x,1/2+y,1/2-z
-x,-y,-z
x,1/2+y,1/2-z
-x,y,z
x,1/2-y,1/2+z
1/2+x,1/2+y,z
1/2-x,-y,1/2+z
1/2+x,1/2-y,-z
1/2-x,y,1/2-z
1/2-x,1/2-y,-z
1/2+x,y,1/2-z
1/2-x,1/2+y,z
1/2+x,-y,1/2+z
loop_
_atom_site_type_symbol
_atom_site_label
_atom_site_fract_x
_atom_site_fract_y
_atom_site_fract_z
Si Si1 0.446904 0.580494 0.858755
Si Si2 0.446899 0.360568 0.921091
Si Si3 0.859125 0.684151 0.712149
Si Si4 0.141241 0.274549 0.074623
Si Si5 0.299976 0.492448 0.240261
Si Si6 0.321007 0.869970 0.909600
Si Si7 0.284376 0.605498 0.058119
O O1 0.500000 0.588616 0.826175
O O2 0.433707 0.460455 0.859811
O O3 0.412597 0.656325 0.805535
O O4 0.446149 0.608806 0.969060
O O5 0.500000 0.333820 0.897617
O O6 0.409530 0.272652 0.913806
O O7 0.845402 0.695864 0.820557
O O8 0.833608 0.580920 0.684701
O O9 0.840370 0.778966 0.654820
O O10 0.175623 0.186257 0.035935
O O11 0.146357 0.365757 0.000765
O O12 0.250000 0.439950 0.250000
O O13 0.318224 0.534125 0.339299
O O14 0.290633 0.584244 0.169147
O O15 0.268624 0.857228 0.948735
O O16 0.288064 0.500000 0.000000
#
# Coordination Sequence:
#
# PCOD9481412 Si02
#       7
#    16  16  16  16  16  16  16
#     4   9  19  38  64  92 124 159 204 264 325 374
#     4   9  19  38  63  91 122 160 207 261 319 379
#     4  12  24  39  66  93 126 166 212 267 316 382
#     4  12  24  36  66  94 123 170 213 262 315 385
#     4  10  24  40  61  83 129 169 207 259 311 371
#     4  11  25  43  56  92 131 166 215 257 315 383
#     4  11  24  41  63  90 123 173 218 259 313 371
#
# _framework density 20.653034999999999
#
# number of rings (size 3 to 8) (size 9 to 14) (size 15 to 20)
#    0.000    1.429    2.857    3.000    8.000    0.571 
#    0.000    0.000    0.000    0.857    0.000    2.000 
#    0.000    0.000    0.000    0.000    0.000    0.000 
#
# Total GULP energy -312483.194632 kJ/mol
# GULP energy per Si atom -5580.057047 kJ/mol
# Density = 2.060603 g / cm^3
# Si number density = 20.653035 Si / 1000 Ang^3
#
#
#
# Elastic Constant Matrix: (Units=GPa)
#
#
# Indices 1 2 3 4 5 6 
#
# 1 81.2268 49.7677 10.4643 0.0000 0.0000 0.0000
# 2 49.7677 57.5052 25.9452 0.0000 0.0000 0.0000
# 3 10.4643 25.9452 92.8033 0.0000 0.0000 0.0000
# 4 0.0000 0.0000 0.0000 19.4136 0.0000 0.0000
# 5 0.0000 0.0000 0.0000 0.0000 25.6652 0.0000
# 6 0.0000 0.0000 0.0000 0.0000 0.0000 33.2535
#
#
#
# Elastic Compliance Matrix: (Units=1/GPa)
#
#
# Indices 1 2 3 4 5 6 
#
# 1 0.027485 -0.025621 0.004064 0.000000 0.000000 0.000000
# 2 -0.025621 0.043782 -0.009351 0.000000 0.000000 0.000000
# 3 0.004064 -0.009351 0.012932 0.000000 0.000000 0.000000
# 4 0.000000 0.000000 0.000000 0.051510 0.000000 0.000000
# 5 0.000000 0.000000 0.000000 0.000000 0.038963 0.000000
# 6 0.000000 0.000000 0.000000 0.000000 0.000000 0.030072
#
#
# Mechanical properties :
#
#
# Convention : Reuss Voigt Hill
#
# Bulk Modulus (GPa) = 44.67764 44.87663 44.77714
# Shear Modulus (GPa) = 18.24668 25.35700 21.80184
#
# Velocity S-wave (km/s) = 2.97557 3.50774 3.25256
# Velocity P-wave (km/s) = 5.78661 6.17913 5.98609
#
# Compressibility (1/GPa) = 0.02238256
#
# Stress axis : x y z
#
# Youngs Moduli (GPa) = 36.38286 22.84034 77.32967
#
# Poissons Ratio (x) = 0.58518 -0.31424
# Poissons Ratio (y) = 0.93215 0.72314
# Poissons Ratio (z) = -0.14785 0.21359
#
# Static dielectric constant tensor:
#      x y z
#    x 1.778310 0.000000 0.000000 
#    y 0.000000 1.786310 0.000000 
#    z 0.000000 0.000000 1.749510 
# 
# From -- ./inp_files/28369.got.cif
#   From: 2010.05.17/outbox.cif.g08.bks.cpg/sg64_15_cif.got.tgz:28369.got - 2010.06.03 16:29:19.
