data_PCOD9481565
_publ_section_title
;
Structure prediction by ZEFSAII (Michael W. Deem and Ramdas Pophale) SiO2 
 PCOD9481565
Probable space group: C M C A
;
_chemical_formula_sum "Si O2"
_cell_formula_units_Z 60
_cell_length_a 21.283785
_cell_length_b 24.737783
_cell_length_c 4.934535
_cell_angle_alpha 90.000000
_cell_angle_beta 90.000000
_cell_angle_gamma 90.000000
_cell_volume 2598.100057
_symmetry_space_group_name_H-M "C M C A"
_symmetry_group_IT_number 64
_symmetry_cell_setting 'orthorhombic'
loop_
_space_group_symop_operation_xyz
x,y,z
-x,1/2-y,1/2+z
x,-y,-z
-x,1/2+y,1/2-z
-x,-y,-z
x,1/2+y,1/2-z
-x,y,z
x,1/2-y,1/2+z
1/2+x,1/2+y,z
1/2-x,-y,1/2+z
1/2+x,1/2-y,-z
1/2-x,y,1/2-z
1/2-x,1/2-y,-z
1/2+x,y,1/2-z
1/2-x,1/2+y,z
1/2+x,-y,1/2+z
loop_
_atom_site_type_symbol
_atom_site_label
_atom_site_fract_x
_atom_site_fract_y
_atom_site_fract_z
Si Si1 0.119628 0.143500 0.761064
Si Si2 0.750000 0.208930 0.750000
Si Si3 0.610122 0.427800 0.742337
Si Si4 0.000000 0.784682 0.270089
Si Si5 0.500000 0.000000 0.500000
Si Si6 0.714207 0.500000 0.000000
O O1 0.187124 0.172235 0.743086
O O2 0.113984 0.091063 0.566850
O O3 0.063114 0.182297 0.671572
O O4 0.105257 0.124685 0.066231
O O5 0.750000 0.250000 0.500000
O O6 0.554476 0.468081 0.821377
O O7 0.673398 0.456558 0.838736
O O8 0.000000 0.732317 0.457976
O O9 0.750000 0.527898 0.750000
#
# Coordination Sequence:
#
# PCOD9481565 Si02
#       6
#    16   8  16   8   4   8
#     4  12  25  43  70 101 134 180 237 286 343 432
#     4  12  26  46  68  98 140 184 228 296 368 420
#     4  11  25  42  69  99 134 182 224 283 339 414
#     4  12  24  43  68  97 134 173 226 289 351 406
#     4  10  24  48  68 102 148 180 228 286 362 416
#     4  11  24  41  64  93 138 173 222 272 330 395
#
# _framework density 23.093800000000002
#
# number of rings (size 3 to 8) (size 9 to 14) (size 15 to 20)
#    0.000    0.533    0.000    8.000    5.600    4.267 
#    0.000    0.000    0.000    0.000    0.000    0.000 
#    0.000    0.000    0.000    0.000    0.000    0.000 
#
# Total GULP energy -167498.142327 kJ/mol
# GULP energy per Si atom -5583.271411 kJ/mol
# Density = 2.304124 g / cm^3
# Si number density = 23.093800 Si / 1000 Ang^3
#
#
#
# Elastic Constant Matrix: (Units=GPa)
#
#
# Indices 1 2 3 4 5 6 
#
# 1 167.7983 44.9457 20.1986 0.0000 0.0000 0.0000
# 2 44.9457 69.3110 6.7380 0.0000 0.0000 0.0000
# 3 20.1986 6.7380 90.0989 0.0000 0.0000 0.0000
# 4 0.0000 0.0000 0.0000 60.7293 0.0000 0.0000
# 5 0.0000 0.0000 0.0000 0.0000 -108.0095 0.0000
# 6 0.0000 0.0000 0.0000 0.0000 0.0000 32.6503
#
#
#
# Elastic Compliance Matrix: (Units=1/GPa)
#
#
# Indices 1 2 3 4 5 6 
#
# 1 0.007361 -0.004647 -0.001303 0.000000 0.000000 0.000000
# 2 -0.004647 0.017467 -0.000265 0.000000 0.000000 0.000000
# 3 -0.001303 -0.000265 0.011411 0.000000 0.000000 0.000000
# 4 0.000000 0.000000 0.000000 0.016467 0.000000 0.000000
# 5 0.000000 0.000000 0.000000 0.000000 -0.009258 0.000000
# 6 0.000000 0.000000 0.000000 0.000000 0.000000 0.030628
#
#
# Mechanical properties :
#
#
# Convention : Reuss Voigt Hill
#
# Bulk Modulus (GPa) = 41.99822 52.33030 47.16426
# Shear Modulus (GPa) = 52.94437 14.09574 33.52005
#
# Velocity S-wave (km/s) = 4.79328 2.47324 3.81395
# Velocity P-wave (km/s) = 6.98996 5.55563 6.31366
#
# Compressibility (1/GPa) = 0.02381054
#
# Stress axis : x y z
#
# Youngs Moduli (GPa) = 135.85131 57.25197 87.63671
#
# Poissons Ratio (x) = 0.26603 0.11416
# Poissons Ratio (y) = 0.63126 0.02318
# Poissons Ratio (z) = 0.17697 0.01514
#
# Static dielectric constant tensor:
#      x y z
#    x 1.902690 0.000000 0.000000 
#    y 0.000000 1.860230 0.000000 
#    z 0.000000 0.000000 2.858840 
# 
# From -- ./inp_files/1724.got.cif
#   From: 2010.05.17/outbox.cif.g08.bks.cpg/sg64_1_cif.got.tgz:1724.got - 2010.06.03 16:29:19.
