data_PCOD9481658
_publ_section_title
;
Structure prediction by ZEFSAII (Michael W. Deem and Ramdas Pophale) SiO2 
 PCOD9481658
Probable space group: C M C A
;
_chemical_formula_sum "Si O2"
_cell_formula_units_Z 112
_cell_length_a 14.422458
_cell_length_b 28.931505
_cell_length_c 14.240046
_cell_angle_alpha 90.000000
_cell_angle_beta 90.000000
_cell_angle_gamma 90.000000
_cell_volume 5941.850234
_symmetry_space_group_name_H-M "C M C A"
_symmetry_group_IT_number 64
_symmetry_cell_setting 'orthorhombic'
loop_
_space_group_symop_operation_xyz
x,y,z
-x,1/2-y,1/2+z
x,-y,-z
-x,1/2+y,1/2-z
-x,-y,-z
x,1/2+y,1/2-z
-x,y,z
x,1/2-y,1/2+z
1/2+x,1/2+y,z
1/2-x,-y,1/2+z
1/2+x,1/2-y,-z
1/2-x,y,1/2-z
1/2-x,1/2-y,-z
1/2+x,y,1/2-z
1/2-x,1/2+y,z
1/2+x,-y,1/2+z
loop_
_atom_site_type_symbol
_atom_site_label
_atom_site_fract_x
_atom_site_fract_y
_atom_site_fract_z
Si Si1 0.113066 0.937281 0.090310
Si Si2 0.893222 0.833221 0.553482
Si Si3 0.110431 0.961165 0.875165
Si Si4 0.772789 0.251725 0.858189
Si Si5 0.357859 0.373678 0.747774
Si Si6 0.898132 0.306409 0.588565
Si Si7 0.215295 0.150560 0.929158
O O1 0.176123 0.894440 0.122553
O O2 0.000000 0.929506 0.096898
O O3 0.138142 0.985652 0.140616
O O4 0.138972 0.945700 0.980122
O O5 0.850326 0.786268 0.600208
O O6 0.891239 0.868950 0.641353
O O7 0.818323 0.849722 0.475298
O O8 0.000000 0.827652 0.522350
O O9 0.132925 0.923423 0.796715
O O10 0.000000 0.962555 0.881097
O O11 0.750000 0.260041 0.750000
O O12 0.676863 0.265789 0.909081
O O13 0.793937 0.198165 0.872343
O O14 0.250000 0.362626 0.750000
O O15 0.401942 0.334455 0.814005
O O16 0.856907 0.342623 0.515005
O O17 0.000000 0.290330 0.562775
#
# Coordination Sequence:
#
# PCOD9481658 Si02
#       7
#    16  16  16  16  16  16  16
#     4   9  17  32  52  78 110 139 175 222 273 327
#     4  11  21  35  54  80 114 146 183 230 276 331
#     4   9  17  29  51  81 107 137 175 221 278 332
#     4  11  23  38  50  75 109 146 192 234 275 330
#     4  12  18  31  54  84 118 141 175 226 283 333
#     4  11  19  33  55  78 110 144 177 226 283 330
#     4  11  22  35  54  78 112 146 189 227 272 339
#
# _framework density 18.849347000000002
#
# number of rings (size 3 to 8) (size 9 to 14) (size 15 to 20)
#    0.000    1.429    5.714    4.286    0.000    2.857 
#    0.000    0.714    0.000    0.000    0.000   10.000 
#    0.000    0.000    0.000    0.000    0.000    0.000 
#
# Total GULP energy -312207.134905 kJ/mol
# GULP energy per Si atom -5575.127409 kJ/mol
# Density = 1.880645 g / cm^3
# Si number density = 18.849347 Si / 1000 Ang^3
#
#
#
# Elastic Constant Matrix: (Units=GPa)
#
#
# Indices 1 2 3 4 5 6 
#
# 1 109.5763 37.9020 -2.6997 0.0000 0.0000 0.0000
# 2 37.9020 161.2756 21.6444 0.0000 0.0000 0.0000
# 3 -2.6997 21.6444 25.0422 0.0000 0.0000 0.0000
# 4 0.0000 0.0000 0.0000 22.7754 0.0000 0.0000
# 5 0.0000 0.0000 0.0000 0.0000 7.0632 0.0000
# 6 0.0000 0.0000 0.0000 0.0000 0.0000 9.6787
#
#
#
# Elastic Compliance Matrix: (Units=1/GPa)
#
#
# Indices 1 2 3 4 5 6 
#
# 1 0.010211 -0.002882 0.003592 0.000000 0.000000 0.000000
# 2 -0.002882 0.007828 -0.007076 0.000000 0.000000 0.000000
# 3 0.003592 -0.007076 0.046436 0.000000 0.000000 0.000000
# 4 0.000000 0.000000 0.000000 0.043907 0.000000 0.000000
# 5 0.000000 0.000000 0.000000 0.000000 0.141579 0.000000
# 6 0.000000 0.000000 0.000000 0.000000 0.000000 0.103319
#
#
# Mechanical properties :
#
#
# Convention : Reuss Voigt Hill
#
# Bulk Modulus (GPa) = 19.32661 45.50972 32.41816
# Shear Modulus (GPa) = 13.04598 23.83995 18.44297
#
# Velocity S-wave (km/s) = 2.63367 3.56021 3.13140
# Velocity P-wave (km/s) = 4.41857 6.41065 5.50546
#
# Compressibility (1/GPa) = 0.05174213
#
# Stress axis : x y z
#
# Youngs Moduli (GPa) = 97.92997 127.75447 21.53509
#
# Poissons Ratio (x) = 0.36817 -0.07735
# Poissons Ratio (y) = 0.28222 0.15239
# Poissons Ratio (z) = -0.35173 0.90401
#
# Static dielectric constant tensor:
#      x y z
#    x 1.662340 0.000000 0.000000 
#    y 0.000000 1.761890 0.000000 
#    z 0.000000 0.000000 1.805720 
# 
# From -- ./inp_files/24382.got.cif
#   From: 2010.05.17/outbox.cif.g08.bks.cpg/sg64_13_cif.got.tgz:24382.got - 2010.06.03 16:29:19.
