data_PCOD9481716
_publ_section_title
;
Structure prediction by ZEFSAII (Michael W. Deem and Ramdas Pophale) SiO2 
 PCOD9481716
Probable space group: C M C A
;
_chemical_formula_sum "Si O2"
_cell_formula_units_Z 96
_cell_length_a 15.580961
_cell_length_b 19.244523
_cell_length_c 14.060041
_cell_angle_alpha 90.000000
_cell_angle_beta 90.000000
_cell_angle_gamma 90.000000
_cell_volume 4215.877456
_symmetry_space_group_name_H-M "C M C A"
_symmetry_group_IT_number 64
_symmetry_cell_setting 'orthorhombic'
loop_
_space_group_symop_operation_xyz
x,y,z
-x,1/2-y,1/2+z
x,-y,-z
-x,1/2+y,1/2-z
-x,-y,-z
x,1/2+y,1/2-z
-x,y,z
x,1/2-y,1/2+z
1/2+x,1/2+y,z
1/2-x,-y,1/2+z
1/2+x,1/2-y,-z
1/2-x,y,1/2-z
1/2-x,1/2-y,-z
1/2+x,y,1/2-z
1/2-x,1/2+y,z
1/2+x,-y,1/2+z
loop_
_atom_site_type_symbol
_atom_site_label
_atom_site_fract_x
_atom_site_fract_y
_atom_site_fract_z
Si Si1 0.500000 0.544446 0.850204
Si Si2 0.830009 0.326703 0.633273
Si Si3 0.900001 0.237628 0.311050
Si Si4 0.832300 0.392939 0.312216
Si Si5 0.100385 0.801493 0.467051
Si Si6 0.000000 0.895339 0.948594
Si Si7 0.274182 0.582551 0.503631
O O1 0.586847 0.557527 0.793668
O O2 0.500000 0.471315 0.902333
O O3 0.500000 0.600381 0.937144
O O4 0.846001 0.314546 0.744808
O O5 0.833255 0.248865 0.588706
O O6 0.917180 0.357356 0.589756
O O7 0.758003 0.378269 0.592178
O O8 0.863056 0.314495 0.295755
O O9 0.896977 0.221027 0.422563
O O10 0.000000 0.234859 0.282002
O O11 0.750000 0.409774 0.250000
O O12 0.800947 0.402793 0.420175
O O13 0.140198 0.878231 0.461960
O O14 0.000000 0.797594 0.436076
O O15 0.284456 0.500000 0.500000
#
# Coordination Sequence:
#
# PCOD9481716 Si02
#       7
#     8  16  16  16  16   8  16
#     4  11  22  43  70 102 148 192 231 298 360 427
#     4  12  22  42  74 107 137 180 246 303 351 417
#     4  11  23  41  69 107 139 179 241 297 359 421
#     4  12  25  43  69 106 144 186 234 297 358 430
#     4  11  24  45  70  99 144 190 238 300 359 428
#     4  11  20  39  76 102 136 185 244 293 353 415
#     4  12  27  48  70 102 146 192 238 292 365 434
#
# _framework density 22.771059000000001
#
# number of rings (size 3 to 8) (size 9 to 14) (size 15 to 20)
#    0.000    0.500    5.833    2.500    2.333    0.333 
#    7.500    0.000    0.000    0.000    0.000    0.000 
#    0.000    0.000    0.000    0.000    0.000    0.000 
#
# Total GULP energy -268697.667050 kJ/mol
# GULP energy per Si atom -5597.868064 kJ/mol
# Density = 2.271923 g / cm^3
# Si number density = 22.771059 Si / 1000 Ang^3
#
#
#
# Elastic Constant Matrix: (Units=GPa)
#
#
# Indices 1 2 3 4 5 6 
#
# 1 116.8324 36.0985 7.0584 0.0000 0.0000 0.0000
# 2 36.0985 128.3282 19.9832 0.0000 0.0000 0.0000
# 3 7.0584 19.9832 83.0532 0.0000 0.0000 0.0000
# 4 0.0000 0.0000 0.0000 24.0254 0.0000 0.0000
# 5 0.0000 0.0000 0.0000 0.0000 27.7582 0.0000
# 6 0.0000 0.0000 0.0000 0.0000 0.0000 46.7258
#
#
#
# Elastic Compliance Matrix: (Units=1/GPa)
#
#
# Indices 1 2 3 4 5 6 
#
# 1 0.009376 -0.002611 -0.000169 0.000000 0.000000 0.000000
# 2 -0.002611 0.008823 -0.001901 0.000000 0.000000 0.000000
# 3 -0.000169 -0.001901 0.012512 0.000000 0.000000 0.000000
# 4 0.000000 0.000000 0.000000 0.041623 0.000000 0.000000
# 5 0.000000 0.000000 0.000000 0.000000 0.036025 0.000000
# 6 0.000000 0.000000 0.000000 0.000000 0.000000 0.021401
#
#
# Mechanical properties :
#
#
# Convention : Reuss Voigt Hill
#
# Bulk Modulus (GPa) = 46.83858 50.49933 48.66895
# Shear Modulus (GPa) = 34.19055 37.37347 35.78201
#
# Velocity S-wave (km/s) = 3.87911 4.05565 3.96837
# Velocity P-wave (km/s) = 6.37788 6.64502 6.51282
#
# Compressibility (1/GPa) = 0.02134992
#
# Stress axis : x y z
#
# Youngs Moduli (GPa) = 106.65213 113.33899 79.92205
#
# Poissons Ratio (x) = 0.29596 0.01347
# Poissons Ratio (y) = 0.27850 0.15193
# Poissons Ratio (z) = 0.01798 0.21545
#
# Static dielectric constant tensor:
#      x y z
#    x 1.868190 0.000000 0.000000 
#    y 0.000000 1.829330 0.000000 
#    z 0.000000 0.000000 1.933270 
# 
# From -- ./inp_files/23970.got.cif
#   From: 2010.05.17/outbox.cif.g08.bks.cpg/sg64_12_cif.got.tgz:23970.got - 2010.06.03 16:29:19.
