data_PCOD9481229
_publ_section_title
;
Structure prediction by ZEFSAII (Michael W. Deem and Ramdas Pophale) SiO2 
 PCOD9481229
Probable space group: C M C A
;
_chemical_formula_sum "Si O2"
_cell_formula_units_Z 112
_cell_length_a 23.540885
_cell_length_b 14.620256
_cell_length_c 15.812627
_cell_angle_alpha 90.000000
_cell_angle_beta 90.000000
_cell_angle_gamma 90.000000
_cell_volume 5442.291372
_symmetry_space_group_name_H-M "C M C A"
_symmetry_group_IT_number 64
_symmetry_cell_setting 'orthorhombic'
loop_
_space_group_symop_operation_xyz
x,y,z
-x,1/2-y,1/2+z
x,-y,-z
-x,1/2+y,1/2-z
-x,-y,-z
x,1/2+y,1/2-z
-x,y,z
x,1/2-y,1/2+z
1/2+x,1/2+y,z
1/2-x,-y,1/2+z
1/2+x,1/2-y,-z
1/2-x,y,1/2-z
1/2-x,1/2-y,-z
1/2+x,y,1/2-z
1/2-x,1/2+y,z
1/2+x,-y,1/2+z
loop_
_atom_site_type_symbol
_atom_site_label
_atom_site_fract_x
_atom_site_fract_y
_atom_site_fract_z
Si Si1 0.142143 0.351916 0.195497
Si Si2 0.564938 0.341893 0.059446
Si Si3 0.565941 0.511021 0.795457
Si Si4 0.762252 0.560446 0.916757
Si Si5 0.238770 0.129060 0.153093
Si Si6 0.391842 0.832061 0.628069
Si Si7 0.820854 0.216487 0.876862
O O1 0.105333 0.435858 0.229809
O O2 0.185565 0.384600 0.123594
O O3 0.102108 0.271166 0.160682
O O4 0.175537 0.312531 0.277782
O O5 0.500000 0.311793 0.072397
O O6 0.572427 0.434508 0.114849
O O7 0.614280 0.275901 0.093637
O O8 0.577689 0.351688 0.960511
O O9 0.500000 0.516095 0.772329
O O10 0.585499 0.407454 0.807125
O O11 0.744891 0.479345 0.853793
O O12 0.710875 0.632650 0.923988
O O13 0.773971 0.500000 0.000000
O O14 0.250000 0.152309 0.250000
O O15 0.176095 0.154863 0.122675
O O16 0.285508 0.191642 0.106698
#
# Coordination Sequence:
#
# PCOD9481229 Si02
#       7
#    16  16  16  16  16  16  16
#     4  11  24  42  65  96 138 174 226 279 334 405
#     4  10  23  41  66  97 132 167 218 285 336 394
#     4  10  23  44  68  96 131 180 235 282 332 403
#     4  12  25  39  64  98 136 173 211 275 344 411
#     4  12  22  38  66  94 130 175 214 272 334 401
#     4  12  22  38  68  99 131 172 221 285 346 392
#     4  11  22  43  66  96 130 172 223 267 329 412
#
# _framework density 20.579567000000001
#
# number of rings (size 3 to 8) (size 9 to 14) (size 15 to 20)
#    0.000    0.857    2.857    5.571    2.000    3.429 
#    0.000    0.000    0.000    0.429    0.000    0.000 
#    0.000    0.000    0.000    0.000    0.000    0.000 
#
# Total GULP energy -313017.262719 kJ/mol
# GULP energy per Si atom -5589.593977 kJ/mol
# Density = 2.053273 g / cm^3
# Si number density = 20.579567 Si / 1000 Ang^3
#
#
#
# Elastic Constant Matrix: (Units=GPa)
#
#
# Indices 1 2 3 4 5 6 
#
# 1 99.9445 10.3963 26.2278 0.0000 0.0000 0.0000
# 2 10.3963 53.7316 3.1262 0.0000 0.0000 0.0000
# 3 26.2278 3.1262 65.3006 0.0000 0.0000 0.0000
# 4 0.0000 0.0000 0.0000 7.4335 0.0000 0.0000
# 5 0.0000 0.0000 0.0000 0.0000 27.2782 0.0000
# 6 0.0000 0.0000 0.0000 0.0000 0.0000 13.3733
#
#
#
# Elastic Compliance Matrix: (Units=1/GPa)
#
#
# Indices 1 2 3 4 5 6 
#
# 1 0.011383 -0.001942 -0.004479 0.000000 0.000000 0.000000
# 2 -0.001942 0.018994 -0.000129 0.000000 0.000000 0.000000
# 3 -0.004479 -0.000129 0.017119 0.000000 0.000000 0.000000
# 4 0.000000 0.000000 0.000000 0.134527 0.000000 0.000000
# 5 0.000000 0.000000 0.000000 0.000000 0.036659 0.000000
# 6 0.000000 0.000000 0.000000 0.000000 0.000000 0.074776
#
#
# Mechanical properties :
#
#
# Convention : Reuss Voigt Hill
#
# Bulk Modulus (GPa) = 29.07338 33.16417 31.11878
# Shear Modulus (GPa) = 15.72210 21.56541 18.64376
#
# Velocity S-wave (km/s) = 2.76699 3.24065 3.01314
# Velocity P-wave (km/s) = 4.93622 5.49113 5.22105
#
# Compressibility (1/GPa) = 0.03439572
#
# Stress axis : x y z
#
# Youngs Moduli (GPa) = 87.85080 52.64749 58.41477
#
# Poissons Ratio (x) = 0.10223 0.26164
# Poissons Ratio (y) = 0.17059 0.00756
# Poissons Ratio (z) = 0.39348 0.00681
#
# Static dielectric constant tensor:
#      x y z
#    x 1.723120 0.000000 0.000000 
#    y 0.000000 1.725250 0.000000 
#    z 0.000000 0.000000 1.798120 
# 
# From -- ./inp_files/27422.got.cif
#   From: 2010.05.17/outbox.cif.g08.bks.cpg/sg64_14_cif.got.tgz:27422.got - 2010.06.03 16:29:19.
