data_PCOD9481778
_publ_section_title
;
Structure prediction by ZEFSAII (Michael W. Deem and Ramdas Pophale) SiO2 
 PCOD9481778
Probable space group: C M C A
;
_chemical_formula_sum "Si O2"
_cell_formula_units_Z 96
_cell_length_a 22.480057
_cell_length_b 22.020599
_cell_length_c 9.622547
_cell_angle_alpha 90.000000
_cell_angle_beta 90.000000
_cell_angle_gamma 90.000000
_cell_volume 4763.394792
_symmetry_space_group_name_H-M "C M C A"
_symmetry_group_IT_number 64
_symmetry_cell_setting 'orthorhombic'
loop_
_space_group_symop_operation_xyz
x,y,z
-x,1/2-y,1/2+z
x,-y,-z
-x,1/2+y,1/2-z
-x,-y,-z
x,1/2+y,1/2-z
-x,y,z
x,1/2-y,1/2+z
1/2+x,1/2+y,z
1/2-x,-y,1/2+z
1/2+x,1/2-y,-z
1/2-x,y,1/2-z
1/2-x,1/2-y,-z
1/2+x,y,1/2-z
1/2-x,1/2+y,z
1/2+x,-y,1/2+z
loop_
_atom_site_type_symbol
_atom_site_label
_atom_site_fract_x
_atom_site_fract_y
_atom_site_fract_z
Si Si1 0.931952 0.198174 0.328565
Si Si2 0.068774 0.342926 0.274469
Si Si3 0.842343 0.643864 0.944544
Si Si4 0.790252 0.758320 0.868542
Si Si5 0.739048 0.438202 0.913742
Si Si6 0.119079 0.361659 0.574061
O O1 0.923694 0.268363 0.277306
O O2 0.880604 0.180565 0.439102
O O3 0.924237 0.148251 0.205661
O O4 0.000000 0.195572 0.384068
O O5 0.107276 0.379799 0.160486
O O6 0.085500 0.363970 0.429048
O O7 0.000000 0.353206 0.245458
O O8 0.810245 0.690417 0.837839
O O9 0.791806 0.603930 0.019283
O O10 0.750000 0.787193 0.750000
O O11 0.844272 0.799255 0.911916
O O12 0.750000 0.750000 0.000000
O O13 0.750000 0.447289 0.750000
O O14 0.672735 0.409843 0.922791
O O15 0.740802 0.500000 0.000000
#
# Coordination Sequence:
#
# PCOD9481778 Si02
#       6
#    16  16  16  16  16  16
#     4  11  21  38  63  97 139 177 210 252 311 385
#     4  11  23  37  61 103 142 175 209 248 309 389
#     4  12  23  39  64  93 135 171 211 261 323 384
#     4  12  21  32  56  94 133 168 202 249 321 392
#     4  12  29  47  69  94 121 164 219 278 331 377
#     4  12  22  39  63  93 135 171 211 260 321 386
#
# _framework density 20.153694000000002
#
# number of rings (size 3 to 8) (size 9 to 14) (size 15 to 20)
#    0.000    0.333    6.667    3.500    2.333    2.667 
#    0.000    0.000    0.000    6.000    0.000    0.000 
#    0.000    0.000    0.000    0.000    0.000    0.000 
#
# Total GULP energy -267661.863646 kJ/mol
# GULP energy per Si atom -5576.288826 kJ/mol
# Density = 2.010782 g / cm^3
# Si number density = 20.153694 Si / 1000 Ang^3
#
#
#
# Elastic Constant Matrix: (Units=GPa)
#
#
# Indices 1 2 3 4 5 6 
#
# 1 81.8743 22.8402 6.9711 0.0000 0.0000 0.0000
# 2 22.8402 66.1960 5.8148 0.0000 0.0000 0.0000
# 3 6.9711 5.8148 65.8461 0.0000 0.0000 0.0000
# 4 0.0000 0.0000 0.0000 20.2533 0.0000 0.0000
# 5 0.0000 0.0000 0.0000 0.0000 37.0884 0.0000
# 6 0.0000 0.0000 0.0000 0.0000 0.0000 8.5328
#
#
#
# Elastic Compliance Matrix: (Units=1/GPa)
#
#
# Indices 1 2 3 4 5 6 
#
# 1 0.013584 -0.004596 -0.001032 0.000000 0.000000 0.000000
# 2 -0.004596 0.016780 -0.000995 0.000000 0.000000 0.000000
# 3 -0.001032 -0.000995 0.015384 0.000000 0.000000 0.000000
# 4 0.000000 0.000000 0.000000 0.049375 0.000000 0.000000
# 5 0.000000 0.000000 0.000000 0.000000 0.026963 0.000000
# 6 0.000000 0.000000 0.000000 0.000000 0.000000 0.117194
#
#
# Mechanical properties :
#
#
# Convention : Reuss Voigt Hill
#
# Bulk Modulus (GPa) = 30.76876 31.68540 31.22708
# Shear Modulus (GPa) = 18.98537 25.06092 22.02315
#
# Velocity S-wave (km/s) = 3.07258 3.53014 3.30928
# Velocity P-wave (km/s) = 5.28090 5.68963 5.48907
#
# Compressibility (1/GPa) = 0.03250050
#
# Stress axis : x y z
#
# Youngs Moduli (GPa) = 73.61627 59.59479 65.00222
#
# Poissons Ratio (x) = 0.27392 0.06710
# Poissons Ratio (y) = 0.33836 0.06469
# Poissons Ratio (z) = 0.07599 0.05931
#
# Static dielectric constant tensor:
#      x y z
#    x 2.043800 0.000000 0.000000 
#    y 0.000000 1.767040 0.000000 
#    z 0.000000 0.000000 1.794880 
# 
# From -- ./inp_files/9469.got.cif
#   From: 2010.05.17/outbox.cif.g08.bks.cpg/sg64_5_cif.got.tgz:9469.got - 2010.06.03 16:29:19.
