data_PCOD9481732
_publ_section_title
;
Structure prediction by ZEFSAII (Michael W. Deem and Ramdas Pophale) SiO2 
 PCOD9481732
Probable space group: C M C A
;
_chemical_formula_sum "Si O2"
_cell_formula_units_Z 96
_cell_length_a 15.557250
_cell_length_b 14.198868
_cell_length_c 24.713884
_cell_angle_alpha 90.000000
_cell_angle_beta 90.000000
_cell_angle_gamma 90.000000
_cell_volume 5459.181789
_symmetry_space_group_name_H-M "C M C A"
_symmetry_group_IT_number 64
_symmetry_cell_setting 'orthorhombic'
loop_
_space_group_symop_operation_xyz
x,y,z
-x,1/2-y,1/2+z
x,-y,-z
-x,1/2+y,1/2-z
-x,-y,-z
x,1/2+y,1/2-z
-x,y,z
x,1/2-y,1/2+z
1/2+x,1/2+y,z
1/2-x,-y,1/2+z
1/2+x,1/2-y,-z
1/2-x,y,1/2-z
1/2-x,1/2-y,-z
1/2+x,y,1/2-z
1/2-x,1/2+y,z
1/2+x,-y,1/2+z
loop_
_atom_site_type_symbol
_atom_site_label
_atom_site_fract_x
_atom_site_fract_y
_atom_site_fract_z
Si Si1 0.895919 0.605515 0.269441
Si Si2 0.104651 0.113081 0.441874
Si Si3 0.395847 0.280904 0.663262
Si Si4 0.347699 0.609275 0.767684
Si Si5 0.105044 0.395740 0.063982
Si Si6 0.099449 0.220778 0.664704
O O1 0.869674 0.645679 0.210591
O O2 0.868322 0.499051 0.278303
O O3 0.862370 0.681352 0.313265
O O4 0.000000 0.608299 0.270507
O O5 0.134334 0.182856 0.394906
O O6 0.131065 0.134515 0.503476
O O7 0.000000 0.114482 0.441618
O O8 0.129834 0.005189 0.428738
O O9 0.500000 0.279462 0.662900
O O10 0.365879 0.178526 0.682466
O O11 0.250000 0.618444 0.750000
O O12 0.399149 0.650090 0.715930
O O13 0.137850 0.330199 0.112400
O O14 0.000000 0.395012 0.065634
O O15 0.000000 0.240475 0.651389
#
# Coordination Sequence:
#
# PCOD9481732 Si02
#       6
#    16  16  16  16  16  16
#     4   9  17  29  45  64  86 116 150 182 221 266
#     4   8  13  22  42  71  96 115 140 182 228 265
#     4   9  17  30  48  68  90 116 146 183 226 269
#     4  11  21  30  43  64  91 119 150 185 222 265
#     4   8  13  23  42  70  96 114 141 183 227 265
#     4   9  17  30  48  67  89 116 146 184 227 269
#
# _framework density 17.585052999999998
#
# number of rings (size 3 to 8) (size 9 to 14) (size 15 to 20)
#    0.000    3.000    0.000    4.500    0.000    5.333 
#    0.000    0.000    0.000    2.000    0.000    8.167 
#    0.000    0.000    0.000    0.000    0.000    0.000 
#
# Total GULP energy -267409.357383 kJ/mol
# GULP energy per Si atom -5571.028279 kJ/mol
# Density = 1.754503 g / cm^3
# Si number density = 17.585053 Si / 1000 Ang^3
#
#
#
# Elastic Constant Matrix: (Units=GPa)
#
#
# Indices 1 2 3 4 5 6 
#
# 1 13.0581 2.9301 5.4988 0.0000 0.0000 0.0000
# 2 2.9301 147.5895 92.5111 0.0000 0.0000 0.0000
# 3 5.4988 92.5111 136.7042 0.0000 0.0000 0.0000
# 4 0.0000 0.0000 0.0000 30.2571 0.0000 0.0000
# 5 0.0000 0.0000 0.0000 0.0000 3.7001 0.0000
# 6 0.0000 0.0000 0.0000 0.0000 0.0000 -73.0336
#
#
#
# Elastic Compliance Matrix: (Units=1/GPa)
#
#
# Indices 1 2 3 4 5 6 
#
# 1 0.077945 0.000726 -0.003626 0.000000 0.000000 0.000000
# 2 0.000726 0.011774 -0.007997 0.000000 0.000000 0.000000
# 3 -0.003626 -0.007997 0.012872 0.000000 0.000000 0.000000
# 4 0.000000 0.000000 0.000000 0.033050 0.000000 0.000000
# 5 0.000000 0.000000 0.000000 0.000000 0.270262 0.000000
# 6 0.000000 0.000000 0.000000 0.000000 0.000000 -0.013692
#
#
# Mechanical properties :
#
#
# Convention : Reuss Voigt Hill
#
# Bulk Modulus (GPa) = 12.37677 55.47020 33.92349
# Shear Modulus (GPa) = 11.33947 5.27883 8.30915
#
# Velocity S-wave (km/s) = 2.54212 1.73447 2.17609
# Velocity P-wave (km/s) = 3.95853 5.96855 5.06427
#
# Compressibility (1/GPa) = 0.08079654
#
# Stress axis : x y z
#
# Youngs Moduli (GPa) = 12.82952 84.93620 77.68526
#
# Poissons Ratio (x) = -0.06163 0.28171
# Poissons Ratio (y) = -0.00931 0.62122
# Poissons Ratio (z) = 0.04652 0.67920
#
# Static dielectric constant tensor:
#      x y z
#    x 1.641890 0.000000 0.000000 
#    y 0.000000 1.597450 0.000000 
#    z 0.000000 0.000000 1.612950 
# 
# From -- ./inp_files/45748.got.cif
#   From: 2010.05.17/outbox.cif.g08.bks.cpg/sg64_23_cif.got.tgz:45748.got - 2010.06.03 16:29:19.
