data_PCOD9481546
_publ_section_title
;
Structure prediction by ZEFSAII (Michael W. Deem and Ramdas Pophale) SiO2 
 PCOD9481546
Probable space group: C M C A
;
_chemical_formula_sum "Si O2"
_cell_formula_units_Z 88
_cell_length_a 17.860453
_cell_length_b 19.455427
_cell_length_c 11.123137
_cell_angle_alpha 90.000000
_cell_angle_beta 90.000000
_cell_angle_gamma 90.000000
_cell_volume 3865.098117
_symmetry_space_group_name_H-M "C M C A"
_symmetry_group_IT_number 64
_symmetry_cell_setting 'orthorhombic'
loop_
_space_group_symop_operation_xyz
x,y,z
-x,1/2-y,1/2+z
x,-y,-z
-x,1/2+y,1/2-z
-x,-y,-z
x,1/2+y,1/2-z
-x,y,z
x,1/2-y,1/2+z
1/2+x,1/2+y,z
1/2-x,-y,1/2+z
1/2+x,1/2-y,-z
1/2-x,y,1/2-z
1/2-x,1/2-y,-z
1/2+x,y,1/2-z
1/2-x,1/2+y,z
1/2+x,-y,1/2+z
loop_
_atom_site_type_symbol
_atom_site_label
_atom_site_fract_x
_atom_site_fract_y
_atom_site_fract_z
Si Si1 0.500000 0.014360 0.694278
Si Si2 0.250000 0.995895 0.250000
Si Si3 0.872479 0.600428 0.800162
Si Si4 0.141773 0.184912 0.945822
Si Si5 0.500000 0.611192 0.042308
Si Si6 0.087430 0.660372 0.048756
Si Si7 0.258202 0.374592 0.622773
O O1 0.429346 0.039917 0.767089
O O2 0.500000 0.059971 0.572433
O O3 0.500000 0.935625 0.659075
O O4 0.201256 0.942992 0.327323
O O5 0.218893 0.051716 0.153091
O O6 0.859657 0.646205 0.681725
O O7 0.905378 0.645289 0.906850
O O8 0.074416 0.155581 0.028200
O O9 0.119987 0.263823 0.926337
O O10 0.217767 0.166471 0.016798
O O11 0.000000 0.653462 0.084183
O O12 0.153241 0.612893 0.103689
O O13 0.250000 0.335041 0.750000
#
# Coordination Sequence:
#
# PCOD9481546 Si02
#       7
#     8   8  16  16   8  16  16
#     4   9  18  35  58  98 137 165 237 280 332 418
#     4  10  24  46  70 100 138 180 240 296 356 424
#     4  11  23  41  70 103 135 188 237 293 356 420
#     4  11  23  44  71 101 144 188 239 291 354 435
#     4   9  18  35  66  97 130 189 222 287 343 407
#     4  12  26  46  72 106 151 187 236 300 365 430
#     4  10  26  48  68 105 138 192 239 292 364 429
#
# _framework density 22.767855999999998
#
# number of rings (size 3 to 8) (size 9 to 14) (size 15 to 20)
#    0.545    0.909    1.818    2.727    2.545    4.364 
#    3.273    0.909    0.000    0.000    0.000    0.000 
#    0.000    0.000    0.000    0.000    0.000    0.000 
#
# Total GULP energy -245494.857595 kJ/mol
# GULP energy per Si atom -5579.428582 kJ/mol
# Density = 2.271604 g / cm^3
# Si number density = 22.767856 Si / 1000 Ang^3
#
#
#
# Elastic Constant Matrix: (Units=GPa)
#
#
# Indices 1 2 3 4 5 6 
#
# 1 111.8906 9.4610 23.9576 0.0000 0.0000 0.0000
# 2 9.4610 80.8068 8.0610 0.0000 0.0000 0.0000
# 3 23.9576 8.0610 77.7947 0.0000 0.0000 0.0000
# 4 0.0000 0.0000 0.0000 22.8256 0.0000 0.0000
# 5 0.0000 0.0000 0.0000 0.0000 37.7952 0.0000
# 6 0.0000 0.0000 0.0000 0.0000 0.0000 28.7495
#
#
#
# Elastic Compliance Matrix: (Units=1/GPa)
#
#
# Indices 1 2 3 4 5 6 
#
# 1 0.009624 -0.000840 -0.002877 0.000000 0.000000 0.000000
# 2 -0.000840 0.012578 -0.001045 0.000000 0.000000 0.000000
# 3 -0.002877 -0.001045 0.013849 0.000000 0.000000 0.000000
# 4 0.000000 0.000000 0.000000 0.043811 0.000000 0.000000
# 5 0.000000 0.000000 0.000000 0.000000 0.026458 0.000000
# 6 0.000000 0.000000 0.000000 0.000000 0.000000 0.034783
#
#
# Mechanical properties :
#
#
# Convention : Reuss Voigt Hill
#
# Bulk Modulus (GPa) = 37.69624 39.27238 38.48431
# Shear Modulus (GPa) = 31.35424 33.14154 32.24789
#
# Velocity S-wave (km/s) = 3.71499 3.81941 3.76756
# Velocity P-wave (km/s) = 5.91560 6.06111 5.98879
#
# Compressibility (1/GPa) = 0.02652785
#
# Stress axis : x y z
#
# Youngs Moduli (GPa) = 103.90372 79.50554 72.20975
#
# Poissons Ratio (x) = 0.06677 0.20774
# Poissons Ratio (y) = 0.08726 0.07543
# Poissons Ratio (z) = 0.29892 0.08306
#
# Static dielectric constant tensor:
#      x y z
#    x 1.897710 0.000000 0.000000 
#    y 0.000000 1.813270 0.000000 
#    z 0.000000 0.000000 1.849890 
# 
# From -- ./inp_files/16083.got.cif
#   From: 2010.05.17/outbox.cif.g08.bks.cpg/sg64_9_cif.got.tgz:16083.got - 2010.06.03 16:29:19.
