data_PCOD9481580
_publ_section_title
;
Structure prediction by ZEFSAII (Michael W. Deem and Ramdas Pophale) SiO2 
 PCOD9481580
Probable space group: C M C A
;
_chemical_formula_sum "Si O2"
_cell_formula_units_Z 56
_cell_length_a 9.646539
_cell_length_b 12.191130
_cell_length_c 19.195326
_cell_angle_alpha 90.000000
_cell_angle_beta 90.000000
_cell_angle_gamma 90.000000
_cell_volume 2257.412778
_symmetry_space_group_name_H-M "C M C A"
_symmetry_group_IT_number 64
_symmetry_cell_setting 'orthorhombic'
loop_
_space_group_symop_operation_xyz
x,y,z
-x,1/2-y,1/2+z
x,-y,-z
-x,1/2+y,1/2-z
-x,-y,-z
x,1/2+y,1/2-z
-x,y,z
x,1/2-y,1/2+z
1/2+x,1/2+y,z
1/2-x,-y,1/2+z
1/2+x,1/2-y,-z
1/2-x,y,1/2-z
1/2-x,1/2-y,-z
1/2+x,y,1/2-z
1/2-x,1/2+y,z
1/2+x,-y,1/2+z
loop_
_atom_site_type_symbol
_atom_site_label
_atom_site_fract_x
_atom_site_fract_y
_atom_site_fract_z
Si Si1 0.204754 0.548075 0.153689
Si Si2 0.755590 0.500000 0.500000
Si Si3 0.000000 0.264066 0.846109
Si Si4 0.500000 0.154525 0.349238
Si Si5 0.500000 0.885114 0.227811
Si Si6 0.500000 0.671405 0.992284
O O1 0.177495 0.521772 0.072003
O O2 0.130792 0.661852 0.173442
O O3 0.366166 0.577372 0.159738
O O4 0.131748 0.452990 0.198555
O O5 0.860875 0.400191 0.484499
O O6 0.000000 0.146254 0.809480
O O7 0.000000 0.254377 0.929414
O O8 0.500000 0.261759 0.302257
O O9 0.500000 0.204681 0.427455
#
# Coordination Sequence:
#
# PCOD9481580 Si02
#       6
#    16   8   8   8   8   8
#     4  10  25  49  76 111 147 195 258 312 377 465
#     4   9  20  43  74 112 140 190 252 324 378 430
#     4  11  26  47  70 113 155 204 250 305 394 458
#     4  10  24  50  78 113 145 195 262 312 370 443
#     4  11  27  51  70 107 158 206 241 316 379 448
#     4   9  21  42  72 109 147 191 247 318 375 443
#
# _framework density 24.807161000000001
#
# number of rings (size 3 to 8) (size 9 to 14) (size 15 to 20)
#    0.000    2.000    0.000    0.857    8.000    4.571 
#   25.714    1.429    0.000    0.000    0.000    0.000 
#    0.000    0.000    0.000    0.000    0.000    0.000 
#
# Total GULP energy -156779.919678 kJ/mol
# GULP energy per Si atom -5599.282846 kJ/mol
# Density = 2.475070 g / cm^3
# Si number density = 24.807161 Si / 1000 Ang^3
#
#
#
# Elastic Constant Matrix: (Units=GPa)
#
#
# Indices 1 2 3 4 5 6 
#
# 1 167.6253 46.6794 47.0933 0.0000 0.0000 0.0000
# 2 46.6794 103.6781 55.7682 0.0000 0.0000 0.0000
# 3 47.0933 55.7682 154.4872 0.0000 0.0000 0.0000
# 4 0.0000 0.0000 0.0000 50.9175 0.0000 0.0000
# 5 0.0000 0.0000 0.0000 0.0000 39.0554 0.0000
# 6 0.0000 0.0000 0.0000 0.0000 0.0000 -28.8045
#
#
#
# Elastic Compliance Matrix: (Units=1/GPa)
#
#
# Indices 1 2 3 4 5 6 
#
# 1 0.007006 -0.002489 -0.001237 0.000000 0.000000 0.000000
# 2 -0.002489 0.012854 -0.003881 0.000000 0.000000 0.000000
# 3 -0.001237 -0.003881 0.008251 0.000000 0.000000 0.000000
# 4 0.000000 0.000000 0.000000 0.019640 0.000000 0.000000
# 5 0.000000 0.000000 0.000000 0.000000 0.025605 0.000000
# 6 0.000000 0.000000 0.000000 0.000000 0.000000 -0.034717
#
#
# Mechanical properties :
#
#
# Convention : Reuss Voigt Hill
#
# Bulk Modulus (GPa) = 77.54237 80.54138 79.04188
# Shear Modulus (GPa) = 85.98062 30.65033 58.31548
#
# Velocity S-wave (km/s) = 5.89363 3.51884 4.85372
# Velocity P-wave (km/s) = 8.81130 7.00337 7.95884
#
# Compressibility (1/GPa) = 0.01289617
#
# Stress axis : x y z
#
# Youngs Moduli (GPa) = 142.72622 77.79923 121.19300
#
# Poissons Ratio (x) = 0.19364 0.14995
# Poissons Ratio (y) = 0.35524 0.47038
# Poissons Ratio (z) = 0.17660 0.30196
#
# Static dielectric constant tensor:
#      x y z
#    x 1.951260 0.000000 0.000000 
#    y 0.000000 1.883560 0.000000 
#    z 0.000000 0.000000 2.021720 
# 
# From -- ./inp_files/37686.got.cif
#   From: 2010.05.17/outbox.cif.g08.bks.cpg/sg64_19_cif.got.tgz:37686.got - 2010.06.03 16:29:19.
