data_PCOD9481080
_publ_section_title
;
Structure prediction by ZEFSAII (Michael W. Deem and Ramdas Pophale) SiO2 
 PCOD9481080
Probable space group: C M C A
;
_chemical_formula_sum "Si O2"
_cell_formula_units_Z 96
_cell_length_a 18.858468
_cell_length_b 8.853411
_cell_length_c 29.556893
_cell_angle_alpha 90.000000
_cell_angle_beta 90.000000
_cell_angle_gamma 90.000000
_cell_volume 4934.871113
_symmetry_space_group_name_H-M "C M C A"
_symmetry_group_IT_number 64
_symmetry_cell_setting 'orthorhombic'
loop_
_space_group_symop_operation_xyz
x,y,z
-x,1/2-y,1/2+z
x,-y,-z
-x,1/2+y,1/2-z
-x,-y,-z
x,1/2+y,1/2-z
-x,y,z
x,1/2-y,1/2+z
1/2+x,1/2+y,z
1/2-x,-y,1/2+z
1/2+x,1/2-y,-z
1/2-x,y,1/2-z
1/2-x,1/2-y,-z
1/2+x,y,1/2-z
1/2-x,1/2+y,z
1/2+x,-y,1/2+z
loop_
_atom_site_type_symbol
_atom_site_label
_atom_site_fract_x
_atom_site_fract_y
_atom_site_fract_z
Si Si1 0.914954 0.925129 0.292637
Si Si2 0.181166 0.924042 0.119809
Si Si3 0.414585 0.778241 0.303484
Si Si4 0.583466 0.864896 0.035055
Si Si5 0.819573 0.163746 0.982441
Si Si6 0.334160 0.286870 0.374878
O O1 0.894883 0.100859 0.299712
O O2 0.000000 0.917105 0.295850
O O3 0.895347 0.863245 0.243135
O O4 0.881789 0.820775 0.331281
O O5 0.125073 0.858842 0.155390
O O6 0.170621 0.845292 0.071081
O O7 0.259722 0.870139 0.133310
O O8 0.175665 0.106755 0.117131
O O9 0.500000 0.787056 0.309045
O O10 0.500000 0.865356 0.045157
O O11 0.628452 0.861523 0.081125
O O12 0.610055 0.722057 0.006824
O O13 0.599513 0.000000 0.000000
O O14 0.750000 0.250000 0.000000
O O15 0.804952 0.000000 0.000000
#
# Coordination Sequence:
#
# PCOD9481080 Si02
#       6
#    16  16  16  16  16  16
#     4  10  22  43  69  96 134 173 212 267 329 391
#     4  12  25  41  67  96 128 175 216 273 325 386
#     4  10  23  43  69 100 132 172 217 267 328 393
#     4  11  26  43  65  94 130 172 218 270 323 387
#     4  12  23  43  66  93 131 176 218 268 323 387
#     4  12  25  43  65  97 132 169 223 268 331 391
#
# _framework density 19.453396000000001
#
# number of rings (size 3 to 8) (size 9 to 14) (size 15 to 20)
#    0.000    0.833    3.333    3.000    4.667    4.333 
#    0.000    3.333    0.000    0.000    0.000    0.000 
#    0.000    0.000    0.000    0.000    0.000    0.000 
#
# Total GULP energy -268225.025704 kJ/mol
# GULP energy per Si atom -5588.021369 kJ/mol
# Density = 1.940912 g / cm^3
# Si number density = 19.453396 Si / 1000 Ang^3
#
#
#
# Elastic Constant Matrix: (Units=GPa)
#
#
# Indices 1 2 3 4 5 6 
#
# 1 49.5845 41.8319 47.0309 0.0000 0.0000 0.0000
# 2 41.8319 114.5515 46.6072 0.0000 0.0000 0.0000
# 3 47.0309 46.6072 155.2553 0.0000 0.0000 0.0000
# 4 0.0000 0.0000 0.0000 35.7738 0.0000 0.0000
# 5 0.0000 0.0000 0.0000 0.0000 98.2661 0.0000
# 6 0.0000 0.0000 0.0000 0.0000 0.0000 29.6342
#
#
#
# Elastic Compliance Matrix: (Units=1/GPa)
#
#
# Indices 1 2 3 4 5 6 
#
# 1 0.036101 -0.009949 -0.007949 0.000000 0.000000 0.000000
# 2 -0.009949 0.012686 -0.000795 0.000000 0.000000 0.000000
# 3 -0.007949 -0.000795 0.009088 0.000000 0.000000 0.000000
# 4 0.000000 0.000000 0.000000 0.027953 0.000000 0.000000
# 5 0.000000 0.000000 0.000000 0.000000 0.010176 0.000000
# 6 0.000000 0.000000 0.000000 0.000000 0.000000 0.033745
#
#
# Mechanical properties :
#
#
# Convention : Reuss Voigt Hill
#
# Bulk Modulus (GPa) = 48.80663 65.59235 57.19949
# Shear Modulus (GPa) = 28.74149 44.99623 36.86886
#
# Velocity S-wave (km/s) = 3.84794 4.81461 4.35816
# Velocity P-wave (km/s) = 6.69967 8.04352 7.40216
#
# Compressibility (1/GPa) = 0.02048902
#
# Stress axis : x y z
#
# Youngs Moduli (GPa) = 27.70013 78.82611 110.04071
#
# Poissons Ratio (x) = 0.78424 0.87474
# Poissons Ratio (y) = 0.27559 0.08743
# Poissons Ratio (z) = 0.22019 0.06263
#
# Static dielectric constant tensor:
#      x y z
#    x 1.665960 0.000000 0.000000 
#    y 0.000000 1.674970 0.000000 
#    z 0.000000 0.000000 1.659690 
# 
# From -- ./inp_files/50672.got.cif
#   From: 2010.05.17/outbox.cif.g08.bks.cpg/sg64_26_cif.got.tgz:50672.got - 2010.06.03 16:29:19.
