data_PCOD9481429
_publ_section_title
;
Structure prediction by ZEFSAII (Michael W. Deem and Ramdas Pophale) SiO2 
 PCOD9481429
Probable space group: C M C A
;
_chemical_formula_sum "Si O2"
_cell_formula_units_Z 56
_cell_length_a 26.174844
_cell_length_b 17.768612
_cell_length_c 5.365647
_cell_angle_alpha 90.000000
_cell_angle_beta 90.000000
_cell_angle_gamma 90.000000
_cell_volume 2495.512236
_symmetry_space_group_name_H-M "C M C A"
_symmetry_group_IT_number 64
_symmetry_cell_setting 'orthorhombic'
loop_
_space_group_symop_operation_xyz
x,y,z
-x,1/2-y,1/2+z
x,-y,-z
-x,1/2+y,1/2-z
-x,-y,-z
x,1/2+y,1/2-z
-x,y,z
x,1/2-y,1/2+z
1/2+x,1/2+y,z
1/2-x,-y,1/2+z
1/2+x,1/2-y,-z
1/2-x,y,1/2-z
1/2-x,1/2-y,-z
1/2+x,y,1/2-z
1/2-x,1/2+y,z
1/2+x,-y,1/2+z
loop_
_atom_site_type_symbol
_atom_site_label
_atom_site_fract_x
_atom_site_fract_y
_atom_site_fract_z
Si Si1 0.646944 0.078059 0.147135
Si Si2 0.216110 0.500000 0.500000
Si Si3 0.940643 0.699951 0.207523
Si Si4 0.307617 0.218825 0.976028
O O1 0.596408 0.127572 0.184351
O O2 0.676934 0.064339 0.406348
O O3 0.686260 0.130273 0.991446
O O4 0.638360 0.000000 0.000000
O O5 0.250000 0.511835 0.750000
O O6 0.933941 0.746562 0.464562
O O7 0.000000 0.674860 0.204026
O O8 0.331879 0.249320 0.726850
O O9 0.250000 0.250000 0.000000
#
# Coordination Sequence:
#
# PCOD9481429 Si02
#       4
#    16   8  16  16
#     4  12  28  45  75 107 150 195 252 311 381 438
#     4  12  30  46  65 100 155 196 240 304 374 438
#     4  10  24  49  80 111 148 194 247 310 380 457
#     4  10  24  41  64  91 130 183 243 290 344 427
#
# _framework density 22.440282
#
# number of rings (size 3 to 8) (size 9 to 14) (size 15 to 20)
#    0.000    1.143    1.429    1.714   12.000    2.857 
#    0.000    0.714    0.000    0.000    0.000    0.000 
#    0.000    0.000    0.000    0.000    0.000    0.000 
#
# Total GULP energy -156478.679217 kJ/mol
# GULP energy per Si atom -5588.524258 kJ/mol
# Density = 2.238921 g / cm^3
# Si number density = 22.440282 Si / 1000 Ang^3
#
#
#
# Elastic Constant Matrix: (Units=GPa)
#
#
# Indices 1 2 3 4 5 6 
#
# 1 192.7904 84.6116 63.9148 0.0000 0.0000 0.0000
# 2 84.6116 175.4809 77.0584 0.0000 0.0000 0.0000
# 3 63.9148 77.0584 203.8725 0.0000 0.0000 0.0000
# 4 0.0000 0.0000 0.0000 47.5800 0.0000 0.0000
# 5 0.0000 0.0000 0.0000 0.0000 37.9304 0.0000
# 6 0.0000 0.0000 0.0000 0.0000 0.0000 52.6821
#
#
#
# Elastic Compliance Matrix: (Units=1/GPa)
#
#
# Indices 1 2 3 4 5 6 
#
# 1 0.006767 -0.002795 -0.001065 0.000000 0.000000 0.000000
# 2 -0.002795 0.007987 -0.002143 0.000000 0.000000 0.000000
# 3 -0.001065 -0.002143 0.006049 0.000000 0.000000 0.000000
# 4 0.000000 0.000000 0.000000 0.021017 0.000000 0.000000
# 5 0.000000 0.000000 0.000000 0.000000 0.026364 0.000000
# 6 0.000000 0.000000 0.000000 0.000000 0.000000 0.018982
#
#
# Mechanical properties :
#
#
# Convention : Reuss Voigt Hill
#
# Bulk Modulus (GPa) = 113.67081 113.70149 113.68615
# Shear Modulus (GPa) = 48.96982 50.74243 49.85612
#
# Velocity S-wave (km/s) = 4.67650 4.76039 4.71863
# Velocity P-wave (km/s) = 8.94004 8.99964 8.96989
#
# Compressibility (1/GPa) = 0.00879733
#
# Stress axis : x y z
#
# Youngs Moduli (GPa) = 147.78182 125.19961 165.32281
#
# Poissons Ratio (x) = 0.34994 0.17606
# Poissons Ratio (y) = 0.41306 0.35424
# Poissons Ratio (z) = 0.15738 0.26827
#
# Static dielectric constant tensor:
#      x y z
#    x 0.802600 0.000000 0.000000 
#    y 0.000000 1.852860 0.000000 
#    z 0.000000 0.000000 1.850830 
# 
# From -- ./inp_files/3092.got.cif
#   From: 2010.05.17/outbox.cif.g08.bks.cpg/sg64_2_cif.got.tgz:3092.got - 2010.06.03 16:29:19.
