data_PCOD9481781
_publ_section_title
;
Structure prediction by ZEFSAII (Michael W. Deem and Ramdas Pophale) SiO2 
 PCOD9481781
Probable space group: C M C A
;
_chemical_formula_sum "Si O2"
_cell_formula_units_Z 80
_cell_length_a 21.468372
_cell_length_b 16.527732
_cell_length_c 11.083078
_cell_angle_alpha 90.000000
_cell_angle_beta 90.000000
_cell_angle_gamma 90.000000
_cell_volume 3932.536514
_symmetry_space_group_name_H-M "C M C A"
_symmetry_group_IT_number 64
_symmetry_cell_setting 'orthorhombic'
loop_
_space_group_symop_operation_xyz
x,y,z
-x,1/2-y,1/2+z
x,-y,-z
-x,1/2+y,1/2-z
-x,-y,-z
x,1/2+y,1/2-z
-x,y,z
x,1/2-y,1/2+z
1/2+x,1/2+y,z
1/2-x,-y,1/2+z
1/2+x,1/2-y,-z
1/2-x,y,1/2-z
1/2-x,1/2-y,-z
1/2+x,y,1/2-z
1/2-x,1/2+y,z
1/2+x,-y,1/2+z
loop_
_atom_site_type_symbol
_atom_site_label
_atom_site_fract_x
_atom_site_fract_y
_atom_site_fract_z
Si Si1 0.215982 0.140152 0.581658
Si Si2 0.750000 0.277907 0.750000
Si Si3 0.000000 0.123975 0.399728
Si Si4 0.307113 0.500000 0.000000
Si Si5 0.132647 0.962986 0.250915
Si Si6 0.364673 0.136910 0.143821
Si Si7 0.500000 0.433022 0.329745
O O1 0.246032 0.220954 0.633063
O O2 0.262883 0.078916 0.513454
O O3 0.184830 0.096439 0.697060
O O4 0.160610 0.156447 0.488546
O O5 0.686510 0.328305 0.735740
O O6 0.936599 0.162704 0.348989
O O7 0.000000 0.117650 0.545729
O O8 0.000000 0.029187 0.361431
O O9 0.348949 0.504550 0.880415
O O10 0.064775 0.922207 0.258763
O O11 0.134623 0.040179 0.339367
#
# Coordination Sequence:
#
# PCOD9481781 Si02
#       7
#    16   8   8   8  16  16   8
#     4  12  22  39  63  92 122 166 222 268 320 396
#     4  12  26  38  58  96 136 166 210 260 344 406
#     4   9  18  36  65  91 119 160 217 259 311 386
#     4  12  22  35  62  89 130 162 210 274 330 372
#     4  11  21  38  64  92 122 164 218 268 322 380
#     4  11  22  40  63  92 125 167 204 274 326 379
#     4   9  18  35  63  95 115 155 220 267 305 381
#
# _framework density 20.343104
#
# number of rings (size 3 to 8) (size 9 to 14) (size 15 to 20)
#    0.000    1.000    6.000    1.800    0.000    0.400 
#    0.000    2.000    0.000    2.400    0.000    0.000 
#    0.000    0.000    0.000    0.000    0.000    0.000 
#
# Total GULP energy -223342.988671 kJ/mol
# GULP energy per Si atom -5583.574717 kJ/mol
# Density = 2.029680 g / cm^3
# Si number density = 20.343104 Si / 1000 Ang^3
#
#
#
# Elastic Constant Matrix: (Units=GPa)
#
#
# Indices 1 2 3 4 5 6 
#
# 1 182.6368 32.6382 35.2511 0.0000 0.0000 0.0000
# 2 32.6382 37.8771 -7.6787 0.0000 0.0000 0.0000
# 3 35.2511 -7.6787 77.1411 0.0000 0.0000 0.0000
# 4 0.0000 0.0000 0.0000 23.7925 0.0000 0.0000
# 5 0.0000 0.0000 0.0000 0.0000 16.4939 0.0000
# 6 0.0000 0.0000 0.0000 0.0000 0.0000 10.3424
#
#
#
# Elastic Compliance Matrix: (Units=1/GPa)
#
#
# Indices 1 2 3 4 5 6 
#
# 1 0.007615 -0.007417 -0.004218 0.000000 0.000000 0.000000
# 2 -0.007417 0.034169 0.006790 0.000000 0.000000 0.000000
# 3 -0.004218 0.006790 0.015567 0.000000 0.000000 0.000000
# 4 0.000000 0.000000 0.000000 0.042030 0.000000 0.000000
# 5 0.000000 0.000000 0.000000 0.000000 0.060629 0.000000
# 6 0.000000 0.000000 0.000000 0.000000 0.000000 0.096689
#
#
# Mechanical properties :
#
#
# Convention : Reuss Voigt Hill
#
# Bulk Modulus (GPa) = 20.98126 46.45289 33.71708
# Shear Modulus (GPa) = 17.71328 25.95539 21.83434
#
# Velocity S-wave (km/s) = 2.95401 3.57582 3.27969
# Velocity P-wave (km/s) = 4.68732 6.31925 5.56345
#
# Compressibility (1/GPa) = 0.04766158
#
# Stress axis : x y z
#
# Youngs Moduli (GPa) = 131.32154 29.26651 64.23971
#
# Poissons Ratio (x) = 0.21706 0.27097
# Poissons Ratio (y) = 0.97398 -0.43622
# Poissons Ratio (z) = 0.55392 -0.19873
#
# Static dielectric constant tensor:
#      x y z
#    x 1.767710 0.000000 0.000000 
#    y 0.000000 1.720540 0.000000 
#    z 0.000000 0.000000 1.741480 
# 
# From -- ./inp_files/17112.got.cif
#   From: 2010.05.17/outbox.cif.g08.bks.cpg/sg64_9_cif.got.tgz:17112.got - 2010.06.03 16:29:19.
