data_PCOD9481057
_publ_section_title
;
Structure prediction by ZEFSAII (Michael W. Deem and Ramdas Pophale) SiO2 
 PCOD9481057
Probable space group: C M C A
;
_chemical_formula_sum "Si O2"
_cell_formula_units_Z 88
_cell_length_a 14.051759
_cell_length_b 12.504286
_cell_length_c 24.586495
_cell_angle_alpha 90.000000
_cell_angle_beta 90.000000
_cell_angle_gamma 90.000000
_cell_volume 4320.024522
_symmetry_space_group_name_H-M "C M C A"
_symmetry_group_IT_number 64
_symmetry_cell_setting 'orthorhombic'
loop_
_space_group_symop_operation_xyz
x,y,z
-x,1/2-y,1/2+z
x,-y,-z
-x,1/2+y,1/2-z
-x,-y,-z
x,1/2+y,1/2-z
-x,y,z
x,1/2-y,1/2+z
1/2+x,1/2+y,z
1/2-x,-y,1/2+z
1/2+x,1/2-y,-z
1/2-x,y,1/2-z
1/2-x,1/2-y,-z
1/2+x,y,1/2-z
1/2-x,1/2+y,z
1/2+x,-y,1/2+z
loop_
_atom_site_type_symbol
_atom_site_label
_atom_site_fract_x
_atom_site_fract_y
_atom_site_fract_z
Si Si1 0.000000 0.945302 0.812950
Si Si2 0.889337 0.076911 0.451933
Si Si3 0.208418 0.098756 0.199634
Si Si4 0.000000 0.306335 0.325185
Si Si5 0.500000 0.291551 0.306514
Si Si6 0.670767 0.072988 0.855119
Si Si7 0.803559 0.245472 0.385470
O O1 0.102449 0.936183 0.785366
O O2 0.000000 0.064921 0.837249
O O3 0.000000 0.823877 0.837201
O O4 0.879590 0.008627 0.396455
O O5 0.000000 0.101891 0.462416
O O6 0.854758 0.000000 0.500000
O O7 0.831725 0.185168 0.440701
O O8 0.250000 0.163669 0.250000
O O9 0.270176 0.993763 0.188795
O O10 0.229517 0.168803 0.146694
O O11 0.903112 0.259328 0.351955
O O12 0.000000 0.285080 0.259734
O O13 0.407569 0.355401 0.325748
O O14 0.748073 0.143295 0.887861
#
# Coordination Sequence:
#
# PCOD9481057 Si02
#       7
#     8  16  16   8   8  16  16
#     4  12  22  38  56  84 115 168 203 248 292 354
#     4  10  22  43  67  89 115 156 214 271 315 366
#     4  11  23  36  57  85 125 165 210 242 294 369
#     4  12  24  38  60  86 130 172 207 246 299 359
#     4  12  24  38  60  86 130 172 207 246 299 359
#     4  11  23  39  60  91 122 162 207 254 310 373
#     4  11  23  39  60  91 122 162 207 254 310 373
#
# _framework density 20.370253999999999
#
# number of rings (size 3 to 8) (size 9 to 14) (size 15 to 20)
#    0.000    0.909    5.455    2.182    0.000    2.182 
#    0.000    0.000    0.000    0.000    0.000    5.091 
#    0.000    0.000    0.000    0.000    0.000    0.000 
#
# Total GULP energy -245232.145400 kJ/mol
# GULP energy per Si atom -5573.457850 kJ/mol
# Density = 2.032389 g / cm^3
# Si number density = 20.370254 Si / 1000 Ang^3
#
#
#
# Elastic Constant Matrix: (Units=GPa)
#
#
# Indices 1 2 3 4 5 6 
#
# 1 115.0124 16.2090 0.5465 0.0000 0.0000 0.0000
# 2 16.2090 77.1478 -8.6203 0.0000 0.0000 0.0000
# 3 0.5465 -8.6203 21.3775 0.0000 0.0000 0.0000
# 4 0.0000 0.0000 0.0000 14.3473 0.0000 0.0000
# 5 0.0000 0.0000 0.0000 0.0000 10.9989 0.0000
# 6 0.0000 0.0000 0.0000 0.0000 0.0000 34.6154
#
#
#
# Elastic Compliance Matrix: (Units=1/GPa)
#
#
# Indices 1 2 3 4 5 6 
#
# 1 0.008982 -0.002003 -0.001037 0.000000 0.000000 0.000000
# 2 -0.002003 0.014020 0.005705 0.000000 0.000000 0.000000
# 3 -0.001037 0.005705 0.049105 0.000000 0.000000 0.000000
# 4 0.000000 0.000000 0.000000 0.069700 0.000000 0.000000
# 5 0.000000 0.000000 0.000000 0.000000 0.090918 0.000000
# 6 0.000000 0.000000 0.000000 0.000000 0.000000 0.028889
#
#
# Mechanical properties :
#
#
# Convention : Reuss Voigt Hill
#
# Bulk Modulus (GPa) = 12.91381 25.53422 19.22402
# Shear Modulus (GPa) = 17.72441 25.68583 21.70512
#
# Velocity S-wave (km/s) = 2.95297 3.55483 3.26779
# Velocity P-wave (km/s) = 4.24028 5.42323 4.86782
#
# Compressibility (1/GPa) = 0.07743646
#
# Stress axis : x y z
#
# Youngs Moduli (GPa) = 111.33450 71.32451 20.36448
#
# Poissons Ratio (x) = 0.14287 0.02112
# Poissons Ratio (y) = 0.22301 -0.11618
# Poissons Ratio (z) = 0.11549 -0.40690
#
# Static dielectric constant tensor:
#      x y z
#    x 1.743700 0.000000 0.000000 
#    y 0.000000 1.769860 0.000000 
#    z 0.000000 0.000000 1.733960 
# 
# From -- ./inp_files/14807.got.cif
#   From: 2010.05.17/outbox.cif.g08.bks.cpg/sg64_8_cif.got.tgz:14807.got - 2010.06.03 16:29:19.
