data_PCOD9481018
_publ_section_title
;
Structure prediction by ZEFSAII (Michael W. Deem and Ramdas Pophale) SiO2 
 PCOD9481018
Probable space group: C M C A
;
_chemical_formula_sum "Si O2"
_cell_formula_units_Z 64
_cell_length_a 16.077517
_cell_length_b 14.132892
_cell_length_c 10.485750
_cell_angle_alpha 90.000000
_cell_angle_beta 90.000000
_cell_angle_gamma 90.000000
_cell_volume 2382.591109
_symmetry_space_group_name_H-M "C M C A"
_symmetry_group_IT_number 64
_symmetry_cell_setting 'orthorhombic'
loop_
_space_group_symop_operation_xyz
x,y,z
-x,1/2-y,1/2+z
x,-y,-z
-x,1/2+y,1/2-z
-x,-y,-z
x,1/2+y,1/2-z
-x,y,z
x,1/2-y,1/2+z
1/2+x,1/2+y,z
1/2-x,-y,1/2+z
1/2+x,1/2-y,-z
1/2-x,y,1/2-z
1/2-x,1/2-y,-z
1/2+x,y,1/2-z
1/2-x,1/2+y,z
1/2+x,-y,1/2+z
loop_
_atom_site_type_symbol
_atom_site_label
_atom_site_fract_x
_atom_site_fract_y
_atom_site_fract_z
Si Si1 0.589181 0.947599 0.363499
Si Si2 0.403998 0.650558 0.252181
Si Si3 0.265313 0.935804 0.121063
Si Si4 0.601217 0.705694 0.536720
O O1 0.500000 0.896729 0.345879
O O2 0.673783 0.886815 0.373852
O O3 0.584540 0.000000 0.500000
O O4 0.593154 0.037001 0.266900
O O5 0.500000 0.679326 0.257555
O O6 0.374677 0.701650 0.121291
O O7 0.370481 0.684865 0.389823
O O8 0.250000 0.995073 0.250000
O O9 0.347211 0.873589 0.114020
O O10 0.267176 0.000000 0.000000
O O11 0.500000 0.694889 0.538915
#
# Coordination Sequence:
#
# PCOD9481018 Si02
#       4
#    16  16  16  16
#     4   9  19  38  63  89 122 166 214 260 307 369
#     4   9  19  39  67  96 126 165 211 262 320 377
#     4  11  24  41  61  94 130 169 214 258 319 381
#     4  10  22  42  68  97 129 164 209 267 325 382
#
# _framework density 26.861512000000001
#
# number of rings (size 3 to 8) (size 9 to 14) (size 15 to 20)
#    0.000    2.250    0.000    1.500    0.000    5.500 
#    0.000   20.000    0.000    0.000    0.000    3.500 
#    0.000    0.000    0.000    0.000    0.000    0.000 
#
# Total GULP energy -178212.729272 kJ/mol
# GULP energy per Si atom -5569.147790 kJ/mol
# Density = 2.680037 g / cm^3
# Si number density = 26.861512 Si / 1000 Ang^3
#
#
#
# Elastic Constant Matrix: (Units=GPa)
#
#
# Indices 1 2 3 4 5 6 
#
# 1 119.6137 21.7369 -15.2277 0.0000 0.0000 0.0000
# 2 21.7369 105.3277 46.7767 0.0000 0.0000 0.0000
# 3 -15.2277 46.7767 203.9085 0.0000 0.0000 0.0000
# 4 0.0000 0.0000 0.0000 45.4355 0.0000 0.0000
# 5 0.0000 0.0000 0.0000 0.0000 23.8168 0.0000
# 6 0.0000 0.0000 0.0000 0.0000 0.0000 -24.3415
#
#
#
# Elastic Compliance Matrix: (Units=1/GPa)
#
#
# Indices 1 2 3 4 5 6 
#
# 1 0.008949 -0.002387 0.001216 0.000000 0.000000 0.000000
# 2 -0.002387 0.011208 -0.002749 0.000000 0.000000 0.000000
# 3 0.001216 -0.002749 0.005626 0.000000 0.000000 0.000000
# 4 0.000000 0.000000 0.000000 0.022009 0.000000 0.000000
# 5 0.000000 0.000000 0.000000 0.000000 0.041987 0.000000
# 6 0.000000 0.000000 0.000000 0.000000 0.000000 -0.041082
#
#
# Mechanical properties :
#
#
# Convention : Reuss Voigt Hill
#
# Bulk Modulus (GPa) = 55.73620 59.49131 57.61376
# Shear Modulus (GPa) = 79.97756 34.01975 56.99865
#
# Velocity S-wave (km/s) = 5.46248 3.56263 4.61145
# Velocity P-wave (km/s) = 7.78328 6.25449 7.06038
#
# Compressibility (1/GPa) = 0.01794166
#
# Stress axis : x y z
#
# Youngs Moduli (GPa) = 111.74735 89.22416 177.75737
#
# Poissons Ratio (x) = 0.21296 -0.21612
# Poissons Ratio (y) = 0.26671 0.48871
# Poissons Ratio (z) = -0.13586 0.24530
#
# Static dielectric constant tensor:
#      x y z
#    x 2.287910 0.000000 0.000000 
#    y 0.000000 2.139840 0.000000 
#    z 0.000000 0.000000 2.258240 
# 
# From -- ./inp_files/15478.got.cif
#   From: 2010.05.17/outbox.cif.g08.bks.cpg/sg64_8_cif.got.tgz:15478.got - 2010.06.03 16:29:19.
