data_PCOD9481818
_publ_section_title
;
Structure prediction by ZEFSAII (Michael W. Deem and Ramdas Pophale) SiO2 
 PCOD9481818
Probable space group: C M C A
;
_chemical_formula_sum "Si O2"
_cell_formula_units_Z 72
_cell_length_a 17.242237
_cell_length_b 13.513158
_cell_length_c 13.996892
_cell_angle_alpha 90.000000
_cell_angle_beta 90.000000
_cell_angle_gamma 90.000000
_cell_volume 3261.234865
_symmetry_space_group_name_H-M "C M C A"
_symmetry_group_IT_number 64
_symmetry_cell_setting 'orthorhombic'
loop_
_space_group_symop_operation_xyz
x,y,z
-x,1/2-y,1/2+z
x,-y,-z
-x,1/2+y,1/2-z
-x,-y,-z
x,1/2+y,1/2-z
-x,y,z
x,1/2-y,1/2+z
1/2+x,1/2+y,z
1/2-x,-y,1/2+z
1/2+x,1/2-y,-z
1/2-x,y,1/2-z
1/2-x,1/2-y,-z
1/2+x,y,1/2-z
1/2-x,1/2+y,z
1/2+x,-y,1/2+z
loop_
_atom_site_type_symbol
_atom_site_label
_atom_site_fract_x
_atom_site_fract_y
_atom_site_fract_z
Si Si1 0.687670 0.778862 0.116577
Si Si2 0.299031 0.451349 0.895509
Si Si3 0.144965 0.356252 0.315024
Si Si4 0.000000 0.235347 0.370998
Si Si5 0.130597 0.091898 0.439139
O O1 0.674468 0.661705 0.109853
O O2 0.777128 0.804887 0.141720
O O3 0.639633 0.821904 0.205381
O O4 0.663963 0.832786 0.019644
O O5 0.339719 0.527347 0.824847
O O6 0.205947 0.446497 0.882373
O O7 0.311017 0.500000 0.000000
O O8 0.068595 0.319898 0.367084
O O9 0.932063 0.149203 0.378384
O O10 0.098149 0.000000 0.500000
#
# Coordination Sequence:
#
# PCOD9481818 Si02
#       5
#    16  16  16   8  16
#     4  11  23  44  73 100 137 198 236 291 345 453
#     4  11  21  43  74 102 133 189 248 280 337 450
#     4  11  25  42  70 103 143 181 241 287 367 407
#     4  12  25  44  67 110 144 180 227 324 349 416
#     4  11  22  42  73  99 137 182 248 277 357 423
#
# _framework density 22.077527
#
# number of rings (size 3 to 8) (size 9 to 14) (size 15 to 20)
#    0.000    0.889    6.667    2.333    0.000    6.222 
#    0.000    8.333    0.000    0.000    0.000    0.000 
#    0.000    0.000    0.000    0.000    0.000    0.000 
#
# Total GULP energy -200425.370490 kJ/mol
# GULP energy per Si atom -5567.371402 kJ/mol
# Density = 2.202728 g / cm^3
# Si number density = 22.077527 Si / 1000 Ang^3
#
#
#
# Elastic Constant Matrix: (Units=GPa)
#
#
# Indices 1 2 3 4 5 6 
#
# 1 87.5043 32.0698 -0.2748 0.0000 0.0000 0.0000
# 2 32.0698 192.4347 25.7455 0.0000 0.0000 0.0000
# 3 -0.2748 25.7455 48.9536 0.0000 0.0000 0.0000
# 4 0.0000 0.0000 0.0000 32.7029 0.0000 0.0000
# 5 0.0000 0.0000 0.0000 0.0000 -6.3956 0.0000
# 6 0.0000 0.0000 0.0000 0.0000 0.0000 43.2821
#
#
#
# Elastic Compliance Matrix: (Units=1/GPa)
#
#
# Indices 1 2 3 4 5 6 
#
# 1 0.012240 -0.002204 0.001228 0.000000 0.000000 0.000000
# 2 -0.002204 0.005987 -0.003161 0.000000 0.000000 0.000000
# 3 0.001228 -0.003161 0.022097 0.000000 0.000000 0.000000
# 4 0.000000 0.000000 0.000000 0.030578 0.000000 0.000000
# 5 0.000000 0.000000 0.000000 0.000000 -0.156357 0.000000
# 6 0.000000 0.000000 0.000000 0.000000 0.000000 0.023104
#
#
# Mechanical properties :
#
#
# Convention : Reuss Voigt Hill
#
# Bulk Modulus (GPa) = 31.20223 49.33040 40.26631
# Shear Modulus (GPa) = -115.22425 32.00803 -41.60811
#
# Velocity S-wave (km/s) = -7.23215 3.81176 -4.34595
# Velocity P-wave (km/s) = 7.45487 6.46261 2.62771
#
# Compressibility (1/GPa) = 0.03204899
#
# Stress axis : x y z
#
# Youngs Moduli (GPa) = 81.70180 167.03500 45.25547
#
# Poissons Ratio (x) = 0.36815 -0.05557
# Poissons Ratio (y) = 0.18007 0.14305
# Poissons Ratio (z) = -0.10032 0.52798
#
# Static dielectric constant tensor:
#      x y z
#    x 1.729130 0.000000 0.000000 
#    y 0.000000 1.834420 0.000000 
#    z 0.000000 0.000000 1.879970 
# 
# From -- ./inp_files/32868.got.cif
#   From: 2010.05.17/outbox.cif.g08.bks.cpg/sg64_17_cif.got.tgz:32868.got - 2010.06.03 16:29:19.
