data_PCOD9481048
_publ_section_title
;
Structure prediction by ZEFSAII (Michael W. Deem and Ramdas Pophale) SiO2 
 PCOD9481048
Probable space group: C M C A
;
_chemical_formula_sum "Si O2"
_cell_formula_units_Z 96
_cell_length_a 21.742987
_cell_length_b 24.050856
_cell_length_c 9.461702
_cell_angle_alpha 90.000000
_cell_angle_beta 90.000000
_cell_angle_gamma 90.000000
_cell_volume 4947.878310
_symmetry_space_group_name_H-M "C M C A"
_symmetry_group_IT_number 64
_symmetry_cell_setting 'orthorhombic'
loop_
_space_group_symop_operation_xyz
x,y,z
-x,1/2-y,1/2+z
x,-y,-z
-x,1/2+y,1/2-z
-x,-y,-z
x,1/2+y,1/2-z
-x,y,z
x,1/2-y,1/2+z
1/2+x,1/2+y,z
1/2-x,-y,1/2+z
1/2+x,1/2-y,-z
1/2-x,y,1/2-z
1/2-x,1/2-y,-z
1/2+x,y,1/2-z
1/2-x,1/2+y,z
1/2+x,-y,1/2+z
loop_
_atom_site_type_symbol
_atom_site_label
_atom_site_fract_x
_atom_site_fract_y
_atom_site_fract_z
Si Si1 0.181248 0.560923 0.067427
Si Si2 0.567122 0.879266 0.086088
Si Si3 0.183855 0.898594 0.888002
Si Si4 0.570167 0.137346 0.577394
Si Si5 0.685872 0.224834 0.277934
Si Si6 0.602390 0.234306 0.015284
O O1 0.172852 0.568959 0.238648
O O2 0.252439 0.579962 0.043905
O O3 0.176762 0.500000 0.000000
O O4 0.126364 0.594197 0.989708
O O5 0.500000 0.907659 0.064377
O O6 0.577205 0.874183 0.255298
O O7 0.561049 0.817859 0.019351
O O8 0.197525 0.834473 0.848741
O O9 0.123388 0.894057 0.987598
O O10 0.500000 0.121660 0.536415
O O11 0.576236 0.204323 0.549875
O O12 0.750000 0.253989 0.250000
O O13 0.648128 0.216444 0.137731
O O14 0.643445 0.259637 0.377811
#
# Coordination Sequence:
#
# PCOD9481048 Si02
#       6
#    16  16  16  16  16  16
#     4  11  24  44  69  92 119 158 216 274 325 380
#     4  11  23  41  61  90 128 165 214 261 310 377
#     4  10  22  43  65  92 127 160 205 263 323 376
#     4  10  23  40  61  95 133 171 209 247 308 386
#     4  11  19  34  57  89 131 164 203 247 305 378
#     4  11  20  36  56  90 129 171 205 248 301 374
#
# _framework density 19.402256999999999
#
# number of rings (size 3 to 8) (size 9 to 14) (size 15 to 20)
#    0.000    1.333    5.000    1.000    0.000    5.667 
#    0.000    0.000    0.000    2.500    0.000    0.000 
#    0.000    0.000    0.000    0.000    0.000    0.000 
#
# Total GULP energy -267452.120397 kJ/mol
# GULP energy per Si atom -5571.919175 kJ/mol
# Density = 1.935810 g / cm^3
# Si number density = 19.402257 Si / 1000 Ang^3
#
#
#
# Elastic Constant Matrix: (Units=GPa)
#
#
# Indices 1 2 3 4 5 6 
#
# 1 205.7464 62.0788 93.5926 0.0000 0.0000 0.0000
# 2 62.0788 83.0878 26.2252 0.0000 0.0000 0.0000
# 3 93.5926 26.2252 84.0223 0.0000 0.0000 0.0000
# 4 0.0000 0.0000 0.0000 15.8658 0.0000 0.0000
# 5 0.0000 0.0000 0.0000 0.0000 -364.4306 0.0000
# 6 0.0000 0.0000 0.0000 0.0000 0.0000 1.3292
#
#
#
# Elastic Compliance Matrix: (Units=1/GPa)
#
#
# Indices 1 2 3 4 5 6 
#
# 1 0.011485 -0.005039 -0.011220 0.000000 0.000000 0.000000
# 2 -0.005039 0.015562 0.000756 0.000000 0.000000 0.000000
# 3 -0.011220 0.000756 0.024164 0.000000 0.000000 0.000000
# 4 0.000000 0.000000 0.000000 0.063029 0.000000 0.000000
# 5 0.000000 0.000000 0.000000 0.000000 -0.002744 0.000000
# 6 0.000000 0.000000 0.000000 0.000000 0.000000 0.752354
#
#
# Mechanical properties :
#
#
# Convention : Reuss Voigt Hill
#
# Bulk Modulus (GPa) = 49.49553 81.84997 65.67275
# Shear Modulus (GPa) = 5.54576 -56.71647 -25.58536
#
# Velocity S-wave (km/s) = 1.69249 -5.41252 -3.63530
# Velocity P-wave (km/s) = 5.42079 1.79357 4.03744
#
# Compressibility (1/GPa) = 0.02020384
#
# Stress axis : x y z
#
# Youngs Moduli (GPa) = 87.07187 64.25927 41.38463
#
# Poissons Ratio (x) = 0.32383 0.46434
# Poissons Ratio (y) = 0.43879 -0.03129
# Poissons Ratio (z) = 0.97695 -0.04859
#
# Static dielectric constant tensor:
#      x y z
#    x 1.738310 0.000000 0.000000 
#    y 0.000000 1.689740 0.000000 
#    z 0.000000 0.000000 1.665550 
# 
# From -- ./inp_files/8413.got.cif
#   From: 2010.05.17/outbox.cif.g08.bks.cpg/sg64_5_cif.got.tgz:8413.got - 2010.06.03 16:29:19.
