data_PCOD9481696
_publ_section_title
;
Structure prediction by ZEFSAII (Michael W. Deem and Ramdas Pophale) SiO2 
 PCOD9481696
Probable space group: C M C A
;
_chemical_formula_sum "Si O2"
_cell_formula_units_Z 88
_cell_length_a 19.509309
_cell_length_b 15.382798
_cell_length_c 11.712229
_cell_angle_alpha 90.000000
_cell_angle_beta 90.000000
_cell_angle_gamma 90.000000
_cell_volume 3514.930804
_symmetry_space_group_name_H-M "C M C A"
_symmetry_group_IT_number 64
_symmetry_cell_setting 'orthorhombic'
loop_
_space_group_symop_operation_xyz
x,y,z
-x,1/2-y,1/2+z
x,-y,-z
-x,1/2+y,1/2-z
-x,-y,-z
x,1/2+y,1/2-z
-x,y,z
x,1/2-y,1/2+z
1/2+x,1/2+y,z
1/2-x,-y,1/2+z
1/2+x,1/2-y,-z
1/2-x,y,1/2-z
1/2-x,1/2-y,-z
1/2+x,y,1/2-z
1/2-x,1/2+y,z
1/2+x,-y,1/2+z
loop_
_atom_site_type_symbol
_atom_site_label
_atom_site_fract_x
_atom_site_fract_y
_atom_site_fract_z
Si Si1 0.867109 0.367718 0.521616
Si Si2 0.921074 0.323740 0.077458
Si Si3 0.392293 0.138937 0.172109
Si Si4 0.756446 0.534640 0.127597
Si Si5 0.000000 0.084112 0.132832
Si Si6 0.329779 0.326320 0.225916
O O1 0.882110 0.267212 0.551473
O O2 0.811479 0.409450 0.603797
O O3 0.940063 0.411300 0.534908
O O4 0.837346 0.375804 0.394013
O O5 0.871750 0.370051 0.169388
O O6 0.000000 0.308174 0.117994
O O7 0.924827 0.366992 0.953934
O O8 0.319034 0.096697 0.155531
O O9 0.440347 0.096982 0.267446
O O10 0.376038 0.239229 0.204749
O O11 0.750000 0.483207 0.250000
O O12 0.771348 0.500000 0.000000
O O13 0.250000 0.303605 0.250000
#
# Coordination Sequence:
#
# PCOD9481696 Si02
#       6
#    16  16  16  16   8  16
#     4  11  23  39  66  95 131 170 208 254 320 391
#     4  11  20  34  63 100 137 167 198 248 314 388
#     4  11  22  39  66  93 130 170 208 254 318 387
#     4  12  26  47  70  87 119 171 227 279 320 370
#     4  12  20  40  66  94 128 170 208 244 320 400
#     4  11  22  35  60  98 140 166 206 252 309 386
#
# _framework density 25.036055000000001
#
# number of rings (size 3 to 8) (size 9 to 14) (size 15 to 20)
#    0.000    0.727    5.455    2.727    1.273    5.091 
#    0.000    0.909    0.000    0.000    0.000    0.000 
#    0.000    0.000    0.000    0.000    0.000    0.000 
#
# Total GULP energy -245101.989249 kJ/mol
# GULP energy per Si atom -5570.499756 kJ/mol
# Density = 2.497907 g / cm^3
# Si number density = 25.036055 Si / 1000 Ang^3
#
#
#
# Elastic Constant Matrix: (Units=GPa)
#
#
# Indices 1 2 3 4 5 6 
#
# 1 217.1497 -5.6721 69.2561 0.0000 0.0000 0.0000
# 2 -5.6721 14.7497 8.3035 0.0000 0.0000 0.0000
# 3 69.2561 8.3035 231.0051 0.0000 0.0000 0.0000
# 4 0.0000 0.0000 0.0000 30.2420 0.0000 0.0000
# 5 0.0000 0.0000 0.0000 0.0000 52.4350 0.0000
# 6 0.0000 0.0000 0.0000 0.0000 0.0000 14.2186
#
#
#
# Elastic Compliance Matrix: (Units=1/GPa)
#
#
# Indices 1 2 3 4 5 6 
#
# 1 0.005214 0.002945 -0.001669 0.000000 0.000000 0.000000
# 2 0.002945 0.070861 -0.003430 0.000000 0.000000 0.000000
# 3 -0.001669 -0.003430 0.004953 0.000000 0.000000 0.000000
# 4 0.000000 0.000000 0.000000 0.033067 0.000000 0.000000
# 5 0.000000 0.000000 0.000000 0.000000 0.019071 0.000000
# 6 0.000000 0.000000 0.000000 0.000000 0.000000 0.070331
#
#
# Mechanical properties :
#
#
# Convention : Reuss Voigt Hill
#
# Bulk Modulus (GPa) = 13.03447 67.40883 40.22165
# Shear Modulus (GPa) = 21.42445 45.44692 33.43568
#
# Velocity S-wave (km/s) = 2.92848 4.26521 3.65842
# Velocity P-wave (km/s) = 4.08072 7.15815 5.82629
#
# Compressibility (1/GPa) = 0.07671966
#
# Stress axis : x y z
#
# Youngs Moduli (GPa) = 191.77715 14.11210 201.91351
#
# Poissons Ratio (x) = -0.04156 0.33702
# Poissons Ratio (y) = -0.56476 0.69256
# Poissons Ratio (z) = 0.32010 0.04840
#
# Static dielectric constant tensor:
#      x y z
#    x 1.827510 0.000000 0.000000 
#    y 0.000000 2.131290 0.000000 
#    z 0.000000 0.000000 2.111130 
# 
# From -- ./inp_files/16047.got.cif
#   From: 2010.05.17/outbox.cif.g08.bks.cpg/sg64_9_cif.got.tgz:16047.got - 2010.06.03 16:29:19.
