data_PCOD9481550
_publ_section_title
;
Structure prediction by ZEFSAII (Michael W. Deem and Ramdas Pophale) SiO2 
 PCOD9481550
Probable space group: C M C A
;
_chemical_formula_sum "Si O2"
_cell_formula_units_Z 72
_cell_length_a 25.946384
_cell_length_b 13.868106
_cell_length_c 7.863924
_cell_angle_alpha 90.000000
_cell_angle_beta 90.000000
_cell_angle_gamma 90.000000
_cell_volume 2829.653782
_symmetry_space_group_name_H-M "C M C A"
_symmetry_group_IT_number 64
_symmetry_cell_setting 'orthorhombic'
loop_
_space_group_symop_operation_xyz
x,y,z
-x,1/2-y,1/2+z
x,-y,-z
-x,1/2+y,1/2-z
-x,-y,-z
x,1/2+y,1/2-z
-x,y,z
x,1/2-y,1/2+z
1/2+x,1/2+y,z
1/2-x,-y,1/2+z
1/2+x,1/2-y,-z
1/2-x,y,1/2-z
1/2-x,1/2-y,-z
1/2+x,y,1/2-z
1/2-x,1/2+y,z
1/2+x,-y,1/2+z
loop_
_atom_site_type_symbol
_atom_site_label
_atom_site_fract_x
_atom_site_fract_y
_atom_site_fract_z
Si Si1 0.813513 0.500000 0.500000
Si Si2 0.395582 0.366362 0.949250
Si Si3 0.250000 0.863895 0.250000
Si Si4 0.591683 0.000000 0.000000
Si Si5 0.000000 0.147422 0.869485
Si Si6 0.000000 0.873122 0.544290
Si Si7 0.356941 0.178557 0.814566
O O1 0.855573 0.444938 0.622507
O O2 0.776164 0.566433 0.611144
O O3 0.450578 0.391400 0.027765
O O4 0.364302 0.337185 0.117109
O O5 0.394917 0.267255 0.848933
O O6 0.296159 0.803628 0.162660
O O7 0.550435 0.932814 0.895562
O O8 0.625182 0.917164 0.087875
O O9 0.000000 0.127273 0.665523
O O10 0.000000 0.263951 0.892811
#
# Coordination Sequence:
#
# PCOD9481550 Si02
#       7
#     8  16   8   8   8   8  16
#     4  10  25  45  65  98 133 173 233 286 348 412
#     4  11  24  42  66 100 137 177 226 277 341 412
#     4  10  24  46  70  98 132 182 232 288 352 410
#     4  11  21  42  65 104 131 190 219 281 336 418
#     4  12  20  47  62 104 139 186 216 279 334 421
#     4  11  24  40  72  96 141 183 236 266 348 413
#     4  11  24  43  70  97 137 177 230 285 345 405
#
# _framework density 25.444808999999999
#
# number of rings (size 3 to 8) (size 9 to 14) (size 15 to 20)
#    0.000    1.111    4.444    0.667    0.000   10.222 
#    8.000    0.000    0.000    0.000    0.000    0.000 
#    0.000    0.000    0.000    0.000    0.000    0.000 
#
# Total GULP energy -201129.918967 kJ/mol
# GULP energy per Si atom -5586.942194 kJ/mol
# Density = 2.538690 g / cm^3
# Si number density = 25.444809 Si / 1000 Ang^3
#
#
#
# Elastic Constant Matrix: (Units=GPa)
#
#
# Indices 1 2 3 4 5 6 
#
# 1 170.6365 1.5646 14.2735 0.0000 0.0000 0.0000
# 2 1.5646 104.3768 4.3373 0.0000 0.0000 0.0000
# 3 14.2735 4.3373 30.4799 0.0000 0.0000 0.0000
# 4 0.0000 0.0000 0.0000 32.9922 0.0000 0.0000
# 5 0.0000 0.0000 0.0000 0.0000 52.6342 0.0000
# 6 0.0000 0.0000 0.0000 0.0000 0.0000 45.5456
#
#
#
# Elastic Compliance Matrix: (Units=1/GPa)
#
#
# Indices 1 2 3 4 5 6 
#
# 1 0.006099 0.000027 -0.002860 0.000000 0.000000 0.000000
# 2 0.000027 0.009638 -0.001384 0.000000 0.000000 0.000000
# 3 -0.002860 -0.001384 0.034345 0.000000 0.000000 0.000000
# 4 0.000000 0.000000 0.000000 0.030310 0.000000 0.000000
# 5 0.000000 0.000000 0.000000 0.000000 0.018999 0.000000
# 6 0.000000 0.000000 0.000000 0.000000 0.000000 0.021956
#
#
# Mechanical properties :
#
#
# Convention : Reuss Voigt Hill
#
# Bulk Modulus (GPa) = 24.01080 38.42710 31.21895
# Shear Modulus (GPa) = 34.80340 45.25559 40.02949
#
# Velocity S-wave (km/s) = 3.70239 4.22189 3.97065
# Velocity P-wave (km/s) = 5.26629 6.23705 5.77211
#
# Compressibility (1/GPa) = 0.04164793
#
# Stress axis : x y z
#
# Youngs Moduli (GPa) = 163.95025 103.75825 29.11643
#
# Poissons Ratio (x) = -0.00285 0.08328
# Poissons Ratio (y) = -0.00450 0.04031
# Poissons Ratio (z) = 0.46893 0.14363
#
# Static dielectric constant tensor:
#      x y z
#    x 2.052140 0.000000 0.000000 
#    y 0.000000 2.882590 0.000000 
#    z 0.000000 0.000000 1.980300 
# 
# From -- ./inp_files/10076.got.cif
#   From: 2010.05.17/outbox.cif.g08.bks.cpg/sg64_6_cif.got.tgz:10076.got - 2010.06.03 16:29:19.
