data_PCOD9481679
_publ_section_title
;
Structure prediction by ZEFSAII (Michael W. Deem and Ramdas Pophale) SiO2 
 PCOD9481679
Probable space group: C M C A
;
_chemical_formula_sum "Si O2"
_cell_formula_units_Z 80
_cell_length_a 8.805003
_cell_length_b 25.977259
_cell_length_c 20.253322
_cell_angle_alpha 90.000000
_cell_angle_beta 90.000000
_cell_angle_gamma 90.000000
_cell_volume 4632.539170
_symmetry_space_group_name_H-M "C M C A"
_symmetry_group_IT_number 64
_symmetry_cell_setting 'orthorhombic'
loop_
_space_group_symop_operation_xyz
x,y,z
-x,1/2-y,1/2+z
x,-y,-z
-x,1/2+y,1/2-z
-x,-y,-z
x,1/2+y,1/2-z
-x,y,z
x,1/2-y,1/2+z
1/2+x,1/2+y,z
1/2-x,-y,1/2+z
1/2+x,1/2-y,-z
1/2-x,y,1/2-z
1/2-x,1/2-y,-z
1/2+x,y,1/2-z
1/2-x,1/2+y,z
1/2+x,-y,1/2+z
loop_
_atom_site_type_symbol
_atom_site_label
_atom_site_fract_x
_atom_site_fract_y
_atom_site_fract_z
Si Si1 0.179547 0.598018 0.099724
Si Si2 0.175157 0.992612 0.079756
Si Si3 0.182401 0.383264 0.455331
Si Si4 0.818867 0.309244 0.677943
Si Si5 0.181609 0.267113 0.429788
O O1 0.225641 0.538397 0.109129
O O2 0.263802 0.635786 0.149853
O O3 0.000000 0.604864 0.104994
O O4 0.234648 0.613361 0.025890
O O5 0.224719 0.933378 0.087769
O O6 0.000000 0.998724 0.100868
O O7 0.178345 0.000000 0.000000
O O8 0.211375 0.328132 0.423046
O O9 0.000000 0.387331 0.467904
O O10 0.750000 0.300835 0.750000
O O11 0.756170 0.266689 0.627191
O O12 0.000000 0.307563 0.679773
O O13 0.250000 0.250000 0.500000
O O14 0.000000 0.259057 0.430296
#
# Coordination Sequence:
#
# PCOD9481679 Si02
#       5
#    16  16  16  16  16
#     4  11  20  31  51  79 110 142 180 226 277 332
#     4   8  15  29  48  73 106 143 177 215 266 320
#     4   9  18  32  52  78 111 147 182 223 274 326
#     4  12  25  41  58  79 110 148 189 235 286 343
#     4  11  21  35  57  85 114 149 189 232 280 333
#
# _framework density 17.269148000000001
#
# number of rings (size 3 to 8) (size 9 to 14) (size 15 to 20)
#    0.000    1.800    2.000    5.400    0.000    4.400 
#    0.000    0.000    0.000    1.200    0.000    5.600 
#    0.000    0.000    0.000    0.000    0.000    0.000 
#
# Total GULP energy -223250.370683 kJ/mol
# GULP energy per Si atom -5581.259267 kJ/mol
# Density = 1.722984 g / cm^3
# Si number density = 17.269148 Si / 1000 Ang^3
#
#
#
# Elastic Constant Matrix: (Units=GPa)
#
#
# Indices 1 2 3 4 5 6 
#
# 1 117.2146 71.4481 53.7161 0.0000 0.0000 0.0000
# 2 71.4481 161.4929 61.8133 0.0000 0.0000 0.0000
# 3 53.7161 61.8133 92.7352 0.0000 0.0000 0.0000
# 4 0.0000 0.0000 0.0000 14.7163 0.0000 0.0000
# 5 0.0000 0.0000 0.0000 0.0000 23.4278 0.0000
# 6 0.0000 0.0000 0.0000 0.0000 0.0000 27.1887
#
#
#
# Elastic Compliance Matrix: (Units=1/GPa)
#
#
# Indices 1 2 3 4 5 6 
#
# 1 0.013238 -0.003923 -0.005054 0.000000 0.000000 0.000000
# 2 -0.003923 0.009475 -0.004044 0.000000 0.000000 0.000000
# 3 -0.005054 -0.004044 0.016406 0.000000 0.000000 0.000000
# 4 0.000000 0.000000 0.000000 0.067952 0.000000 0.000000
# 5 0.000000 0.000000 0.000000 0.000000 0.042684 0.000000
# 6 0.000000 0.000000 0.000000 0.000000 0.000000 0.036780
#
#
# Mechanical properties :
#
#
# Convention : Reuss Voigt Hill
#
# Bulk Modulus (GPa) = 76.45312 82.82196 79.63754
# Shear Modulus (GPa) = 23.04830 25.36424 24.20627
#
# Velocity S-wave (km/s) = 3.65725 3.83660 3.74800
# Velocity P-wave (km/s) = 7.88680 8.22737 8.05888
#
# Compressibility (1/GPa) = 0.01307991
#
# Stress axis : x y z
#
# Youngs Moduli (GPa) = 75.53859 105.53535 60.95322
#
# Poissons Ratio (x) = 0.41398 0.30803
# Poissons Ratio (y) = 0.29631 0.24648
# Poissons Ratio (z) = 0.38173 0.42677
#
# Static dielectric constant tensor:
#      x y z
#    x 1.577040 0.000000 0.000000 
#    y 0.000000 1.632250 0.000000 
#    z 0.000000 0.000000 1.545570 
# 
# From -- ./inp_files/29728.got.cif
#   From: 2010.05.17/outbox.cif.g08.bks.cpg/sg64_15_cif.got.tgz:29728.got - 2010.06.03 16:29:19.
