data_PCOD9481435
_publ_section_title
;
Structure prediction by ZEFSAII (Michael W. Deem and Ramdas Pophale) SiO2 
 PCOD9481435
Probable space group: C M C A
;
_chemical_formula_sum "Si O2"
_cell_formula_units_Z 80
_cell_length_a 17.720062
_cell_length_b 8.587712
_cell_length_c 20.266449
_cell_angle_alpha 90.000000
_cell_angle_beta 90.000000
_cell_angle_gamma 90.000000
_cell_volume 3084.042602
_symmetry_space_group_name_H-M "C M C A"
_symmetry_group_IT_number 64
_symmetry_cell_setting 'orthorhombic'
loop_
_space_group_symop_operation_xyz
x,y,z
-x,1/2-y,1/2+z
x,-y,-z
-x,1/2+y,1/2-z
-x,-y,-z
x,1/2+y,1/2-z
-x,y,z
x,1/2-y,1/2+z
1/2+x,1/2+y,z
1/2-x,-y,1/2+z
1/2+x,1/2-y,-z
1/2-x,y,1/2-z
1/2-x,1/2-y,-z
1/2+x,y,1/2-z
1/2-x,1/2+y,z
1/2+x,-y,1/2+z
loop_
_atom_site_type_symbol
_atom_site_label
_atom_site_fract_x
_atom_site_fract_y
_atom_site_fract_z
Si Si1 0.845310 0.868450 0.077818
Si Si2 0.269942 0.082541 0.147869
Si Si3 0.640468 0.692366 0.681438
Si Si4 0.000000 0.097319 0.851877
Si Si5 0.000000 0.675299 0.246215
Si Si6 0.588887 0.171171 0.969234
O O1 0.824315 0.710668 0.116896
O O2 0.923415 0.934544 0.107775
O O3 0.773553 0.977498 0.092779
O O4 0.862766 0.806011 0.004830
O O5 0.203354 0.176072 0.181909
O O6 0.317520 0.968966 0.193940
O O7 0.574837 0.738150 0.729570
O O8 0.606787 0.673841 0.607930
O O9 0.000000 0.282081 0.831431
O O10 0.000000 0.984406 0.787646
O O11 0.500000 0.202061 0.980380
O O12 0.604803 0.000000 0.000000
#
# Coordination Sequence:
#
# PCOD9481435 Si02
#       6
#    16  16  16   8   8  16
#     4  11  23  45  67 103 139 179 228 271 341 397
#     4  10  24  41  69  98 146 180 215 283 334 406
#     4  11  23  45  67 103 139 179 228 271 341 397
#     4  12  28  49  74  99 129 176 234 286 337 404
#     4  12  28  49  74  99 129 176 234 286 337 404
#     4  11  22  36  68 105 142 182 227 276 326 400
#
# _framework density 25.939976999999999
#
# number of rings (size 3 to 8) (size 9 to 14) (size 15 to 20)
#    0.000    1.000    6.000    0.000    2.800    5.600 
#    0.000    8.000    0.000    0.000    0.000    0.000 
#    0.000    0.000    0.000    0.000    0.000    0.000 
#
# Total GULP energy -224376.481770 kJ/mol
# GULP energy per Si atom -5609.412044 kJ/mol
# Density = 2.588094 g / cm^3
# Si number density = 25.939977 Si / 1000 Ang^3
#
#
#
# Elastic Constant Matrix: (Units=GPa)
#
#
# Indices 1 2 3 4 5 6 
#
# 1 119.9774 33.6255 -1.0058 0.0000 0.0000 0.0000
# 2 33.6255 109.6832 8.4056 0.0000 0.0000 0.0000
# 3 -1.0058 8.4056 50.8892 0.0000 0.0000 0.0000
# 4 0.0000 0.0000 0.0000 37.3009 0.0000 0.0000
# 5 0.0000 0.0000 0.0000 0.0000 30.5742 0.0000
# 6 0.0000 0.0000 0.0000 0.0000 0.0000 40.8018
#
#
#
# Elastic Compliance Matrix: (Units=1/GPa)
#
#
# Indices 1 2 3 4 5 6 
#
# 1 0.009140 -0.002852 0.000652 0.000000 0.000000 0.000000
# 2 -0.002852 0.010124 -0.001729 0.000000 0.000000 0.000000
# 3 0.000652 -0.001729 0.019949 0.000000 0.000000 0.000000
# 4 0.000000 0.000000 0.000000 0.026809 0.000000 0.000000
# 5 0.000000 0.000000 0.000000 0.000000 0.032707 0.000000
# 6 0.000000 0.000000 0.000000 0.000000 0.000000 0.024509
#
#
# Mechanical properties :
#
#
# Convention : Reuss Voigt Hill
#
# Bulk Modulus (GPa) = 31.89284 40.28893 36.09088
# Shear Modulus (GPa) = 35.32403 37.70369 36.51386
#
# Velocity S-wave (km/s) = 3.69421 3.81661 3.75591
# Velocity P-wave (km/s) = 5.52429 5.91501 5.72299
#
# Compressibility (1/GPa) = 0.03135500
#
# Stress axis : x y z
#
# Youngs Moduli (GPa) = 109.41340 98.77575 50.12796
#
# Poissons Ratio (x) = 0.28170 -0.03267
# Poissons Ratio (y) = 0.31203 0.08665
# Poissons Ratio (z) = -0.07131 0.17074
#
# Static dielectric constant tensor:
#      x y z
#    x 1.945310 0.000000 0.000000 
#    y 0.000000 2.062190 0.000000 
#    z 0.000000 0.000000 2.047360 
# 
# From -- ./inp_files/7176.got.cif
#   From: 2010.05.17/outbox.cif.g08.bks.cpg/sg64_4_cif.got.tgz:7176.got - 2010.06.03 16:29:19.
