data_PCOD9481809
_publ_section_title
;
Structure prediction by ZEFSAII (Michael W. Deem and Ramdas Pophale) SiO2 
 PCOD9481809
Probable space group: C M C A
;
_chemical_formula_sum "Si O2"
_cell_formula_units_Z 72
_cell_length_a 18.128185
_cell_length_b 17.627856
_cell_length_c 10.212884
_cell_angle_alpha 90.000000
_cell_angle_beta 90.000000
_cell_angle_gamma 90.000000
_cell_volume 3263.639779
_symmetry_space_group_name_H-M "C M C A"
_symmetry_group_IT_number 64
_symmetry_cell_setting 'orthorhombic'
loop_
_space_group_symop_operation_xyz
x,y,z
-x,1/2-y,1/2+z
x,-y,-z
-x,1/2+y,1/2-z
-x,-y,-z
x,1/2+y,1/2-z
-x,y,z
x,1/2-y,1/2+z
1/2+x,1/2+y,z
1/2-x,-y,1/2+z
1/2+x,1/2-y,-z
1/2-x,y,1/2-z
1/2-x,1/2-y,-z
1/2+x,y,1/2-z
1/2-x,1/2+y,z
1/2+x,-y,1/2+z
loop_
_atom_site_type_symbol
_atom_site_label
_atom_site_fract_x
_atom_site_fract_y
_atom_site_fract_z
Si Si1 0.000000 0.845010 0.278440
Si Si2 0.500000 0.296846 0.978234
Si Si3 0.160447 0.168369 0.095209
Si Si4 0.276956 0.181358 0.879663
Si Si5 0.250000 0.543134 0.250000
Si Si6 0.874684 0.555593 0.893998
O O1 0.000000 0.784738 0.400962
O O2 0.069600 0.901974 0.296015
O O3 0.000000 0.801405 0.138073
O O4 0.574374 0.338048 0.930000
O O5 0.179642 0.245169 0.173775
O O6 0.200558 0.096815 0.156565
O O7 0.203632 0.191802 0.963243
O O8 0.250000 0.139987 0.750000
O O9 0.332590 0.127661 0.958428
O O10 0.189205 0.495512 0.170348
O O11 0.911324 0.500000 0.000000
#
# Coordination Sequence:
#
# PCOD9481809 Si02
#       6
#     8   8  16  16   8  16
#     4  12  29  51  73 115 152 198 251 317 383 446
#     4  12  28  47  81 107 157 194 255 323 369 443
#     4  11  25  43  71 110 142 194 256 304 372 432
#     4  11  21  41  72 100 144 189 252 308 352 437
#     4  12  26  44  76 110 148 198 248 304 380 462
#     4  12  25  45  72 106 153 199 241 307 386 453
#
# _framework density 22.061257999999999
#
# number of rings (size 3 to 8) (size 9 to 14) (size 15 to 20)
#    0.000    0.444    6.667    1.667    0.000    2.667 
#    0.000    1.111    0.000    0.000    0.000    0.000 
#    0.000    0.000    0.000    0.000    0.000    0.000 
#
# Total GULP energy -200672.863770 kJ/mol
# GULP energy per Si atom -5574.246216 kJ/mol
# Density = 2.201105 g / cm^3
# Si number density = 22.061258 Si / 1000 Ang^3
#
#
#
# Elastic Constant Matrix: (Units=GPa)
#
#
# Indices 1 2 3 4 5 6 
#
# 1 184.0038 52.3856 37.4264 0.0000 0.0000 0.0000
# 2 52.3856 108.0846 35.9071 0.0000 0.0000 0.0000
# 3 37.4264 35.9071 81.6673 0.0000 0.0000 0.0000
# 4 0.0000 0.0000 0.0000 3.3574 0.0000 0.0000
# 5 0.0000 0.0000 0.0000 0.0000 27.8702 0.0000
# 6 0.0000 0.0000 0.0000 0.0000 0.0000 29.9889
#
#
#
# Elastic Compliance Matrix: (Units=1/GPa)
#
#
# Indices 1 2 3 4 5 6 
#
# 1 0.006542 -0.002547 -0.001878 0.000000 0.000000 0.000000
# 2 -0.002547 0.011826 -0.004033 0.000000 0.000000 0.000000
# 3 -0.001878 -0.004033 0.014879 0.000000 0.000000 0.000000
# 4 0.000000 0.000000 0.000000 0.297852 0.000000 0.000000
# 5 0.000000 0.000000 0.000000 0.000000 0.035881 0.000000
# 6 0.000000 0.000000 0.000000 0.000000 0.000000 0.033346
#
#
# Mechanical properties :
#
#
# Convention : Reuss Voigt Hill
#
# Bulk Modulus (GPa) = 61.23147 69.46598 65.34872
# Shear Modulus (GPa) = 11.82918 28.77905 20.30412
#
# Velocity S-wave (km/s) = 2.31811 3.61571 3.03702
# Velocity P-wave (km/s) = 5.91441 6.99909 6.47949
#
# Compressibility (1/GPa) = 0.01633147
#
# Stress axis : x y z
#
# Youngs Moduli (GPa) = 152.86488 84.55987 67.21075
#
# Poissons Ratio (x) = 0.21534 0.12624
# Poissons Ratio (y) = 0.38929 0.27103
# Poissons Ratio (z) = 0.28712 0.34099
#
# Static dielectric constant tensor:
#      x y z
#    x 1.974590 0.000000 0.000000 
#    y 0.000000 1.927210 0.000000 
#    z 0.000000 0.000000 1.896270 
# 
# From -- ./inp_files/15803.got.cif
#   From: 2010.05.17/outbox.cif.g08.bks.cpg/sg64_8_cif.got.tgz:15803.got - 2010.06.03 16:29:19.
