data_PCOD9481867
_publ_section_title
;
Structure prediction by ZEFSAII (Michael W. Deem and Ramdas Pophale) SiO2 
 PCOD9481867
Probable space group: C M C A
;
_chemical_formula_sum "Si O2"
_cell_formula_units_Z 64
_cell_length_a 12.768893
_cell_length_b 7.859625
_cell_length_c 28.507866
_cell_angle_alpha 90.000000
_cell_angle_beta 90.000000
_cell_angle_gamma 90.000000
_cell_volume 2861.012675
_symmetry_space_group_name_H-M "C M C A"
_symmetry_group_IT_number 64
_symmetry_cell_setting 'orthorhombic'
loop_
_space_group_symop_operation_xyz
x,y,z
-x,1/2-y,1/2+z
x,-y,-z
-x,1/2+y,1/2-z
-x,-y,-z
x,1/2+y,1/2-z
-x,y,z
x,1/2-y,1/2+z
1/2+x,1/2+y,z
1/2-x,-y,1/2+z
1/2+x,1/2-y,-z
1/2-x,y,1/2-z
1/2-x,1/2-y,-z
1/2+x,y,1/2-z
1/2-x,1/2+y,z
1/2+x,-y,1/2+z
loop_
_atom_site_type_symbol
_atom_site_label
_atom_site_fract_x
_atom_site_fract_y
_atom_site_fract_z
Si Si1 0.385225 0.056089 0.707127
Si Si2 0.808052 0.627576 0.463719
Si Si3 0.113913 0.442209 0.087123
Si Si4 0.838188 0.164221 0.688601
O O1 0.500000 0.119409 0.693735
O O2 0.373770 0.859319 0.692621
O O3 0.288098 0.159079 0.686356
O O4 0.371939 0.071776 0.763396
O O5 0.864101 0.500000 0.500000
O O6 0.750000 0.750000 0.500000
O O7 0.876741 0.747799 0.431231
O O8 0.715235 0.538791 0.433573
O O9 0.120439 0.429526 0.142979
O O10 0.000000 0.512719 0.072376
#
# Coordination Sequence:
#
# PCOD9481867 Si02
#       4
#    16  16  16  16
#     4  11  22  39  59  83 125 167 202 249 299 344
#     4   9  21  40  61  89 118 147 194 244 296 370
#     4  11  22  40  64  88 121 158 197 249 302 353
#     4  11  23  38  60  91 120 160 212 248 288 357
#
# _framework density 22.369700000000002
#
# number of rings (size 3 to 8) (size 9 to 14) (size 15 to 20)
#    0.000    1.500    0.000    6.750    0.000    5.000 
#    0.000   12.500    0.000    0.000    0.000    0.000 
#    0.000    0.000    0.000    0.000    0.000    0.000 
#
# Total GULP energy -178825.194524 kJ/mol
# GULP energy per Si atom -5588.287329 kJ/mol
# Density = 2.231879 g / cm^3
# Si number density = 22.369700 Si / 1000 Ang^3
#
#
#
# Elastic Constant Matrix: (Units=GPa)
#
#
# Indices 1 2 3 4 5 6 
#
# 1 156.5781 -0.0902 3.7285 0.0000 0.0000 0.0000
# 2 -0.0902 29.7466 0.2214 0.0000 0.0000 0.0000
# 3 3.7285 0.2214 63.8081 0.0000 0.0000 0.0000
# 4 0.0000 0.0000 0.0000 28.4885 0.0000 0.0000
# 5 0.0000 0.0000 0.0000 0.0000 108.9465 0.0000
# 6 0.0000 0.0000 0.0000 0.0000 0.0000 24.1851
#
#
#
# Elastic Compliance Matrix: (Units=1/GPa)
#
#
# Indices 1 2 3 4 5 6 
#
# 1 0.006396 0.000022 -0.000374 0.000000 0.000000 0.000000
# 2 0.000022 0.033618 -0.000118 0.000000 0.000000 0.000000
# 3 -0.000374 -0.000118 0.015694 0.000000 0.000000 0.000000
# 4 0.000000 0.000000 0.000000 0.035102 0.000000 0.000000
# 5 0.000000 0.000000 0.000000 0.000000 0.009179 0.000000
# 6 0.000000 0.000000 0.000000 0.000000 0.000000 0.041348
#
#
# Mechanical properties :
#
#
# Convention : Reuss Voigt Hill
#
# Bulk Modulus (GPa) = 18.25855 28.65024 23.45440
# Shear Modulus (GPa) = 31.14648 48.74222 39.94435
#
# Velocity S-wave (km/s) = 3.73547 4.67298 4.23027
# Velocity P-wave (km/s) = 5.17541 6.47696 5.86242
#
# Compressibility (1/GPa) = 0.05476885
#
# Stress axis : x y z
#
# Youngs Moduli (GPa) = 156.35983 29.74578 63.71765
#
# Poissons Ratio (x) = -0.00066 0.02382
# Poissons Ratio (y) = -0.00347 0.00752
# Poissons Ratio (z) = 0.05844 0.00351
#
# Static dielectric constant tensor:
#      x y z
#    x 1.791170 0.000000 0.000000 
#    y 0.000000 1.857550 0.000000 
#    z 0.000000 0.000000 1.819090 
# 
# From -- ./inp_files/52460.got.cif
#   From: 2010.05.17/outbox.cif.g08.bks.cpg/sg64_27_cif.got.tgz:52460.got - 2010.06.03 16:29:19.
