data_PCOD9481684
_publ_section_title
;
Structure prediction by ZEFSAII (Michael W. Deem and Ramdas Pophale) SiO2 
 PCOD9481684
Probable space group: C M C A
;
_chemical_formula_sum "Si O2"
_cell_formula_units_Z 80
_cell_length_a 26.174961
_cell_length_b 18.248454
_cell_length_c 7.476564
_cell_angle_alpha 90.000000
_cell_angle_beta 90.000000
_cell_angle_gamma 90.000000
_cell_volume 3571.200023
_symmetry_space_group_name_H-M "C M C A"
_symmetry_group_IT_number 64
_symmetry_cell_setting 'orthorhombic'
loop_
_space_group_symop_operation_xyz
x,y,z
-x,1/2-y,1/2+z
x,-y,-z
-x,1/2+y,1/2-z
-x,-y,-z
x,1/2+y,1/2-z
-x,y,z
x,1/2-y,1/2+z
1/2+x,1/2+y,z
1/2-x,-y,1/2+z
1/2+x,1/2-y,-z
1/2-x,y,1/2-z
1/2-x,1/2-y,-z
1/2+x,y,1/2-z
1/2-x,1/2+y,z
1/2+x,-y,1/2+z
loop_
_atom_site_type_symbol
_atom_site_label
_atom_site_fract_x
_atom_site_fract_y
_atom_site_fract_z
Si Si1 0.888395 0.874577 0.651944
Si Si2 0.500000 0.371295 0.637677
Si Si3 0.500000 0.218120 0.510994
Si Si4 0.221504 0.178576 0.926718
Si Si5 0.888119 0.777614 0.016087
Si Si6 0.199323 0.955475 0.829793
O O1 0.882571 0.810795 0.503861
O O2 0.843551 0.932615 0.685976
O O3 0.944887 0.909351 0.631614
O O4 0.887638 0.822756 0.830440
O O5 0.500000 0.306361 0.490907
O O6 0.500000 0.326215 0.825869
O O7 0.555756 0.204778 0.596893
O O8 0.250000 0.154684 0.750000
O O9 0.162644 0.196488 0.885026
O O10 0.250000 0.250000 0.000000
O O11 0.220725 0.118337 0.079909
O O12 0.250000 0.992587 0.750000
O O13 0.177335 0.000000 0.000000
#
# Coordination Sequence:
#
# PCOD9481684 Si02
#       6
#    16   8   8  16  16  16
#     4   9  17  30  50  75 103 130 162 202 249 301
#     4   8  14  26  45  72 101 129 158 195 244 298
#     4   8  14  24  40  64  98 129 153 187 235 286
#     4  11  20  32  52  78 104 131 165 209 255 304
#     4   9  16  27  45  71  99 127 157 195 240 289
#     4  11  23  38  52  70  98 134 174 215 260 312
#
# _framework density 22.401433999999998
#
# number of rings (size 3 to 8) (size 9 to 14) (size 15 to 20)
#    0.000    2.400    0.000    4.800    0.000    0.000 
#    0.000    0.500    0.000    0.000    0.000    0.700 
#    0.000    0.000    0.000    0.000    0.000    0.000 
#
# Total GULP energy -222913.399206 kJ/mol
# GULP energy per Si atom -5572.834980 kJ/mol
# Density = 2.235045 g / cm^3
# Si number density = 22.401434 Si / 1000 Ang^3
#
#
#
# Elastic Constant Matrix: (Units=GPa)
#
#
# Indices 1 2 3 4 5 6 
#
# 1 178.1968 17.4230 44.0921 0.0000 0.0000 0.0000
# 2 17.4230 56.2113 6.8334 0.0000 0.0000 0.0000
# 3 44.0921 6.8334 43.3145 0.0000 0.0000 0.0000
# 4 0.0000 0.0000 0.0000 22.4794 0.0000 0.0000
# 5 0.0000 0.0000 0.0000 0.0000 27.8840 0.0000
# 6 0.0000 0.0000 0.0000 0.0000 0.0000 5.1858
#
#
#
# Elastic Compliance Matrix: (Units=1/GPa)
#
#
# Indices 1 2 3 4 5 6 
#
# 1 0.007615 -0.001446 -0.007523 0.000000 0.000000 0.000000
# 2 -0.001446 0.018412 -0.001433 0.000000 0.000000 0.000000
# 3 -0.007523 -0.001433 0.030971 0.000000 0.000000 0.000000
# 4 0.000000 0.000000 0.000000 0.044485 0.000000 0.000000
# 5 0.000000 0.000000 0.000000 0.000000 0.035863 0.000000
# 6 0.000000 0.000000 0.000000 0.000000 0.000000 0.192833
#
#
# Mechanical properties :
#
#
# Convention : Reuss Voigt Hill
#
# Bulk Modulus (GPa) = 27.62877 46.04664 36.83770
# Shear Modulus (GPa) = 13.77225 25.06811 19.42018
#
# Velocity S-wave (km/s) = 2.48219 3.34883 2.94754
# Velocity P-wave (km/s) = 4.53600 5.96261 5.29755
#
# Compressibility (1/GPa) = 0.03619416
#
# Stress axis : x y z
#
# Youngs Moduli (GPa) = 131.32607 54.31140 32.28787
#
# Poissons Ratio (x) = 0.07851 0.24291
# Poissons Ratio (y) = 0.18985 0.04628
# Poissons Ratio (z) = 0.98800 0.07784
#
# Static dielectric constant tensor:
#      x y z
#    x 1.907270 0.000000 0.000000 
#    y 0.000000 1.817760 0.000000 
#    z 0.000000 0.000000 1.934330 
# 
# From -- ./inp_files/10261.got.cif
#   From: 2010.05.17/outbox.cif.g08.bks.cpg/sg64_6_cif.got.tgz:10261.got - 2010.06.03 16:29:19.
