data_PCOD9481348
_publ_section_title
;
Structure prediction by ZEFSAII (Michael W. Deem and Ramdas Pophale) SiO2 
 PCOD9481348
Probable space group: C M C A
;
_chemical_formula_sum "Si O2"
_cell_formula_units_Z 64
_cell_length_a 20.132543
_cell_length_b 29.950495
_cell_length_c 5.049105
_cell_angle_alpha 90.000000
_cell_angle_beta 90.000000
_cell_angle_gamma 90.000000
_cell_volume 3044.507457
_symmetry_space_group_name_H-M "C M C A"
_symmetry_group_IT_number 64
_symmetry_cell_setting 'orthorhombic'
loop_
_space_group_symop_operation_xyz
x,y,z
-x,1/2-y,1/2+z
x,-y,-z
-x,1/2+y,1/2-z
-x,-y,-z
x,1/2+y,1/2-z
-x,y,z
x,1/2-y,1/2+z
1/2+x,1/2+y,z
1/2-x,-y,1/2+z
1/2+x,1/2-y,-z
1/2-x,y,1/2-z
1/2-x,1/2-y,-z
1/2+x,y,1/2-z
1/2-x,1/2+y,z
1/2+x,-y,1/2+z
loop_
_atom_site_type_symbol
_atom_site_label
_atom_site_fract_x
_atom_site_fract_y
_atom_site_fract_z
Si Si1 0.080876 0.857937 0.927700
Si Si2 0.205157 0.000000 0.500000
Si Si3 0.381967 0.088509 0.906285
Si Si4 0.174560 0.280309 0.776284
Si Si5 0.000000 0.530813 0.746019
O O1 0.093309 0.893714 0.690312
O O2 0.116558 0.814106 0.807025
O O3 0.000000 0.853123 0.971848
O O4 0.123533 0.870950 0.193834
O O5 0.168269 0.047479 0.547001
O O6 0.250000 0.008158 0.250000
O O7 0.438422 0.062405 0.750447
O O8 0.169700 0.238965 0.571657
O O9 0.250000 0.299736 0.750000
O O10 0.000000 0.500000 0.500000
O O11 0.000000 0.500000 0.000000
#
# Coordination Sequence:
#
# PCOD9481348 Si02
#       5
#    16   8  16  16   8
#     4  12  24  41  68 104 132 165 218 277 335 394
#     4  12  28  45  62  91 132 178 228 272 318 382
#     4  12  25  42  65  94 132 171 218 271 328 391
#     4  10  23  44  68  93 128 174 216 258 325 403
#     4  12  22  38  68  90 118 176 222 258 322 388
#
# _framework density 21.021462
#
# number of rings (size 3 to 8) (size 9 to 14) (size 15 to 20)
#    0.000    0.500    3.750    4.500    1.750    4.000 
#    0.000    0.000    0.000    0.000    0.000    0.000 
#    0.000    0.000    0.000    0.000    0.000    0.000 
#
# Total GULP energy -178360.366991 kJ/mol
# GULP energy per Si atom -5573.761468 kJ/mol
# Density = 2.097362 g / cm^3
# Si number density = 21.021462 Si / 1000 Ang^3
#
#
#
# Elastic Constant Matrix: (Units=GPa)
#
#
# Indices 1 2 3 4 5 6 
#
# 1 116.6357 48.9763 23.8529 0.0000 0.0000 0.0000
# 2 48.9763 69.6413 11.8124 0.0000 0.0000 0.0000
# 3 23.8529 11.8124 122.8132 0.0000 0.0000 0.0000
# 4 0.0000 0.0000 0.0000 44.8197 0.0000 0.0000
# 5 0.0000 0.0000 0.0000 0.0000 40.0887 0.0000
# 6 0.0000 0.0000 0.0000 0.0000 0.0000 49.9981
#
#
#
# Elastic Compliance Matrix: (Units=1/GPa)
#
#
# Indices 1 2 3 4 5 6 
#
# 1 0.012470 -0.008498 -0.001605 0.000000 0.000000 0.000000
# 2 -0.008498 0.020388 -0.000311 0.000000 0.000000 0.000000
# 3 -0.001605 -0.000311 0.008484 0.000000 0.000000 0.000000
# 4 0.000000 0.000000 0.000000 0.022312 0.000000 0.000000
# 5 0.000000 0.000000 0.000000 0.000000 0.024945 0.000000
# 6 0.000000 0.000000 0.000000 0.000000 0.000000 0.020001
#
#
# Mechanical properties :
#
#
# Convention : Reuss Voigt Hill
#
# Bulk Modulus (GPa) = 48.74121 53.15260 50.94691
# Shear Modulus (GPa) = 36.69361 41.94453 39.31907
#
# Velocity S-wave (km/s) = 4.18249 4.47175 4.32953
# Velocity P-wave (km/s) = 6.82356 7.21123 7.02007
#
# Compressibility (1/GPa) = 0.02051652
#
# Stress axis : x y z
#
# Youngs Moduli (GPa) = 80.19205 49.04844 117.86933
#
# Poissons Ratio (x) = 0.41679 0.18914
# Poissons Ratio (y) = 0.68144 0.03660
# Poissons Ratio (z) = 0.12868 0.01523
#
# Static dielectric constant tensor:
#      x y z
#    x 1.771330 0.000000 0.000000 
#    y 0.000000 2.082410 0.000000 
#    z 0.000000 0.000000 1.863560 
# 
# From -- ./inp_files/1796.got.cif
#   From: 2010.05.17/outbox.cif.g08.bks.cpg/sg64_1_cif.got.tgz:1796.got - 2010.06.03 16:29:19.
