data_PCOD9481081
_publ_section_title
;
Structure prediction by ZEFSAII (Michael W. Deem and Ramdas Pophale) SiO2 
 PCOD9481081
Probable space group: C M C A
;
_chemical_formula_sum "Si O2"
_cell_formula_units_Z 72
_cell_length_a 8.635668
_cell_length_b 24.614089
_cell_length_c 14.446141
_cell_angle_alpha 90.000000
_cell_angle_beta 90.000000
_cell_angle_gamma 90.000000
_cell_volume 3070.658740
_symmetry_space_group_name_H-M "C M C A"
_symmetry_group_IT_number 64
_symmetry_cell_setting 'orthorhombic'
loop_
_space_group_symop_operation_xyz
x,y,z
-x,1/2-y,1/2+z
x,-y,-z
-x,1/2+y,1/2-z
-x,-y,-z
x,1/2+y,1/2-z
-x,y,z
x,1/2-y,1/2+z
1/2+x,1/2+y,z
1/2-x,-y,1/2+z
1/2+x,1/2-y,-z
1/2-x,y,1/2-z
1/2-x,1/2-y,-z
1/2+x,y,1/2-z
1/2-x,1/2+y,z
1/2+x,-y,1/2+z
loop_
_atom_site_type_symbol
_atom_site_label
_atom_site_fract_x
_atom_site_fract_y
_atom_site_fract_z
Si Si1 0.250000 0.921957 0.750000
Si Si2 0.320290 0.371650 0.398965
Si Si3 0.672855 0.350074 0.920857
Si Si4 0.183612 0.756372 0.148478
Si Si5 0.320003 0.513233 0.601137
O O1 0.329812 0.880309 0.678134
O O2 0.316683 0.964890 0.825025
O O3 0.500000 0.361840 0.374256
O O4 0.297058 0.376357 0.509987
O O5 0.224238 0.318665 0.372267
O O6 0.257112 0.429114 0.361820
O O7 0.500000 0.354247 0.960114
O O8 0.724013 0.287605 0.911998
O O9 0.500000 0.753348 0.857525
O O10 0.250000 0.745791 0.250000
O O11 0.248575 0.500000 0.500000
O O12 0.500000 0.526254 0.583866
#
# Coordination Sequence:
#
# PCOD9481081 Si02
#       5
#     8  16  16  16  16
#     4  12  24  42  70 102 138 184 234 294 346 416
#     4  11  24  45  71  98 138 184 231 283 345 411
#     4  12  25  43  70 102 138 178 232 288 347 412
#     4  12  26  45  70 102 140 178 227 282 347 415
#     4  10  22  43  69  99 136 184 233 284 345 413
#
# _framework density 23.447738999999999
#
# number of rings (size 3 to 8) (size 9 to 14) (size 15 to 20)
#    0.000    0.667    3.333    4.667    1.556    1.778 
#    0.000    4.444    0.000    0.000    0.000    0.000 
#    0.000    0.000    0.000    0.000    0.000    0.000 
#
# Total GULP energy -200905.523688 kJ/mol
# GULP energy per Si atom -5580.708991 kJ/mol
# Density = 2.339437 g / cm^3
# Si number density = 23.447739 Si / 1000 Ang^3
#
#
#
# Elastic Constant Matrix: (Units=GPa)
#
#
# Indices 1 2 3 4 5 6 
#
# 1 64.2025 12.1373 -10.8278 0.0000 0.0000 0.0000
# 2 12.1373 163.0471 8.4136 0.0000 0.0000 0.0000
# 3 -10.8278 8.4136 67.9752 0.0000 0.0000 0.0000
# 4 0.0000 0.0000 0.0000 65.8774 0.0000 0.0000
# 5 0.0000 0.0000 0.0000 0.0000 17.5388 0.0000
# 6 0.0000 0.0000 0.0000 0.0000 0.0000 8.7694
#
#
#
# Elastic Compliance Matrix: (Units=1/GPa)
#
#
# Indices 1 2 3 4 5 6 
#
# 1 0.016298 -0.001356 0.002764 0.000000 0.000000 0.000000
# 2 -0.001356 0.006285 -0.000994 0.000000 0.000000 0.000000
# 3 0.002764 -0.000994 0.015275 0.000000 0.000000 0.000000
# 4 0.000000 0.000000 0.000000 0.015180 0.000000 0.000000
# 5 0.000000 0.000000 0.000000 0.000000 0.057016 0.000000
# 6 0.000000 0.000000 0.000000 0.000000 0.000000 0.114033
#
#
# Mechanical properties :
#
#
# Convention : Reuss Voigt Hill
#
# Bulk Modulus (GPa) = 25.84886 34.96345 30.40615
# Shear Modulus (GPa) = 21.17255 37.47057 29.32156
#
# Velocity S-wave (km/s) = 3.00820 4.00189 3.54009
# Velocity P-wave (km/s) = 4.80767 6.02471 5.45027
#
# Compressibility (1/GPa) = 0.03868642
#
# Stress axis : x y z
#
# Youngs Moduli (GPa) = 61.35655 159.09837 65.46840
#
# Poissons Ratio (x) = 0.21572 -0.18095
# Poissons Ratio (y) = 0.08319 0.06507
# Poissons Ratio (z) = -0.16959 0.15814
#
# Static dielectric constant tensor:
#      x y z
#    x 1.822950 0.000000 0.000000 
#    y 0.000000 1.930500 0.000000 
#    z 0.000000 0.000000 0.657020 
# 
# From -- ./inp_files/21125.got.cif
#   From: 2010.05.17/outbox.cif.g08.bks.cpg/sg64_11_cif.got.tgz:21125.got - 2010.06.03 16:29:19.
