data_PCOD9481636
_publ_section_title
;
Structure prediction by ZEFSAII (Michael W. Deem and Ramdas Pophale) SiO2 
 PCOD9481636
Probable space group: C M C A
;
_chemical_formula_sum "Si O2"
_cell_formula_units_Z 68
_cell_length_a 21.760741
_cell_length_b 24.464340
_cell_length_c 5.160280
_cell_angle_alpha 90.000000
_cell_angle_beta 90.000000
_cell_angle_gamma 90.000000
_cell_volume 2747.137840
_symmetry_space_group_name_H-M "C M C A"
_symmetry_group_IT_number 64
_symmetry_cell_setting 'orthorhombic'
loop_
_space_group_symop_operation_xyz
x,y,z
-x,1/2-y,1/2+z
x,-y,-z
-x,1/2+y,1/2-z
-x,-y,-z
x,1/2+y,1/2-z
-x,y,z
x,1/2-y,1/2+z
1/2+x,1/2+y,z
1/2-x,-y,1/2+z
1/2+x,1/2-y,-z
1/2-x,y,1/2-z
1/2-x,1/2-y,-z
1/2+x,y,1/2-z
1/2-x,1/2+y,z
1/2+x,-y,1/2+z
loop_
_atom_site_type_symbol
_atom_site_label
_atom_site_fract_x
_atom_site_fract_y
_atom_site_fract_z
Si Si1 0.106700 0.947157 0.202645
Si Si2 0.822017 0.588408 0.206383
Si Si3 0.000000 0.500000 0.000000
Si Si4 0.000000 0.193167 0.405041
Si Si5 0.359209 0.783708 0.810412
Si Si6 0.500000 0.865243 0.408812
O O1 0.153728 0.935830 0.436400
O O2 0.054831 0.991021 0.283067
O O3 0.061507 0.894712 0.180558
O O4 0.144398 0.943959 0.937386
O O5 0.750000 0.582574 0.250000
O O6 0.838519 0.653304 0.211429
O O7 0.066172 0.215658 0.321288
O O8 0.000000 0.186130 0.714598
O O9 0.000000 0.138422 0.220398
O O10 0.338419 0.746979 0.569655
#
# Coordination Sequence:
#
# PCOD9481636 Si02
#       6
#    16  16   4   8  16   8
#     4  11  23  46  71 109 138 174 238 285 372 442
#     4  12  26  46  71  97 144 201 240 284 349 435
#     4  10  28  46  86 118 140 174 220 322 384 442
#     4  12  20  37  57  95 129 176 227 292 368 409
#     4  12  24  39  62  98 137 189 250 305 353 409
#     4  11  18  36  68  88 129 170 213 292 348 424
#
# _framework density 24.753036999999999
#
# number of rings (size 3 to 8) (size 9 to 14) (size 15 to 20)
#    0.000    0.471    4.706    4.235    0.000    5.647 
#    0.000    2.353    0.000    0.000    0.000    0.000 
#    0.000    0.000    0.000    0.000    0.000    0.000 
#
# Total GULP energy -189703.378341 kJ/mol
# GULP energy per Si atom -5579.511128 kJ/mol
# Density = 2.469670 g / cm^3
# Si number density = 24.753037 Si / 1000 Ang^3
#
#
#
# Elastic Constant Matrix: (Units=GPa)
#
#
# Indices 1 2 3 4 5 6 
#
# 1 192.6223 31.7495 64.2009 0.0000 0.0000 0.0000
# 2 31.7495 69.9162 17.2365 0.0000 0.0000 0.0000
# 3 64.2009 17.2365 163.6300 0.0000 0.0000 0.0000
# 4 0.0000 0.0000 0.0000 36.5605 0.0000 0.0000
# 5 0.0000 0.0000 0.0000 0.0000 19.5190 0.0000
# 6 0.0000 0.0000 0.0000 0.0000 0.0000 16.4459
#
#
#
# Elastic Compliance Matrix: (Units=1/GPa)
#
#
# Indices 1 2 3 4 5 6 
#
# 1 0.006319 -0.002318 -0.002235 0.000000 0.000000 0.000000
# 2 -0.002318 0.015535 -0.000727 0.000000 0.000000 0.000000
# 3 -0.002235 -0.000727 0.007065 0.000000 0.000000 0.000000
# 4 0.000000 0.000000 0.000000 0.027352 0.000000 0.000000
# 5 0.000000 0.000000 0.000000 0.000000 0.051232 0.000000
# 6 0.000000 0.000000 0.000000 0.000000 0.000000 0.060806
#
#
# Mechanical properties :
#
#
# Convention : Reuss Voigt Hill
#
# Bulk Modulus (GPa) = 54.47203 72.50471 63.48837
# Shear Modulus (GPa) = 27.02891 35.37050 31.19970
#
# Velocity S-wave (km/s) = 3.30804 3.78423 3.55412
# Velocity P-wave (km/s) = 6.05350 6.96051 6.52279
#
# Compressibility (1/GPa) = 0.01835805
#
# Stress axis : x y z
#
# Youngs Moduli (GPa) = 158.26495 64.37166 141.54725
#
# Poissons Ratio (x) = 0.14923 0.31634
# Poissons Ratio (y) = 0.36691 0.10288
# Poissons Ratio (z) = 0.35370 0.04679
#
# Static dielectric constant tensor:
#      x y z
#    x 1.856270 0.000000 0.000000 
#    y 0.000000 2.112600 0.000000 
#    z 0.000000 0.000000 1.998430 
# 
# From -- ./inp_files/1874.got.cif
#   From: 2010.05.17/outbox.cif.g08.bks.cpg/sg64_1_cif.got.tgz:1874.got - 2010.06.03 16:29:19.
