data_PCOD9481536
_publ_section_title
;
Structure prediction by ZEFSAII (Michael W. Deem and Ramdas Pophale) SiO2 
 PCOD9481536
Probable space group: C M C A
;
_chemical_formula_sum "Si O2"
_cell_formula_units_Z 104
_cell_length_a 25.491931
_cell_length_b 9.515729
_cell_length_c 21.453585
_cell_angle_alpha 90.000000
_cell_angle_beta 90.000000
_cell_angle_gamma 90.000000
_cell_volume 5204.088516
_symmetry_space_group_name_H-M "C M C A"
_symmetry_group_IT_number 64
_symmetry_cell_setting 'orthorhombic'
loop_
_space_group_symop_operation_xyz
x,y,z
-x,1/2-y,1/2+z
x,-y,-z
-x,1/2+y,1/2-z
-x,-y,-z
x,1/2+y,1/2-z
-x,y,z
x,1/2-y,1/2+z
1/2+x,1/2+y,z
1/2-x,-y,1/2+z
1/2+x,1/2-y,-z
1/2-x,y,1/2-z
1/2-x,1/2-y,-z
1/2+x,y,1/2-z
1/2-x,1/2+y,z
1/2+x,-y,1/2+z
loop_
_atom_site_type_symbol
_atom_site_label
_atom_site_fract_x
_atom_site_fract_y
_atom_site_fract_z
Si Si1 0.599757 0.035398 0.169969
Si Si2 0.938744 0.702923 0.910260
Si Si3 0.934617 0.289911 0.949656
Si Si4 0.321247 0.015820 0.287578
Si Si5 0.250000 0.260408 0.250000
Si Si6 0.000000 0.931353 0.183546
Si Si7 0.594927 0.979186 0.394808
Si Si8 0.000000 0.835518 0.740105
O O1 0.591991 0.877233 0.144500
O O2 0.645878 0.036432 0.222287
O O3 0.595299 0.123850 0.105015
O O4 0.550594 0.099885 0.207255
O O5 0.000000 0.670789 0.901359
O O6 0.927370 0.868731 0.910993
O O7 0.926275 0.653037 0.980531
O O8 0.906826 0.134972 0.949400
O O9 0.000000 0.287051 0.941323
O O10 0.289663 0.869391 0.282614
O O11 0.356569 0.003107 0.349044
O O12 0.283257 0.151084 0.291816
O O13 0.052330 0.898905 0.148183
O O14 0.000000 0.830254 0.242146
O O15 0.000000 0.095607 0.193427
#
# Coordination Sequence:
#
# PCOD9481536 Si02
#       8
#    16  16  16  16   8   8  16   8
#     4  12  21  37  58  88 119 161 199 235 280 358
#     4  11  23  33  54  85 128 174 201 223 266 333
#     4  11  21  37  52  81 132 176 197 227 264 329
#     4  11  24  39  66  86 112 145 192 247 322 348
#     4  10  24  46  56  88 114 138 188 258 316 378
#     4  12  24  34  51  87 132 156 191 228 286 348
#     4  12  21  37  58  88 119 161 199 235 280 358
#     4  12  24  34  51  87 132 156 191 228 286 348
#
# _framework density 19.984287999999999
#
# number of rings (size 3 to 8) (size 9 to 14) (size 15 to 20)
#    0.000    0.615    6.154    2.769    2.154    2.462 
#    0.000    0.000    0.000    0.000    0.000   75.385 
#    0.000    0.000    0.000    0.000    0.000    0.000 
#
# Total GULP energy -289656.657215 kJ/mol
# GULP energy per Si atom -5570.320331 kJ/mol
# Density = 1.993880 g / cm^3
# Si number density = 19.984288 Si / 1000 Ang^3
#
#
#
# Elastic Constant Matrix: (Units=GPa)
#
#
# Indices 1 2 3 4 5 6 
#
# 1 74.4356 20.0542 27.4605 0.0000 0.0000 0.0000
# 2 20.0542 110.4925 17.4681 0.0000 0.0000 0.0000
# 3 27.4605 17.4681 89.9729 0.0000 0.0000 0.0000
# 4 0.0000 0.0000 0.0000 31.8162 0.0000 0.0000
# 5 0.0000 0.0000 0.0000 0.0000 27.9550 0.0000
# 6 0.0000 0.0000 0.0000 0.0000 0.0000 5.2240
#
#
#
# Elastic Compliance Matrix: (Units=1/GPa)
#
#
# Indices 1 2 3 4 5 6 
#
# 1 0.015618 -0.002147 -0.004350 0.000000 0.000000 0.000000
# 2 -0.002147 0.009632 -0.001215 0.000000 0.000000 0.000000
# 3 -0.004350 -0.001215 0.012678 0.000000 0.000000 0.000000
# 4 0.000000 0.000000 0.000000 0.031430 0.000000 0.000000
# 5 0.000000 0.000000 0.000000 0.000000 0.035772 0.000000
# 6 0.000000 0.000000 0.000000 0.000000 0.000000 0.191424
#
#
# Mechanical properties :
#
#
# Convention : Reuss Voigt Hill
#
# Bulk Modulus (GPa) = 44.43542 44.98519 44.71030
# Shear Modulus (GPa) = 15.65054 26.99359 21.32206
#
# Velocity S-wave (km/s) = 2.80150 3.67923 3.26995
# Velocity P-wave (km/s) = 5.72259 6.37245 6.05624
#
# Compressibility (1/GPa) = 0.02250457
#
# Stress axis : x y z
#
# Youngs Moduli (GPa) = 64.03050 103.81958 78.87736
#
# Poissons Ratio (x) = 0.22289 0.34310
# Poissons Ratio (y) = 0.13747 0.09582
# Poissons Ratio (z) = 0.27852 0.12612
#
# Static dielectric constant tensor:
#      x y z
#    x 1.726680 0.000000 0.000000 
#    y 0.000000 1.765900 0.000000 
#    z 0.000000 0.000000 1.768410 
# 
# From -- ./inp_files/42100.got.cif
#   From: 2010.05.17/outbox.cif.g08.bks.cpg/sg64_22_cif.got.tgz:42100.got - 2010.06.03 16:29:19.
