data_PCOD9481590
_publ_section_title
;
Structure prediction by ZEFSAII (Michael W. Deem and Ramdas Pophale) SiO2 
 PCOD9481590
Probable space group: C M C A
;
_chemical_formula_sum "Si O2"
_cell_formula_units_Z 112
_cell_length_a 15.851173
_cell_length_b 10.319130
_cell_length_c 31.131248
_cell_angle_alpha 90.000000
_cell_angle_beta 90.000000
_cell_angle_gamma 90.000000
_cell_volume 5092.148037
_symmetry_space_group_name_H-M "C M C A"
_symmetry_group_IT_number 64
_symmetry_cell_setting 'orthorhombic'
loop_
_space_group_symop_operation_xyz
x,y,z
-x,1/2-y,1/2+z
x,-y,-z
-x,1/2+y,1/2-z
-x,-y,-z
x,1/2+y,1/2-z
-x,y,z
x,1/2-y,1/2+z
1/2+x,1/2+y,z
1/2-x,-y,1/2+z
1/2+x,1/2-y,-z
1/2-x,y,1/2-z
1/2-x,1/2-y,-z
1/2+x,y,1/2-z
1/2-x,1/2+y,z
1/2+x,-y,1/2+z
loop_
_atom_site_type_symbol
_atom_site_label
_atom_site_fract_x
_atom_site_fract_y
_atom_site_fract_z
Si Si1 0.592369 0.645775 0.732284
Si Si2 0.272755 0.062943 0.204020
Si Si3 0.188068 0.127225 0.908461
Si Si4 0.404391 0.258093 0.169947
Si Si5 0.668542 0.327339 0.912871
Si Si6 0.595401 0.656360 0.995371
Si Si7 0.091582 0.396667 0.671885
O O1 0.500000 0.080091 0.774478
O O2 0.670683 0.560235 0.716815
O O3 0.598600 0.678700 0.782548
O O4 0.590630 0.777322 0.705155
O O5 0.250000 0.127824 0.250000
O O6 0.332667 0.148579 0.174169
O O7 0.182775 0.039852 0.182004
O O8 0.120189 0.153256 0.870745
O O9 0.268983 0.214085 0.898561
O O10 0.150219 0.180716 0.953187
O O11 0.206256 0.974250 0.914513
O O12 0.500000 0.209275 0.164038
O O13 0.598183 0.342420 0.876277
O O14 0.634019 0.295076 0.960042
O O15 0.500000 0.703771 0.989607
O O16 0.591804 0.500000 0.000000
O O17 0.000000 0.463843 0.676769
#
# Coordination Sequence:
#
# PCOD9481590 Si02
#       7
#    16  16  16  16  16  16  16
#     4  10  25  44  63  91 131 176 222 276 340 401
#     4  12  25  39  67  88 131 175 222 273 342 396
#     4  11  24  41  66 101 131 176 218 285 332 416
#     4  11  24  42  64  97 130 171 226 280 334 401
#     4  11  24  41  69  97 135 171 228 271 349 394
#     4   9  19  40  67  98 132 169 218 279 338 400
#     4  11  25  43  63  94 130 171 227 277 326 401
#
# _framework density 21.994647000000001
#
# number of rings (size 3 to 8) (size 9 to 14) (size 15 to 20)
#    0.000    1.286    2.857    1.714    6.000    2.286 
#    0.000    0.000    0.000    3.429    0.000    0.000 
#    0.000    0.000    0.000    0.000    0.000    0.000 
#
# Total GULP energy -312969.042624 kJ/mol
# GULP energy per Si atom -5588.732904 kJ/mol
# Density = 2.194459 g / cm^3
# Si number density = 21.994647 Si / 1000 Ang^3
#
#
#
# Elastic Constant Matrix: (Units=GPa)
#
#
# Indices 1 2 3 4 5 6 
#
# 1 167.2787 35.9202 22.9710 0.0000 0.0000 0.0000
# 2 35.9202 38.7833 1.7937 0.0000 0.0000 0.0000
# 3 22.9710 1.7937 116.7195 0.0000 0.0000 0.0000
# 4 0.0000 0.0000 0.0000 30.3237 0.0000 0.0000
# 5 0.0000 0.0000 0.0000 0.0000 26.6100 0.0000
# 6 0.0000 0.0000 0.0000 0.0000 0.0000 30.8482
#
#
#
# Elastic Compliance Matrix: (Units=1/GPa)
#
#
# Indices 1 2 3 4 5 6 
#
# 1 0.007685 -0.007053 -0.001404 0.000000 0.000000 0.000000
# 2 -0.007053 0.032275 0.000892 0.000000 0.000000 0.000000
# 3 -0.001404 0.000892 0.008830 0.000000 0.000000 0.000000
# 4 0.000000 0.000000 0.000000 0.032977 0.000000 0.000000
# 5 0.000000 0.000000 0.000000 0.000000 0.037580 0.000000
# 6 0.000000 0.000000 0.000000 0.000000 0.000000 0.032417
#
#
# Mechanical properties :
#
#
# Convention : Reuss Voigt Hill
#
# Bulk Modulus (GPa) = 29.70817 49.35013 39.52915
# Shear Modulus (GPa) = 28.07162 35.02948 31.55055
#
# Velocity S-wave (km/s) = 3.57640 3.99511 3.79154
# Velocity P-wave (km/s) = 5.53087 6.61569 6.09745
#
# Compressibility (1/GPa) = 0.03366078
#
# Stress axis : x y z
#
# Youngs Moduli (GPa) = 130.11678 30.98326 113.24791
#
# Poissons Ratio (x) = 0.21853 0.15902
# Poissons Ratio (y) = 0.91773 -0.10103
# Poissons Ratio (z) = 0.18270 -0.02764
#
# Static dielectric constant tensor:
#      x y z
#    x 1.826140 0.000000 0.000000 
#    y 0.000000 1.822780 0.000000 
#    z 0.000000 0.000000 1.814850 
# 
# From -- ./inp_files/53256.got.cif
#   From: 2010.05.17/outbox.cif.g08.bks.cpg/sg64_27_cif.got.tgz:53256.got - 2010.06.03 16:29:19.
