data_PCOD9481979
_publ_section_title
;
Structure prediction by ZEFSAII (Michael W. Deem and Ramdas Pophale) SiO2 
 PCOD9481979
Probable space group: C M C A
;
_chemical_formula_sum "Si O2"
_cell_formula_units_Z 64
_cell_length_a 22.896248
_cell_length_b 4.946133
_cell_length_c 23.225449
_cell_angle_alpha 90.000000
_cell_angle_beta 90.000000
_cell_angle_gamma 90.000000
_cell_volume 2630.233043
_symmetry_space_group_name_H-M "C M C A"
_symmetry_group_IT_number 64
_symmetry_cell_setting 'orthorhombic'
loop_
_space_group_symop_operation_xyz
x,y,z
-x,1/2-y,1/2+z
x,-y,-z
-x,1/2+y,1/2-z
-x,-y,-z
x,1/2+y,1/2-z
-x,y,z
x,1/2-y,1/2+z
1/2+x,1/2+y,z
1/2-x,-y,1/2+z
1/2+x,1/2-y,-z
1/2-x,y,1/2-z
1/2-x,1/2-y,-z
1/2+x,y,1/2-z
1/2-x,1/2+y,z
1/2+x,-y,1/2+z
loop_
_atom_site_type_symbol
_atom_site_label
_atom_site_fract_x
_atom_site_fract_y
_atom_site_fract_z
Si Si1 0.288294 0.810590 0.827129
Si Si2 0.914237 0.310399 0.284283
Si Si3 0.433931 0.433901 0.908273
Si Si4 0.141575 0.084989 0.438116
O O1 0.265091 0.110006 0.816882
O O2 0.310489 0.808690 0.893348
O O3 0.344360 0.715773 0.791718
O O4 0.932203 0.509811 0.232976
O O5 0.934757 0.436194 0.344164
O O6 0.500000 0.364963 0.925136
O O7 0.392240 0.172375 0.910820
O O8 0.405459 0.675264 0.945335
O O9 0.165342 0.000000 0.500000
#
# Coordination Sequence:
#
# PCOD9481979 Si02
#       4
#    16  16  16  16
#     4  11  23  40  62  91 125 162 207 256 308 370
#     4  11  23  40  62  90 123 160 205 255 308 371
#     4  11  24  42  64  93 128 165 211 265 319 381
#     4  11  24  42  64  93 128 166 213 265 317 380
#
# _framework density 24.332443000000001
#
# number of rings (size 3 to 8) (size 9 to 14) (size 15 to 20)
#    0.000    1.000    0.000    9.000    0.000    8.000 
#    0.000    0.000    0.000    0.000    0.000    0.000 
#    0.000    0.000    0.000    0.000    0.000    0.000 
#
# Total GULP energy -179265.355334 kJ/mol
# GULP energy per Si atom -5602.042354 kJ/mol
# Density = 2.427706 g / cm^3
# Si number density = 24.332443 Si / 1000 Ang^3
#
#
#
# Elastic Constant Matrix: (Units=GPa)
#
#
# Indices 1 2 3 4 5 6 
#
# 1 96.9011 13.2591 20.2990 0.0000 0.0000 0.0000
# 2 13.2591 125.3239 24.5117 0.0000 0.0000 0.0000
# 3 20.2990 24.5117 111.0532 0.0000 0.0000 0.0000
# 4 0.0000 0.0000 0.0000 45.5276 0.0000 0.0000
# 5 0.0000 0.0000 0.0000 0.0000 3.6531 0.0000
# 6 0.0000 0.0000 0.0000 0.0000 0.0000 4.5034
#
#
#
# Elastic Compliance Matrix: (Units=1/GPa)
#
#
# Indices 1 2 3 4 5 6 
#
# 1 0.010805 -0.000791 -0.001800 0.000000 0.000000 0.000000
# 2 -0.000791 0.008397 -0.001709 0.000000 0.000000 0.000000
# 3 -0.001800 -0.001709 0.009711 0.000000 0.000000 0.000000
# 4 0.000000 0.000000 0.000000 0.021965 0.000000 0.000000
# 5 0.000000 0.000000 0.000000 0.000000 0.273740 0.000000
# 6 0.000000 0.000000 0.000000 0.000000 0.000000 0.222054
#
#
# Mechanical properties :
#
#
# Convention : Reuss Voigt Hill
#
# Bulk Modulus (GPa) = 49.23018 49.93533 49.58275
# Shear Modulus (GPa) = 8.89611 29.08405 18.99008
#
# Velocity S-wave (km/s) = 1.91416 3.46103 2.79667
# Velocity P-wave (km/s) = 5.01613 6.04469 5.55427
#
# Compressibility (1/GPa) = 0.02031274
#
# Stress axis : x y z
#
# Youngs Moduli (GPa) = 92.54803 119.08670 102.97634
#
# Poissons Ratio (x) = 0.09420 0.18540
# Poissons Ratio (y) = 0.07321 0.17597
# Poissons Ratio (z) = 0.16663 0.20350
#
# Static dielectric constant tensor:
#      x y z
#    x 1.891250 0.000000 0.000000 
#    y 0.000000 1.861530 0.000000 
#    z 0.000000 0.000000 1.974820 
# 
# From -- ./inp_files/46094.got.cif
#   From: 2010.05.17/outbox.cif.g08.bks.cpg/sg64_24_cif.got.tgz:46094.got - 2010.06.03 16:29:19.
