data_PCOD9481444
_publ_section_title
;
Structure prediction by ZEFSAII (Michael W. Deem and Ramdas Pophale) SiO2 
 PCOD9481444
Probable space group: C M C A
;
_chemical_formula_sum "Si O2"
_cell_formula_units_Z 72
_cell_length_a 27.633275
_cell_length_b 9.560091
_cell_length_c 11.738455
_cell_angle_alpha 90.000000
_cell_angle_beta 90.000000
_cell_angle_gamma 90.000000
_cell_volume 3101.025409
_symmetry_space_group_name_H-M "C M C A"
_symmetry_group_IT_number 64
_symmetry_cell_setting 'orthorhombic'
loop_
_space_group_symop_operation_xyz
x,y,z
-x,1/2-y,1/2+z
x,-y,-z
-x,1/2+y,1/2-z
-x,-y,-z
x,1/2+y,1/2-z
-x,y,z
x,1/2-y,1/2+z
1/2+x,1/2+y,z
1/2-x,-y,1/2+z
1/2+x,1/2-y,-z
1/2-x,y,1/2-z
1/2-x,1/2-y,-z
1/2+x,y,1/2-z
1/2-x,1/2+y,z
1/2+x,-y,1/2+z
loop_
_atom_site_type_symbol
_atom_site_label
_atom_site_fract_x
_atom_site_fract_y
_atom_site_fract_z
Si Si1 0.500000 0.980241 0.673225
Si Si2 0.752319 0.500000 0.500000
Si Si3 0.334284 0.348120 0.894091
Si Si4 0.832767 0.965272 0.324383
Si Si5 0.000000 0.341511 0.102681
Si Si6 0.415509 0.500000 0.500000
Si Si7 0.417980 0.000000 0.500000
O O1 0.500000 0.812157 0.657407
O O2 0.452917 0.032789 0.605284
O O3 0.500000 0.041163 0.798551
O O4 0.788709 0.370627 0.522651
O O5 0.716464 0.503473 0.607180
O O6 0.331390 0.469381 0.799611
O O7 0.336431 0.201782 0.830441
O O8 0.382286 0.375374 0.966070
O O9 0.878963 0.023646 0.394573
O O10 0.047753 0.374022 0.029164
#
# Coordination Sequence:
#
# PCOD9481444 Si02
#       7
#     8   8  16  16   8   8   8
#     4  11  24  42  67  97 129 169 215 265 320 380
#     4  10  24  42  64  94 130 170 214 260 318 384
#     4  11  24  42  66  95 128 168 214 265 320 380
#     4  11  24  42  66  95 128 168 214 265 320 380
#     4  11  24  42  67  97 129 169 215 265 320 380
#     4  10  24  42  62  92 130 168 210 258 316 380
#     4  10  24  42  62  92 130 168 210 258 316 380
#
# _framework density 23.218125000000001
#
# number of rings (size 3 to 8) (size 9 to 14) (size 15 to 20)
#    0.000    1.333    0.000    4.000    0.000   17.778 
#    0.000    0.000    0.000    0.000    0.000    0.000 
#    0.000    0.000    0.000    0.000    0.000    0.000 
#
# Total GULP energy -201524.508274 kJ/mol
# GULP energy per Si atom -5597.903008 kJ/mol
# Density = 2.316528 g / cm^3
# Si number density = 23.218125 Si / 1000 Ang^3
#
#
#
# Elastic Constant Matrix: (Units=GPa)
#
#
# Indices 1 2 3 4 5 6 
#
# 1 190.2240 54.2208 51.6877 0.0000 0.0000 0.0000
# 2 54.2208 132.6291 46.9534 0.0000 0.0000 0.0000
# 3 51.6877 46.9534 83.7774 0.0000 0.0000 0.0000
# 4 0.0000 0.0000 0.0000 16.1060 0.0000 0.0000
# 5 0.0000 0.0000 0.0000 0.0000 10.3897 0.0000
# 6 0.0000 0.0000 0.0000 0.0000 0.0000 4.1034
#
#
#
# Elastic Compliance Matrix: (Units=1/GPa)
#
#
# Indices 1 2 3 4 5 6 
#
# 1 0.006564 -0.001559 -0.003176 0.000000 0.000000 0.000000
# 2 -0.001559 0.009776 -0.004517 0.000000 0.000000 0.000000
# 3 -0.003176 -0.004517 0.016428 0.000000 0.000000 0.000000
# 4 0.000000 0.000000 0.000000 0.062089 0.000000 0.000000
# 5 0.000000 0.000000 0.000000 0.000000 0.096249 0.000000
# 6 0.000000 0.000000 0.000000 0.000000 0.000000 0.243702
#
#
# Mechanical properties :
#
#
# Convention : Reuss Voigt Hill
#
# Bulk Modulus (GPa) = 70.11004 79.15047 74.63026
# Shear Modulus (GPa) = 10.91541 23.03771 16.97656
#
# Velocity S-wave (km/s) = 2.17059 3.15339 2.70696
# Velocity P-wave (km/s) = 6.04514 6.88639 6.47943
#
# Compressibility (1/GPa) = 0.01426329
#
# Stress axis : x y z
#
# Youngs Moduli (GPa) = 152.33647 102.28638 60.87277
#
# Poissons Ratio (x) = 0.15949 0.19334
# Poissons Ratio (y) = 0.23753 0.27498
# Poissons Ratio (z) = 0.48384 0.46206
#
# Static dielectric constant tensor:
#      x y z
#    x 1.860950 0.000000 0.000000 
#    y 0.000000 1.890200 0.000000 
#    z 0.000000 0.000000 1.813380 
# 
# From -- ./inp_files/27868.got.cif
#   From: 2010.05.17/outbox.cif.g08.bks.cpg/sg64_14_cif.got.tgz:27868.got - 2010.06.03 16:29:19.
