data_PCOD9481121
_publ_section_title
;
Structure prediction by ZEFSAII (Michael W. Deem and Ramdas Pophale) SiO2 
 PCOD9481121
Probable space group: C M C A
;
_chemical_formula_sum "Si O2"
_cell_formula_units_Z 80
_cell_length_a 25.322232
_cell_length_b 14.076579
_cell_length_c 11.857420
_cell_angle_alpha 90.000000
_cell_angle_beta 90.000000
_cell_angle_gamma 90.000000
_cell_volume 4226.582093
_symmetry_space_group_name_H-M "C M C A"
_symmetry_group_IT_number 64
_symmetry_cell_setting 'orthorhombic'
loop_
_space_group_symop_operation_xyz
x,y,z
-x,1/2-y,1/2+z
x,-y,-z
-x,1/2+y,1/2-z
-x,-y,-z
x,1/2+y,1/2-z
-x,y,z
x,1/2-y,1/2+z
1/2+x,1/2+y,z
1/2-x,-y,1/2+z
1/2+x,1/2-y,-z
1/2-x,y,1/2-z
1/2-x,1/2-y,-z
1/2+x,y,1/2-z
1/2-x,1/2+y,z
1/2+x,-y,1/2+z
loop_
_atom_site_type_symbol
_atom_site_label
_atom_site_fract_x
_atom_site_fract_y
_atom_site_fract_z
Si Si1 0.867905 0.678560 0.714106
Si Si2 0.815887 0.965266 0.385516
Si Si3 0.655129 0.610666 0.207300
Si Si4 0.218789 0.347750 0.479430
Si Si5 0.059856 0.976862 0.133254
O O1 0.847268 0.616018 0.819225
O O2 0.865510 0.787366 0.751609
O O3 0.825947 0.666819 0.613715
O O4 0.920915 0.629256 0.666667
O O5 0.760701 0.920474 0.425669
O O6 0.843669 0.000000 0.500000
O O7 0.811968 0.055662 0.303454
O O8 0.604127 0.545564 0.184676
O O9 0.690178 0.620558 0.094573
O O10 0.250000 0.250000 0.500000
O O11 0.000000 0.993022 0.172572
O O12 0.061221 0.000000 0.000000
#
# Coordination Sequence:
#
# PCOD9481121 Si02
#       5
#    16  16  16  16  16
#     4  11  24  43  61  96 129 169 215 273 315 392
#     4  11  26  37  61  92 133 174 217 253 319 385
#     4  11  25  43  65  93 134 172 219 271 326 393
#     4  12  24  40  60  92 134 178 219 250 314 390
#     4  10  22  44  71  94 122 165 222 280 333 385
#
# _framework density 18.927824000000001
#
# number of rings (size 3 to 8) (size 9 to 14) (size 15 to 20)
#    0.000    1.000    4.000    1.800    8.400    2.400 
#    0.000    0.000    0.000    9.600    0.000    0.000 
#    0.000    0.000    0.000    0.000    0.000    0.000 
#
# Total GULP energy -223548.454546 kJ/mol
# GULP energy per Si atom -5588.711364 kJ/mol
# Density = 1.888474 g / cm^3
# Si number density = 18.927824 Si / 1000 Ang^3
#
#
#
# Elastic Constant Matrix: (Units=GPa)
#
#
# Indices 1 2 3 4 5 6 
#
# 1 120.1639 55.4641 49.6280 0.0000 0.0000 0.0000
# 2 55.4641 141.8680 52.2605 0.0000 0.0000 0.0000
# 3 49.6280 52.2605 122.6802 0.0000 0.0000 0.0000
# 4 0.0000 0.0000 0.0000 33.7672 0.0000 0.0000
# 5 0.0000 0.0000 0.0000 0.0000 18.3070 0.0000
# 6 0.0000 0.0000 0.0000 0.0000 0.0000 24.2327
#
#
#
# Elastic Compliance Matrix: (Units=1/GPa)
#
#
# Indices 1 2 3 4 5 6 
#
# 1 0.011082 -0.003180 -0.003128 0.000000 0.000000 0.000000
# 2 -0.003180 0.009273 -0.002664 0.000000 0.000000 0.000000
# 3 -0.003128 -0.002664 0.010552 0.000000 0.000000 0.000000
# 4 0.000000 0.000000 0.000000 0.029615 0.000000 0.000000
# 5 0.000000 0.000000 0.000000 0.000000 0.054624 0.000000
# 6 0.000000 0.000000 0.000000 0.000000 0.000000 0.041267
#
#
# Mechanical properties :
#
#
# Convention : Reuss Voigt Hill
#
# Bulk Modulus (GPa) = 77.14743 77.71304 77.43024
# Shear Modulus (GPa) = 27.98344 30.41867 29.20105
#
# Velocity S-wave (km/s) = 3.84921 4.01320 3.93206
# Velocity P-wave (km/s) = 7.78475 7.91335 7.84931
#
# Compressibility (1/GPa) = 0.01296219
#
# Stress axis : x y z
#
# Youngs Moduli (GPa) = 90.23815 107.83512 94.77287
#
# Poissons Ratio (x) = 0.34293 0.29647
# Poissons Ratio (y) = 0.28697 0.25247
# Poissons Ratio (z) = 0.28229 0.28726
#
# Static dielectric constant tensor:
#      x y z
#    x 1.640630 0.000000 0.000000 
#    y 0.000000 1.686760 0.000000 
#    z 0.000000 0.000000 1.677890 
# 
# From -- ./inp_files/18043.got.cif
#   From: 2010.05.17/outbox.cif.g08.bks.cpg/sg64_10_cif.got.tgz:18043.got - 2010.06.03 16:29:19.
