data_PCOD9481746
_publ_section_title
;
Structure prediction by ZEFSAII (Michael W. Deem and Ramdas Pophale) SiO2 
 PCOD9481746
Probable space group: C M C A
;
_chemical_formula_sum "Si O2"
_cell_formula_units_Z 96
_cell_length_a 22.346059
_cell_length_b 8.402166
_cell_length_c 25.050101
_cell_angle_alpha 90.000000
_cell_angle_beta 90.000000
_cell_angle_gamma 90.000000
_cell_volume 4703.289157
_symmetry_space_group_name_H-M "C M C A"
_symmetry_group_IT_number 64
_symmetry_cell_setting 'orthorhombic'
loop_
_space_group_symop_operation_xyz
x,y,z
-x,1/2-y,1/2+z
x,-y,-z
-x,1/2+y,1/2-z
-x,-y,-z
x,1/2+y,1/2-z
-x,y,z
x,1/2-y,1/2+z
1/2+x,1/2+y,z
1/2-x,-y,1/2+z
1/2+x,1/2-y,-z
1/2-x,y,1/2-z
1/2-x,1/2-y,-z
1/2+x,y,1/2-z
1/2-x,1/2+y,z
1/2+x,-y,1/2+z
loop_
_atom_site_type_symbol
_atom_site_label
_atom_site_fract_x
_atom_site_fract_y
_atom_site_fract_z
Si Si1 0.376668 0.019188 0.177767
Si Si2 0.159155 0.463493 0.654164
Si Si3 0.298544 0.416268 0.056295
Si Si4 0.668388 0.547340 0.439577
Si Si5 0.929384 0.800160 0.770637
Si Si6 0.737195 0.673478 0.691082
O O1 0.413535 0.868030 0.201354
O O2 0.308612 0.975252 0.194038
O O3 0.374162 0.031007 0.113011
O O4 0.401178 0.167595 0.212043
O O5 0.151771 0.495507 0.592201
O O6 0.102929 0.429627 0.691036
O O7 0.199835 0.614085 0.669592
O O8 0.201700 0.309683 0.660436
O O9 0.311507 0.230325 0.055674
O O10 0.229310 0.448440 0.073496
O O11 0.301263 0.500000 0.000000
O O12 0.647421 0.500000 0.500000
O O13 0.000000 0.820510 0.767872
O O14 0.750000 0.733165 0.750000
#
# Coordination Sequence:
#
# PCOD9481746 Si02
#       6
#    16  16  16  16  16  16
#     4  11  25  40  67  95 135 171 218 279 337 404
#     4  11  23  35  62  92 134 166 212 267 333 398
#     4  11  23  37  62  97 141 176 218 268 335 416
#     4  11  24  40  64  99 142 181 219 267 342 417
#     4  11  26  45  66  92 129 179 228 274 331 394
#     4  11  21  34  55  95 130 161 204 264 341 396
#
# _framework density 20.411248000000001
#
# number of rings (size 3 to 8) (size 9 to 14) (size 15 to 20)
#    0.000    1.000    3.333    4.000   11.667    0.000 
#    0.000    0.000    0.000    2.500    0.000    0.000 
#    0.000    0.000    0.000    0.000    0.000    0.000 
#
# Total GULP energy -268116.032181 kJ/mol
# GULP energy per Si atom -5585.750670 kJ/mol
# Density = 2.036479 g / cm^3
# Si number density = 20.411248 Si / 1000 Ang^3
#
#
#
# Elastic Constant Matrix: (Units=GPa)
#
#
# Indices 1 2 3 4 5 6 
#
# 1 104.0848 31.3246 53.3338 0.0000 0.0000 0.0000
# 2 31.3246 104.9472 52.7675 0.0000 0.0000 0.0000
# 3 53.3338 52.7675 161.1512 0.0000 0.0000 0.0000
# 4 0.0000 0.0000 0.0000 36.4797 0.0000 0.0000
# 5 0.0000 0.0000 0.0000 0.0000 9.8240 0.0000
# 6 0.0000 0.0000 0.0000 0.0000 0.0000 17.2068
#
#
#
# Elastic Compliance Matrix: (Units=1/GPa)
#
#
# Indices 1 2 3 4 5 6 
#
# 1 0.011871 -0.001877 -0.003314 0.000000 0.000000 0.000000
# 2 -0.001877 0.011703 -0.003211 0.000000 0.000000 0.000000
# 3 -0.003314 -0.003211 0.008354 0.000000 0.000000 0.000000
# 4 0.000000 0.000000 0.000000 0.027412 0.000000 0.000000
# 5 0.000000 0.000000 0.000000 0.000000 0.101791 0.000000
# 6 0.000000 0.000000 0.000000 0.000000 0.000000 0.058117
#
#
# Mechanical properties :
#
#
# Convention : Reuss Voigt Hill
#
# Bulk Modulus (GPa) = 66.12160 71.67056 68.89608
# Shear Modulus (GPa) = 20.73890 28.21926 24.47908
#
# Velocity S-wave (km/s) = 3.19102 3.72228 3.46684
# Velocity P-wave (km/s) = 6.78541 7.32552 7.06063
#
# Compressibility (1/GPa) = 0.01512365
#
# Stress axis : x y z
#
# Youngs Moduli (GPa) = 84.24223 85.44614 119.70931
#
# Poissons Ratio (x) = 0.16037 0.39673
# Poissons Ratio (y) = 0.15811 0.38439
# Poissons Ratio (z) = 0.27918 0.27437
#
# Static dielectric constant tensor:
#      x y z
#    x 1.699870 0.000000 0.000000 
#    y 0.000000 1.813260 0.000000 
#    z 0.000000 0.000000 1.872750 
# 
# From -- ./inp_files/50674.got.cif
#   From: 2010.05.17/outbox.cif.g08.bks.cpg/sg64_26_cif.got.tgz:50674.got - 2010.06.03 16:29:19.
