data_PCOD9481852
_publ_section_title
;
Structure prediction by ZEFSAII (Michael W. Deem and Ramdas Pophale) SiO2 
 PCOD9481852
Probable space group: C M C A
;
_chemical_formula_sum "Si O2"
_cell_formula_units_Z 80
_cell_length_a 14.456697
_cell_length_b 24.118536
_cell_length_c 8.503207
_cell_angle_alpha 90.000000
_cell_angle_beta 90.000000
_cell_angle_gamma 90.000000
_cell_volume 2964.850318
_symmetry_space_group_name_H-M "C M C A"
_symmetry_group_IT_number 64
_symmetry_cell_setting 'orthorhombic'
loop_
_space_group_symop_operation_xyz
x,y,z
-x,1/2-y,1/2+z
x,-y,-z
-x,1/2+y,1/2-z
-x,-y,-z
x,1/2+y,1/2-z
-x,y,z
x,1/2-y,1/2+z
1/2+x,1/2+y,z
1/2-x,-y,1/2+z
1/2+x,1/2-y,-z
1/2-x,y,1/2-z
1/2-x,1/2-y,-z
1/2+x,y,1/2-z
1/2-x,1/2+y,z
1/2+x,-y,1/2+z
loop_
_atom_site_type_symbol
_atom_site_label
_atom_site_fract_x
_atom_site_fract_y
_atom_site_fract_z
Si Si1 0.612715 0.361708 0.001379
Si Si2 0.886832 0.073883 0.324172
Si Si3 0.888639 0.468609 0.334182
Si Si4 0.656997 0.241476 0.676620
Si Si5 0.101503 0.663706 0.963163
O O1 0.500000 0.352183 0.007536
O O2 0.640805 0.405719 0.137285
O O3 0.663008 0.303892 0.036451
O O4 0.632102 0.391027 0.834993
O O5 0.848245 0.109110 0.470426
O O6 0.000000 0.071509 0.332303
O O7 0.854340 0.010782 0.299336
O O8 0.872942 0.500000 0.500000
O O9 0.000000 0.465481 0.316883
O O10 0.750000 0.264190 0.750000
O O11 0.601111 0.292888 0.609136
O O12 0.623607 0.202055 0.816559
O O13 0.000000 0.642838 0.926301
#
# Coordination Sequence:
#
# PCOD9481852 Si02
#       5
#    16  16  16  16  16
#     4   9  16  31  56  81 107 143 184 222 266 324
#     4   8  15  29  54  85 109 133 175 229 272 314
#     4   7  11  23  48  81 109 134 171 219 267 313
#     4  12  25  39  54  77 111 145 178 225 283 335
#     4  11  22  38  59  81 106 140 187 232 274 330
#
# _framework density 26.982813
#
# number of rings (size 3 to 8) (size 9 to 14) (size 15 to 20)
#    0.000    2.600    0.000    6.000    0.000    1.600 
#    0.000    1.000    0.000   13.200    0.000    0.000 
#    0.000    0.000    0.000    0.000    0.000    0.000 
#
# Total GULP energy -223517.741311 kJ/mol
# GULP energy per Si atom -5587.943533 kJ/mol
# Density = 2.692140 g / cm^3
# Si number density = 26.982813 Si / 1000 Ang^3
#
#
#
# Elastic Constant Matrix: (Units=GPa)
#
#
# Indices 1 2 3 4 5 6 
#
# 1 46.1631 -22.4707 13.7870 0.0000 0.0000 0.0000
# 2 -22.4707 134.4919 41.2761 0.0000 0.0000 0.0000
# 3 13.7870 41.2761 108.1570 0.0000 0.0000 0.0000
# 4 0.0000 0.0000 0.0000 54.1859 0.0000 0.0000
# 5 0.0000 0.0000 0.0000 0.0000 24.2040 0.0000
# 6 0.0000 0.0000 0.0000 0.0000 0.0000 -2.7063
#
#
#
# Elastic Compliance Matrix: (Units=1/GPa)
#
#
# Indices 1 2 3 4 5 6 
#
# 1 0.026365 0.006158 -0.005711 0.000000 0.000000 0.000000
# 2 0.006158 0.009860 -0.004548 0.000000 0.000000 0.000000
# 3 -0.005711 -0.004548 0.011709 0.000000 0.000000 0.000000
# 4 0.000000 0.000000 0.000000 0.018455 0.000000 0.000000
# 5 0.000000 0.000000 0.000000 0.000000 0.041315 0.000000
# 6 0.000000 0.000000 0.000000 0.000000 0.000000 -0.369503
#
#
# Mechanical properties :
#
#
# Convention : Reuss Voigt Hill
#
# Bulk Modulus (GPa) = 25.16810 39.33298 32.25054
# Shear Modulus (GPa) = -20.80285 32.21803 5.70759
#
# Velocity S-wave (km/s) = -2.77964 3.45921 1.45597
# Velocity P-wave (km/s) = 0.97682 5.52843 3.84769
#
# Compressibility (1/GPa) = 0.03973284
#
# Stress axis : x y z
#
# Youngs Moduli (GPa) = 37.92866 101.42031 85.40161
#
# Poissons Ratio (x) = -0.62452 0.48771
# Poissons Ratio (y) = -0.23355 0.38839
# Poissons Ratio (z) = 0.21660 0.46124
#
# Static dielectric constant tensor:
#      x y z
#    x 2.143960 0.000000 0.000000 
#    y 0.000000 2.072970 0.000000 
#    z 0.000000 0.000000 2.176080 
# 
# From -- ./inp_files/7094.got.cif
#   From: 2010.05.17/outbox.cif.g08.bks.cpg/sg64_4_cif.got.tgz:7094.got - 2010.06.03 16:29:19.
