data_PCOD9481389
_publ_section_title
;
Structure prediction by ZEFSAII (Michael W. Deem and Ramdas Pophale) SiO2 
 PCOD9481389
Probable space group: C M C A
;
_chemical_formula_sum "Si O2"
_cell_formula_units_Z 68
_cell_length_a 16.352917
_cell_length_b 16.946015
_cell_length_c 8.015486
_cell_angle_alpha 90.000000
_cell_angle_beta 90.000000
_cell_angle_gamma 90.000000
_cell_volume 2221.225645
_symmetry_space_group_name_H-M "C M C A"
_symmetry_group_IT_number 64
_symmetry_cell_setting 'orthorhombic'
loop_
_space_group_symop_operation_xyz
x,y,z
-x,1/2-y,1/2+z
x,-y,-z
-x,1/2+y,1/2-z
-x,-y,-z
x,1/2+y,1/2-z
-x,y,z
x,1/2-y,1/2+z
1/2+x,1/2+y,z
1/2-x,-y,1/2+z
1/2+x,1/2-y,-z
1/2-x,y,1/2-z
1/2-x,1/2-y,-z
1/2+x,y,1/2-z
1/2-x,1/2+y,z
1/2+x,-y,1/2+z
loop_
_atom_site_type_symbol
_atom_site_label
_atom_site_fract_x
_atom_site_fract_y
_atom_site_fract_z
Si Si1 0.193360 0.617009 0.621870
Si Si2 0.405604 0.220153 0.385156
Si Si3 0.920793 0.492888 0.700203
Si Si4 0.148830 0.872592 0.566060
Si Si5 0.000000 0.000000 0.500000
O O1 0.250000 0.666594 0.750000
O O2 0.120919 0.669303 0.547213
O O3 0.157923 0.548692 0.741601
O O4 0.259684 0.600398 0.475263
O O5 0.500000 0.061855 0.356141
O O6 0.357427 0.174027 0.240351
O O7 0.384108 0.309125 0.436452
O O8 0.892295 0.500000 0.500000
O O9 0.000000 0.544479 0.800173
O O10 0.082182 0.943613 0.599054
O O11 0.000000 0.722702 0.340653
#
# Coordination Sequence:
#
# PCOD9481389 Si02
#       5
#    16  16  16  16   4
#     4  12  27  48  78 121 167 218 282 362 444 518
#     4  12  27  51  79 118 167 236 290 357 430 527
#     4  10  23  47  77 115 157 219 276 351 423 518
#     4  12  27  50  80 119 170 221 292 358 437 518
#     4   8  20  40  76 102 160 192 278 326 420 478
#
# _framework density 30.613728999999999
#
# number of rings (size 3 to 8) (size 9 to 14) (size 15 to 20)
#    0.706    0.000    0.000    7.059    0.000    4.706 
#    0.000    2.353    0.000    0.000    0.000    0.000 
#    0.000    0.000    0.000    0.000    0.000    0.000 
#
# Total GULP energy -189274.771728 kJ/mol
# GULP energy per Si atom -5566.905051 kJ/mol
# Density = 3.054405 g / cm^3
# Si number density = 30.613729 Si / 1000 Ang^3
#
#
#
# Elastic Constant Matrix: (Units=GPa)
#
#
# Indices 1 2 3 4 5 6 
#
# 1 256.2925 93.5235 68.7377 0.0000 0.0000 0.0000
# 2 93.5235 170.3001 73.6963 0.0000 0.0000 0.0000
# 3 68.7377 73.6963 194.5230 0.0000 0.0000 0.0000
# 4 0.0000 0.0000 0.0000 78.2581 0.0000 0.0000
# 5 0.0000 0.0000 0.0000 0.0000 88.3883 0.0000
# 6 0.0000 0.0000 0.0000 0.0000 0.0000 14.7112
#
#
#
# Elastic Compliance Matrix: (Units=1/GPa)
#
#
# Indices 1 2 3 4 5 6 
#
# 1 0.005000 -0.002370 -0.000869 0.000000 0.000000 0.000000
# 2 -0.002370 0.008147 -0.002249 0.000000 0.000000 0.000000
# 3 -0.000869 -0.002249 0.006300 0.000000 0.000000 0.000000
# 4 0.000000 0.000000 0.000000 0.012778 0.000000 0.000000
# 5 0.000000 0.000000 0.000000 0.000000 0.011314 0.000000
# 6 0.000000 0.000000 0.000000 0.000000 0.000000 0.067975
#
#
# Mechanical properties :
#
#
# Convention : Reuss Voigt Hill
#
# Bulk Modulus (GPa) = 118.05157 121.44784 119.74970
# Shear Modulus (GPa) = 39.90045 61.94873 50.92459
#
# Velocity S-wave (km/s) = 3.61411 4.50328 4.08297
# Velocity P-wave (km/s) = 7.48740 8.17291 7.83765
#
# Compressibility (1/GPa) = 0.00847087
#
# Stress axis : x y z
#
# Youngs Moduli (GPa) = 200.01950 122.75164 158.73271
#
# Poissons Ratio (x) = 0.29087 0.13793
# Poissons Ratio (y) = 0.47396 0.35700
# Poissons Ratio (z) = 0.17380 0.27607
#
# Static dielectric constant tensor:
#      x y z
#    x 2.348080 0.000000 0.000000 
#    y 0.000000 3.025890 0.000000 
#    z 0.000000 0.000000 2.791490 
# 
# From -- ./inp_files/25229.got.cif
#   From: 2010.05.17/outbox.cif.g08.bks.cpg/sg64_13_cif.got.tgz:25229.got - 2010.06.03 16:29:19.
