data_PCOD9481431
_publ_section_title
;
Structure prediction by ZEFSAII (Michael W. Deem and Ramdas Pophale) SiO2 
 PCOD9481431
Probable space group: C M C A
;
_chemical_formula_sum "Si O2"
_cell_formula_units_Z 52
_cell_length_a 7.648917
_cell_length_b 14.469967
_cell_length_c 21.101868
_cell_angle_alpha 90.000000
_cell_angle_beta 90.000000
_cell_angle_gamma 90.000000
_cell_volume 2335.545815
_symmetry_space_group_name_H-M "C M C A"
_symmetry_group_IT_number 64
_symmetry_cell_setting 'orthorhombic'
loop_
_space_group_symop_operation_xyz
x,y,z
-x,1/2-y,1/2+z
x,-y,-z
-x,1/2+y,1/2-z
-x,-y,-z
x,1/2+y,1/2-z
-x,y,z
x,1/2-y,1/2+z
1/2+x,1/2+y,z
1/2-x,-y,1/2+z
1/2+x,1/2-y,-z
1/2-x,y,1/2-z
1/2-x,1/2-y,-z
1/2+x,y,1/2-z
1/2-x,1/2+y,z
1/2+x,-y,1/2+z
loop_
_atom_site_type_symbol
_atom_site_label
_atom_site_fract_x
_atom_site_fract_y
_atom_site_fract_z
Si Si1 0.790985 0.779129 0.428138
Si Si2 0.500000 0.500000 0.000000
Si Si3 0.797097 0.989817 0.409340
Si Si4 0.291920 0.862144 0.678380
O O1 0.750000 0.750000 0.500000
O O2 0.732089 0.883987 0.413563
O O3 0.722198 0.709698 0.374441
O O4 0.000000 0.781417 0.422505
O O5 0.343455 0.458863 0.953662
O O6 0.000000 0.995459 0.429200
O O7 0.782333 0.037907 0.341331
O O8 0.500000 0.865961 0.673497
O O9 0.250000 0.835656 0.750000
#
# Coordination Sequence:
#
# PCOD9481431 Si02
#       4
#    16   4  16  16
#     4  10  24  41  66 100 137 177 228 282 348 406
#     4  12  22  40  68  98 132 170 234 270 348 398
#     4  11  24  43  66  99 137 179 225 286 343 410
#     4  11  24  45  68  99 138 185 232 286 349 420
#
# _framework density 22.264603000000001
#
# number of rings (size 3 to 8) (size 9 to 14) (size 15 to 20)
#    0.000    1.231    1.538    3.231    6.462    6.154 
#    0.000    3.077    0.000    0.000    0.000    0.000 
#    0.000    0.000    0.000    0.000    0.000    0.000 
#
# Total GULP energy -144808.932431 kJ/mol
# GULP energy per Si atom -5569.574324 kJ/mol
# Density = 2.221393 g / cm^3
# Si number density = 22.264603 Si / 1000 Ang^3
#
#
#
# Elastic Constant Matrix: (Units=GPa)
#
#
# Indices 1 2 3 4 5 6 
#
# 1 118.0835 7.5411 9.2917 0.0000 0.0000 0.0000
# 2 7.5411 142.0090 77.2922 0.0000 0.0000 0.0000
# 3 9.2917 77.2922 177.1640 0.0000 0.0000 0.0000
# 4 0.0000 0.0000 0.0000 36.5134 0.0000 0.0000
# 5 0.0000 0.0000 0.0000 0.0000 37.1089 0.0000
# 6 0.0000 0.0000 0.0000 0.0000 0.0000 1.9802
#
#
#
# Elastic Compliance Matrix: (Units=1/GPa)
#
#
# Indices 1 2 3 4 5 6 
#
# 1 0.008512 -0.000274 -0.000327 0.000000 0.000000 0.000000
# 2 -0.000274 0.009243 -0.004018 0.000000 0.000000 0.000000
# 3 -0.000327 -0.004018 0.007415 0.000000 0.000000 0.000000
# 4 0.000000 0.000000 0.000000 0.027387 0.000000 0.000000
# 5 0.000000 0.000000 0.000000 0.000000 0.026948 0.000000
# 6 0.000000 0.000000 0.000000 0.000000 0.000000 0.504993
#
#
# Mechanical properties :
#
#
# Convention : Reuss Voigt Hill
#
# Bulk Modulus (GPa) = 62.76887 69.50071 66.13479
# Shear Modulus (GPa) = 8.34659 37.99594 23.17127
#
# Velocity S-wave (km/s) = 1.93829 4.13554 3.22952
# Velocity P-wave (km/s) = 5.76738 7.35439 6.60870
#
# Compressibility (1/GPa) = 0.01593146
#
# Stress axis : x y z
#
# Youngs Moduli (GPa) = 117.48384 108.18493 134.86698
#
# Poissons Ratio (x) = 0.02966 0.04408
# Poissons Ratio (y) = 0.03220 0.54194
# Poissons Ratio (z) = 0.03840 0.43472
#
# Static dielectric constant tensor:
#      x y z
#    x 1.822180 0.000000 0.000000 
#    y 0.000000 1.968180 0.000000 
#    z 0.000000 0.000000 1.881790 
# 
# From -- ./inp_files/29030.got.cif
#   From: 2010.05.17/outbox.cif.g08.bks.cpg/sg64_15_cif.got.tgz:29030.got - 2010.06.03 16:29:19.
