data_PCOD9481299
_publ_section_title
;
Structure prediction by ZEFSAII (Michael W. Deem and Ramdas Pophale) SiO2 
 PCOD9481299
Probable space group: C M C A
;
_chemical_formula_sum "Si O2"
_cell_formula_units_Z 96
_cell_length_a 23.123885
_cell_length_b 11.854520
_cell_length_c 17.561850
_cell_angle_alpha 90.000000
_cell_angle_beta 90.000000
_cell_angle_gamma 90.000000
_cell_volume 4814.099231
_symmetry_space_group_name_H-M "C M C A"
_symmetry_group_IT_number 64
_symmetry_cell_setting 'orthorhombic'
loop_
_space_group_symop_operation_xyz
x,y,z
-x,1/2-y,1/2+z
x,-y,-z
-x,1/2+y,1/2-z
-x,-y,-z
x,1/2+y,1/2-z
-x,y,z
x,1/2-y,1/2+z
1/2+x,1/2+y,z
1/2-x,-y,1/2+z
1/2+x,1/2-y,-z
1/2-x,y,1/2-z
1/2-x,1/2-y,-z
1/2+x,y,1/2-z
1/2-x,1/2+y,z
1/2+x,-y,1/2+z
loop_
_atom_site_type_symbol
_atom_site_label
_atom_site_fract_x
_atom_site_fract_y
_atom_site_fract_z
Si Si1 0.432325 0.824648 0.710140
Si Si2 0.068134 0.578008 0.710256
Si Si3 0.841364 0.796551 0.920132
Si Si4 0.338370 0.147442 0.593770
Si Si5 0.775317 0.850630 0.666301
Si Si6 0.291231 0.444967 0.417600
O O1 0.500000 0.821126 0.690288
O O2 0.421095 0.700226 0.748131
O O3 0.390854 0.829054 0.637746
O O4 0.423935 0.951480 0.747773
O O5 0.112309 0.583227 0.639457
O O6 0.000000 0.582243 0.688876
O O7 0.779059 0.843004 0.891763
O O8 0.831165 0.663282 0.915414
O O9 0.854145 0.830504 0.006358
O O10 0.322571 0.261467 0.639342
O O11 0.275816 0.089007 0.590336
O O12 0.750000 0.830472 0.750000
O O13 0.802029 0.972885 0.653084
O O14 0.299807 0.500000 0.500000
#
# Coordination Sequence:
#
# PCOD9481299 Si02
#       6
#    16  16  16  16  16  16
#     4  10  23  43  65  91 123 162 208 262 315 372
#     4  10  23  43  66  92 124 162 210 263 318 374
#     4  11  22  37  60  88 124 163 207 260 317 375
#     4  11  22  36  60  88 123 163 204 260 316 376
#     4  11  22  36  57  88 123 164 213 259 310 375
#     4  11  20  38  58  84 125 171 205 252 312 372
#
# _framework density 19.941424999999999
#
# number of rings (size 3 to 8) (size 9 to 14) (size 15 to 20)
#    0.000    1.333    3.333    3.000    0.000    7.333 
#    0.000    1.667    0.000    0.500    0.000    0.000 
#    0.000    0.000    0.000    0.000    0.000    0.000 
#
# Total GULP energy -267578.571211 kJ/mol
# GULP energy per Si atom -5574.553567 kJ/mol
# Density = 1.989604 g / cm^3
# Si number density = 19.941425 Si / 1000 Ang^3
#
#
#
# Elastic Constant Matrix: (Units=GPa)
#
#
# Indices 1 2 3 4 5 6 
#
# 1 73.3717 34.4434 36.4807 0.0000 0.0000 0.0000
# 2 34.4434 161.4336 38.6315 0.0000 0.0000 0.0000
# 3 36.4807 38.6315 61.7850 0.0000 0.0000 0.0000
# 4 0.0000 0.0000 0.0000 33.0905 0.0000 0.0000
# 5 0.0000 0.0000 0.0000 0.0000 -8.3595 0.0000
# 6 0.0000 0.0000 0.0000 0.0000 0.0000 -44.1172
#
#
#
# Elastic Compliance Matrix: (Units=1/GPa)
#
#
# Indices 1 2 3 4 5 6 
#
# 1 0.019667 -0.001667 -0.010570 0.000000 0.000000 0.000000
# 2 -0.001667 0.007426 -0.003659 0.000000 0.000000 0.000000
# 3 -0.010570 -0.003659 0.024714 0.000000 0.000000 0.000000
# 4 0.000000 0.000000 0.000000 0.030220 0.000000 0.000000
# 5 0.000000 0.000000 0.000000 0.000000 -0.119624 0.000000
# 6 0.000000 0.000000 0.000000 0.000000 0.000000 -0.022667
#
#
# Mechanical properties :
#
#
# Convention : Reuss Voigt Hill
#
# Bulk Modulus (GPa) = 49.96190 57.30016 53.63103
# Shear Modulus (GPa) = -229.35352 8.59174 -110.38089
#
# Velocity S-wave (km/s) = -10.73607 2.07794 -7.44800
# Velocity P-wave (km/s) = 11.33912 5.87824 6.85645
#
# Compressibility (1/GPa) = 0.02001525
#
# Stress axis : x y z
#
# Youngs Moduli (GPa) = 50.84601 134.66780 40.46270
#
# Poissons Ratio (x) = 0.22445 0.42770
# Poissons Ratio (y) = 0.08474 0.14805
# Poissons Ratio (z) = 0.53746 0.49273
#
# Static dielectric constant tensor:
#      x y z
#    x 1.669940 0.000000 0.000000 
#    y 0.000000 1.681040 0.000000 
#    z 0.000000 0.000000 1.706540 
# 
# From -- ./inp_files/34931.got.cif
#   From: 2010.05.17/outbox.cif.g08.bks.cpg/sg64_18_cif.got.tgz:34931.got - 2010.06.03 16:29:19.
