data_PCOD9481697
_publ_section_title
;
Structure prediction by ZEFSAII (Michael W. Deem and Ramdas Pophale) SiO2 
 PCOD9481697
Probable space group: C M C A
;
_chemical_formula_sum "Si O2"
_cell_formula_units_Z 64
_cell_length_a 20.868764
_cell_length_b 13.314355
_cell_length_c 11.428373
_cell_angle_alpha 90.000000
_cell_angle_beta 90.000000
_cell_angle_gamma 90.000000
_cell_volume 3175.420664
_symmetry_space_group_name_H-M "C M C A"
_symmetry_group_IT_number 64
_symmetry_cell_setting 'orthorhombic'
loop_
_space_group_symop_operation_xyz
x,y,z
-x,1/2-y,1/2+z
x,-y,-z
-x,1/2+y,1/2-z
-x,-y,-z
x,1/2+y,1/2-z
-x,y,z
x,1/2-y,1/2+z
1/2+x,1/2+y,z
1/2-x,-y,1/2+z
1/2+x,1/2-y,-z
1/2-x,y,1/2-z
1/2-x,1/2-y,-z
1/2+x,y,1/2-z
1/2-x,1/2+y,z
1/2+x,-y,1/2+z
loop_
_atom_site_type_symbol
_atom_site_label
_atom_site_fract_x
_atom_site_fract_y
_atom_site_fract_z
Si Si1 0.250000 0.817972 0.750000
Si Si2 0.070476 0.889651 0.939667
Si Si3 0.186845 0.149859 0.904469
Si Si4 0.295189 0.500000 0.500000
Si Si5 0.355132 0.031411 0.246929
O O1 0.215224 0.748033 0.656068
O O2 0.340104 0.971930 0.889944
O O3 0.082766 0.916902 0.803368
O O4 0.000000 0.844985 0.956963
O O5 0.128709 0.832363 0.004394
O O6 0.072146 0.000000 0.000000
O O7 0.157297 0.077664 0.803008
O O8 0.246956 0.087882 0.956923
O O9 0.198732 0.395085 0.699541
#
# Coordination Sequence:
#
# PCOD9481697 Si02
#       5
#     8  16  16   8  16
#     4  12  20  34  58  92 114 150 184 232 316 342
#     4   9  19  38  60  77 105 155 199 226 274 339
#     4  11  20  35  57  85 117 145 186 239 281 345
#     4  12  18  36  52  82 128 134 174 246 290 330
#     4  11  21  35  53  87 118 147 184 240 282 344
#
# _framework density 20.154809
#
# number of rings (size 3 to 8) (size 9 to 14) (size 15 to 20)
#    0.000    1.250    8.750    0.000    0.000    4.000 
#    0.000    1.875    0.000    0.000    0.000    0.000 
#    0.000    0.000    0.000    0.000    0.000    0.000 
#
# Total GULP energy -178348.631907 kJ/mol
# GULP energy per Si atom -5573.394747 kJ/mol
# Density = 2.010894 g / cm^3
# Si number density = 20.154809 Si / 1000 Ang^3
#
#
#
# Elastic Constant Matrix: (Units=GPa)
#
#
# Indices 1 2 3 4 5 6 
#
# 1 91.4341 -0.4720 42.1340 0.0000 0.0000 0.0000
# 2 -0.4720 41.5460 -6.2520 0.0000 0.0000 0.0000
# 3 42.1340 -6.2520 118.5828 0.0000 0.0000 0.0000
# 4 0.0000 0.0000 0.0000 13.3918 0.0000 0.0000
# 5 0.0000 0.0000 0.0000 0.0000 21.8718 0.0000
# 6 0.0000 0.0000 0.0000 0.0000 0.0000 7.4012
#
#
#
# Elastic Compliance Matrix: (Units=1/GPa)
#
#
# Indices 1 2 3 4 5 6 
#
# 1 0.013091 -0.000556 -0.004681 0.000000 0.000000 0.000000
# 2 -0.000556 0.024286 0.001478 0.000000 0.000000 0.000000
# 3 -0.004681 0.001478 0.010174 0.000000 0.000000 0.000000
# 4 0.000000 0.000000 0.000000 0.074673 0.000000 0.000000
# 5 0.000000 0.000000 0.000000 0.000000 0.045721 0.000000
# 6 0.000000 0.000000 0.000000 0.000000 0.000000 0.135114
#
#
# Mechanical properties :
#
#
# Convention : Reuss Voigt Hill
#
# Bulk Modulus (GPa) = 24.97896 35.82033 30.39964
# Shear Modulus (GPa) = 15.43593 22.94316 19.18954
#
# Velocity S-wave (km/s) = 2.77043 3.37760 3.08897
# Velocity P-wave (km/s) = 4.75964 5.74648 5.27619
#
# Compressibility (1/GPa) = 0.04003370
#
# Stress axis : x y z
#
# Youngs Moduli (GPa) = 76.38913 41.17633 98.29039
#
# Poissons Ratio (x) = 0.02288 0.46006
# Poissons Ratio (y) = 0.04245 -0.14526
# Poissons Ratio (z) = 0.35755 -0.06085
#
# Static dielectric constant tensor:
#      x y z
#    x 1.769400 0.000000 0.000000 
#    y 0.000000 1.703540 0.000000 
#    z 0.000000 0.000000 1.787740 
# 
# From -- ./inp_files/26113.got.cif
#   From: 2010.05.17/outbox.cif.g08.bks.cpg/sg64_14_cif.got.tgz:26113.got - 2010.06.03 16:29:19.
