data_PCOD9481796
_publ_section_title
;
Structure prediction by ZEFSAII (Michael W. Deem and Ramdas Pophale) SiO2 
 PCOD9481796
Probable space group: C M C A
;
_chemical_formula_sum "Si O2"
_cell_formula_units_Z 48
_cell_length_a 12.838968
_cell_length_b 15.270148
_cell_length_c 12.749518
_cell_angle_alpha 90.000000
_cell_angle_beta 90.000000
_cell_angle_gamma 90.000000
_cell_volume 2499.580507
_symmetry_space_group_name_H-M "C M C A"
_symmetry_group_IT_number 64
_symmetry_cell_setting 'orthorhombic'
loop_
_space_group_symop_operation_xyz
x,y,z
-x,1/2-y,1/2+z
x,-y,-z
-x,1/2+y,1/2-z
-x,-y,-z
x,1/2+y,1/2-z
-x,y,z
x,1/2-y,1/2+z
1/2+x,1/2+y,z
1/2-x,-y,1/2+z
1/2+x,1/2-y,-z
1/2-x,y,1/2-z
1/2-x,1/2-y,-z
1/2+x,y,1/2-z
1/2-x,1/2+y,z
1/2+x,-y,1/2+z
loop_
_atom_site_type_symbol
_atom_site_label
_atom_site_fract_x
_atom_site_fract_y
_atom_site_fract_z
Si Si1 0.000000 0.574138 0.641984
Si Si2 0.000000 0.156612 0.644212
Si Si3 0.677417 0.500000 0.000000
Si Si4 0.679715 0.834529 0.974729
Si Si5 0.000000 0.772825 0.664881
O O1 0.000000 0.581148 0.767522
O O2 0.101407 0.529570 0.593964
O O3 0.000000 0.676855 0.608333
O O4 0.899355 0.152398 0.571710
O O5 0.000000 0.245929 0.713426
O O6 0.748004 0.581164 0.034164
O O7 0.750000 0.750000 0.000000
O O8 0.604294 0.819492 0.874925
#
# Coordination Sequence:
#
# PCOD9481796 Si02
#       5
#     8   8   8  16   8
#     4   9  20  41  63  86 123 168 198 253 311 369
#     4   9  22  41  64  87 133 166 200 263 313 355
#     4  11  22  37  66  90 120 163 214 253 314 362
#     4  11  21  39  65  92 124 165 207 257 308 369
#     4   9  20  40  63  84 126 170 198 251 314 362
#
# _framework density 19.203222
#
# number of rings (size 3 to 8) (size 9 to 14) (size 15 to 20)
#    1.000    1.000    3.333    0.000    0.000    8.000 
#    0.000   10.000    0.000    0.000    0.000    0.000 
#    0.000    0.000    0.000    0.000    0.000    0.000 
#
# Total GULP energy -133894.322663 kJ/mol
# GULP energy per Si atom -5578.930111 kJ/mol
# Density = 1.915951 g / cm^3
# Si number density = 19.203222 Si / 1000 Ang^3
#
#
#
# Elastic Constant Matrix: (Units=GPa)
#
#
# Indices 1 2 3 4 5 6 
#
# 1 143.7807 66.6422 30.8996 0.0000 0.0000 0.0000
# 2 66.6422 115.1989 6.5279 0.0000 0.0000 0.0000
# 3 30.8996 6.5279 74.7144 0.0000 0.0000 0.0000
# 4 0.0000 0.0000 0.0000 29.4081 0.0000 0.0000
# 5 0.0000 0.0000 0.0000 0.0000 0.9591 0.0000
# 6 0.0000 0.0000 0.0000 0.0000 0.0000 23.8144
#
#
#
# Elastic Compliance Matrix: (Units=1/GPa)
#
#
# Indices 1 2 3 4 5 6 
#
# 1 0.010490 -0.005851 -0.003827 0.000000 0.000000 0.000000
# 2 -0.005851 0.011988 0.001373 0.000000 0.000000 0.000000
# 3 -0.003827 0.001373 0.014847 0.000000 0.000000 0.000000
# 4 0.000000 0.000000 0.000000 0.034004 0.000000 0.000000
# 5 0.000000 0.000000 0.000000 0.000000 1.042673 0.000000
# 6 0.000000 0.000000 0.000000 0.000000 0.000000 0.041991
#
#
# Mechanical properties :
#
#
# Convention : Reuss Voigt Hill
#
# Bulk Modulus (GPa) = 48.27873 60.20372 54.24122
# Shear Modulus (GPa) = 4.23905 26.14461 15.19183
#
# Velocity S-wave (km/s) = 1.48737 3.69381 2.81572
# Velocity P-wave (km/s) = 5.30521 7.04352 6.23524
#
# Compressibility (1/GPa) = 0.02071306
#
# Stress axis : x y z
#
# Youngs Moduli (GPa) = 95.33297 83.41791 67.35330
#
# Poissons Ratio (x) = 0.48810 0.25776
# Poissons Ratio (y) = 0.55782 -0.09245
# Poissons Ratio (z) = 0.36483 -0.11449
#
# Static dielectric constant tensor:
#      x y z
#    x 1.636130 0.000000 0.000000 
#    y 0.000000 1.677710 0.000000 
#    z 0.000000 0.000000 1.685970 
# 
# From -- ./inp_files/21700.got.cif
#   From: 2010.05.17/outbox.cif.g08.bks.cpg/sg64_11_cif.got.tgz:21700.got - 2010.06.03 16:29:19.
