data_PCOD9481513
_publ_section_title
;
Structure prediction by ZEFSAII (Michael W. Deem and Ramdas Pophale) SiO2 
 PCOD9481513
Probable space group: C M C A
;
_chemical_formula_sum "Si O2"
_cell_formula_units_Z 64
_cell_length_a 9.571968
_cell_length_b 9.427144
_cell_length_c 31.127616
_cell_angle_alpha 90.000000
_cell_angle_beta 90.000000
_cell_angle_gamma 90.000000
_cell_volume 2808.841540
_symmetry_space_group_name_H-M "C M C A"
_symmetry_group_IT_number 64
_symmetry_cell_setting 'orthorhombic'
loop_
_space_group_symop_operation_xyz
x,y,z
-x,1/2-y,1/2+z
x,-y,-z
-x,1/2+y,1/2-z
-x,-y,-z
x,1/2+y,1/2-z
-x,y,z
x,1/2-y,1/2+z
1/2+x,1/2+y,z
1/2-x,-y,1/2+z
1/2+x,1/2-y,-z
1/2-x,y,1/2-z
1/2-x,1/2-y,-z
1/2+x,y,1/2-z
1/2-x,1/2+y,z
1/2+x,-y,1/2+z
loop_
_atom_site_type_symbol
_atom_site_label
_atom_site_fract_x
_atom_site_fract_y
_atom_site_fract_z
Si Si1 0.500000 0.177270 0.803225
Si Si2 0.737347 0.500000 0.500000
Si Si3 0.000000 0.864317 0.876695
Si Si4 0.705282 0.754519 0.058323
Si Si5 0.500000 0.372630 0.687452
Si Si6 0.250000 0.771557 0.750000
Si Si7 0.500000 0.193738 0.599834
O O1 0.500000 0.328074 0.827076
O O2 0.641684 0.177324 0.776527
O O3 0.500000 0.033459 0.830013
O O4 0.661054 0.399709 0.465243
O O5 0.818743 0.379617 0.526892
O O6 0.129402 0.783863 0.897998
O O7 0.000000 0.027281 0.888917
O O8 0.866397 0.769738 0.070955
O O9 0.639748 0.348722 0.717096
O O10 0.500000 0.272630 0.645767
#
# Coordination Sequence:
#
# PCOD9481513 Si02
#       7
#     8   8   8  16   8   8   8
#     4  11  25  43  73 101 135 179 223 271 334 402
#     4  10  24  44  70 102 128 184 230 284 334 402
#     4  12  27  46  65 102 143 176 221 284 336 396
#     4  11  25  44  71  97 138 180 230 279 341 394
#     4  11  25  43  73 101 135 179 223 271 334 402
#     4  10  24  46  70 104 138 168 224 280 328 394
#     4  12  27  46  65 102 143 176 221 284 336 396
#
# _framework density 22.785195000000002
#
# number of rings (size 3 to 8) (size 9 to 14) (size 15 to 20)
#    0.000    1.000    2.500    2.250    3.500   16.000 
#    0.000    0.000    0.000    0.000    0.000    0.000 
#    0.000    0.000    0.000    0.000    0.000    0.000 
#
# Total GULP energy -178614.247752 kJ/mol
# GULP energy per Si atom -5581.695242 kJ/mol
# Density = 2.273333 g / cm^3
# Si number density = 22.785195 Si / 1000 Ang^3
#
#
#
# Elastic Constant Matrix: (Units=GPa)
#
#
# Indices 1 2 3 4 5 6 
#
# 1 168.0857 28.9263 34.6924 0.0000 0.0000 0.0000
# 2 28.9263 147.4673 34.0722 0.0000 0.0000 0.0000
# 3 34.6924 34.0722 88.4011 0.0000 0.0000 0.0000
# 4 0.0000 0.0000 0.0000 31.1278 0.0000 0.0000
# 5 0.0000 0.0000 0.0000 0.0000 51.0710 0.0000
# 6 0.0000 0.0000 0.0000 0.0000 0.0000 -1.4766
#
#
#
# Elastic Compliance Matrix: (Units=1/GPa)
#
#
# Indices 1 2 3 4 5 6 
#
# 1 0.006550 -0.000758 -0.002278 0.000000 0.000000 0.000000
# 2 -0.000758 0.007532 -0.002605 0.000000 0.000000 0.000000
# 3 -0.002278 -0.002605 0.013210 0.000000 0.000000 0.000000
# 4 0.000000 0.000000 0.000000 0.032126 0.000000 0.000000
# 5 0.000000 0.000000 0.000000 0.000000 0.019581 0.000000
# 6 0.000000 0.000000 0.000000 0.000000 0.000000 -0.677218
#
#
# Mechanical properties :
#
#
# Convention : Reuss Voigt Hill
#
# Bulk Modulus (GPa) = 62.46767 66.59290 64.53029
# Shear Modulus (GPa) = -8.59698 36.56198 13.98250
#
# Velocity S-wave (km/s) = -1.94454 4.01014 2.47992
# Velocity P-wave (km/s) = 4.73643 7.12260 6.04836
#
# Compressibility (1/GPa) = 0.01600828
#
# Stress axis : x y z
#
# Youngs Moduli (GPa) = 152.66979 132.76858 75.69838
#
# Poissons Ratio (x) = 0.10070 0.17246
# Poissons Ratio (y) = 0.11579 0.19722
# Poissons Ratio (z) = 0.34781 0.34591
#
# Static dielectric constant tensor:
#      x y z
#    x 1.979060 0.000000 0.000000 
#    y 0.000000 1.804420 0.000000 
#    z 0.000000 0.000000 1.855130 
# 
# From -- ./inp_files/52504.got.cif
#   From: 2010.05.17/outbox.cif.g08.bks.cpg/sg64_27_cif.got.tgz:52504.got - 2010.06.03 16:29:19.
