data_PCOD9481116
_publ_section_title
;
Structure prediction by ZEFSAII (Michael W. Deem and Ramdas Pophale) SiO2 
 PCOD9481116
Probable space group: C M C A
;
_chemical_formula_sum "Si O2"
_cell_formula_units_Z 112
_cell_length_a 13.630728
_cell_length_b 19.616957
_cell_length_c 16.828884
_cell_angle_alpha 90.000000
_cell_angle_beta 90.000000
_cell_angle_gamma 90.000000
_cell_volume 4499.932596
_symmetry_space_group_name_H-M "C M C A"
_symmetry_group_IT_number 64
_symmetry_cell_setting 'orthorhombic'
loop_
_space_group_symop_operation_xyz
x,y,z
-x,1/2-y,1/2+z
x,-y,-z
-x,1/2+y,1/2-z
-x,-y,-z
x,1/2+y,1/2-z
-x,y,z
x,1/2-y,1/2+z
1/2+x,1/2+y,z
1/2-x,-y,1/2+z
1/2+x,1/2-y,-z
1/2-x,y,1/2-z
1/2-x,1/2-y,-z
1/2+x,y,1/2-z
1/2-x,1/2+y,z
1/2+x,-y,1/2+z
loop_
_atom_site_type_symbol
_atom_site_label
_atom_site_fract_x
_atom_site_fract_y
_atom_site_fract_z
Si Si1 0.886013 0.026337 0.085145
Si Si2 0.117035 0.286594 0.426091
Si Si3 0.885687 0.090291 0.555514
Si Si4 0.379875 0.861757 0.706334
Si Si5 0.884256 0.750016 0.902318
Si Si6 0.284977 0.411751 0.161208
Si Si7 0.617694 0.871580 0.882301
O O1 0.847289 0.091556 0.132466
O O2 0.000000 0.042032 0.070323
O O3 0.871941 0.965194 0.147458
O O4 0.847768 0.000000 0.000000
O O5 0.152582 0.286233 0.517489
O O6 0.175900 0.341841 0.376681
O O7 0.131077 0.209600 0.395987
O O8 0.000000 0.301085 0.422826
O O9 0.879154 0.169284 0.585252
O O10 0.807073 0.056346 0.612772
O O11 0.852861 0.090530 0.463578
O O12 0.000000 0.068948 0.562485
O O13 0.500000 0.864763 0.711037
O O14 0.350167 0.785373 0.678796
O O15 0.346046 0.885307 0.793206
O O16 0.000000 0.764003 0.904248
O O17 0.250000 0.402116 0.250000
O O18 0.500000 0.882479 0.882069
#
# Coordination Sequence:
#
# PCOD9481116 Si02
#       7
#    16  16  16  16  16  16  16
#     4  10  22  44  70  91 119 162 210 265 318 359
#     4   9  18  35  59  87 125 163 194 246 312 370
#     4   9  20  39  60  87 129 170 199 243 307 376
#     4   9  16  30  61  95 118 149 202 256 301 362
#     4   8  15  30  59  95 123 154 199 245 303 366
#     4  12  26  39  58  91 128 161 212 252 301 373
#     4   8  16  32  58  93 123 157 202 245 307 377
#
# _framework density 24.889261999999999
#
# number of rings (size 3 to 8) (size 9 to 14) (size 15 to 20)
#    0.000    2.714    0.000    3.000    2.000    5.714 
#    2.571    0.000    0.000    0.429    0.000    0.000 
#    0.000    0.000    0.000    0.000    0.000    0.000 
#
# Total GULP energy -313002.258103 kJ/mol
# GULP energy per Si atom -5589.326038 kJ/mol
# Density = 2.483261 g / cm^3
# Si number density = 24.889262 Si / 1000 Ang^3
#
#
#
# Elastic Constant Matrix: (Units=GPa)
#
#
# Indices 1 2 3 4 5 6 
#
# 1 110.2164 1.2980 42.5080 0.0000 0.0000 0.0000
# 2 1.2980 25.0962 -1.4039 0.0000 0.0000 0.0000
# 3 42.5080 -1.4039 104.6534 0.0000 0.0000 0.0000
# 4 0.0000 0.0000 0.0000 0.6868 0.0000 0.0000
# 5 0.0000 0.0000 0.0000 0.0000 28.2975 0.0000
# 6 0.0000 0.0000 0.0000 0.0000 0.0000 16.4605
#
#
#
# Elastic Compliance Matrix: (Units=1/GPa)
#
#
# Indices 1 2 3 4 5 6 
#
# 1 0.010775 -0.000803 -0.004387 0.000000 0.000000 0.000000
# 2 -0.000803 0.039936 0.000862 0.000000 0.000000 0.000000
# 3 -0.004387 0.000862 0.011349 0.000000 0.000000 0.000000
# 4 0.000000 0.000000 0.000000 1.456032 0.000000 0.000000
# 5 0.000000 0.000000 0.000000 0.000000 0.035339 0.000000
# 6 0.000000 0.000000 0.000000 0.000000 0.000000 0.060752
#
#
# Mechanical properties :
#
#
# Convention : Reuss Voigt Hill
#
# Bulk Modulus (GPa) = 18.72531 36.08557 27.40544
# Shear Modulus (GPa) = 3.04759 22.25989 12.65374
#
# Velocity S-wave (km/s) = 1.10775 2.99383 2.25722
# Velocity P-wave (km/s) = 3.02918 5.14593 4.22235
#
# Compressibility (1/GPa) = 0.05340366
#
# Stress axis : x y z
#
# Youngs Moduli (GPa) = 92.81135 25.03984 88.11442
#
# Poissons Ratio (x) = 0.02010 0.38657
# Poissons Ratio (y) = 0.07450 -0.07593
# Poissons Ratio (z) = 0.40718 -0.02158
#
# Static dielectric constant tensor:
#      x y z
#    x 2.035940 0.000000 0.000000 
#    y 0.000000 1.992550 0.000000 
#    z 0.000000 0.000000 1.938680 
# 
# From -- ./inp_files/24231.got.cif
#   From: 2010.05.17/outbox.cif.g08.bks.cpg/sg64_13_cif.got.tgz:24231.got - 2010.06.03 16:29:19.
