data_PCOD9481998
_publ_section_title
;
Structure prediction by ZEFSAII (Michael W. Deem and Ramdas Pophale) SiO2 
 PCOD9481998
Probable space group: C M C A
;
_chemical_formula_sum "Si O2"
_cell_formula_units_Z 72
_cell_length_a 16.165829
_cell_length_b 23.712934
_cell_length_c 9.445628
_cell_angle_alpha 90.000000
_cell_angle_beta 90.000000
_cell_angle_gamma 90.000000
_cell_volume 3620.879822
_symmetry_space_group_name_H-M "C M C A"
_symmetry_group_IT_number 64
_symmetry_cell_setting 'orthorhombic'
loop_
_space_group_symop_operation_xyz
x,y,z
-x,1/2-y,1/2+z
x,-y,-z
-x,1/2+y,1/2-z
-x,-y,-z
x,1/2+y,1/2-z
-x,y,z
x,1/2-y,1/2+z
1/2+x,1/2+y,z
1/2-x,-y,1/2+z
1/2+x,1/2-y,-z
1/2-x,y,1/2-z
1/2-x,1/2-y,-z
1/2+x,y,1/2-z
1/2-x,1/2+y,z
1/2+x,-y,1/2+z
loop_
_atom_site_type_symbol
_atom_site_label
_atom_site_fract_x
_atom_site_fract_y
_atom_site_fract_z
Si Si1 0.402890 0.542611 0.309230
Si Si2 0.901144 0.200022 0.762102
Si Si3 0.402995 0.918369 0.137161
Si Si4 0.250000 0.883575 0.750000
Si Si5 0.818434 0.209448 0.060336
O O1 0.500000 0.548088 0.265988
O O2 0.375592 0.477328 0.293422
O O3 0.399301 0.565714 0.471260
O O4 0.332565 0.579668 0.240271
O O5 0.868879 0.142226 0.685525
O O6 0.863436 0.255621 0.686341
O O7 0.000000 0.203625 0.745748
O O8 0.878200 0.196496 0.928017
O O9 0.500000 0.914531 0.172458
O O10 0.234278 0.842739 0.881992
O O11 0.750000 0.250000 0.000000
#
# Coordination Sequence:
#
# PCOD9481998 Si02
#       5
#    16  16  16   8  16
#     4   9  19  39  64  92 125 164 208 257 309 380
#     4  11  23  41  67  93 123 170 216 264 325 382
#     4   8  17  38  65  90 120 161 212 257 306 374
#     4  12  24  40  62  94 128 164 208 258 322 380
#     4  12  24  43  59  89 134 164 210 269 315 377
#
# _framework density 19.884668999999999
#
# number of rings (size 3 to 8) (size 9 to 14) (size 15 to 20)
#    0.000    1.778    2.222    3.333    0.000    1.778 
#   12.000    0.000    0.000    4.000    0.000    0.000 
#    0.000    0.000    0.000    0.000    0.000    0.000 
#
# Total GULP energy -200418.104903 kJ/mol
# GULP energy per Si atom -5567.169581 kJ/mol
# Density = 1.983941 g / cm^3
# Si number density = 19.884669 Si / 1000 Ang^3
#
#
#
# Elastic Constant Matrix: (Units=GPa)
#
#
# Indices 1 2 3 4 5 6 
#
# 1 56.0862 10.6934 -3.7818 0.0000 0.0000 0.0000
# 2 10.6934 72.1528 -0.5657 0.0000 0.0000 0.0000
# 3 -3.7818 -0.5657 36.8616 0.0000 0.0000 0.0000
# 4 0.0000 0.0000 0.0000 120.9403 0.0000 0.0000
# 5 0.0000 0.0000 0.0000 0.0000 36.3115 0.0000
# 6 0.0000 0.0000 0.0000 0.0000 0.0000 32.7354
#
#
#
# Elastic Compliance Matrix: (Units=1/GPa)
#
#
# Indices 1 2 3 4 5 6 
#
# 1 0.018474 -0.002723 0.001854 0.000000 0.000000 0.000000
# 2 -0.002723 0.014263 -0.000061 0.000000 0.000000 0.000000
# 3 0.001854 -0.000061 0.027318 0.000000 0.000000 0.000000
# 4 0.000000 0.000000 0.000000 0.008269 0.000000 0.000000
# 5 0.000000 0.000000 0.000000 0.000000 0.027540 0.000000
# 6 0.000000 0.000000 0.000000 0.000000 0.000000 0.030548
#
#
# Mechanical properties :
#
#
# Convention : Reuss Voigt Hill
#
# Bulk Modulus (GPa) = 17.18405 19.75470 18.46937
# Shear Modulus (GPa) = 33.85955 48.58110 41.22033
#
# Velocity S-wave (km/s) = 4.13097 4.94818 4.55793
# Velocity P-wave (km/s) = 5.60481 6.52703 6.08342
#
# Compressibility (1/GPa) = 0.05819352
#
# Stress axis : x y z
#
# Youngs Moduli (GPa) = 54.13037 70.11333 36.60629
#
# Poissons Ratio (x) = 0.19095 -0.06785
# Poissons Ratio (y) = 0.14742 0.00222
# Poissons Ratio (z) = -0.10033 0.00424
#
# Static dielectric constant tensor:
#      x y z
#    x 1.707380 0.000000 0.000000 
#    y 0.000000 -27.959820 0.000000 
#    z 0.000000 0.000000 1.781910 
# 
# From -- ./inp_files/6881.got.cif
#   From: 2010.05.17/outbox.cif.g08.bks.cpg/sg64_4_cif.got.tgz:6881.got - 2010.06.03 16:29:19.
