data_PCOD9481984
_publ_section_title
;
Structure prediction by ZEFSAII (Michael W. Deem and Ramdas Pophale) SiO2 
 PCOD9481984
Probable space group: C M C A
;
_chemical_formula_sum "Si O2"
_cell_formula_units_Z 64
_cell_length_a 18.424502
_cell_length_b 16.393749
_cell_length_c 11.094180
_cell_angle_alpha 90.000000
_cell_angle_beta 90.000000
_cell_angle_gamma 90.000000
_cell_volume 3350.960028
_symmetry_space_group_name_H-M "C M C A"
_symmetry_group_IT_number 64
_symmetry_cell_setting 'orthorhombic'
loop_
_space_group_symop_operation_xyz
x,y,z
-x,1/2-y,1/2+z
x,-y,-z
-x,1/2+y,1/2-z
-x,-y,-z
x,1/2+y,1/2-z
-x,y,z
x,1/2-y,1/2+z
1/2+x,1/2+y,z
1/2-x,-y,1/2+z
1/2+x,1/2-y,-z
1/2-x,y,1/2-z
1/2-x,1/2-y,-z
1/2+x,y,1/2-z
1/2-x,1/2+y,z
1/2+x,-y,1/2+z
loop_
_atom_site_type_symbol
_atom_site_label
_atom_site_fract_x
_atom_site_fract_y
_atom_site_fract_z
Si Si1 0.250000 0.671110 0.250000
Si Si2 0.879727 0.225231 0.637952
Si Si3 0.351358 0.587572 0.441332
Si Si4 0.500000 0.868933 0.280109
Si Si5 0.000000 0.349238 0.555307
Si Si6 0.500000 0.051900 0.198596
O O1 0.188906 0.728562 0.308263
O O2 0.289718 0.615420 0.348691
O O3 0.857773 0.155281 0.544708
O O4 0.930093 0.183626 0.740216
O O5 0.930390 0.291105 0.571433
O O6 0.336302 0.500000 0.500000
O O7 0.428306 0.581213 0.371403
O O8 0.500000 0.885751 0.422062
O O9 0.500000 0.953862 0.207586
O O10 0.000000 0.411566 0.666785
#
# Coordination Sequence:
#
# PCOD9481984 Si02
#       6
#     8  16  16   8   8   8
#     4  12  26  46  64 104 136 180 220 270 346 402
#     4  11  24  43  70  97 136 173 225 276 331 405
#     4  12  25  46  69  98 135 179 222 276 336 400
#     4  11  23  42  71 100 127 177 223 278 336 378
#     4  11  23  40  68 102 131 170 230 284 319 392
#     4  12  22  47  69  97 135 171 231 276 330 390
#
# _framework density 19.099003
#
# number of rings (size 3 to 8) (size 9 to 14) (size 15 to 20)
#    0.000    0.500    5.000    4.500    3.500    1.000 
#    4.500    0.000    0.000    0.000    0.000    0.000 
#    0.000    0.000    0.000    0.000    0.000    0.000 
#
# Total GULP energy -179089.268230 kJ/mol
# GULP energy per Si atom -5596.539632 kJ/mol
# Density = 1.905553 g / cm^3
# Si number density = 19.099003 Si / 1000 Ang^3
#
#
#
# Elastic Constant Matrix: (Units=GPa)
#
#
# Indices 1 2 3 4 5 6 
#
# 1 157.6737 76.6877 77.5843 0.0000 0.0000 0.0000
# 2 76.6877 104.5704 59.7986 0.0000 0.0000 0.0000
# 3 77.5843 59.7986 139.4038 0.0000 0.0000 0.0000
# 4 0.0000 0.0000 0.0000 32.2893 0.0000 0.0000
# 5 0.0000 0.0000 0.0000 0.0000 2.2215 0.0000
# 6 0.0000 0.0000 0.0000 0.0000 0.0000 14.8027
#
#
#
# Elastic Compliance Matrix: (Units=1/GPa)
#
#
# Indices 1 2 3 4 5 6 
#
# 1 0.011035 -0.006070 -0.003538 0.000000 0.000000 0.000000
# 2 -0.006070 0.016010 -0.003489 0.000000 0.000000 0.000000
# 3 -0.003538 -0.003489 0.010639 0.000000 0.000000 0.000000
# 4 0.000000 0.000000 0.000000 0.030970 0.000000 0.000000
# 5 0.000000 0.000000 0.000000 0.000000 0.450143 0.000000
# 6 0.000000 0.000000 0.000000 0.000000 0.000000 0.067555
#
#
# Mechanical properties :
#
#
# Convention : Reuss Voigt Hill
#
# Bulk Modulus (GPa) = 87.03211 92.19879 89.61545
# Shear Modulus (GPa) = 8.11193 22.36786 15.23989
#
# Velocity S-wave (km/s) = 2.06314 3.42592 2.82785
# Velocity P-wave (km/s) = 7.16542 8.00176 7.59511
#
# Compressibility (1/GPa) = 0.01149001
#
# Stress axis : x y z
#
# Youngs Moduli (GPa) = 90.61982 62.46279 93.99137
#
# Poissons Ratio (x) = 0.37912 0.33254
# Poissons Ratio (y) = 0.55002 0.32798
# Poissons Ratio (z) = 0.32061 0.21796
#
# Static dielectric constant tensor:
#      x y z
#    x 1.591780 0.000000 0.000000 
#    y 0.000000 1.639920 0.000000 
#    z 0.000000 0.000000 1.652850 
# 
# From -- ./inp_files/7838.got.cif
#   From: 2010.05.17/outbox.cif.g08.bks.cpg/sg64_4_cif.got.tgz:7838.got - 2010.06.03 16:29:19.
