data_PCOD9481397
_publ_section_title
;
Structure prediction by ZEFSAII (Michael W. Deem and Ramdas Pophale) SiO2 
 PCOD9481397
Probable space group: C M C A
;
_chemical_formula_sum "Si O2"
_cell_formula_units_Z 72
_cell_length_a 18.059250
_cell_length_b 8.639903
_cell_length_c 21.415455
_cell_angle_alpha 90.000000
_cell_angle_beta 90.000000
_cell_angle_gamma 90.000000
_cell_volume 3341.457047
_symmetry_space_group_name_H-M "C M C A"
_symmetry_group_IT_number 64
_symmetry_cell_setting 'orthorhombic'
loop_
_space_group_symop_operation_xyz
x,y,z
-x,1/2-y,1/2+z
x,-y,-z
-x,1/2+y,1/2-z
-x,-y,-z
x,1/2+y,1/2-z
-x,y,z
x,1/2-y,1/2+z
1/2+x,1/2+y,z
1/2-x,-y,1/2+z
1/2+x,1/2-y,-z
1/2-x,y,1/2-z
1/2-x,1/2-y,-z
1/2+x,y,1/2-z
1/2-x,1/2+y,z
1/2+x,-y,1/2+z
loop_
_atom_site_type_symbol
_atom_site_label
_atom_site_fract_x
_atom_site_fract_y
_atom_site_fract_z
Si Si1 0.820948 0.167528 0.829905
Si Si2 0.785977 0.569441 0.433211
Si Si3 0.919397 0.207109 0.566903
Si Si4 0.750000 0.932021 0.750000
Si Si5 0.383912 0.852776 0.926209
O O1 0.778355 0.317432 0.803835
O O2 0.890917 0.238080 0.867229
O O3 0.780991 0.067621 0.883283
O O4 0.816462 0.044687 0.773048
O O5 0.808321 0.500000 0.500000
O O6 0.850324 0.687900 0.413310
O O7 0.704185 0.637598 0.440963
O O8 0.918574 0.202284 0.491065
O O9 0.000000 0.263832 0.588177
O O10 0.909006 0.028090 0.586734
#
# Coordination Sequence:
#
# PCOD9481397 Si02
#       5
#    16  16  16   8  16
#     4  11  22  36  59  90 132 163 204 272 324 369
#     4  12  21  36  63  98 132 168 209 260 326 394
#     4  11  24  38  58  97 142 173 202 252 324 403
#     4  10  24  38  56  94 134 158 220 272 330 360
#     4  11  20  36  62  90 129 172 208 252 320 379
#
# _framework density 21.547485000000002
#
# number of rings (size 3 to 8) (size 9 to 14) (size 15 to 20)
#    0.000    0.889    6.667    3.333    0.000    0.444 
#    0.000    0.000    0.000    0.000    0.000   26.444 
#    0.000    0.000    0.000    0.000    0.000    0.000 
#
# Total GULP energy -200811.356834 kJ/mol
# GULP energy per Si atom -5578.093245 kJ/mol
# Density = 2.149844 g / cm^3
# Si number density = 21.547485 Si / 1000 Ang^3
#
#
#
# Elastic Constant Matrix: (Units=GPa)
#
#
# Indices 1 2 3 4 5 6 
#
# 1 115.9836 29.3508 -0.8308 0.0000 0.0000 0.0000
# 2 29.3508 113.4227 40.7384 0.0000 0.0000 0.0000
# 3 -0.8308 40.7384 72.9676 0.0000 0.0000 0.0000
# 4 0.0000 0.0000 0.0000 48.8975 0.0000 0.0000
# 5 0.0000 0.0000 0.0000 0.0000 7.6199 0.0000
# 6 0.0000 0.0000 0.0000 0.0000 0.0000 13.6978
#
#
#
# Elastic Compliance Matrix: (Units=1/GPa)
#
#
# Indices 1 2 3 4 5 6 
#
# 1 0.009419 -0.003097 0.001836 0.000000 0.000000 0.000000
# 2 -0.003097 0.012046 -0.006761 0.000000 0.000000 0.000000
# 3 0.001836 -0.006761 0.017500 0.000000 0.000000 0.000000
# 4 0.000000 0.000000 0.000000 0.020451 0.000000 0.000000
# 5 0.000000 0.000000 0.000000 0.000000 0.131235 0.000000
# 6 0.000000 0.000000 0.000000 0.000000 0.000000 0.073004
#
#
# Mechanical properties :
#
#
# Convention : Reuss Voigt Hill
#
# Bulk Modulus (GPa) = 43.62540 48.98785 46.30662
# Shear Modulus (GPa) = 17.40102 29.58408 23.49255
#
# Velocity S-wave (km/s) = 2.84485 3.70938 3.30550
# Velocity P-wave (km/s) = 5.57504 6.41328 6.00880
#
# Compressibility (1/GPa) = 0.02292243
#
# Stress axis : x y z
#
# Youngs Moduli (GPa) = 106.17126 83.01337 57.14213
#
# Poissons Ratio (x) = 0.25708 -0.10493
# Poissons Ratio (y) = 0.32880 0.38633
# Poissons Ratio (z) = -0.19495 0.56124
#
# Static dielectric constant tensor:
#      x y z
#    x 1.766930 0.000000 0.000000 
#    y 0.000000 1.842320 0.000000 
#    z 0.000000 0.000000 1.880770 
# 
# From -- ./inp_files/45635.got.cif
#   From: 2010.05.17/outbox.cif.g08.bks.cpg/sg64_23_cif.got.tgz:45635.got - 2010.06.03 16:29:19.
