data_PCOD9481411
_publ_section_title
;
Structure prediction by ZEFSAII (Michael W. Deem and Ramdas Pophale) SiO2 
 PCOD9481411
Probable space group: C M C A
;
_chemical_formula_sum "Si O2"
_cell_formula_units_Z 56
_cell_length_a 24.569786
_cell_length_b 8.802357
_cell_length_c 11.021643
_cell_angle_alpha 90.000000
_cell_angle_beta 90.000000
_cell_angle_gamma 90.000000
_cell_volume 2383.673081
_symmetry_space_group_name_H-M "C M C A"
_symmetry_group_IT_number 64
_symmetry_cell_setting 'orthorhombic'
loop_
_space_group_symop_operation_xyz
x,y,z
-x,1/2-y,1/2+z
x,-y,-z
-x,1/2+y,1/2-z
-x,-y,-z
x,1/2+y,1/2-z
-x,y,z
x,1/2-y,1/2+z
1/2+x,1/2+y,z
1/2-x,-y,1/2+z
1/2+x,1/2-y,-z
1/2-x,y,1/2-z
1/2-x,1/2-y,-z
1/2+x,y,1/2-z
1/2-x,1/2+y,z
1/2+x,-y,1/2+z
loop_
_atom_site_type_symbol
_atom_site_label
_atom_site_fract_x
_atom_site_fract_y
_atom_site_fract_z
Si Si1 0.701745 0.253659 0.847709
Si Si2 0.500000 0.535045 0.257309
Si Si3 0.090751 0.132445 0.592526
Si Si4 0.758067 0.500000 0.500000
Si Si5 0.500000 0.309673 0.060707
O O1 0.750000 0.242601 0.750000
O O2 0.639026 0.211121 0.831641
O O3 0.720953 0.132532 0.948016
O O4 0.705222 0.424462 0.897232
O O5 0.552445 0.457734 0.316426
O O6 0.500000 0.479791 0.117962
O O7 0.500000 0.703884 0.314512
O O8 0.052972 0.249936 0.515319
O O9 0.110326 0.000000 0.500000
#
# Coordination Sequence:
#
# PCOD9481411 Si02
#       5
#    16   8  16   8   8
#     4  11  22  42  64  91 126 170 217 260 327 383
#     4   9  19  37  62  96 116 167 206 243 317 380
#     4   9  19  40  65  86 128 164 201 261 319 372
#     4  10  24  40  60  92 126 166 212 274 314 386
#     4   9  19  39  62  92 126 159 206 256 312 373
#
# _framework density 23.493154000000001
#
# number of rings (size 3 to 8) (size 9 to 14) (size 15 to 20)
#    0.000    2.286    1.429    2.571    0.000    4.571 
#   15.429    1.429    0.000    0.000    0.000    0.000 
#    0.000    0.000    0.000    0.000    0.000    0.000 
#
# Total GULP energy -156218.524382 kJ/mol
# GULP energy per Si atom -5579.233014 kJ/mol
# Density = 2.343968 g / cm^3
# Si number density = 23.493154 Si / 1000 Ang^3
#
#
#
# Elastic Constant Matrix: (Units=GPa)
#
#
# Indices 1 2 3 4 5 6 
#
# 1 148.7484 32.9037 26.4465 0.0000 0.0000 0.0000
# 2 32.9037 72.4775 -7.9623 0.0000 0.0000 0.0000
# 3 26.4465 -7.9623 74.0332 0.0000 0.0000 0.0000
# 4 0.0000 0.0000 0.0000 35.2386 0.0000 0.0000
# 5 0.0000 0.0000 0.0000 0.0000 36.9568 0.0000
# 6 0.0000 0.0000 0.0000 0.0000 0.0000 1005.9504
#
#
#
# Elastic Compliance Matrix: (Units=1/GPa)
#
#
# Indices 1 2 3 4 5 6 
#
# 1 0.008233 -0.004109 -0.003383 0.000000 0.000000 0.000000
# 2 -0.004109 0.016013 0.003190 0.000000 0.000000 0.000000
# 3 -0.003383 0.003190 0.015059 0.000000 0.000000 0.000000
# 4 0.000000 0.000000 0.000000 0.028378 0.000000 0.000000
# 5 0.000000 0.000000 0.000000 0.000000 0.027059 0.000000
# 6 0.000000 0.000000 0.000000 0.000000 0.000000 0.000994
#
#
# Mechanical properties :
#
#
# Convention : Reuss Voigt Hill
#
# Bulk Modulus (GPa) = 32.57195 44.22610 38.39902
# Shear Modulus (GPa) = 43.63958 231.88724 137.76341
#
# Velocity S-wave (km/s) = 4.31460 9.94578 7.66597
# Velocity P-wave (km/s) = 6.22218 12.27832 9.73326
#
# Compressibility (1/GPa) = 0.03070126
#
# Stress axis : x y z
#
# Youngs Moduli (GPa) = 121.45829 62.44740 66.40503
#
# Poissons Ratio (x) = 0.25662 0.22466
# Poissons Ratio (y) = 0.49913 -0.21185
# Poissons Ratio (z) = 0.41091 -0.19922
#
# Static dielectric constant tensor:
#      x y z
#    x 1.891750 0.000000 0.000000 
#    y 0.000000 1.964060 0.000000 
#    z 0.000000 0.000000 1.985900 
# 
# From -- ./inp_files/17858.got.cif
#   From: 2010.05.17/outbox.cif.g08.bks.cpg/sg64_9_cif.got.tgz:17858.got - 2010.06.03 16:29:19.
