data_PCOD9481032
_publ_section_title
;
Structure prediction by ZEFSAII (Michael W. Deem and Ramdas Pophale) SiO2 
 PCOD9481032
Probable space group: C M C A
;
_chemical_formula_sum "Si O2"
_cell_formula_units_Z 88
_cell_length_a 24.370256
_cell_length_b 5.415747
_cell_length_c 28.952844
_cell_angle_alpha 90.000000
_cell_angle_beta 90.000000
_cell_angle_gamma 90.000000
_cell_volume 3821.287287
_symmetry_space_group_name_H-M "C M C A"
_symmetry_group_IT_number 64
_symmetry_cell_setting 'orthorhombic'
loop_
_space_group_symop_operation_xyz
x,y,z
-x,1/2-y,1/2+z
x,-y,-z
-x,1/2+y,1/2-z
-x,-y,-z
x,1/2+y,1/2-z
-x,y,z
x,1/2-y,1/2+z
1/2+x,1/2+y,z
1/2-x,-y,1/2+z
1/2+x,1/2-y,-z
1/2-x,y,1/2-z
1/2-x,1/2-y,-z
1/2+x,y,1/2-z
1/2-x,1/2+y,z
1/2+x,-y,1/2+z
loop_
_atom_site_type_symbol
_atom_site_label
_atom_site_fract_x
_atom_site_fract_y
_atom_site_fract_z
Si Si1 0.062231 0.702448 0.268055
Si Si2 0.115800 0.285644 0.645593
Si Si3 0.886919 0.783134 0.587244
Si Si4 0.727862 0.551139 0.446831
Si Si5 0.727133 0.809031 0.696780
Si Si6 0.000000 0.751221 0.530348
O O1 0.088679 0.460762 0.246247
O O2 0.062563 0.675964 0.322786
O O3 0.000000 0.715527 0.249310
O O4 0.111869 0.021012 0.621092
O O5 0.163753 0.286475 0.684238
O O6 0.122594 0.521480 0.612642
O O7 0.834118 0.848280 0.555847
O O8 0.944272 0.760064 0.560365
O O9 0.743903 0.500000 0.500000
O O10 0.764340 0.775240 0.426249
O O11 0.750000 0.816151 0.750000
O O12 0.754163 0.566617 0.675852
O O13 0.000000 0.500000 0.500000
O O14 0.000000 0.000000 0.500000
#
# Coordination Sequence:
#
# PCOD9481032 Si02
#       6
#    16  16  16  16  16   8
#     4  10  23  41  65  90 123 174 233 281 334 414
#     4  12  26  41  69  99 139 182 231 301 353 402
#     4  12  27  44  71 109 144 183 234 301 364 419
#     4  10  22  42  70  99 135 179 225 279 349 437
#     4  10  23  40  63  91 132 186 239 289 345 430
#     4  12  28  52  80 106 148 198 240 288 362 468
#
# _framework density 23.028890000000001
#
# number of rings (size 3 to 8) (size 9 to 14) (size 15 to 20)
#    0.000    1.091    0.000    4.909    7.636    6.545 
#    0.000    0.000    0.000    0.000    0.000    0.000 
#    0.000    0.000    0.000    0.000    0.000    0.000 
#
# Total GULP energy -245662.999171 kJ/mol
# GULP energy per Si atom -5583.249981 kJ/mol
# Density = 2.297648 g / cm^3
# Si number density = 23.028890 Si / 1000 Ang^3
#
#
#
# Elastic Constant Matrix: (Units=GPa)
#
#
# Indices 1 2 3 4 5 6 
#
# 1 152.1843 61.9410 38.1126 0.0000 0.0000 0.0000
# 2 61.9410 267.9271 52.7373 0.0000 0.0000 0.0000
# 3 38.1126 52.7373 80.7455 0.0000 0.0000 0.0000
# 4 0.0000 0.0000 0.0000 31.4094 0.0000 0.0000
# 5 0.0000 0.0000 0.0000 0.0000 37.5003 0.0000
# 6 0.0000 0.0000 0.0000 0.0000 0.0000 4.8845
#
#
#
# Elastic Compliance Matrix: (Units=1/GPa)
#
#
# Indices 1 2 3 4 5 6 
#
# 1 0.007793 -0.001237 -0.002871 0.000000 0.000000 0.000000
# 2 -0.001237 0.004479 -0.002342 0.000000 0.000000 0.000000
# 3 -0.002871 -0.002342 0.015269 0.000000 0.000000 0.000000
# 4 0.000000 0.000000 0.000000 0.031838 0.000000 0.000000
# 5 0.000000 0.000000 0.000000 0.000000 0.026666 0.000000
# 6 0.000000 0.000000 0.000000 0.000000 0.000000 0.204727
#
#
# Mechanical properties :
#
#
# Convention : Reuss Voigt Hill
#
# Bulk Modulus (GPa) = 68.29143 89.60429 78.94786
# Shear Modulus (GPa) = 16.20471 37.96325 27.08398
#
# Velocity S-wave (km/s) = 2.65555 4.06458 3.43313
# Velocity P-wave (km/s) = 6.25473 7.81164 7.07614
#
# Compressibility (1/GPa) = 0.01464313
#
# Stress axis : x y z
#
# Youngs Moduli (GPa) = 128.31601 223.25441 65.49154
#
# Poissons Ratio (x) = 0.27608 0.18801
# Poissons Ratio (y) = 0.15868 0.15337
# Poissons Ratio (z) = 0.36837 0.52282
#
# Static dielectric constant tensor:
#      x y z
#    x 1.948650 0.000000 0.000000 
#    y 0.000000 1.880210 0.000000 
#    z 0.000000 0.000000 1.852680 
# 
# From -- ./inp_files/53895.got.cif
#   From: 2010.05.17/outbox.cif.g08.bks.cpg/sg64_27_cif.got.tgz:53895.got - 2010.06.03 16:29:19.
