data_PCOD9481213
_publ_section_title
;
Structure prediction by ZEFSAII (Michael W. Deem and Ramdas Pophale) SiO2 
 PCOD9481213
Probable space group: C M C A
;
_chemical_formula_sum "Si O2"
_cell_formula_units_Z 112
_cell_length_a 25.789362
_cell_length_b 14.260386
_cell_length_c 15.860625
_cell_angle_alpha 90.000000
_cell_angle_beta 90.000000
_cell_angle_gamma 90.000000
_cell_volume 5833.002687
_symmetry_space_group_name_H-M "C M C A"
_symmetry_group_IT_number 64
_symmetry_cell_setting 'orthorhombic'
loop_
_space_group_symop_operation_xyz
x,y,z
-x,1/2-y,1/2+z
x,-y,-z
-x,1/2+y,1/2-z
-x,-y,-z
x,1/2+y,1/2-z
-x,y,z
x,1/2-y,1/2+z
1/2+x,1/2+y,z
1/2-x,-y,1/2+z
1/2+x,1/2-y,-z
1/2-x,y,1/2-z
1/2-x,1/2-y,-z
1/2+x,y,1/2-z
1/2-x,1/2+y,z
1/2+x,-y,1/2+z
loop_
_atom_site_type_symbol
_atom_site_label
_atom_site_fract_x
_atom_site_fract_y
_atom_site_fract_z
Si Si1 0.297233 0.692955 0.394363
Si Si2 0.060304 0.115697 0.825321
Si Si3 0.362912 0.244888 0.756738
Si Si4 0.131832 0.934671 0.845853
Si Si5 0.198580 0.819679 0.418421
Si Si6 0.248326 0.001057 0.848154
Si Si7 0.943313 0.612327 0.485315
O O1 0.326448 0.757565 0.326245
O O2 0.240908 0.737989 0.408916
O O3 0.323366 0.686026 0.486657
O O4 0.284616 0.589939 0.358798
O O5 0.083778 0.193997 0.765137
O O6 0.000000 0.093884 0.810187
O O7 0.095660 0.022434 0.821096
O O8 0.064400 0.152394 0.921772
O O9 0.366601 0.355150 0.775378
O O10 0.338909 0.194767 0.838812
O O11 0.104659 0.879878 0.923371
O O12 0.188945 0.972516 0.867312
O O13 0.229605 0.916796 0.406255
O O14 0.250000 0.031238 0.750000
O O15 0.946557 0.500000 0.500000
O O16 0.000000 0.641947 0.451391
#
# Coordination Sequence:
#
# PCOD9481213 Si02
#       7
#    16  16  16  16  16  16  16
#     4  11  23  40  57  91 128 163 208 251 303 367
#     4  10  23  41  63  91 120 155 204 262 319 367
#     4  12  24  40  63  89 123 166 205 251 308 375
#     4  11  21  36  64  90 121 158 207 254 311 360
#     4  11  24  38  60  87 127 167 207 251 301 369
#     4  12  21  38  59  88 127 170 206 250 300 361
#     4   8  17  35  59  88 116 143 195 265 315 357
#
# _framework density 19.201089
#
# number of rings (size 3 to 8) (size 9 to 14) (size 15 to 20)
#    0.000    1.286    2.857    4.714    2.000    4.571 
#    0.000    0.000    0.000    0.000    0.000    1.000 
#    0.000    0.000    0.000    0.000    0.000    0.000 
#
# Total GULP energy -312566.978252 kJ/mol
# GULP energy per Si atom -5581.553183 kJ/mol
# Density = 1.915739 g / cm^3
# Si number density = 19.201089 Si / 1000 Ang^3
#
#
#
# Elastic Constant Matrix: (Units=GPa)
#
#
# Indices 1 2 3 4 5 6 
#
# 1 101.8659 21.5394 47.7072 0.0000 0.0000 0.0000
# 2 21.5394 63.4407 -0.3773 0.0000 0.0000 0.0000
# 3 47.7072 -0.3773 92.8309 0.0000 0.0000 0.0000
# 4 0.0000 0.0000 0.0000 22.8819 0.0000 0.0000
# 5 0.0000 0.0000 0.0000 0.0000 25.4191 0.0000
# 6 0.0000 0.0000 0.0000 0.0000 0.0000 16.5693
#
#
#
# Elastic Compliance Matrix: (Units=1/GPa)
#
#
# Indices 1 2 3 4 5 6 
#
# 1 0.014306 -0.004901 -0.007372 0.000000 0.000000 0.000000
# 2 -0.004901 0.017442 0.002590 0.000000 0.000000 0.000000
# 3 -0.007372 0.002590 0.014571 0.000000 0.000000 0.000000
# 4 0.000000 0.000000 0.000000 0.043703 0.000000 0.000000
# 5 0.000000 0.000000 0.000000 0.000000 0.039340 0.000000
# 6 0.000000 0.000000 0.000000 0.000000 0.000000 0.060353
#
#
# Mechanical properties :
#
#
# Convention : Reuss Voigt Hill
#
# Bulk Modulus (GPa) = 37.10205 43.98624 40.54415
# Shear Modulus (GPa) = 22.92894 25.59195 24.26044
#
# Velocity S-wave (km/s) = 3.45939 3.65477 3.55842
# Velocity P-wave (km/s) = 5.94318 6.38496 6.16803
#
# Compressibility (1/GPa) = 0.02695269
#
# Stress axis : x y z
#
# Youngs Moduli (GPa) = 69.90298 57.33261 68.62828
#
# Poissons Ratio (x) = 0.28098 0.50591
# Poissons Ratio (y) = 0.34258 -0.17771
# Poissons Ratio (z) = 0.51531 -0.14846
#
# Static dielectric constant tensor:
#      x y z
#    x 1.677720 0.000000 0.000000 
#    y 0.000000 1.661670 0.000000 
#    z 0.000000 0.000000 1.755900 
# 
# From -- ./inp_files/28083.got.cif
#   From: 2010.05.17/outbox.cif.g08.bks.cpg/sg64_15_cif.got.tgz:28083.got - 2010.06.03 16:29:19.
