data_PCOD9481307
_publ_section_title
;
Structure prediction by ZEFSAII (Michael W. Deem and Ramdas Pophale) SiO2 
 PCOD9481307
Probable space group: C M C A
;
_chemical_formula_sum "Si O2"
_cell_formula_units_Z 96
_cell_length_a 14.200959
_cell_length_b 7.299922
_cell_length_c 36.038967
_cell_angle_alpha 90.000000
_cell_angle_beta 90.000000
_cell_angle_gamma 90.000000
_cell_volume 3736.011698
_symmetry_space_group_name_H-M "C M C A"
_symmetry_group_IT_number 64
_symmetry_cell_setting 'orthorhombic'
loop_
_space_group_symop_operation_xyz
x,y,z
-x,1/2-y,1/2+z
x,-y,-z
-x,1/2+y,1/2-z
-x,-y,-z
x,1/2+y,1/2-z
-x,y,z
x,1/2-y,1/2+z
1/2+x,1/2+y,z
1/2-x,-y,1/2+z
1/2+x,1/2-y,-z
1/2-x,y,1/2-z
1/2-x,1/2-y,-z
1/2+x,y,1/2-z
1/2-x,1/2+y,z
1/2+x,-y,1/2+z
loop_
_atom_site_type_symbol
_atom_site_label
_atom_site_fract_x
_atom_site_fract_y
_atom_site_fract_z
Si Si1 0.874172 0.025871 0.042248
Si Si2 0.609535 0.517122 0.801879
Si Si3 0.346345 0.241926 0.600078
Si Si4 0.213482 0.030781 0.651023
Si Si5 0.155705 0.055661 0.540166
Si Si6 0.608868 0.445294 0.718728
O O1 0.769200 0.940674 0.037992
O O2 0.877427 0.241638 0.049257
O O3 0.900592 0.926636 0.081047
O O4 0.910076 0.000000 0.000000
O O5 0.500000 0.470818 0.810041
O O6 0.665420 0.575711 0.690472
O O7 0.638756 0.441966 0.761616
O O8 0.614829 0.736651 0.795401
O O9 0.317025 0.967011 0.665780
O O10 0.359390 0.381519 0.634389
O O11 0.360870 0.389741 0.567554
O O12 0.246793 0.157524 0.616322
O O13 0.118139 0.000000 0.500000
O O14 0.500000 0.505184 0.719204
#
# Coordination Sequence:
#
# PCOD9481307 Si02
#       6
#    16  16  16  16  16  16
#     4  11  17  29  48  74 119 173 209 262 320 372
#     4  10  23  43  66  91 123 171 221 263 319 394
#     4  12  22  33  51  90 130 168 212 268 331 382
#     4  12  23  38  59  94 136 166 210 276 333 380
#     4  11  17  29  48  74 119 173 209 262 320 372
#     4  10  23  43  66  91 123 171 221 263 319 394
#
# _framework density 25.695851000000001
#
# number of rings (size 3 to 8) (size 9 to 14) (size 15 to 20)
#    0.000    1.000    6.667    1.500    2.333    1.333 
#    0.000    0.000    0.000    0.000    0.000    0.000 
#    0.000   18.667    0.000    0.000    0.000    0.333 
#
# Total GULP energy -267262.718950 kJ/mol
# GULP energy per Si atom -5567.973311 kJ/mol
# Density = 2.563737 g / cm^3
# Si number density = 25.695851 Si / 1000 Ang^3
#
#
#
# Elastic Constant Matrix: (Units=GPa)
#
#
# Indices 1 2 3 4 5 6 
#
# 1 88.2209 11.9064 44.5721 0.0000 0.0000 0.0000
# 2 11.9064 157.3474 68.2549 0.0000 0.0000 0.0000
# 3 44.5721 68.2549 216.3208 0.0000 0.0000 0.0000
# 4 0.0000 0.0000 0.0000 39.2834 0.0000 0.0000
# 5 0.0000 0.0000 0.0000 0.0000 -554.3789 0.0000
# 6 0.0000 0.0000 0.0000 0.0000 0.0000 -20.5653
#
#
#
# Elastic Compliance Matrix: (Units=1/GPa)
#
#
# Indices 1 2 3 4 5 6 
#
# 1 0.012658 0.000201 -0.002672 0.000000 0.000000 0.000000
# 2 0.000201 0.007366 -0.002366 0.000000 0.000000 0.000000
# 3 -0.002672 -0.002366 0.005920 0.000000 0.000000 0.000000
# 4 0.000000 0.000000 0.000000 0.025456 0.000000 0.000000
# 5 0.000000 0.000000 0.000000 0.000000 -0.001804 0.000000
# 6 0.000000 0.000000 0.000000 0.000000 0.000000 -0.048625
#
#
# Mechanical properties :
#
#
# Convention : Reuss Voigt Hill
#
# Bulk Modulus (GPa) = 61.45729 79.03954 70.24842
# Shear Modulus (GPa) = 311.20224 -84.65512 113.27356
#
# Velocity S-wave (km/s) = 11.01693 -5.74601 6.64666
# Velocity P-wave (km/s) = 13.63083 3.63258 9.28988
#
# Compressibility (1/GPa) = 0.01627146
#
# Stress axis : x y z
#
# Youngs Moduli (GPa) = 79.00271 135.75230 168.92843
#
# Poissons Ratio (x) = -0.02729 0.45130
# Poissons Ratio (y) = -0.01588 0.39964
# Poissons Ratio (z) = 0.21106 0.32115
#
# Static dielectric constant tensor:
#      x y z
#    x 2.048330 0.000000 0.000000 
#    y 0.000000 2.081240 0.000000 
#    z 0.000000 0.000000 2.081280 
# 
# From -- ./inp_files/50974.got.cif
#   From: 2010.05.17/outbox.cif.g08.bks.cpg/sg64_26_cif.got.tgz:50974.got - 2010.06.03 16:29:19.
