data_PCOD9481275
_publ_section_title
;
Structure prediction by ZEFSAII (Michael W. Deem and Ramdas Pophale) SiO2 
 PCOD9481275
Probable space group: C M C A
;
_chemical_formula_sum "Si O2"
_cell_formula_units_Z 64
_cell_length_a 10.060878
_cell_length_b 21.926809
_cell_length_c 12.926260
_cell_angle_alpha 90.000000
_cell_angle_beta 90.000000
_cell_angle_gamma 90.000000
_cell_volume 2851.571092
_symmetry_space_group_name_H-M "C M C A"
_symmetry_group_IT_number 64
_symmetry_cell_setting 'orthorhombic'
loop_
_space_group_symop_operation_xyz
x,y,z
-x,1/2-y,1/2+z
x,-y,-z
-x,1/2+y,1/2-z
-x,-y,-z
x,1/2+y,1/2-z
-x,y,z
x,1/2-y,1/2+z
1/2+x,1/2+y,z
1/2-x,-y,1/2+z
1/2+x,1/2-y,-z
1/2-x,y,1/2-z
1/2-x,1/2-y,-z
1/2+x,y,1/2-z
1/2-x,1/2+y,z
1/2+x,-y,1/2+z
loop_
_atom_site_type_symbol
_atom_site_label
_atom_site_fract_x
_atom_site_fract_y
_atom_site_fract_z
Si Si1 0.258117 0.350180 0.982433
Si Si2 0.148779 0.740968 0.845866
Si Si3 0.145506 0.034395 0.390959
Si Si4 0.847284 0.433445 0.336717
O O1 0.336293 0.304754 0.907624
O O2 0.170725 0.394857 0.911850
O O3 0.178437 0.309067 0.065219
O O4 0.338642 0.396119 0.056680
O O5 0.250000 0.739006 0.750000
O O6 0.000000 0.732702 0.805716
O O7 0.000000 0.027631 0.338938
O O8 0.130756 0.000000 0.500000
O O9 0.277810 0.999740 0.351010
O O10 0.750000 0.404390 0.250000
O O11 0.000000 0.433326 0.304829
#
# Coordination Sequence:
#
# PCOD9481275 Si02
#       4
#    16  16  16  16
#     4  10  23  42  67  92 125 168 216 263 312 373
#     4  11  25  43  65  95 128 166 214 266 320 377
#     4   9  19  37  61  88 119 157 201 251 308 368
#     4  11  23  39  63  95 130 168 211 260 313 374
#
# _framework density 22.443767000000001
#
# number of rings (size 3 to 8) (size 9 to 14) (size 15 to 20)
#    0.000    1.750    0.000    3.000    0.000   17.500 
#    0.000    0.000    0.000    0.000    0.000    0.000 
#    0.000    0.000    0.000    0.000    0.000    0.000 
#
# Total GULP energy -178492.293261 kJ/mol
# GULP energy per Si atom -5577.884164 kJ/mol
# Density = 2.239268 g / cm^3
# Si number density = 22.443767 Si / 1000 Ang^3
#
#
#
# Elastic Constant Matrix: (Units=GPa)
#
#
# Indices 1 2 3 4 5 6 
#
# 1 211.7402 37.3107 42.7926 0.0000 0.0000 0.0000
# 2 37.3107 127.2599 23.2587 0.0000 0.0000 0.0000
# 3 42.7926 23.2587 68.9909 0.0000 0.0000 0.0000
# 4 0.0000 0.0000 0.0000 39.7166 0.0000 0.0000
# 5 0.0000 0.0000 0.0000 0.0000 -214.0152 0.0000
# 6 0.0000 0.0000 0.0000 0.0000 0.0000 11.0445
#
#
#
# Elastic Compliance Matrix: (Units=1/GPa)
#
#
# Indices 1 2 3 4 5 6 
#
# 1 0.005531 -0.001060 -0.003073 0.000000 0.000000 0.000000
# 2 -0.001060 0.008577 -0.002234 0.000000 0.000000 0.000000
# 3 -0.003073 -0.002234 0.017154 0.000000 0.000000 0.000000
# 4 0.000000 0.000000 0.000000 0.025178 0.000000 0.000000
# 5 0.000000 0.000000 0.000000 0.000000 -0.004673 0.000000
# 6 0.000000 0.000000 0.000000 0.000000 0.000000 0.090543
#
#
# Mechanical properties :
#
#
# Convention : Reuss Voigt Hill
#
# Bulk Modulus (GPa) = 53.97427 68.30168 61.13797
# Shear Modulus (GPa) = 31.01339 -12.34224 9.33558
#
# Velocity S-wave (km/s) = 3.72133 -2.34758 2.04171
# Velocity P-wave (km/s) = 6.52420 4.81147 5.73217
#
# Compressibility (1/GPa) = 0.01852735
#
# Stress axis : x y z
#
# Youngs Moduli (GPa) = 180.81214 116.59100 58.29539
#
# Poissons Ratio (x) = 0.12357 0.17915
# Poissons Ratio (y) = 0.19163 0.13024
# Poissons Ratio (z) = 0.55566 0.26048
#
# Static dielectric constant tensor:
#      x y z
#    x 1.828930 0.000000 0.000000 
#    y 0.000000 1.859040 0.000000 
#    z 0.000000 0.000000 1.879080 
# 
# From -- ./inp_files/20878.got.cif
#   From: 2010.05.17/outbox.cif.g08.bks.cpg/sg64_11_cif.got.tgz:20878.got - 2010.06.03 16:29:19.
