data_PCOD9481425
_publ_section_title
;
Structure prediction by ZEFSAII (Michael W. Deem and Ramdas Pophale) SiO2 
 PCOD9481425
Probable space group: C M C A
;
_chemical_formula_sum "Si O2"
_cell_formula_units_Z 96
_cell_length_a 14.975525
_cell_length_b 21.344735
_cell_length_c 15.878522
_cell_angle_alpha 90.000000
_cell_angle_beta 90.000000
_cell_angle_gamma 90.000000
_cell_volume 5075.547528
_symmetry_space_group_name_H-M "C M C A"
_symmetry_group_IT_number 64
_symmetry_cell_setting 'orthorhombic'
loop_
_space_group_symop_operation_xyz
x,y,z
-x,1/2-y,1/2+z
x,-y,-z
-x,1/2+y,1/2-z
-x,-y,-z
x,1/2+y,1/2-z
-x,y,z
x,1/2-y,1/2+z
1/2+x,1/2+y,z
1/2-x,-y,1/2+z
1/2+x,1/2-y,-z
1/2-x,y,1/2-z
1/2-x,1/2-y,-z
1/2+x,y,1/2-z
1/2-x,1/2+y,z
1/2+x,-y,1/2+z
loop_
_atom_site_type_symbol
_atom_site_label
_atom_site_fract_x
_atom_site_fract_y
_atom_site_fract_z
Si Si1 0.248554 0.038497 0.123539
Si Si2 0.250144 0.097926 0.940434
Si Si3 0.397342 0.799589 0.409847
Si Si4 0.604980 0.705089 0.561556
Si Si5 0.856481 0.227521 0.239037
Si Si6 0.397501 0.083260 0.246172
O O1 0.338022 0.066770 0.164841
O O2 0.161882 0.053884 0.179286
O O3 0.259561 0.963923 0.115922
O O4 0.235890 0.071111 0.033840
O O5 0.167684 0.141344 0.913634
O O6 0.335988 0.142790 0.939288
O O7 0.500000 0.817208 0.426337
O O8 0.370017 0.750202 0.483035
O O9 0.390462 0.767024 0.318804
O O10 0.500000 0.691196 0.553563
O O11 0.621952 0.740379 0.649961
O O12 0.750000 0.222084 0.250000
O O13 0.895874 0.158002 0.241967
O O14 0.500000 0.061702 0.242539
#
# Coordination Sequence:
#
# PCOD9481425 Si02
#       6
#    16  16  16  16  16  16
#     4  10  24  41  62  90 117 167 212 244 306 365
#     4  11  23  41  62  88 128 162 204 255 302 368
#     4  11  24  40  64  96 126 162 205 255 318 372
#     4  11  24  40  64  96 126 162 205 255 318 372
#     4  12  22  39  66  92 125 160 204 258 316 369
#     4  11  23  42  64  89 122 158 207 259 302 364
#
# _framework density 18.914216
#
# number of rings (size 3 to 8) (size 9 to 14) (size 15 to 20)
#    0.000    1.000    3.333    4.000    0.000    8.000 
#    0.000    3.333    0.000    0.000    0.000    0.000 
#    0.000    0.000    0.000    0.000    0.000    0.000 
#
# Total GULP energy -268345.741217 kJ/mol
# GULP energy per Si atom -5590.536275 kJ/mol
# Density = 1.887117 g / cm^3
# Si number density = 18.914216 Si / 1000 Ang^3
#
#
#
# Elastic Constant Matrix: (Units=GPa)
#
#
# Indices 1 2 3 4 5 6 
#
# 1 81.0860 -11.3699 -24.4054 0.0000 0.0000 0.0000
# 2 -11.3699 74.8500 2.7054 0.0000 0.0000 0.0000
# 3 -24.4054 2.7054 71.6633 0.0000 0.0000 0.0000
# 4 0.0000 0.0000 0.0000 27.7669 0.0000 0.0000
# 5 0.0000 0.0000 0.0000 0.0000 -4.5752 0.0000
# 6 0.0000 0.0000 0.0000 0.0000 0.0000 -11.8642
#
#
#
# Elastic Compliance Matrix: (Units=1/GPa)
#
#
# Indices 1 2 3 4 5 6 
#
# 1 0.014022 0.001960 0.004701 0.000000 0.000000 0.000000
# 2 0.001960 0.013652 0.000152 0.000000 0.000000 0.000000
# 3 0.004701 0.000152 0.015550 0.000000 0.000000 0.000000
# 4 0.000000 0.000000 0.000000 0.036014 0.000000 0.000000
# 5 0.000000 0.000000 0.000000 0.000000 -0.218570 0.000000
# 6 0.000000 0.000000 0.000000 0.000000 0.000000 -0.084287
#
#
# Mechanical properties :
#
#
# Convention : Reuss Voigt Hill
#
# Bulk Modulus (GPa) = 17.58961 17.93993 17.76477
# Shear Modulus (GPa) = -22.90479 19.64344 -1.63068
#
# Velocity S-wave (km/s) = -3.48369 3.22616 -0.92952
# Velocity P-wave (km/s) = 2.61947 4.83559 2.87414
#
# Compressibility (1/GPa) = 0.05685174
#
# Stress axis : x y z
#
# Youngs Moduli (GPa) = 71.31406 73.24769 64.31068
#
# Poissons Ratio (x) = -0.14357 -0.30235
# Poissons Ratio (y) = -0.13978 -0.00978
# Poissons Ratio (z) = -0.33528 -0.01114
#
# Static dielectric constant tensor:
#      x y z
#    x 1.646010 0.000000 0.000000 
#    y 0.000000 1.624360 0.000000 
#    z 0.000000 0.000000 1.663090 
# 
# From -- ./inp_files/23842.got.cif
#   From: 2010.05.17/outbox.cif.g08.bks.cpg/sg64_12_cif.got.tgz:23842.got - 2010.06.03 16:29:19.
