data_PCOD9481924
_publ_section_title
;
Structure prediction by ZEFSAII (Michael W. Deem and Ramdas Pophale) SiO2 
 PCOD9481924
Probable space group: C M C A
;
_chemical_formula_sum "Si O2"
_cell_formula_units_Z 84
_cell_length_a 21.742485
_cell_length_b 17.066496
_cell_length_c 11.034728
_cell_angle_alpha 90.000000
_cell_angle_beta 90.000000
_cell_angle_gamma 90.000000
_cell_volume 4094.634817
_symmetry_space_group_name_H-M "C M C A"
_symmetry_group_IT_number 64
_symmetry_cell_setting 'orthorhombic'
loop_
_space_group_symop_operation_xyz
x,y,z
-x,1/2-y,1/2+z
x,-y,-z
-x,1/2+y,1/2-z
-x,-y,-z
x,1/2+y,1/2-z
-x,y,z
x,1/2-y,1/2+z
1/2+x,1/2+y,z
1/2-x,-y,1/2+z
1/2+x,1/2-y,-z
1/2-x,y,1/2-z
1/2-x,1/2-y,-z
1/2+x,y,1/2-z
1/2-x,1/2+y,z
1/2+x,-y,1/2+z
loop_
_atom_site_type_symbol
_atom_site_label
_atom_site_fract_x
_atom_site_fract_y
_atom_site_fract_z
Si Si1 0.403753 0.365194 0.557101
Si Si2 0.000000 0.000000 0.500000
Si Si3 0.842000 0.581186 0.666528
Si Si4 0.211402 0.581872 0.935497
Si Si5 0.432180 0.186222 0.554169
Si Si6 0.926990 0.428569 0.673241
O O1 0.445632 0.431122 0.492040
O O2 0.333421 0.362164 0.510737
O O3 0.429203 0.278533 0.536583
O O4 0.408725 0.390778 0.698058
O O5 0.814568 0.576865 0.800185
O O6 0.784538 0.592413 0.575623
O O7 0.883957 0.656968 0.652068
O O8 0.884443 0.504186 0.647370
O O9 0.201645 0.500000 0.000000
O O10 0.500000 0.164111 0.596792
O O11 0.420527 0.135710 0.432448
O O12 0.000000 0.450774 0.681613
#
# Coordination Sequence:
#
# PCOD9481924 Si02
#       6
#    16   4  16  16  16  16
#     4  12  24  43  69 103 130 180 230 284 340 406
#     4  12  20  44  68  96 132 168 228 274 334 408
#     4  11  24  44  70  99 136 182 227 282 347 416
#     4  11  23  43  70  99 133 182 237 276 333 417
#     4  11  25  43  67 102 143 175 225 293 353 401
#     4  11  22  43  69 102 139 179 230 281 352 412
#
# _framework density 20.51465
#
# number of rings (size 3 to 8) (size 9 to 14) (size 15 to 20)
#    0.000    0.762    4.762    2.286    2.667    2.286 
#    1.714    0.000    0.000    0.000    0.000    0.000 
#    0.000    0.000    0.000    0.000    0.000    0.000 
#
# Total GULP energy -234069.859881 kJ/mol
# GULP energy per Si atom -5573.091902 kJ/mol
# Density = 2.046796 g / cm^3
# Si number density = 20.514650 Si / 1000 Ang^3
#
#
#
# Elastic Constant Matrix: (Units=GPa)
#
#
# Indices 1 2 3 4 5 6 
#
# 1 159.2799 56.0551 45.8842 0.0000 0.0000 0.0000
# 2 56.0551 123.4146 7.4909 0.0000 0.0000 0.0000
# 3 45.8842 7.4909 39.7794 0.0000 0.0000 0.0000
# 4 0.0000 0.0000 0.0000 5.6380 0.0000 0.0000
# 5 0.0000 0.0000 0.0000 0.0000 19.1617 0.0000
# 6 0.0000 0.0000 0.0000 0.0000 0.0000 29.2603
#
#
#
# Elastic Compliance Matrix: (Units=1/GPa)
#
#
# Indices 1 2 3 4 5 6 
#
# 1 0.011373 -0.004420 -0.012286 0.000000 0.000000 0.000000
# 2 -0.004420 0.009914 0.003231 0.000000 0.000000 0.000000
# 3 -0.012286 0.003231 0.038702 0.000000 0.000000 0.000000
# 4 0.000000 0.000000 0.000000 0.177368 0.000000 0.000000
# 5 0.000000 0.000000 0.000000 0.000000 0.052188 0.000000
# 6 0.000000 0.000000 0.000000 0.000000 0.000000 0.034176
#
#
# Mechanical properties :
#
#
# Convention : Reuss Voigt Hill
#
# Bulk Modulus (GPa) = 30.26684 60.14826 45.20755
# Shear Modulus (GPa) = 13.82425 25.01492 19.41958
#
# Velocity S-wave (km/s) = 2.59872 3.49573 3.08006
# Velocity P-wave (km/s) = 4.87753 6.75847 5.89352
#
# Compressibility (1/GPa) = 0.03303946
#
# Stress axis : x y z
#
# Youngs Moduli (GPa) = 87.92733 100.86571 25.83866
#
# Poissons Ratio (x) = 0.44582 0.31746
# Poissons Ratio (y) = 0.38863 -0.08349
# Poissons Ratio (z) = 1.08028 -0.32592
#
# Static dielectric constant tensor:
#      x y z
#    x 1.757090 0.000000 0.000000 
#    y 0.000000 1.703780 0.000000 
#    z 0.000000 0.000000 1.749520 
# 
# From -- ./inp_files/17283.got.cif
#   From: 2010.05.17/outbox.cif.g08.bks.cpg/sg64_9_cif.got.tgz:17283.got - 2010.06.03 16:29:19.
