data_PCOD9481360
_publ_section_title
;
Structure prediction by ZEFSAII (Michael W. Deem and Ramdas Pophale) SiO2 
 PCOD9481360
Probable space group: C M C A
;
_chemical_formula_sum "Si O2"
_cell_formula_units_Z 120
_cell_length_a 20.309492
_cell_length_b 22.006359
_cell_length_c 12.532077
_cell_angle_alpha 90.000000
_cell_angle_beta 90.000000
_cell_angle_gamma 90.000000
_cell_volume 5601.061080
_symmetry_space_group_name_H-M "C M C A"
_symmetry_group_IT_number 64
_symmetry_cell_setting 'orthorhombic'
loop_
_space_group_symop_operation_xyz
x,y,z
-x,1/2-y,1/2+z
x,-y,-z
-x,1/2+y,1/2-z
-x,-y,-z
x,1/2+y,1/2-z
-x,y,z
x,1/2-y,1/2+z
1/2+x,1/2+y,z
1/2-x,-y,1/2+z
1/2+x,1/2-y,-z
1/2-x,y,1/2-z
1/2-x,1/2-y,-z
1/2+x,y,1/2-z
1/2-x,1/2+y,z
1/2+x,-y,1/2+z
loop_
_atom_site_type_symbol
_atom_site_label
_atom_site_fract_x
_atom_site_fract_y
_atom_site_fract_z
Si Si1 0.923230 0.877646 0.504776
Si Si2 0.329495 0.953496 0.145902
Si Si3 0.626066 0.083259 0.229807
Si Si4 0.573929 0.241183 0.499459
Si Si5 0.809541 0.095918 0.876404
Si Si6 0.425298 0.392487 0.948672
Si Si7 0.206932 0.266984 0.398741
Si Si8 0.750000 0.159963 0.250000
O O1 0.876319 0.923194 0.441530
O O2 0.906371 0.879746 0.631414
O O3 0.912945 0.809235 0.458378
O O4 0.000000 0.893534 0.491580
O O5 0.253436 0.948102 0.108416
O O6 0.336476 0.918407 0.258818
O O7 0.350105 0.021482 0.174934
O O8 0.582035 0.074536 0.334952
O O9 0.689597 0.117180 0.278961
O O10 0.500000 0.242279 0.542187
O O11 0.579642 0.181005 0.426712
O O12 0.628932 0.230404 0.586607
O O13 0.777576 0.163460 0.871761
O O14 0.866835 0.092185 0.966722
O O15 0.500000 0.402875 0.990896
O O16 0.250000 0.250000 0.500000
O O17 0.221101 0.207967 0.331289
#
# Coordination Sequence:
#
# PCOD9481360 Si02
#       8
#    16  16  16  16  16  16  16   8
#     4  11  24  45  70  99 138 185 233 282 337 412
#     4  11  25  45  64  96 136 189 234 285 340 399
#     4  12  26  42  65 101 139 180 234 284 342 406
#     4   9  19  40  65  97 136 172 214 271 346 407
#     4  10  23  45  69  99 139 174 230 291 345 407
#     4  10  23  44  72 104 139 180 224 286 355 416
#     4  11  21  38  65  97 133 168 217 281 344 410
#     4  12  22  36  62  98 124 178 220 278 352 398
#
# _framework density 21.424512
#
# number of rings (size 3 to 8) (size 9 to 14) (size 15 to 20)
#    0.000    1.333    1.333    4.800    1.867    3.733 
#    4.800    0.667    0.000    0.000    0.000    0.000 
#    0.000    0.000    0.000    0.000    0.000    0.000 
#
# Total GULP energy -334569.205432 kJ/mol
# GULP energy per Si atom -5576.153424 kJ/mol
# Density = 2.137575 g / cm^3
# Si number density = 21.424512 Si / 1000 Ang^3
#
#
#
# Elastic Constant Matrix: (Units=GPa)
#
#
# Indices 1 2 3 4 5 6 
#
# 1 110.7806 34.1602 49.2076 0.0000 0.0000 0.0000
# 2 34.1602 75.4947 26.9291 0.0000 0.0000 0.0000
# 3 49.2076 26.9291 75.0956 0.0000 0.0000 0.0000
# 4 0.0000 0.0000 0.0000 30.2498 0.0000 0.0000
# 5 0.0000 0.0000 0.0000 0.0000 27.0759 0.0000
# 6 0.0000 0.0000 0.0000 0.0000 0.0000 24.3260
#
#
#
# Elastic Compliance Matrix: (Units=1/GPa)
#
#
# Indices 1 2 3 4 5 6 
#
# 1 0.013442 -0.003372 -0.007599 0.000000 0.000000 0.000000
# 2 -0.003372 0.016035 -0.003541 0.000000 0.000000 0.000000
# 3 -0.007599 -0.003541 0.019565 0.000000 0.000000 0.000000
# 4 0.000000 0.000000 0.000000 0.033058 0.000000 0.000000
# 5 0.000000 0.000000 0.000000 0.000000 0.036933 0.000000
# 6 0.000000 0.000000 0.000000 0.000000 0.000000 0.041108
#
#
# Mechanical properties :
#
#
# Convention : Reuss Voigt Hill
#
# Bulk Modulus (GPa) = 49.95171 53.55162 51.75167
# Shear Modulus (GPa) = 25.53145 26.40195 25.96670
#
# Velocity S-wave (km/s) = 3.45584 3.51426 3.48517
# Velocity P-wave (km/s) = 6.26814 6.44332 6.35633
#
# Compressibility (1/GPa) = 0.02001933
#
# Stress axis : x y z
#
# Youngs Moduli (GPa) = 74.39413 62.36538 51.11077
#
# Poissons Ratio (x) = 0.21028 0.38839
# Poissons Ratio (y) = 0.25083 0.18096
# Poissons Ratio (z) = 0.56532 0.22081
#
# Static dielectric constant tensor:
#      x y z
#    x 1.794160 0.000000 0.000000 
#    y 0.000000 1.813810 0.000000 
#    z 0.000000 0.000000 1.758200 
# 
# From -- ./inp_files/17619.got.cif
#   From: 2010.05.17/outbox.cif.g08.bks.cpg/sg64_9_cif.got.tgz:17619.got - 2010.06.03 16:29:19.
