data_PCOD9481722
_publ_section_title
;
Structure prediction by ZEFSAII (Michael W. Deem and Ramdas Pophale) SiO2 
 PCOD9481722
Probable space group: C M C A
;
_chemical_formula_sum "Si O2"
_cell_formula_units_Z 88
_cell_length_a 21.274190
_cell_length_b 18.578280
_cell_length_c 9.934065
_cell_angle_alpha 90.000000
_cell_angle_beta 90.000000
_cell_angle_gamma 90.000000
_cell_volume 3926.318578
_symmetry_space_group_name_H-M "C M C A"
_symmetry_group_IT_number 64
_symmetry_cell_setting 'orthorhombic'
loop_
_space_group_symop_operation_xyz
x,y,z
-x,1/2-y,1/2+z
x,-y,-z
-x,1/2+y,1/2-z
-x,-y,-z
x,1/2+y,1/2-z
-x,y,z
x,1/2-y,1/2+z
1/2+x,1/2+y,z
1/2-x,-y,1/2+z
1/2+x,1/2-y,-z
1/2-x,y,1/2-z
1/2-x,1/2-y,-z
1/2+x,y,1/2-z
1/2-x,1/2+y,z
1/2+x,-y,1/2+z
loop_
_atom_site_type_symbol
_atom_site_label
_atom_site_fract_x
_atom_site_fract_y
_atom_site_fract_z
Si Si1 0.500000 0.289260 0.727156
Si Si2 0.741025 0.566499 0.398187
Si Si3 0.571377 0.564820 0.693762
Si Si4 0.901775 0.905864 0.615345
Si Si5 0.122749 0.797463 0.206407
Si Si6 0.310561 0.787368 0.563359
O O1 0.443798 0.347734 0.690878
O O2 0.445295 0.228969 0.751574
O O3 0.742259 0.500000 0.500000
O O4 0.750000 0.535598 0.250000
O O5 0.672761 0.605403 0.402198
O O6 0.792611 0.629129 0.416362
O O7 0.500000 0.569803 0.746470
O O8 0.572441 0.586859 0.536294
O O9 0.591112 0.481710 0.691531
O O10 0.620247 0.617019 0.767894
O O11 0.171055 0.754962 0.301689
O O12 0.135175 0.782329 0.049567
O O13 0.250000 0.750000 0.500000
#
# Coordination Sequence:
#
# PCOD9481722 Si02
#       6
#     8  16  16  16  16  16
#     4  12  22  41  68 108 141 184 226 304 359 429
#     4  12  27  46  70 106 144 192 245 299 363 432
#     4  11  20  41  66 110 132 177 243 296 352 427
#     4  11  22  40  74 100 136 179 244 297 348 428
#     4  12  27  44  75 106 150 188 240 295 373 435
#     4  12  27  48  71 105 148 196 237 299 356 434
#
# _framework density 22.412853999999999
#
# number of rings (size 3 to 8) (size 9 to 14) (size 15 to 20)
#    0.000    0.364    4.545    6.545    2.545    0.727 
#    0.000    0.000    0.000    1.091    0.000    0.000 
#    0.000    0.000    0.000    0.000    0.000    0.000 
#
# Total GULP energy -245199.560994 kJ/mol
# GULP energy per Si atom -5572.717295 kJ/mol
# Density = 2.236184 g / cm^3
# Si number density = 22.412854 Si / 1000 Ang^3
#
#
#
# Elastic Constant Matrix: (Units=GPa)
#
#
# Indices 1 2 3 4 5 6 
#
# 1 90.7305 1.3662 6.6384 0.0000 0.0000 0.0000
# 2 1.3662 97.8240 23.6709 0.0000 0.0000 0.0000
# 3 6.6384 23.6709 78.2804 0.0000 0.0000 0.0000
# 4 0.0000 0.0000 0.0000 25.2091 0.0000 0.0000
# 5 0.0000 0.0000 0.0000 0.0000 33.1350 0.0000
# 6 0.0000 0.0000 0.0000 0.0000 0.0000 34.0286
#
#
#
# Elastic Compliance Matrix: (Units=1/GPa)
#
#
# Indices 1 2 3 4 5 6 
#
# 1 0.011091 0.000078 -0.000964 0.000000 0.000000 0.000000
# 2 0.000078 0.011030 -0.003342 0.000000 0.000000 0.000000
# 3 -0.000964 -0.003342 0.013867 0.000000 0.000000 0.000000
# 4 0.000000 0.000000 0.000000 0.039668 0.000000 0.000000
# 5 0.000000 0.000000 0.000000 0.000000 0.030180 0.000000
# 6 0.000000 0.000000 0.000000 0.000000 0.000000 0.029387
#
#
# Mechanical properties :
#
#
# Convention : Reuss Voigt Hill
#
# Bulk Modulus (GPa) = 36.32094 36.68735 36.50414
# Shear Modulus (GPa) = 32.71056 34.15184 33.43120
#
# Velocity S-wave (km/s) = 3.82443 3.90777 3.86632
# Velocity P-wave (km/s) = 5.97848 6.06344 6.02111
#
# Compressibility (1/GPa) = 0.02753233
#
# Stress axis : x y z
#
# Youngs Moduli (GPa) = 90.16305 90.66171 72.11401
#
# Poissons Ratio (x) = -0.00711 0.06954
# Poissons Ratio (y) = -0.00707 0.24100
# Poissons Ratio (z) = 0.08694 0.30299
#
# Static dielectric constant tensor:
#      x y z
#    x 1.838630 0.000000 0.000000 
#    y 0.000000 1.825850 0.000000 
#    z 0.000000 0.000000 1.821980 
# 
# From -- ./inp_files/17140.got.cif
#   From: 2010.05.17/outbox.cif.g08.bks.cpg/sg64_9_cif.got.tgz:17140.got - 2010.06.03 16:29:19.
