data_PCOD9481902
_publ_section_title
;
Structure prediction by ZEFSAII (Michael W. Deem and Ramdas Pophale) SiO2 
 PCOD9481902
Probable space group: C M C A
;
_chemical_formula_sum "Si O2"
_cell_formula_units_Z 104
_cell_length_a 24.263797
_cell_length_b 9.666678
_cell_length_c 21.385358
_cell_angle_alpha 90.000000
_cell_angle_beta 90.000000
_cell_angle_gamma 90.000000
_cell_volume 5015.942405
_symmetry_space_group_name_H-M "C M C A"
_symmetry_group_IT_number 64
_symmetry_cell_setting 'orthorhombic'
loop_
_space_group_symop_operation_xyz
x,y,z
-x,1/2-y,1/2+z
x,-y,-z
-x,1/2+y,1/2-z
-x,-y,-z
x,1/2+y,1/2-z
-x,y,z
x,1/2-y,1/2+z
1/2+x,1/2+y,z
1/2-x,-y,1/2+z
1/2+x,1/2-y,-z
1/2-x,y,1/2-z
1/2-x,1/2-y,-z
1/2+x,y,1/2-z
1/2-x,1/2+y,z
1/2+x,-y,1/2+z
loop_
_atom_site_type_symbol
_atom_site_label
_atom_site_fract_x
_atom_site_fract_y
_atom_site_fract_z
Si Si1 0.750765 0.704097 0.644784
Si Si2 0.711770 0.451119 0.570788
Si Si3 0.405855 0.030052 0.754217
Si Si4 0.500000 0.773149 0.429960
Si Si5 0.000000 0.959345 0.843221
Si Si6 0.664723 0.780275 0.745277
Si Si7 0.000000 0.200144 0.567957
Si Si8 0.082377 0.967058 0.603217
O O1 0.743472 0.550446 0.619541
O O2 0.694653 0.744954 0.680538
O O3 0.797030 0.733950 0.697081
O O4 0.765469 0.799854 0.586069
O O5 0.720329 0.500000 0.500000
O O6 0.646630 0.460059 0.586431
O O7 0.447337 0.982298 0.701073
O O8 0.390770 0.190799 0.749382
O O9 0.426520 0.996545 0.823445
O O10 0.349693 0.941147 0.748223
O O11 0.500000 0.917457 0.394080
O O12 0.500000 0.786532 0.504417
O O13 0.552216 0.676474 0.412475
O O14 0.000000 0.809136 0.875448
O O15 0.051915 0.095162 0.569464
#
# Coordination Sequence:
#
# PCOD9481902 Si02
#       8
#    16  16  16   8   8  16   8  16
#     4  11  23  42  66  94 123 177 216 264 322 371
#     4  12  24  42  65  97 132 170 219 265 311 375
#     4  12  23  41  64 100 130 157 208 275 319 380
#     4  11  24  45  66  93 132 173 212 252 310 399
#     4  12  27  38  68 104 131 158 204 268 338 362
#     4  11  22  41  68  90 132 165 212 267 322 380
#     4  11  24  45  66  93 132 173 212 252 310 399
#     4  11  22  43  70  93 125 173 220 255 316 378
#
# _framework density 20.733889999999999
#
# number of rings (size 3 to 8) (size 9 to 14) (size 15 to 20)
#    0.000    0.615    3.077    6.231    0.000    4.308 
#    0.000    0.000    0.000    0.000    0.000    0.000 
#    0.000    0.000    0.000    0.000    0.000    0.000 
#
# Total GULP energy -290906.010227 kJ/mol
# GULP energy per Si atom -5594.346351 kJ/mol
# Density = 2.068670 g / cm^3
# Si number density = 20.733890 Si / 1000 Ang^3
#
#
#
# Elastic Constant Matrix: (Units=GPa)
#
#
# Indices 1 2 3 4 5 6 
#
# 1 54.7947 15.5122 6.6990 0.0000 0.0000 0.0000
# 2 15.5122 74.6916 -5.6063 0.0000 0.0000 0.0000
# 3 6.6990 -5.6063 75.7386 0.0000 0.0000 0.0000
# 4 0.0000 0.0000 0.0000 40.9889 0.0000 0.0000
# 5 0.0000 0.0000 0.0000 0.0000 16.7345 0.0000
# 6 0.0000 0.0000 0.0000 0.0000 0.0000 17.1694
#
#
#
# Elastic Compliance Matrix: (Units=1/GPa)
#
#
# Indices 1 2 3 4 5 6 
#
# 1 0.019704 -0.004247 -0.002057 0.000000 0.000000 0.000000
# 2 -0.004247 0.014378 0.001440 0.000000 0.000000 0.000000
# 3 -0.002057 0.001440 0.013492 0.000000 0.000000 0.000000
# 4 0.000000 0.000000 0.000000 0.024397 0.000000 0.000000
# 5 0.000000 0.000000 0.000000 0.000000 0.059757 0.000000
# 6 0.000000 0.000000 0.000000 0.000000 0.000000 0.058243
#
#
# Mechanical properties :
#
#
# Convention : Reuss Voigt Hill
#
# Bulk Modulus (GPa) = 26.42256 26.49275 26.45765
# Shear Modulus (GPa) = 23.55007 27.55322 25.55165
#
# Velocity S-wave (km/s) = 3.37386 3.64936 3.51431
# Velocity P-wave (km/s) = 5.28664 5.52832 5.40883
#
# Compressibility (1/GPa) = 0.03784644
#
# Stress axis : x y z
#
# Youngs Moduli (GPa) = 50.75208 69.54877 74.11883
#
# Poissons Ratio (x) = 0.29534 0.15247
# Poissons Ratio (y) = 0.21552 -0.10672
# Poissons Ratio (z) = 0.10440 -0.10014
#
# Static dielectric constant tensor:
#      x y z
#    x 1.754340 0.000000 0.000000 
#    y 0.000000 1.685010 0.000000 
#    z 0.000000 0.000000 1.730790 
# 
# From -- ./inp_files/41897.got.cif
#   From: 2010.05.17/outbox.cif.g08.bks.cpg/sg64_21_cif.got.tgz:41897.got - 2010.06.03 16:29:19.
