data_PCOD9481942
_publ_section_title
;
Structure prediction by ZEFSAII (Michael W. Deem and Ramdas Pophale) SiO2 
 PCOD9481942
Probable space group: C M C A
;
_chemical_formula_sum "Si O2"
_cell_formula_units_Z 72
_cell_length_a 18.850678
_cell_length_b 18.046496
_cell_length_c 8.306220
_cell_angle_alpha 90.000000
_cell_angle_beta 90.000000
_cell_angle_gamma 90.000000
_cell_volume 2825.682060
_symmetry_space_group_name_H-M "C M C A"
_symmetry_group_IT_number 64
_symmetry_cell_setting 'orthorhombic'
loop_
_space_group_symop_operation_xyz
x,y,z
-x,1/2-y,1/2+z
x,-y,-z
-x,1/2+y,1/2-z
-x,-y,-z
x,1/2+y,1/2-z
-x,y,z
x,1/2-y,1/2+z
1/2+x,1/2+y,z
1/2-x,-y,1/2+z
1/2+x,1/2-y,-z
1/2-x,y,1/2-z
1/2-x,1/2-y,-z
1/2+x,y,1/2-z
1/2-x,1/2+y,z
1/2+x,-y,1/2+z
loop_
_atom_site_type_symbol
_atom_site_label
_atom_site_fract_x
_atom_site_fract_y
_atom_site_fract_z
Si Si1 0.000000 0.940190 0.806043
Si Si2 0.854470 0.003148 0.692810
Si Si3 0.500000 0.174644 0.571990
Si Si4 0.000000 0.662788 0.019277
Si Si5 0.750000 0.878191 0.750000
Si Si6 0.750000 0.250000 0.000000
Si Si7 0.129857 0.160634 0.690516
O O1 0.000000 0.864547 0.700087
O O2 0.066149 0.988668 0.751626
O O3 0.000000 0.095784 0.017306
O O4 0.832136 0.085482 0.746600
O O5 0.843975 0.000000 0.500000
O O6 0.814105 0.934789 0.771914
O O7 0.500000 0.250847 0.474329
O O8 0.425974 0.183158 0.670318
O O9 0.926155 0.635014 0.946052
O O10 0.759979 0.827067 0.595046
O O11 0.684266 0.223116 0.868092
#
# Coordination Sequence:
#
# PCOD9481942 Si02
#       7
#     8  16   8   8   8   8  16
#     4  12  23  44  88 113 155 211 274 344 433 500
#     4  12  25  52  78 116 156 218 272 342 419 514
#     4  11  28  44  75 132 160 201 276 360 412 505
#     4  11  22  45  77 111 155 208 263 339 414 497
#     4  12  30  50  80 116 160 220 278 344 428 498
#     4  12  28  50  76 116 160 218 280 340 418 514
#     4  11  26  49  78 110 164 211 269 341 425 498
#
# _framework density 25.480574000000001
#
# number of rings (size 3 to 8) (size 9 to 14) (size 15 to 20)
#    0.000    0.444    4.444    3.000    9.333    2.667 
#    4.000    0.000    0.000    0.000    0.000    0.000 
#    0.000    0.000    0.000    0.000    0.000    0.000 
#
# Total GULP energy -200444.223763 kJ/mol
# GULP energy per Si atom -5567.895105 kJ/mol
# Density = 2.542258 g / cm^3
# Si number density = 25.480574 Si / 1000 Ang^3
#
#
#
# Elastic Constant Matrix: (Units=GPa)
#
#
# Indices 1 2 3 4 5 6 
#
# 1 135.7240 34.3474 12.5989 0.0000 0.0000 0.0000
# 2 34.3474 112.2339 10.8292 0.0000 0.0000 0.0000
# 3 12.5989 10.8292 55.5781 0.0000 0.0000 0.0000
# 4 0.0000 0.0000 0.0000 40.0496 0.0000 0.0000
# 5 0.0000 0.0000 0.0000 0.0000 11.1873 0.0000
# 6 0.0000 0.0000 0.0000 0.0000 0.0000 19.2535
#
#
#
# Elastic Compliance Matrix: (Units=1/GPa)
#
#
# Indices 1 2 3 4 5 6 
#
# 1 0.008089 -0.002342 -0.001377 0.000000 0.000000 0.000000
# 2 -0.002342 0.009759 -0.001371 0.000000 0.000000 0.000000
# 3 -0.001377 -0.001371 0.018572 0.000000 0.000000 0.000000
# 4 0.000000 0.000000 0.000000 0.024969 0.000000 0.000000
# 5 0.000000 0.000000 0.000000 0.000000 0.089387 0.000000
# 6 0.000000 0.000000 0.000000 0.000000 0.000000 0.051939
#
#
# Mechanical properties :
#
#
# Convention : Reuss Voigt Hill
#
# Bulk Modulus (GPa) = 38.11087 46.56523 42.33805
# Shear Modulus (GPa) = 22.55904 30.48213 26.52058
#
# Velocity S-wave (km/s) = 2.97870 3.46249 3.22967
# Velocity P-wave (km/s) = 5.17875 5.85659 5.52807
#
# Compressibility (1/GPa) = 0.02623923
#
# Stress axis : x y z
#
# Youngs Moduli (GPa) = 123.63170 102.46868 53.84476
#
# Poissons Ratio (x) = 0.24003 0.07415
# Poissons Ratio (y) = 0.28961 0.07379
# Poissons Ratio (z) = 0.17026 0.14043
#
# Static dielectric constant tensor:
#      x y z
#    x 2.459800 0.000000 0.000000 
#    y 0.000000 1.200520 0.000000 
#    z 0.000000 0.000000 2.086470 
# 
# From -- ./inp_files/15841.got.cif
#   From: 2010.05.17/outbox.cif.g08.bks.cpg/sg64_8_cif.got.tgz:15841.got - 2010.06.03 16:29:19.
