data_PCOD9481252
_publ_section_title
;
Structure prediction by ZEFSAII (Michael W. Deem and Ramdas Pophale) SiO2 
 PCOD9481252
Probable space group: C M C A
;
_chemical_formula_sum "Si O2"
_cell_formula_units_Z 96
_cell_length_a 20.503329
_cell_length_b 8.696261
_cell_length_c 26.631687
_cell_angle_alpha 90.000000
_cell_angle_beta 90.000000
_cell_angle_gamma 90.000000
_cell_volume 4748.491054
_symmetry_space_group_name_H-M "C M C A"
_symmetry_group_IT_number 64
_symmetry_cell_setting 'orthorhombic'
loop_
_space_group_symop_operation_xyz
x,y,z
-x,1/2-y,1/2+z
x,-y,-z
-x,1/2+y,1/2-z
-x,-y,-z
x,1/2+y,1/2-z
-x,y,z
x,1/2-y,1/2+z
1/2+x,1/2+y,z
1/2-x,-y,1/2+z
1/2+x,1/2-y,-z
1/2-x,y,1/2-z
1/2-x,1/2-y,-z
1/2+x,y,1/2-z
1/2-x,1/2+y,z
1/2+x,-y,1/2+z
loop_
_atom_site_type_symbol
_atom_site_label
_atom_site_fract_x
_atom_site_fract_y
_atom_site_fract_z
Si Si1 0.335252 0.865381 0.702734
Si Si2 0.928744 0.069154 0.556006
Si Si3 0.690573 0.728897 0.802930
Si Si4 0.685068 0.432676 0.055540
Si Si5 0.807442 0.611875 0.092868
Si Si6 0.924410 0.611241 0.393587
O O1 0.351311 0.813499 0.759552
O O2 0.268051 0.768920 0.697701
O O3 0.386345 0.838354 0.657579
O O4 0.319351 0.046934 0.701807
O O5 0.923361 0.251511 0.565211
O O6 0.000000 0.025367 0.577447
O O7 0.927490 0.000000 0.500000
O O8 0.866187 0.000185 0.581939
O O9 0.674490 0.801289 0.856236
O O10 0.740619 0.515955 0.089451
O O11 0.697081 0.251311 0.053547
O O12 0.616432 0.473800 0.081457
O O13 0.688314 0.500000 0.000000
O O14 0.000000 0.575145 0.382859
#
# Coordination Sequence:
#
# PCOD9481252 Si02
#       6
#    16  16  16  16  16  16
#     4  11  23  41  64 100 120 165 212 262 328 382
#     4  10  23  42  64  90 125 172 215 255 315 385
#     4  11  22  38  67  92 123 158 207 263 318 384
#     4  12  24  39  64  95 130 169 214 268 323 382
#     4  12  22  39  63  97 124 162 209 270 318 379
#     4  11  24  43  64  90 133 172 213 271 324 386
#
# _framework density 20.216950000000001
#
# number of rings (size 3 to 8) (size 9 to 14) (size 15 to 20)
#    0.000    0.833    3.333    5.000    4.667    1.000 
#    0.000    1.667    0.000    0.000    0.000    0.000 
#    0.000    0.000    0.000    0.000    0.000    0.000 
#
# Total GULP energy -267904.431180 kJ/mol
# GULP energy per Si atom -5581.342316 kJ/mol
# Density = 2.017094 g / cm^3
# Si number density = 20.216950 Si / 1000 Ang^3
#
#
#
# Elastic Constant Matrix: (Units=GPa)
#
#
# Indices 1 2 3 4 5 6 
#
# 1 110.3535 48.1257 15.2664 0.0000 0.0000 0.0000
# 2 48.1257 67.1884 -11.5504 0.0000 0.0000 0.0000
# 3 15.2664 -11.5504 59.8755 0.0000 0.0000 0.0000
# 4 0.0000 0.0000 0.0000 30.3442 0.0000 0.0000
# 5 0.0000 0.0000 0.0000 0.0000 -0.6841 0.0000
# 6 0.0000 0.0000 0.0000 0.0000 0.0000 28.0056
#
#
#
# Elastic Compliance Matrix: (Units=1/GPa)
#
#
# Indices 1 2 3 4 5 6 
#
# 1 0.015081 -0.011856 -0.006132 0.000000 0.000000 0.000000
# 2 -0.011856 0.024715 0.007791 0.000000 0.000000 0.000000
# 3 -0.006132 0.007791 0.019768 0.000000 0.000000 0.000000
# 4 0.000000 0.000000 0.000000 0.032955 0.000000 0.000000
# 5 0.000000 0.000000 0.000000 0.000000 -1.461871 0.000000
# 6 0.000000 0.000000 0.000000 0.000000 0.000000 0.035707
#
#
# Mechanical properties :
#
#
# Convention : Reuss Voigt Hill
#
# Bulk Modulus (GPa) = 25.53100 37.90011 31.71555
# Shear Modulus (GPa) = -3.84558 23.90484 10.02963
#
# Velocity S-wave (km/s) = -1.38068 3.44236 2.22975
# Velocity P-wave (km/s) = 3.18028 5.88109 4.72765
#
# Compressibility (1/GPa) = 0.03916807
#
# Stress axis : x y z
#
# Youngs Moduli (GPa) = 66.31006 40.46099 50.58748
#
# Poissons Ratio (x) = 0.47971 0.31021
# Poissons Ratio (y) = 0.78618 -0.39411
# Poissons Ratio (z) = 0.40663 -0.31522
#
# Static dielectric constant tensor:
#      x y z
#    x 1.710270 0.000000 0.000000 
#    y 0.000000 1.726290 0.000000 
#    z 0.000000 0.000000 12.236040 
# 
# From -- ./inp_files/50659.got.cif
#   From: 2010.05.17/outbox.cif.g08.bks.cpg/sg64_26_cif.got.tgz:50659.got - 2010.06.03 16:29:19.
