data_PCOD9481328
_publ_section_title
;
Structure prediction by ZEFSAII (Michael W. Deem and Ramdas Pophale) SiO2 
 PCOD9481328
Probable space group: C M C A
;
_chemical_formula_sum "Si O2"
_cell_formula_units_Z 88
_cell_length_a 13.869139
_cell_length_b 13.288869
_cell_length_c 19.428401
_cell_angle_alpha 90.000000
_cell_angle_beta 90.000000
_cell_angle_gamma 90.000000
_cell_volume 3580.754775
_symmetry_space_group_name_H-M "C M C A"
_symmetry_group_IT_number 64
_symmetry_cell_setting 'orthorhombic'
loop_
_space_group_symop_operation_xyz
x,y,z
-x,1/2-y,1/2+z
x,-y,-z
-x,1/2+y,1/2-z
-x,-y,-z
x,1/2+y,1/2-z
-x,y,z
x,1/2-y,1/2+z
1/2+x,1/2+y,z
1/2-x,-y,1/2+z
1/2+x,1/2-y,-z
1/2-x,y,1/2-z
1/2-x,1/2-y,-z
1/2+x,y,1/2-z
1/2-x,1/2+y,z
1/2+x,-y,1/2+z
loop_
_atom_site_type_symbol
_atom_site_label
_atom_site_fract_x
_atom_site_fract_y
_atom_site_fract_z
Si Si1 0.146355 0.500000 0.000000
Si Si2 0.392088 0.560335 0.064202
Si Si3 0.288821 0.224226 0.677250
Si Si4 0.384166 0.012516 0.710096
Si Si5 0.115517 0.575139 0.142269
Si Si6 0.159309 0.218455 0.547177
O O1 0.173222 0.529618 0.078157
O O2 0.111670 0.384282 0.020162
O O3 0.500000 0.515153 0.067860
O O4 0.356478 0.552297 0.142791
O O5 0.397961 0.677474 0.046763
O O6 0.342212 0.500000 0.000000
O O7 0.250000 0.263099 0.750000
O O8 0.344737 0.122433 0.694147
O O9 0.360202 0.307226 0.646392
O O10 0.203134 0.203430 0.623473
O O11 0.500000 0.013003 0.714242
O O12 0.354212 0.973765 0.785170
O O13 0.000000 0.558949 0.131188
O O14 0.250000 0.250000 0.500000
#
# Coordination Sequence:
#
# PCOD9481328 Si02
#       6
#     8  16  16  16  16  16
#     4  12  27  46  66 100 139 188 232 280 347 406
#     4  10  23  43  71 101 134 179 231 281 337 404
#     4  12  25  42  69 101 135 181 224 284 346 414
#     4  10  23  44  70 100 136 177 230 287 337 408
#     4  11  25  45  68  97 135 180 231 283 341 408
#     4  12  26  42  67  99 139 178 223 284 334 407
#
# _framework density 24.575824000000001
#
# number of rings (size 3 to 8) (size 9 to 14) (size 15 to 20)
#    0.000    0.909    1.818    4.091    3.818    5.091 
#    0.000    4.545    0.000    0.000    0.000    0.000 
#    0.000    0.000    0.000    0.000    0.000    0.000 
#
# Total GULP energy -245693.308501 kJ/mol
# GULP energy per Si atom -5583.938830 kJ/mol
# Density = 2.451989 g / cm^3
# Si number density = 24.575824 Si / 1000 Ang^3
#
#
#
# Elastic Constant Matrix: (Units=GPa)
#
#
# Indices 1 2 3 4 5 6 
#
# 1 78.2108 13.0031 55.9622 0.0000 0.0000 0.0000
# 2 13.0031 185.6689 59.8346 0.0000 0.0000 0.0000
# 3 55.9622 59.8346 213.1366 0.0000 0.0000 0.0000
# 4 0.0000 0.0000 0.0000 54.7315 0.0000 0.0000
# 5 0.0000 0.0000 0.0000 0.0000 5.4868 0.0000
# 6 0.0000 0.0000 0.0000 0.0000 0.0000 25.1035
#
#
#
# Elastic Compliance Matrix: (Units=1/GPa)
#
#
# Indices 1 2 3 4 5 6 
#
# 1 0.015755 0.000253 -0.004207 0.000000 0.000000 0.000000
# 2 0.000253 0.005926 -0.001730 0.000000 0.000000 0.000000
# 3 -0.004207 -0.001730 0.006282 0.000000 0.000000 0.000000
# 4 0.000000 0.000000 0.000000 0.018271 0.000000 0.000000
# 5 0.000000 0.000000 0.000000 0.000000 0.182254 0.000000
# 6 0.000000 0.000000 0.000000 0.000000 0.000000 0.039835
#
#
# Mechanical properties :
#
#
# Convention : Reuss Voigt Hill
#
# Bulk Modulus (GPa) = 60.26676 81.62401 70.94539
# Shear Modulus (GPa) = 17.53011 40.27879 28.90445
#
# Velocity S-wave (km/s) = 2.67368 4.05280 3.43320
# Velocity P-wave (km/s) = 5.84016 7.42869 6.68180
#
# Compressibility (1/GPa) = 0.01659289
#
# Stress axis : x y z
#
# Youngs Moduli (GPa) = 63.47372 168.75588 159.17990
#
# Poissons Ratio (x) = -0.04262 0.66975
# Poissons Ratio (y) = -0.01603 0.27536
# Poissons Ratio (z) = 0.26707 0.29193
#
# Static dielectric constant tensor:
#      x y z
#    x 1.866400 0.000000 0.000000 
#    y 0.000000 1.901960 0.000000 
#    z 0.000000 0.000000 1.940610 
# 
# From -- ./inp_files/40050.got.cif
#   From: 2010.05.17/outbox.cif.g08.bks.cpg/sg64_21_cif.got.tgz:40050.got - 2010.06.03 16:29:19.
