data_PCOD9481881
_publ_section_title
;
Structure prediction by ZEFSAII (Michael W. Deem and Ramdas Pophale) SiO2 
 PCOD9481881
Probable space group: C M C A
;
_chemical_formula_sum "Si O2"
_cell_formula_units_Z 104
_cell_length_a 22.937016
_cell_length_b 16.965219
_cell_length_c 11.049970
_cell_angle_alpha 90.000000
_cell_angle_beta 90.000000
_cell_angle_gamma 90.000000
_cell_volume 4299.891397
_symmetry_space_group_name_H-M "C M C A"
_symmetry_group_IT_number 64
_symmetry_cell_setting 'orthorhombic'
loop_
_space_group_symop_operation_xyz
x,y,z
-x,1/2-y,1/2+z
x,-y,-z
-x,1/2+y,1/2-z
-x,-y,-z
x,1/2+y,1/2-z
-x,y,z
x,1/2-y,1/2+z
1/2+x,1/2+y,z
1/2-x,-y,1/2+z
1/2+x,1/2-y,-z
1/2-x,y,1/2-z
1/2-x,1/2-y,-z
1/2+x,y,1/2-z
1/2-x,1/2+y,z
1/2+x,-y,1/2+z
loop_
_atom_site_type_symbol
_atom_site_label
_atom_site_fract_x
_atom_site_fract_y
_atom_site_fract_z
Si Si1 0.787190 0.913405 0.975222
Si Si2 0.563832 0.511601 0.355129
Si Si3 0.250000 0.664479 0.250000
Si Si4 0.563150 0.718750 0.542576
Si Si5 0.308677 0.788457 0.347310
Si Si6 0.334268 0.603906 0.623405
Si Si7 0.085887 0.808329 0.714896
O O1 0.821930 0.841343 0.037495
O O2 0.721508 0.912233 0.037525
O O3 0.783583 0.898982 0.833756
O O4 0.811890 0.000000 0.000000
O O5 0.560516 0.500000 0.500000
O O6 0.500000 0.484825 0.306140
O O7 0.624492 0.467000 0.330385
O O8 0.570641 0.602325 0.315122
O O9 0.252527 0.733516 0.357454
O O10 0.500000 0.677841 0.559642
O O11 0.618709 0.661827 0.559053
O O12 0.563209 0.742912 0.401113
O O13 0.566778 0.780749 0.652514
O O14 0.312132 0.852720 0.242440
O O15 0.346751 0.714123 0.299280
#
# Coordination Sequence:
#
# PCOD9481881 Si02
#       7
#    16  16   8  16  16  16  16
#     4  12  28  45  66  99 139 179 230 281 341 411
#     4  11  22  39  67 102 134 169 228 288 336 392
#     4  12  26  42  74  90 136 180 228 284 338 394
#     4  11  22  41  66  97 135 172 220 279 338 399
#     4  11  26  46  67  99 137 179 228 277 341 412
#     4  11  23  42  67  97 136 173 224 276 339 402
#     4  11  25  41  69 101 132 175 227 277 339 407
#
# _framework density 24.186658000000001
#
# number of rings (size 3 to 8) (size 9 to 14) (size 15 to 20)
#    0.000    0.769    3.077    3.692    8.615    0.000 
#    0.000    0.000    0.000    0.000    0.000    5.385 
#    0.000    0.000    0.000    0.000    0.000    0.000 
#
# Total GULP energy -289504.697862 kJ/mol
# GULP energy per Si atom -5567.398036 kJ/mol
# Density = 2.413161 g / cm^3
# Si number density = 24.186658 Si / 1000 Ang^3
#
#
#
# Elastic Constant Matrix: (Units=GPa)
#
#
# Indices 1 2 3 4 5 6 
#
# 1 57.9726 14.0159 23.5508 0.0000 0.0000 0.0000
# 2 14.0159 109.4513 34.5297 0.0000 0.0000 0.0000
# 3 23.5508 34.5297 108.3281 0.0000 0.0000 0.0000
# 4 0.0000 0.0000 0.0000 44.7116 0.0000 0.0000
# 5 0.0000 0.0000 0.0000 0.0000 -3.2124 0.0000
# 6 0.0000 0.0000 0.0000 0.0000 0.0000 19.5010
#
#
#
# Elastic Compliance Matrix: (Units=1/GPa)
#
#
# Indices 1 2 3 4 5 6 
#
# 1 0.019076 -0.001261 -0.003745 0.000000 0.000000 0.000000
# 2 -0.001261 0.010241 -0.002990 0.000000 0.000000 0.000000
# 3 -0.003745 -0.002990 0.010999 0.000000 0.000000 0.000000
# 4 0.000000 0.000000 0.000000 0.022366 0.000000 0.000000
# 5 0.000000 0.000000 0.000000 0.000000 -0.311298 0.000000
# 6 0.000000 0.000000 0.000000 0.000000 0.000000 0.051279
#
#
# Mechanical properties :
#
#
# Convention : Reuss Voigt Hill
#
# Bulk Modulus (GPa) = 41.11415 46.66054 43.88734
# Shear Modulus (GPa) = -28.86224 25.77709 -1.54258
#
# Velocity S-wave (km/s) = -3.45818 3.26813 -0.79948
# Velocity P-wave (km/s) = 1.04413 5.79436 4.16322
#
# Compressibility (1/GPa) = 0.02432253
#
# Stress axis : x y z
#
# Youngs Moduli (GPa) = 52.42227 97.64326 90.92108
#
# Poissons Ratio (x) = 0.12316 0.34051
# Poissons Ratio (y) = 0.06612 0.27188
# Poissons Ratio (z) = 0.19633 0.29198
#
# Static dielectric constant tensor:
#      x y z
#    x 1.771270 0.000000 0.000000 
#    y 0.000000 1.968700 0.000000 
#    z 0.000000 0.000000 1.996930 
# 
# From -- ./inp_files/19224.got.cif
#   From: 2010.05.17/outbox.cif.g08.bks.cpg/sg64_10_cif.got.tgz:19224.got - 2010.06.03 16:29:19.
