data_PCOD9481149
_publ_section_title
;
Structure prediction by ZEFSAII (Michael W. Deem and Ramdas Pophale) SiO2 
 PCOD9481149
Probable space group: C M C A
;
_chemical_formula_sum "Si O2"
_cell_formula_units_Z 112
_cell_length_a 24.315923
_cell_length_b 14.321888
_cell_length_c 16.181548
_cell_angle_alpha 90.000000
_cell_angle_beta 90.000000
_cell_angle_gamma 90.000000
_cell_volume 5635.222891
_symmetry_space_group_name_H-M "C M C A"
_symmetry_group_IT_number 64
_symmetry_cell_setting 'orthorhombic'
loop_
_space_group_symop_operation_xyz
x,y,z
-x,1/2-y,1/2+z
x,-y,-z
-x,1/2+y,1/2-z
-x,-y,-z
x,1/2+y,1/2-z
-x,y,z
x,1/2-y,1/2+z
1/2+x,1/2+y,z
1/2-x,-y,1/2+z
1/2+x,1/2-y,-z
1/2-x,y,1/2-z
1/2-x,1/2-y,-z
1/2+x,y,1/2-z
1/2-x,1/2+y,z
1/2+x,-y,1/2+z
loop_
_atom_site_type_symbol
_atom_site_label
_atom_site_fract_x
_atom_site_fract_y
_atom_site_fract_z
Si Si1 0.313170 0.529816 0.231774
Si Si2 0.061592 0.609728 0.976737
Si Si3 0.163755 0.897405 0.361699
Si Si4 0.270175 0.678065 0.932752
Si Si5 0.563043 0.745942 0.870882
Si Si6 0.373549 0.935173 0.426736
Si Si7 0.329353 0.763471 0.772736
O O1 0.250000 0.497332 0.250000
O O2 0.343792 0.495114 0.314784
O O3 0.344797 0.486834 0.152425
O O4 0.312050 0.641048 0.229640
O O5 0.111174 0.628492 0.914954
O O6 0.000000 0.624113 0.941851
O O7 0.065664 0.500000 0.000000
O O8 0.066998 0.679813 0.054134
O O9 0.219765 0.890999 0.413525
O O10 0.171862 0.821700 0.290041
O O11 0.322441 0.621753 0.965085
O O12 0.292149 0.732874 0.851202
O O13 0.250000 0.750000 0.000000
O O14 0.500000 0.744926 0.842363
O O15 0.582455 0.642095 0.898206
O O16 0.608311 0.774925 0.804166
O O17 0.395425 0.000000 0.500000
#
# Coordination Sequence:
#
# PCOD9481149 Si02
#       7
#    16  16  16  16  16  16  16
#     4  12  23  41  62  92 134 167 200 258 319 374
#     4  10  23  42  66  93 122 163 217 270 318 378
#     4  12  21  40  62  91 128 161 208 260 319 372
#     4  11  23  39  61  92 129 169 209 255 311 382
#     4  10  22  46  67  88 128 167 210 268 321 373
#     4  11  25  41  61  94 126 169 216 255 311 389
#     4  11  24  39  63  95 124 168 208 260 316 373
#
# _framework density 19.87499
#
# number of rings (size 3 to 8) (size 9 to 14) (size 15 to 20)
#    0.000    1.000    4.286    3.857    6.000    1.429 
#    0.000    0.714    0.000    0.000    0.000    0.000 
#    0.000    0.000    0.000    0.000    0.000    0.000 
#
# Total GULP energy -312741.501007 kJ/mol
# GULP energy per Si atom -5584.669661 kJ/mol
# Density = 1.982975 g / cm^3
# Si number density = 19.874990 Si / 1000 Ang^3
#
#
#
# Elastic Constant Matrix: (Units=GPa)
#
#
# Indices 1 2 3 4 5 6 
#
# 1 113.3706 -0.9011 18.3658 0.0000 0.0000 0.0000
# 2 -0.9011 76.3335 1.3784 0.0000 0.0000 0.0000
# 3 18.3658 1.3784 25.2199 0.0000 0.0000 0.0000
# 4 0.0000 0.0000 0.0000 27.0232 0.0000 0.0000
# 5 0.0000 0.0000 0.0000 0.0000 28.7295 0.0000
# 6 0.0000 0.0000 0.0000 0.0000 0.0000 18.0009
#
#
#
# Elastic Compliance Matrix: (Units=1/GPa)
#
#
# Indices 1 2 3 4 5 6 
#
# 1 0.010005 0.000250 -0.007300 0.000000 0.000000 0.000000
# 2 0.000250 0.013120 -0.000899 0.000000 0.000000 0.000000
# 3 -0.007300 -0.000899 0.045016 0.000000 0.000000 0.000000
# 4 0.000000 0.000000 0.000000 0.037005 0.000000 0.000000
# 5 0.000000 0.000000 0.000000 0.000000 0.034807 0.000000
# 6 0.000000 0.000000 0.000000 0.000000 0.000000 0.055553
#
#
# Mechanical properties :
#
#
# Convention : Reuss Voigt Hill
#
# Bulk Modulus (GPa) = 19.14118 28.06779 23.60449
# Shear Modulus (GPa) = 21.85137 27.82278 24.83707
#
# Velocity S-wave (km/s) = 3.31938 3.74557 3.53889
# Velocity P-wave (km/s) = 4.93383 5.73224 5.34796
#
# Compressibility (1/GPa) = 0.05224338
#
# Stress axis : x y z
#
# Youngs Moduli (GPa) = 99.94853 76.22190 22.21418
#
# Poissons Ratio (x) = -0.01905 0.16216
# Poissons Ratio (y) = -0.02498 0.01997
# Poissons Ratio (z) = 0.72959 0.06853
#
# Static dielectric constant tensor:
#      x y z
#    x 1.694980 0.000000 0.000000 
#    y 0.000000 1.680980 0.000000 
#    z 0.000000 0.000000 1.701750 
# 
# From -- ./inp_files/27383.got.cif
#   From: 2010.05.17/outbox.cif.g08.bks.cpg/sg64_14_cif.got.tgz:27383.got - 2010.06.03 16:29:19.
