data_PCOD9481398
_publ_section_title
;
Structure prediction by ZEFSAII (Michael W. Deem and Ramdas Pophale) SiO2 
 PCOD9481398
Probable space group: C M C A
;
_chemical_formula_sum "Si O2"
_cell_formula_units_Z 56
_cell_length_a 24.945765
_cell_length_b 8.889068
_cell_length_c 12.705462
_cell_angle_alpha 90.000000
_cell_angle_beta 90.000000
_cell_angle_gamma 90.000000
_cell_volume 2817.367607
_symmetry_space_group_name_H-M "C M C A"
_symmetry_group_IT_number 64
_symmetry_cell_setting 'orthorhombic'
loop_
_space_group_symop_operation_xyz
x,y,z
-x,1/2-y,1/2+z
x,-y,-z
-x,1/2+y,1/2-z
-x,-y,-z
x,1/2+y,1/2-z
-x,y,z
x,1/2-y,1/2+z
1/2+x,1/2+y,z
1/2-x,-y,1/2+z
1/2+x,1/2-y,-z
1/2-x,y,1/2-z
1/2-x,1/2-y,-z
1/2+x,y,1/2-z
1/2-x,1/2+y,z
1/2+x,-y,1/2+z
loop_
_atom_site_type_symbol
_atom_site_label
_atom_site_fract_x
_atom_site_fract_y
_atom_site_fract_z
Si Si1 0.500000 0.275064 0.399939
Si Si2 0.000000 0.947328 0.202954
Si Si3 0.792707 0.253845 0.902872
Si Si4 0.250000 0.996173 0.250000
Si Si5 0.910489 0.334464 0.450511
O O1 0.500000 0.418036 0.325866
O O2 0.448081 0.260228 0.472169
O O3 0.500000 0.121482 0.330058
O O4 0.947340 0.869350 0.151493
O O5 0.782767 0.397456 0.828913
O O6 0.783683 0.110727 0.826786
O O7 0.853875 0.244866 0.938061
O O8 0.750000 0.250000 0.000000
O O9 0.901040 0.500000 0.500000
#
# Coordination Sequence:
#
# PCOD9481398 Si02
#       5
#     8   8  16   8  16
#     4   9  19  37  58  82 108 147 187 229 287 335
#     4   9  19  35  56  80 110 143 185 231 276 341
#     4  11  22  40  60  85 119 153 193 243 287 344
#     4  10  24  38  58  88 114 154 198 232 296 348
#     4   9  19  36  57  80 111 149 185 229 286 338
#
# _framework density 19.876712000000001
#
# number of rings (size 3 to 8) (size 9 to 14) (size 15 to 20)
#    0.000    2.286    0.000    4.286    0.000    9.143 
#    0.000    5.714    0.000    0.000    0.000    0.000 
#    0.000    0.000    0.000    0.000    0.000    0.000 
#
# Total GULP energy -156355.412015 kJ/mol
# GULP energy per Si atom -5584.121858 kJ/mol
# Density = 1.983147 g / cm^3
# Si number density = 19.876712 Si / 1000 Ang^3
#
#
#
# Elastic Constant Matrix: (Units=GPa)
#
#
# Indices 1 2 3 4 5 6 
#
# 1 171.4796 48.3303 63.1433 0.0000 0.0000 0.0000
# 2 48.3303 59.5790 38.8672 0.0000 0.0000 0.0000
# 3 63.1433 38.8672 98.1879 0.0000 0.0000 0.0000
# 4 0.0000 0.0000 0.0000 26.9682 0.0000 0.0000
# 5 0.0000 0.0000 0.0000 0.0000 2.0763 0.0000
# 6 0.0000 0.0000 0.0000 0.0000 0.0000 5.8261
#
#
#
# Elastic Compliance Matrix: (Units=1/GPa)
#
#
# Indices 1 2 3 4 5 6 
#
# 1 0.008435 -0.004454 -0.003661 0.000000 0.000000 0.000000
# 2 -0.004454 0.024980 -0.007024 0.000000 0.000000 0.000000
# 3 -0.003661 -0.007024 0.015319 0.000000 0.000000 0.000000
# 4 0.000000 0.000000 0.000000 0.037081 0.000000 0.000000
# 5 0.000000 0.000000 0.000000 0.000000 0.481621 0.000000
# 6 0.000000 0.000000 0.000000 0.000000 0.000000 0.171642
#
#
# Mechanical properties :
#
#
# Convention : Reuss Voigt Hill
#
# Bulk Modulus (GPa) = 54.18332 69.99202 62.08767
# Shear Modulus (GPa) = 6.44738 18.90116 12.67427
#
# Velocity S-wave (km/s) = 1.80298 3.08704 2.52790
# Velocity P-wave (km/s) = 5.62612 6.92791 6.31067
#
# Compressibility (1/GPa) = 0.01845586
#
# Stress axis : x y z
#
# Youngs Moduli (GPa) = 118.55134 40.03278 65.27638
#
# Poissons Ratio (x) = 0.17831 0.23901
# Poissons Ratio (y) = 0.52803 0.45848
# Poissons Ratio (z) = 0.43407 0.28118
#
# Static dielectric constant tensor:
#      x y z
#    x 2.054470 0.000000 0.000000 
#    y 0.000000 1.711300 0.000000 
#    z 0.000000 0.000000 1.703230 
# 
# From -- ./inp_files/18867.got.cif
#   From: 2010.05.17/outbox.cif.g08.bks.cpg/sg64_10_cif.got.tgz:18867.got - 2010.06.03 16:29:19.
