data_PCOD9481760
_publ_section_title
;
Structure prediction by ZEFSAII (Michael W. Deem and Ramdas Pophale) SiO2 
 PCOD9481760
Probable space group: C M C A
;
_chemical_formula_sum "Si O2"
_cell_formula_units_Z 80
_cell_length_a 21.450796
_cell_length_b 14.099900
_cell_length_c 12.679259
_cell_angle_alpha 90.000000
_cell_angle_beta 90.000000
_cell_angle_gamma 90.000000
_cell_volume 3834.893597
_symmetry_space_group_name_H-M "C M C A"
_symmetry_group_IT_number 64
_symmetry_cell_setting 'orthorhombic'
loop_
_space_group_symop_operation_xyz
x,y,z
-x,1/2-y,1/2+z
x,-y,-z
-x,1/2+y,1/2-z
-x,-y,-z
x,1/2+y,1/2-z
-x,y,z
x,1/2-y,1/2+z
1/2+x,1/2+y,z
1/2-x,-y,1/2+z
1/2+x,1/2-y,-z
1/2-x,y,1/2-z
1/2-x,1/2-y,-z
1/2+x,y,1/2-z
1/2-x,1/2+y,z
1/2+x,-y,1/2+z
loop_
_atom_site_type_symbol
_atom_site_label
_atom_site_fract_x
_atom_site_fract_y
_atom_site_fract_z
Si Si1 0.072358 0.394564 0.906566
Si Si2 0.223445 0.385549 0.407056
Si Si3 0.369292 0.418158 0.364517
Si Si4 0.798741 0.905733 0.847357
Si Si5 0.865319 0.755125 0.221196
O O1 0.112932 0.473328 0.844753
O O2 0.086610 0.294393 0.855911
O O3 0.000000 0.419282 0.903549
O O4 0.098618 0.396008 0.024263
O O5 0.295224 0.402263 0.374912
O O6 0.187475 0.482003 0.369534
O O7 0.222729 0.376111 0.534024
O O8 0.192590 0.296560 0.347557
O O9 0.393443 0.345226 0.279418
O O10 0.750000 0.906752 0.750000
O O11 0.845373 0.823299 0.808092
#
# Coordination Sequence:
#
# PCOD9481760 Si02
#       5
#    16  16  16  16  16
#     4  11  25  43  61  84 118 165 215 250 285 351
#     4  11  23  37  60  95 129 158 194 248 317 382
#     4  11  22  39  63  88 119 158 200 250 307 361
#     4  11  21  36  56  85 129 165 191 235 302 373
#     4  12  23  37  61  93 123 157 198 251 312 366
#
# _framework density 20.861075
#
# number of rings (size 3 to 8) (size 9 to 14) (size 15 to 20)
#    0.000    0.800    0.000   11.400    0.000    4.000 
#    0.000    0.000    0.000    0.000    0.000    8.400 
#    0.000    0.000    0.000    0.000    0.000    0.000 
#
# Total GULP energy -223514.109061 kJ/mol
# GULP energy per Si atom -5587.852727 kJ/mol
# Density = 2.081359 g / cm^3
# Si number density = 20.861075 Si / 1000 Ang^3
#
#
#
# Elastic Constant Matrix: (Units=GPa)
#
#
# Indices 1 2 3 4 5 6 
#
# 1 61.3251 19.2413 9.3957 0.0000 0.0000 0.0000
# 2 19.2413 103.0852 56.5261 0.0000 0.0000 0.0000
# 3 9.3957 56.5261 111.7739 0.0000 0.0000 0.0000
# 4 0.0000 0.0000 0.0000 48.9409 0.0000 0.0000
# 5 0.0000 0.0000 0.0000 0.0000 -29.9242 0.0000
# 6 0.0000 0.0000 0.0000 0.0000 0.0000 18.8810
#
#
#
# Elastic Compliance Matrix: (Units=1/GPa)
#
#
# Indices 1 2 3 4 5 6 
#
# 1 0.017326 -0.003370 0.000248 0.000000 0.000000 0.000000
# 2 -0.003370 0.014078 -0.006836 0.000000 0.000000 0.000000
# 3 0.000248 -0.006836 0.012383 0.000000 0.000000 0.000000
# 4 0.000000 0.000000 0.000000 0.020433 0.000000 0.000000
# 5 0.000000 0.000000 0.000000 0.000000 -0.033418 0.000000
# 6 0.000000 0.000000 0.000000 0.000000 0.000000 0.052963
#
#
# Mechanical properties :
#
#
# Convention : Reuss Voigt Hill
#
# Bulk Modulus (GPa) = 41.89282 49.61227 45.75255
# Shear Modulus (GPa) = 44.78698 20.31429 32.55064
#
# Velocity S-wave (km/s) = 4.63851 3.12395 3.95442
# Velocity P-wave (km/s) = 6.98664 6.07008 6.54443
#
# Compressibility (1/GPa) = 0.02387044
#
# Stress axis : x y z
#
# Youngs Moduli (GPa) = 57.71711 71.03058 80.75500
#
# Poissons Ratio (x) = 0.23936 -0.02001
# Poissons Ratio (y) = 0.19450 0.55208
# Poissons Ratio (z) = -0.01430 0.48560
#
# Static dielectric constant tensor:
#      x y z
#    x 1.735040 0.000000 0.000000 
#    y 0.000000 1.810440 0.000000 
#    z 0.000000 0.000000 1.768520 
# 
# From -- ./inp_files/18044.got.cif
#   From: 2010.05.17/outbox.cif.g08.bks.cpg/sg64_10_cif.got.tgz:18044.got - 2010.06.03 16:29:19.
