data_PCOD9481177
_publ_section_title
;
Structure prediction by ZEFSAII (Michael W. Deem and Ramdas Pophale) SiO2 
 PCOD9481177
Probable space group: C M C A
;
_chemical_formula_sum "Si O2"
_cell_formula_units_Z 116
_cell_length_a 17.134863
_cell_length_b 23.105521
_cell_length_c 15.462562
_cell_angle_alpha 90.000000
_cell_angle_beta 90.000000
_cell_angle_gamma 90.000000
_cell_volume 6121.781945
_symmetry_space_group_name_H-M "C M C A"
_symmetry_group_IT_number 64
_symmetry_cell_setting 'orthorhombic'
loop_
_space_group_symop_operation_xyz
x,y,z
-x,1/2-y,1/2+z
x,-y,-z
-x,1/2+y,1/2-z
-x,-y,-z
x,1/2+y,1/2-z
-x,y,z
x,1/2-y,1/2+z
1/2+x,1/2+y,z
1/2-x,-y,1/2+z
1/2+x,1/2-y,-z
1/2-x,y,1/2-z
1/2-x,1/2-y,-z
1/2+x,y,1/2-z
1/2-x,1/2+y,z
1/2+x,-y,1/2+z
loop_
_atom_site_type_symbol
_atom_site_label
_atom_site_fract_x
_atom_site_fract_y
_atom_site_fract_z
Si Si1 0.784810 0.477203 0.595312
Si Si2 0.886142 0.985946 0.662953
Si Si3 0.083621 0.634839 0.234535
Si Si4 0.661375 0.578419 0.784127
Si Si5 0.353427 0.151179 0.417979
Si Si6 0.000000 0.500000 0.000000
Si Si7 0.408195 0.683565 0.892770
Si Si8 0.289691 0.715548 0.340946
O O1 0.767827 0.500000 0.500000
O O2 0.704287 0.472381 0.646485
O O3 0.832247 0.526721 0.645659
O O4 0.824044 0.414949 0.586715
O O5 0.914162 0.934346 0.725007
O O6 0.932935 0.986298 0.574105
O O7 0.887460 0.049152 0.706668
O O8 0.093576 0.656296 0.332575
O O9 0.155966 0.660864 0.182572
O O10 0.000000 0.654929 0.199565
O O11 0.750000 0.591443 0.750000
O O12 0.620547 0.632860 0.828194
O O13 0.394968 0.163488 0.508237
O O14 0.279378 0.193896 0.403486
O O15 0.500000 0.696594 0.878979
O O16 0.348673 0.736480 0.876376
O O17 0.250000 0.734630 0.250000
#
# Coordination Sequence:
#
# PCOD9481177 Si02
#       8
#    16  16  16  16  16   4  16  16
#     4  11  19  37  61  95 122 157 214 258 304 372
#     4  11  22  36  59  89 127 166 208 258 313 372
#     4  11  21  37  63  93 125 158 206 271 317 363
#     4  10  23  39  64  88 127 169 210 248 316 384
#     4  11  22  39  65  95 120 166 215 263 308 379
#     4  12  24  36  56  88 130 172 202 260 320 370
#     4  12  25  42  61  93 134 169 203 263 325 382
#     4  10  23  42  68  88 118 167 229 257 310 372
#
# _framework density 18.948730000000001
#
# number of rings (size 3 to 8) (size 9 to 14) (size 15 to 20)
#    0.000    1.103    5.517    1.655    0.966    0.000 
#    0.000    0.690    0.000    0.000    0.000    0.000 
#    0.000    0.000    0.000    0.000    0.000    0.000 
#
# Total GULP energy -323161.353138 kJ/mol
# GULP energy per Si atom -5571.747468 kJ/mol
# Density = 1.890560 g / cm^3
# Si number density = 18.948730 Si / 1000 Ang^3
#
#
#
# Elastic Constant Matrix: (Units=GPa)
#
#
# Indices 1 2 3 4 5 6 
#
# 1 94.8089 30.7993 20.2740 0.0000 0.0000 0.0000
# 2 30.7993 80.0197 21.4850 0.0000 0.0000 0.0000
# 3 20.2740 21.4850 67.4106 0.0000 0.0000 0.0000
# 4 0.0000 0.0000 0.0000 23.8059 0.0000 0.0000
# 5 0.0000 0.0000 0.0000 0.0000 355.7435 0.0000
# 6 0.0000 0.0000 0.0000 0.0000 0.0000 -40.1411
#
#
#
# Elastic Compliance Matrix: (Units=1/GPa)
#
#
# Indices 1 2 3 4 5 6 
#
# 1 0.012404 -0.004126 -0.002416 0.000000 0.000000 0.000000
# 2 -0.004126 0.015039 -0.003552 0.000000 0.000000 0.000000
# 3 -0.002416 -0.003552 0.016693 0.000000 0.000000 0.000000
# 4 0.000000 0.000000 0.000000 0.042006 0.000000 0.000000
# 5 0.000000 0.000000 0.000000 0.000000 0.002811 0.000000
# 6 0.000000 0.000000 0.000000 0.000000 0.000000 -0.024912
#
#
# Mechanical properties :
#
#
# Convention : Reuss Voigt Hill
#
# Bulk Modulus (GPa) = 41.75584 43.03951 42.39767
# Shear Modulus (GPa) = 54.22296 79.19375 66.70835
#
# Velocity S-wave (km/s) = 5.35516 6.47182 5.93979
# Velocity P-wave (km/s) = 7.76666 8.86616 8.33456
#
# Compressibility (1/GPa) = 0.02394875
#
# Stress axis : x y z
#
# Youngs Moduli (GPa) = 80.61652 66.49516 59.90480
#
# Poissons Ratio (x) = 0.27435 0.14471
# Poissons Ratio (y) = 0.33261 0.21280
# Poissons Ratio (z) = 0.19475 0.23621
#
# Static dielectric constant tensor:
#      x y z
#    x 1.669720 0.000000 0.000000 
#    y 0.000000 1.654740 0.000000 
#    z 0.000000 0.000000 1.654150 
# 
# From -- ./inp_files/25741.got.cif
#   From: 2010.05.17/outbox.cif.g08.bks.cpg/sg64_13_cif.got.tgz:25741.got - 2010.06.03 16:29:19.
