data_PCOD9481014
_publ_section_title
;
Structure prediction by ZEFSAII (Michael W. Deem and Ramdas Pophale) SiO2 
 PCOD9481014
Probable space group: C M C A
;
_chemical_formula_sum "Si O2"
_cell_formula_units_Z 96
_cell_length_a 18.397596
_cell_length_b 26.883284
_cell_length_c 9.795099
_cell_angle_alpha 90.000000
_cell_angle_beta 90.000000
_cell_angle_gamma 90.000000
_cell_volume 4844.536447
_symmetry_space_group_name_H-M "C M C A"
_symmetry_group_IT_number 64
_symmetry_cell_setting 'orthorhombic'
loop_
_space_group_symop_operation_xyz
x,y,z
-x,1/2-y,1/2+z
x,-y,-z
-x,1/2+y,1/2-z
-x,-y,-z
x,1/2+y,1/2-z
-x,y,z
x,1/2-y,1/2+z
1/2+x,1/2+y,z
1/2-x,-y,1/2+z
1/2+x,1/2-y,-z
1/2-x,y,1/2-z
1/2-x,1/2-y,-z
1/2+x,y,1/2-z
1/2-x,1/2+y,z
1/2+x,-y,1/2+z
loop_
_atom_site_type_symbol
_atom_site_label
_atom_site_fract_x
_atom_site_fract_y
_atom_site_fract_z
Si Si1 0.413609 0.209368 0.622205
Si Si2 0.912646 0.805894 0.803586
Si Si3 0.333576 0.388536 0.209344
Si Si4 0.350253 0.094631 0.186045
Si Si5 0.082797 0.947451 0.440618
Si Si6 0.202670 0.945297 0.943217
O O1 0.500000 0.200904 0.634264
O O2 0.397696 0.260735 0.699762
O O3 0.396350 0.209349 0.460386
O O4 0.373017 0.164045 0.695257
O O5 0.864429 0.852912 0.758401
O O6 0.000000 0.817221 0.797120
O O7 0.250000 0.381795 0.250000
O O8 0.370430 0.423866 0.321120
O O9 0.335660 0.415335 0.063279
O O10 0.274801 0.084761 0.104642
O O11 0.347069 0.054188 0.307822
O O12 0.411545 0.087682 0.072806
O O13 0.000000 0.953743 0.395132
O O14 0.109867 0.000000 0.500000
O O15 0.219534 0.000000 0.000000
#
# Coordination Sequence:
#
# PCOD9481014 Si02
#       6
#    16  16  16  16  16  16
#     4  10  23  44  67  94 127 173 222 275 341 406
#     4  10  22  42  68  94 127 170 221 276 342 404
#     4  12  24  42  64  96 131 174 221 277 331 402
#     4  11  22  41  65  95 130 170 221 277 321 401
#     4  11  24  41  64  95 131 173 221 275 335 402
#     4  11  24  40  65  93 132 179 220 269 331 395
#
# _framework density 19.816137000000001
#
# number of rings (size 3 to 8) (size 9 to 14) (size 15 to 20)
#    0.000    1.167    3.333    2.500    4.667    0.000 
#    3.000    1.667    0.000    4.000    0.000    0.000 
#    0.000    0.000    0.000    0.000    0.000    0.000 
#
# Total GULP energy -268092.441269 kJ/mol
# GULP energy per Si atom -5585.259193 kJ/mol
# Density = 1.977103 g / cm^3
# Si number density = 19.816137 Si / 1000 Ang^3
#
#
#
# Elastic Constant Matrix: (Units=GPa)
#
#
# Indices 1 2 3 4 5 6 
#
# 1 59.7195 54.6696 44.3436 0.0000 0.0000 0.0000
# 2 54.6696 125.1578 64.7496 0.0000 0.0000 0.0000
# 3 44.3436 64.7496 150.2395 0.0000 0.0000 0.0000
# 4 0.0000 0.0000 0.0000 39.7392 0.0000 0.0000
# 5 0.0000 0.0000 0.0000 0.0000 1.2748 0.0000
# 6 0.0000 0.0000 0.0000 0.0000 0.0000 29.2217
#
#
#
# Elastic Compliance Matrix: (Units=1/GPa)
#
#
# Indices 1 2 3 4 5 6 
#
# 1 0.029735 -0.010872 -0.004091 0.000000 0.000000 0.000000
# 2 -0.010872 0.014258 -0.002936 0.000000 0.000000 0.000000
# 3 -0.004091 -0.002936 0.009129 0.000000 0.000000 0.000000
# 4 0.000000 0.000000 0.000000 0.025164 0.000000 0.000000
# 5 0.000000 0.000000 0.000000 0.000000 0.784446 0.000000
# 6 0.000000 0.000000 0.000000 0.000000 0.000000 0.034221
#
#
# Mechanical properties :
#
#
# Convention : Reuss Voigt Hill
#
# Bulk Modulus (GPa) = 57.72269 73.62692 65.67481
# Shear Modulus (GPa) = 5.32751 25.47075 15.39913
#
# Velocity S-wave (km/s) = 1.64143 3.58907 2.79068
# Velocity P-wave (km/s) = 5.72580 7.37638 6.60287
#
# Compressibility (1/GPa) = 0.01732421
#
# Stress axis : x y z
#
# Youngs Moduli (GPa) = 33.63003 70.13727 109.54459
#
# Poissons Ratio (x) = 0.76255 0.44813
# Poissons Ratio (y) = 0.36563 0.32160
# Poissons Ratio (z) = 0.13757 0.20591
#
# Static dielectric constant tensor:
#      x y z
#    x 1.713050 0.000000 0.000000 
#    y 0.000000 1.692540 0.000000 
#    z 0.000000 0.000000 1.705700 
# 
# From -- ./inp_files/8379.got.cif
#   From: 2010.05.17/outbox.cif.g08.bks.cpg/sg64_5_cif.got.tgz:8379.got - 2010.06.03 16:29:19.
