data_PCOD9481878
_publ_section_title
;
Structure prediction by ZEFSAII (Michael W. Deem and Ramdas Pophale) SiO2 
 PCOD9481878
Probable space group: C M C A
;
_chemical_formula_sum "Si O2"
_cell_formula_units_Z 64
_cell_length_a 29.441198
_cell_length_b 8.215300
_cell_length_c 10.057075
_cell_angle_alpha 90.000000
_cell_angle_beta 90.000000
_cell_angle_gamma 90.000000
_cell_volume 2432.487371
_symmetry_space_group_name_H-M "C M C A"
_symmetry_group_IT_number 64
_symmetry_cell_setting 'orthorhombic'
loop_
_space_group_symop_operation_xyz
x,y,z
-x,1/2-y,1/2+z
x,-y,-z
-x,1/2+y,1/2-z
-x,-y,-z
x,1/2+y,1/2-z
-x,y,z
x,1/2-y,1/2+z
1/2+x,1/2+y,z
1/2-x,-y,1/2+z
1/2+x,1/2-y,-z
1/2-x,y,1/2-z
1/2-x,1/2-y,-z
1/2+x,y,1/2-z
1/2-x,1/2+y,z
1/2+x,-y,1/2+z
loop_
_atom_site_type_symbol
_atom_site_label
_atom_site_fract_x
_atom_site_fract_y
_atom_site_fract_z
Si Si1 0.689576 0.863173 0.665343
Si Si2 0.777299 0.730850 0.609653
Si Si3 0.589237 0.284331 0.927184
Si Si4 0.447030 0.392728 0.196811
O O1 0.718382 0.743853 0.554240
O O2 0.681162 0.834890 0.823417
O O3 0.640694 0.842127 0.597582
O O4 0.710090 0.042569 0.636510
O O5 0.750000 0.788502 0.750000
O O6 0.578730 0.129777 0.836089
O O7 0.558987 0.425976 0.859459
O O8 0.575532 0.282237 0.080848
O O9 0.500000 0.355578 0.211245
#
# Coordination Sequence:
#
# PCOD9481878 Si02
#       4
#    16  16  16  16
#     4   8  14  27  50  82 110 154 189 235 288 344
#     4   7  13  25  48  78 117 148 186 235 283 348
#     4  11  22  39  65  90 122 159 211 254 309 386
#     4  11  24  42  62  88 121 160 205 268 324 372
#
# _framework density 26.310517999999998
#
# number of rings (size 3 to 8) (size 9 to 14) (size 15 to 20)
#    1.500    1.000    0.000    4.500    0.000    1.000 
#    0.000    2.500    0.000   30.000    0.000    0.000 
#    0.000    0.000    0.000    0.000    0.000    0.000 
#
# Total GULP energy -178619.495588 kJ/mol
# GULP energy per Si atom -5581.859237 kJ/mol
# Density = 2.625063 g / cm^3
# Si number density = 26.310518 Si / 1000 Ang^3
#
#
#
# Elastic Constant Matrix: (Units=GPa)
#
#
# Indices 1 2 3 4 5 6 
#
# 1 167.5980 32.4880 27.5829 0.0000 0.0000 0.0000
# 2 32.4880 73.9964 8.9142 0.0000 0.0000 0.0000
# 3 27.5829 8.9142 156.7212 0.0000 0.0000 0.0000
# 4 0.0000 0.0000 0.0000 51.7678 0.0000 0.0000
# 5 0.0000 0.0000 0.0000 0.0000 35.4047 0.0000
# 6 0.0000 0.0000 0.0000 0.0000 0.0000 33.3234
#
#
#
# Elastic Compliance Matrix: (Units=1/GPa)
#
#
# Indices 1 2 3 4 5 6 
#
# 1 0.006678 -0.002810 -0.001016 0.000000 0.000000 0.000000
# 2 -0.002810 0.014790 -0.000347 0.000000 0.000000 0.000000
# 3 -0.001016 -0.000347 0.006579 0.000000 0.000000 0.000000
# 4 0.000000 0.000000 0.000000 0.019317 0.000000 0.000000
# 5 0.000000 0.000000 0.000000 0.000000 0.028245 0.000000
# 6 0.000000 0.000000 0.000000 0.000000 0.000000 0.030009
#
#
# Mechanical properties :
#
#
# Convention : Reuss Voigt Hill
#
# Bulk Modulus (GPa) = 50.75350 59.58730 55.17040
# Shear Modulus (GPa) = 41.48344 46.05453 43.76898
#
# Velocity S-wave (km/s) = 3.97506 4.18834 4.08309
# Velocity P-wave (km/s) = 6.35611 6.78870 6.57597
#
# Compressibility (1/GPa) = 0.01970307
#
# Stress axis : x y z
#
# Youngs Moduli (GPa) = 149.73487 67.61512 151.99366
#
# Poissons Ratio (x) = 0.18999 0.15436
# Poissons Ratio (y) = 0.42073 0.05269
# Poissons Ratio (z) = 0.15207 0.02344
#
# Static dielectric constant tensor:
#      x y z
#    x 4.487290 0.000000 0.000000 
#    y 0.000000 2.073210 0.000000 
#    z 0.000000 0.000000 1.296030 
# 
# From -- ./inp_files/19495.got.cif
#   From: 2010.05.17/outbox.cif.g08.bks.cpg/sg64_10_cif.got.tgz:19495.got - 2010.06.03 16:29:19.
