data_PCOD9481932
_publ_section_title
;
Structure prediction by ZEFSAII (Michael W. Deem and Ramdas Pophale) SiO2 
 PCOD9481932
Probable space group: C M C A
;
_chemical_formula_sum "Si O2"
_cell_formula_units_Z 120
_cell_length_a 20.931416
_cell_length_b 11.993920
_cell_length_c 22.245352
_cell_angle_alpha 90.000000
_cell_angle_beta 90.000000
_cell_angle_gamma 90.000000
_cell_volume 5584.689591
_symmetry_space_group_name_H-M "C M C A"
_symmetry_group_IT_number 64
_symmetry_cell_setting 'orthorhombic'
loop_
_space_group_symop_operation_xyz
x,y,z
-x,1/2-y,1/2+z
x,-y,-z
-x,1/2+y,1/2-z
-x,-y,-z
x,1/2+y,1/2-z
-x,y,z
x,1/2-y,1/2+z
1/2+x,1/2+y,z
1/2-x,-y,1/2+z
1/2+x,1/2-y,-z
1/2-x,y,1/2-z
1/2-x,1/2-y,-z
1/2+x,y,1/2-z
1/2-x,1/2+y,z
1/2+x,-y,1/2+z
loop_
_atom_site_type_symbol
_atom_site_label
_atom_site_fract_x
_atom_site_fract_y
_atom_site_fract_z
Si Si1 0.876682 0.587715 0.388134
Si Si2 0.688403 0.397944 0.283686
Si Si3 0.072114 0.049539 0.244745
Si Si4 0.652213 0.500000 0.500000
Si Si5 0.226227 0.454676 0.881477
Si Si6 0.424521 0.217348 0.969654
Si Si7 0.354340 0.226155 0.192418
Si Si8 0.074386 0.357036 0.408345
O O1 0.909066 0.582172 0.322772
O O2 0.801478 0.565085 0.382626
O O3 0.892003 0.702834 0.420775
O O4 0.907831 0.483906 0.423633
O O5 0.750000 0.449854 0.250000
O O6 0.622997 0.460227 0.268253
O O7 0.706891 0.425229 0.351999
O O8 0.678208 0.279386 0.251587
O O9 0.084372 0.156736 0.286157
O O10 0.000000 0.009400 0.247763
O O11 0.696302 0.451021 0.552590
O O12 0.608031 0.402628 0.473443
O O13 0.192934 0.359395 0.840846
O O14 0.500000 0.208488 0.957015
O O15 0.416953 0.277178 0.034533
O O16 0.378843 0.318175 0.145366
O O17 0.000000 0.351849 0.389956
#
# Coordination Sequence:
#
# PCOD9481932 Si02
#       8
#    16  16  16   8  16  16  16  16
#     4  12  25  44  70 101 144 176 240 299 356 430
#     4  11  23  44  72  99 139 183 234 290 360 434
#     4  11  24  41  66 102 138 178 231 294 357 427
#     4  12  27  50  72 100 151 186 252 294 354 444
#     4  11  27  46  69 106 139 194 238 299 367 424
#     4  11  26  46  72 102 137 190 239 295 362 429
#     4  11  24  42  71  99 139 183 235 294 359 433
#     4  11  22  44  70 100 138 182 232 292 361 423
#
# _framework density 21.487317000000001
#
# number of rings (size 3 to 8) (size 9 to 14) (size 15 to 20)
#    0.000    0.800    4.000    2.200    5.600    3.200 
#    0.000    0.667    0.000    0.000    0.000    0.000 
#    0.000    0.000    0.000    0.000    0.000    0.000 
#
# Total GULP energy -335579.004727 kJ/mol
# GULP energy per Si atom -5592.983412 kJ/mol
# Density = 2.143841 g / cm^3
# Si number density = 21.487317 Si / 1000 Ang^3
#
#
#
# Elastic Constant Matrix: (Units=GPa)
#
#
# Indices 1 2 3 4 5 6 
#
# 1 157.4834 26.7507 24.7493 0.0000 0.0000 0.0000
# 2 26.7507 71.7270 -0.2017 0.0000 0.0000 0.0000
# 3 24.7493 -0.2017 33.3507 0.0000 0.0000 0.0000
# 4 0.0000 0.0000 0.0000 39.9343 0.0000 0.0000
# 5 0.0000 0.0000 0.0000 0.0000 28.0745 0.0000
# 6 0.0000 0.0000 0.0000 0.0000 0.0000 23.6208
#
#
#
# Elastic Compliance Matrix: (Units=1/GPa)
#
#
# Indices 1 2 3 4 5 6 
#
# 1 0.007750 -0.002907 -0.005769 0.000000 0.000000 0.000000
# 2 -0.002907 0.015032 0.002248 0.000000 0.000000 0.000000
# 3 -0.005769 0.002248 0.034279 0.000000 0.000000 0.000000
# 4 0.000000 0.000000 0.000000 0.025041 0.000000 0.000000
# 5 0.000000 0.000000 0.000000 0.000000 0.035620 0.000000
# 6 0.000000 0.000000 0.000000 0.000000 0.000000 0.042336
#
#
# Mechanical properties :
#
#
# Convention : Reuss Voigt Hill
#
# Bulk Modulus (GPa) = 22.62134 40.57306 31.59720
# Shear Modulus (GPa) = 26.64556 32.41008 29.52782
#
# Velocity S-wave (km/s) = 3.52527 3.88794 3.71104
# Velocity P-wave (km/s) = 5.20775 6.25125 5.75321
#
# Compressibility (1/GPa) = 0.04420604
#
# Stress axis : x y z
#
# Youngs Moduli (GPa) = 129.02831 66.52421 29.17231
#
# Poissons Ratio (x) = 0.19337 0.16829
# Poissons Ratio (y) = 0.37505 -0.06558
# Poissons Ratio (z) = 0.74436 -0.14954
#
# Static dielectric constant tensor:
#      x y z
#    x 1.732130 0.000000 0.000000 
#    y 0.000000 1.818490 0.000000 
#    z 0.000000 0.000000 1.797170 
# 
# From -- ./inp_files/46422.got.cif
#   From: 2010.05.17/outbox.cif.g08.bks.cpg/sg64_24_cif.got.tgz:46422.got - 2010.06.03 16:29:19.
