data_PCOD9481963
_publ_section_title
;
Structure prediction by ZEFSAII (Michael W. Deem and Ramdas Pophale) SiO2 
 PCOD9481963
Probable space group: C M C A
;
_chemical_formula_sum "Si O2"
_cell_formula_units_Z 104
_cell_length_a 28.350611
_cell_length_b 9.236188
_cell_length_c 20.400874
_cell_angle_alpha 90.000000
_cell_angle_beta 90.000000
_cell_angle_gamma 90.000000
_cell_volume 5342.000950
_symmetry_space_group_name_H-M "C M C A"
_symmetry_group_IT_number 64
_symmetry_cell_setting 'orthorhombic'
loop_
_space_group_symop_operation_xyz
x,y,z
-x,1/2-y,1/2+z
x,-y,-z
-x,1/2+y,1/2-z
-x,-y,-z
x,1/2+y,1/2-z
-x,y,z
x,1/2-y,1/2+z
1/2+x,1/2+y,z
1/2-x,-y,1/2+z
1/2+x,1/2-y,-z
1/2-x,y,1/2-z
1/2-x,1/2-y,-z
1/2+x,y,1/2-z
1/2-x,1/2+y,z
1/2+x,-y,1/2+z
loop_
_atom_site_type_symbol
_atom_site_label
_atom_site_fract_x
_atom_site_fract_y
_atom_site_fract_z
Si Si1 0.445669 0.237084 0.999711
Si Si2 0.554098 0.009480 0.111610
Si Si3 0.782923 0.425718 0.930020
Si Si4 0.806539 0.260640 0.757843
Si Si5 0.802106 0.104472 0.893072
Si Si6 0.624801 0.000000 0.500000
Si Si7 0.148742 0.969742 0.325460
O O1 0.500000 0.289170 0.001025
O O2 0.408424 0.362437 0.988937
O O3 0.442309 0.120125 0.941396
O O4 0.436752 0.153529 0.068309
O O5 0.500000 0.014534 0.135090
O O6 0.592898 0.984763 0.167124
O O7 0.784207 0.252211 0.929121
O O8 0.739737 0.488144 0.887378
O O9 0.830037 0.484806 0.895818
O O10 0.777671 0.500000 0.000000
O O11 0.750000 0.268068 0.750000
O O12 0.816616 0.162035 0.822058
O O13 0.828736 0.414559 0.775527
O O14 0.831564 0.185089 0.696508
O O15 0.842257 0.034914 0.937817
#
# Coordination Sequence:
#
# PCOD9481963 Si02
#       7
#    16  16  16  16  16   8  16
#     4   9  19  37  63  90 123 158 197 250 310 376
#     4   9  20  41  65  92 116 155 207 252 308 374
#     4  11  23  39  57  86 122 158 204 246 310 350
#     4  11  23  42  58  87 117 168 213 245 291 367
#     4  11  25  37  57  86 124 163 202 257 292 364
#     4  12  23  36  56  96 130 154 203 252 324 354
#     4  11  24  38  65  84 121 163 206 254 300 354
#
# _framework density 19.468360000000001
#
# number of rings (size 3 to 8) (size 9 to 14) (size 15 to 20)
#    0.000    1.538    2.308    3.923    6.462    1.231 
#    0.000    0.769    0.000    1.846    0.000    0.000 
#    0.000    0.000    0.000    0.000    0.000    0.000 
#
# Total GULP energy -290600.030025 kJ/mol
# GULP energy per Si atom -5588.462116 kJ/mol
# Density = 1.942405 g / cm^3
# Si number density = 19.468360 Si / 1000 Ang^3
#
#
#
# Elastic Constant Matrix: (Units=GPa)
#
#
# Indices 1 2 3 4 5 6 
#
# 1 86.4004 29.6644 11.0015 0.0000 0.0000 0.0000
# 2 29.6644 60.3344 5.2911 0.0000 0.0000 0.0000
# 3 11.0015 5.2911 31.9544 0.0000 0.0000 0.0000
# 4 0.0000 0.0000 0.0000 24.5806 0.0000 0.0000
# 5 0.0000 0.0000 0.0000 0.0000 17.9315 0.0000
# 6 0.0000 0.0000 0.0000 0.0000 0.0000 26.2850
#
#
#
# Elastic Compliance Matrix: (Units=1/GPa)
#
#
# Indices 1 2 3 4 5 6 
#
# 1 0.014373 -0.006731 -0.003834 0.000000 0.000000 0.000000
# 2 -0.006731 0.019970 -0.000990 0.000000 0.000000 0.000000
# 3 -0.003834 -0.000990 0.032778 0.000000 0.000000 0.000000
# 4 0.000000 0.000000 0.000000 0.040682 0.000000 0.000000
# 5 0.000000 0.000000 0.000000 0.000000 0.055768 0.000000
# 6 0.000000 0.000000 0.000000 0.000000 0.000000 0.038045
#
#
# Mechanical properties :
#
#
# Convention : Reuss Voigt Hill
#
# Bulk Modulus (GPa) = 22.72021 30.06704 26.39362
# Shear Modulus (GPa) = 20.88591 22.60822 21.74707
#
# Velocity S-wave (km/s) = 3.27894 3.41145 3.34585
# Velocity P-wave (km/s) = 5.10205 5.56731 5.33975
#
# Compressibility (1/GPa) = 0.04401369
#
# Stress axis : x y z
#
# Youngs Moduli (GPa) = 69.57468 50.07445 30.50783
#
# Poissons Ratio (x) = 0.33703 0.11697
# Poissons Ratio (y) = 0.46827 0.03019
# Poissons Ratio (z) = 0.26675 0.04955
#
# Static dielectric constant tensor:
#      x y z
#    x 1.683870 0.000000 0.000000 
#    y 0.000000 1.694300 0.000000 
#    z 0.000000 0.000000 1.692670 
# 
# From -- ./inp_files/41855.got.cif
#   From: 2010.05.17/outbox.cif.g08.bks.cpg/sg64_21_cif.got.tgz:41855.got - 2010.06.03 16:29:19.
