data_PCOD9481628
_publ_section_title
;
Structure prediction by ZEFSAII (Michael W. Deem and Ramdas Pophale) SiO2 
 PCOD9481628
Probable space group: C M C A
;
_chemical_formula_sum "Si O2"
_cell_formula_units_Z 88
_cell_length_a 15.754833
_cell_length_b 22.970886
_cell_length_c 12.533627
_cell_angle_alpha 90.000000
_cell_angle_beta 90.000000
_cell_angle_gamma 90.000000
_cell_volume 4535.950604
_symmetry_space_group_name_H-M "C M C A"
_symmetry_group_IT_number 64
_symmetry_cell_setting 'orthorhombic'
loop_
_space_group_symop_operation_xyz
x,y,z
-x,1/2-y,1/2+z
x,-y,-z
-x,1/2+y,1/2-z
-x,-y,-z
x,1/2+y,1/2-z
-x,y,z
x,1/2-y,1/2+z
1/2+x,1/2+y,z
1/2-x,-y,1/2+z
1/2+x,1/2-y,-z
1/2-x,y,1/2-z
1/2-x,1/2-y,-z
1/2+x,y,1/2-z
1/2-x,1/2+y,z
1/2+x,-y,1/2+z
loop_
_atom_site_type_symbol
_atom_site_label
_atom_site_fract_x
_atom_site_fract_y
_atom_site_fract_z
Si Si1 0.169579 0.137275 0.307952
Si Si2 0.645325 0.919957 0.402561
Si Si3 0.400390 0.546072 0.145646
Si Si4 0.000000 0.374537 0.088711
Si Si5 0.000000 0.834740 0.172027
Si Si6 0.824925 0.431044 0.029121
Si Si7 0.500000 0.699948 0.372743
O O1 0.250000 0.166950 0.250000
O O2 0.148113 0.083242 0.231974
O O3 0.186339 0.109048 0.423556
O O4 0.085793 0.176632 0.316915
O O5 0.627104 0.934664 0.527236
O O6 0.584165 0.867982 0.369237
O O7 0.746432 0.914347 0.394809
O O8 0.617348 0.978012 0.341034
O O9 0.500000 0.556529 0.156188
O O10 0.000000 0.340946 0.200230
O O11 0.083803 0.414377 0.076746
O O12 0.000000 0.329053 0.990275
O O13 0.000000 0.769175 0.130653
O O14 0.820081 0.500000 0.000000
#
# Coordination Sequence:
#
# PCOD9481628 Si02
#       7
#    16  16  16   8   8  16   8
#     4  11  21  39  67  93 124 171 218 254 328 392
#     4  11  21  37  61  98 133 158 212 262 326 384
#     4  11  19  36  63  98 129 162 201 264 323 400
#     4  10  27  46  61  94 131 172 224 260 326 390
#     4  12  26  45  68  91 125 178 219 276 328 362
#     4  11  22  40  63  98 137 167 201 266 328 401
#     4  10  26  48  63  88 128 172 228 273 306 377
#
# _framework density 19.400563999999999
#
# number of rings (size 3 to 8) (size 9 to 14) (size 15 to 20)
#    0.000    1.091    6.364    0.818    2.545    2.182 
#    3.273    1.818    0.000    0.000    0.000    0.000 
#    0.000    0.000    0.000    0.000    0.000    0.000 
#
# Total GULP energy -245874.664585 kJ/mol
# GULP energy per Si atom -5588.060559 kJ/mol
# Density = 1.935641 g / cm^3
# Si number density = 19.400564 Si / 1000 Ang^3
#
#
#
# Elastic Constant Matrix: (Units=GPa)
#
#
# Indices 1 2 3 4 5 6 
#
# 1 168.6690 44.8921 22.1451 0.0000 0.0000 0.0000
# 2 44.8921 117.1264 16.6327 0.0000 0.0000 0.0000
# 3 22.1451 16.6327 42.8857 0.0000 0.0000 0.0000
# 4 0.0000 0.0000 0.0000 14.7365 0.0000 0.0000
# 5 0.0000 0.0000 0.0000 0.0000 14.1650 0.0000
# 6 0.0000 0.0000 0.0000 0.0000 0.0000 -2.8237
#
#
#
# Elastic Compliance Matrix: (Units=1/GPa)
#
#
# Indices 1 2 3 4 5 6 
#
# 1 0.006881 -0.002257 -0.002678 0.000000 0.000000 0.000000
# 2 -0.002257 0.009776 -0.002626 0.000000 0.000000 0.000000
# 3 -0.002678 -0.002626 0.025719 0.000000 0.000000 0.000000
# 4 0.000000 0.000000 0.000000 0.067859 0.000000 0.000000
# 5 0.000000 0.000000 0.000000 0.000000 0.070596 0.000000
# 6 0.000000 0.000000 0.000000 0.000000 0.000000 -0.354148
#
#
# Mechanical properties :
#
#
# Convention : Reuss Voigt Hill
#
# Bulk Modulus (GPa) = 36.69162 55.11344 45.90253
# Shear Modulus (GPa) = -33.53230 21.54964 -5.99133
#
# Velocity S-wave (km/s) = -4.16194 3.33644 -1.75924
# Velocity P-wave (km/s) = 2.03517 6.58121 4.42552
#
# Compressibility (1/GPa) = 0.02725418
#
# Stress axis : x y z
#
# Youngs Moduli (GPa) = 145.32575 102.29355 38.88174
#
# Poissons Ratio (x) = 0.23089 0.10412
# Poissons Ratio (y) = 0.32802 0.10210
# Poissons Ratio (z) = 0.38916 0.26861
#
# Static dielectric constant tensor:
#      x y z
#    x 1.720550 0.000000 0.000000 
#    y 0.000000 1.624470 0.000000 
#    z 0.000000 0.000000 1.692750 
# 
# From -- ./inp_files/14629.got.cif
#   From: 2010.05.17/outbox.cif.g08.bks.cpg/sg64_8_cif.got.tgz:14629.got - 2010.06.03 16:29:19.
