data_PCOD9481929
_publ_section_title
;
Structure prediction by ZEFSAII (Michael W. Deem and Ramdas Pophale) SiO2 
 PCOD9481929
Probable space group: C M C A
;
_chemical_formula_sum "Si O2"
_cell_formula_units_Z 96
_cell_length_a 21.320593
_cell_length_b 17.996450
_cell_length_c 11.574553
_cell_angle_alpha 90.000000
_cell_angle_beta 90.000000
_cell_angle_gamma 90.000000
_cell_volume 4441.097950
_symmetry_space_group_name_H-M "C M C A"
_symmetry_group_IT_number 64
_symmetry_cell_setting 'orthorhombic'
loop_
_space_group_symop_operation_xyz
x,y,z
-x,1/2-y,1/2+z
x,-y,-z
-x,1/2+y,1/2-z
-x,-y,-z
x,1/2+y,1/2-z
-x,y,z
x,1/2-y,1/2+z
1/2+x,1/2+y,z
1/2-x,-y,1/2+z
1/2+x,1/2-y,-z
1/2-x,y,1/2-z
1/2-x,1/2-y,-z
1/2+x,y,1/2-z
1/2-x,1/2+y,z
1/2+x,-y,1/2+z
loop_
_atom_site_type_symbol
_atom_site_label
_atom_site_fract_x
_atom_site_fract_y
_atom_site_fract_z
Si Si1 0.701914 0.924901 0.073267
Si Si2 0.000000 0.620159 0.969989
Si Si3 0.336967 0.546767 0.831079
Si Si4 0.889534 0.098656 0.199480
Si Si5 0.926093 0.845560 0.044842
Si Si6 0.375038 0.811784 0.933883
Si Si7 0.500000 0.989866 0.811426
O O1 0.666578 0.931146 0.196265
O O2 0.774826 0.924024 0.105412
O O3 0.680300 0.852065 0.003843
O O4 0.686700 0.000000 0.000000
O O5 0.000000 0.574855 0.850985
O O6 0.062367 0.666457 0.993544
O O7 0.000000 0.559539 0.072418
O O8 0.334141 0.456817 0.837699
O O9 0.396498 0.582654 0.893970
O O10 0.917102 0.142827 0.092035
O O11 0.875658 0.150878 0.307592
O O12 0.940262 0.038682 0.242913
O O13 0.000000 0.835316 0.071506
O O14 0.882641 0.775961 0.079933
#
# Coordination Sequence:
#
# PCOD9481929 Si02
#       7
#    16   8  16  16  16  16   8
#     4  11  23  48  75 104 135 182 244 296 342 416
#     4   9  18  35  59 101 130 163 231 283 339 406
#     4  11  26  45  75 105 137 183 239 297 356 419
#     4  11  22  44  67 101 140 185 233 290 356 416
#     4  12  27  45  67 105 153 188 230 294 366 427
#     4  11  24  43  70 101 141 187 231 291 352 426
#     4   9  18  31  64  93 127 173 221 280 338 407
#
# _framework density 21.616275999999999
#
# number of rings (size 3 to 8) (size 9 to 14) (size 15 to 20)
#    0.000    1.167    3.333    2.500    5.833    1.333 
#    1.500    0.000    0.000    0.000    0.000    0.000 
#    0.000    0.000    0.000    0.000    0.000    0.000 
#
# Total GULP energy -268317.673906 kJ/mol
# GULP energy per Si atom -5589.951540 kJ/mol
# Density = 2.156708 g / cm^3
# Si number density = 21.616276 Si / 1000 Ang^3
#
#
#
# Elastic Constant Matrix: (Units=GPa)
#
#
# Indices 1 2 3 4 5 6 
#
# 1 68.0420 14.8463 31.5557 0.0000 0.0000 0.0000
# 2 14.8463 93.5707 38.2678 0.0000 0.0000 0.0000
# 3 31.5557 38.2678 120.0067 0.0000 0.0000 0.0000
# 4 0.0000 0.0000 0.0000 32.7620 0.0000 0.0000
# 5 0.0000 0.0000 0.0000 0.0000 21.2504 0.0000
# 6 0.0000 0.0000 0.0000 0.0000 0.0000 79.3468
#
#
#
# Elastic Compliance Matrix: (Units=1/GPa)
#
#
# Indices 1 2 3 4 5 6 
#
# 1 0.016817 -0.000989 -0.004107 0.000000 0.000000 0.000000
# 2 -0.000989 0.012348 -0.003678 0.000000 0.000000 0.000000
# 3 -0.004107 -0.003678 0.010585 0.000000 0.000000 0.000000
# 4 0.000000 0.000000 0.000000 0.030523 0.000000 0.000000
# 5 0.000000 0.000000 0.000000 0.000000 0.047058 0.000000
# 6 0.000000 0.000000 0.000000 0.000000 0.000000 0.012603
#
#
# Mechanical properties :
#
#
# Convention : Reuss Voigt Hill
#
# Bulk Modulus (GPa) = 45.03595 50.10653 47.57124
# Shear Modulus (GPa) = 32.28260 39.80180 36.04220
#
# Velocity S-wave (km/s) = 3.86870 4.29568 4.08777
# Velocity P-wave (km/s) = 6.39025 6.91622 6.65843
#
# Compressibility (1/GPa) = 0.02220448
#
# Stress axis : x y z
#
# Youngs Moduli (GPa) = 59.46322 80.98476 94.46939
#
# Poissons Ratio (x) = 0.08007 0.38796
# Poissons Ratio (y) = 0.05879 0.34742
# Poissons Ratio (z) = 0.24420 0.29783
#
# Static dielectric constant tensor:
#      x y z
#    x 1.856810 0.000000 0.000000 
#    y 0.000000 1.758790 0.000000 
#    z 0.000000 0.000000 1.784300 
# 
# From -- ./inp_files/18399.got.cif
#   From: 2010.05.17/outbox.cif.g08.bks.cpg/sg64_10_cif.got.tgz:18399.got - 2010.06.03 16:29:19.
