data_PCOD9481771
_publ_section_title
;
Structure prediction by ZEFSAII (Michael W. Deem and Ramdas Pophale) SiO2 
 PCOD9481771
Probable space group: C M C A
;
_chemical_formula_sum "Si O2"
_cell_formula_units_Z 48
_cell_length_a 12.542969
_cell_length_b 8.693515
_cell_length_c 18.931556
_cell_angle_alpha 90.000000
_cell_angle_beta 90.000000
_cell_angle_gamma 90.000000
_cell_volume 2064.343990
_symmetry_space_group_name_H-M "C M C A"
_symmetry_group_IT_number 64
_symmetry_cell_setting 'orthorhombic'
loop_
_space_group_symop_operation_xyz
x,y,z
-x,1/2-y,1/2+z
x,-y,-z
-x,1/2+y,1/2-z
-x,-y,-z
x,1/2+y,1/2-z
-x,y,z
x,1/2-y,1/2+z
1/2+x,1/2+y,z
1/2-x,-y,1/2+z
1/2+x,1/2-y,-z
1/2-x,y,1/2-z
1/2-x,1/2-y,-z
1/2+x,y,1/2-z
1/2-x,1/2+y,z
1/2+x,-y,1/2+z
loop_
_atom_site_type_symbol
_atom_site_label
_atom_site_fract_x
_atom_site_fract_y
_atom_site_fract_z
Si Si1 0.500000 0.748113 0.495426
Si Si2 0.500000 0.469933 0.380929
Si Si3 0.878498 0.428909 0.394832
Si Si4 0.203655 0.117784 0.327946
O O1 0.500000 0.605517 0.440589
O O2 0.500000 0.684740 0.573618
O O3 0.398634 0.849593 0.471501
O O4 0.605439 0.499424 0.336198
O O5 0.838714 0.286836 0.346762
O O6 0.794039 0.561923 0.382663
O O7 0.000000 0.472914 0.374249
O O8 0.250000 0.113893 0.250000
#
# Coordination Sequence:
#
# PCOD9481771 Si02
#       4
#     8   8  16  16
#     4   7  16  37  57  81 113 147 187 232 283 335
#     4   9  18  35  59  83 113 152 187 226 289 336
#     4   9  21  39  58  86 112 150 190 234 282 333
#     4  11  21  37  59  84 116 153 185 234 284 336
#
# _framework density 23.251940000000001
#
# number of rings (size 3 to 8) (size 9 to 14) (size 15 to 20)
#    1.000    1.667    1.667    1.000    2.333    1.333 
#    3.000    0.000    0.000    2.000    0.000    0.000 
#    0.000    0.000    0.000    0.000    0.000    0.000 
#
# Total GULP energy -134070.361057 kJ/mol
# GULP energy per Si atom -5586.265044 kJ/mol
# Density = 2.319902 g / cm^3
# Si number density = 23.251940 Si / 1000 Ang^3
#
#
#
# Elastic Constant Matrix: (Units=GPa)
#
#
# Indices 1 2 3 4 5 6 
#
# 1 157.5872 36.0888 31.1681 0.0000 0.0000 0.0000
# 2 36.0888 77.5811 38.7615 0.0000 0.0000 0.0000
# 3 31.1681 38.7615 85.5472 0.0000 0.0000 0.0000
# 4 0.0000 0.0000 0.0000 14.0463 0.0000 0.0000
# 5 0.0000 0.0000 0.0000 0.0000 33.3122 0.0000
# 6 0.0000 0.0000 0.0000 0.0000 0.0000 -53.0481
#
#
#
# Elastic Compliance Matrix: (Units=1/GPa)
#
#
# Indices 1 2 3 4 5 6 
#
# 1 0.007236 -0.002648 -0.001436 0.000000 0.000000 0.000000
# 2 -0.002648 0.017631 -0.007024 0.000000 0.000000 0.000000
# 3 -0.001436 -0.007024 0.015395 0.000000 0.000000 0.000000
# 4 0.000000 0.000000 0.000000 0.071193 0.000000 0.000000
# 5 0.000000 0.000000 0.000000 0.000000 0.030019 0.000000
# 6 0.000000 0.000000 0.000000 0.000000 0.000000 -0.018851
#
#
# Mechanical properties :
#
#
# Convention : Reuss Voigt Hill
#
# Bulk Modulus (GPa) = 55.41591 59.19468 57.30530
# Shear Modulus (GPa) = 33.14418 13.17523 23.15971
#
# Velocity S-wave (km/s) = 3.77959 2.38298 3.15942
# Velocity P-wave (km/s) = 6.55222 5.75193 6.16508
#
# Compressibility (1/GPa) = 0.01804536
#
# Stress axis : x y z
#
# Youngs Moduli (GPa) = 138.19180 56.71848 64.95526
#
# Poissons Ratio (x) = 0.15022 0.09330
# Poissons Ratio (y) = 0.36600 0.45622
# Poissons Ratio (z) = 0.19850 0.39837
#
# Static dielectric constant tensor:
#      x y z
#    x 1.842940 0.000000 0.000000 
#    y 0.000000 1.935380 0.000000 
#    z 0.000000 0.000000 1.865580 
# 
# From -- ./inp_files/31425.got.cif
#   From: 2010.05.17/outbox.cif.g08.bks.cpg/sg64_16_cif.got.tgz:31425.got - 2010.06.03 16:29:19.
