data_PCOD9481685
_publ_section_title
;
Structure prediction by ZEFSAII (Michael W. Deem and Ramdas Pophale) SiO2 
 PCOD9481685
Probable space group: C M C A
;
_chemical_formula_sum "Si O2"
_cell_formula_units_Z 80
_cell_length_a 14.729830
_cell_length_b 20.841958
_cell_length_c 13.793847
_cell_angle_alpha 90.000000
_cell_angle_beta 90.000000
_cell_angle_gamma 90.000000
_cell_volume 4234.690313
_symmetry_space_group_name_H-M "C M C A"
_symmetry_group_IT_number 64
_symmetry_cell_setting 'orthorhombic'
loop_
_space_group_symop_operation_xyz
x,y,z
-x,1/2-y,1/2+z
x,-y,-z
-x,1/2+y,1/2-z
-x,-y,-z
x,1/2+y,1/2-z
-x,y,z
x,1/2-y,1/2+z
1/2+x,1/2+y,z
1/2-x,-y,1/2+z
1/2+x,1/2-y,-z
1/2-x,y,1/2-z
1/2-x,1/2-y,-z
1/2+x,y,1/2-z
1/2-x,1/2+y,z
1/2+x,-y,1/2+z
loop_
_atom_site_type_symbol
_atom_site_label
_atom_site_fract_x
_atom_site_fract_y
_atom_site_fract_z
Si Si1 0.234336 0.638633 0.648077
Si Si2 0.603669 0.576284 0.012470
Si Si3 0.598073 0.247096 0.151472
Si Si4 0.892949 0.279957 0.074087
Si Si5 0.842492 0.844252 0.807611
O O1 0.250000 0.602434 0.750000
O O2 0.174607 0.605480 0.564633
O O3 0.175849 0.702199 0.676228
O O4 0.331528 0.660809 0.607156
O O5 0.500000 0.599129 0.993577
O O6 0.605681 0.500000 0.000000
O O7 0.627145 0.598480 0.122237
O O8 0.500000 0.279269 0.160880
O O9 0.598772 0.185354 0.220444
O O10 0.610826 0.226148 0.041219
O O11 0.845593 0.216473 0.118447
O O12 0.000000 0.282215 0.102100
O O13 0.750000 0.857904 0.750000
#
# Coordination Sequence:
#
# PCOD9481685 Si02
#       5
#    16  16  16  16  16
#     4  12  22  36  59  90 124 157 205 258 320 377
#     4  11  26  46  65  87 124 175 223 264 311 380
#     4  11  20  32  55  90 127 161 198 253 318 379
#     4  11  21  34  56  93 135 164 197 255 328 387
#     4  12  21  37  63  93 127 164 204 261 319 380
#
# _framework density 18.891582
#
# number of rings (size 3 to 8) (size 9 to 14) (size 15 to 20)
#    0.000    0.600    6.000    4.200    0.000    1.600 
#    0.000    0.000    0.000    0.600    0.000    0.000 
#    0.000    0.000    0.000    0.000    0.000    0.000 
#
# Total GULP energy -223111.477418 kJ/mol
# GULP energy per Si atom -5577.786935 kJ/mol
# Density = 1.884858 g / cm^3
# Si number density = 18.891582 Si / 1000 Ang^3
#
#
#
# Elastic Constant Matrix: (Units=GPa)
#
#
# Indices 1 2 3 4 5 6 
#
# 1 113.6448 34.2207 37.9936 0.0000 0.0000 0.0000
# 2 34.2207 57.5362 34.5480 0.0000 0.0000 0.0000
# 3 37.9936 34.5480 152.4735 0.0000 0.0000 0.0000
# 4 0.0000 0.0000 0.0000 24.1738 0.0000 0.0000
# 5 0.0000 0.0000 0.0000 0.0000 -25.0460 0.0000
# 6 0.0000 0.0000 0.0000 0.0000 0.0000 18.8229
#
#
#
# Elastic Compliance Matrix: (Units=1/GPa)
#
#
# Indices 1 2 3 4 5 6 
#
# 1 0.010991 -0.005663 -0.001456 0.000000 0.000000 0.000000
# 2 -0.005663 0.023035 -0.003808 0.000000 0.000000 0.000000
# 3 -0.001456 -0.003808 0.007784 0.000000 0.000000 0.000000
# 4 0.000000 0.000000 0.000000 0.041367 0.000000 0.000000
# 5 0.000000 0.000000 0.000000 0.000000 -0.039927 0.000000
# 6 0.000000 0.000000 0.000000 0.000000 0.000000 0.053127
#
#
# Mechanical properties :
#
#
# Convention : Reuss Voigt Hill
#
# Bulk Modulus (GPa) = 50.10891 59.68657 54.89774
# Shear Modulus (GPa) = 40.03702 18.04964 29.04333
#
# Velocity S-wave (km/s) = 4.60858 3.09436 3.92518
# Velocity P-wave (km/s) = 7.40951 6.66555 7.04735
#
# Compressibility (1/GPa) = 0.01995653
#
# Stress axis : x y z
#
# Youngs Moduli (GPa) = 90.98107 43.41154 128.46659
#
# Poissons Ratio (x) = 0.24585 0.18700
# Poissons Ratio (y) = 0.51525 0.48924
# Poissons Ratio (z) = 0.13244 0.16532
#
# Static dielectric constant tensor:
#      x y z
#    x 1.735460 0.000000 0.000000 
#    y 0.000000 1.633540 0.000000 
#    z 0.000000 0.000000 1.702950 
# 
# From -- ./inp_files/24049.got.cif
#   From: 2010.05.17/outbox.cif.g08.bks.cpg/sg64_13_cif.got.tgz:24049.got - 2010.06.03 16:29:19.
