data_PCOD9481509
_publ_section_title
;
Structure prediction by ZEFSAII (Michael W. Deem and Ramdas Pophale) SiO2 
 PCOD9481509
Probable space group: C M C A
;
_chemical_formula_sum "Si O2"
_cell_formula_units_Z 88
_cell_length_a 22.688729
_cell_length_b 7.676325
_cell_length_c 22.333380
_cell_angle_alpha 90.000000
_cell_angle_beta 90.000000
_cell_angle_gamma 90.000000
_cell_volume 3889.716748
_symmetry_space_group_name_H-M "C M C A"
_symmetry_group_IT_number 64
_symmetry_cell_setting 'orthorhombic'
loop_
_space_group_symop_operation_xyz
x,y,z
-x,1/2-y,1/2+z
x,-y,-z
-x,1/2+y,1/2-z
-x,-y,-z
x,1/2+y,1/2-z
-x,y,z
x,1/2-y,1/2+z
1/2+x,1/2+y,z
1/2-x,-y,1/2+z
1/2+x,1/2-y,-z
1/2-x,y,1/2-z
1/2-x,1/2-y,-z
1/2+x,y,1/2-z
1/2-x,1/2+y,z
1/2+x,-y,1/2+z
loop_
_atom_site_type_symbol
_atom_site_label
_atom_site_fract_x
_atom_site_fract_y
_atom_site_fract_z
Si Si1 0.326567 0.680568 0.352419
Si Si2 0.000000 0.136433 0.246665
Si Si3 0.500000 0.440497 0.351687
Si Si4 0.624093 0.673078 0.606515
Si Si5 0.374887 0.009298 0.302405
Si Si6 0.750000 0.878496 0.750000
Si Si7 0.182469 0.703457 0.511214
O O1 0.339126 0.476461 0.359549
O O2 0.266953 0.709132 0.313697
O O3 0.326852 0.748970 0.420058
O O4 0.373010 0.806851 0.320003
O O5 0.063058 0.050520 0.228507
O O6 0.000000 0.308135 0.205281
O O7 0.000000 0.127349 0.318933
O O8 0.557779 0.397510 0.388888
O O9 0.628931 0.855916 0.641982
O O10 0.645055 0.695456 0.538700
O O11 0.314289 0.037875 0.264644
O O12 0.172489 0.500000 0.500000
O O13 0.250000 0.750000 0.500000
#
# Coordination Sequence:
#
# PCOD9481509 Si02
#       7
#    16   8   8  16  16   8  16
#     4  12  27  44  73 105 150 194 242 314 380 446
#     4  10  24  44  69 100 148 203 243 306 381 440
#     4  10  24  44  73 105 151 194 252 310 368 461
#     4  11  25  47  72 108 142 194 248 303 376 446
#     4  11  26  45  67 107 146 190 247 310 368 451
#     4  12  28  42  70 110 150 190 248 308 380 448
#     4  12  25  48  74 104 147 194 251 310 377 450
#
# _framework density 22.623756
#
# number of rings (size 3 to 8) (size 9 to 14) (size 15 to 20)
#    0.000    0.727    1.818    4.364   15.273    0.000 
#    0.000    3.182    0.000    0.000    0.000    0.000 
#    0.000    0.000    0.000    0.000    0.000    0.000 
#
# Total GULP energy -245807.960890 kJ/mol
# GULP energy per Si atom -5586.544566 kJ/mol
# Density = 2.257226 g / cm^3
# Si number density = 22.623756 Si / 1000 Ang^3
#
#
#
# Elastic Constant Matrix: (Units=GPa)
#
#
# Indices 1 2 3 4 5 6 
#
# 1 151.1963 28.5432 79.1034 0.0000 0.0000 0.0000
# 2 28.5432 105.0448 38.6635 0.0000 0.0000 0.0000
# 3 79.1034 38.6635 158.5418 0.0000 0.0000 0.0000
# 4 0.0000 0.0000 0.0000 40.6803 0.0000 0.0000
# 5 0.0000 0.0000 0.0000 0.0000 29.6884 0.0000
# 6 0.0000 0.0000 0.0000 0.0000 0.0000 22.0793
#
#
#
# Elastic Compliance Matrix: (Units=1/GPa)
#
#
# Indices 1 2 3 4 5 6 
#
# 1 0.009023 -0.000873 -0.004289 0.000000 0.000000 0.000000
# 2 -0.000873 0.010543 -0.002135 0.000000 0.000000 0.000000
# 3 -0.004289 -0.002135 0.008968 0.000000 0.000000 0.000000
# 4 0.000000 0.000000 0.000000 0.024582 0.000000 0.000000
# 5 0.000000 0.000000 0.000000 0.000000 0.033683 0.000000
# 6 0.000000 0.000000 0.000000 0.000000 0.000000 0.045291
#
#
# Mechanical properties :
#
#
# Convention : Reuss Voigt Hill
#
# Bulk Modulus (GPa) = 71.74168 78.60036 75.17102
# Shear Modulus (GPa) = 33.04011 36.38779 34.71395
#
# Velocity S-wave (km/s) = 3.82569 4.01482 3.92139
# Velocity P-wave (km/s) = 7.16199 7.50397 7.33497
#
# Compressibility (1/GPa) = 0.01393890
#
# Stress axis : x y z
#
# Youngs Moduli (GPa) = 110.83284 94.84979 111.50556
#
# Poissons Ratio (x) = 0.08281 0.47823
# Poissons Ratio (y) = 0.09677 0.23812
# Poissons Ratio (z) = 0.47535 0.20255
#
# Static dielectric constant tensor:
#      x y z
#    x 1.808420 0.000000 0.000000 
#    y 0.000000 2.192930 0.000000 
#    z 0.000000 0.000000 1.686560 
# 
# From -- ./inp_files/46242.got.cif
#   From: 2010.05.17/outbox.cif.g08.bks.cpg/sg64_24_cif.got.tgz:46242.got - 2010.06.03 16:29:19.
