data_PCOD9481825
_publ_section_title
;
Structure prediction by ZEFSAII (Michael W. Deem and Ramdas Pophale) SiO2 
 PCOD9481825
Probable space group: C M C A
;
_chemical_formula_sum "Si O2"
_cell_formula_units_Z 64
_cell_length_a 11.911729
_cell_length_b 14.279358
_cell_length_c 13.877372
_cell_angle_alpha 90.000000
_cell_angle_beta 90.000000
_cell_angle_gamma 90.000000
_cell_volume 2360.427777
_symmetry_space_group_name_H-M "C M C A"
_symmetry_group_IT_number 64
_symmetry_cell_setting 'orthorhombic'
loop_
_space_group_symop_operation_xyz
x,y,z
-x,1/2-y,1/2+z
x,-y,-z
-x,1/2+y,1/2-z
-x,-y,-z
x,1/2+y,1/2-z
-x,y,z
x,1/2-y,1/2+z
1/2+x,1/2+y,z
1/2-x,-y,1/2+z
1/2+x,1/2-y,-z
1/2-x,y,1/2-z
1/2-x,1/2-y,-z
1/2+x,y,1/2-z
1/2-x,1/2+y,z
1/2+x,-y,1/2+z
loop_
_atom_site_type_symbol
_atom_site_label
_atom_site_fract_x
_atom_site_fract_y
_atom_site_fract_z
Si Si1 0.000000 0.165287 0.209749
Si Si2 0.250000 0.265587 0.750000
Si Si3 0.000000 0.364919 0.957142
Si Si4 0.186074 0.393486 0.119922
Si Si5 0.669105 0.500000 0.000000
Si Si6 0.000000 0.014126 0.720255
Si Si7 0.000000 0.168509 0.001344
O O1 0.872909 0.184170 0.249935
O O2 0.000000 0.215857 0.106752
O O3 0.000000 0.060712 0.369671
O O4 0.246244 0.200065 0.654516
O O5 0.891389 0.380690 0.025139
O O6 0.000000 0.255290 0.929002
O O7 0.105931 0.420505 0.208471
O O8 0.257593 0.485372 0.095455
O O9 0.603377 0.597456 0.997743
O O10 0.000000 0.946936 0.810443
#
# Coordination Sequence:
#
# PCOD9481825 Si02
#       7
#     8   8   8  16   8   8   8
#     4  12  29  48  69 109 144 193 239 294 370 427
#     4  12  28  46  72 106 148 190 242 302 360 428
#     4  11  21  47  69  99 138 186 240 291 351 432
#     4  11  23  45  69 101 139 187 240 290 358 429
#     4  11  26  43  72 100 136 189 236 305 356 413
#     4  11  25  41  73 105 143 191 239 292 364 437
#     4  11  27  46  65 103 144 177 244 302 354 424
#
# _framework density 27.113731000000001
#
# number of rings (size 3 to 8) (size 9 to 14) (size 15 to 20)
#    0.000    0.750    5.000    1.500   10.500    2.000 
#    0.000    0.000    0.000    0.000    0.000    0.000 
#    0.000    0.000    0.000    0.000    0.000    0.000 
#
# Total GULP energy -178932.343838 kJ/mol
# GULP energy per Si atom -5591.635745 kJ/mol
# Density = 2.705202 g / cm^3
# Si number density = 27.113731 Si / 1000 Ang^3
#
#
#
# Elastic Constant Matrix: (Units=GPa)
#
#
# Indices 1 2 3 4 5 6 
#
# 1 149.1009 45.0128 15.1930 0.0000 0.0000 0.0000
# 2 45.0128 111.7083 -15.9207 0.0000 0.0000 0.0000
# 3 15.1930 -15.9207 46.6142 0.0000 0.0000 0.0000
# 4 0.0000 0.0000 0.0000 48.3209 0.0000 0.0000
# 5 0.0000 0.0000 0.0000 0.0000 23.6164 0.0000
# 6 0.0000 0.0000 0.0000 0.0000 0.0000 139.4290
#
#
#
# Elastic Compliance Matrix: (Units=1/GPa)
#
#
# Indices 1 2 3 4 5 6 
#
# 1 0.008303 -0.003922 -0.004046 0.000000 0.000000 0.000000
# 2 -0.003922 0.011263 0.005125 0.000000 0.000000 0.000000
# 3 -0.004046 0.005125 0.024522 0.000000 0.000000 0.000000
# 4 0.000000 0.000000 0.000000 0.020695 0.000000 0.000000
# 5 0.000000 0.000000 0.000000 0.000000 0.042343 0.000000
# 6 0.000000 0.000000 0.000000 0.000000 0.000000 0.007172
#
#
# Mechanical properties :
#
#
# Convention : Reuss Voigt Hill
#
# Bulk Modulus (GPa) = 26.04060 43.99930 35.01995
# Shear Modulus (GPa) = 37.65468 59.81580 48.73524
#
# Velocity S-wave (km/s) = 3.73066 4.70202 4.24422
# Velocity P-wave (km/s) = 5.30869 6.76325 6.07963
#
# Compressibility (1/GPa) = 0.03840157
#
# Stress axis : x y z
#
# Youngs Moduli (GPa) = 120.43391 88.78724 40.77991
#
# Poissons Ratio (x) = 0.34826 0.16499
# Poissons Ratio (y) = 0.47240 -0.20900
# Poissons Ratio (z) = 0.48727 -0.45505
#
# Static dielectric constant tensor:
#      x y z
#    x 2.207740 0.000000 0.000000 
#    y 0.000000 2.047310 0.000000 
#    z 0.000000 0.000000 2.217990 
# 
# From -- ./inp_files/30530.got.cif
#   From: 2010.05.17/outbox.cif.g08.bks.cpg/sg64_16_cif.got.tgz:30530.got - 2010.06.03 16:29:19.
