data_PCOD9481479
_publ_section_title
;
Structure prediction by ZEFSAII (Michael W. Deem and Ramdas Pophale) SiO2 
 PCOD9481479
Probable space group: C M C A
;
_chemical_formula_sum "Si O2"
_cell_formula_units_Z 88
_cell_length_a 22.455585
_cell_length_b 14.362737
_cell_length_c 11.653241
_cell_angle_alpha 90.000000
_cell_angle_beta 90.000000
_cell_angle_gamma 90.000000
_cell_volume 3758.445956
_symmetry_space_group_name_H-M "C M C A"
_symmetry_group_IT_number 64
_symmetry_cell_setting 'orthorhombic'
loop_
_space_group_symop_operation_xyz
x,y,z
-x,1/2-y,1/2+z
x,-y,-z
-x,1/2+y,1/2-z
-x,-y,-z
x,1/2+y,1/2-z
-x,y,z
x,1/2-y,1/2+z
1/2+x,1/2+y,z
1/2-x,-y,1/2+z
1/2+x,1/2-y,-z
1/2-x,y,1/2-z
1/2-x,1/2-y,-z
1/2+x,y,1/2-z
1/2-x,1/2+y,z
1/2+x,-y,1/2+z
loop_
_atom_site_type_symbol
_atom_site_label
_atom_site_fract_x
_atom_site_fract_y
_atom_site_fract_z
Si Si1 0.000000 0.013907 0.754689
Si Si2 0.500000 0.203718 0.290058
Si Si3 0.273347 0.493095 0.874884
Si Si4 0.401091 0.789085 0.897321
Si Si5 0.262374 0.709073 0.373057
Si Si6 0.500000 0.876320 0.038319
Si Si7 0.098812 0.579242 0.586285
O O1 0.000000 0.034858 0.620236
O O2 0.057928 0.065356 0.803598
O O3 0.000000 0.908398 0.799990
O O4 0.439936 0.221732 0.217487
O O5 0.500000 0.278814 0.389782
O O6 0.250000 0.521925 0.750000
O O7 0.279405 0.381876 0.864353
O O8 0.333517 0.550719 0.890354
O O9 0.240459 0.500000 0.000000
O O10 0.332783 0.814267 0.875487
O O11 0.403154 0.685721 0.953931
O O12 0.439006 0.864122 0.967441
O O13 0.250000 0.760208 0.250000
O O14 0.250000 0.750000 0.500000
O O15 0.076078 0.500000 0.500000
#
# Coordination Sequence:
#
# PCOD9481479 Si02
#       7
#     8   8  16  16  16   8  16
#     4  12  24  38  76 101 139 188 231 300 382 431
#     4  11  25  44  68 108 142 184 241 308 367 460
#     4  10  24  43  67 100 144 186 250 302 360 441
#     4  11  25  44  70 101 149 184 241 307 370 443
#     4  11  26  44  71 105 144 196 243 303 373 441
#     4  11  24  47  70 109 144 185 247 307 379 453
#     4  11  22  43  70 102 133 189 244 296 362 449
#
# _framework density 23.413933
#
# number of rings (size 3 to 8) (size 9 to 14) (size 15 to 20)
#    0.000    1.091    1.818    4.091    7.636    5.818 
#    0.000    0.000    0.000    0.000    0.000    0.000 
#    0.000    0.000    0.000    0.000    0.000    0.000 
#
# Total GULP energy -245498.545459 kJ/mol
# GULP energy per Si atom -5579.512397 kJ/mol
# Density = 2.336064 g / cm^3
# Si number density = 23.413933 Si / 1000 Ang^3
#
#
#
# Elastic Constant Matrix: (Units=GPa)
#
#
# Indices 1 2 3 4 5 6 
#
# 1 127.0056 5.7945 46.8157 0.0000 0.0000 0.0000
# 2 5.7945 123.3585 7.2479 0.0000 0.0000 0.0000
# 3 46.8157 7.2479 158.5289 0.0000 0.0000 0.0000
# 4 0.0000 0.0000 0.0000 40.2411 0.0000 0.0000
# 5 0.0000 0.0000 0.0000 0.0000 2.5551 0.0000
# 6 0.0000 0.0000 0.0000 0.0000 0.0000 37.3974
#
#
#
# Elastic Compliance Matrix: (Units=1/GPa)
#
#
# Indices 1 2 3 4 5 6 
#
# 1 0.008844 -0.000263 -0.002600 0.000000 0.000000 0.000000
# 2 -0.000263 0.008136 -0.000294 0.000000 0.000000 0.000000
# 3 -0.002600 -0.000294 0.007089 0.000000 0.000000 0.000000
# 4 0.000000 0.000000 0.000000 0.024850 0.000000 0.000000
# 5 0.000000 0.000000 0.000000 0.000000 0.391369 0.000000
# 6 0.000000 0.000000 0.000000 0.000000 0.000000 0.026740
#
#
# Mechanical properties :
#
#
# Convention : Reuss Voigt Hill
#
# Bulk Modulus (GPa) = 56.32025 58.73436 57.52731
# Shear Modulus (GPa) = 10.43275 39.30771 24.87023
#
# Velocity S-wave (km/s) = 2.11316 4.10178 3.26267
# Velocity P-wave (km/s) = 5.48273 6.89728 6.23028
#
# Compressibility (1/GPa) = 0.01775560
#
# Stress axis : x y z
#
# Youngs Moduli (GPa) = 113.07176 122.90912 141.05984
#
# Poissons Ratio (x) = 0.03229 0.36672
# Poissons Ratio (y) = 0.02970 0.04153
# Poissons Ratio (z) = 0.29396 0.03618
#
# Static dielectric constant tensor:
#      x y z
#    x 1.813020 0.000000 0.000000 
#    y 0.000000 1.932700 0.000000 
#    z 0.000000 0.000000 2.021260 
# 
# From -- ./inp_files/18261.got.cif
#   From: 2010.05.17/outbox.cif.g08.bks.cpg/sg64_10_cif.got.tgz:18261.got - 2010.06.03 16:29:19.
