data_PCOD9481386
_publ_section_title
;
Structure prediction by ZEFSAII (Michael W. Deem and Ramdas Pophale) SiO2 
 PCOD9481386
Probable space group: C M C A
;
_chemical_formula_sum "Si O2"
_cell_formula_units_Z 32
_cell_length_a 7.806565
_cell_length_b 10.842151
_cell_length_c 17.212631
_cell_angle_alpha 90.000000
_cell_angle_beta 90.000000
_cell_angle_gamma 90.000000
_cell_volume 1456.876339
_symmetry_space_group_name_H-M "C M C A"
_symmetry_group_IT_number 64
_symmetry_cell_setting 'orthorhombic'
loop_
_space_group_symop_operation_xyz
x,y,z
-x,1/2-y,1/2+z
x,-y,-z
-x,1/2+y,1/2-z
-x,-y,-z
x,1/2+y,1/2-z
-x,y,z
x,1/2-y,1/2+z
1/2+x,1/2+y,z
1/2-x,-y,1/2+z
1/2+x,1/2-y,-z
1/2-x,y,1/2-z
1/2-x,1/2-y,-z
1/2+x,y,1/2-z
1/2-x,1/2+y,z
1/2+x,-y,1/2+z
loop_
_atom_site_type_symbol
_atom_site_label
_atom_site_fract_x
_atom_site_fract_y
_atom_site_fract_z
Si Si1 0.500000 0.883512 0.442147
Si Si2 0.692492 0.035761 0.337949
Si Si3 0.000000 0.384426 0.942115
O O1 0.660521 0.907874 0.384952
O O2 0.500000 0.750776 0.479944
O O3 0.500000 0.000000 0.500000
O O4 0.500000 0.091787 0.337318
O O5 0.750000 0.017205 0.250000
O O6 0.833873 0.106502 0.387097
O O7 0.000000 0.500000 0.000000
#
# Coordination Sequence:
#
# PCOD9481386 Si02
#       3
#     8  16   8
#     4  10  25  46  68 106 140 182 237 280 344 430
#     4  10  23  47  67 102 142 178 232 287 351 418
#     4  12  25  44  76 100 140 192 223 292 354 400
#
# _framework density 21.964801999999999
#
# number of rings (size 3 to 8) (size 9 to 14) (size 15 to 20)
#    1.500    0.000    2.500    1.500    0.000   10.000 
#    4.500    0.000    0.000    0.000    0.000    0.000 
#    0.000    0.000    0.000    0.000    0.000    0.000 
#
# Total GULP energy -89179.379468 kJ/mol
# GULP energy per Si atom -5573.711217 kJ/mol
# Density = 2.191481 g / cm^3
# Si number density = 21.964802 Si / 1000 Ang^3
#
#
#
# Elastic Constant Matrix: (Units=GPa)
#
#
# Indices 1 2 3 4 5 6 
#
# 1 160.1192 40.2366 48.7786 0.0000 0.0000 0.0000
# 2 40.2366 164.5185 74.4612 0.0000 0.0000 0.0000
# 3 48.7786 74.4612 158.6248 0.0000 0.0000 0.0000
# 4 0.0000 0.0000 0.0000 18.7421 0.0000 0.0000
# 5 0.0000 0.0000 0.0000 0.0000 32.1333 0.0000
# 6 0.0000 0.0000 0.0000 0.0000 0.0000 4.1621
#
#
#
# Elastic Compliance Matrix: (Units=1/GPa)
#
#
# Indices 1 2 3 4 5 6 
#
# 1 0.007003 -0.000937 -0.001714 0.000000 0.000000 0.000000
# 2 -0.000937 0.007844 -0.003394 0.000000 0.000000 0.000000
# 3 -0.001714 -0.003394 0.008424 0.000000 0.000000 0.000000
# 4 0.000000 0.000000 0.000000 0.053356 0.000000 0.000000
# 5 0.000000 0.000000 0.000000 0.000000 0.031120 0.000000
# 6 0.000000 0.000000 0.000000 0.000000 0.000000 0.240264
#
#
# Mechanical properties :
#
#
# Convention : Reuss Voigt Hill
#
# Bulk Modulus (GPa) = 89.43113 90.02392 89.72752
# Shear Modulus (GPa) = 13.74279 32.32657 23.03468
#
# Velocity S-wave (km/s) = 2.50406 3.84049 3.24189
# Velocity P-wave (km/s) = 7.01174 7.79361 7.41299
#
# Compressibility (1/GPa) = 0.01118179
#
# Stress axis : x y z
#
# Youngs Moduli (GPa) = 142.79888 127.49348 118.70598
#
# Poissons Ratio (x) = 0.11948 0.20341
# Poissons Ratio (y) = 0.13382 0.40285
# Poissons Ratio (z) = 0.24469 0.43268
#
# Static dielectric constant tensor:
#      x y z
#    x 1.874400 0.000000 0.000000 
#    y 0.000000 1.805040 0.000000 
#    z 0.000000 0.000000 1.829470 
# 
# From -- ./inp_files/20220.got.cif
#   From: 2010.05.17/outbox.cif.g08.bks.cpg/sg64_11_cif.got.tgz:20220.got - 2010.06.03 16:29:19.
