data_PCOD9481284
_publ_section_title
;
Structure prediction by ZEFSAII (Michael W. Deem and Ramdas Pophale) SiO2 
 PCOD9481284
Probable space group: C M C A
;
_chemical_formula_sum "Si O2"
_cell_formula_units_Z 56
_cell_length_a 13.606194
_cell_length_b 18.318651
_cell_length_c 11.074521
_cell_angle_alpha 90.000000
_cell_angle_beta 90.000000
_cell_angle_gamma 90.000000
_cell_volume 2760.292457
_symmetry_space_group_name_H-M "C M C A"
_symmetry_group_IT_number 64
_symmetry_cell_setting 'orthorhombic'
loop_
_space_group_symop_operation_xyz
x,y,z
-x,1/2-y,1/2+z
x,-y,-z
-x,1/2+y,1/2-z
-x,-y,-z
x,1/2+y,1/2-z
-x,y,z
x,1/2-y,1/2+z
1/2+x,1/2+y,z
1/2-x,-y,1/2+z
1/2+x,1/2-y,-z
1/2-x,y,1/2-z
1/2-x,1/2-y,-z
1/2+x,y,1/2-z
1/2-x,1/2+y,z
1/2+x,-y,1/2+z
loop_
_atom_site_type_symbol
_atom_site_label
_atom_site_fract_x
_atom_site_fract_y
_atom_site_fract_z
Si Si1 0.614495 0.224311 0.883512
Si Si2 0.750000 0.022565 0.250000
Si Si3 0.746039 0.645971 0.058368
Si Si4 0.385676 0.394930 0.172034
O O1 0.500000 0.242791 0.898380
O O2 0.681387 0.295587 0.867552
O O3 0.624325 0.168560 0.772156
O O4 0.658201 0.184836 0.002656
O O5 0.767594 0.075110 0.363448
O O6 0.658455 0.969287 0.274087
O O7 0.678861 0.624893 0.943802
O O8 0.500000 0.402233 0.140931
#
# Coordination Sequence:
#
# PCOD9481284 Si02
#       4
#    16   8  16  16
#     4  10  23  42  69  96 124 172 227 276 326 384
#     4  12  26  40  64 100 132 178 216 260 334 396
#     4  11  24  42  67  97 134 174 217 278 331 388
#     4  11  24  45  68  96 135 175 219 272 332 394
#
# _framework density 20.287704000000002
#
# number of rings (size 3 to 8) (size 9 to 14) (size 15 to 20)
#    0.000    1.143    2.857    1.714    8.000    4.571 
#    0.000    2.857    0.000    0.000    0.000    0.000 
#    0.000    0.000    0.000    0.000    0.000    0.000 
#
# Total GULP energy -156708.117555 kJ/mol
# GULP energy per Si atom -5596.718484 kJ/mol
# Density = 2.024153 g / cm^3
# Si number density = 20.287704 Si / 1000 Ang^3
#
#
#
# Elastic Constant Matrix: (Units=GPa)
#
#
# Indices 1 2 3 4 5 6 
#
# 1 74.4983 16.6991 29.5147 0.0000 0.0000 0.0000
# 2 16.6991 110.5056 34.1769 0.0000 0.0000 0.0000
# 3 29.5147 34.1769 60.2474 0.0000 0.0000 0.0000
# 4 0.0000 0.0000 0.0000 32.6617 0.0000 0.0000
# 5 0.0000 0.0000 0.0000 0.0000 18.8985 0.0000
# 6 0.0000 0.0000 0.0000 0.0000 0.0000 -76.7597
#
#
#
# Elastic Compliance Matrix: (Units=1/GPa)
#
#
# Indices 1 2 3 4 5 6 
#
# 1 0.016656 0.000008 -0.008164 0.000000 0.000000 0.000000
# 2 0.000008 0.010975 -0.006230 0.000000 0.000000 0.000000
# 3 -0.008164 -0.006230 0.024132 0.000000 0.000000 0.000000
# 4 0.000000 0.000000 0.000000 0.030617 0.000000 0.000000
# 5 0.000000 0.000000 0.000000 0.000000 0.052914 0.000000
# 6 0.000000 0.000000 0.000000 0.000000 0.000000 -0.013028
#
#
# Mechanical properties :
#
#
# Convention : Reuss Voigt Hill
#
# Bulk Modulus (GPa) = 43.49564 45.11473 44.30518
# Shear Modulus (GPa) = 31.50584 5.95081 18.72832
#
# Velocity S-wave (km/s) = 3.94503 1.71452 3.04161
# Velocity P-wave (km/s) = 6.49899 5.11910 5.84988
#
# Compressibility (1/GPa) = 0.02299081
#
# Stress axis : x y z
#
# Youngs Moduli (GPa) = 60.03932 91.11782 41.43929
#
# Poissons Ratio (x) = -0.00073 0.33831
# Poissons Ratio (y) = -0.00048 0.25815
# Poissons Ratio (z) = 0.49016 0.56763
#
# Static dielectric constant tensor:
#      x y z
#    x 1.689510 0.000000 0.000000 
#    y 0.000000 1.705310 0.000000 
#    z 0.000000 0.000000 1.737420 
# 
# From -- ./inp_files/13951.got.cif
#   From: 2010.05.17/outbox.cif.g08.bks.cpg/sg64_7_cif.got.tgz:13951.got - 2010.06.03 16:29:19.
