data_PCOD9481495
_publ_section_title
;
Structure prediction by ZEFSAII (Michael W. Deem and Ramdas Pophale) SiO2 
 PCOD9481495
Probable space group: C M C A
;
_chemical_formula_sum "Si O2"
_cell_formula_units_Z 88
_cell_length_a 24.064472
_cell_length_b 22.673195
_cell_length_c 8.018209
_cell_angle_alpha 90.000000
_cell_angle_beta 90.000000
_cell_angle_gamma 90.000000
_cell_volume 4374.882896
_symmetry_space_group_name_H-M "C M C A"
_symmetry_group_IT_number 64
_symmetry_cell_setting 'orthorhombic'
loop_
_space_group_symop_operation_xyz
x,y,z
-x,1/2-y,1/2+z
x,-y,-z
-x,1/2+y,1/2-z
-x,-y,-z
x,1/2+y,1/2-z
-x,y,z
x,1/2-y,1/2+z
1/2+x,1/2+y,z
1/2-x,-y,1/2+z
1/2+x,1/2-y,-z
1/2-x,y,1/2-z
1/2-x,1/2-y,-z
1/2+x,y,1/2-z
1/2-x,1/2+y,z
1/2+x,-y,1/2+z
loop_
_atom_site_type_symbol
_atom_site_label
_atom_site_fract_x
_atom_site_fract_y
_atom_site_fract_z
Si Si1 0.500000 0.602721 0.452023
Si Si2 0.727429 0.313601 0.060749
Si Si3 0.901308 0.344671 0.507456
Si Si4 0.500000 0.796672 0.700487
Si Si5 0.250000 0.603077 0.250000
Si Si6 0.359773 0.536667 0.169476
Si Si7 0.586993 0.500000 0.500000
Si Si8 0.500000 0.167436 0.720521
O O1 0.500000 0.638845 0.283173
O O2 0.551181 0.559175 0.479689
O O3 0.500000 0.654033 0.586942
O O4 0.750000 0.324254 0.250000
O O5 0.750000 0.250000 0.000000
O O6 0.659658 0.320817 0.047693
O O7 0.750410 0.358015 0.918742
O O8 0.939896 0.298105 0.607840
O O9 0.892520 0.403864 0.615581
O O10 0.943973 0.359078 0.358014
O O11 0.500000 0.737546 0.806286
O O12 0.302720 0.561928 0.237742
O O13 0.382875 0.498027 0.321675
O O14 0.353614 0.500000 0.000000
#
# Coordination Sequence:
#
# PCOD9481495 Si02
#       8
#     8  16  16   8   8  16   8   8
#     4  11  22  41  66 105 126 179 237 271 349 421
#     4  11  24  45  72 100 137 186 225 278 341 412
#     4  10  24  44  61  98 138 170 227 282 340 408
#     4  11  22  44  63  99 142 171 224 291 338 424
#     4  10  26  44  66 104 136 172 240 286 342 416
#     4  11  24  44  67  95 134 180 228 292 344 402
#     4  11  24  42  72  96 136 180 232 287 340 422
#     4  11  24  39  69  99 134 185 216 281 359 405
#
# _framework density 20.114823999999999
#
# number of rings (size 3 to 8) (size 9 to 14) (size 15 to 20)
#    0.000    1.273    2.727    2.182    3.818    4.364 
#    1.636    2.727    0.000    0.000    0.000    0.000 
#    0.000    0.000    0.000    0.000    0.000    0.000 
#
# Total GULP energy -245138.495904 kJ/mol
# GULP energy per Si atom -5571.329452 kJ/mol
# Density = 2.006904 g / cm^3
# Si number density = 20.114824 Si / 1000 Ang^3
#
#
#
# Elastic Constant Matrix: (Units=GPa)
#
#
# Indices 1 2 3 4 5 6 
#
# 1 152.9021 52.2555 81.9995 0.0000 0.0000 0.0000
# 2 52.2555 70.5444 34.8868 0.0000 0.0000 0.0000
# 3 81.9995 34.8868 135.2646 0.0000 0.0000 0.0000
# 4 0.0000 0.0000 0.0000 42.4813 0.0000 0.0000
# 5 0.0000 0.0000 0.0000 0.0000 23.0743 0.0000
# 6 0.0000 0.0000 0.0000 0.0000 0.0000 -29.6230
#
#
#
# Elastic Compliance Matrix: (Units=1/GPa)
#
#
# Indices 1 2 3 4 5 6 
#
# 1 0.011432 -0.005778 -0.005440 0.000000 0.000000 0.000000
# 2 -0.005778 0.019168 -0.001441 0.000000 0.000000 0.000000
# 3 -0.005440 -0.001441 0.011063 0.000000 0.000000 0.000000
# 4 0.000000 0.000000 0.000000 0.023540 0.000000 0.000000
# 5 0.000000 0.000000 0.000000 0.000000 0.043338 0.000000
# 6 0.000000 0.000000 0.000000 0.000000 0.000000 -0.033758
#
#
# Mechanical properties :
#
#
# Convention : Reuss Voigt Hill
#
# Bulk Modulus (GPa) = 61.18285 77.44388 69.31336
# Shear Modulus (GPa) = 47.37076 19.82447 33.59762
#
# Velocity S-wave (km/s) = 4.85812 3.14278 4.09135
# Velocity P-wave (km/s) = 7.87091 7.19402 7.54006
#
# Compressibility (1/GPa) = 0.01634445
#
# Stress axis : x y z
#
# Youngs Moduli (GPa) = 87.47104 52.16976 90.39537
#
# Poissons Ratio (x) = 0.30144 0.49177
# Poissons Ratio (y) = 0.50542 0.13026
# Poissons Ratio (z) = 0.47586 0.07518
#
# Static dielectric constant tensor:
#      x y z
#    x 1.603220 0.000000 0.000000 
#    y 0.000000 1.690560 0.000000 
#    z 0.000000 0.000000 1.879790 
# 
# From -- ./inp_files/9424.got.cif
#   From: 2010.05.17/outbox.cif.g08.bks.cpg/sg64_5_cif.got.tgz:9424.got - 2010.06.03 16:29:19.
