data_PCOD9481372
_publ_section_title
;
Structure prediction by ZEFSAII (Michael W. Deem and Ramdas Pophale) SiO2 
 PCOD9481372
Probable space group: C M C A
;
_chemical_formula_sum "Si O2"
_cell_formula_units_Z 64
_cell_length_a 24.785135
_cell_length_b 5.114865
_cell_length_c 19.708453
_cell_angle_alpha 90.000000
_cell_angle_beta 90.000000
_cell_angle_gamma 90.000000
_cell_volume 2498.492214
_symmetry_space_group_name_H-M "C M C A"
_symmetry_group_IT_number 64
_symmetry_cell_setting 'orthorhombic'
loop_
_space_group_symop_operation_xyz
x,y,z
-x,1/2-y,1/2+z
x,-y,-z
-x,1/2+y,1/2-z
-x,-y,-z
x,1/2+y,1/2-z
-x,y,z
x,1/2-y,1/2+z
1/2+x,1/2+y,z
1/2-x,-y,1/2+z
1/2+x,1/2-y,-z
1/2-x,y,1/2-z
1/2-x,1/2-y,-z
1/2+x,y,1/2-z
1/2-x,1/2+y,z
1/2+x,-y,1/2+z
loop_
_atom_site_type_symbol
_atom_site_label
_atom_site_fract_x
_atom_site_fract_y
_atom_site_fract_z
Si Si1 0.160654 0.017950 0.422705
Si Si2 0.690796 0.304844 0.719727
Si Si3 0.096885 0.482824 0.614007
Si Si4 0.500000 0.817692 0.291640
Si Si5 0.000000 0.254210 0.045563
O O1 0.194595 0.134344 0.359210
O O2 0.115835 0.254946 0.426203
O O3 0.181785 0.000000 0.500000
O O4 0.146488 0.726744 0.393618
O O5 0.661995 0.534827 0.761428
O O6 0.750000 0.261577 0.750000
O O7 0.053737 0.272603 0.586854
O O8 0.056051 0.613882 0.669675
O O9 0.500000 0.514814 0.271967
O O10 0.000000 0.500000 0.000000
O O11 0.000000 0.000000 0.000000
#
# Coordination Sequence:
#
# PCOD9481372 Si02
#       5
#    16  16  16   8   8
#     4  12  24  41  66 100 134 172 223 282 340 402
#     4  10  23  45  69  96 129 168 215 270 344 420
#     4  11  24  38  59  92 130 173 224 278 325 379
#     4  11  24  41  59  88 131 186 236 272 320 385
#     4  11  20  35  56  80 122 174 210 252 313 377
#
# _framework density 25.615452000000001
#
# number of rings (size 3 to 8) (size 9 to 14) (size 15 to 20)
#    0.000    1.000    0.000    7.500    0.000   10.000 
#    0.000    6.875    0.000    0.000    0.000    0.000 
#    0.000    0.000    0.000    0.000    0.000    0.000 
#
# Total GULP energy -178155.326830 kJ/mol
# GULP energy per Si atom -5567.353963 kJ/mol
# Density = 2.555715 g / cm^3
# Si number density = 25.615452 Si / 1000 Ang^3
#
#
#
# Elastic Constant Matrix: (Units=GPa)
#
#
# Indices 1 2 3 4 5 6 
#
# 1 14.5430 -20.9499 13.9991 0.0000 0.0000 0.0000
# 2 -20.9499 171.6643 12.6475 0.0000 0.0000 0.0000
# 3 13.9991 12.6475 153.6302 0.0000 0.0000 0.0000
# 4 0.0000 0.0000 0.0000 53.2019 0.0000 0.0000
# 5 0.0000 0.0000 0.0000 0.0000 -22.9626 0.0000
# 6 0.0000 0.0000 0.0000 0.0000 0.0000 185.4358
#
#
#
# Elastic Compliance Matrix: (Units=1/GPa)
#
#
# Indices 1 2 3 4 5 6 
#
# 1 0.096115 0.012451 -0.009783 0.000000 0.000000 0.000000
# 2 0.012451 0.007474 -0.001750 0.000000 0.000000 0.000000
# 3 -0.009783 -0.001750 0.007545 0.000000 0.000000 0.000000
# 4 0.000000 0.000000 0.000000 0.018796 0.000000 0.000000
# 5 0.000000 0.000000 0.000000 0.000000 -0.043549 0.000000
# 6 0.000000 0.000000 0.000000 0.000000 0.000000 0.005393
#
#
# Mechanical properties :
#
#
# Convention : Reuss Voigt Hill
#
# Bulk Modulus (GPa) = 8.85201 39.02563 23.93882
# Shear Modulus (GPa) = 39.18672 65.41105 52.29889
#
# Velocity S-wave (km/s) = 3.91552 5.05878 4.52341
# Velocity P-wave (km/s) = 4.88927 7.02779 6.05371
#
# Compressibility (1/GPa) = 0.11296873
#
# Stress axis : x y z
#
# Youngs Moduli (GPa) = 10.40421 133.80217 132.54425
#
# Poissons Ratio (x) = -1.66592 1.29670
# Poissons Ratio (y) = -0.12954 0.23193
# Poissons Ratio (z) = 0.10179 0.23413
#
# Static dielectric constant tensor:
#      x y z
#    x 2.917900 0.000000 0.000000 
#    y 0.000000 2.115680 0.000000 
#    z 0.000000 0.000000 2.018690 
# 
# From -- ./inp_files/35643.got.cif
#   From: 2010.05.17/outbox.cif.g08.bks.cpg/sg64_18_cif.got.tgz:35643.got - 2010.06.03 16:29:19.
