data_PCOD9481894
_publ_section_title
;
Structure prediction by ZEFSAII (Michael W. Deem and Ramdas Pophale) SiO2 
 PCOD9481894
Probable space group: C M C A
;
_chemical_formula_sum "Si O2"
_cell_formula_units_Z 96
_cell_length_a 16.875919
_cell_length_b 14.308495
_cell_length_c 19.350134
_cell_angle_alpha 90.000000
_cell_angle_beta 90.000000
_cell_angle_gamma 90.000000
_cell_volume 4672.457558
_symmetry_space_group_name_H-M "C M C A"
_symmetry_group_IT_number 64
_symmetry_cell_setting 'orthorhombic'
loop_
_space_group_symop_operation_xyz
x,y,z
-x,1/2-y,1/2+z
x,-y,-z
-x,1/2+y,1/2-z
-x,-y,-z
x,1/2+y,1/2-z
-x,y,z
x,1/2-y,1/2+z
1/2+x,1/2+y,z
1/2-x,-y,1/2+z
1/2+x,1/2-y,-z
1/2-x,y,1/2-z
1/2-x,1/2-y,-z
1/2+x,y,1/2-z
1/2-x,1/2+y,z
1/2+x,-y,1/2+z
loop_
_atom_site_type_symbol
_atom_site_label
_atom_site_fract_x
_atom_site_fract_y
_atom_site_fract_z
Si Si1 0.657026 0.534985 0.231176
Si Si2 0.091320 0.223063 0.461988
Si Si3 0.344009 0.844091 0.348073
Si Si4 0.592206 0.028205 0.114643
Si Si5 0.333642 0.160573 0.904549
Si Si6 0.907120 0.233278 0.217883
O O1 0.750000 0.534967 0.250000
O O2 0.641539 0.447652 0.181216
O O3 0.610646 0.526300 0.303714
O O4 0.630532 0.633399 0.199752
O O5 0.103707 0.311481 0.412635
O O6 0.149597 0.219611 0.526982
O O7 0.000000 0.217436 0.485614
O O8 0.108083 0.130673 0.415898
O O9 0.253673 0.833529 0.373049
O O10 0.363030 0.775277 0.284467
O O11 0.500000 0.007589 0.102141
O O12 0.644505 0.947041 0.080929
O O13 0.392679 0.196931 0.845241
O O14 0.000000 0.223434 0.233555
#
# Coordination Sequence:
#
# PCOD9481894 Si02
#       6
#    16  16  16  16  16  16
#     4  12  23  42  66  98 132 170 219 272 331 392
#     4  11  25  44  68  98 134 174 221 274 331 395
#     4  12  24  43  66  98 131 175 219 271 333 395
#     4  11  22  40  69  99 132 172 219 275 329 383
#     4  12  24  43  66  98 135 174 222 273 331 393
#     4  12  25  41  68  97 132 176 221 277 332 393
#
# _framework density 20.545932000000001
#
# number of rings (size 3 to 8) (size 9 to 14) (size 15 to 20)
#    0.000    0.333    5.000    5.000    0.000    3.333 
#    0.000    0.833    0.000    2.000    0.000    0.000 
#    0.000    0.000    0.000    0.000    0.000    0.000 
#
# Total GULP energy -268640.013556 kJ/mol
# GULP energy per Si atom -5596.666949 kJ/mol
# Density = 2.049917 g / cm^3
# Si number density = 20.545932 Si / 1000 Ang^3
#
#
#
# Elastic Constant Matrix: (Units=GPa)
#
#
# Indices 1 2 3 4 5 6 
#
# 1 81.6903 37.1652 33.0290 0.0000 0.0000 0.0000
# 2 37.1652 91.9947 17.5009 0.0000 0.0000 0.0000
# 3 33.0290 17.5009 91.2907 0.0000 0.0000 0.0000
# 4 0.0000 0.0000 0.0000 25.1852 0.0000 0.0000
# 5 0.0000 0.0000 0.0000 0.0000 26.9016 0.0000
# 6 0.0000 0.0000 0.0000 0.0000 0.0000 27.8215
#
#
#
# Elastic Compliance Matrix: (Units=1/GPa)
#
#
# Indices 1 2 3 4 5 6 
#
# 1 0.016945 -0.005894 -0.005001 0.000000 0.000000 0.000000
# 2 -0.005894 0.013332 -0.000423 0.000000 0.000000 0.000000
# 3 -0.005001 -0.000423 0.012844 0.000000 0.000000 0.000000
# 4 0.000000 0.000000 0.000000 0.039706 0.000000 0.000000
# 5 0.000000 0.000000 0.000000 0.000000 0.037172 0.000000
# 6 0.000000 0.000000 0.000000 0.000000 0.000000 0.035943
#
#
# Mechanical properties :
#
#
# Convention : Reuss Voigt Hill
#
# Bulk Modulus (GPa) = 48.81673 48.92954 48.87313
# Shear Modulus (GPa) = 26.96761 27.80038 27.38400
#
# Velocity S-wave (km/s) = 3.62685 3.68242 3.65474
# Velocity P-wave (km/s) = 6.43040 6.47663 6.45356
#
# Compressibility (1/GPa) = 0.02048478
#
# Stress axis : x y z
#
# Youngs Moduli (GPa) = 59.01504 75.00784 77.85491
#
# Poissons Ratio (x) = 0.44212 0.38933
# Poissons Ratio (y) = 0.34785 0.03295
# Poissons Ratio (z) = 0.29512 0.03175
#
# Static dielectric constant tensor:
#      x y z
#    x 1.714140 0.000000 0.000000 
#    y 0.000000 1.745240 0.000000 
#    z 0.000000 0.000000 1.729690 
# 
# From -- ./inp_files/39222.got.cif
#   From: 2010.05.17/outbox.cif.g08.bks.cpg/sg64_20_cif.got.tgz:39222.got - 2010.06.03 16:29:19.
