data_PCOD9481442
_publ_section_title
;
Structure prediction by ZEFSAII (Michael W. Deem and Ramdas Pophale) SiO2 
 PCOD9481442
Probable space group: C M C A
;
_chemical_formula_sum "Si O2"
_cell_formula_units_Z 80
_cell_length_a 8.276421
_cell_length_b 25.074706
_cell_length_c 18.118567
_cell_angle_alpha 90.000000
_cell_angle_beta 90.000000
_cell_angle_gamma 90.000000
_cell_volume 3760.124890
_symmetry_space_group_name_H-M "C M C A"
_symmetry_group_IT_number 64
_symmetry_cell_setting 'orthorhombic'
loop_
_space_group_symop_operation_xyz
x,y,z
-x,1/2-y,1/2+z
x,-y,-z
-x,1/2+y,1/2-z
-x,-y,-z
x,1/2+y,1/2-z
-x,y,z
x,1/2-y,1/2+z
1/2+x,1/2+y,z
1/2-x,-y,1/2+z
1/2+x,1/2-y,-z
1/2-x,y,1/2-z
1/2-x,1/2-y,-z
1/2+x,y,1/2-z
1/2-x,1/2+y,z
1/2+x,-y,1/2+z
loop_
_atom_site_type_symbol
_atom_site_label
_atom_site_fract_x
_atom_site_fract_y
_atom_site_fract_z
Si Si1 0.689951 0.171531 0.557606
Si Si2 0.809616 0.514683 0.416069
Si Si3 0.194802 0.761420 0.669803
Si Si4 0.811747 0.083687 0.667188
Si Si5 0.310236 0.366847 0.597299
O O1 0.500000 0.177759 0.539925
O O2 0.749214 0.222497 0.604061
O O3 0.713190 0.121390 0.611856
O O4 0.785239 0.159296 0.483223
O O5 0.759788 0.500000 0.500000
O O6 0.715403 0.476596 0.360287
O O7 0.778509 0.576768 0.401607
O O8 0.000000 0.503175 0.409436
O O9 0.250000 0.742572 0.750000
O O10 0.249599 0.821825 0.654077
O O11 0.000000 0.760779 0.668002
O O12 0.750000 0.090258 0.750000
O O13 0.000000 0.097790 0.662385
O O14 0.500000 0.376515 0.609491
#
# Coordination Sequence:
#
# PCOD9481442 Si02
#       5
#    16  16  16  16  16
#     4  11  22  40  64  93 126 163 209 259 310 370
#     4  11  23  41  65  92 125 164 208 257 311 370
#     4  10  24  42  62  90 126 165 208 256 311 373
#     4  12  25  41  64  94 128 165 208 259 314 373
#     4  11  23  40  64  94 125 164 211 258 312 374
#
# _framework density 21.275888999999999
#
# number of rings (size 3 to 8) (size 9 to 14) (size 15 to 20)
#    0.000    1.000    2.000    4.800    0.000    6.400 
#    0.000    2.000    0.000    0.000    0.000    0.000 
#    0.000    0.000    0.000    0.000    0.000    0.000 
#
# Total GULP energy -223855.618144 kJ/mol
# GULP energy per Si atom -5596.390454 kJ/mol
# Density = 2.122746 g / cm^3
# Si number density = 21.275889 Si / 1000 Ang^3
#
#
#
# Elastic Constant Matrix: (Units=GPa)
#
#
# Indices 1 2 3 4 5 6 
#
# 1 33.6701 -10.4692 -14.1376 0.0000 0.0000 0.0000
# 2 -10.4692 89.6919 -11.5379 0.0000 0.0000 0.0000
# 3 -14.1376 -11.5379 39.2923 0.0000 0.0000 0.0000
# 4 0.0000 0.0000 0.0000 59.5736 0.0000 0.0000
# 5 0.0000 0.0000 0.0000 0.0000 16.6537 0.0000
# 6 0.0000 0.0000 0.0000 0.0000 0.0000 14.8009
#
#
#
# Elastic Compliance Matrix: (Units=1/GPa)
#
#
# Indices 1 2 3 4 5 6 
#
# 1 0.038305 0.006489 0.015688 0.000000 0.000000 0.000000
# 2 0.006489 0.012686 0.006060 0.000000 0.000000 0.000000
# 3 0.015688 0.006060 0.032874 0.000000 0.000000 0.000000
# 4 0.000000 0.000000 0.000000 0.016786 0.000000 0.000000
# 5 0.000000 0.000000 0.000000 0.000000 0.060047 0.000000
# 6 0.000000 0.000000 0.000000 0.000000 0.000000 0.067564
#
#
# Mechanical properties :
#
#
# Convention : Reuss Voigt Hill
#
# Bulk Modulus (GPa) = 7.12562 10.04056 8.58309
# Shear Modulus (GPa) = 22.87626 31.45892 27.16759
#
# Velocity S-wave (km/s) = 3.28261 3.84945 3.57728
# Velocity P-wave (km/s) = 4.20997 4.94845 4.59407
#
# Compressibility (1/GPa) = 0.14033871
#
# Stress axis : x y z
#
# Youngs Moduli (GPa) = 26.10654 78.82533 30.41896
#
# Poissons Ratio (x) = -0.51151 -0.47720
# Poissons Ratio (y) = -0.16941 -0.18434
# Poissons Ratio (z) = -0.40955 -0.47769
#
# Static dielectric constant tensor:
#      x y z
#    x 1.733450 0.000000 0.000000 
#    y 0.000000 1.774520 0.000000 
#    z 0.000000 0.000000 1.736530 
# 
# From -- ./inp_files/29737.got.cif
#   From: 2010.05.17/outbox.cif.g08.bks.cpg/sg64_15_cif.got.tgz:29737.got - 2010.06.03 16:29:19.
