data_PCOD9481157
_publ_section_title
;
Structure prediction by ZEFSAII (Michael W. Deem and Ramdas Pophale) SiO2 
 PCOD9481157
Probable space group: C M C A
;
_chemical_formula_sum "Si O2"
_cell_formula_units_Z 88
_cell_length_a 26.615380
_cell_length_b 15.660565
_cell_length_c 10.023737
_cell_angle_alpha 90.000000
_cell_angle_beta 90.000000
_cell_angle_gamma 90.000000
_cell_volume 4178.012749
_symmetry_space_group_name_H-M "C M C A"
_symmetry_group_IT_number 64
_symmetry_cell_setting 'orthorhombic'
loop_
_space_group_symop_operation_xyz
x,y,z
-x,1/2-y,1/2+z
x,-y,-z
-x,1/2+y,1/2-z
-x,-y,-z
x,1/2+y,1/2-z
-x,y,z
x,1/2-y,1/2+z
1/2+x,1/2+y,z
1/2-x,-y,1/2+z
1/2+x,1/2-y,-z
1/2-x,y,1/2-z
1/2-x,1/2-y,-z
1/2+x,y,1/2-z
1/2-x,1/2+y,z
1/2+x,-y,1/2+z
loop_
_atom_site_type_symbol
_atom_site_label
_atom_site_fract_x
_atom_site_fract_y
_atom_site_fract_z
Si Si1 0.894450 0.384046 0.131116
Si Si2 0.185507 0.000000 0.500000
Si Si3 0.000000 0.612517 0.314826
Si Si4 0.087647 0.198477 0.054222
Si Si5 0.250000 0.034350 0.750000
Si Si6 0.000000 0.720781 0.645227
Si Si7 0.000000 0.438562 0.162001
Si Si8 0.655097 0.418672 0.097161
O O1 0.851059 0.420481 0.035218
O O2 0.897931 0.281333 0.140623
O O3 0.883071 0.423001 0.277433
O O4 0.948950 0.416695 0.086025
O O5 0.219210 0.985308 0.632999
O O6 0.053541 0.619247 0.391046
O O7 0.000000 0.533503 0.217640
O O8 0.000000 0.706875 0.254102
O O9 0.137514 0.160511 0.990483
O O10 0.049311 0.232846 0.942779
O O11 0.290934 0.087821 0.667607
O O12 0.000000 0.628339 0.713682
O O13 0.655002 0.500000 0.000000
#
# Coordination Sequence:
#
# PCOD9481157 Si02
#       8
#    16   8   8  16   8   8   8  16
#     4  11  24  43  64 105 144 176 237 283 344 427
#     4  10  24  45  72  96 134 181 224 300 358 422
#     4  11  23  36  63  90 142 191 223 264 339 399
#     4  11  22  39  62  95 138 182 226 283 327 411
#     4  10  22  48  70 102 130 170 238 298 360 424
#     4  11  22  40  56  94 146 186 223 281 331 402
#     4  12  21  40  61  98 143 185 231 278 332 427
#     4  11  22  43  73  96 129 182 231 286 353 420
#
# _framework density 21.062643999999999
#
# number of rings (size 3 to 8) (size 9 to 14) (size 15 to 20)
#    0.000    1.091    4.545    1.636    2.545    1.091 
#    6.545    4.545    0.000    0.000    0.000    0.000 
#    0.000    0.000    0.000    0.000    0.000    0.000 
#
# Total GULP energy -245472.695851 kJ/mol
# GULP energy per Si atom -5578.924906 kJ/mol
# Density = 2.101470 g / cm^3
# Si number density = 21.062644 Si / 1000 Ang^3
#
#
#
# Elastic Constant Matrix: (Units=GPa)
#
#
# Indices 1 2 3 4 5 6 
#
# 1 132.9994 50.8073 49.8767 0.0000 0.0000 0.0000
# 2 50.8073 78.8712 36.9907 0.0000 0.0000 0.0000
# 3 49.8767 36.9907 83.8141 0.0000 0.0000 0.0000
# 4 0.0000 0.0000 0.0000 36.1207 0.0000 0.0000
# 5 0.0000 0.0000 0.0000 0.0000 34.4871 0.0000
# 6 0.0000 0.0000 0.0000 0.0000 0.0000 -1.6535
#
#
#
# Elastic Compliance Matrix: (Units=1/GPa)
#
#
# Indices 1 2 3 4 5 6 
#
# 1 0.011103 -0.005112 -0.004351 0.000000 0.000000 0.000000
# 2 -0.005112 0.018342 -0.005053 0.000000 0.000000 0.000000
# 3 -0.004351 -0.005053 0.016751 0.000000 0.000000 0.000000
# 4 0.000000 0.000000 0.000000 0.027685 0.000000 0.000000
# 5 0.000000 0.000000 0.000000 0.000000 0.028996 0.000000
# 6 0.000000 0.000000 0.000000 0.000000 0.000000 -0.604794
#
#
# Mechanical properties :
#
#
# Convention : Reuss Voigt Hill
#
# Bulk Modulus (GPa) = 58.26356 63.44824 60.85590
# Shear Modulus (GPa) = -10.70289 24.32488 6.81100
#
# Velocity S-wave (km/s) = -2.25665 3.40204 1.80020
# Velocity P-wave (km/s) = 4.57516 6.75432 5.76858
#
# Compressibility (1/GPa) = 0.01716339
#
# Stress axis : x y z
#
# Youngs Moduli (GPa) = 90.06197 54.52066 59.69873
#
# Poissons Ratio (x) = 0.27870 0.25978
# Poissons Ratio (y) = 0.46038 0.30166
# Poissons Ratio (z) = 0.39190 0.27549
#
# Static dielectric constant tensor:
#      x y z
#    x 1.820470 0.000000 0.000000 
#    y 0.000000 1.745850 0.000000 
#    z 0.000000 0.000000 1.840520 
# 
# From -- ./inp_files/19108.got.cif
#   From: 2010.05.17/outbox.cif.g08.bks.cpg/sg64_10_cif.got.tgz:19108.got - 2010.06.03 16:29:19.
