data_PCOD9481078
_publ_section_title
;
Structure prediction by ZEFSAII (Michael W. Deem and Ramdas Pophale) SiO2 
 PCOD9481078
Probable space group: C M C A
;
_chemical_formula_sum "Si O2"
_cell_formula_units_Z 96
_cell_length_a 15.484021
_cell_length_b 13.289365
_cell_length_c 19.543396
_cell_angle_alpha 90.000000
_cell_angle_beta 90.000000
_cell_angle_gamma 90.000000
_cell_volume 4021.499448
_symmetry_space_group_name_H-M "C M C A"
_symmetry_group_IT_number 64
_symmetry_cell_setting 'orthorhombic'
loop_
_space_group_symop_operation_xyz
x,y,z
-x,1/2-y,1/2+z
x,-y,-z
-x,1/2+y,1/2-z
-x,-y,-z
x,1/2+y,1/2-z
-x,y,z
x,1/2-y,1/2+z
1/2+x,1/2+y,z
1/2-x,-y,1/2+z
1/2+x,1/2-y,-z
1/2-x,y,1/2-z
1/2-x,1/2-y,-z
1/2+x,y,1/2-z
1/2-x,1/2+y,z
1/2+x,-y,1/2+z
loop_
_atom_site_type_symbol
_atom_site_label
_atom_site_fract_x
_atom_site_fract_y
_atom_site_fract_z
Si Si1 0.668494 0.595552 0.106227
Si Si2 0.500000 0.465688 0.127268
Si Si3 0.333447 0.763766 0.212186
Si Si4 0.000000 0.780068 0.033466
Si Si5 0.000000 0.628018 0.905539
Si Si6 0.681558 0.681211 0.962708
Si Si7 0.813134 0.555647 0.873497
Si Si8 0.000000 0.302608 0.254412
O O1 0.587487 0.529593 0.130686
O O2 0.658443 0.703691 0.141885
O O3 0.763190 0.550456 0.124876
O O4 0.656084 0.608655 0.025390
O O5 0.500000 0.398092 0.058040
O O6 0.500000 0.391108 0.191705
O O7 0.250000 0.728401 0.250000
O O8 0.327896 0.883831 0.197340
O O9 0.413524 0.740557 0.260501
O O10 0.903116 0.757660 0.060666
O O11 0.000000 0.721185 0.959933
O O12 0.092353 0.567042 0.910597
O O13 0.000000 0.666579 0.826599
O O14 0.735698 0.621295 0.907349
O O15 0.750000 0.750000 0.000000
#
# Coordination Sequence:
#
# PCOD9481078 Si02
#       8
#    16   8  16   8   8  16  16   8
#     4  12  25  42  68 106 137 180 238 288 359 436
#     4  12  26  40  72 109 142 179 239 307 374 439
#     4  11  24  43  69  95 137 185 237 289 362 433
#     4  12  23  39  69 103 133 177 231 295 355 430
#     4  10  22  43  69  95 135 190 237 281 363 430
#     4  12  22  42  68  97 142 179 227 294 364 430
#     4  11  23  43  67  96 136 185 232 296 360 430
#     4  10  23  46  69  97 139 184 227 295 367 436
#
# _framework density 23.871691999999999
#
# number of rings (size 3 to 8) (size 9 to 14) (size 15 to 20)
#    0.000    0.667    5.000    3.500    0.000    4.000 
#    0.000    3.333    0.000    0.000    0.000    0.000 
#    0.000    0.000    0.000    0.000    0.000    0.000 
#
# Total GULP energy -267543.431967 kJ/mol
# GULP energy per Si atom -5573.821499 kJ/mol
# Density = 2.381736 g / cm^3
# Si number density = 23.871692 Si / 1000 Ang^3
#
#
#
# Elastic Constant Matrix: (Units=GPa)
#
#
# Indices 1 2 3 4 5 6 
#
# 1 222.6846 21.6433 30.7649 0.0000 0.0000 0.0000
# 2 21.6433 51.6840 17.4677 0.0000 0.0000 0.0000
# 3 30.7649 17.4677 55.7374 0.0000 0.0000 0.0000
# 4 0.0000 0.0000 0.0000 37.9986 0.0000 0.0000
# 5 0.0000 0.0000 0.0000 0.0000 28.9636 0.0000
# 6 0.0000 0.0000 0.0000 0.0000 0.0000 26.5560
#
#
#
# Elastic Compliance Matrix: (Units=1/GPa)
#
#
# Indices 1 2 3 4 5 6 
#
# 1 0.004936 -0.001282 -0.002323 0.000000 0.000000 0.000000
# 2 -0.001282 0.021973 -0.006179 0.000000 0.000000 0.000000
# 3 -0.002323 -0.006179 0.021160 0.000000 0.000000 0.000000
# 4 0.000000 0.000000 0.000000 0.026317 0.000000 0.000000
# 5 0.000000 0.000000 0.000000 0.000000 0.034526 0.000000
# 6 0.000000 0.000000 0.000000 0.000000 0.000000 0.037656
#
#
# Mechanical properties :
#
#
# Convention : Reuss Voigt Hill
#
# Bulk Modulus (GPa) = 35.08487 52.20642 43.64564
# Shear Modulus (GPa) = 28.46793 36.05232 32.26012
#
# Velocity S-wave (km/s) = 3.45706 3.89041 3.68012
# Velocity P-wave (km/s) = 5.53753 6.48826 6.03165
#
# Compressibility (1/GPa) = 0.02850232
#
# Stress axis : x y z
#
# Youngs Moduli (GPa) = 202.58640 45.50948 47.25958
#
# Poissons Ratio (x) = 0.05835 0.10977
# Poissons Ratio (y) = 0.25973 0.29200
# Poissons Ratio (z) = 0.47057 0.28119
#
# Static dielectric constant tensor:
#      x y z
#    x 2.050460 0.000000 0.000000 
#    y 0.000000 2.000000 0.000000 
#    z 0.000000 0.000000 1.992310 
# 
# From -- ./inp_files/39290.got.cif
#   From: 2010.05.17/outbox.cif.g08.bks.cpg/sg64_20_cif.got.tgz:39290.got - 2010.06.03 16:29:19.
