data_PCOD9481831
_publ_section_title
;
Structure prediction by ZEFSAII (Michael W. Deem and Ramdas Pophale) SiO2 
 PCOD9481831
Probable space group: C M C A
;
_chemical_formula_sum "Si O2"
_cell_formula_units_Z 80
_cell_length_a 9.040936
_cell_length_b 15.380167
_cell_length_c 30.339552
_cell_angle_alpha 90.000000
_cell_angle_beta 90.000000
_cell_angle_gamma 90.000000
_cell_volume 4218.748246
_symmetry_space_group_name_H-M "C M C A"
_symmetry_group_IT_number 64
_symmetry_cell_setting 'orthorhombic'
loop_
_space_group_symop_operation_xyz
x,y,z
-x,1/2-y,1/2+z
x,-y,-z
-x,1/2+y,1/2-z
-x,-y,-z
x,1/2+y,1/2-z
-x,y,z
x,1/2-y,1/2+z
1/2+x,1/2+y,z
1/2-x,-y,1/2+z
1/2+x,1/2-y,-z
1/2-x,y,1/2-z
1/2-x,1/2-y,-z
1/2+x,y,1/2-z
1/2-x,1/2+y,z
1/2+x,-y,1/2+z
loop_
_atom_site_type_symbol
_atom_site_label
_atom_site_fract_x
_atom_site_fract_y
_atom_site_fract_z
Si Si1 0.177194 0.272177 0.364482
Si Si2 0.327050 0.477149 0.143407
Si Si3 0.176794 0.120910 0.297774
Si Si4 0.328127 0.222397 0.954976
Si Si5 0.831544 0.048018 0.953606
O O1 0.211845 0.374034 0.355092
O O2 0.220000 0.207210 0.325402
O O3 0.253629 0.243736 0.410110
O O4 0.000000 0.267120 0.370034
O O5 0.500000 0.485171 0.155777
O O6 0.230714 0.537651 0.174425
O O7 0.314075 0.504626 0.091802
O O8 0.250000 0.120984 0.250000
O O9 0.000000 0.119719 0.293629
O O10 0.500000 0.244114 0.956150
O O11 0.294764 0.119835 0.953020
O O12 0.250000 0.250000 0.000000
O O13 0.000000 0.086796 0.950354
O O14 0.825623 0.000000 0.000000
#
# Coordination Sequence:
#
# PCOD9481831 Si02
#       5
#    16  16  16  16  16
#     4   9  21  42  62  85 119 158 197 247 302 357
#     4   9  19  38  61  86 121 157 194 240 299 358
#     4  11  24  41  63  90 119 152 200 250 302 359
#     4  11  22  35  55  84 118 157 200 242 291 352
#     4   9  19  36  57  84 118 156 195 238 296 354
#
# _framework density 18.962972000000001
#
# number of rings (size 3 to 8) (size 9 to 14) (size 15 to 20)
#    0.000    2.200    0.000    3.600    2.800    6.000 
#    0.000    2.000    0.000    0.000    0.000    0.000 
#    0.000    0.000    0.000    0.000    0.000    0.000 
#
# Total GULP energy -223144.174896 kJ/mol
# GULP energy per Si atom -5578.604372 kJ/mol
# Density = 1.891981 g / cm^3
# Si number density = 18.962972 Si / 1000 Ang^3
#
#
#
# Elastic Constant Matrix: (Units=GPa)
#
#
# Indices 1 2 3 4 5 6 
#
# 1 63.5176 37.7323 70.4754 0.0000 0.0000 0.0000
# 2 37.7323 70.2864 71.7782 0.0000 0.0000 0.0000
# 3 70.4754 71.7782 188.4262 0.0000 0.0000 0.0000
# 4 0.0000 0.0000 0.0000 31.7814 0.0000 0.0000
# 5 0.0000 0.0000 0.0000 0.0000 31.5743 0.0000
# 6 0.0000 0.0000 0.0000 0.0000 0.0000 26.8726
#
#
#
# Elastic Compliance Matrix: (Units=1/GPa)
#
#
# Indices 1 2 3 4 5 6 
#
# 1 0.029071 -0.007369 -0.008066 0.000000 0.000000 0.000000
# 2 -0.007369 0.025154 -0.006826 0.000000 0.000000 0.000000
# 3 -0.008066 -0.006826 0.010924 0.000000 0.000000 0.000000
# 4 0.000000 0.000000 0.000000 0.031465 0.000000 0.000000
# 5 0.000000 0.000000 0.000000 0.000000 0.031671 0.000000
# 6 0.000000 0.000000 0.000000 0.000000 0.000000 0.037213
#
#
# Mechanical properties :
#
#
# Convention : Reuss Voigt Hill
#
# Bulk Modulus (GPa) = 48.47953 75.80021 62.13987
# Shear Modulus (GPa) = 23.05253 27.52862 25.29057
#
# Velocity S-wave (km/s) = 3.49041 3.81426 3.65592
# Velocity P-wave (km/s) = 6.47031 7.71088 7.11767
#
# Compressibility (1/GPa) = 0.02062726
#
# Stress axis : x y z
#
# Youngs Moduli (GPa) = 34.39892 39.75449 91.53991
#
# Poissons Ratio (x) = 0.29296 0.73835
# Poissons Ratio (y) = 0.25349 0.62485
# Poissons Ratio (z) = 0.27746 0.27136
#
# Static dielectric constant tensor:
#      x y z
#    x 1.643900 0.000000 0.000000 
#    y 0.000000 1.679170 0.000000 
#    z 0.000000 0.000000 1.661070 
# 
# From -- ./inp_files/47807.got.cif
#   From: 2010.05.17/outbox.cif.g08.bks.cpg/sg64_24_cif.got.tgz:47807.got - 2010.06.03 16:29:19.
