data_PCOD9481959
_publ_section_title
;
Structure prediction by ZEFSAII (Michael W. Deem and Ramdas Pophale) SiO2 
 PCOD9481959
Probable space group: C M C A
;
_chemical_formula_sum "Si O2"
_cell_formula_units_Z 112
_cell_length_a 23.506378
_cell_length_b 14.544273
_cell_length_c 15.686611
_cell_angle_alpha 90.000000
_cell_angle_beta 90.000000
_cell_angle_gamma 90.000000
_cell_volume 5362.988434
_symmetry_space_group_name_H-M "C M C A"
_symmetry_group_IT_number 64
_symmetry_cell_setting 'orthorhombic'
loop_
_space_group_symop_operation_xyz
x,y,z
-x,1/2-y,1/2+z
x,-y,-z
-x,1/2+y,1/2-z
-x,-y,-z
x,1/2+y,1/2-z
-x,y,z
x,1/2-y,1/2+z
1/2+x,1/2+y,z
1/2-x,-y,1/2+z
1/2+x,1/2-y,-z
1/2-x,y,1/2-z
1/2-x,1/2-y,-z
1/2+x,y,1/2-z
1/2-x,1/2+y,z
1/2+x,-y,1/2+z
loop_
_atom_site_type_symbol
_atom_site_label
_atom_site_fract_x
_atom_site_fract_y
_atom_site_fract_z
Si Si1 0.060991 0.897630 0.961536
Si Si2 0.322049 0.450793 0.911687
Si Si3 0.751535 0.723267 0.400928
Si Si4 0.181555 0.990198 0.256196
Si Si5 0.866350 0.317955 0.155198
Si Si6 0.065113 0.796775 0.523026
Si Si7 0.362473 0.808754 0.810885
O O1 0.120581 0.890533 0.913734
O O2 0.000000 0.886450 0.914996
O O3 0.063197 0.814818 0.028358
O O4 0.061278 0.000000 0.000000
O O5 0.269356 0.383956 0.893901
O O6 0.334445 0.527120 0.841878
O O7 0.311861 0.500000 0.000000
O O8 0.750000 0.750000 0.500000
O O9 0.803510 0.778152 0.361607
O O10 0.692958 0.739775 0.352598
O O11 0.250000 0.980448 0.250000
O O12 0.147317 0.921551 0.315740
O O13 0.161461 0.094587 0.274538
O O14 0.887737 0.255812 0.235607
O O15 0.902750 0.316061 0.067343
O O16 0.096646 0.828810 0.608518
O O17 0.000000 0.829959 0.518350
#
# Coordination Sequence:
#
# PCOD9481959 Si02
#       7
#    16  16  16  16  16  16  16
#     4   9  18  36  64  95 126 166 225 283 330 389
#     4  11  23  38  62  98 131 170 222 278 339 403
#     4  12  22  40  67  99 138 178 220 282 350 420
#     4  12  25  42  65 100 136 177 220 276 341 416
#     4  12  26  43  68 101 137 180 228 286 347 418
#     4  11  25  47  70  97 138 185 233 287 348 416
#     4  12  24  45  68  99 139 179 226 284 352 415
#
# _framework density 20.883877999999999
#
# number of rings (size 3 to 8) (size 9 to 14) (size 15 to 20)
#    0.000    0.714    5.714    1.286    8.000    1.143 
#    0.000    2.857    0.000    0.000    0.000    0.000 
#    0.000    0.000    0.000    0.000    0.000    0.000 
#
# Total GULP energy -312328.776329 kJ/mol
# GULP energy per Si atom -5577.299577 kJ/mol
# Density = 2.083635 g / cm^3
# Si number density = 20.883878 Si / 1000 Ang^3
#
#
#
# Elastic Constant Matrix: (Units=GPa)
#
#
# Indices 1 2 3 4 5 6 
#
# 1 89.7649 1.6351 34.6375 0.0000 0.0000 0.0000
# 2 1.6351 71.7201 25.1655 0.0000 0.0000 0.0000
# 3 34.6375 25.1655 136.9803 0.0000 0.0000 0.0000
# 4 0.0000 0.0000 0.0000 30.6175 0.0000 0.0000
# 5 0.0000 0.0000 0.0000 0.0000 16.1664 0.0000
# 6 0.0000 0.0000 0.0000 0.0000 0.0000 14.3020
#
#
#
# Elastic Compliance Matrix: (Units=1/GPa)
#
#
# Indices 1 2 3 4 5 6 
#
# 1 0.012396 0.000874 -0.003295 0.000000 0.000000 0.000000
# 2 0.000874 0.014965 -0.002970 0.000000 0.000000 0.000000
# 3 -0.003295 -0.002970 0.008679 0.000000 0.000000 0.000000
# 4 0.000000 0.000000 0.000000 0.032661 0.000000 0.000000
# 5 0.000000 0.000000 0.000000 0.000000 0.061857 0.000000
# 6 0.000000 0.000000 0.000000 0.000000 0.000000 0.069920
#
#
# Mechanical properties :
#
#
# Convention : Reuss Voigt Hill
#
# Bulk Modulus (GPa) = 39.59303 46.81571 43.20437
# Shear Modulus (GPa) = 22.76032 28.01901 25.38966
#
# Velocity S-wave (km/s) = 3.30487 3.66684 3.49055
# Velocity P-wave (km/s) = 5.79333 6.35558 6.08096
#
# Compressibility (1/GPa) = 0.02525697
#
# Stress axis : x y z
#
# Youngs Moduli (GPa) = 80.67311 66.82085 115.21837
#
# Poissons Ratio (x) = -0.05837 0.37963
# Poissons Ratio (y) = -0.07047 0.34223
# Poissons Ratio (z) = 0.26581 0.19848
#
# Static dielectric constant tensor:
#      x y z
#    x 1.788090 0.000000 0.000000 
#    y 0.000000 1.859100 0.000000 
#    z 0.000000 0.000000 1.813300 
# 
# From -- ./inp_files/27452.got.cif
#   From: 2010.05.17/outbox.cif.g08.bks.cpg/sg64_14_cif.got.tgz:27452.got - 2010.06.03 16:29:19.
