data_PCOD9481099
_publ_section_title
;
Structure prediction by ZEFSAII (Michael W. Deem and Ramdas Pophale) SiO2 
 PCOD9481099
Probable space group: C M C A
;
_chemical_formula_sum "Si O2"
_cell_formula_units_Z 48
_cell_length_a 10.673639
_cell_length_b 9.653996
_cell_length_c 18.217680
_cell_angle_alpha 90.000000
_cell_angle_beta 90.000000
_cell_angle_gamma 90.000000
_cell_volume 1877.209286
_symmetry_space_group_name_H-M "C M C A"
_symmetry_group_IT_number 64
_symmetry_cell_setting 'orthorhombic'
loop_
_space_group_symop_operation_xyz
x,y,z
-x,1/2-y,1/2+z
x,-y,-z
-x,1/2+y,1/2-z
-x,-y,-z
x,1/2+y,1/2-z
-x,y,z
x,1/2-y,1/2+z
1/2+x,1/2+y,z
1/2-x,-y,1/2+z
1/2+x,1/2-y,-z
1/2-x,y,1/2-z
1/2-x,1/2-y,-z
1/2+x,y,1/2-z
1/2-x,1/2+y,z
1/2+x,-y,1/2+z
loop_
_atom_site_type_symbol
_atom_site_label
_atom_site_fract_x
_atom_site_fract_y
_atom_site_fract_z
Si Si1 0.500000 0.488727 0.684861
Si Si2 0.855620 0.348882 0.466566
Si Si3 0.500000 0.315938 0.832699
Si Si4 0.272537 0.696250 0.337783
O O1 0.500000 0.419931 0.764719
O O2 0.500000 0.652918 0.687712
O O3 0.373799 0.425294 0.649857
O O4 0.839971 0.500000 0.500000
O O5 0.750000 0.250000 0.500000
O O6 0.830305 0.328707 0.378956
O O7 0.000000 0.304784 0.479306
O O8 0.365433 0.336090 0.868789
O O9 0.250000 0.717473 0.250000
#
# Coordination Sequence:
#
# PCOD9481099 Si02
#       4
#     8  16   8  16
#     4  10  22  44  64 102 146 179 239 300 352 422
#     4  11  27  50  72 104 145 193 241 298 362 436
#     4  10  24  40  68 103 136 189 229 299 362 418
#     4  10  23  44  71 103 140 184 238 299 354 424
#
# _framework density 25.569870999999999
#
# number of rings (size 3 to 8) (size 9 to 14) (size 15 to 20)
#    0.000    1.667    1.667    0.000    7.000   12.667 
#    0.000    0.000    0.000    0.000    0.000    0.000 
#    0.000    0.000    0.000    0.000    0.000    0.000 
#
# Total GULP energy -134329.309177 kJ/mol
# GULP energy per Si atom -5597.054549 kJ/mol
# Density = 2.551167 g / cm^3
# Si number density = 25.569871 Si / 1000 Ang^3
#
#
#
# Elastic Constant Matrix: (Units=GPa)
#
#
# Indices 1 2 3 4 5 6 
#
# 1 287.9601 81.0039 55.6530 0.0000 0.0000 0.0000
# 2 81.0039 169.8090 55.9691 0.0000 0.0000 0.0000
# 3 55.6530 55.9691 94.9697 0.0000 0.0000 0.0000
# 4 0.0000 0.0000 0.0000 37.9165 0.0000 0.0000
# 5 0.0000 0.0000 0.0000 0.0000 49.2980 0.0000
# 6 0.0000 0.0000 0.0000 0.0000 0.0000 49.3128
#
#
#
# Elastic Compliance Matrix: (Units=1/GPa)
#
#
# Indices 1 2 3 4 5 6 
#
# 1 0.004195 -0.001478 -0.001587 0.000000 0.000000 0.000000
# 2 -0.001478 0.007829 -0.003748 0.000000 0.000000 0.000000
# 3 -0.001587 -0.003748 0.013669 0.000000 0.000000 0.000000
# 4 0.000000 0.000000 0.000000 0.026374 0.000000 0.000000
# 5 0.000000 0.000000 0.000000 0.000000 0.020285 0.000000
# 6 0.000000 0.000000 0.000000 0.000000 0.000000 0.020279
#
#
# Mechanical properties :
#
#
# Convention : Reuss Voigt Hill
#
# Bulk Modulus (GPa) = 82.87403 104.22121 93.54762
# Shear Modulus (GPa) = 45.33928 51.31298 48.32613
#
# Velocity S-wave (km/s) = 4.21545 4.48456 4.35209
# Velocity P-wave (km/s) = 7.49497 8.22575 7.86885
#
# Compressibility (1/GPa) = 0.01206651
#
# Stress axis : x y z
#
# Youngs Moduli (GPa) = 238.36335 127.72393 73.15975
#
# Poissons Ratio (x) = 0.18878 0.11613
# Poissons Ratio (y) = 0.35232 0.27420
# Poissons Ratio (z) = 0.37837 0.47871
#
# Static dielectric constant tensor:
#      x y z
#    x 2.021360 0.000000 0.000000 
#    y 0.000000 1.917030 0.000000 
#    z 0.000000 0.000000 2.154110 
# 
# From -- ./inp_files/43645.got.cif
#   From: 2010.05.17/outbox.cif.g08.bks.cpg/sg64_22_cif.got.tgz:43645.got - 2010.06.03 16:29:19.
