data_PCOD9481006
_publ_section_title
;
Structure prediction by ZEFSAII (Michael W. Deem and Ramdas Pophale) SiO2 
 PCOD9481006
Probable space group: C M C A
;
_chemical_formula_sum "Si O2"
_cell_formula_units_Z 88
_cell_length_a 9.061397
_cell_length_b 20.221516
_cell_length_c 23.810342
_cell_angle_alpha 90.000000
_cell_angle_beta 90.000000
_cell_angle_gamma 90.000000
_cell_volume 4362.892407
_symmetry_space_group_name_H-M "C M C A"
_symmetry_group_IT_number 64
_symmetry_cell_setting 'orthorhombic'
loop_
_space_group_symop_operation_xyz
x,y,z
-x,1/2-y,1/2+z
x,-y,-z
-x,1/2+y,1/2-z
-x,-y,-z
x,1/2+y,1/2-z
-x,y,z
x,1/2-y,1/2+z
1/2+x,1/2+y,z
1/2-x,-y,1/2+z
1/2+x,1/2-y,-z
1/2-x,y,1/2-z
1/2-x,1/2-y,-z
1/2+x,y,1/2-z
1/2-x,1/2+y,z
1/2+x,-y,1/2+z
loop_
_atom_site_type_symbol
_atom_site_label
_atom_site_fract_x
_atom_site_fract_y
_atom_site_fract_z
Si Si1 0.253364 0.355103 0.497221
Si Si2 0.168088 0.571757 0.885138
Si Si3 0.000000 0.750552 0.031410
Si Si4 0.176114 0.187011 0.189110
Si Si5 0.676531 0.820164 0.311523
Si Si6 0.330434 0.935268 0.605872
O O1 0.322155 0.398455 0.447502
O O2 0.372308 0.307106 0.525546
O O3 0.189079 0.403020 0.544879
O O4 0.127787 0.308593 0.471097
O O5 0.272059 0.617349 0.846895
O O6 0.223657 0.496831 0.885365
O O7 0.000000 0.576840 0.864596
O O8 0.250000 0.176678 0.250000
O O9 0.254726 0.252139 0.163759
O O10 0.197391 0.123420 0.150395
O O11 0.000000 0.199251 0.194595
O O12 0.500000 0.814601 0.308720
O O13 0.750000 0.825166 0.250000
O O14 0.500000 0.957493 0.612721
#
# Coordination Sequence:
#
# PCOD9481006 Si02
#       6
#    16  16   8  16  16  16
#     4  11  24  42  66  97 134 166 216 266 326 381
#     4  12  27  43  64  93 133 174 215 265 320 387
#     4  10  24  40  66 100 124 172 214 272 318 382
#     4  10  22  42  67  97 129 164 213 267 319 377
#     4  11  24  43  70  98 128 166 214 268 321 378
#     4  11  26  43  64  92 132 175 214 265 323 387
#
# _framework density 20.170105
#
# number of rings (size 3 to 8) (size 9 to 14) (size 15 to 20)
#    0.000    1.091    1.818    4.364    8.909    3.636 
#    0.000    1.818    0.000    0.000    0.000    0.000 
#    0.000    0.000    0.000    0.000    0.000    0.000 
#
# Total GULP energy -245036.382563 kJ/mol
# GULP energy per Si atom -5569.008695 kJ/mol
# Density = 2.012420 g / cm^3
# Si number density = 20.170105 Si / 1000 Ang^3
#
#
#
# Elastic Constant Matrix: (Units=GPa)
#
#
# Indices 1 2 3 4 5 6 
#
# 1 146.8376 60.1041 19.2784 0.0000 0.0000 0.0000
# 2 60.1041 121.1570 32.6076 0.0000 0.0000 0.0000
# 3 19.2784 32.6076 54.9094 0.0000 0.0000 0.0000
# 4 0.0000 0.0000 0.0000 712.5724 0.0000 0.0000
# 5 0.0000 0.0000 0.0000 0.0000 12.7954 0.0000
# 6 0.0000 0.0000 0.0000 0.0000 0.0000 -9.5203
#
#
#
# Elastic Compliance Matrix: (Units=1/GPa)
#
#
# Indices 1 2 3 4 5 6 
#
# 1 0.008561 -0.004092 -0.000576 0.000000 0.000000 0.000000
# 2 -0.004092 0.011780 -0.005559 0.000000 0.000000 0.000000
# 3 -0.000576 -0.005559 0.021715 0.000000 0.000000 0.000000
# 4 0.000000 0.000000 0.000000 0.001403 0.000000 0.000000
# 5 0.000000 0.000000 0.000000 0.000000 0.078153 0.000000
# 6 0.000000 0.000000 0.000000 0.000000 0.000000 -0.105038
#
#
# Mechanical properties :
#
#
# Convention : Reuss Voigt Hill
#
# Bulk Modulus (GPa) = 46.29014 60.76491 53.52752
# Shear Modulus (GPa) = 113.05206 157.23040 135.14123
#
# Velocity S-wave (km/s) = 7.49473 8.83863 8.19428
# Velocity P-wave (km/s) = 9.89416 11.59110 10.77608
#
# Compressibility (1/GPa) = 0.02160287
#
# Stress axis : x y z
#
# Youngs Moduli (GPa) = 116.81222 84.89161 46.05128
#
# Poissons Ratio (x) = 0.34737 0.02651
# Poissons Ratio (y) = 0.47799 0.25598
# Poissons Ratio (z) = 0.06725 0.47188
#
# Static dielectric constant tensor:
#      x y z
#    x 1.704730 0.000000 0.000000 
#    y 0.000000 1.675240 0.000000 
#    z 0.000000 0.000000 1.737160 
# 
# From -- ./inp_files/42887.got.cif
#   From: 2010.05.17/outbox.cif.g08.bks.cpg/sg64_22_cif.got.tgz:42887.got - 2010.06.03 16:29:19.
