data_PCOD9481181
_publ_section_title
;
Structure prediction by ZEFSAII (Michael W. Deem and Ramdas Pophale) SiO2 
 PCOD9481181
Probable space group: C M C A
;
_chemical_formula_sum "Si O2"
_cell_formula_units_Z 52
_cell_length_a 15.021321
_cell_length_b 26.596872
_cell_length_c 5.132358
_cell_angle_alpha 90.000000
_cell_angle_beta 90.000000
_cell_angle_gamma 90.000000
_cell_volume 2050.480448
_symmetry_space_group_name_H-M "C M C A"
_symmetry_group_IT_number 64
_symmetry_cell_setting 'orthorhombic'
loop_
_space_group_symop_operation_xyz
x,y,z
-x,1/2-y,1/2+z
x,-y,-z
-x,1/2+y,1/2-z
-x,-y,-z
x,1/2+y,1/2-z
-x,y,z
x,1/2-y,1/2+z
1/2+x,1/2+y,z
1/2-x,-y,1/2+z
1/2+x,1/2-y,-z
1/2-x,y,1/2-z
1/2-x,1/2-y,-z
1/2+x,y,1/2-z
1/2-x,1/2+y,z
1/2+x,-y,1/2+z
loop_
_atom_site_type_symbol
_atom_site_label
_atom_site_fract_x
_atom_site_fract_y
_atom_site_fract_z
Si Si1 0.149476 0.730085 0.445788
Si Si2 0.500000 0.000000 0.000000
Si Si3 0.607473 0.622695 0.289557
Si Si4 0.152177 0.561656 0.718576
O O1 0.107405 0.767062 0.231256
O O2 0.250000 0.750000 0.500000
O O3 0.141663 0.675781 0.317716
O O4 0.576980 0.024160 0.811593
O O5 0.500000 0.622173 0.309448
O O6 0.646065 0.607504 0.569838
O O7 0.634691 0.582520 0.069595
O O8 0.250000 0.539699 0.750000
#
# Coordination Sequence:
#
# PCOD9481181 Si02
#       4
#    16   4  16  16
#     4  10  23  39  67 107 153 208 258 331 378 470
#     4  12  28  62  80 128 164 198 284 338 416 488
#     4  12  25  49  76 117 162 214 273 335 412 473
#     4  12  29  49  86 117 160 217 265 344 415 502
#
# _framework density 25.359909999999999
#
# number of rings (size 3 to 8) (size 9 to 14) (size 15 to 20)
#    0.000    0.615    3.077    2.769   12.923    6.154 
#    0.000    0.000    0.000    0.000    0.000    0.000 
#    0.000    0.000    0.000    0.000    0.000    0.000 
#
# Total GULP energy -145210.138668 kJ/mol
# GULP energy per Si atom -5585.005333 kJ/mol
# Density = 2.530219 g / cm^3
# Si number density = 25.359910 Si / 1000 Ang^3
#
#
#
# Elastic Constant Matrix: (Units=GPa)
#
#
# Indices 1 2 3 4 5 6 
#
# 1 211.9857 13.7935 -6.9272 0.0000 0.0000 0.0000
# 2 13.7935 69.4831 27.2242 0.0000 0.0000 0.0000
# 3 -6.9272 27.2242 135.0405 0.0000 0.0000 0.0000
# 4 0.0000 0.0000 0.0000 62.5148 0.0000 0.0000
# 5 0.0000 0.0000 0.0000 0.0000 -1.1745 0.0000
# 6 0.0000 0.0000 0.0000 0.0000 0.0000 22.4806
#
#
#
# Elastic Compliance Matrix: (Units=1/GPa)
#
#
# Indices 1 2 3 4 5 6 
#
# 1 0.004807 -0.001141 0.000477 0.000000 0.000000 0.000000
# 2 -0.001141 0.015897 -0.003263 0.000000 0.000000 0.000000
# 3 0.000477 -0.003263 0.008088 0.000000 0.000000 0.000000
# 4 0.000000 0.000000 0.000000 0.015996 0.000000 0.000000
# 5 0.000000 0.000000 0.000000 0.000000 -0.851396 0.000000
# 6 0.000000 0.000000 0.000000 0.000000 0.000000 0.044483
#
#
# Mechanical properties :
#
#
# Convention : Reuss Voigt Hill
#
# Bulk Modulus (GPa) = 47.76424 53.85449 50.80937
# Shear Modulus (GPa) = -6.69083 42.25875 17.78396
#
# Velocity S-wave (km/s) = -1.62606 4.08654 2.65101
# Velocity P-wave (km/s) = 3.91791 6.59913 5.42672
#
# Compressibility (1/GPa) = 0.02093616
#
# Stress axis : x y z
#
# Youngs Moduli (GPa) = 208.02478 62.90444 123.64703
#
# Poissons Ratio (x) = 0.07178 -0.05893
# Poissons Ratio (y) = 0.23736 0.40351
# Poissons Ratio (z) = -0.09915 0.20528
#
# Static dielectric constant tensor:
#      x y z
#    x 2.117610 0.000000 0.000000 
#    y 0.000000 2.054920 0.000000 
#    z 0.000000 0.000000 2.269340 
# 
# From -- ./inp_files/1181.got.cif
#   From: 2010.05.17/outbox.cif.g08.bks.cpg/sg64_1_cif.got.tgz:1181.got - 2010.06.03 16:29:19.
