data_PCOD9481834
_publ_section_title
;
Structure prediction by ZEFSAII (Michael W. Deem and Ramdas Pophale) SiO2 
 PCOD9481834
Probable space group: C M C A
;
_chemical_formula_sum "Si O2"
_cell_formula_units_Z 96
_cell_length_a 24.731181
_cell_length_b 7.816759
_cell_length_c 22.477364
_cell_angle_alpha 90.000000
_cell_angle_beta 90.000000
_cell_angle_gamma 90.000000
_cell_volume 4345.271898
_symmetry_space_group_name_H-M "C M C A"
_symmetry_group_IT_number 64
_symmetry_cell_setting 'orthorhombic'
loop_
_space_group_symop_operation_xyz
x,y,z
-x,1/2-y,1/2+z
x,-y,-z
-x,1/2+y,1/2-z
-x,-y,-z
x,1/2+y,1/2-z
-x,y,z
x,1/2-y,1/2+z
1/2+x,1/2+y,z
1/2-x,-y,1/2+z
1/2+x,1/2-y,-z
1/2-x,y,1/2-z
1/2-x,1/2-y,-z
1/2+x,y,1/2-z
1/2-x,1/2+y,z
1/2+x,-y,1/2+z
loop_
_atom_site_type_symbol
_atom_site_label
_atom_site_fract_x
_atom_site_fract_y
_atom_site_fract_z
Si Si1 0.157125 0.780401 0.652078
Si Si2 0.233945 0.505668 0.070765
Si Si3 0.938130 0.688473 0.068900
Si Si4 0.437051 0.272789 0.433369
Si Si5 0.171760 0.815985 0.875159
Si Si6 0.187608 0.408856 0.235334
O O1 0.102229 0.748022 0.618035
O O2 0.163693 0.633154 0.700780
O O3 0.200207 0.838606 0.601295
O O4 0.159369 0.947739 0.695335
O O5 0.198578 0.341518 0.087874
O O6 0.292803 0.525922 0.100882
O O7 0.238851 0.500000 0.000000
O O8 0.933935 0.480564 0.070873
O O9 0.000000 0.733316 0.080416
O O10 0.924501 0.757096 0.003121
O O11 0.500000 0.225290 0.421758
O O12 0.391355 0.187985 0.392323
O O13 0.184282 0.758625 0.807616
O O14 0.250000 0.447754 0.250000
#
# Coordination Sequence:
#
# PCOD9481834 Si02
#       6
#    16  16  16  16  16  16
#     4  11  22  36  56  81 116 150 197 229 290 347
#     4  11  22  36  55  85 119 147 187 246 295 348
#     4   9  17  33  58  85 110 141 189 247 287 328
#     4   9  17  34  61  88 111 143 193 246 287 335
#     4  11  22  36  57  87 117 152 194 234 296 352
#     4  11  22  36  53  77 113 160 187 228 278 355
#
# _framework density 22.092977999999999
#
# number of rings (size 3 to 8) (size 9 to 14) (size 15 to 20)
#    0.000    1.667    5.000    3.000    2.333    0.000 
#    0.000    1.667    0.000    0.500    0.000    2.333 
#    0.000    0.000    0.000    0.000    0.000    0.000 
#
# Total GULP energy -268260.031908 kJ/mol
# GULP energy per Si atom -5588.750665 kJ/mol
# Density = 2.204269 g / cm^3
# Si number density = 22.092978 Si / 1000 Ang^3
#
#
#
# Elastic Constant Matrix: (Units=GPa)
#
#
# Indices 1 2 3 4 5 6 
#
# 1 117.7993 8.8729 68.9395 0.0000 0.0000 0.0000
# 2 8.8729 57.7257 -4.4556 0.0000 0.0000 0.0000
# 3 68.9395 -4.4556 144.9145 0.0000 0.0000 0.0000
# 4 0.0000 0.0000 0.0000 10.6075 0.0000 0.0000
# 5 0.0000 0.0000 0.0000 0.0000 35.6837 0.0000
# 6 0.0000 0.0000 0.0000 0.0000 0.0000 14.7813
#
#
#
# Elastic Compliance Matrix: (Units=1/GPa)
#
#
# Indices 1 2 3 4 5 6 
#
# 1 0.012062 -0.002302 -0.005809 0.000000 0.000000 0.000000
# 2 -0.002302 0.017804 0.001643 0.000000 0.000000 0.000000
# 3 -0.005809 0.001643 0.009715 0.000000 0.000000 0.000000
# 4 0.000000 0.000000 0.000000 0.094273 0.000000 0.000000
# 5 0.000000 0.000000 0.000000 0.000000 0.028024 0.000000
# 6 0.000000 0.000000 0.000000 0.000000 0.000000 0.067653
#
#
# Mechanical properties :
#
#
# Convention : Reuss Voigt Hill
#
# Bulk Modulus (GPa) = 37.53290 51.90589 44.71940
# Shear Modulus (GPa) = 19.89267 28.68670 24.28968
#
# Velocity S-wave (km/s) = 3.00393 3.60731 3.31936
# Velocity P-wave (km/s) = 5.39045 6.39497 5.91408
#
# Compressibility (1/GPa) = 0.02664329
#
# Stress axis : x y z
#
# Youngs Moduli (GPa) = 82.90480 56.16715 102.93763
#
# Poissons Ratio (x) = 0.12932 0.59797
# Poissons Ratio (y) = 0.19088 -0.16910
# Poissons Ratio (z) = 0.48159 -0.09227
#
# Static dielectric constant tensor:
#      x y z
#    x 1.797730 0.000000 0.000000 
#    y 0.000000 1.981160 0.000000 
#    z 0.000000 0.000000 1.761960 
# 
# From -- ./inp_files/41456.got.cif
#   From: 2010.05.17/outbox.cif.g08.bks.cpg/sg64_21_cif.got.tgz:41456.got - 2010.06.03 16:29:19.
