data_PCOD9481535
_publ_section_title
;
Structure prediction by ZEFSAII (Michael W. Deem and Ramdas Pophale) SiO2 
 PCOD9481535
Probable space group: C M C A
;
_chemical_formula_sum "Si O2"
_cell_formula_units_Z 36
_cell_length_a 13.826272
_cell_length_b 5.249378
_cell_length_c 17.993695
_cell_angle_alpha 90.000000
_cell_angle_beta 90.000000
_cell_angle_gamma 90.000000
_cell_volume 1305.970292
_symmetry_space_group_name_H-M "C M C A"
_symmetry_group_IT_number 64
_symmetry_cell_setting 'orthorhombic'
loop_
_space_group_symop_operation_xyz
x,y,z
-x,1/2-y,1/2+z
x,-y,-z
-x,1/2+y,1/2-z
-x,-y,-z
x,1/2+y,1/2-z
-x,y,z
x,1/2-y,1/2+z
1/2+x,1/2+y,z
1/2-x,-y,1/2+z
1/2+x,1/2-y,-z
1/2-x,y,1/2-z
1/2-x,1/2-y,-z
1/2+x,y,1/2-z
1/2-x,1/2+y,z
1/2+x,-y,1/2+z
loop_
_atom_site_type_symbol
_atom_site_label
_atom_site_fract_x
_atom_site_fract_y
_atom_site_fract_z
Si Si1 0.841701 0.303031 0.447760
Si Si2 0.500000 0.000000 0.000000
Si Si3 0.615040 0.010678 0.296759
O O1 0.900982 0.500000 0.500000
O O2 0.750000 0.250000 0.500000
O O3 0.825028 0.440749 0.370300
O O4 0.913637 0.067091 0.439396
O O5 0.633781 0.786003 0.237744
O O6 0.500000 0.999013 0.316159
#
# Coordination Sequence:
#
# PCOD9481535 Si02
#       3
#    16   4  16
#     4  12  27  47  80 117 156 208 270 327 400 474
#     4  12  26  48  80 108 160 204 264 334 386 468
#     4  10  24  45  76 112 156 207 262 329 404 470
#
# _framework density 27.565712999999999
#
# number of rings (size 3 to 8) (size 9 to 14) (size 15 to 20)
#    0.000    0.889    4.444    0.667    6.222    0.000 
#    0.000    6.667    0.000    0.000    0.000    0.000 
#    0.000    0.000    0.000    0.000    0.000    0.000 
#
# Total GULP energy -100359.640492 kJ/mol
# GULP energy per Si atom -5575.535583 kJ/mol
# Density = 2.750297 g / cm^3
# Si number density = 27.565713 Si / 1000 Ang^3
#
#
#
# Elastic Constant Matrix: (Units=GPa)
#
#
# Indices 1 2 3 4 5 6 
#
# 1 205.0903 5.5000 37.5766 0.0000 0.0000 0.0000
# 2 5.5000 82.5166 5.3116 0.0000 0.0000 0.0000
# 3 37.5766 5.3116 148.1079 0.0000 0.0000 0.0000
# 4 0.0000 0.0000 0.0000 52.7744 0.0000 0.0000
# 5 0.0000 0.0000 0.0000 0.0000 39.8765 0.0000
# 6 0.0000 0.0000 0.0000 0.0000 0.0000 -53.2080
#
#
#
# Elastic Compliance Matrix: (Units=1/GPa)
#
#
# Indices 1 2 3 4 5 6 
#
# 1 0.005119 -0.000258 -0.001290 0.000000 0.000000 0.000000
# 2 -0.000258 0.012160 -0.000371 0.000000 0.000000 0.000000
# 3 -0.001290 -0.000371 0.007092 0.000000 0.000000 0.000000
# 4 0.000000 0.000000 0.000000 0.018949 0.000000 0.000000
# 5 0.000000 0.000000 0.000000 0.000000 0.025077 0.000000
# 6 0.000000 0.000000 0.000000 0.000000 0.000000 -0.018794
#
#
# Mechanical properties :
#
#
# Convention : Reuss Voigt Hill
#
# Bulk Modulus (GPa) = 48.69820 59.16568 53.93194
# Shear Modulus (GPa) = 82.94000 33.71035 58.32517
#
# Velocity S-wave (km/s) = 5.49121 3.50080 4.60484
# Velocity P-wave (km/s) = 7.60981 6.15231 6.91954
#
# Compressibility (1/GPa) = 0.02053464
#
# Stress axis : x y z
#
# Youngs Moduli (GPa) = 195.34733 82.23791 140.99827
#
# Poissons Ratio (x) = 0.02123 0.18182
# Poissons Ratio (y) = 0.05044 0.05225
# Poissons Ratio (z) = 0.25190 0.03048
#
# Static dielectric constant tensor:
#      x y z
#    x 2.194920 0.000000 0.000000 
#    y 0.000000 3.582280 0.000000 
#    z 0.000000 0.000000 2.206500 
# 
# From -- ./inp_files/32604.got.cif
#   From: 2010.05.17/outbox.cif.g08.bks.cpg/sg64_17_cif.got.tgz:32604.got - 2010.06.03 16:29:19.
