data_PCOD9481843
_publ_section_title
;
Structure prediction by ZEFSAII (Michael W. Deem and Ramdas Pophale) SiO2 
 PCOD9481843
Probable space group: C M C A
;
_chemical_formula_sum "Si O2"
_cell_formula_units_Z 64
_cell_length_a 17.612967
_cell_length_b 9.743404
_cell_length_c 13.911175
_cell_angle_alpha 90.000000
_cell_angle_beta 90.000000
_cell_angle_gamma 90.000000
_cell_volume 2387.300263
_symmetry_space_group_name_H-M "C M C A"
_symmetry_group_IT_number 64
_symmetry_cell_setting 'orthorhombic'
loop_
_space_group_symop_operation_xyz
x,y,z
-x,1/2-y,1/2+z
x,-y,-z
-x,1/2+y,1/2-z
-x,-y,-z
x,1/2+y,1/2-z
-x,y,z
x,1/2-y,1/2+z
1/2+x,1/2+y,z
1/2-x,-y,1/2+z
1/2+x,1/2-y,-z
1/2-x,y,1/2-z
1/2-x,1/2-y,-z
1/2+x,y,1/2-z
1/2-x,1/2+y,z
1/2+x,-y,1/2+z
loop_
_atom_site_type_symbol
_atom_site_label
_atom_site_fract_x
_atom_site_fract_y
_atom_site_fract_z
Si Si1 0.884894 0.049406 0.351649
Si Si2 0.254799 0.879339 0.357777
Si Si3 0.917151 0.993852 0.864281
Si Si4 0.113570 0.783618 0.460043
O O1 0.794021 0.021095 0.354302
O O2 0.908639 0.071796 0.242991
O O3 0.901959 0.157853 0.434230
O O4 0.916626 0.902209 0.387622
O O5 0.250000 0.820630 0.250000
O O6 0.341549 0.915317 0.378664
O O7 0.202444 0.792400 0.429126
O O8 0.915423 0.865918 0.936417
O O9 0.000000 0.061768 0.867456
#
# Coordination Sequence:
#
# PCOD9481843 Si02
#       4
#    16  16  16  16
#     4   8  19  41  63  91 118 167 220 243 289 383
#     4   8  17  37  59  88 118 158 208 250 293 366
#     4  11  22  36  61  97 129 154 196 269 325 354
#     4   9  19  40  65  89 117 170 211 253 293 371
#
# _framework density 26.808524999999999
#
# number of rings (size 3 to 8) (size 9 to 14) (size 15 to 20)
#    1.500    1.500    0.000    0.000    0.000    6.000 
#    0.000    2.500    0.000    3.000    0.000    0.000 
#    0.000    0.000    0.000    0.000    0.000    0.000 
#
# Total GULP energy -178947.890758 kJ/mol
# GULP energy per Si atom -5592.121586 kJ/mol
# Density = 2.674751 g / cm^3
# Si number density = 26.808525 Si / 1000 Ang^3
#
#
#
# Elastic Constant Matrix: (Units=GPa)
#
#
# Indices 1 2 3 4 5 6 
#
# 1 244.3556 31.5430 31.4425 0.0000 0.0000 0.0000
# 2 31.5430 71.0584 -7.3324 0.0000 0.0000 0.0000
# 3 31.4425 -7.3324 110.8330 0.0000 0.0000 0.0000
# 4 0.0000 0.0000 0.0000 26.8809 0.0000 0.0000
# 5 0.0000 0.0000 0.0000 0.0000 33.5905 0.0000
# 6 0.0000 0.0000 0.0000 0.0000 0.0000 12.5640
#
#
#
# Elastic Compliance Matrix: (Units=1/GPa)
#
#
# Indices 1 2 3 4 5 6 
#
# 1 0.004558 -0.002171 -0.001437 0.000000 0.000000 0.000000
# 2 -0.002171 0.015204 0.001622 0.000000 0.000000 0.000000
# 3 -0.001437 0.001622 0.009537 0.000000 0.000000 0.000000
# 4 0.000000 0.000000 0.000000 0.037201 0.000000 0.000000
# 5 0.000000 0.000000 0.000000 0.000000 0.029770 0.000000
# 6 0.000000 0.000000 0.000000 0.000000 0.000000 0.079593
#
#
# Mechanical properties :
#
#
# Convention : Reuss Voigt Hill
#
# Bulk Modulus (GPa) = 39.48359 59.72813 49.60586
# Shear Modulus (GPa) = 26.55650 39.31332 32.93491
#
# Velocity S-wave (km/s) = 3.15079 3.83358 3.50883
# Velocity P-wave (km/s) = 5.29118 6.47480 5.91268
#
# Compressibility (1/GPa) = 0.02532697
#
# Stress axis : x y z
#
# Youngs Moduli (GPa) = 219.41657 65.77149 104.85002
#
# Poissons Ratio (x) = 0.14281 0.15063
# Poissons Ratio (y) = 0.47643 -0.17005
# Poissons Ratio (z) = 0.31521 -0.10667
#
# Static dielectric constant tensor:
#      x y z
#    x 2.819600 0.000000 0.000000 
#    y 0.000000 2.043570 0.000000 
#    z 0.000000 0.000000 2.070740 
# 
# From -- ./inp_files/24868.got.cif
#   From: 2010.05.17/outbox.cif.g08.bks.cpg/sg64_13_cif.got.tgz:24868.got - 2010.06.03 16:29:19.
