data_PCOD9481750
_publ_section_title
;
Structure prediction by ZEFSAII (Michael W. Deem and Ramdas Pophale) SiO2 
 PCOD9481750
Probable space group: C M C A
;
_chemical_formula_sum "Si O2"
_cell_formula_units_Z 80
_cell_length_a 18.129366
_cell_length_b 25.772760
_cell_length_c 9.782642
_cell_angle_alpha 90.000000
_cell_angle_beta 90.000000
_cell_angle_gamma 90.000000
_cell_volume 4570.878811
_symmetry_space_group_name_H-M "C M C A"
_symmetry_group_IT_number 64
_symmetry_cell_setting 'orthorhombic'
loop_
_space_group_symop_operation_xyz
x,y,z
-x,1/2-y,1/2+z
x,-y,-z
-x,1/2+y,1/2-z
-x,-y,-z
x,1/2+y,1/2-z
-x,y,z
x,1/2-y,1/2+z
1/2+x,1/2+y,z
1/2-x,-y,1/2+z
1/2+x,1/2-y,-z
1/2-x,y,1/2-z
1/2-x,1/2-y,-z
1/2+x,y,1/2-z
1/2-x,1/2+y,z
1/2+x,-y,1/2+z
loop_
_atom_site_type_symbol
_atom_site_label
_atom_site_fract_x
_atom_site_fract_y
_atom_site_fract_z
Si Si1 0.587468 0.942002 0.973377
Si Si2 0.587316 0.351607 0.313179
Si Si3 0.165375 0.633413 0.233261
Si Si4 0.086630 0.168903 0.993399
Si Si5 0.331501 0.224598 0.011651
O O1 0.500000 0.945343 0.947367
O O2 0.623673 0.911580 0.848046
O O3 0.598015 0.904850 0.104445
O O4 0.615606 0.000000 0.000000
O O5 0.500000 0.336364 0.329841
O O6 0.601624 0.357475 0.152728
O O7 0.641352 0.309199 0.381575
O O8 0.250000 0.618782 0.250000
O O9 0.130305 0.645276 0.379705
O O10 0.163671 0.685591 0.140062
O O11 0.112047 0.228150 0.974460
O O12 0.000000 0.166187 0.022242
O O13 0.250000 0.250000 0.000000
#
# Coordination Sequence:
#
# PCOD9481750 Si02
#       5
#    16  16  16  16  16
#     4   9  19  40  65  82 105 150 199 243 293 347
#     4   9  20  36  55  82 113 146 192 237 280 337
#     4  11  22  38  56  85 120 149 192 240 292 348
#     4  11  22  35  55  84 118 154 193 236 284 342
#     4  11  21  35  54  81 116 157 188 224 275 343
#
# _framework density 17.502106000000001
#
# number of rings (size 3 to 8) (size 9 to 14) (size 15 to 20)
#    0.000    1.800    2.000    2.400    0.000    4.000 
#    0.000    3.000    0.000    4.800    0.000    0.000 
#    0.000    0.000    0.000    0.000    0.000    0.000 
#
# Total GULP energy -223295.830616 kJ/mol
# GULP energy per Si atom -5582.395765 kJ/mol
# Density = 1.746227 g / cm^3
# Si number density = 17.502106 Si / 1000 Ang^3
#
#
#
# Elastic Constant Matrix: (Units=GPa)
#
#
# Indices 1 2 3 4 5 6 
#
# 1 87.1782 47.0320 69.8971 0.0000 0.0000 0.0000
# 2 47.0320 110.3203 56.7869 0.0000 0.0000 0.0000
# 3 69.8971 56.7869 136.8199 0.0000 0.0000 0.0000
# 4 0.0000 0.0000 0.0000 7.1230 0.0000 0.0000
# 5 0.0000 0.0000 0.0000 0.0000 -52.3712 0.0000
# 6 0.0000 0.0000 0.0000 0.0000 0.0000 23.9236
#
#
#
# Elastic Compliance Matrix: (Units=1/GPa)
#
#
# Indices 1 2 3 4 5 6 
#
# 1 0.020953 -0.004353 -0.008898 0.000000 0.000000 0.000000
# 2 -0.004353 0.012431 -0.002936 0.000000 0.000000 0.000000
# 3 -0.008898 -0.002936 0.013073 0.000000 0.000000 0.000000
# 4 0.000000 0.000000 0.000000 0.140389 0.000000 0.000000
# 5 0.000000 0.000000 0.000000 0.000000 -0.019094 0.000000
# 6 0.000000 0.000000 0.000000 0.000000 0.000000 0.041800
#
#
# Mechanical properties :
#
#
# Convention : Reuss Voigt Hill
#
# Bulk Modulus (GPa) = 70.99892 75.75005 73.37448
# Shear Modulus (GPa) = 20.27416 6.44190 13.35803
#
# Velocity S-wave (km/s) = 3.40720 1.92058 2.76565
# Velocity P-wave (km/s) = 7.49217 6.94929 7.22583
#
# Compressibility (1/GPa) = 0.01408472
#
# Stress axis : x y z
#
# Youngs Moduli (GPa) = 47.72625 80.44115 76.49368
#
# Poissons Ratio (x) = 0.35013 0.68061
# Poissons Ratio (y) = 0.20774 0.22459
# Poissons Ratio (z) = 0.42465 0.23618
#
# Static dielectric constant tensor:
#      x y z
#    x 1.602180 0.000000 0.000000 
#    y 0.000000 2.546120 0.000000 
#    z 0.000000 0.000000 1.608690 
# 
# From -- ./inp_files/7033.got.cif
#   From: 2010.05.17/outbox.cif.g08.bks.cpg/sg64_4_cif.got.tgz:7033.got - 2010.06.03 16:29:19.
