data_PCOD9481922
_publ_section_title
;
Structure prediction by ZEFSAII (Michael W. Deem and Ramdas Pophale) SiO2 
 PCOD9481922
Probable space group: C M C A
;
_chemical_formula_sum "Si O2"
_cell_formula_units_Z 72
_cell_length_a 18.874483
_cell_length_b 13.663565
_cell_length_c 14.328434
_cell_angle_alpha 90.000000
_cell_angle_beta 90.000000
_cell_angle_gamma 90.000000
_cell_volume 3695.198894
_symmetry_space_group_name_H-M "C M C A"
_symmetry_group_IT_number 64
_symmetry_cell_setting 'orthorhombic'
loop_
_space_group_symop_operation_xyz
x,y,z
-x,1/2-y,1/2+z
x,-y,-z
-x,1/2+y,1/2-z
-x,-y,-z
x,1/2+y,1/2-z
-x,y,z
x,1/2-y,1/2+z
1/2+x,1/2+y,z
1/2-x,-y,1/2+z
1/2+x,1/2-y,-z
1/2-x,y,1/2-z
1/2-x,1/2-y,-z
1/2+x,y,1/2-z
1/2-x,1/2+y,z
1/2+x,-y,1/2+z
loop_
_atom_site_type_symbol
_atom_site_label
_atom_site_fract_x
_atom_site_fract_y
_atom_site_fract_z
Si Si1 0.500000 0.438647 0.139613
Si Si2 0.500000 0.652395 0.067649
Si Si3 0.295283 0.174102 0.102016
Si Si4 0.250000 0.976100 0.750000
Si Si5 0.146348 0.728019 0.916133
Si Si6 0.852966 0.138035 0.788318
O O1 0.500000 0.556732 0.134144
O O2 0.431118 0.396868 0.189363
O O3 0.500000 0.393667 0.035661
O O4 0.571102 0.716828 0.079778
O O5 0.295080 0.089927 0.179235
O O6 0.212244 0.195599 0.081418
O O7 0.328221 0.270876 0.149442
O O8 0.338081 0.160246 0.006203
O O9 0.198476 0.047156 0.806633
O O10 0.152645 0.670476 0.819263
#
# Coordination Sequence:
#
# PCOD9481922 Si02
#       6
#     8   8  16   8  16  16
#     4  11  25  40  66  99 132 175 224 270 333 399
#     4  11  23  42  68  97 132 177 221 273 336 395
#     4  11  23  41  66  99 129 170 222 272 333 389
#     4  12  22  42  68  94 132 168 220 272 334 394
#     4  11  22  43  66  95 132 175 215 273 333 387
#     4  12  23  45  64  97 136 170 224 274 325 406
#
# _framework density 19.484743999999999
#
# number of rings (size 3 to 8) (size 9 to 14) (size 15 to 20)
#    0.000    0.667    6.667    2.000    0.000    0.889 
#    0.000    1.111    0.000    2.667    0.000    0.000 
#    0.000    0.000    0.000    0.000    0.000    0.000 
#
# Total GULP energy -201206.244211 kJ/mol
# GULP energy per Si atom -5589.062339 kJ/mol
# Density = 1.944040 g / cm^3
# Si number density = 19.484744 Si / 1000 Ang^3
#
#
#
# Elastic Constant Matrix: (Units=GPa)
#
#
# Indices 1 2 3 4 5 6 
#
# 1 142.1780 25.9473 5.4950 0.0000 0.0000 0.0000
# 2 25.9473 46.8347 6.2901 0.0000 0.0000 0.0000
# 3 5.4950 6.2901 96.5697 0.0000 0.0000 0.0000
# 4 0.0000 0.0000 0.0000 10.2681 0.0000 0.0000
# 5 0.0000 0.0000 0.0000 0.0000 30.0219 0.0000
# 6 0.0000 0.0000 0.0000 0.0000 0.0000 23.3347
#
#
#
# Elastic Compliance Matrix: (Units=1/GPa)
#
#
# Indices 1 2 3 4 5 6 
#
# 1 0.007827 -0.004314 -0.000164 0.000000 0.000000 0.000000
# 2 -0.004314 0.023918 -0.001312 0.000000 0.000000 0.000000
# 3 -0.000164 -0.001312 0.010450 0.000000 0.000000 0.000000
# 4 0.000000 0.000000 0.000000 0.097389 0.000000 0.000000
# 5 0.000000 0.000000 0.000000 0.000000 0.033309 0.000000
# 6 0.000000 0.000000 0.000000 0.000000 0.000000 0.042855
#
#
# Mechanical properties :
#
#
# Convention : Reuss Voigt Hill
#
# Bulk Modulus (GPa) = 32.66569 40.11637 36.39103
# Shear Modulus (GPa) = 21.04960 29.24828 25.14894
#
# Velocity S-wave (km/s) = 3.29038 3.87859 3.59653
# Velocity P-wave (km/s) = 5.58897 6.37897 5.99699
#
# Compressibility (1/GPa) = 0.03061316
#
# Stress axis : x y z
#
# Youngs Moduli (GPa) = 127.76053 41.80923 95.69333
#
# Poissons Ratio (x) = 0.18038 0.01573
# Poissons Ratio (y) = 0.55120 0.12559
# Poissons Ratio (z) = 0.02100 0.05487
#
# Static dielectric constant tensor:
#      x y z
#    x 1.698970 0.000000 0.000000 
#    y 0.000000 1.678630 0.000000 
#    z 0.000000 0.000000 1.706460 
# 
# From -- ./inp_files/25162.got.cif
#   From: 2010.05.17/outbox.cif.g08.bks.cpg/sg64_13_cif.got.tgz:25162.got - 2010.06.03 16:29:19.
