data_PCOD9481378
_publ_section_title
;
Structure prediction by ZEFSAII (Michael W. Deem and Ramdas Pophale) SiO2 
 PCOD9481378
Probable space group: C M C A
;
_chemical_formula_sum "Si O2"
_cell_formula_units_Z 112
_cell_length_a 27.316364
_cell_length_b 14.510452
_cell_length_c 13.852357
_cell_angle_alpha 90.000000
_cell_angle_beta 90.000000
_cell_angle_gamma 90.000000
_cell_volume 5490.697373
_symmetry_space_group_name_H-M "C M C A"
_symmetry_group_IT_number 64
_symmetry_cell_setting 'orthorhombic'
loop_
_space_group_symop_operation_xyz
x,y,z
-x,1/2-y,1/2+z
x,-y,-z
-x,1/2+y,1/2-z
-x,-y,-z
x,1/2+y,1/2-z
-x,y,z
x,1/2-y,1/2+z
1/2+x,1/2+y,z
1/2-x,-y,1/2+z
1/2+x,1/2-y,-z
1/2-x,y,1/2-z
1/2-x,1/2-y,-z
1/2+x,y,1/2-z
1/2-x,1/2+y,z
1/2+x,-y,1/2+z
loop_
_atom_site_type_symbol
_atom_site_label
_atom_site_fract_x
_atom_site_fract_y
_atom_site_fract_z
Si Si1 0.244216 0.005339 0.635266
Si Si2 0.443576 0.002952 0.614169
Si Si3 0.104074 0.844120 0.770122
Si Si4 0.867431 0.010596 0.390845
Si Si5 0.799606 0.165468 0.099338
Si Si6 0.713341 0.299085 0.113659
Si Si7 0.381181 0.146055 0.734160
O O1 0.250000 0.995301 0.750000
O O2 0.190765 0.973294 0.604855
O O3 0.285632 0.941370 0.589938
O O4 0.252024 0.111475 0.611011
O O5 0.500000 0.025925 0.635261
O O6 0.430391 0.904974 0.661823
O O7 0.436579 0.000000 0.500000
O O8 0.407611 0.078017 0.659899
O O9 0.111548 0.905222 0.673288
O O10 0.155269 0.831379 0.828190
O O11 0.088591 0.739698 0.749448
O O12 0.886401 0.000000 0.500000
O O13 0.874296 0.916089 0.329774
O O14 0.749814 0.215271 0.135287
O O15 0.809200 0.209455 0.994009
O O16 0.670806 0.321971 0.189202
#
# Coordination Sequence:
#
# PCOD9481378 Si02
#       7
#    16  16  16  16  16  16  16
#     4  12  20  34  52  73 113 164 213 251 294 347
#     4  10  23  45  71  97 122 152 201 263 321 377
#     4  11  23  39  64  89 123 161 202 255 310 377
#     4  11  23  37  54  83 121 166 211 255 301 359
#     4  11  23  36  56  86 120 161 208 255 302 361
#     4  11  23  36  56  86 120 161 208 255 302 361
#     4  11  23  39  64  89 123 161 202 255 310 377
#
# _framework density 20.398139
#
# number of rings (size 3 to 8) (size 9 to 14) (size 15 to 20)
#    0.000    1.000    2.857    4.714    0.000    5.143 
#    0.000    0.000    0.000    7.714    0.000    0.000 
#    0.000    0.000    0.000    0.000    0.000    0.000 
#
# Total GULP energy -313133.143189 kJ/mol
# GULP energy per Si atom -5591.663271 kJ/mol
# Density = 2.035171 g / cm^3
# Si number density = 20.398139 Si / 1000 Ang^3
#
#
#
# Elastic Constant Matrix: (Units=GPa)
#
#
# Indices 1 2 3 4 5 6 
#
# 1 37.5377 1.3406 22.4701 0.0000 0.0000 0.0000
# 2 1.3406 89.4330 15.2045 0.0000 0.0000 0.0000
# 3 22.4701 15.2045 133.5211 0.0000 0.0000 0.0000
# 4 0.0000 0.0000 0.0000 19.3549 0.0000 0.0000
# 5 0.0000 0.0000 0.0000 0.0000 -6.3765 0.0000
# 6 0.0000 0.0000 0.0000 0.0000 0.0000 16.0026
#
#
#
# Elastic Compliance Matrix: (Units=1/GPa)
#
#
# Indices 1 2 3 4 5 6 
#
# 1 0.029639 0.000412 -0.005035 0.000000 0.000000 0.000000
# 2 0.000412 0.011408 -0.001368 0.000000 0.000000 0.000000
# 3 -0.005035 -0.001368 0.008493 0.000000 0.000000 0.000000
# 4 0.000000 0.000000 0.000000 0.051666 0.000000 0.000000
# 5 0.000000 0.000000 0.000000 0.000000 -0.156826 0.000000
# 6 0.000000 0.000000 0.000000 0.000000 0.000000 0.062490
#
#
# Mechanical properties :
#
#
# Convention : Reuss Voigt Hill
#
# Bulk Modulus (GPa) = 26.62643 37.61358 32.12001
# Shear Modulus (GPa) = 159.38105 20.56131 89.97118
#
# Velocity S-wave (km/s) = 8.84900 3.17834 6.64856
# Velocity P-wave (km/s) = 10.83919 5.65234 8.64398
#
# Compressibility (1/GPa) = 0.03755666
#
# Stress axis : x y z
#
# Youngs Moduli (GPa) = 33.73933 87.65766 117.74993
#
# Poissons Ratio (x) = -0.03609 0.59285
# Poissons Ratio (y) = -0.01389 0.16112
# Poissons Ratio (z) = 0.16987 0.11995
#
# Static dielectric constant tensor:
#      x y z
#    x 1.692200 0.000000 0.000000 
#    y 0.000000 1.728710 0.000000 
#    z 0.000000 0.000000 1.794580 
# 
# From -- ./inp_files/27449.got.cif
#   From: 2010.05.17/outbox.cif.g08.bks.cpg/sg64_14_cif.got.tgz:27449.got - 2010.06.03 16:29:19.
