data_PCOD9481729
_publ_section_title
;
Structure prediction by ZEFSAII (Michael W. Deem and Ramdas Pophale) SiO2 
 PCOD9481729
Probable space group: C M C A
;
_chemical_formula_sum "Si O2"
_cell_formula_units_Z 112
_cell_length_a 30.776907
_cell_length_b 12.509228
_cell_length_c 13.964245
_cell_angle_alpha 90.000000
_cell_angle_beta 90.000000
_cell_angle_gamma 90.000000
_cell_volume 5376.169347
_symmetry_space_group_name_H-M "C M C A"
_symmetry_group_IT_number 64
_symmetry_cell_setting 'orthorhombic'
loop_
_space_group_symop_operation_xyz
x,y,z
-x,1/2-y,1/2+z
x,-y,-z
-x,1/2+y,1/2-z
-x,-y,-z
x,1/2+y,1/2-z
-x,y,z
x,1/2-y,1/2+z
1/2+x,1/2+y,z
1/2-x,-y,1/2+z
1/2+x,1/2-y,-z
1/2-x,y,1/2-z
1/2-x,1/2-y,-z
1/2+x,y,1/2-z
1/2-x,1/2+y,z
1/2+x,-y,1/2+z
loop_
_atom_site_type_symbol
_atom_site_label
_atom_site_fract_x
_atom_site_fract_y
_atom_site_fract_z
Si Si1 0.814448 0.999993 0.608967
Si Si2 0.412019 0.069354 0.121386
Si Si3 0.184348 0.876930 0.215358
Si Si4 0.950147 0.855915 0.427981
Si Si5 0.610881 0.279586 0.796000
Si Si6 0.737391 0.293814 0.640290
Si Si7 0.822174 0.581568 0.410918
O O1 0.797687 0.095240 0.676927
O O2 0.799031 0.000000 0.500000
O O3 0.866446 0.994618 0.610786
O O4 0.798082 0.886137 0.642124
O O5 0.407498 0.138537 0.216825
O O6 0.447334 0.975464 0.116348
O O7 0.422753 0.139769 0.027378
O O8 0.142246 0.805181 0.240271
O O9 0.210751 0.815970 0.131455
O O10 0.179572 0.996549 0.176338
O O11 0.927353 0.779750 0.351648
O O12 0.000000 0.827837 0.447448
O O13 0.639420 0.339528 0.877665
O O14 0.750000 0.282279 0.750000
O O15 0.778872 0.343049 0.585732
O O16 0.828216 0.500000 0.500000
#
# Coordination Sequence:
#
# PCOD9481729 Si02
#       7
#    16  16  16  16  16  16  16
#     4  12  22  40  66  95 128 176 228 285 334 397
#     4  11  20  43  69  99 137 174 226 281 344 418
#     4  12  23  42  68  91 137 177 232 279 332 409
#     4  11  25  43  71 104 134 175 230 293 354 430
#     4  12  23  43  71 102 132 186 224 282 357 417
#     4  12  24  42  60  93 133 181 230 276 339 390
#     4  12  28  44  64 101 137 183 231 289 343 406
#
# _framework density 20.832677
#
# number of rings (size 3 to 8) (size 9 to 14) (size 15 to 20)
#    0.000    0.286    8.571    1.286    4.000    2.857 
#    0.000    0.000    0.000    0.429    0.000    0.000 
#    0.000    0.000    0.000    0.000    0.000    0.000 
#
# Total GULP energy -312317.271504 kJ/mol
# GULP energy per Si atom -5577.094134 kJ/mol
# Density = 2.078526 g / cm^3
# Si number density = 20.832677 Si / 1000 Ang^3
#
#
#
# Elastic Constant Matrix: (Units=GPa)
#
#
# Indices 1 2 3 4 5 6 
#
# 1 89.4582 26.9320 31.1044 0.0000 0.0000 0.0000
# 2 26.9320 76.2194 35.9656 0.0000 0.0000 0.0000
# 3 31.1044 35.9656 120.2612 0.0000 0.0000 0.0000
# 4 0.0000 0.0000 0.0000 34.3879 0.0000 0.0000
# 5 0.0000 0.0000 0.0000 0.0000 16.3761 0.0000
# 6 0.0000 0.0000 0.0000 0.0000 0.0000 12.9640
#
#
#
# Elastic Compliance Matrix: (Units=1/GPa)
#
#
# Indices 1 2 3 4 5 6 
#
# 1 0.013044 -0.003513 -0.002323 0.000000 0.000000 0.000000
# 2 -0.003513 0.016222 -0.003943 0.000000 0.000000 0.000000
# 3 -0.002323 -0.003943 0.010095 0.000000 0.000000 0.000000
# 4 0.000000 0.000000 0.000000 0.029080 0.000000 0.000000
# 5 0.000000 0.000000 0.000000 0.000000 0.061065 0.000000
# 6 0.000000 0.000000 0.000000 0.000000 0.000000 0.077137
#
#
# Mechanical properties :
#
#
# Convention : Reuss Voigt Hill
#
# Bulk Modulus (GPa) = 50.49646 52.66033 51.57840
# Shear Modulus (GPa) = 21.47762 25.54137 23.50949
#
# Velocity S-wave (km/s) = 3.21434 3.50526 3.36295
# Velocity P-wave (km/s) = 6.16990 6.45872 6.31596
#
# Compressibility (1/GPa) = 0.01980337
#
# Stress axis : x y z
#
# Youngs Moduli (GPa) = 76.66547 61.64572 99.05689
#
# Poissons Ratio (x) = 0.21655 0.23012
# Poissons Ratio (y) = 0.26931 0.39056
# Poissons Ratio (z) = 0.17810 0.24305
#
# Static dielectric constant tensor:
#      x y z
#    x 1.612660 0.000000 0.000000 
#    y 0.000000 2.332830 0.000000 
#    z 0.000000 0.000000 1.598590 
# 
# From -- ./inp_files/28402.got.cif
#   From: 2010.05.17/outbox.cif.g08.bks.cpg/sg64_15_cif.got.tgz:28402.got - 2010.06.03 16:29:19.
