data_PCOD9481727
_publ_section_title
;
Structure prediction by ZEFSAII (Michael W. Deem and Ramdas Pophale) SiO2 
 PCOD9481727
Probable space group: C M C A
;
_chemical_formula_sum "Si O2"
_cell_formula_units_Z 64
_cell_length_a 12.449760
_cell_length_b 22.236575
_cell_length_c 9.481215
_cell_angle_alpha 90.000000
_cell_angle_beta 90.000000
_cell_angle_gamma 90.000000
_cell_volume 2624.779769
_symmetry_space_group_name_H-M "C M C A"
_symmetry_group_IT_number 64
_symmetry_cell_setting 'orthorhombic'
loop_
_space_group_symop_operation_xyz
x,y,z
-x,1/2-y,1/2+z
x,-y,-z
-x,1/2+y,1/2-z
-x,-y,-z
x,1/2+y,1/2-z
-x,y,z
x,1/2-y,1/2+z
1/2+x,1/2+y,z
1/2-x,-y,1/2+z
1/2+x,1/2-y,-z
1/2-x,y,1/2-z
1/2-x,1/2-y,-z
1/2+x,y,1/2-z
1/2-x,1/2+y,z
1/2+x,-y,1/2+z
loop_
_atom_site_type_symbol
_atom_site_label
_atom_site_fract_x
_atom_site_fract_y
_atom_site_fract_z
Si Si1 0.848189 0.564598 0.944344
Si Si2 0.322875 0.222296 0.623033
Si Si3 0.112239 0.091307 0.883369
Si Si4 0.379520 0.351523 0.703484
O O1 0.882171 0.580265 0.785502
O O2 0.719099 0.563784 0.945092
O O3 0.885049 0.500000 0.000000
O O4 0.881777 0.616000 0.052484
O O5 0.250000 0.198419 0.750000
O O6 0.250000 0.250000 0.500000
O O7 0.383845 0.162459 0.578585
O O8 0.382890 0.279586 0.686481
O O9 0.000000 0.065765 0.933760
O O10 0.500000 0.368326 0.767873
O O11 0.250000 0.363247 0.750000
#
# Coordination Sequence:
#
# PCOD9481727 Si02
#       4
#    16  16  16  16
#     4  11  25  46  67  98 144 191 247 304 368 441
#     4  11  20  42  70 104 145 189 238 300 373 450
#     4  11  23  43  73 101 134 187 246 308 373 443
#     4  11  25  43  68 104 143 189 239 297 366 443
#
# _framework density 24.382998000000001
#
# number of rings (size 3 to 8) (size 9 to 14) (size 15 to 20)
#    0.000    1.000    5.000    1.500    3.500    3.500 
#    0.000    2.500    0.000    0.000    0.000    0.000 
#    0.000    0.000    0.000    0.000    0.000    0.000 
#
# Total GULP energy -178442.866474 kJ/mol
# GULP energy per Si atom -5576.339577 kJ/mol
# Density = 2.432750 g / cm^3
# Si number density = 24.382998 Si / 1000 Ang^3
#
#
#
# Elastic Constant Matrix: (Units=GPa)
#
#
# Indices 1 2 3 4 5 6 
#
# 1 250.1312 13.4423 35.1739 0.0000 0.0000 0.0000
# 2 13.4423 114.8744 27.2619 0.0000 0.0000 0.0000
# 3 35.1739 27.2619 72.2189 0.0000 0.0000 0.0000
# 4 0.0000 0.0000 0.0000 28.5719 0.0000 0.0000
# 5 0.0000 0.0000 0.0000 0.0000 -85.7977 0.0000
# 6 0.0000 0.0000 0.0000 0.0000 0.0000 263.7459
#
#
#
# Elastic Compliance Matrix: (Units=1/GPa)
#
#
# Indices 1 2 3 4 5 6 
#
# 1 0.004292 -0.000007 -0.002088 0.000000 0.000000 0.000000
# 2 -0.000007 0.009562 -0.003606 0.000000 0.000000 0.000000
# 3 -0.002088 -0.003606 0.016225 0.000000 0.000000 0.000000
# 4 0.000000 0.000000 0.000000 0.034999 0.000000 0.000000
# 5 0.000000 0.000000 0.000000 0.000000 -0.011655 0.000000
# 6 0.000000 0.000000 0.000000 0.000000 0.000000 0.003792
#
#
# Mechanical properties :
#
#
# Convention : Reuss Voigt Hill
#
# Bulk Modulus (GPa) = 53.54143 65.44229 59.49186
# Shear Modulus (GPa) = 66.80808 65.39378 66.10093
#
# Velocity S-wave (km/s) = 5.24013 5.18436 5.21232
# Velocity P-wave (km/s) = 7.65625 7.92051 7.78950
#
# Compressibility (1/GPa) = 0.01867713
#
# Stress axis : x y z
#
# Youngs Moduli (GPa) = 232.99967 104.58323 61.63360
#
# Poissons Ratio (x) = 0.00071 0.12868
# Poissons Ratio (y) = 0.00157 0.22226
# Poissons Ratio (z) = 0.48645 0.37715
#
# Static dielectric constant tensor:
#      x y z
#    x 2.043000 0.000000 0.000000 
#    y 0.000000 1.865330 0.000000 
#    z 0.000000 0.000000 1.912630 
# 
# From -- ./inp_files/12814.got.cif
#   From: 2010.05.17/outbox.cif.g08.bks.cpg/sg64_7_cif.got.tgz:12814.got - 2010.06.03 16:29:19.
