data_PCOD9481589
_publ_section_title
;
Structure prediction by ZEFSAII (Michael W. Deem and Ramdas Pophale) SiO2 
 PCOD9481589
Probable space group: C M C A
;
_chemical_formula_sum "Si O2"
_cell_formula_units_Z 80
_cell_length_a 22.479660
_cell_length_b 14.753546
_cell_length_c 11.674138
_cell_angle_alpha 90.000000
_cell_angle_beta 90.000000
_cell_angle_gamma 90.000000
_cell_volume 3871.782711
_symmetry_space_group_name_H-M "C M C A"
_symmetry_group_IT_number 64
_symmetry_cell_setting 'orthorhombic'
loop_
_space_group_symop_operation_xyz
x,y,z
-x,1/2-y,1/2+z
x,-y,-z
-x,1/2+y,1/2-z
-x,-y,-z
x,1/2+y,1/2-z
-x,y,z
x,1/2-y,1/2+z
1/2+x,1/2+y,z
1/2-x,-y,1/2+z
1/2+x,1/2-y,-z
1/2-x,y,1/2-z
1/2-x,1/2-y,-z
1/2+x,y,1/2-z
1/2-x,1/2+y,z
1/2+x,-y,1/2+z
loop_
_atom_site_type_symbol
_atom_site_label
_atom_site_fract_x
_atom_site_fract_y
_atom_site_fract_z
Si Si1 0.206186 0.393103 0.610609
Si Si2 0.568588 0.452711 0.313038
Si Si3 0.431792 0.356903 0.550197
Si Si4 0.819272 0.787463 0.662281
Si Si5 0.672537 0.412626 0.137594
O O1 0.178327 0.340656 0.717710
O O2 0.268683 0.341582 0.591226
O O3 0.165649 0.394111 0.498334
O O4 0.214620 0.498933 0.640878
O O5 0.500000 0.442784 0.275760
O O6 0.574001 0.550808 0.374483
O O7 0.579344 0.382893 0.417829
O O8 0.614682 0.438871 0.210861
O O9 0.500000 0.325524 0.561013
O O10 0.381974 0.291488 0.598668
O O11 0.804029 0.683124 0.681938
#
# Coordination Sequence:
#
# PCOD9481589 Si02
#       5
#    16  16  16  16  16
#     4  10  25  44  57  98 132 161 215 264 325 389
#     4   9  19  38  65  93 126 167 213 264 321 378
#     4   9  19  39  65  94 124 165 219 264 309 386
#     4  11  23  41  66  90 125 172 214 263 322 386
#     4  11  23  42  66  89 133 166 210 267 328 386
#
# _framework density 20.662317000000002
#
# number of rings (size 3 to 8) (size 9 to 14) (size 15 to 20)
#    0.000    2.000    2.000    1.800    2.800    7.200 
#    0.000    3.000    0.000    0.000    0.000    0.000 
#    0.000    0.000    0.000    0.000    0.000    0.000 
#
# Total GULP energy -223195.103149 kJ/mol
# GULP energy per Si atom -5579.877579 kJ/mol
# Density = 2.061529 g / cm^3
# Si number density = 20.662317 Si / 1000 Ang^3
#
#
#
# Elastic Constant Matrix: (Units=GPa)
#
#
# Indices 1 2 3 4 5 6 
#
# 1 102.8917 27.7476 53.4225 0.0000 0.0000 0.0000
# 2 27.7476 135.0269 18.3019 0.0000 0.0000 0.0000
# 3 53.4225 18.3019 110.6787 0.0000 0.0000 0.0000
# 4 0.0000 0.0000 0.0000 14.6270 0.0000 0.0000
# 5 0.0000 0.0000 0.0000 0.0000 27.4166 0.0000
# 6 0.0000 0.0000 0.0000 0.0000 0.0000 -7.1221
#
#
#
# Elastic Compliance Matrix: (Units=1/GPa)
#
#
# Indices 1 2 3 4 5 6 
#
# 1 0.013442 -0.001926 -0.006170 0.000000 0.000000 0.000000
# 2 -0.001926 0.007852 -0.000369 0.000000 0.000000 0.000000
# 3 -0.006170 -0.000369 0.012074 0.000000 0.000000 0.000000
# 4 0.000000 0.000000 0.000000 0.068367 0.000000 0.000000
# 5 0.000000 0.000000 0.000000 0.000000 0.036474 0.000000
# 6 0.000000 0.000000 0.000000 0.000000 0.000000 -0.140408
#
#
# Mechanical properties :
#
#
# Convention : Reuss Voigt Hill
#
# Bulk Modulus (GPa) = 60.83135 60.83792 60.83463
# Shear Modulus (GPa) = 247.42231 23.59265 135.50748
#
# Velocity S-wave (km/s) = 10.95471 3.38275 8.10705
# Velocity P-wave (km/s) = 13.76634 6.69068 10.82306
#
# Compressibility (1/GPa) = 0.01643889
#
# Stress axis : x y z
#
# Youngs Moduli (GPa) = 74.39560 127.36109 82.82216
#
# Poissons Ratio (x) = 0.24529 0.51098
# Poissons Ratio (y) = 0.14328 0.03054
# Poissons Ratio (z) = 0.45899 0.04696
#
# Static dielectric constant tensor:
#      x y z
#    x 1.730760 0.000000 0.000000 
#    y 0.000000 1.770390 0.000000 
#    z 0.000000 0.000000 1.759640 
# 
# From -- ./inp_files/18053.got.cif
#   From: 2010.05.17/outbox.cif.g08.bks.cpg/sg64_10_cif.got.tgz:18053.got - 2010.06.03 16:29:19.
