data_PCOD9481392
_publ_section_title
;
Structure prediction by ZEFSAII (Michael W. Deem and Ramdas Pophale) SiO2 
 PCOD9481392
Probable space group: C M C A
;
_chemical_formula_sum "Si O2"
_cell_formula_units_Z 52
_cell_length_a 9.668188
_cell_length_b 10.660606
_cell_length_c 19.698265
_cell_angle_alpha 90.000000
_cell_angle_beta 90.000000
_cell_angle_gamma 90.000000
_cell_volume 2030.275413
_symmetry_space_group_name_H-M "C M C A"
_symmetry_group_IT_number 64
_symmetry_cell_setting 'orthorhombic'
loop_
_space_group_symop_operation_xyz
x,y,z
-x,1/2-y,1/2+z
x,-y,-z
-x,1/2+y,1/2-z
-x,-y,-z
x,1/2+y,1/2-z
-x,y,z
x,1/2-y,1/2+z
1/2+x,1/2+y,z
1/2-x,-y,1/2+z
1/2+x,1/2-y,-z
1/2-x,y,1/2-z
1/2-x,1/2-y,-z
1/2+x,y,1/2-z
1/2-x,1/2+y,z
1/2+x,-y,1/2+z
loop_
_atom_site_type_symbol
_atom_site_label
_atom_site_fract_x
_atom_site_fract_y
_atom_site_fract_z
Si Si1 0.500000 0.576231 0.859274
Si Si2 0.500000 0.667247 0.217232
Si Si3 0.000000 0.707107 0.993810
Si Si4 0.500000 0.500000 0.000000
Si Si5 0.191546 0.344384 0.131599
Si Si6 0.500000 0.424821 0.640111
O O1 0.500000 0.481893 0.795448
O O2 0.354002 0.645861 0.863738
O O3 0.500000 0.471985 0.919320
O O4 0.627705 0.740901 0.182006
O O5 0.500000 0.125346 0.062442
O O6 0.500000 0.671847 0.298191
O O7 0.131654 0.681565 0.944433
O O8 0.000000 0.850294 0.016171
O O9 0.130481 0.481818 0.147603
#
# Coordination Sequence:
#
# PCOD9481392 Si02
#       6
#     8   8   8   4  16   8
#     4  12  27  46  84 118 162 215 268 332 421 483
#     4  10  24  55  77 117 166 210 283 336 404 501
#     4  10  23  50  80 123 162 208 282 344 408 487
#     4  12  26  42  82 116 162 210 262 344 408 476
#     4  10  24  51  82 118 167 208 275 344 404 493
#     4  10  23  48  87 116 160 226 269 345 412 483
#
# _framework density 25.612287999999999
#
# number of rings (size 3 to 8) (size 9 to 14) (size 15 to 20)
#    0.000    1.846    3.077    1.846    4.308    7.385 
#    0.000   10.769    0.000    0.923    0.000    0.000 
#    0.000    0.000    0.000    0.000    0.000    0.000 
#
# Total GULP energy -145184.310896 kJ/mol
# GULP energy per Si atom -5584.011958 kJ/mol
# Density = 2.555399 g / cm^3
# Si number density = 25.612288 Si / 1000 Ang^3
#
#
#
# Elastic Constant Matrix: (Units=GPa)
#
#
# Indices 1 2 3 4 5 6 
#
# 1 251.0173 92.7968 94.8350 0.0000 0.0000 0.0000
# 2 92.7968 111.3350 67.9757 0.0000 0.0000 0.0000
# 3 94.8350 67.9757 200.7966 0.0000 0.0000 0.0000
# 4 0.0000 0.0000 0.0000 60.9388 0.0000 0.0000
# 5 0.0000 0.0000 0.0000 0.0000 14.8436 0.0000
# 6 0.0000 0.0000 0.0000 0.0000 0.0000 14.7881
#
#
#
# Elastic Compliance Matrix: (Units=1/GPa)
#
#
# Indices 1 2 3 4 5 6 
#
# 1 0.006078 -0.004177 -0.001457 0.000000 0.000000 0.000000
# 2 -0.004177 0.014192 -0.002832 0.000000 0.000000 0.000000
# 3 -0.001457 -0.002832 0.006627 0.000000 0.000000 0.000000
# 4 0.000000 0.000000 0.000000 0.016410 0.000000 0.000000
# 5 0.000000 0.000000 0.000000 0.000000 0.067369 0.000000
# 6 0.000000 0.000000 0.000000 0.000000 0.000000 0.067622
#
#
# Mechanical properties :
#
#
# Convention : Reuss Voigt Hill
#
# Bulk Modulus (GPa) = 100.33529 119.37380 109.85454
# Shear Modulus (GPa) = 25.18250 38.61686 31.89968
#
# Velocity S-wave (km/s) = 3.13903 3.88718 3.53297
# Velocity P-wave (km/s) = 7.23863 8.17656 7.72185
#
# Compressibility (1/GPa) = 0.00996658
#
# Stress axis : x y z
#
# Youngs Moduli (GPa) = 164.52187 70.46155 150.90143
#
# Poissons Ratio (x) = 0.29430 0.21983
# Poissons Ratio (y) = 0.68716 0.42733
# Poissons Ratio (z) = 0.23967 0.19953
#
# Static dielectric constant tensor:
#      x y z
#    x 2.004180 0.000000 0.000000 
#    y 0.000000 2.024110 0.000000 
#    z 0.000000 0.000000 2.087230 
# 
# From -- ./inp_files/51486.got.cif
#   From: 2010.05.17/outbox.cif.g08.bks.cpg/sg64_26_cif.got.tgz:51486.got - 2010.06.03 16:29:19.
