data_PCOD9481066
_publ_section_title
;
Structure prediction by ZEFSAII (Michael W. Deem and Ramdas Pophale) SiO2 
 PCOD9481066
Probable space group: C M C A
;
_chemical_formula_sum "Si O2"
_cell_formula_units_Z 116
_cell_length_a 22.607302
_cell_length_b 15.237403
_cell_length_c 14.844930
_cell_angle_alpha 90.000000
_cell_angle_beta 90.000000
_cell_angle_gamma 90.000000
_cell_volume 5113.730588
_symmetry_space_group_name_H-M "C M C A"
_symmetry_group_IT_number 64
_symmetry_cell_setting 'orthorhombic'
loop_
_space_group_symop_operation_xyz
x,y,z
-x,1/2-y,1/2+z
x,-y,-z
-x,1/2+y,1/2-z
-x,-y,-z
x,1/2+y,1/2-z
-x,y,z
x,1/2-y,1/2+z
1/2+x,1/2+y,z
1/2-x,-y,1/2+z
1/2+x,1/2-y,-z
1/2-x,y,1/2-z
1/2-x,1/2-y,-z
1/2+x,y,1/2-z
1/2-x,1/2+y,z
1/2+x,-y,1/2+z
loop_
_atom_site_type_symbol
_atom_site_label
_atom_site_fract_x
_atom_site_fract_y
_atom_site_fract_z
Si Si1 0.565343 0.227096 0.215399
Si Si2 0.754455 0.754948 0.858687
Si Si3 0.099094 0.970621 0.654310
Si Si4 0.000000 0.500000 0.000000
Si Si5 0.116302 0.790086 0.898054
Si Si6 0.861076 0.670007 0.585285
Si Si7 0.734243 0.959299 0.901767
Si Si8 0.641355 0.508254 0.154330
O O1 0.500000 0.248828 0.183641
O O2 0.582720 0.130842 0.178209
O O3 0.569018 0.233199 0.323276
O O4 0.613789 0.291238 0.176523
O O5 0.750000 0.751164 0.750000
O O6 0.822681 0.738526 0.881348
O O7 0.708388 0.692449 0.909920
O O8 0.739147 0.853716 0.891346
O O9 0.052208 0.002664 0.580492
O O10 0.166336 0.979800 0.619880
O O11 0.104590 0.010716 0.754933
O O12 0.128990 0.893109 0.877962
O O13 0.105470 0.782851 0.003457
O O14 0.872922 0.567431 0.584023
O O15 0.787031 0.994156 0.836914
O O16 0.747367 0.000000 0.000000
#
# Coordination Sequence:
#
# PCOD9481066 Si02
#       8
#    16  16  16   4  16  16  16  16
#     4  11  24  46  68  91 133 188 230 279 347 399
#     4  11  20  39  65  96 139 176 215 282 355 416
#     4  11  22  44  67  94 140 179 231 286 339 409
#     4  12  24  44  72 104 130 196 242 278 340 420
#     4  10  22  43  68  94 135 179 224 279 349 415
#     4  12  23  42  68 103 135 174 228 285 345 416
#     4  11  20  37  66 101 134 179 225 277 348 418
#     4  10  23  42  67 101 139 176 225 287 348 421
#
# _framework density 22.684028000000001
#
# number of rings (size 3 to 8) (size 9 to 14) (size 15 to 20)
#    0.000    1.103    4.138    4.552    0.000    1.655 
#    6.207    0.000    0.000    2.483    0.000    0.000 
#    0.000    0.000    0.000    0.000    0.000    0.000 
#
# Total GULP energy -323352.261192 kJ/mol
# GULP energy per Si atom -5575.038986 kJ/mol
# Density = 2.263240 g / cm^3
# Si number density = 22.684028 Si / 1000 Ang^3
#
#
#
# Elastic Constant Matrix: (Units=GPa)
#
#
# Indices 1 2 3 4 5 6 
#
# 1 94.1274 -1.1757 23.4637 0.0000 0.0000 0.0000
# 2 -1.1757 21.7474 7.6054 0.0000 0.0000 0.0000
# 3 23.4637 7.6054 115.3236 0.0000 0.0000 0.0000
# 4 0.0000 0.0000 0.0000 19.6005 0.0000 0.0000
# 5 0.0000 0.0000 0.0000 0.0000 40.5864 0.0000
# 6 0.0000 0.0000 0.0000 0.0000 0.0000 1.5554
#
#
#
# Elastic Compliance Matrix: (Units=1/GPa)
#
#
# Indices 1 2 3 4 5 6 
#
# 1 0.011235 0.001440 -0.002381 0.000000 0.000000 0.000000
# 2 0.001440 0.047253 -0.003409 0.000000 0.000000 0.000000
# 3 -0.002381 -0.003409 0.009381 0.000000 0.000000 0.000000
# 4 0.000000 0.000000 0.000000 0.051019 0.000000 0.000000
# 5 0.000000 0.000000 0.000000 0.000000 0.024639 0.000000
# 6 0.000000 0.000000 0.000000 0.000000 0.000000 0.642907
#
#
# Mechanical properties :
#
#
# Convention : Reuss Voigt Hill
#
# Bulk Modulus (GPa) = 16.90092 32.33171 24.61631
# Shear Modulus (GPa) = 6.13605 25.76878 15.95242
#
# Velocity S-wave (km/s) = 1.64648 3.37410 2.65475
# Velocity P-wave (km/s) = 3.32885 5.42802 4.50248
#
# Compressibility (1/GPa) = 0.05916838
#
# Stress axis : x y z
#
# Youngs Moduli (GPa) = 89.00449 21.16280 106.60404
#
# Poissons Ratio (x) = -0.03048 0.25382
# Poissons Ratio (y) = -0.12817 0.36344
# Poissons Ratio (z) = 0.21191 0.07215
#
# Static dielectric constant tensor:
#      x y z
#    x 1.795230 0.000000 0.000000 
#    y 0.000000 1.858970 0.000000 
#    z 0.000000 0.000000 1.867220 
# 
# From -- ./inp_files/27573.got.cif
#   From: 2010.05.17/outbox.cif.g08.bks.cpg/sg64_14_cif.got.tgz:27573.got - 2010.06.03 16:29:19.
