data_PCOD9481138
_publ_section_title
;
Structure prediction by ZEFSAII (Michael W. Deem and Ramdas Pophale) SiO2 
 PCOD9481138
Probable space group: C M C A
;
_chemical_formula_sum "Si O2"
_cell_formula_units_Z 88
_cell_length_a 14.571893
_cell_length_b 13.060367
_cell_length_c 20.026273
_cell_angle_alpha 90.000000
_cell_angle_beta 90.000000
_cell_angle_gamma 90.000000
_cell_volume 3811.285536
_symmetry_space_group_name_H-M "C M C A"
_symmetry_group_IT_number 64
_symmetry_cell_setting 'orthorhombic'
loop_
_space_group_symop_operation_xyz
x,y,z
-x,1/2-y,1/2+z
x,-y,-z
-x,1/2+y,1/2-z
-x,-y,-z
x,1/2+y,1/2-z
-x,y,z
x,1/2-y,1/2+z
1/2+x,1/2+y,z
1/2-x,-y,1/2+z
1/2+x,1/2-y,-z
1/2-x,y,1/2-z
1/2-x,1/2-y,-z
1/2+x,y,1/2-z
1/2-x,1/2+y,z
1/2+x,-y,1/2+z
loop_
_atom_site_type_symbol
_atom_site_label
_atom_site_fract_x
_atom_site_fract_y
_atom_site_fract_z
Si Si1 0.500000 0.261945 0.481190
Si Si2 0.105700 0.032759 0.162308
Si Si3 0.225158 0.781610 0.823248
Si Si4 0.350808 0.577461 0.556762
Si Si5 0.155641 0.160422 0.925143
Si Si6 0.609794 0.074945 0.801974
O O1 0.420536 0.328830 0.442054
O O2 0.418898 0.206256 0.525869
O O3 0.167606 0.128614 0.142531
O O4 0.000000 0.067929 0.164123
O O5 0.115479 0.938394 0.112378
O O6 0.131211 0.987042 0.234965
O O7 0.250000 0.821302 0.750000
O O8 0.308292 0.741348 0.869098
O O9 0.162559 0.682633 0.805549
O O10 0.381199 0.500000 0.500000
O O11 0.249841 0.620135 0.541776
O O12 0.356496 0.523325 0.629129
O O13 0.500000 0.087450 0.802272
#
# Coordination Sequence:
#
# PCOD9481138 Si02
#       6
#     8  16  16  16  16  16
#     4  12  25  50  69 100 142 194 241 293 339 429
#     4  11  24  46  71 106 142 183 235 300 374 427
#     4  11  24  40  70 106 142 181 226 291 374 430
#     4  11  26  47  73 105 140 194 248 289 354 426
#     4  11  26  48  75 103 147 185 240 307 354 431
#     4  10  22  45  71 102 146 182 237 301 354 432
#
# _framework density 23.089321999999999
#
# number of rings (size 3 to 8) (size 9 to 14) (size 15 to 20)
#    0.000    1.091    3.636    1.364    7.636    0.000 
#    4.909    0.455    0.000    0.000    0.000    0.000 
#    0.000    0.000    0.000    0.000    0.000    0.000 
#
# Total GULP energy -245289.644759 kJ/mol
# GULP energy per Si atom -5574.764654 kJ/mol
# Density = 2.303677 g / cm^3
# Si number density = 23.089322 Si / 1000 Ang^3
#
#
#
# Elastic Constant Matrix: (Units=GPa)
#
#
# Indices 1 2 3 4 5 6 
#
# 1 106.4586 1.0641 -13.9007 0.0000 0.0000 0.0000
# 2 1.0641 45.3107 3.5857 0.0000 0.0000 0.0000
# 3 -13.9007 3.5857 20.9453 0.0000 0.0000 0.0000
# 4 0.0000 0.0000 0.0000 21.6596 0.0000 0.0000
# 5 0.0000 0.0000 0.0000 0.0000 25.8038 0.0000
# 6 0.0000 0.0000 0.0000 0.0000 0.0000 8.7019
#
#
#
# Elastic Compliance Matrix: (Units=1/GPa)
#
#
# Indices 1 2 3 4 5 6 
#
# 1 0.010313 -0.000795 0.006980 0.000000 0.000000 0.000000
# 2 -0.000795 0.022434 -0.004368 0.000000 0.000000 0.000000
# 3 0.006980 -0.004368 0.053124 0.000000 0.000000 0.000000
# 4 0.000000 0.000000 0.000000 0.046169 0.000000 0.000000
# 5 0.000000 0.000000 0.000000 0.000000 0.038754 0.000000
# 6 0.000000 0.000000 0.000000 0.000000 0.000000 0.114917
#
#
# Mechanical properties :
#
#
# Convention : Reuss Voigt Hill
#
# Bulk Modulus (GPa) = 11.17241 17.13474 14.15358
# Shear Modulus (GPa) = 16.03023 23.36409 19.69716
#
# Velocity S-wave (km/s) = 2.63776 3.18449 2.92393
# Velocity P-wave (km/s) = 3.75850 4.57804 4.18836
#
# Compressibility (1/GPa) = 0.08950618
#
# Stress axis : x y z
#
# Youngs Moduli (GPa) = 96.96771 44.57482 18.82394
#
# Poissons Ratio (x) = 0.03542 -0.13140
# Poissons Ratio (y) = 0.07705 0.08222
# Poissons Ratio (z) = -0.67686 0.19470
#
# Static dielectric constant tensor:
#      x y z
#    x 1.849640 0.000000 0.000000 
#    y 0.000000 1.853840 0.000000 
#    z 0.000000 0.000000 1.872370 
# 
# From -- ./inp_files/45060.got.cif
#   From: 2010.05.17/outbox.cif.g08.bks.cpg/sg64_23_cif.got.tgz:45060.got - 2010.06.03 16:29:19.
