data_PCOD9481999
_publ_section_title
;
Structure prediction by ZEFSAII (Michael W. Deem and Ramdas Pophale) SiO2 
 PCOD9481999
Probable space group: C M C A
;
_chemical_formula_sum "Si O2"
_cell_formula_units_Z 56
_cell_length_a 13.145323
_cell_length_b 9.669292
_cell_length_c 20.080611
_cell_angle_alpha 90.000000
_cell_angle_beta 90.000000
_cell_angle_gamma 90.000000
_cell_volume 2552.365469
_symmetry_space_group_name_H-M "C M C A"
_symmetry_group_IT_number 64
_symmetry_cell_setting 'orthorhombic'
loop_
_space_group_symop_operation_xyz
x,y,z
-x,1/2-y,1/2+z
x,-y,-z
-x,1/2+y,1/2-z
-x,-y,-z
x,1/2+y,1/2-z
-x,y,z
x,1/2-y,1/2+z
1/2+x,1/2+y,z
1/2-x,-y,1/2+z
1/2+x,1/2-y,-z
1/2-x,y,1/2-z
1/2-x,1/2-y,-z
1/2+x,y,1/2-z
1/2-x,1/2+y,z
1/2+x,-y,1/2+z
loop_
_atom_site_type_symbol
_atom_site_label
_atom_site_fract_x
_atom_site_fract_y
_atom_site_fract_z
Si Si1 0.000000 0.077461 0.178051
Si Si2 0.321103 0.150588 0.682322
Si Si3 0.283264 0.123079 0.956791
Si Si4 0.000000 0.358880 0.825607
Si Si5 0.000000 0.857742 0.406164
O O1 0.000000 0.200744 0.123844
O O2 0.000000 0.157572 0.246644
O O3 0.900653 0.978221 0.182557
O O4 0.250000 0.164969 0.750000
O O5 0.249148 0.125579 0.619767
O O6 0.393765 0.279603 0.659524
O O7 0.403416 0.121618 0.951973
O O8 0.250000 0.250000 0.000000
O O9 0.238977 0.000000 0.000000
O O10 0.000000 0.516742 0.851468
#
# Coordination Sequence:
#
# PCOD9481999 Si02
#       5
#     8  16  16   8   8
#     4  11  23  41  68 101 136 175 224 280 334 403
#     4  11  25  46  71  99 135 180 229 278 338 407
#     4  12  26  45  68  98 135 178 223 279 342 406
#     4  11  23  42  69 103 137 174 226 288 340 398
#     4  12  25  43  66 100 136 177 226 278 340 409
#
# _framework density 21.940431
#
# number of rings (size 3 to 8) (size 9 to 14) (size 15 to 20)
#    0.000    0.571    0.000    9.000    0.000    8.000 
#    0.000    6.429    0.000    0.000    0.000    0.000 
#    0.000    0.000    0.000    0.000    0.000    0.000 
#
# Total GULP energy -156221.574936 kJ/mol
# GULP energy per Si atom -5579.341962 kJ/mol
# Density = 2.189049 g / cm^3
# Si number density = 21.940431 Si / 1000 Ang^3
#
#
#
# Elastic Constant Matrix: (Units=GPa)
#
#
# Indices 1 2 3 4 5 6 
#
# 1 137.7656 31.7492 45.3386 0.0000 0.0000 0.0000
# 2 31.7492 124.3584 24.8443 0.0000 0.0000 0.0000
# 3 45.3386 24.8443 122.7948 0.0000 0.0000 0.0000
# 4 0.0000 0.0000 0.0000 42.6467 0.0000 0.0000
# 5 0.0000 0.0000 0.0000 0.0000 10.7328 0.0000
# 6 0.0000 0.0000 0.0000 0.0000 0.0000 21.4095
#
#
#
# Elastic Compliance Matrix: (Units=1/GPa)
#
#
# Indices 1 2 3 4 5 6 
#
# 1 0.008565 -0.001620 -0.002835 0.000000 0.000000 0.000000
# 2 -0.001620 0.008687 -0.001159 0.000000 0.000000 0.000000
# 3 -0.002835 -0.001159 0.009425 0.000000 0.000000 0.000000
# 4 0.000000 0.000000 0.000000 0.023448 0.000000 0.000000
# 5 0.000000 0.000000 0.000000 0.000000 0.093173 0.000000
# 6 0.000000 0.000000 0.000000 0.000000 0.000000 0.046708
#
#
# Mechanical properties :
#
#
# Convention : Reuss Voigt Hill
#
# Bulk Modulus (GPa) = 64.73316 65.42033 65.07674
# Shear Modulus (GPa) = 24.22676 33.82357 29.02517
#
# Velocity S-wave (km/s) = 3.32656 3.93059 3.64113
# Velocity P-wave (km/s) = 6.65754 7.10503 6.88492
#
# Compressibility (1/GPa) = 0.01544803
#
# Stress axis : x y z
#
# Youngs Moduli (GPa) = 116.75448 115.12049 106.10325
#
# Poissons Ratio (x) = 0.18654 0.30075
# Poissons Ratio (y) = 0.18919 0.12300
# Poissons Ratio (z) = 0.33095 0.13345
#
# Static dielectric constant tensor:
#      x y z
#    x 2.142900 0.000000 0.000000 
#    y 0.000000 1.772630 0.000000 
#    z 0.000000 0.000000 1.778980 
# 
# From -- ./inp_files/38790.got.cif
#   From: 2010.05.17/outbox.cif.g08.bks.cpg/sg64_20_cif.got.tgz:38790.got - 2010.06.03 16:29:19.
