data_PCOD9481031
_publ_section_title
;
Structure prediction by ZEFSAII (Michael W. Deem and Ramdas Pophale) SiO2 
 PCOD9481031
Probable space group: C M C A
;
_chemical_formula_sum "Si O2"
_cell_formula_units_Z 64
_cell_length_a 13.891914
_cell_length_b 19.946126
_cell_length_c 10.365379
_cell_angle_alpha 90.000000
_cell_angle_beta 90.000000
_cell_angle_gamma 90.000000
_cell_volume 2872.141489
_symmetry_space_group_name_H-M "C M C A"
_symmetry_group_IT_number 64
_symmetry_cell_setting 'orthorhombic'
loop_
_space_group_symop_operation_xyz
x,y,z
-x,1/2-y,1/2+z
x,-y,-z
-x,1/2+y,1/2-z
-x,-y,-z
x,1/2+y,1/2-z
-x,y,z
x,1/2-y,1/2+z
1/2+x,1/2+y,z
1/2-x,-y,1/2+z
1/2+x,1/2-y,-z
1/2-x,y,1/2-z
1/2-x,1/2-y,-z
1/2+x,y,1/2-z
1/2-x,1/2+y,z
1/2+x,-y,1/2+z
loop_
_atom_site_type_symbol
_atom_site_label
_atom_site_fract_x
_atom_site_fract_y
_atom_site_fract_z
Si Si1 0.613602 0.084465 0.587292
Si Si2 0.249550 0.805082 0.109021
Si Si3 0.383620 0.080866 0.017884
Si Si4 0.616721 0.049247 0.297986
O O1 0.500000 0.078314 0.583588
O O2 0.647093 0.072866 0.439982
O O3 0.648341 0.156982 0.618950
O O4 0.645962 0.028977 0.690965
O O5 0.250000 0.772654 0.250000
O O6 0.250000 0.750000 0.000000
O O7 0.500000 0.090875 0.001047
O O8 0.354115 0.087958 0.169490
O O9 0.325312 0.134742 0.930420
O O10 0.632588 0.000000 0.000000
O O11 0.500000 0.051479 0.293295
#
# Coordination Sequence:
#
# PCOD9481031 Si02
#       4
#    16  16  16  16
#     4   9  19  39  66  96 132 165 211 272 329 388
#     4  12  29  45  62  96 133 180 227 268 330 399
#     4  10  22  42  70  99 130 167 220 281 336 391
#     4   8  16  34  66 102 123 157 209 265 334 390
#
# _framework density 22.283024000000001
#
# number of rings (size 3 to 8) (size 9 to 14) (size 15 to 20)
#    0.000    2.250    0.000    3.000    7.000    4.000 
#    0.000    0.000    0.000    0.000    0.000    0.000 
#    0.000    0.000    0.000    0.000    0.000    0.000 
#
# Total GULP energy -178328.148745 kJ/mol
# GULP energy per Si atom -5572.754648 kJ/mol
# Density = 2.223231 g / cm^3
# Si number density = 22.283024 Si / 1000 Ang^3
#
#
#
# Elastic Constant Matrix: (Units=GPa)
#
#
# Indices 1 2 3 4 5 6 
#
# 1 76.6787 8.7013 27.9100 0.0000 0.0000 0.0000
# 2 8.7013 61.0750 36.9132 0.0000 0.0000 0.0000
# 3 27.9100 36.9132 150.2464 0.0000 0.0000 0.0000
# 4 0.0000 0.0000 0.0000 35.6527 0.0000 0.0000
# 5 0.0000 0.0000 0.0000 0.0000 18.8929 0.0000
# 6 0.0000 0.0000 0.0000 0.0000 0.0000 8.2562
#
#
#
# Elastic Compliance Matrix: (Units=1/GPa)
#
#
# Indices 1 2 3 4 5 6 
#
# 1 0.014000 -0.000496 -0.002479 0.000000 0.000000 0.000000
# 2 -0.000496 0.019246 -0.004636 0.000000 0.000000 0.000000
# 3 -0.002479 -0.004636 0.008255 0.000000 0.000000 0.000000
# 4 0.000000 0.000000 0.000000 0.028048 0.000000 0.000000
# 5 0.000000 0.000000 0.000000 0.000000 0.052930 0.000000
# 6 0.000000 0.000000 0.000000 0.000000 0.000000 0.121122
#
#
# Mechanical properties :
#
#
# Convention : Reuss Voigt Hill
#
# Bulk Modulus (GPa) = 38.05384 48.33878 43.19631
# Shear Modulus (GPa) = 18.68573 26.85871 22.77222
#
# Velocity S-wave (km/s) = 2.89894 3.47557 3.20027
# Velocity P-wave (km/s) = 5.32163 6.15194 5.75178
#
# Compressibility (1/GPa) = 0.02627856
#
# Stress axis : x y z
#
# Youngs Moduli (GPa) = 71.42865 51.95839 121.13533
#
# Poissons Ratio (x) = 0.02580 0.30026
# Poissons Ratio (y) = 0.03546 0.56161
# Poissons Ratio (z) = 0.17705 0.24089
#
# Static dielectric constant tensor:
#      x y z
#    x 1.912450 0.000000 0.000000 
#    y 0.000000 1.796900 0.000000 
#    z 0.000000 0.000000 1.971220 
# 
# From -- ./inp_files/14043.got.cif
#   From: 2010.05.17/outbox.cif.g08.bks.cpg/sg64_8_cif.got.tgz:14043.got - 2010.06.03 16:29:19.
