data_PCOD9481367
_publ_section_title
;
Structure prediction by ZEFSAII (Michael W. Deem and Ramdas Pophale) SiO2 
 PCOD9481367
Probable space group: C M C A
;
_chemical_formula_sum "Si O2"
_cell_formula_units_Z 96
_cell_length_a 13.309143
_cell_length_b 13.661427
_cell_length_c 23.117399
_cell_angle_alpha 90.000000
_cell_angle_beta 90.000000
_cell_angle_gamma 90.000000
_cell_volume 4203.249075
_symmetry_space_group_name_H-M "C M C A"
_symmetry_group_IT_number 64
_symmetry_cell_setting 'orthorhombic'
loop_
_space_group_symop_operation_xyz
x,y,z
-x,1/2-y,1/2+z
x,-y,-z
-x,1/2+y,1/2-z
-x,-y,-z
x,1/2+y,1/2-z
-x,y,z
x,1/2-y,1/2+z
1/2+x,1/2+y,z
1/2-x,-y,1/2+z
1/2+x,1/2-y,-z
1/2-x,y,1/2-z
1/2-x,1/2-y,-z
1/2+x,y,1/2-z
1/2-x,1/2+y,z
1/2+x,-y,1/2+z
loop_
_atom_site_type_symbol
_atom_site_label
_atom_site_fract_x
_atom_site_fract_y
_atom_site_fract_z
Si Si1 0.622485 0.829620 0.711534
Si Si2 0.621559 0.121234 0.838514
Si Si3 0.799230 0.402839 0.036721
Si Si4 0.621528 0.248115 0.165070
Si Si5 0.883170 0.232895 0.961768
Si Si6 0.121891 0.956717 0.212938
O O1 0.500000 0.828868 0.711571
O O2 0.650032 0.735006 0.673813
O O3 0.653542 0.811929 0.778478
O O4 0.654845 0.936957 0.691793
O O5 0.500000 0.116620 0.843468
O O6 0.669031 0.082662 0.897132
O O7 0.648898 0.062905 0.780013
O O8 0.686099 0.361876 0.030558
O O9 0.815043 0.500000 0.000000
O O10 0.864114 0.312833 0.010924
O O11 0.500000 0.243290 0.166587
O O12 0.649683 0.220367 0.100129
O O13 0.650385 0.361179 0.176728
O O14 0.000000 0.207233 0.958880
O O15 0.000000 0.957011 0.212042
#
# Coordination Sequence:
#
# PCOD9481367 Si02
#       6
#    16  16  16  16  16  16
#     4   8  14  27  51  85 123 161 200 248 309 374
#     4   9  18  33  56  90 131 164 201 259 317 371
#     4  11  25  43  64  96 128 160 217 270 311 380
#     4   8  15  30  54  84 115 154 205 250 301 373
#     4  10  23  45  67  88 124 170 211 262 321 376
#     4   8  14  27  51  87 123 161 205 247 306 377
#
# _framework density 22.839473999999999
#
# number of rings (size 3 to 8) (size 9 to 14) (size 15 to 20)
#    0.000    3.000    0.000    2.500    2.333    1.667 
#    6.000    3.333    0.000    2.000    0.000    0.000 
#    0.000    0.000    0.000    0.000    0.000    0.000 
#
# Total GULP energy -268465.140055 kJ/mol
# GULP energy per Si atom -5593.023751 kJ/mol
# Density = 2.278749 g / cm^3
# Si number density = 22.839474 Si / 1000 Ang^3
#
#
#
# Elastic Constant Matrix: (Units=GPa)
#
#
# Indices 1 2 3 4 5 6 
#
# 1 83.0922 16.7714 12.3379 0.0000 0.0000 0.0000
# 2 16.7714 75.3576 6.6990 0.0000 0.0000 0.0000
# 3 12.3379 6.6990 91.5228 0.0000 0.0000 0.0000
# 4 0.0000 0.0000 0.0000 20.7683 0.0000 0.0000
# 5 0.0000 0.0000 0.0000 0.0000 29.0478 0.0000
# 6 0.0000 0.0000 0.0000 0.0000 0.0000 20.3363
#
#
#
# Elastic Compliance Matrix: (Units=1/GPa)
#
#
# Indices 1 2 3 4 5 6 
#
# 1 0.012810 -0.002715 -0.001528 0.000000 0.000000 0.000000
# 2 -0.002715 0.013932 -0.000654 0.000000 0.000000 0.000000
# 3 -0.001528 -0.000654 0.011180 0.000000 0.000000 0.000000
# 4 0.000000 0.000000 0.000000 0.048150 0.000000 0.000000
# 5 0.000000 0.000000 0.000000 0.000000 0.034426 0.000000
# 6 0.000000 0.000000 0.000000 0.000000 0.000000 0.049173
#
#
# Mechanical properties :
#
#
# Convention : Reuss Voigt Hill
#
# Bulk Modulus (GPa) = 35.55131 35.73215 35.64173
# Shear Modulus (GPa) = 26.47722 28.30811 27.39266
#
# Velocity S-wave (km/s) = 3.40851 3.52438 3.46693
# Velocity P-wave (km/s) = 5.57585 5.67808 5.62720
#
# Compressibility (1/GPa) = 0.02812836
#
# Stress axis : x y z
#
# Youngs Moduli (GPa) = 78.06567 71.77499 89.44471
#
# Poissons Ratio (x) = 0.19487 0.13668
# Poissons Ratio (y) = 0.21195 0.05848
# Poissons Ratio (z) = 0.11929 0.04692
#
# Static dielectric constant tensor:
#      x y z
#    x 1.951750 0.000000 0.000000 
#    y 0.000000 1.789660 0.000000 
#    z 0.000000 0.000000 1.799670 
# 
# From -- ./inp_files/39207.got.cif
#   From: 2010.05.17/outbox.cif.g08.bks.cpg/sg64_20_cif.got.tgz:39207.got - 2010.06.03 16:29:19.
