data_PCOD9481572
_publ_section_title
;
Structure prediction by ZEFSAII (Michael W. Deem and Ramdas Pophale) SiO2 
 PCOD9481572
Probable space group: C M C A
;
_chemical_formula_sum "Si O2"
_cell_formula_units_Z 68
_cell_length_a 21.256882
_cell_length_b 5.130359
_cell_length_c 27.844840
_cell_angle_alpha 90.000000
_cell_angle_beta 90.000000
_cell_angle_gamma 90.000000
_cell_volume 3036.631163
_symmetry_space_group_name_H-M "C M C A"
_symmetry_group_IT_number 64
_symmetry_cell_setting 'orthorhombic'
loop_
_space_group_symop_operation_xyz
x,y,z
-x,1/2-y,1/2+z
x,-y,-z
-x,1/2+y,1/2-z
-x,-y,-z
x,1/2+y,1/2-z
-x,y,z
x,1/2-y,1/2+z
1/2+x,1/2+y,z
1/2-x,-y,1/2+z
1/2+x,1/2-y,-z
1/2-x,y,1/2-z
1/2-x,1/2-y,-z
1/2+x,y,1/2-z
1/2-x,1/2+y,z
1/2+x,-y,1/2+z
loop_
_atom_site_type_symbol
_atom_site_label
_atom_site_fract_x
_atom_site_fract_y
_atom_site_fract_z
Si Si1 0.500000 0.142494 0.389883
Si Si2 0.500000 0.000000 0.000000
Si Si3 0.136921 0.603642 0.220953
Si Si4 0.000000 0.856958 0.677232
Si Si5 0.603263 0.125123 0.547799
Si Si6 0.706829 0.762595 0.877217
O O1 0.500000 0.419428 0.363755
O O2 0.500000 0.921014 0.349152
O O3 0.561072 0.089505 0.423115
O O4 0.446172 0.832748 0.971386
O O5 0.151738 0.310485 0.237157
O O6 0.062870 0.616686 0.208420
O O7 0.173925 0.694663 0.174083
O O8 0.652625 0.256291 0.583008
O O9 0.632991 0.000000 0.500000
O O10 0.743183 0.492078 0.882012
#
# Coordination Sequence:
#
# PCOD9481572 Si02
#       6
#     8   4  16   8  16  16
#     4  11  24  41  77 108 148 195 234 305 377 449
#     4  10  24  48  76 116 144 188 240 304 386 452
#     4  12  26  47  76 108 145 190 246 311 382 449
#     4  12  24  44  75 113 152 183 236 317 388 447
#     4  11  27  45  77 111 150 200 253 308 375 453
#     4  12  30  50  74 106 148 203 256 306 363 439
#
# _framework density 22.393235000000001
#
# number of rings (size 3 to 8) (size 9 to 14) (size 15 to 20)
#    0.000    0.471    2.353    4.941   13.176    3.765 
#    0.000    0.000    0.000    0.000    0.000    0.000 
#    0.000    0.000    0.000    0.000    0.000    0.000 
#
# Total GULP energy -190120.152561 kJ/mol
# GULP energy per Si atom -5591.769193 kJ/mol
# Density = 2.234227 g / cm^3
# Si number density = 22.393235 Si / 1000 Ang^3
#
#
#
# Elastic Constant Matrix: (Units=GPa)
#
#
# Indices 1 2 3 4 5 6 
#
# 1 217.0892 155.3455 82.9289 0.0000 0.0000 0.0000
# 2 155.3455 249.0133 70.6918 0.0000 0.0000 0.0000
# 3 82.9289 70.6918 114.7029 0.0000 0.0000 0.0000
# 4 0.0000 0.0000 0.0000 47.2098 0.0000 0.0000
# 5 0.0000 0.0000 0.0000 0.0000 -45.8874 0.0000
# 6 0.0000 0.0000 0.0000 0.0000 0.0000 -17.7512
#
#
#
# Elastic Compliance Matrix: (Units=1/GPa)
#
#
# Indices 1 2 3 4 5 6 
#
# 1 0.009593 -0.004867 -0.003936 0.000000 0.000000 0.000000
# 2 -0.004867 0.007337 -0.001003 0.000000 0.000000 0.000000
# 3 -0.003936 -0.001003 0.012182 0.000000 0.000000 0.000000
# 4 0.000000 0.000000 0.000000 0.021182 0.000000 0.000000
# 5 0.000000 0.000000 0.000000 0.000000 -0.021792 0.000000
# 6 0.000000 0.000000 0.000000 0.000000 0.000000 -0.056334
#
#
# Mechanical properties :
#
#
# Convention : Reuss Voigt Hill
#
# Bulk Modulus (GPa) = 105.26528 133.19309 119.22918
# Shear Modulus (GPa) = -989.03365 14.83686 -487.09839
#
# Velocity S-wave (km/s) = -21.03866 2.57682 -14.76457
# Velocity P-wave (km/s) = 23.30359 8.27415 15.40447
#
# Compressibility (1/GPa) = 0.00949981
#
# Stress axis : x y z
#
# Youngs Moduli (GPa) = 104.24662 136.29911 82.08939
#
# Poissons Ratio (x) = 0.66336 0.32309
# Poissons Ratio (y) = 0.50737 0.08233
# Poissons Ratio (z) = 0.41030 0.13670
#
# Static dielectric constant tensor:
#      x y z
#    x 1.728430 0.000000 0.000000 
#    y 0.000000 1.822560 0.000000 
#    z 0.000000 0.000000 1.844280 
# 
# From -- ./inp_files/50600.got.cif
#   From: 2010.05.17/outbox.cif.g08.bks.cpg/sg64_26_cif.got.tgz:50600.got - 2010.06.03 16:29:19.
