data_PCOD9481100
_publ_section_title
;
Structure prediction by ZEFSAII (Michael W. Deem and Ramdas Pophale) SiO2 
 PCOD9481100
Probable space group: C M C A
;
_chemical_formula_sum "Si O2"
_cell_formula_units_Z 104
_cell_length_a 21.895995
_cell_length_b 26.232926
_cell_length_c 9.463635
_cell_angle_alpha 90.000000
_cell_angle_beta 90.000000
_cell_angle_gamma 90.000000
_cell_volume 5435.874246
_symmetry_space_group_name_H-M "C M C A"
_symmetry_group_IT_number 64
_symmetry_cell_setting 'orthorhombic'
loop_
_space_group_symop_operation_xyz
x,y,z
-x,1/2-y,1/2+z
x,-y,-z
-x,1/2+y,1/2-z
-x,-y,-z
x,1/2+y,1/2-z
-x,y,z
x,1/2-y,1/2+z
1/2+x,1/2+y,z
1/2-x,-y,1/2+z
1/2+x,1/2-y,-z
1/2-x,y,1/2-z
1/2-x,1/2-y,-z
1/2+x,y,1/2-z
1/2-x,1/2+y,z
1/2+x,-y,1/2+z
loop_
_atom_site_type_symbol
_atom_site_label
_atom_site_fract_x
_atom_site_fract_y
_atom_site_fract_z
Si Si1 0.665527 0.424900 0.995204
Si Si2 0.728223 0.500000 0.500000
Si Si3 0.071892 0.367829 0.040319
Si Si4 0.167200 0.217223 0.620807
Si Si5 0.569380 0.570448 0.255359
Si Si6 0.805068 0.809069 0.059885
Si Si7 0.376933 0.464281 0.292987
O O1 0.727530 0.454108 0.952931
O O2 0.679145 0.367946 0.045978
O O3 0.637957 0.455105 0.129027
O O4 0.618161 0.422853 0.867823
O O5 0.684777 0.521106 0.623418
O O6 0.112315 0.317982 0.067326
O O7 0.095058 0.412942 0.143005
O O8 0.000000 0.358488 0.062587
O O9 0.080273 0.390487 0.883103
O O10 0.165741 0.274761 0.563312
O O11 0.172329 0.212772 0.789691
O O12 0.231607 0.196111 0.559861
O O13 0.500000 0.576489 0.204602
O O14 0.579100 0.512776 0.311022
#
# Coordination Sequence:
#
# PCOD9481100 Si02
#       7
#    16   8  16  16  16  16  16
#     4  12  25  40  63  99 132 171 213 268 330 379
#     4  12  24  38  66 100 134 170 214 266 328 390
#     4  11  23  42  68  93 127 176 221 266 321 387
#     4  10  22  44  66  97 125 164 216 266 326 389
#     4  11  25  43  61  91 134 177 217 261 317 394
#     4  10  23  42  69  94 128 165 207 272 331 381
#     4  12  22  41  65  94 132 171 216 264 317 393
#
# _framework density 19.132156999999999
#
# number of rings (size 3 to 8) (size 9 to 14) (size 15 to 20)
#    0.000    0.923    4.615    1.846    4.308    3.077 
#    0.000    1.538    0.000    0.000    0.000    0.000 
#    0.000    0.000    0.000    0.000    0.000    0.000 
#
# Total GULP energy -290758.808635 kJ/mol
# GULP energy per Si atom -5591.515551 kJ/mol
# Density = 1.908861 g / cm^3
# Si number density = 19.132157 Si / 1000 Ang^3
#
#
#
# Elastic Constant Matrix: (Units=GPa)
#
#
# Indices 1 2 3 4 5 6 
#
# 1 108.2394 27.4694 52.9891 0.0000 0.0000 0.0000
# 2 27.4694 84.3277 19.4258 0.0000 0.0000 0.0000
# 3 52.9891 19.4258 64.0733 0.0000 0.0000 0.0000
# 4 0.0000 0.0000 0.0000 31.1490 0.0000 0.0000
# 5 0.0000 0.0000 0.0000 0.0000 23.7102 0.0000
# 6 0.0000 0.0000 0.0000 0.0000 0.0000 15.5459
#
#
#
# Elastic Compliance Matrix: (Units=1/GPa)
#
#
# Indices 1 2 3 4 5 6 
#
# 1 0.015934 -0.002317 -0.012475 0.000000 0.000000 0.000000
# 2 -0.002317 0.013086 -0.002051 0.000000 0.000000 0.000000
# 3 -0.012475 -0.002051 0.026546 0.000000 0.000000 0.000000
# 4 0.000000 0.000000 0.000000 0.032104 0.000000 0.000000
# 5 0.000000 0.000000 0.000000 0.000000 0.042176 0.000000
# 6 0.000000 0.000000 0.000000 0.000000 0.000000 0.064325
#
#
# Mechanical properties :
#
#
# Convention : Reuss Voigt Hill
#
# Bulk Modulus (GPa) = 45.70526 50.71213 48.20870
# Shear Modulus (GPa) = 21.26295 24.53142 22.89718
#
# Velocity S-wave (km/s) = 3.33734 3.58468 3.46322
# Velocity P-wave (km/s) = 6.22829 6.61037 6.42217
#
# Compressibility (1/GPa) = 0.02187932
#
# Stress axis : x y z
#
# Youngs Moduli (GPa) = 62.75891 76.41924 37.67022
#
# Poissons Ratio (x) = 0.17704 0.46994
# Poissons Ratio (y) = 0.14539 0.07728
# Poissons Ratio (z) = 0.78293 0.15677
#
# Static dielectric constant tensor:
#      x y z
#    x 1.644220 0.000000 0.000000 
#    y 0.000000 1.646020 0.000000 
#    z 0.000000 0.000000 1.669200 
# 
# From -- ./inp_files/8488.got.cif
#   From: 2010.05.17/outbox.cif.g08.bks.cpg/sg64_5_cif.got.tgz:8488.got - 2010.06.03 16:29:19.
