data_PCOD9481745
_publ_section_title
;
Structure prediction by ZEFSAII (Michael W. Deem and Ramdas Pophale) SiO2 
 PCOD9481745
Probable space group: C M C A
;
_chemical_formula_sum "Si O2"
_cell_formula_units_Z 96
_cell_length_a 8.617006
_cell_length_b 19.957000
_cell_length_c 31.519320
_cell_angle_alpha 90.000000
_cell_angle_beta 90.000000
_cell_angle_gamma 90.000000
_cell_volume 5420.364498
_symmetry_space_group_name_H-M "C M C A"
_symmetry_group_IT_number 64
_symmetry_cell_setting 'orthorhombic'
loop_
_space_group_symop_operation_xyz
x,y,z
-x,1/2-y,1/2+z
x,-y,-z
-x,1/2+y,1/2-z
-x,-y,-z
x,1/2+y,1/2-z
-x,y,z
x,1/2-y,1/2+z
1/2+x,1/2+y,z
1/2-x,-y,1/2+z
1/2+x,1/2-y,-z
1/2-x,y,1/2-z
1/2-x,1/2-y,-z
1/2+x,y,1/2-z
1/2-x,1/2+y,z
1/2+x,-y,1/2+z
loop_
_atom_site_type_symbol
_atom_site_label
_atom_site_fract_x
_atom_site_fract_y
_atom_site_fract_z
Si Si1 0.185354 0.574183 0.983861
Si Si2 0.687017 0.256024 0.370876
Si Si3 0.812809 0.642909 0.435570
Si Si4 0.312529 0.845448 0.702920
Si Si5 0.688430 0.458243 0.860144
Si Si6 0.185674 0.099955 0.890417
O O1 0.261076 0.590221 0.938875
O O2 0.000000 0.574679 0.979220
O O3 0.233470 0.500000 0.000000
O O4 0.236245 0.626849 0.019738
O O5 0.500000 0.258304 0.370956
O O6 0.732598 0.211760 0.412091
O O7 0.734930 0.214016 0.329246
O O8 0.751681 0.330238 0.372975
O O9 0.769597 0.583859 0.402324
O O10 0.000000 0.642218 0.440052
O O11 0.500000 0.845671 0.704047
O O12 0.250000 0.838009 0.750000
O O13 0.260498 0.914629 0.680187
O O14 0.500000 0.458751 0.859179
O O15 0.742255 0.534323 0.864704
O O16 0.000000 0.100736 0.889049
#
# Coordination Sequence:
#
# PCOD9481745 Si02
#       6
#    16  16  16  16  16  16
#     4  11  22  33  49  77 110 140 176 227 272 307
#     4   9  20  37  55  77 109 142 173 218 271 312
#     4   9  17  34  56  73  97 141 186 219 255 307
#     4   9  18  36  60  82 104 133 170 213 260 316
#     4   8  16  32  54  77 101 132 172 214 257 303
#     4  11  21  34  55  78 105 142 181 220 261 317
#
# _framework density 17.710985000000001
#
# number of rings (size 3 to 8) (size 9 to 14) (size 15 to 20)
#    0.000    2.500    1.667    3.000    0.000    2.667 
#    0.000    5.000    0.000    4.000    0.000    0.000 
#    0.000    0.000    0.000    0.000    0.000    0.000 
#
# Total GULP energy -267740.149341 kJ/mol
# GULP energy per Si atom -5577.919778 kJ/mol
# Density = 1.767067 g / cm^3
# Si number density = 17.710985 Si / 1000 Ang^3
#
#
#
# Elastic Constant Matrix: (Units=GPa)
#
#
# Indices 1 2 3 4 5 6 
#
# 1 14.4322 29.5424 19.5576 0.0000 0.0000 0.0000
# 2 29.5424 165.0532 69.2310 0.0000 0.0000 0.0000
# 3 19.5576 69.2310 113.2937 0.0000 0.0000 0.0000
# 4 0.0000 0.0000 0.0000 16.5431 0.0000 0.0000
# 5 0.0000 0.0000 0.0000 0.0000 26.6051 0.0000
# 6 0.0000 0.0000 0.0000 0.0000 0.0000 23.0815
#
#
#
# Elastic Compliance Matrix: (Units=1/GPa)
#
#
# Indices 1 2 3 4 5 6 
#
# 1 0.117165 -0.016791 -0.009965 0.000000 0.000000 0.000000
# 2 -0.016791 0.010553 -0.003550 0.000000 0.000000 0.000000
# 3 -0.009965 -0.003550 0.012716 0.000000 0.000000 0.000000
# 4 0.000000 0.000000 0.000000 0.060448 0.000000 0.000000
# 5 0.000000 0.000000 0.000000 0.000000 0.037587 0.000000
# 6 0.000000 0.000000 0.000000 0.000000 0.000000 0.043325
#
#
# Mechanical properties :
#
#
# Convention : Reuss Voigt Hill
#
# Bulk Modulus (GPa) = 12.52800 58.82680 35.67740
# Shear Modulus (GPa) = 13.54962 24.87581 19.21272
#
# Velocity S-wave (km/s) = 2.76894 3.75179 3.29719
# Velocity P-wave (km/s) = 4.16072 7.21490 5.88925
#
# Compressibility (1/GPa) = 0.07982117
#
# Stress axis : x y z
#
# Youngs Moduli (GPa) = 8.53499 94.75847 78.63917
#
# Poissons Ratio (x) = 1.59110 0.78366
# Poissons Ratio (y) = 0.14331 0.27918
# Poissons Ratio (z) = 0.08505 0.33641
#
# Static dielectric constant tensor:
#      x y z
#    x 1.602380 0.000000 0.000000 
#    y 0.000000 1.619530 0.000000 
#    z 0.000000 0.000000 1.575050 
# 
# From -- ./inp_files/48102.got.cif
#   From: 2010.05.17/outbox.cif.g08.bks.cpg/sg64_25_cif.got.tgz:48102.got - 2010.06.03 16:29:19.
