data_PCOD9481192
_publ_section_title
;
Structure prediction by ZEFSAII (Michael W. Deem and Ramdas Pophale) SiO2 
 PCOD9481192
Probable space group: C M C A
;
_chemical_formula_sum "Si O2"
_cell_formula_units_Z 80
_cell_length_a 24.566254
_cell_length_b 19.896024
_cell_length_c 7.615002
_cell_angle_alpha 90.000000
_cell_angle_beta 90.000000
_cell_angle_gamma 90.000000
_cell_volume 3721.990461
_symmetry_space_group_name_H-M "C M C A"
_symmetry_group_IT_number 64
_symmetry_cell_setting 'orthorhombic'
loop_
_space_group_symop_operation_xyz
x,y,z
-x,1/2-y,1/2+z
x,-y,-z
-x,1/2+y,1/2-z
-x,-y,-z
x,1/2+y,1/2-z
-x,y,z
x,1/2-y,1/2+z
1/2+x,1/2+y,z
1/2-x,-y,1/2+z
1/2+x,1/2-y,-z
1/2-x,y,1/2-z
1/2-x,1/2-y,-z
1/2+x,y,1/2-z
1/2-x,1/2+y,z
1/2+x,-y,1/2+z
loop_
_atom_site_type_symbol
_atom_site_label
_atom_site_fract_x
_atom_site_fract_y
_atom_site_fract_z
Si Si1 0.162473 0.604371 0.709417
Si Si2 0.437590 0.805167 0.345987
Si Si3 0.746541 0.079754 0.031599
Si Si4 0.561173 0.344442 0.746276
Si Si5 0.643657 0.037052 0.187339
O O1 0.111055 0.652287 0.739670
O O2 0.199283 0.618395 0.536363
O O3 0.203416 0.603502 0.875913
O O4 0.141498 0.527752 0.689024
O O5 0.500000 0.811849 0.273841
O O6 0.439089 0.829855 0.546079
O O7 0.423240 0.726393 0.341046
O O8 0.702691 0.074899 0.193735
O O9 0.756568 0.000000 0.000000
O O10 0.500000 0.360471 0.688448
O O11 0.599477 0.406577 0.710415
O O12 0.636885 0.000000 0.000000
#
# Coordination Sequence:
#
# PCOD9481192 Si02
#       5
#    16  16  16  16  16
#     4   9  18  35  60  85 119 148 194 246 281 350
#     4  10  23  40  62  85 118 160 197 241 301 352
#     4   8  17  33  57  85 116 154 189 230 299 349
#     4  10  23  41  59  86 119 158 198 243 299 349
#     4   9  20  36  60  90 117 151 201 238 295 353
#
# _framework density 21.493874999999999
#
# number of rings (size 3 to 8) (size 9 to 14) (size 15 to 20)
#    0.000    3.200    0.000    0.000    8.400    1.200 
#    0.000    3.000    0.000    0.600    0.000    0.000 
#    0.000    0.000    0.000    0.000    0.000    0.000 
#
# Total GULP energy -222816.816918 kJ/mol
# GULP energy per Si atom -5570.420423 kJ/mol
# Density = 2.144495 g / cm^3
# Si number density = 21.493875 Si / 1000 Ang^3
#
#
#
# Elastic Constant Matrix: (Units=GPa)
#
#
# Indices 1 2 3 4 5 6 
#
# 1 137.8250 100.4844 -36.0094 0.0000 0.0000 0.0000
# 2 100.4844 104.6529 -26.5254 0.0000 0.0000 0.0000
# 3 -36.0094 -26.5254 -75.8906 0.0000 0.0000 0.0000
# 4 0.0000 0.0000 0.0000 23.2901 0.0000 0.0000
# 5 0.0000 0.0000 0.0000 0.0000 5.7852 0.0000
# 6 0.0000 0.0000 0.0000 0.0000 0.0000 38.8429
#
#
#
# Elastic Compliance Matrix: (Units=1/GPa)
#
#
# Indices 1 2 3 4 5 6 
#
# 1 0.023426 -0.023250 -0.002989 0.000000 0.000000 0.000000
# 2 -0.023250 0.031854 -0.000102 0.000000 0.000000 0.000000
# 3 -0.002989 -0.000102 -0.011723 0.000000 0.000000 0.000000
# 4 0.000000 0.000000 0.000000 0.042937 0.000000 0.000000
# 5 0.000000 0.000000 0.000000 0.000000 0.172856 0.000000
# 6 0.000000 0.000000 0.000000 0.000000 0.000000 0.025745
#
#
# Mechanical properties :
#
#
# Convention : Reuss Voigt Hill
#
# Bulk Modulus (GPa) = -109.59007 26.94294 -41.32357
# Shear Modulus (GPa) = 14.93726 22.15946 18.54836
#
# Velocity S-wave (km/s) = 2.63906 3.21435 2.94081
# Velocity P-wave (km/s) = 6.46616 5.13210 2.78143
#
# Compressibility (1/GPa) = -0.00912491
#
# Stress axis : x y z
#
# Youngs Moduli (GPa) = 42.68796 31.39341 -85.30112
#
# Poissons Ratio (x) = 0.72991 -0.25495
# Poissons Ratio (y) = 0.99251 -0.00866
# Poissons Ratio (z) = 0.12759 0.00319
#
# Static dielectric constant tensor:
#      x y z
#    x 1.852790 0.000000 0.000000 
#    y 0.000000 1.709370 0.000000 
#    z 0.000000 0.000000 2.116950 
# 
# From -- ./inp_files/10198.got.cif
#   From: 2010.05.17/outbox.cif.g08.bks.cpg/sg64_6_cif.got.tgz:10198.got - 2010.06.03 16:29:19.
