data_PCOD9481247
_publ_section_title
;
Structure prediction by ZEFSAII (Michael W. Deem and Ramdas Pophale) SiO2 
 PCOD9481247
Probable space group: C M C A
;
_chemical_formula_sum "Si O2"
_cell_formula_units_Z 72
_cell_length_a 15.907515
_cell_length_b 9.289396
_cell_length_c 21.807167
_cell_angle_alpha 90.000000
_cell_angle_beta 90.000000
_cell_angle_gamma 90.000000
_cell_volume 3222.471372
_symmetry_space_group_name_H-M "C M C A"
_symmetry_group_IT_number 64
_symmetry_cell_setting 'orthorhombic'
loop_
_space_group_symop_operation_xyz
x,y,z
-x,1/2-y,1/2+z
x,-y,-z
-x,1/2+y,1/2-z
-x,-y,-z
x,1/2+y,1/2-z
-x,y,z
x,1/2-y,1/2+z
1/2+x,1/2+y,z
1/2-x,-y,1/2+z
1/2+x,1/2-y,-z
1/2-x,y,1/2-z
1/2-x,1/2-y,-z
1/2+x,y,1/2-z
1/2-x,1/2+y,z
1/2+x,-y,1/2+z
loop_
_atom_site_type_symbol
_atom_site_label
_atom_site_fract_x
_atom_site_fract_y
_atom_site_fract_z
Si Si1 0.096004 0.136546 0.782156
Si Si2 0.595708 0.362405 0.427546
Si Si3 0.267459 0.000000 0.000000
Si Si4 0.832685 0.924274 0.878044
Si Si5 0.657112 0.058459 0.180030
O O1 0.110301 0.304382 0.792656
O O2 0.000000 0.109411 0.763946
O O3 0.117293 0.050828 0.844468
O O4 0.153054 0.069559 0.728992
O O5 0.500000 0.366728 0.449724
O O6 0.666854 0.374651 0.480113
O O7 0.612279 0.216355 0.390041
O O8 0.614602 0.494965 0.381487
O O9 0.208247 0.028590 0.057705
O O10 0.751337 0.893163 0.836036
#
# Coordination Sequence:
#
# PCOD9481247 Si02
#       5
#    16  16   8  16  16
#     4  12  24  41  63  93 126 162 206 258 310 368
#     4  11  22  41  67  96 125 163 210 262 312 367
#     4  10  23  42  63  90 126 166 210 256 311 376
#     4  11  24  43  65  91 125 167 210 256 311 374
#     4  11  24  42  64  92 128 166 204 252 313 379
#
# _framework density 22.343098000000001
#
# number of rings (size 3 to 8) (size 9 to 14) (size 15 to 20)
#    0.000    0.889    0.000    8.333    0.000    3.556 
#    0.000    6.667    0.000    0.000    0.000    0.000 
#    0.000    0.000    0.000    0.000    0.000    0.000 
#
# Total GULP energy -201546.155910 kJ/mol
# GULP energy per Si atom -5598.504331 kJ/mol
# Density = 2.229224 g / cm^3
# Si number density = 22.343098 Si / 1000 Ang^3
#
#
#
# Elastic Constant Matrix: (Units=GPa)
#
#
# Indices 1 2 3 4 5 6 
#
# 1 70.6226 -2.1642 -1.0512 0.0000 0.0000 0.0000
# 2 -2.1642 64.3107 0.3519 0.0000 0.0000 0.0000
# 3 -1.0512 0.3519 78.3889 0.0000 0.0000 0.0000
# 4 0.0000 0.0000 0.0000 29.9527 0.0000 0.0000
# 5 0.0000 0.0000 0.0000 0.0000 26.4198 0.0000
# 6 0.0000 0.0000 0.0000 0.0000 0.0000 15.1973
#
#
#
# Elastic Compliance Matrix: (Units=1/GPa)
#
#
# Indices 1 2 3 4 5 6 
#
# 1 0.014177 0.000476 0.000188 0.000000 0.000000 0.000000
# 2 0.000476 0.015566 -0.000063 0.000000 0.000000 0.000000
# 3 0.000188 -0.000063 0.012760 0.000000 0.000000 0.000000
# 4 0.000000 0.000000 0.000000 0.033386 0.000000 0.000000
# 5 0.000000 0.000000 0.000000 0.000000 0.037850 0.000000
# 6 0.000000 0.000000 0.000000 0.000000 0.000000 0.065801
#
#
# Mechanical properties :
#
#
# Convention : Reuss Voigt Hill
#
# Bulk Modulus (GPa) = 22.88127 23.06612 22.97370
# Shear Modulus (GPa) = 25.91923 28.72635 27.32279
#
# Velocity S-wave (km/s) = 3.40965 3.58955 3.50076
# Velocity P-wave (km/s) = 5.07583 5.24650 5.16187
#
# Compressibility (1/GPa) = 0.04370387
#
# Stress axis : x y z
#
# Youngs Moduli (GPa) = 70.53598 64.24304 78.37165
#
# Poissons Ratio (x) = -0.03058 -0.01473
# Poissons Ratio (y) = -0.03358 0.00498
# Poissons Ratio (z) = -0.01326 0.00408
#
# Static dielectric constant tensor:
#      x y z
#    x 1.789150 0.000000 0.000000 
#    y 0.000000 1.800280 0.000000 
#    z 0.000000 0.000000 1.846340 
# 
# From -- ./inp_files/45626.got.cif
#   From: 2010.05.17/outbox.cif.g08.bks.cpg/sg64_23_cif.got.tgz:45626.got - 2010.06.03 16:29:19.
