data_PCOD9481273
_publ_section_title
;
Structure prediction by ZEFSAII (Michael W. Deem and Ramdas Pophale) SiO2 
 PCOD9481273
Probable space group: C M C A
;
_chemical_formula_sum "Si O2"
_cell_formula_units_Z 64
_cell_length_a 18.145917
_cell_length_b 10.227120
_cell_length_c 14.948092
_cell_angle_alpha 90.000000
_cell_angle_beta 90.000000
_cell_angle_gamma 90.000000
_cell_volume 2774.073949
_symmetry_space_group_name_H-M "C M C A"
_symmetry_group_IT_number 64
_symmetry_cell_setting 'orthorhombic'
loop_
_space_group_symop_operation_xyz
x,y,z
-x,1/2-y,1/2+z
x,-y,-z
-x,1/2+y,1/2-z
-x,-y,-z
x,1/2+y,1/2-z
-x,y,z
x,1/2-y,1/2+z
1/2+x,1/2+y,z
1/2-x,-y,1/2+z
1/2+x,1/2-y,-z
1/2-x,y,1/2-z
1/2-x,1/2-y,-z
1/2+x,y,1/2-z
1/2-x,1/2+y,z
1/2+x,-y,1/2+z
loop_
_atom_site_type_symbol
_atom_site_label
_atom_site_fract_x
_atom_site_fract_y
_atom_site_fract_z
Si Si1 0.086805 0.737135 0.276581
Si Si2 0.912885 0.638711 0.957346
Si Si3 0.789104 0.440514 0.656139
Si Si4 0.678469 0.215980 0.597373
O O1 0.098030 0.850317 0.351145
O O2 0.130261 0.613810 0.318033
O O3 0.124813 0.772223 0.183490
O O4 0.000000 0.713205 0.266091
O O5 0.000000 0.658721 0.973317
O O6 0.892430 0.500000 0.000000
O O7 0.867241 0.746658 0.010269
O O8 0.750000 0.476084 0.750000
O O9 0.742019 0.322310 0.614565
O O10 0.791255 0.569874 0.597277
#
# Coordination Sequence:
#
# PCOD9481273 Si02
#       4
#    16  16  16  16
#     4  10  23  42  68  98 134 178 223 278 341 398
#     4  10  24  44  68 102 137 174 227 277 334 411
#     4  10  23  42  66  99 135 174 227 276 328 404
#     4  11  24  44  68  97 138 180 220 280 337 396
#
# _framework density 23.070761999999998
#
# number of rings (size 3 to 8) (size 9 to 14) (size 15 to 20)
#    0.000    1.750    0.000    3.000   10.500    4.000 
#    0.000    2.500    0.000    0.000    0.000    0.000 
#    0.000    0.000    0.000    0.000    0.000    0.000 
#
# Total GULP energy -179385.603287 kJ/mol
# GULP energy per Si atom -5605.800103 kJ/mol
# Density = 2.301825 g / cm^3
# Si number density = 23.070762 Si / 1000 Ang^3
#
#
#
# Elastic Constant Matrix: (Units=GPa)
#
#
# Indices 1 2 3 4 5 6 
#
# 1 143.7624 62.6087 63.8439 0.0000 0.0000 0.0000
# 2 62.6087 113.2836 35.0194 0.0000 0.0000 0.0000
# 3 63.8439 35.0194 126.6749 0.0000 0.0000 0.0000
# 4 0.0000 0.0000 0.0000 27.4833 0.0000 0.0000
# 5 0.0000 0.0000 0.0000 0.0000 37.2348 0.0000
# 6 0.0000 0.0000 0.0000 0.0000 0.0000 26.1697
#
#
#
# Elastic Compliance Matrix: (Units=1/GPa)
#
#
# Indices 1 2 3 4 5 6 
#
# 1 0.010861 -0.004713 -0.004171 0.000000 0.000000 0.000000
# 2 -0.004713 0.011698 -0.000858 0.000000 0.000000 0.000000
# 3 -0.004171 -0.000858 0.010234 0.000000 0.000000 0.000000
# 4 0.000000 0.000000 0.000000 0.036386 0.000000 0.000000
# 5 0.000000 0.000000 0.000000 0.000000 0.026857 0.000000
# 6 0.000000 0.000000 0.000000 0.000000 0.000000 0.038212
#
#
# Mechanical properties :
#
#
# Convention : Reuss Voigt Hill
#
# Bulk Modulus (GPa) = 75.14718 78.51833 76.83276
# Shear Modulus (GPa) = 31.61218 32.99414 32.30316
#
# Velocity S-wave (km/s) = 3.70567 3.78581 3.74595
# Velocity P-wave (km/s) = 7.13811 7.29502 7.21699
#
# Compressibility (1/GPa) = 0.01330722
#
# Stress axis : x y z
#
# Youngs Moduli (GPa) = 92.07490 85.48795 97.71701
#
# Poissons Ratio (x) = 0.40291 0.40756
# Poissons Ratio (y) = 0.43396 0.08388
# Poissons Ratio (z) = 0.38403 0.07338
#
# Static dielectric constant tensor:
#      x y z
#    x 1.834990 0.000000 0.000000 
#    y 0.000000 1.851510 0.000000 
#    z 0.000000 0.000000 1.855890 
# 
# From -- ./inp_files/24878.got.cif
#   From: 2010.05.17/outbox.cif.g08.bks.cpg/sg64_13_cif.got.tgz:24878.got - 2010.06.03 16:29:19.
