data_PCOD9481819
_publ_section_title
;
Structure prediction by ZEFSAII (Michael W. Deem and Ramdas Pophale) SiO2 
 PCOD9481819
Probable space group: C M C A
;
_chemical_formula_sum "Si O2"
_cell_formula_units_Z 112
_cell_length_a 21.798804
_cell_length_b 14.693724
_cell_length_c 15.282801
_cell_angle_alpha 90.000000
_cell_angle_beta 90.000000
_cell_angle_gamma 90.000000
_cell_volume 4895.166889
_symmetry_space_group_name_H-M "C M C A"
_symmetry_group_IT_number 64
_symmetry_cell_setting 'orthorhombic'
loop_
_space_group_symop_operation_xyz
x,y,z
-x,1/2-y,1/2+z
x,-y,-z
-x,1/2+y,1/2-z
-x,-y,-z
x,1/2+y,1/2-z
-x,y,z
x,1/2-y,1/2+z
1/2+x,1/2+y,z
1/2-x,-y,1/2+z
1/2+x,1/2-y,-z
1/2-x,y,1/2-z
1/2-x,1/2-y,-z
1/2+x,y,1/2-z
1/2-x,1/2+y,z
1/2+x,-y,1/2+z
loop_
_atom_site_type_symbol
_atom_site_label
_atom_site_fract_x
_atom_site_fract_y
_atom_site_fract_z
Si Si1 0.770804 0.990608 0.150730
Si Si2 0.432198 0.394672 0.554956
Si Si3 0.889606 0.211889 0.912857
Si Si4 0.863175 0.963811 0.384430
Si Si5 0.926439 0.194517 0.714663
Si Si6 0.148784 0.836492 0.901170
Si Si7 0.764534 0.225138 0.851659
O O1 0.750000 0.008423 0.250000
O O2 0.706161 0.993277 0.100871
O O3 0.783424 0.882160 0.142602
O O4 0.821194 0.065978 0.126046
O O5 0.500000 0.430615 0.554118
O O6 0.434684 0.288484 0.554029
O O7 0.393092 0.420123 0.470315
O O8 0.400036 0.444344 0.636030
O O9 0.917574 0.186171 0.819233
O O10 0.826707 0.266535 0.888546
O O11 0.876738 0.152990 0.999820
O O12 0.879951 0.886076 0.315890
O O13 0.898918 0.286017 0.666280
O O14 0.000000 0.184072 0.693755
O O15 0.206242 0.764616 0.902765
O O16 0.750000 0.244441 0.750000
#
# Coordination Sequence:
#
# PCOD9481819 Si02
#       7
#    16  16  16  16  16  16  16
#     4  11  24  42  70 105 147 191 235 299 370 451
#     4  11  23  41  70 105 136 179 248 314 364 425
#     4  12  25  42  68 105 149 191 241 298 372 448
#     4  11  22  44  71 105 135 183 244 312 373 416
#     4  12  25  46  73 104 148 198 248 304 362 435
#     4  12  25  44  74 107 150 194 241 305 378 441
#     4  11  21  44  68 101 148 191 248 303 371 438
#
# _framework density 22.879712000000001
#
# number of rings (size 3 to 8) (size 9 to 14) (size 15 to 20)
#    0.000    0.571    4.286    4.714    2.000    3.429 
#    0.000    0.000    0.000    0.857    0.000    6.000 
#    0.000    0.000    0.000    0.000    0.000    0.000 
#
# Total GULP energy -311916.985323 kJ/mol
# GULP energy per Si atom -5569.946166 kJ/mol
# Density = 2.282764 g / cm^3
# Si number density = 22.879712 Si / 1000 Ang^3
#
#
#
# Elastic Constant Matrix: (Units=GPa)
#
#
# Indices 1 2 3 4 5 6 
#
# 1 104.4917 9.7186 -2.7205 0.0000 0.0000 0.0000
# 2 9.7186 87.1243 23.7602 0.0000 0.0000 0.0000
# 3 -2.7205 23.7602 98.8253 0.0000 0.0000 0.0000
# 4 0.0000 0.0000 0.0000 14.6314 0.0000 0.0000
# 5 0.0000 0.0000 0.0000 0.0000 18.4178 0.0000
# 6 0.0000 0.0000 0.0000 0.0000 0.0000 -152.7602
#
#
#
# Elastic Compliance Matrix: (Units=1/GPa)
#
#
# Indices 1 2 3 4 5 6 
#
# 1 0.009700 -0.001236 0.000564 0.000000 0.000000 0.000000
# 2 -0.001236 0.012441 -0.003025 0.000000 0.000000 0.000000
# 3 0.000564 -0.003025 0.010862 0.000000 0.000000 0.000000
# 4 0.000000 0.000000 0.000000 0.068346 0.000000 0.000000
# 5 0.000000 0.000000 0.000000 0.000000 0.054295 0.000000
# 6 0.000000 0.000000 0.000000 0.000000 0.000000 -0.006546
#
#
# Mechanical properties :
#
#
# Convention : Reuss Voigt Hill
#
# Bulk Modulus (GPa) = 39.04938 39.10642 39.07790
# Shear Modulus (GPa) = 30.29803 -6.63001 11.83401
#
# Velocity S-wave (km/s) = 3.64295 -1.70413 2.27673
# Velocity P-wave (km/s) = 5.89907 3.64105 4.90185
#
# Compressibility (1/GPa) = 0.02560860
#
# Stress axis : x y z
#
# Youngs Moduli (GPa) = 103.09521 80.38128 92.06654
#
# Poissons Ratio (x) = 0.09934 -0.05194
# Poissons Ratio (y) = 0.12741 0.27851
# Poissons Ratio (z) = -0.05816 0.24316
#
# Static dielectric constant tensor:
#      x y z
#    x 1.916690 0.000000 0.000000 
#    y 0.000000 2.417820 0.000000 
#    z 0.000000 0.000000 1.917680 
# 
# From -- ./inp_files/27390.got.cif
#   From: 2010.05.17/outbox.cif.g08.bks.cpg/sg64_14_cif.got.tgz:27390.got - 2010.06.03 16:29:19.
