data_PCOD9481748
_publ_section_title
;
Structure prediction by ZEFSAII (Michael W. Deem and Ramdas Pophale) SiO2 
 PCOD9481748
Probable space group: C M C A
;
_chemical_formula_sum "Si O2"
_cell_formula_units_Z 120
_cell_length_a 23.889175
_cell_length_b 10.320814
_cell_length_c 19.142252
_cell_angle_alpha 90.000000
_cell_angle_beta 90.000000
_cell_angle_gamma 90.000000
_cell_volume 4719.631950
_symmetry_space_group_name_H-M "C M C A"
_symmetry_group_IT_number 64
_symmetry_cell_setting 'orthorhombic'
loop_
_space_group_symop_operation_xyz
x,y,z
-x,1/2-y,1/2+z
x,-y,-z
-x,1/2+y,1/2-z
-x,-y,-z
x,1/2+y,1/2-z
-x,y,z
x,1/2-y,1/2+z
1/2+x,1/2+y,z
1/2-x,-y,1/2+z
1/2+x,1/2-y,-z
1/2-x,y,1/2-z
1/2-x,1/2-y,-z
1/2+x,y,1/2-z
1/2-x,1/2+y,z
1/2+x,-y,1/2+z
loop_
_atom_site_type_symbol
_atom_site_label
_atom_site_fract_x
_atom_site_fract_y
_atom_site_fract_z
Si Si1 0.707918 0.127523 0.346918
Si Si2 0.082074 0.299405 0.317829
Si Si3 0.342416 0.853441 0.507011
Si Si4 0.062916 0.201452 0.467736
Si Si5 0.394367 0.454255 0.749057
Si Si6 0.791115 0.202357 0.855776
Si Si7 0.702213 0.040652 0.853729
Si Si8 0.850274 0.000000 0.500000
O O1 0.698273 0.143623 0.428799
O O2 0.779974 0.131622 0.341688
O O3 0.650425 0.106692 0.304138
O O4 0.726238 0.961575 0.343801
O O5 0.063341 0.287641 0.397917
O O6 0.067642 0.434122 0.282515
O O7 0.149703 0.303551 0.316903
O O8 0.069524 0.163737 0.281251
O O9 0.398693 0.774859 0.523740
O O10 0.310293 0.802883 0.438120
O O11 0.361085 0.000000 0.500000
O O12 0.000000 0.169077 0.487487
O O13 0.104839 0.082931 0.455347
O O14 0.354393 0.523009 0.690947
O O15 0.719996 0.205191 0.833246
O O16 0.688760 0.052142 0.937161
#
# Coordination Sequence:
#
# PCOD9481748 Si02
#       8
#    16  16  16  16  16  16  16   8
#     4  12  21  34  57  94 141 189 220 266 318 416
#     4  11  24  43  65  98 139 183 231 292 334 411
#     4  11  21  40  60  94 134 176 226 289 342 404
#     4  11  25  48  75  98 125 174 238 314 375 409
#     4  12  24  41  64  96 148 192 233 266 338 414
#     4  11  21  34  57  89 140 187 226 266 324 398
#     4  12  21  35  62 102 138 189 224 269 335 424
#     4  12  23  44  70 102 134 172 233 302 358 412
#
# _framework density 25.425711
#
# number of rings (size 3 to 8) (size 9 to 14) (size 15 to 20)
#    0.000    0.533    5.333    5.000    0.000    1.333 
#    0.000    0.667    0.000    0.800    0.000    0.000 
#    0.000    0.000    0.000    0.000    0.000    0.000 
#
# Total GULP energy -334659.577338 kJ/mol
# GULP energy per Si atom -5577.659622 kJ/mol
# Density = 2.536784 g / cm^3
# Si number density = 25.425711 Si / 1000 Ang^3
#
#
#
# Elastic Constant Matrix: (Units=GPa)
#
#
# Indices 1 2 3 4 5 6 
#
# 1 120.8826 29.3671 -11.7766 0.0000 0.0000 0.0000
# 2 29.3671 141.0604 -6.2754 0.0000 0.0000 0.0000
# 3 -11.7766 -6.2754 50.3110 0.0000 0.0000 0.0000
# 4 0.0000 0.0000 0.0000 44.2241 0.0000 0.0000
# 5 0.0000 0.0000 0.0000 0.0000 2.9933 0.0000
# 6 0.0000 0.0000 0.0000 0.0000 0.0000 -3.3607
#
#
#
# Elastic Compliance Matrix: (Units=1/GPa)
#
#
# Indices 1 2 3 4 5 6 
#
# 1 0.008883 -0.001767 0.001859 0.000000 0.000000 0.000000
# 2 -0.001767 0.007480 0.000519 0.000000 0.000000 0.000000
# 3 0.001859 0.000519 0.020376 0.000000 0.000000 0.000000
# 4 0.000000 0.000000 0.000000 0.022612 0.000000 0.000000
# 5 0.000000 0.000000 0.000000 0.000000 0.334078 0.000000
# 6 0.000000 0.000000 0.000000 0.000000 0.000000 -0.297554
#
#
# Mechanical properties :
#
#
# Convention : Reuss Voigt Hill
#
# Bulk Modulus (GPa) = 26.34164 37.20934 31.77549
# Shear Modulus (GPa) = 46.59569 28.83394 37.71481
#
# Velocity S-wave (km/s) = 4.28556 3.37121 3.85559
# Velocity P-wave (km/s) = 5.90514 5.46075 5.68729
#
# Compressibility (1/GPa) = 0.03796271
#
# Stress axis : x y z
#
# Youngs Moduli (GPa) = 112.57762 133.68891 49.07665
#
# Poissons Ratio (x) = 0.23617 -0.09123
# Poissons Ratio (y) = 0.19888 -0.02549
# Poissons Ratio (z) = -0.20927 -0.06945
#
# Static dielectric constant tensor:
#      x y z
#    x 1.921890 0.000000 0.000000 
#    y 0.000000 2.554860 0.000000 
#    z 0.000000 0.000000 1.942400 
# 
# From -- ./inp_files/41581.got.cif
#   From: 2010.05.17/outbox.cif.g08.bks.cpg/sg64_21_cif.got.tgz:41581.got - 2010.06.03 16:29:19.
