data_PCOD9481462
_publ_section_title
;
Structure prediction by ZEFSAII (Michael W. Deem and Ramdas Pophale) SiO2 
 PCOD9481462
Probable space group: C M C A
;
_chemical_formula_sum "Si O2"
_cell_formula_units_Z 44
_cell_length_a 13.855747
_cell_length_b 17.147362
_cell_length_c 7.359117
_cell_angle_alpha 90.000000
_cell_angle_beta 90.000000
_cell_angle_gamma 90.000000
_cell_volume 1748.448999
_symmetry_space_group_name_H-M "C M C A"
_symmetry_group_IT_number 64
_symmetry_cell_setting 'orthorhombic'
loop_
_space_group_symop_operation_xyz
x,y,z
-x,1/2-y,1/2+z
x,-y,-z
-x,1/2+y,1/2-z
-x,-y,-z
x,1/2+y,1/2-z
-x,y,z
x,1/2-y,1/2+z
1/2+x,1/2+y,z
1/2-x,-y,1/2+z
1/2+x,1/2-y,-z
1/2-x,y,1/2-z
1/2-x,1/2-y,-z
1/2+x,y,1/2-z
1/2-x,1/2+y,z
1/2+x,-y,1/2+z
loop_
_atom_site_type_symbol
_atom_site_label
_atom_site_fract_x
_atom_site_fract_y
_atom_site_fract_z
Si Si1 0.000000 0.000000 0.000000
Si Si2 0.250000 0.306803 0.750000
Si Si3 0.112062 0.180001 0.566750
Si Si4 0.139533 0.020206 0.705267
O O1 0.917770 0.973583 0.854332
O O2 0.169266 0.253353 0.649492
O O3 0.315398 0.347664 0.595634
O O4 0.110437 0.111762 0.717765
O O5 0.000000 0.195516 0.513832
O O6 0.250000 0.013584 0.750000
O O7 0.113135 0.000000 0.500000
#
# Coordination Sequence:
#
# PCOD9481462 Si02
#       4
#     4   8  16  16
#     4  12  26  48  72 100 144 188 234 292 366 430
#     4  10  24  42  68 100 138 188 236 298 348 422
#     4  11  23  44  67 100 139 184 239 292 356 426
#     4  12  26  46  72 106 143 185 238 298 366 434
#
# _framework density 25.165161000000001
#
# number of rings (size 3 to 8) (size 9 to 14) (size 15 to 20)
#    0.000    0.727    5.455    1.636    2.545    0.000 
#    0.000    0.000    0.000    0.000    0.000    0.000 
#    0.000    0.000    0.000    0.000    0.000    0.000 
#
# Total GULP energy -122560.796238 kJ/mol
# GULP energy per Si atom -5570.945284 kJ/mol
# Density = 2.510788 g / cm^3
# Si number density = 25.165161 Si / 1000 Ang^3
#
#
#
# Elastic Constant Matrix: (Units=GPa)
#
#
# Indices 1 2 3 4 5 6 
#
# 1 273.0873 8.0194 38.4776 0.0000 0.0000 0.0000
# 2 8.0194 45.1491 -13.8670 0.0000 0.0000 0.0000
# 3 38.4776 -13.8670 98.1441 0.0000 0.0000 0.0000
# 4 0.0000 0.0000 0.0000 23.4589 0.0000 0.0000
# 5 0.0000 0.0000 0.0000 0.0000 8.8412 0.0000
# 6 0.0000 0.0000 0.0000 0.0000 0.0000 -84.4159
#
#
#
# Elastic Compliance Matrix: (Units=1/GPa)
#
#
# Indices 1 2 3 4 5 6 
#
# 1 0.003940 -0.001228 -0.001718 0.000000 0.000000 0.000000
# 2 -0.001228 0.023536 0.003807 0.000000 0.000000 0.000000
# 3 -0.001718 0.003807 0.011401 0.000000 0.000000 0.000000
# 4 0.000000 0.000000 0.000000 0.042628 0.000000 0.000000
# 5 0.000000 0.000000 0.000000 0.000000 0.113106 0.000000
# 6 0.000000 0.000000 0.000000 0.000000 0.000000 -0.011846
#
#
# Mechanical properties :
#
#
# Convention : Reuss Voigt Hill
#
# Bulk Modulus (GPa) = 24.63131 53.51563 39.07347
# Shear Modulus (GPa) = 25.69702 15.16022 20.42862
#
# Velocity S-wave (km/s) = 3.19899 2.45711 2.85227
# Velocity P-wave (km/s) = 4.84291 5.41865 5.13885
#
# Compressibility (1/GPa) = 0.04059874
#
# Stress axis : x y z
#
# Youngs Moduli (GPa) = 253.80982 42.48798 87.71514
#
# Poissons Ratio (x) = 0.05215 0.15070
# Poissons Ratio (y) = 0.31156 -0.33391
# Poissons Ratio (z) = 0.43607 -0.16174
#
# Static dielectric constant tensor:
#      x y z
#    x 1.880950 0.000000 0.000000 
#    y 0.000000 2.125180 0.000000 
#    z 0.000000 0.000000 2.081820 
# 
# From -- ./inp_files/5038.got.cif
#   From: 2010.05.17/outbox.cif.g08.bks.cpg/sg64_3_cif.got.tgz:5038.got - 2010.06.03 16:29:19.
