data_PCOD9481419
_publ_section_title
;
Structure prediction by ZEFSAII (Michael W. Deem and Ramdas Pophale) SiO2 
 PCOD9481419
Probable space group: C M C A
;
_chemical_formula_sum "Si O2"
_cell_formula_units_Z 52
_cell_length_a 18.864676
_cell_length_b 12.148751
_cell_length_c 9.758796
_cell_angle_alpha 90.000000
_cell_angle_beta 90.000000
_cell_angle_gamma 90.000000
_cell_volume 2236.542838
_symmetry_space_group_name_H-M "C M C A"
_symmetry_group_IT_number 64
_symmetry_cell_setting 'orthorhombic'
loop_
_space_group_symop_operation_xyz
x,y,z
-x,1/2-y,1/2+z
x,-y,-z
-x,1/2+y,1/2-z
-x,-y,-z
x,1/2+y,1/2-z
-x,y,z
x,1/2-y,1/2+z
1/2+x,1/2+y,z
1/2-x,-y,1/2+z
1/2+x,1/2-y,-z
1/2-x,y,1/2-z
1/2-x,1/2-y,-z
1/2+x,y,1/2-z
1/2-x,1/2+y,z
1/2+x,-y,1/2+z
loop_
_atom_site_type_symbol
_atom_site_label
_atom_site_fract_x
_atom_site_fract_y
_atom_site_fract_z
Si Si1 0.417126 0.281682 0.112817
Si Si2 0.623960 0.366161 0.385393
Si Si3 0.000000 0.000000 0.500000
Si Si4 0.345255 0.000000 0.500000
Si Si5 0.250000 0.005631 0.750000
O O1 0.500000 0.257604 0.084166
O O2 0.402266 0.278270 0.273435
O O3 0.392793 0.401443 0.060522
O O4 0.372141 0.192200 0.031319
O O5 0.562279 0.456032 0.395765
O O6 0.695777 0.418610 0.334699
O O7 0.297305 0.046072 0.372730
#
# Coordination Sequence:
#
# PCOD9481419 Si02
#       5
#    16  16   4   8   8
#     4  11  22  44  63 105 127 183 218 296 332 427
#     4  11  25  42  72  95 145 171 240 275 365 397
#     4  12  22  44  68 106 132 194 220 308 322 440
#     4  10  24  40  68  88 144 170 236 270 359 407
#     4  10  24  46  62 108 132 196 220 294 342 440
#
# _framework density 23.250169
#
# number of rings (size 3 to 8) (size 9 to 14) (size 15 to 20)
#    0.000    1.231    3.077    1.385    0.000   13.538 
#   11.077    0.000    0.000    0.000    0.000    0.000 
#    0.000    0.000    0.000    0.000    0.000    0.000 
#
# Total GULP energy -144847.697459 kJ/mol
# GULP energy per Si atom -5571.065287 kJ/mol
# Density = 2.319725 g / cm^3
# Si number density = 23.250169 Si / 1000 Ang^3
#
#
#
# Elastic Constant Matrix: (Units=GPa)
#
#
# Indices 1 2 3 4 5 6 
#
# 1 115.3186 8.7301 18.3113 0.0000 0.0000 0.0000
# 2 8.7301 18.5922 2.9238 0.0000 0.0000 0.0000
# 3 18.3113 2.9238 122.8660 0.0000 0.0000 0.0000
# 4 0.0000 0.0000 0.0000 55.0825 0.0000 0.0000
# 5 0.0000 0.0000 0.0000 0.0000 44.3662 0.0000
# 6 0.0000 0.0000 0.0000 0.0000 0.0000 11.0788
#
#
#
# Elastic Compliance Matrix: (Units=1/GPa)
#
#
# Indices 1 2 3 4 5 6 
#
# 1 0.009185 -0.004113 -0.001271 0.000000 0.000000 0.000000
# 2 -0.004113 0.055830 -0.000716 0.000000 0.000000 0.000000
# 3 -0.001271 -0.000716 0.008345 0.000000 0.000000 0.000000
# 4 0.000000 0.000000 0.000000 0.018155 0.000000 0.000000
# 5 0.000000 0.000000 0.000000 0.000000 0.022540 0.000000
# 6 0.000000 0.000000 0.000000 0.000000 0.000000 0.090263
#
#
# Mechanical properties :
#
#
# Convention : Reuss Voigt Hill
#
# Bulk Modulus (GPa) = 16.35030 35.18968 25.76999
# Shear Modulus (GPa) = 21.10572 37.22627 29.16599
#
# Velocity S-wave (km/s) = 3.01618 4.00574 3.54565
# Velocity P-wave (km/s) = 4.37920 6.04671 5.27921
#
# Compressibility (1/GPa) = 0.06116096
#
# Stress axis : x y z
#
# Youngs Moduli (GPa) = 108.87547 17.91162 119.82654
#
# Poissons Ratio (x) = 0.07367 0.15230
# Poissons Ratio (y) = 0.44779 0.08575
# Poissons Ratio (z) = 0.13838 0.01282
#
# Static dielectric constant tensor:
#      x y z
#    x 1.834920 0.000000 0.000000 
#    y 0.000000 1.939280 0.000000 
#    z 0.000000 0.000000 1.894240 
# 
# From -- ./inp_files/6399.got.cif
#   From: 2010.05.17/outbox.cif.g08.bks.cpg/sg64_4_cif.got.tgz:6399.got - 2010.06.03 16:29:19.
