data_PCOD9481158
_publ_section_title
;
Structure prediction by ZEFSAII (Michael W. Deem and Ramdas Pophale) SiO2 
 PCOD9481158
Probable space group: C M C A
;
_chemical_formula_sum "Si O2"
_cell_formula_units_Z 104
_cell_length_a 20.592941
_cell_length_b 25.089013
_cell_length_c 9.219340
_cell_angle_alpha 90.000000
_cell_angle_beta 90.000000
_cell_angle_gamma 90.000000
_cell_volume 4763.232531
_symmetry_space_group_name_H-M "C M C A"
_symmetry_group_IT_number 64
_symmetry_cell_setting 'orthorhombic'
loop_
_space_group_symop_operation_xyz
x,y,z
-x,1/2-y,1/2+z
x,-y,-z
-x,1/2+y,1/2-z
-x,-y,-z
x,1/2+y,1/2-z
-x,y,z
x,1/2-y,1/2+z
1/2+x,1/2+y,z
1/2-x,-y,1/2+z
1/2+x,1/2-y,-z
1/2-x,y,1/2-z
1/2-x,1/2-y,-z
1/2+x,y,1/2-z
1/2-x,1/2+y,z
1/2+x,-y,1/2+z
loop_
_atom_site_type_symbol
_atom_site_label
_atom_site_fract_x
_atom_site_fract_y
_atom_site_fract_z
Si Si1 0.641785 0.792707 0.454885
Si Si2 0.000000 0.633859 0.900899
Si Si3 0.388465 0.449925 0.415205
Si Si4 0.232025 0.082637 0.396994
Si Si5 0.183201 0.403174 0.338782
Si Si6 0.000000 0.185947 0.312157
Si Si7 0.649443 0.816871 0.780424
Si Si8 0.000000 0.699348 0.624296
O O1 0.660960 0.841347 0.348095
O O2 0.669286 0.800158 0.616593
O O3 0.654413 0.735428 0.382397
O O4 0.564482 0.798960 0.467723
O O5 0.063001 0.599030 0.933366
O O6 0.000000 0.650582 0.734564
O O7 0.000000 0.682215 0.012423
O O8 0.419592 0.500000 0.500000
O O9 0.323036 0.442912 0.506151
O O10 0.365745 0.442867 0.246220
O O11 0.250000 0.052367 0.250000
O O12 0.296219 0.085058 0.495766
O O13 0.195965 0.137148 0.343744
O O14 0.250000 0.403841 0.250000
O O15 0.072719 0.164930 0.273674
O O16 0.000000 0.248138 0.275546
#
# Coordination Sequence:
#
# PCOD9481158 Si02
#       8
#    16   8  16  16  16   8  16   8
#     4  11  23  38  60  93 136 182 224 271 334 405
#     4  12  21  42  70 100 134 168 213 290 331 404
#     4  11  25  45  70  97 125 169 225 285 349 401
#     4  11  23  42  63  95 132 172 224 274 332 401
#     4  10  23  40  63  91 130 172 218 271 335 399
#     4  10  23  35  61  93 134 172 224 266 332 393
#     4  11  24  37  62  95 135 180 229 273 331 404
#     4  10  23  33  63  93 134 176 224 262 336 404
#
# _framework density 21.833911000000001
#
# number of rings (size 3 to 8) (size 9 to 14) (size 15 to 20)
#    0.000    1.231    4.615    0.692   12.923    3.077 
#    0.000    0.000    0.000    0.000    0.000    4.308 
#    0.000    0.000    0.000    0.846    0.000    0.000 
#
# Total GULP energy -289839.635148 kJ/mol
# GULP energy per Si atom -5573.839137 kJ/mol
# Density = 2.178422 g / cm^3
# Si number density = 21.833911 Si / 1000 Ang^3
#
#
#
# Elastic Constant Matrix: (Units=GPa)
#
#
# Indices 1 2 3 4 5 6 
#
# 1 69.6386 12.8319 11.2758 0.0000 0.0000 0.0000
# 2 12.8319 73.3554 39.5303 0.0000 0.0000 0.0000
# 3 11.2758 39.5303 134.7037 0.0000 0.0000 0.0000
# 4 0.0000 0.0000 0.0000 21.1383 0.0000 0.0000
# 5 0.0000 0.0000 0.0000 0.0000 1.2684 0.0000
# 6 0.0000 0.0000 0.0000 0.0000 0.0000 38.3650
#
#
#
# Elastic Compliance Matrix: (Units=1/GPa)
#
#
# Indices 1 2 3 4 5 6 
#
# 1 0.014875 -0.002294 -0.000572 0.000000 0.000000 0.000000
# 2 -0.002294 0.016547 -0.004664 0.000000 0.000000 0.000000
# 3 -0.000572 -0.004664 0.008840 0.000000 0.000000 0.000000
# 4 0.000000 0.000000 0.000000 0.047308 0.000000 0.000000
# 5 0.000000 0.000000 0.000000 0.000000 0.788421 0.000000
# 6 0.000000 0.000000 0.000000 0.000000 0.000000 0.026065
#
#
# Mechanical properties :
#
#
# Convention : Reuss Voigt Hill
#
# Bulk Modulus (GPa) = 39.67809 44.99707 42.33758
# Shear Modulus (GPa) = 5.40239 26.42498 15.91368
#
# Velocity S-wave (km/s) = 1.57470 3.48267 2.70265
# Velocity P-wave (km/s) = 4.63879 6.06840 5.40111
#
# Compressibility (1/GPa) = 0.02520283
#
# Stress axis : x y z
#
# Youngs Moduli (GPa) = 67.22627 60.43468 113.11917
#
# Poissons Ratio (x) = 0.13863 0.06471
# Poissons Ratio (y) = 0.15420 0.52757
# Poissons Ratio (z) = 0.03846 0.28186
#
# Static dielectric constant tensor:
#      x y z
#    x 1.839640 0.000000 0.000000 
#    y 0.000000 1.826120 0.000000 
#    z 0.000000 0.000000 1.851550 
# 
# From -- ./inp_files/8566.got.cif
#   From: 2010.05.17/outbox.cif.g08.bks.cpg/sg64_5_cif.got.tgz:8566.got - 2010.06.03 16:29:19.
