data_PCOD9481439
_publ_section_title
;
Structure prediction by ZEFSAII (Michael W. Deem and Ramdas Pophale) SiO2 
 PCOD9481439
Probable space group: C M C A
;
_chemical_formula_sum "Si O2"
_cell_formula_units_Z 56
_cell_length_a 20.302330
_cell_length_b 11.002706
_cell_length_c 10.768265
_cell_angle_alpha 90.000000
_cell_angle_beta 90.000000
_cell_angle_gamma 90.000000
_cell_volume 2405.421153
_symmetry_space_group_name_H-M "C M C A"
_symmetry_group_IT_number 64
_symmetry_cell_setting 'orthorhombic'
loop_
_space_group_symop_operation_xyz
x,y,z
-x,1/2-y,1/2+z
x,-y,-z
-x,1/2+y,1/2-z
-x,-y,-z
x,1/2+y,1/2-z
-x,y,z
x,1/2-y,1/2+z
1/2+x,1/2+y,z
1/2-x,-y,1/2+z
1/2+x,1/2-y,-z
1/2-x,y,1/2-z
1/2-x,1/2-y,-z
1/2+x,y,1/2-z
1/2-x,1/2+y,z
1/2+x,-y,1/2+z
loop_
_atom_site_type_symbol
_atom_site_label
_atom_site_fract_x
_atom_site_fract_y
_atom_site_fract_z
Si Si1 0.886969 0.500000 0.000000
Si Si2 0.353266 0.744801 0.419477
Si Si3 0.250000 0.875752 0.750000
Si Si4 0.000000 0.721175 0.660890
Si Si5 0.500000 0.973980 0.795854
Si Si6 0.293221 0.500000 0.000000
O O1 0.845955 0.375259 0.005959
O O2 0.935402 0.492178 0.881741
O O3 0.312027 0.707098 0.295635
O O4 0.431627 0.758186 0.407630
O O5 0.329248 0.872608 0.469771
O O6 0.262743 0.962268 0.632774
O O7 0.000000 0.584249 0.703749
O O8 0.000000 0.836671 0.756450
#
# Coordination Sequence:
#
# PCOD9481439 Si02
#       6
#     8  16   8   8   8   8
#     4   9  21  42  67 100 147 194 242 306 393 449
#     4  11  26  46  75 112 150 206 254 329 384 470
#     4  12  28  52  76 116 162 210 264 326 398 464
#     4  10  24  41  72 110 147 193 252 322 390 462
#     4   9  20  38  66 100 145 193 230 311 384 457
#     4  12  29  49  83 113 153 213 270 326 387 477
#
# _framework density 23.280747000000002
#
# number of rings (size 3 to 8) (size 9 to 14) (size 15 to 20)
#    0.000    1.429    0.000    3.429   12.000    0.571 
#    0.000    0.000    0.000    0.000    0.000    0.000 
#    0.000    0.000    0.000    0.000    0.000    0.000 
#
# Total GULP energy -156101.260025 kJ/mol
# GULP energy per Si atom -5575.045001 kJ/mol
# Density = 2.322776 g / cm^3
# Si number density = 23.280747 Si / 1000 Ang^3
#
#
#
# Elastic Constant Matrix: (Units=GPa)
#
#
# Indices 1 2 3 4 5 6 
#
# 1 113.5669 49.2066 62.4138 0.0000 0.0000 0.0000
# 2 49.2066 204.0720 53.6340 0.0000 0.0000 0.0000
# 3 62.4138 53.6340 85.8084 0.0000 0.0000 0.0000
# 4 0.0000 0.0000 0.0000 53.5613 0.0000 0.0000
# 5 0.0000 0.0000 0.0000 0.0000 0.1253 0.0000
# 6 0.0000 0.0000 0.0000 0.0000 0.0000 79.9780
#
#
#
# Elastic Compliance Matrix: (Units=1/GPa)
#
#
# Indices 1 2 3 4 5 6 
#
# 1 0.014802 -0.000885 -0.010213 0.000000 0.000000 0.000000
# 2 -0.000885 0.005916 -0.003054 0.000000 0.000000 0.000000
# 3 -0.010213 -0.003054 0.020992 0.000000 0.000000 0.000000
# 4 0.000000 0.000000 0.000000 0.018670 0.000000 0.000000
# 5 0.000000 0.000000 0.000000 0.000000 7.983248 0.000000
# 6 0.000000 0.000000 0.000000 0.000000 0.000000 0.012503
#
#
# Mechanical properties :
#
#
# Convention : Reuss Voigt Hill
#
# Bulk Modulus (GPa) = 74.59915 81.55069 78.07492
# Shear Modulus (GPa) = 0.61813 42.61244 21.61529
#
# Velocity S-wave (km/s) = 0.51584 4.28293 3.05037
# Velocity P-wave (km/s) = 5.69804 7.71772 6.78347
#
# Compressibility (1/GPa) = 0.01340498
#
# Stress axis : x y z
#
# Youngs Moduli (GPa) = 67.55988 169.02358 47.63795
#
# Poissons Ratio (x) = 0.14956 0.48653
# Poissons Ratio (y) = 0.05978 0.14550
# Poissons Ratio (z) = 0.69000 0.51626
#
# Static dielectric constant tensor:
#      x y z
#    x 2.655000 0.000000 0.000000 
#    y 0.000000 1.957490 0.000000 
#    z 0.000000 0.000000 1.871540 
# 
# From -- ./inp_files/16757.got.cif
#   From: 2010.05.17/outbox.cif.g08.bks.cpg/sg64_9_cif.got.tgz:16757.got - 2010.06.03 16:29:19.
