data_PCOD9481241
_publ_section_title
;
Structure prediction by ZEFSAII (Michael W. Deem and Ramdas Pophale) SiO2 
 PCOD9481241
Probable space group: C M C A
;
_chemical_formula_sum "Si O2"
_cell_formula_units_Z 52
_cell_length_a 19.652092
_cell_length_b 5.345251
_cell_length_c 19.967012
_cell_angle_alpha 90.000000
_cell_angle_beta 90.000000
_cell_angle_gamma 90.000000
_cell_volume 2097.442052
_symmetry_space_group_name_H-M "C M C A"
_symmetry_group_IT_number 64
_symmetry_cell_setting 'orthorhombic'
loop_
_space_group_symop_operation_xyz
x,y,z
-x,1/2-y,1/2+z
x,-y,-z
-x,1/2+y,1/2-z
-x,-y,-z
x,1/2+y,1/2-z
-x,y,z
x,1/2-y,1/2+z
1/2+x,1/2+y,z
1/2-x,-y,1/2+z
1/2+x,1/2-y,-z
1/2-x,y,1/2-z
1/2-x,1/2-y,-z
1/2+x,y,1/2-z
1/2-x,1/2+y,z
1/2+x,-y,1/2+z
loop_
_atom_site_type_symbol
_atom_site_label
_atom_site_fract_x
_atom_site_fract_y
_atom_site_fract_z
Si Si1 0.673356 0.508754 0.779059
Si Si2 0.705113 0.500000 0.500000
Si Si3 0.389308 0.739745 0.398987
Si Si4 0.000000 0.373810 0.793481
Si Si5 0.500000 0.000000 0.500000
O O1 0.643427 0.239441 0.763178
O O2 0.750000 0.486145 0.750000
O O3 0.661594 0.582326 0.855996
O O4 0.750000 0.750000 0.500000
O O5 0.655446 0.464648 0.562966
O O6 0.437414 0.611584 0.344773
O O7 0.439404 0.884312 0.449901
O O8 0.000000 0.595992 0.739546
#
# Coordination Sequence:
#
# PCOD9481241 Si02
#       5
#    16   8  16   8   4
#     4  10  23  41  73 109 152 203 256 340 414 482
#     4  12  31  49  78 117 165 228 268 342 408 498
#     4  11  26  49  78 115 167 210 290 326 422 501
#     4  11  26  48  82 118 155 212 272 358 408 493
#     4  10  26  50  80 114 160 234 260 356 396 504
#
# _framework density 24.792103999999998
#
# number of rings (size 3 to 8) (size 9 to 14) (size 15 to 20)
#    0.000    1.231    0.000    2.769    8.615   12.308 
#    0.000    0.000    0.000    0.000    0.000    0.000 
#    0.000    0.000    0.000    0.000    0.000    0.000 
#
# Total GULP energy -144920.428072 kJ/mol
# GULP energy per Si atom -5573.862618 kJ/mol
# Density = 2.473568 g / cm^3
# Si number density = 24.792104 Si / 1000 Ang^3
#
#
#
# Elastic Constant Matrix: (Units=GPa)
#
#
# Indices 1 2 3 4 5 6 
#
# 1 158.9083 52.3707 87.3310 0.0000 0.0000 0.0000
# 2 52.3707 182.9800 84.4202 0.0000 0.0000 0.0000
# 3 87.3310 84.4202 159.3933 0.0000 0.0000 0.0000
# 4 0.0000 0.0000 0.0000 61.4847 0.0000 0.0000
# 5 0.0000 0.0000 0.0000 0.0000 59.7814 0.0000
# 6 0.0000 0.0000 0.0000 0.0000 0.0000 33.8139
#
#
#
# Elastic Compliance Matrix: (Units=1/GPa)
#
#
# Indices 1 2 3 4 5 6 
#
# 1 0.009026 -0.000399 -0.004734 0.000000 0.000000 0.000000
# 2 -0.000399 0.007250 -0.003621 0.000000 0.000000 0.000000
# 3 -0.004734 -0.003621 0.010785 0.000000 0.000000 0.000000
# 4 0.000000 0.000000 0.000000 0.016264 0.000000 0.000000
# 5 0.000000 0.000000 0.000000 0.000000 0.016728 0.000000
# 6 0.000000 0.000000 0.000000 0.000000 0.000000 0.029574
#
#
# Mechanical properties :
#
#
# Convention : Reuss Voigt Hill
#
# Bulk Modulus (GPa) = 104.68037 105.50282 105.09160
# Shear Modulus (GPa) = 45.32279 49.49330 47.40805
#
# Velocity S-wave (km/s) = 4.28028 4.47288 4.37764
# Velocity P-wave (km/s) = 8.16962 8.32604 8.24820
#
# Compressibility (1/GPa) = 0.00955289
#
# Stress axis : x y z
#
# Youngs Moduli (GPa) = 110.78932 137.93113 92.71874
#
# Poissons Ratio (x) = 0.05508 0.43892
# Poissons Ratio (y) = 0.04424 0.33574
# Poissons Ratio (z) = 0.52446 0.49946
#
# Static dielectric constant tensor:
#      x y z
#    x 1.782050 0.000000 0.000000 
#    y 0.000000 1.979780 0.000000 
#    z 0.000000 0.000000 2.016190 
# 
# From -- ./inp_files/40645.got.cif
#   From: 2010.05.17/outbox.cif.g08.bks.cpg/sg64_21_cif.got.tgz:40645.got - 2010.06.03 16:29:19.
