data_PCOD9481966
_publ_section_title
;
Structure prediction by ZEFSAII (Michael W. Deem and Ramdas Pophale) SiO2 
 PCOD9481966
Probable space group: C M C A
;
_chemical_formula_sum "Si O2"
_cell_formula_units_Z 112
_cell_length_a 15.360587
_cell_length_b 24.609092
_cell_length_c 13.941278
_cell_angle_alpha 90.000000
_cell_angle_beta 90.000000
_cell_angle_gamma 90.000000
_cell_volume 5269.943872
_symmetry_space_group_name_H-M "C M C A"
_symmetry_group_IT_number 64
_symmetry_cell_setting 'orthorhombic'
loop_
_space_group_symop_operation_xyz
x,y,z
-x,1/2-y,1/2+z
x,-y,-z
-x,1/2+y,1/2-z
-x,-y,-z
x,1/2+y,1/2-z
-x,y,z
x,1/2-y,1/2+z
1/2+x,1/2+y,z
1/2-x,-y,1/2+z
1/2+x,1/2-y,-z
1/2-x,y,1/2-z
1/2-x,1/2-y,-z
1/2+x,y,1/2-z
1/2-x,1/2+y,z
1/2+x,-y,1/2+z
loop_
_atom_site_type_symbol
_atom_site_label
_atom_site_fract_x
_atom_site_fract_y
_atom_site_fract_z
Si Si1 0.213386 0.481190 0.395080
Si Si2 0.847720 0.738930 0.792106
Si Si3 0.720262 0.127736 0.507943
Si Si4 0.160157 0.044993 0.278774
Si Si5 0.405714 0.713296 0.905611
Si Si6 0.401476 0.363531 0.829647
Si Si7 0.399833 0.176394 0.987188
O O1 0.185028 0.500000 0.500000
O O2 0.216677 0.416949 0.408109
O O3 0.152458 0.500849 0.307762
O O4 0.307253 0.509843 0.369719
O O5 0.750000 0.736536 0.750000
O O6 0.902038 0.710935 0.708044
O O7 0.872160 0.802281 0.805547
O O8 0.868521 0.706580 0.889433
O O9 0.673844 0.181830 0.546716
O O10 0.662486 0.114630 0.413986
O O11 0.822141 0.135633 0.485453
O O12 0.250000 0.074882 0.250000
O O13 0.096813 0.094673 0.260960
O O14 0.500000 0.693065 0.939969
O O15 0.399526 0.776147 0.934142
O O16 0.500000 0.361318 0.865657
O O17 0.500000 0.156468 0.977774
#
# Coordination Sequence:
#
# PCOD9481966 Si02
#       7
#    16  16  16  16  16  16  16
#     4   9  19  38  64  89 121 162 219 274 325 394
#     4  12  23  39  63  92 132 180 216 266 326 388
#     4  12  21  40  67  93 123 179 220 265 341 383
#     4   8  20  39  61  88 119 168 207 272 330 380
#     4  11  23  39  60  95 134 170 216 267 322 398
#     4  12  23  39  67 101 133 170 225 276 324 399
#     4  11  24  42  60  94 138 169 220 273 319 395
#
# _framework density 21.252600000000001
#
# number of rings (size 3 to 8) (size 9 to 14) (size 15 to 20)
#    0.857    0.286    4.286    3.429    0.000    3.429 
#    0.000    2.857    0.000    0.857    0.000    0.000 
#    0.000    0.000    0.000    0.000    0.000    0.000 
#
# Total GULP energy -311765.412702 kJ/mol
# GULP energy per Si atom -5567.239513 kJ/mol
# Density = 2.120423 g / cm^3
# Si number density = 21.252600 Si / 1000 Ang^3
#
#
#
# Elastic Constant Matrix: (Units=GPa)
#
#
# Indices 1 2 3 4 5 6 
#
# 1 133.6654 14.5412 -7.0122 0.0000 0.0000 0.0000
# 2 14.5412 15.7539 -19.3192 0.0000 0.0000 0.0000
# 3 -7.0122 -19.3192 39.7404 0.0000 0.0000 0.0000
# 4 0.0000 0.0000 0.0000 27.2199 0.0000 0.0000
# 5 0.0000 0.0000 0.0000 0.0000 20.7858 0.0000
# 6 0.0000 0.0000 0.0000 0.0000 0.0000 -10.0209
#
#
#
# Elastic Compliance Matrix: (Units=1/GPa)
#
#
# Indices 1 2 3 4 5 6 
#
# 1 0.008854 -0.015492 -0.005969 0.000000 0.000000 0.000000
# 2 -0.015492 0.184287 0.086855 0.000000 0.000000 0.000000
# 3 -0.005969 0.086855 0.066333 0.000000 0.000000 0.000000
# 4 0.000000 0.000000 0.000000 0.036738 0.000000 0.000000
# 5 0.000000 0.000000 0.000000 0.000000 0.048110 0.000000
# 6 0.000000 0.000000 0.000000 0.000000 0.000000 -0.099792
#
#
# Mechanical properties :
#
#
# Convention : Reuss Voigt Hill
#
# Bulk Modulus (GPa) = 2.56238 18.39771 10.48004
# Shear Modulus (GPa) = 20.50626 20.99365 20.74995
#
# Velocity S-wave (km/s) = 3.10963 3.14636 3.12805
# Velocity P-wave (km/s) = 3.75517 4.67707 4.24124
#
# Compressibility (1/GPa) = 0.39026162
#
# Stress axis : x y z
#
# Youngs Moduli (GPa) = 112.94896 5.42633 15.07540
#
# Poissons Ratio (x) = 0.08406 0.08998
# Poissons Ratio (y) = 1.74978 -1.30937
# Poissons Ratio (z) = 0.67418 -0.47130
#
# Static dielectric constant tensor:
#      x y z
#    x 1.840590 0.000000 0.000000 
#    y 0.000000 1.793850 0.000000 
#    z 0.000000 0.000000 1.839130 
# 
# From -- ./inp_files/24258.got.cif
#   From: 2010.05.17/outbox.cif.g08.bks.cpg/sg64_13_cif.got.tgz:24258.got - 2010.06.03 16:29:19.
