data_PCOD9481292
_publ_section_title
;
Structure prediction by ZEFSAII (Michael W. Deem and Ramdas Pophale) SiO2 
 PCOD9481292
Probable space group: C M C A
;
_chemical_formula_sum "Si O2"
_cell_formula_units_Z 56
_cell_length_a 14.752663
_cell_length_b 27.980459
_cell_length_c 5.590181
_cell_angle_alpha 90.000000
_cell_angle_beta 90.000000
_cell_angle_gamma 90.000000
_cell_volume 2307.550032
_symmetry_space_group_name_H-M "C M C A"
_symmetry_group_IT_number 64
_symmetry_cell_setting 'orthorhombic'
loop_
_space_group_symop_operation_xyz
x,y,z
-x,1/2-y,1/2+z
x,-y,-z
-x,1/2+y,1/2-z
-x,-y,-z
x,1/2+y,1/2-z
-x,y,z
x,1/2-y,1/2+z
1/2+x,1/2+y,z
1/2-x,-y,1/2+z
1/2+x,1/2-y,-z
1/2-x,y,1/2-z
1/2-x,1/2-y,-z
1/2+x,y,1/2-z
1/2-x,1/2+y,z
1/2+x,-y,1/2+z
loop_
_atom_site_type_symbol
_atom_site_label
_atom_site_fract_x
_atom_site_fract_y
_atom_site_fract_z
Si Si1 0.641293 0.226957 0.285550
Si Si2 0.600698 0.867067 0.911036
Si Si3 0.103989 0.556252 0.458534
Si Si4 0.750000 0.115485 0.750000
O O1 0.608811 0.252077 0.529261
O O2 0.750000 0.229876 0.250000
O O3 0.610576 0.171700 0.298354
O O4 0.500000 0.863182 0.013565
O O5 0.612648 0.920712 0.806833
O O6 0.683512 0.854802 0.083137
O O7 0.115031 0.500000 0.500000
O O8 0.180837 0.582608 0.605591
O O9 0.000000 0.567662 0.530461
#
# Coordination Sequence:
#
# PCOD9481292 Si02
#       4
#    16  16  16   8
#     4  10  23  42  72 106 143 191 246 307 368 439
#     4  11  26  45  68 103 144 190 243 301 366 442
#     4  10  24  44  68 101 139 179 232 293 359 435
#     4  12  24  40  72  98 136 186 232 296 358 434
#
# _framework density 24.268160999999999
#
# number of rings (size 3 to 8) (size 9 to 14) (size 15 to 20)
#    0.000    1.429    0.000    3.429   14.000    1.143 
#    0.000    4.286    0.000    0.000    0.000    0.000 
#    0.000    0.000    0.000    0.000    0.000    0.000 
#
# Total GULP energy -156578.078895 kJ/mol
# GULP energy per Si atom -5592.074246 kJ/mol
# Density = 2.421293 g / cm^3
# Si number density = 24.268161 Si / 1000 Ang^3
#
#
#
# Elastic Constant Matrix: (Units=GPa)
#
#
# Indices 1 2 3 4 5 6 
#
# 1 141.4252 21.0591 50.5018 0.0000 0.0000 0.0000
# 2 21.0591 103.1504 40.6659 0.0000 0.0000 0.0000
# 3 50.5018 40.6659 101.1846 0.0000 0.0000 0.0000
# 4 0.0000 0.0000 0.0000 23.7785 0.0000 0.0000
# 5 0.0000 0.0000 0.0000 0.0000 59.8801 0.0000
# 6 0.0000 0.0000 0.0000 0.0000 0.0000 81.8335
#
#
#
# Elastic Compliance Matrix: (Units=1/GPa)
#
#
# Indices 1 2 3 4 5 6 
#
# 1 0.008605 -0.000076 -0.004264 0.000000 0.000000 0.000000
# 2 -0.000076 0.011520 -0.004592 0.000000 0.000000 0.000000
# 3 -0.004264 -0.004592 0.013857 0.000000 0.000000 0.000000
# 4 0.000000 0.000000 0.000000 0.042055 0.000000 0.000000
# 5 0.000000 0.000000 0.000000 0.000000 0.016700 0.000000
# 6 0.000000 0.000000 0.000000 0.000000 0.000000 0.012220
#
#
# Mechanical properties :
#
#
# Convention : Reuss Voigt Hill
#
# Bulk Modulus (GPa) = 62.04342 63.35709 62.70026
# Shear Modulus (GPa) = 39.00328 48.66732 43.83530
#
# Velocity S-wave (km/s) = 4.01331 4.48303 4.25466
# Velocity P-wave (km/s) = 6.86271 7.27739 7.07309
#
# Compressibility (1/GPa) = 0.01611774
#
# Stress axis : x y z
#
# Youngs Moduli (GPa) = 116.21283 86.80181 72.16590
#
# Poissons Ratio (x) = 0.00656 0.30774
# Poissons Ratio (y) = 0.00878 0.33141
# Poissons Ratio (z) = 0.49558 0.39862
#
# Static dielectric constant tensor:
#      x y z
#    x 1.888140 0.000000 0.000000 
#    y 0.000000 1.886590 0.000000 
#    z 0.000000 0.000000 2.021780 
# 
# From -- ./inp_files/891.got.cif
#   From: 2010.05.17/outbox.cif.g08.bks.cpg/sg64_1_cif.got.tgz:891.got - 2010.06.03 16:29:19.
