data_PCOD9481897
_publ_section_title
;
Structure prediction by ZEFSAII (Michael W. Deem and Ramdas Pophale) SiO2 
 PCOD9481897
Probable space group: C M C A
;
_chemical_formula_sum "Si O2"
_cell_formula_units_Z 72
_cell_length_a 19.944816
_cell_length_b 13.473037
_cell_length_c 13.289191
_cell_angle_alpha 90.000000
_cell_angle_beta 90.000000
_cell_angle_gamma 90.000000
_cell_volume 3571.034780
_symmetry_space_group_name_H-M "C M C A"
_symmetry_group_IT_number 64
_symmetry_cell_setting 'orthorhombic'
loop_
_space_group_symop_operation_xyz
x,y,z
-x,1/2-y,1/2+z
x,-y,-z
-x,1/2+y,1/2-z
-x,-y,-z
x,1/2+y,1/2-z
-x,y,z
x,1/2-y,1/2+z
1/2+x,1/2+y,z
1/2-x,-y,1/2+z
1/2+x,1/2-y,-z
1/2-x,y,1/2-z
1/2-x,1/2-y,-z
1/2+x,y,1/2-z
1/2-x,1/2+y,z
1/2+x,-y,1/2+z
loop_
_atom_site_type_symbol
_atom_site_label
_atom_site_fract_x
_atom_site_fract_y
_atom_site_fract_z
Si Si1 0.678888 0.810289 0.708579
Si Si2 0.770314 0.403953 0.139559
Si Si3 0.636994 0.608472 0.000297
Si Si4 0.875816 0.500000 0.000000
Si Si5 0.923071 0.698752 0.104165
O O1 0.750000 0.845308 0.750000
O O2 0.696222 0.703375 0.659177
O O3 0.654203 0.874690 0.616390
O O4 0.626604 0.804190 0.799958
O O5 0.750000 0.438031 0.250000
O O6 0.705910 0.395619 0.066110
O O7 0.826419 0.471509 0.090540
O O8 0.596064 0.702184 0.958193
O O9 0.603718 0.500000 0.000000
O O10 0.913865 0.400836 0.963565
O O11 0.000000 0.704142 0.137293
#
# Coordination Sequence:
#
# PCOD9481897 Si02
#       5
#    16  16  16   8  16
#     4  11  23  44  72 102 142 182 235 291 347 410
#     4  11  22  40  73 109 137 176 232 299 349 407
#     4  12  25  43  71 106 141 183 228 292 356 410
#     4  12  25  44  74 102 141 184 238 296 347 410
#     4  12  28  48  69 102 143 190 236 282 351 425
#
# _framework density 20.162223000000001
#
# number of rings (size 3 to 8) (size 9 to 14) (size 15 to 20)
#    0.000    0.444    7.778    2.333    3.111    1.333 
#    0.000    2.222    0.000    0.000    0.000    0.000 
#    0.000    0.000    0.000    0.000    0.000    0.000 
#
# Total GULP energy -201251.017004 kJ/mol
# GULP energy per Si atom -5590.306028 kJ/mol
# Density = 2.011633 g / cm^3
# Si number density = 20.162223 Si / 1000 Ang^3
#
#
#
# Elastic Constant Matrix: (Units=GPa)
#
#
# Indices 1 2 3 4 5 6 
#
# 1 79.1638 20.0036 3.7025 0.0000 0.0000 0.0000
# 2 20.0036 156.3585 26.2402 0.0000 0.0000 0.0000
# 3 3.7025 26.2402 97.1695 0.0000 0.0000 0.0000
# 4 0.0000 0.0000 0.0000 32.2343 0.0000 0.0000
# 5 0.0000 0.0000 0.0000 0.0000 1.8251 0.0000
# 6 0.0000 0.0000 0.0000 0.0000 0.0000 2.4514
#
#
#
# Elastic Compliance Matrix: (Units=1/GPa)
#
#
# Indices 1 2 3 4 5 6 
#
# 1 0.013054 -0.001662 -0.000049 0.000000 0.000000 0.000000
# 2 -0.001662 0.006911 -0.001803 0.000000 0.000000 0.000000
# 3 -0.000049 -0.001803 0.010780 0.000000 0.000000 0.000000
# 4 0.000000 0.000000 0.000000 0.031023 0.000000 0.000000
# 5 0.000000 0.000000 0.000000 0.000000 0.547909 0.000000
# 6 0.000000 0.000000 0.000000 0.000000 0.000000 0.407930
#
#
# Mechanical properties :
#
#
# Convention : Reuss Voigt Hill
#
# Bulk Modulus (GPa) = 42.16181 48.06492 45.11336
# Shear Modulus (GPa) = 4.84243 26.15187 15.49715
#
# Velocity S-wave (km/s) = 1.55143 3.60540 2.77541
# Velocity P-wave (km/s) = 4.91589 6.42049 5.71790
#
# Compressibility (1/GPa) = 0.02371815
#
# Stress axis : x y z
#
# Youngs Moduli (GPa) = 76.60339 144.70238 92.76431
#
# Poissons Ratio (x) = 0.24048 0.00451
# Poissons Ratio (y) = 0.12731 0.16724
# Poissons Ratio (z) = 0.00372 0.26088
#
# Static dielectric constant tensor:
#      x y z
#    x 1.701480 0.000000 0.000000 
#    y 0.000000 1.848280 0.000000 
#    z 0.000000 0.000000 1.699370 
# 
# From -- ./inp_files/25148.got.cif
#   From: 2010.05.17/outbox.cif.g08.bks.cpg/sg64_13_cif.got.tgz:25148.got - 2010.06.03 16:29:19.
