data_PCOD9481303
_publ_section_title
;
Structure prediction by ZEFSAII (Michael W. Deem and Ramdas Pophale) SiO2 
 PCOD9481303
Probable space group: C M C A
;
_chemical_formula_sum "Si O2"
_cell_formula_units_Z 88
_cell_length_a 15.480510
_cell_length_b 8.566195
_cell_length_c 30.909540
_cell_angle_alpha 90.000000
_cell_angle_beta 90.000000
_cell_angle_gamma 90.000000
_cell_volume 4098.885272
_symmetry_space_group_name_H-M "C M C A"
_symmetry_group_IT_number 64
_symmetry_cell_setting 'orthorhombic'
loop_
_space_group_symop_operation_xyz
x,y,z
-x,1/2-y,1/2+z
x,-y,-z
-x,1/2+y,1/2-z
-x,-y,-z
x,1/2+y,1/2-z
-x,y,z
x,1/2-y,1/2+z
1/2+x,1/2+y,z
1/2-x,-y,1/2+z
1/2+x,1/2-y,-z
1/2-x,y,1/2-z
1/2-x,1/2-y,-z
1/2+x,y,1/2-z
1/2-x,1/2+y,z
1/2+x,-y,1/2+z
loop_
_atom_site_type_symbol
_atom_site_label
_atom_site_fract_x
_atom_site_fract_y
_atom_site_fract_z
Si Si1 0.098615 0.327786 0.220463
Si Si2 0.284148 0.786354 0.647024
Si Si3 0.735967 0.550708 0.915295
Si Si4 0.656774 0.500000 0.500000
Si Si5 0.903067 0.331925 0.475117
Si Si6 0.400412 0.184228 0.188080
O O1 0.164457 0.229275 0.191344
O O2 0.112311 0.300068 0.271211
O O3 0.106620 0.508829 0.207433
O O4 0.000000 0.277759 0.211156
O O5 0.300718 0.637538 0.616874
O O6 0.181349 0.791995 0.656924
O O7 0.309054 0.927261 0.615885
O O8 0.786276 0.487551 0.956789
O O9 0.665475 0.662449 0.936710
O O10 0.610427 0.329686 0.498111
O O11 0.893318 0.500000 0.500000
O O12 0.000000 0.328503 0.458267
O O13 0.500000 0.202619 0.171815
#
# Coordination Sequence:
#
# PCOD9481303 Si02
#       6
#    16  16  16   8  16  16
#     4  10  23  43  66  94 130 174 216 266 329 398
#     4  12  24  40  66 100 128 175 218 276 329 396
#     4  12  24  42  67  93 131 174 222 271 338 397
#     4  12  23  48  69  92 134 184 222 276 347 418
#     4  11  24  43  68  98 128 169 228 281 334 402
#     4  10  23  43  65  93 133 173 216 267 328 400
#
# _framework density 21.469252000000001
#
# number of rings (size 3 to 8) (size 9 to 14) (size 15 to 20)
#    0.000    0.909    4.545    2.455    2.545    2.909 
#    0.000    1.818    0.000    0.000    0.000    0.000 
#    0.000    0.000    0.000    0.000    0.000    0.000 
#
# Total GULP energy -245474.520057 kJ/mol
# GULP energy per Si atom -5578.966365 kJ/mol
# Density = 2.142039 g / cm^3
# Si number density = 21.469252 Si / 1000 Ang^3
#
#
#
# Elastic Constant Matrix: (Units=GPa)
#
#
# Indices 1 2 3 4 5 6 
#
# 1 80.5287 15.3859 35.2507 0.0000 0.0000 0.0000
# 2 15.3859 85.4316 14.9364 0.0000 0.0000 0.0000
# 3 35.2507 14.9364 64.3895 0.0000 0.0000 0.0000
# 4 0.0000 0.0000 0.0000 35.5126 0.0000 0.0000
# 5 0.0000 0.0000 0.0000 0.0000 -1.5714 0.0000
# 6 0.0000 0.0000 0.0000 0.0000 0.0000 23.3099
#
#
#
# Elastic Compliance Matrix: (Units=1/GPa)
#
#
# Indices 1 2 3 4 5 6 
#
# 1 0.016503 -0.001451 -0.008698 0.000000 0.000000 0.000000
# 2 -0.001451 0.012328 -0.002065 0.000000 0.000000 0.000000
# 3 -0.008698 -0.002065 0.020771 0.000000 0.000000 0.000000
# 4 0.000000 0.000000 0.000000 0.028159 0.000000 0.000000
# 5 0.000000 0.000000 0.000000 0.000000 -0.636389 0.000000
# 6 0.000000 0.000000 0.000000 0.000000 0.000000 0.042900
#
#
# Mechanical properties :
#
#
# Convention : Reuss Voigt Hill
#
# Bulk Modulus (GPa) = 39.72517 40.16620 39.94568
# Shear Modulus (GPa) = -10.35393 22.43534 6.04071
#
# Velocity S-wave (km/s) = -2.19844 3.23615 1.67922
# Velocity P-wave (km/s) = 3.47840 5.71952 4.73351
#
# Compressibility (1/GPa) = 0.02517296
#
# Stress axis : x y z
#
# Youngs Moduli (GPa) = 60.59637 81.11805 48.14349
#
# Poissons Ratio (x) = 0.11773 0.41875
# Poissons Ratio (y) = 0.08795 0.09942
# Poissons Ratio (z) = 0.52706 0.16752
#
# Static dielectric constant tensor:
#      x y z
#    x 1.777730 0.000000 0.000000 
#    y 0.000000 1.922090 0.000000 
#    z 0.000000 0.000000 1.761710 
# 
# From -- ./inp_files/53553.got.cif
#   From: 2010.05.17/outbox.cif.g08.bks.cpg/sg64_27_cif.got.tgz:53553.got - 2010.06.03 16:29:19.
