data_PCOD9481888
_publ_section_title
;
Structure prediction by ZEFSAII (Michael W. Deem and Ramdas Pophale) SiO2 
 PCOD9481888
Probable space group: C M C A
;
_chemical_formula_sum "Si O2"
_cell_formula_units_Z 96
_cell_length_a 27.215804
_cell_length_b 8.199366
_cell_length_c 18.775131
_cell_angle_alpha 90.000000
_cell_angle_beta 90.000000
_cell_angle_gamma 90.000000
_cell_volume 4189.714379
_symmetry_space_group_name_H-M "C M C A"
_symmetry_group_IT_number 64
_symmetry_cell_setting 'orthorhombic'
loop_
_space_group_symop_operation_xyz
x,y,z
-x,1/2-y,1/2+z
x,-y,-z
-x,1/2+y,1/2-z
-x,-y,-z
x,1/2+y,1/2-z
-x,y,z
x,1/2-y,1/2+z
1/2+x,1/2+y,z
1/2-x,-y,1/2+z
1/2+x,1/2-y,-z
1/2-x,y,1/2-z
1/2-x,1/2-y,-z
1/2+x,y,1/2-z
1/2-x,1/2+y,z
1/2+x,-y,1/2+z
loop_
_atom_site_type_symbol
_atom_site_label
_atom_site_fract_x
_atom_site_fract_y
_atom_site_fract_z
Si Si1 0.555744 0.749931 0.516300
Si Si2 0.197966 0.055547 0.830948
Si Si3 0.903395 0.070777 0.143425
Si Si4 0.057301 0.238152 0.768554
Si Si5 0.805185 0.945152 0.666025
Si Si6 0.591959 0.550954 0.395053
O O1 0.500000 0.765639 0.490770
O O2 0.570045 0.895046 0.569163
O O3 0.590110 0.704017 0.449916
O O4 0.561620 0.591011 0.567167
O O5 0.192801 0.249419 0.834371
O O6 0.153588 0.964487 0.869343
O O7 0.191902 0.004908 0.747854
O O8 0.251594 0.004166 0.857958
O O9 0.911905 0.221681 0.197841
O O10 0.925645 0.919388 0.187472
O O11 0.067355 0.387089 0.822808
O O12 0.000000 0.228304 0.750534
O O13 0.852171 0.000807 0.620981
#
# Coordination Sequence:
#
# PCOD9481888 Si02
#       6
#    16  16  16  16  16  16
#     4  11  25  44  67  93 132 184 223 266 329 395
#     4  11  22  40  65 101 128 167 214 271 334 393
#     4  12  24  41  64  96 133 168 217 277 329 390
#     4  12  23  39  64  97 131 168 218 272 326 387
#     4  11  23  40  69  97 131 170 214 272 335 393
#     4  11  23  43  66  93 129 172 223 268 324 390
#
# _framework density 22.913257000000002
#
# number of rings (size 3 to 8) (size 9 to 14) (size 15 to 20)
#    0.000    0.667    3.333    6.500    4.667    0.667 
#    0.000    2.500    0.000    0.000    0.000    0.000 
#    0.000    0.000    0.000    0.000    0.000    0.000 
#
# Total GULP energy -268889.860383 kJ/mol
# GULP energy per Si atom -5601.872091 kJ/mol
# Density = 2.286111 g / cm^3
# Si number density = 22.913257 Si / 1000 Ang^3
#
#
#
# Elastic Constant Matrix: (Units=GPa)
#
#
# Indices 1 2 3 4 5 6 
#
# 1 141.0129 9.9330 8.4449 0.0000 0.0000 0.0000
# 2 9.9330 69.6198 6.9648 0.0000 0.0000 0.0000
# 3 8.4449 6.9648 76.7297 0.0000 0.0000 0.0000
# 4 0.0000 0.0000 0.0000 31.7495 0.0000 0.0000
# 5 0.0000 0.0000 0.0000 0.0000 31.6844 0.0000
# 6 0.0000 0.0000 0.0000 0.0000 0.0000 35.0904
#
#
#
# Elastic Compliance Matrix: (Units=1/GPa)
#
#
# Indices 1 2 3 4 5 6 
#
# 1 0.007201 -0.000957 -0.000706 0.000000 0.000000 0.000000
# 2 -0.000957 0.014622 -0.001222 0.000000 0.000000 0.000000
# 3 -0.000706 -0.001222 0.013221 0.000000 0.000000 0.000000
# 4 0.000000 0.000000 0.000000 0.031497 0.000000 0.000000
# 5 0.000000 0.000000 0.000000 0.000000 0.031561 0.000000
# 6 0.000000 0.000000 0.000000 0.000000 0.000000 0.028498
#
#
# Mechanical properties :
#
#
# Convention : Reuss Voigt Hill
#
# Bulk Modulus (GPa) = 34.15767 37.56086 35.85926
# Shear Modulus (GPa) = 35.17946 37.17285 36.17616
#
# Velocity S-wave (km/s) = 3.92258 4.03218 3.97776
# Velocity P-wave (km/s) = 5.95443 6.17303 6.06471
#
# Compressibility (1/GPa) = 0.02927601
#
# Stress axis : x y z
#
# Youngs Moduli (GPa) = 138.86549 68.38780 75.63524
#
# Poissons Ratio (x) = 0.06544 0.05338
# Poissons Ratio (y) = 0.13287 0.09242
# Poissons Ratio (z) = 0.09800 0.08357
#
# Static dielectric constant tensor:
#      x y z
#    x 1.826090 0.000000 0.000000 
#    y 0.000000 1.953320 0.000000 
#    z 0.000000 0.000000 1.837140 
# 
# From -- ./inp_files/41813.got.cif
#   From: 2010.05.17/outbox.cif.g08.bks.cpg/sg64_21_cif.got.tgz:41813.got - 2010.06.03 16:29:19.
