data_PCOD9481188
_publ_section_title
;
Structure prediction by ZEFSAII (Michael W. Deem and Ramdas Pophale) SiO2 
 PCOD9481188
Probable space group: C M C A
;
_chemical_formula_sum "Si O2"
_cell_formula_units_Z 104
_cell_length_a 22.240941
_cell_length_b 25.719336
_cell_length_c 9.236653
_cell_angle_alpha 90.000000
_cell_angle_beta 90.000000
_cell_angle_gamma 90.000000
_cell_volume 5283.570889
_symmetry_space_group_name_H-M "C M C A"
_symmetry_group_IT_number 64
_symmetry_cell_setting 'orthorhombic'
loop_
_space_group_symop_operation_xyz
x,y,z
-x,1/2-y,1/2+z
x,-y,-z
-x,1/2+y,1/2-z
-x,-y,-z
x,1/2+y,1/2-z
-x,y,z
x,1/2-y,1/2+z
1/2+x,1/2+y,z
1/2-x,-y,1/2+z
1/2+x,1/2-y,-z
1/2-x,y,1/2-z
1/2-x,1/2-y,-z
1/2+x,y,1/2-z
1/2-x,1/2+y,z
1/2+x,-y,1/2+z
loop_
_atom_site_type_symbol
_atom_site_label
_atom_site_fract_x
_atom_site_fract_y
_atom_site_fract_z
Si Si1 0.665436 0.425525 0.966809
Si Si2 0.750000 0.488959 0.750000
Si Si3 0.070867 0.365580 0.065285
Si Si4 0.166899 0.219129 0.629464
Si Si5 0.569293 0.569824 0.273608
Si Si6 0.797878 0.811791 0.047237
Si Si7 0.368601 0.461720 0.276425
O O1 0.716045 0.453663 0.868613
O O2 0.611330 0.413952 0.857773
O O3 0.689887 0.372262 0.032234
O O4 0.639410 0.457023 0.103290
O O5 0.699468 0.525104 0.675617
O O6 0.108035 0.312473 0.082414
O O7 0.102672 0.409219 0.164971
O O8 0.000000 0.359969 0.099838
O O9 0.075728 0.390267 0.905523
O O10 0.170355 0.278930 0.579938
O O11 0.177827 0.210301 0.799865
O O12 0.225994 0.196035 0.549185
O O13 0.500000 0.566952 0.231509
O O14 0.591678 0.511868 0.316529
#
# Coordination Sequence:
#
# PCOD9481188 Si02
#       7
#    16   8  16  16  16  16  16
#     4  11  24  40  62  97 128 166 216 260 330 375
#     4  10  24  34  60  96 134 164 204 262 318 380
#     4  11  24  42  65  93 128 174 216 264 321 380
#     4  10  23  43  67  94 127 156 213 264 322 388
#     4  10  23  40  59  89 130 173 213 258 310 384
#     4  10  23  42  69  97 120 164 203 270 327 379
#     4  11  23  40  62  92 128 170 220 259 313 378
#
# _framework density 19.683658000000001
#
# number of rings (size 3 to 8) (size 9 to 14) (size 15 to 20)
#    0.000    1.538    1.538    2.769    8.615    6.769 
#    0.000    1.538    0.000    0.000    0.000    0.000 
#    0.000    0.000    0.000    0.000    0.000    0.000 
#
# Total GULP energy -290479.570123 kJ/mol
# GULP energy per Si atom -5586.145579 kJ/mol
# Density = 1.963886 g / cm^3
# Si number density = 19.683658 Si / 1000 Ang^3
#
#
#
# Elastic Constant Matrix: (Units=GPa)
#
#
# Indices 1 2 3 4 5 6 
#
# 1 133.0293 24.1172 43.5602 0.0000 0.0000 0.0000
# 2 24.1172 56.1263 11.4534 0.0000 0.0000 0.0000
# 3 43.5602 11.4534 78.3932 0.0000 0.0000 0.0000
# 4 0.0000 0.0000 0.0000 26.5784 0.0000 0.0000
# 5 0.0000 0.0000 0.0000 0.0000 24.4860 0.0000
# 6 0.0000 0.0000 0.0000 0.0000 0.0000 17.7830
#
#
#
# Elastic Compliance Matrix: (Units=1/GPa)
#
#
# Indices 1 2 3 4 5 6 
#
# 1 0.009705 -0.003164 -0.004931 0.000000 0.000000 0.000000
# 2 -0.003164 0.019396 -0.001076 0.000000 0.000000 0.000000
# 3 -0.004931 -0.001076 0.015653 0.000000 0.000000 0.000000
# 4 0.000000 0.000000 0.000000 0.037625 0.000000 0.000000
# 5 0.000000 0.000000 0.000000 0.000000 0.040840 0.000000
# 6 0.000000 0.000000 0.000000 0.000000 0.000000 0.056233
#
#
# Mechanical properties :
#
#
# Convention : Reuss Voigt Hill
#
# Bulk Modulus (GPa) = 37.85905 47.31229 42.58567
# Shear Modulus (GPa) = 24.20167 26.33069 25.26618
#
# Velocity S-wave (km/s) = 3.51027 3.66142 3.58664
# Velocity P-wave (km/s) = 5.97535 6.47790 6.23169
#
# Compressibility (1/GPa) = 0.02641377
#
# Stress axis : x y z
#
# Youngs Moduli (GPa) = 103.03660 51.55682 63.88514
#
# Poissons Ratio (x) = 0.16313 0.31499
# Poissons Ratio (y) = 0.32602 0.06872
# Poissons Ratio (z) = 0.50803 0.05545
#
# Static dielectric constant tensor:
#      x y z
#    x 1.673240 0.000000 0.000000 
#    y 0.000000 1.703570 0.000000 
#    z 0.000000 0.000000 1.706350 
# 
# From -- ./inp_files/8487.got.cif
#   From: 2010.05.17/outbox.cif.g08.bks.cpg/sg64_5_cif.got.tgz:8487.got - 2010.06.03 16:29:19.
