data_PCOD9481322
_publ_section_title
;
Structure prediction by ZEFSAII (Michael W. Deem and Ramdas Pophale) SiO2 
 PCOD9481322
Probable space group: C M C A
;
_chemical_formula_sum "Si O2"
_cell_formula_units_Z 96
_cell_length_a 15.179281
_cell_length_b 20.092805
_cell_length_c 14.739710
_cell_angle_alpha 90.000000
_cell_angle_beta 90.000000
_cell_angle_gamma 90.000000
_cell_volume 4495.528023
_symmetry_space_group_name_H-M "C M C A"
_symmetry_group_IT_number 64
_symmetry_cell_setting 'orthorhombic'
loop_
_space_group_symop_operation_xyz
x,y,z
-x,1/2-y,1/2+z
x,-y,-z
-x,1/2+y,1/2-z
-x,-y,-z
x,1/2+y,1/2-z
-x,y,z
x,1/2-y,1/2+z
1/2+x,1/2+y,z
1/2-x,-y,1/2+z
1/2+x,1/2-y,-z
1/2-x,y,1/2-z
1/2-x,1/2-y,-z
1/2+x,y,1/2-z
1/2-x,1/2+y,z
1/2+x,-y,1/2+z
loop_
_atom_site_type_symbol
_atom_site_label
_atom_site_fract_x
_atom_site_fract_y
_atom_site_fract_z
Si Si1 0.000000 0.927008 0.402701
Si Si2 0.694163 0.191024 0.543730
Si Si3 0.604727 0.255142 0.217638
Si Si4 0.647303 0.607230 0.246312
Si Si5 0.897779 0.432220 0.549805
Si Si6 0.682013 0.618090 0.681184
Si Si7 0.500000 0.417163 0.603814
O O1 0.090776 0.913597 0.349733
O O2 0.000000 0.889246 0.500700
O O3 0.000000 0.005252 0.412009
O O4 0.750000 0.250000 0.500000
O O5 0.629360 0.229383 0.613370
O O6 0.645403 0.137829 0.479934
O O7 0.760880 0.142723 0.597251
O O8 0.500000 0.255123 0.228738
O O9 0.641012 0.187335 0.260819
O O10 0.650312 0.315745 0.268141
O O11 0.750000 0.589443 0.250000
O O12 0.609713 0.568140 0.159130
O O13 0.586452 0.597339 0.335509
O O14 0.862522 0.500000 0.500000
O O15 0.000000 0.428556 0.523369
O O16 0.750000 0.581481 0.750000
#
# Coordination Sequence:
#
# PCOD9481322 Si02
#       7
#     8  16  16  16  16  16   8
#     4  11  26  47  70  98 136 183 240 287 346 434
#     4  11  24  40  67 108 140 183 243 302 361 435
#     4  11  21  41  69 101 139 181 235 296 361 426
#     4  12  25  46  70 100 141 187 239 296 365 431
#     4  11  25  47  71 104 147 192 243 303 371 445
#     4  10  23  43  68 102 136 176 228 292 357 415
#     4  11  28  47  67  98 136 187 241 285 350 433
#
# _framework density 21.354555999999999
#
# number of rings (size 3 to 8) (size 9 to 14) (size 15 to 20)
#    0.000    1.000    2.500    4.000    4.667    4.667 
#    1.500    0.000    0.000    0.000    0.000    0.000 
#    0.000    0.000    0.000    0.000    0.000    0.000 
#
# Total GULP energy -267862.098008 kJ/mol
# GULP energy per Si atom -5580.460375 kJ/mol
# Density = 2.130595 g / cm^3
# Si number density = 21.354556 Si / 1000 Ang^3
#
#
#
# Elastic Constant Matrix: (Units=GPa)
#
#
# Indices 1 2 3 4 5 6 
#
# 1 149.0599 17.0232 36.8740 0.0000 0.0000 0.0000
# 2 17.0232 82.8395 21.8023 0.0000 0.0000 0.0000
# 3 36.8740 21.8023 77.0306 0.0000 0.0000 0.0000
# 4 0.0000 0.0000 0.0000 28.7584 0.0000 0.0000
# 5 0.0000 0.0000 0.0000 0.0000 21.0947 0.0000
# 6 0.0000 0.0000 0.0000 0.0000 0.0000 122.6697
#
#
#
# Elastic Compliance Matrix: (Units=1/GPa)
#
#
# Indices 1 2 3 4 5 6 
#
# 1 0.007643 -0.000657 -0.003473 0.000000 0.000000 0.000000
# 2 -0.000657 0.013100 -0.003393 0.000000 0.000000 0.000000
# 3 -0.003473 -0.003393 0.015605 0.000000 0.000000 0.000000
# 4 0.000000 0.000000 0.000000 0.034772 0.000000 0.000000
# 5 0.000000 0.000000 0.000000 0.000000 0.047405 0.000000
# 6 0.000000 0.000000 0.000000 0.000000 0.000000 0.008152
#
#
# Mechanical properties :
#
#
# Convention : Reuss Voigt Hill
#
# Bulk Modulus (GPa) = 46.94454 51.14766 49.04610
# Shear Modulus (GPa) = 33.59710 50.05326 41.82518
#
# Velocity S-wave (km/s) = 3.97079 4.84665 4.43042
# Velocity P-wave (km/s) = 6.56155 7.43799 7.01347
#
# Compressibility (1/GPa) = 0.02130173
#
# Stress axis : x y z
#
# Youngs Moduli (GPa) = 130.84273 76.33859 64.08356
#
# Poissons Ratio (x) = 0.05012 0.22254
# Poissons Ratio (y) = 0.08591 0.21746
# Poissons Ratio (z) = 0.45438 0.25904
#
# Static dielectric constant tensor:
#      x y z
#    x 1.839930 0.000000 0.000000 
#    y 0.000000 1.785620 0.000000 
#    z 0.000000 0.000000 2.103510 
# 
# From -- ./inp_files/23978.got.cif
#   From: 2010.05.17/outbox.cif.g08.bks.cpg/sg64_12_cif.got.tgz:23978.got - 2010.06.03 16:29:19.
