data_PCOD9481599
_publ_section_title
;
Structure prediction by ZEFSAII (Michael W. Deem and Ramdas Pophale) SiO2 
 PCOD9481599
Probable space group: C M C A
;
_chemical_formula_sum "Si O2"
_cell_formula_units_Z 40
_cell_length_a 10.514328
_cell_length_b 31.884425
_cell_length_c 5.128777
_cell_angle_alpha 90.000000
_cell_angle_beta 90.000000
_cell_angle_gamma 90.000000
_cell_volume 1719.388139
_symmetry_space_group_name_H-M "C M C A"
_symmetry_group_IT_number 64
_symmetry_cell_setting 'orthorhombic'
loop_
_space_group_symop_operation_xyz
x,y,z
-x,1/2-y,1/2+z
x,-y,-z
-x,1/2+y,1/2-z
-x,-y,-z
x,1/2+y,1/2-z
-x,y,z
x,1/2-y,1/2+z
1/2+x,1/2+y,z
1/2-x,-y,1/2+z
1/2+x,1/2-y,-z
1/2-x,y,1/2-z
1/2-x,1/2-y,-z
1/2+x,y,1/2-z
1/2-x,1/2+y,z
1/2+x,-y,1/2+z
loop_
_atom_site_type_symbol
_atom_site_label
_atom_site_fract_x
_atom_site_fract_y
_atom_site_fract_z
Si Si1 0.750000 0.720155 0.250000
Si Si2 0.356368 0.951979 0.940967
Si Si3 0.000000 0.605196 0.718413
Si Si4 0.000000 0.336819 0.779081
O O1 0.750000 0.750000 0.500000
O O2 0.625150 0.691296 0.249199
O O3 0.500000 0.953700 0.818498
O O4 0.250000 0.933991 0.750000
O O5 0.383045 0.924975 0.200507
O O6 0.322692 0.000000 0.000000
O O7 0.000000 0.627593 0.443565
O O8 0.000000 0.641372 0.939107
#
# Coordination Sequence:
#
# PCOD9481599 Si02
#       4
#     8  16   8   8
#     4  12  26  50  78 106 144 186 236 284 362 464
#     4   9  21  42  64 101 142 208 255 311 361 438
#     4  10  25  45  70 106 153 185 244 308 368 420
#     4  12  26  47  75 112 145 187 234 300 374 430
#
# _framework density 23.264089999999999
#
# number of rings (size 3 to 8) (size 9 to 14) (size 15 to 20)
#    1.200    0.400    0.000    3.600    2.800    4.000 
#    0.000    0.000    0.000    0.000    0.000    0.000 
#    0.000    0.000    0.000    0.000    0.000    0.000 
#
# Total GULP energy -111911.238841 kJ/mol
# GULP energy per Si atom -5595.561942 kJ/mol
# Density = 2.321114 g / cm^3
# Si number density = 23.264090 Si / 1000 Ang^3
#
#
#
# Elastic Constant Matrix: (Units=GPa)
#
#
# Indices 1 2 3 4 5 6 
#
# 1 158.6717 38.0227 31.6963 0.0000 0.0000 0.0000
# 2 38.0227 145.5888 46.6862 0.0000 0.0000 0.0000
# 3 31.6963 46.6862 120.5554 0.0000 0.0000 0.0000
# 4 0.0000 0.0000 0.0000 46.2929 0.0000 0.0000
# 5 0.0000 0.0000 0.0000 0.0000 40.3889 0.0000
# 6 0.0000 0.0000 0.0000 0.0000 0.0000 -51.6751
#
#
#
# Elastic Compliance Matrix: (Units=1/GPa)
#
#
# Indices 1 2 3 4 5 6 
#
# 1 0.006890 -0.001391 -0.001273 0.000000 0.000000 0.000000
# 2 -0.001391 0.008124 -0.002780 0.000000 0.000000 0.000000
# 3 -0.001273 -0.002780 0.009706 0.000000 0.000000 0.000000
# 4 0.000000 0.000000 0.000000 0.021602 0.000000 0.000000
# 5 0.000000 0.000000 0.000000 0.000000 0.024759 0.000000
# 6 0.000000 0.000000 0.000000 0.000000 0.000000 -0.019352
#
#
# Mechanical properties :
#
#
# Convention : Reuss Voigt Hill
#
# Bulk Modulus (GPa) = 72.29912 73.06962 72.68437
# Shear Modulus (GPa) = 74.37425 27.56204 50.96815
#
# Velocity S-wave (km/s) = 5.66030 3.44575 4.68573
# Velocity P-wave (km/s) = 8.59440 6.87807 7.78368
#
# Compressibility (1/GPa) = 0.01383143
#
# Stress axis : x y z
#
# Youngs Moduli (GPa) = 145.13876 123.09933 103.02711
#
# Poissons Ratio (x) = 0.17127 0.13112
# Poissons Ratio (y) = 0.20193 0.28643
# Poissons Ratio (z) = 0.18472 0.34223
#
# Static dielectric constant tensor:
#      x y z
#    x 1.999000 0.000000 0.000000 
#    y 0.000000 1.837890 0.000000 
#    z 0.000000 0.000000 1.889830 
# 
# From -- ./inp_files/354.got.cif
#   From: 2010.05.17/outbox.cif.g08.bks.cpg/sg64_1_cif.got.tgz:354.got - 2010.06.03 16:29:19.
