data_PCOD9481026
_publ_section_title
;
Structure prediction by ZEFSAII (Michael W. Deem and Ramdas Pophale) SiO2 
 PCOD9481026
Probable space group: C M C A
;
_chemical_formula_sum "Si O2"
_cell_formula_units_Z 72
_cell_length_a 28.901554
_cell_length_b 10.013565
_cell_length_c 9.344217
_cell_angle_alpha 90.000000
_cell_angle_beta 90.000000
_cell_angle_gamma 90.000000
_cell_volume 2704.287318
_symmetry_space_group_name_H-M "C M C A"
_symmetry_group_IT_number 64
_symmetry_cell_setting 'orthorhombic'
loop_
_space_group_symop_operation_xyz
x,y,z
-x,1/2-y,1/2+z
x,-y,-z
-x,1/2+y,1/2-z
-x,-y,-z
x,1/2+y,1/2-z
-x,y,z
x,1/2-y,1/2+z
1/2+x,1/2+y,z
1/2-x,-y,1/2+z
1/2+x,1/2-y,-z
1/2-x,y,1/2-z
1/2-x,1/2-y,-z
1/2+x,y,1/2-z
1/2-x,1/2+y,z
1/2+x,-y,1/2+z
loop_
_atom_site_type_symbol
_atom_site_label
_atom_site_fract_x
_atom_site_fract_y
_atom_site_fract_z
Si Si1 0.105084 0.292184 0.983919
Si Si2 0.420090 0.500000 0.000000
Si Si3 0.778734 0.500000 0.500000
Si Si4 0.837666 0.818911 0.779991
Si Si5 0.500000 0.038212 0.703724
Si Si6 0.500000 0.167542 0.061954
Si Si7 0.250000 0.662350 0.750000
O O1 0.127748 0.364370 0.846893
O O2 0.050966 0.321417 0.007810
O O3 0.106152 0.132104 0.955048
O O4 0.134990 0.292883 0.127473
O O5 0.455215 0.526739 0.129081
O O6 0.812422 0.421306 0.611038
O O7 0.744553 0.421429 0.393707
O O8 0.794041 0.749202 0.708836
O O9 0.500000 0.972648 0.856429
O O10 0.500000 0.196725 0.666696
#
# Coordination Sequence:
#
# PCOD9481026 Si02
#       7
#    16   8   8  16   8   8   8
#     4  11  24  42  76 106 151 192 257 302 374 447
#     4   9  19  40  69 100 134 206 244 307 364 450
#     4  12  27  50  81 107 148 191 242 307 388 453
#     4  12  26  47  73 111 145 195 244 311 370 456
#     4   9  18  38  71  95 145 194 259 307 386 427
#     4  10  22  42  69 110 145 210 249 315 372 455
#     4  12  28  50  78 110 148 188 244 314 382 452
#
# _framework density 26.624386999999999
#
# number of rings (size 3 to 8) (size 9 to 14) (size 15 to 20)
#    0.000    1.111    2.222    4.000    3.111    2.667 
#    0.000    0.000    4.889   25.333    0.000    0.000 
#    0.000    0.000    0.000    0.000    0.000    0.000 
#
# Total GULP energy -201229.140890 kJ/mol
# GULP energy per Si atom -5589.698358 kJ/mol
# Density = 2.656379 g / cm^3
# Si number density = 26.624387 Si / 1000 Ang^3
#
#
#
# Elastic Constant Matrix: (Units=GPa)
#
#
# Indices 1 2 3 4 5 6 
#
# 1 109.1055 -3.0277 -2.0366 0.0000 0.0000 0.0000
# 2 -3.0277 68.6311 -0.5121 0.0000 0.0000 0.0000
# 3 -2.0366 -0.5121 87.7728 0.0000 0.0000 0.0000
# 4 0.0000 0.0000 0.0000 44.5972 0.0000 0.0000
# 5 0.0000 0.0000 0.0000 0.0000 41.3679 0.0000
# 6 0.0000 0.0000 0.0000 0.0000 0.0000 35.1408
#
#
#
# Elastic Compliance Matrix: (Units=1/GPa)
#
#
# Indices 1 2 3 4 5 6 
#
# 1 0.009181 0.000407 0.000215 0.000000 0.000000 0.000000
# 2 0.000407 0.014589 0.000095 0.000000 0.000000 0.000000
# 3 0.000215 0.000095 0.011399 0.000000 0.000000 0.000000
# 4 0.000000 0.000000 0.000000 0.022423 0.000000 0.000000
# 5 0.000000 0.000000 0.000000 0.000000 0.024173 0.000000
# 6 0.000000 0.000000 0.000000 0.000000 0.000000 0.028457
#
#
# Mechanical properties :
#
#
# Convention : Reuss Voigt Hill
#
# Bulk Modulus (GPa) = 27.32107 28.26185 27.79146
# Shear Modulus (GPa) = 41.32596 42.29357 41.80977
#
# Velocity S-wave (km/s) = 3.94405 3.98996 3.96707
# Velocity P-wave (km/s) = 5.56998 5.64486 5.60754
#
# Compressibility (1/GPa) = 0.03660178
#
# Stress axis : x y z
#
# Youngs Moduli (GPa) = 108.92362 68.54337 87.73010
#
# Poissons Ratio (x) = -0.02787 -0.01890
# Poissons Ratio (y) = -0.04429 -0.00830
# Poissons Ratio (z) = -0.02346 -0.00648
#
# Static dielectric constant tensor:
#      x y z
#    x 2.045610 0.000000 0.000000 
#    y 0.000000 2.163870 0.000000 
#    z 0.000000 0.000000 2.374450 
# 
# From -- ./inp_files/18968.got.cif
#   From: 2010.05.17/outbox.cif.g08.bks.cpg/sg64_10_cif.got.tgz:18968.got - 2010.06.03 16:29:19.
