data_PCOD9481231
_publ_section_title
;
Structure prediction by ZEFSAII (Michael W. Deem and Ramdas Pophale) SiO2 
 PCOD9481231
Probable space group: C M C A
;
_chemical_formula_sum "Si O2"
_cell_formula_units_Z 68
_cell_length_a 13.589377
_cell_length_b 9.614709
_cell_length_c 25.433732
_cell_angle_alpha 90.000000
_cell_angle_beta 90.000000
_cell_angle_gamma 90.000000
_cell_volume 3323.118148
_symmetry_space_group_name_H-M "C M C A"
_symmetry_group_IT_number 64
_symmetry_cell_setting 'orthorhombic'
loop_
_space_group_symop_operation_xyz
x,y,z
-x,1/2-y,1/2+z
x,-y,-z
-x,1/2+y,1/2-z
-x,-y,-z
x,1/2+y,1/2-z
-x,y,z
x,1/2-y,1/2+z
1/2+x,1/2+y,z
1/2-x,-y,1/2+z
1/2+x,1/2-y,-z
1/2-x,y,1/2-z
1/2-x,1/2-y,-z
1/2+x,y,1/2-z
1/2-x,1/2+y,z
1/2+x,-y,1/2+z
loop_
_atom_site_type_symbol
_atom_site_label
_atom_site_fract_x
_atom_site_fract_y
_atom_site_fract_z
Si Si1 0.000000 0.500000 0.500000
Si Si2 0.720237 0.069196 0.111917
Si Si3 0.187563 0.827016 0.045033
Si Si4 0.117947 0.557399 0.785754
Si Si5 0.883245 0.368908 0.688686
O O1 0.911778 0.603126 0.523837
O O2 0.669264 0.204088 0.087227
O O3 0.826632 0.114192 0.134423
O O4 0.743461 0.945875 0.071243
O O5 0.662885 0.014285 0.162920
O O6 0.250000 0.750000 0.000000
O O7 0.142628 0.719800 0.786948
O O8 0.145278 0.485955 0.730827
O O9 0.000000 0.544687 0.789485
O O10 0.000000 0.375115 0.680013
#
# Coordination Sequence:
#
# PCOD9481231 Si02
#       5
#     4  16  16  16  16
#     4  12  28  52  78 102 148 188 238 320 380 430
#     4  12  24  44  72 100 140 186 240 303 362 443
#     4  12  27  50  73 108 140 185 248 310 383 444
#     4  10  23  42  62 101 142 184 235 287 353 432
#     4  10  23  41  66  99 144 189 236 290 357 436
#
# _framework density 20.462707999999999
#
# number of rings (size 3 to 8) (size 9 to 14) (size 15 to 20)
#    0.000    0.941    4.706    0.706    6.588    1.882 
#    2.118    1.176    0.000    0.000    0.000    0.000 
#    0.000    0.000    0.000    0.000    0.000    0.000 
#
# Total GULP energy -189577.580345 kJ/mol
# GULP energy per Si atom -5575.811187 kJ/mol
# Density = 2.041613 g / cm^3
# Si number density = 20.462708 Si / 1000 Ang^3
#
#
#
# Elastic Constant Matrix: (Units=GPa)
#
#
# Indices 1 2 3 4 5 6 
#
# 1 72.2586 30.2047 38.7000 0.0000 0.0000 0.0000
# 2 30.2047 129.9761 53.0859 0.0000 0.0000 0.0000
# 3 38.7000 53.0859 87.1287 0.0000 0.0000 0.0000
# 4 0.0000 0.0000 0.0000 55.3627 0.0000 0.0000
# 5 0.0000 0.0000 0.0000 0.0000 31.7365 0.0000
# 6 0.0000 0.0000 0.0000 0.0000 0.0000 18.8607
#
#
#
# Elastic Compliance Matrix: (Units=1/GPa)
#
#
# Indices 1 2 3 4 5 6 
#
# 1 0.018308 -0.001242 -0.007375 0.000000 0.000000 0.000000
# 2 -0.001242 0.010327 -0.005740 0.000000 0.000000 0.000000
# 3 -0.007375 -0.005740 0.018250 0.000000 0.000000 0.000000
# 4 0.000000 0.000000 0.000000 0.018063 0.000000 0.000000
# 5 0.000000 0.000000 0.000000 0.000000 0.031509 0.000000
# 6 0.000000 0.000000 0.000000 0.000000 0.000000 0.053020
#
#
# Mechanical properties :
#
#
# Convention : Reuss Voigt Hill
#
# Bulk Modulus (GPa) = 55.03435 59.26050 57.14742
# Shear Modulus (GPa) = 27.13701 32.35017 29.74359
#
# Velocity S-wave (km/s) = 3.64561 3.98041 3.81668
# Velocity P-wave (km/s) = 6.68386 7.08152 6.88556
#
# Compressibility (1/GPa) = 0.01817047
#
# Stress axis : x y z
#
# Youngs Moduli (GPa) = 54.61956 96.83477 54.79332
#
# Poissons Ratio (x) = 0.12031 0.40410
# Poissons Ratio (y) = 0.06786 0.31452
# Poissons Ratio (z) = 0.40282 0.55584
#
# Static dielectric constant tensor:
#      x y z
#    x 1.726110 0.000000 0.000000 
#    y 0.000000 1.732890 0.000000 
#    z 0.000000 0.000000 1.745150 
# 
# From -- ./inp_files/49768.got.cif
#   From: 2010.05.17/outbox.cif.g08.bks.cpg/sg64_25_cif.got.tgz:49768.got - 2010.06.03 16:29:19.
