data_PCOD9481840
_publ_section_title
;
Structure prediction by ZEFSAII (Michael W. Deem and Ramdas Pophale) SiO2 
 PCOD9481840
Probable space group: C M C A
;
_chemical_formula_sum "Si O2"
_cell_formula_units_Z 96
_cell_length_a 28.353318
_cell_length_b 18.023990
_cell_length_c 8.875734
_cell_angle_alpha 90.000000
_cell_angle_beta 90.000000
_cell_angle_gamma 90.000000
_cell_volume 4535.854394
_symmetry_space_group_name_H-M "C M C A"
_symmetry_group_IT_number 64
_symmetry_cell_setting 'orthorhombic'
loop_
_space_group_symop_operation_xyz
x,y,z
-x,1/2-y,1/2+z
x,-y,-z
-x,1/2+y,1/2-z
-x,-y,-z
x,1/2+y,1/2-z
-x,y,z
x,1/2-y,1/2+z
1/2+x,1/2+y,z
1/2-x,-y,1/2+z
1/2+x,1/2-y,-z
1/2-x,y,1/2-z
1/2-x,1/2-y,-z
1/2+x,y,1/2-z
1/2-x,1/2+y,z
1/2+x,-y,1/2+z
loop_
_atom_site_type_symbol
_atom_site_label
_atom_site_fract_x
_atom_site_fract_y
_atom_site_fract_z
Si Si1 0.359534 0.945769 0.638005
Si Si2 0.552769 0.959756 0.272174
Si Si3 0.794706 0.031390 0.659098
Si Si4 0.912162 0.723277 0.184179
Si Si5 0.620547 0.353562 0.396530
Si Si6 0.431070 0.347718 0.965085
O O1 0.375429 0.868165 0.565687
O O2 0.348546 0.000000 0.500000
O O3 0.408331 0.976280 0.711630
O O4 0.318520 0.961478 0.754444
O O5 0.500000 0.983675 0.235700
O O6 0.574736 0.902168 0.152038
O O7 0.551747 0.916275 0.433720
O O8 0.750000 0.060028 0.750000
O O9 0.834942 0.094003 0.638819
O O10 0.778979 0.000000 0.500000
O O11 0.882498 0.781025 0.288767
O O12 0.944768 0.676928 0.297976
O O13 0.882792 0.671029 0.070607
O O14 0.939235 0.777306 0.070301
#
# Coordination Sequence:
#
# PCOD9481840 Si02
#       6
#    16  16  16  16  16  16
#     4   9  18  33  55  79 105 137 174 218 265 314
#     4   9  18  33  54  79 107 138 175 221 267 312
#     4  11  22  36  57  83 108 135 172 220 272 319
#     4   9  17  33  54  74 103 143 176 212 257 306
#     4   9  19  36  56  79 108 140 177 217 261 313
#     4   9  17  30  50  74 101 136 175 211 255 307
#
# _framework density 21.1647
#
# number of rings (size 3 to 8) (size 9 to 14) (size 15 to 20)
#    0.000    2.667    0.000    2.500    0.000    3.000 
#    0.000   15.000    0.000   21.000    0.000    0.000 
#    0.000    0.000    0.000    0.000    0.000    0.000 
#
# Total GULP energy -267448.226579 kJ/mol
# GULP energy per Si atom -5571.838054 kJ/mol
# Density = 2.111653 g / cm^3
# Si number density = 21.164700 Si / 1000 Ang^3
#
#
#
# Elastic Constant Matrix: (Units=GPa)
#
#
# Indices 1 2 3 4 5 6 
#
# 1 84.8422 5.6066 24.8657 0.0000 0.0000 0.0000
# 2 5.6066 60.5772 21.5208 0.0000 0.0000 0.0000
# 3 24.8657 21.5208 114.7416 0.0000 0.0000 0.0000
# 4 0.0000 0.0000 0.0000 32.5624 0.0000 0.0000
# 5 0.0000 0.0000 0.0000 0.0000 1.2033 0.0000
# 6 0.0000 0.0000 0.0000 0.0000 0.0000 -9.4987
#
#
#
# Elastic Compliance Matrix: (Units=1/GPa)
#
#
# Indices 1 2 3 4 5 6 
#
# 1 0.012588 -0.000210 -0.002689 0.000000 0.000000 0.000000
# 2 -0.000210 0.017690 -0.003272 0.000000 0.000000 0.000000
# 3 -0.002689 -0.003272 0.009912 0.000000 0.000000 0.000000
# 4 0.000000 0.000000 0.000000 0.030710 0.000000 0.000000
# 5 0.000000 0.000000 0.000000 0.000000 0.831076 0.000000
# 6 0.000000 0.000000 0.000000 0.000000 0.000000 -0.105277
#
#
# Mechanical properties :
#
#
# Convention : Reuss Voigt Hill
#
# Bulk Modulus (GPa) = 35.90921 40.46078 38.18500
# Shear Modulus (GPa) = 6.11006 18.73124 12.42065
#
# Velocity S-wave (km/s) = 1.70093 2.97816 2.42514
# Velocity P-wave (km/s) = 4.56738 5.56638 5.09144
#
# Compressibility (1/GPa) = 0.02784801
#
# Stress axis : x y z
#
# Youngs Moduli (GPa) = 79.43779 56.52958 100.89122
#
# Poissons Ratio (x) = 0.01187 0.27126
# Poissons Ratio (y) = 0.01668 0.33016
# Poissons Ratio (z) = 0.21358 0.18499
#
# Static dielectric constant tensor:
#      x y z
#    x 1.742860 0.000000 0.000000 
#    y 0.000000 1.861980 0.000000 
#    z 0.000000 0.000000 1.849340 
# 
# From -- ./inp_files/10383.got.cif
#   From: 2010.05.17/outbox.cif.g08.bks.cpg/sg64_6_cif.got.tgz:10383.got - 2010.06.03 16:29:19.
