data_PCOD9481236
_publ_section_title
;
Structure prediction by ZEFSAII (Michael W. Deem and Ramdas Pophale) SiO2 
 PCOD9481236
Probable space group: C M C A
;
_chemical_formula_sum "Si O2"
_cell_formula_units_Z 104
_cell_length_a 24.879395
_cell_length_b 20.340305
_cell_length_c 9.051684
_cell_angle_alpha 90.000000
_cell_angle_beta 90.000000
_cell_angle_gamma 90.000000
_cell_volume 4580.645263
_symmetry_space_group_name_H-M "C M C A"
_symmetry_group_IT_number 64
_symmetry_cell_setting 'orthorhombic'
loop_
_space_group_symop_operation_xyz
x,y,z
-x,1/2-y,1/2+z
x,-y,-z
-x,1/2+y,1/2-z
-x,-y,-z
x,1/2+y,1/2-z
-x,y,z
x,1/2-y,1/2+z
1/2+x,1/2+y,z
1/2-x,-y,1/2+z
1/2+x,1/2-y,-z
1/2-x,y,1/2-z
1/2-x,1/2-y,-z
1/2+x,y,1/2-z
1/2-x,1/2+y,z
1/2+x,-y,1/2+z
loop_
_atom_site_type_symbol
_atom_site_label
_atom_site_fract_x
_atom_site_fract_y
_atom_site_fract_z
Si Si1 0.823994 0.728919 0.108509
Si Si2 0.616791 0.675590 0.119755
Si Si3 0.500000 0.603751 0.519607
Si Si4 0.411130 0.936221 0.426471
Si Si5 0.117085 0.945713 0.390490
Si Si6 0.706631 0.159161 0.845175
Si Si7 0.000000 0.308481 0.746382
Si Si8 0.500000 0.665283 0.814464
O O1 0.855562 0.680880 0.219653
O O2 0.804146 0.784203 0.223229
O O3 0.861016 0.768112 0.990671
O O4 0.780923 0.690388 0.006280
O O5 0.554013 0.687701 0.151865
O O6 0.624670 0.605240 0.040940
O O7 0.555793 0.567310 0.556155
O O8 0.500000 0.628988 0.354218
O O9 0.500000 0.663212 0.636489
O O10 0.383972 0.965437 0.280668
O O11 0.450183 0.878535 0.367853
O O12 0.437571 0.000000 0.500000
O O13 0.152778 0.880325 0.383779
O O14 0.140337 0.000000 0.500000
O O15 0.750000 0.117682 0.750000
O O16 0.000000 0.242184 0.844436
#
# Coordination Sequence:
#
# PCOD9481236 Si02
#       8
#    16  16   8  16  16  16   8   8
#     4  10  23  41  68 100 138 176 225 290 368 420
#     4  11  23  39  61  98 140 183 228 290 348 423
#     4  10  25  43  64  99 136 185 236 283 344 425
#     4  11  24  41  61  90 134 181 236 283 334 407
#     4  11  25  47  71  97 140 189 238 287 344 421
#     4  11  23  45  74 103 138 179 233 296 357 421
#     4  12  25  33  65  96 140 177 229 281 358 412
#     4  10  24  40  56  90 131 179 229 290 339 410
#
# _framework density 22.704224
#
# number of rings (size 3 to 8) (size 9 to 14) (size 15 to 20)
#    0.000    1.231    1.538    3.231   15.077    0.000 
#    0.000    0.769    0.000    0.923    0.000    0.000 
#    0.000    0.000    0.000    0.000    0.000    0.000 
#
# Total GULP energy -290180.144465 kJ/mol
# GULP energy per Si atom -5580.387394 kJ/mol
# Density = 2.265255 g / cm^3
# Si number density = 22.704224 Si / 1000 Ang^3
#
#
#
# Elastic Constant Matrix: (Units=GPa)
#
#
# Indices 1 2 3 4 5 6 
#
# 1 64.1130 20.1688 36.1808 0.0000 0.0000 0.0000
# 2 20.1688 81.9863 56.0607 0.0000 0.0000 0.0000
# 3 36.1808 56.0607 172.2294 0.0000 0.0000 0.0000
# 4 0.0000 0.0000 0.0000 48.1718 0.0000 0.0000
# 5 0.0000 0.0000 0.0000 0.0000 22.6505 0.0000
# 6 0.0000 0.0000 0.0000 0.0000 0.0000 -18.5321
#
#
#
# Elastic Compliance Matrix: (Units=1/GPa)
#
#
# Indices 1 2 3 4 5 6 
#
# 1 0.018048 -0.002376 -0.003018 0.000000 0.000000 0.000000
# 2 -0.002376 0.016002 -0.004709 0.000000 0.000000 0.000000
# 3 -0.003018 -0.004709 0.007973 0.000000 0.000000 0.000000
# 4 0.000000 0.000000 0.000000 0.020759 0.000000 0.000000
# 5 0.000000 0.000000 0.000000 0.000000 0.044149 0.000000
# 6 0.000000 0.000000 0.000000 0.000000 0.000000 -0.053960
#
#
# Mechanical properties :
#
#
# Convention : Reuss Voigt Hill
#
# Bulk Modulus (GPa) = 45.83820 60.34994 53.09407
# Shear Modulus (GPa) = 62.15018 24.18593 43.16805
#
# Velocity S-wave (km/s) = 5.23768 3.26737 4.36515
# Velocity P-wave (km/s) = 7.53729 6.39320 6.98870
#
# Compressibility (1/GPa) = 0.02181586
#
# Stress axis : x y z
#
# Youngs Moduli (GPa) = 55.40748 62.49234 125.42129
#
# Poissons Ratio (x) = 0.14850 0.37852
# Poissons Ratio (y) = 0.13166 0.59067
# Poissons Ratio (z) = 0.16722 0.29430
#
# Static dielectric constant tensor:
#      x y z
#    x 1.983140 0.000000 0.000000 
#    y 0.000000 1.871300 0.000000 
#    z 0.000000 0.000000 1.902080 
# 
# From -- ./inp_files/10481.got.cif
#   From: 2010.05.17/outbox.cif.g08.bks.cpg/sg64_6_cif.got.tgz:10481.got - 2010.06.03 16:29:19.
