data_PCOD9481301
_publ_section_title
;
Structure prediction by ZEFSAII (Michael W. Deem and Ramdas Pophale) SiO2 
 PCOD9481301
Probable space group: C M C A
;
_chemical_formula_sum "Si O2"
_cell_formula_units_Z 52
_cell_length_a 5.164276
_cell_length_b 19.107553
_cell_length_c 27.618173
_cell_angle_alpha 90.000000
_cell_angle_beta 90.000000
_cell_angle_gamma 90.000000
_cell_volume 2725.269547
_symmetry_space_group_name_H-M "C M C A"
_symmetry_group_IT_number 64
_symmetry_cell_setting 'orthorhombic'
loop_
_space_group_symop_operation_xyz
x,y,z
-x,1/2-y,1/2+z
x,-y,-z
-x,1/2+y,1/2-z
-x,-y,-z
x,1/2+y,1/2-z
-x,y,z
x,1/2-y,1/2+z
1/2+x,1/2+y,z
1/2-x,-y,1/2+z
1/2+x,1/2-y,-z
1/2-x,y,1/2-z
1/2-x,1/2-y,-z
1/2+x,y,1/2-z
1/2-x,1/2+y,z
1/2+x,-y,1/2+z
loop_
_atom_site_type_symbol
_atom_site_label
_atom_site_fract_x
_atom_site_fract_y
_atom_site_fract_z
Si Si1 0.000000 0.533696 0.216321
Si Si2 0.000000 0.000000 0.000000
Si Si3 0.000000 0.655858 0.138441
Si Si4 0.500000 0.579884 0.463965
Si Si5 0.000000 0.751331 0.362509
Si Si6 0.000000 0.627599 0.783874
Si Si7 0.500000 0.714224 0.524026
O O1 0.750000 0.543243 0.250000
O O2 0.000000 0.589473 0.173661
O O3 0.000000 0.453100 0.198554
O O4 0.765751 0.963650 0.967087
O O5 0.249643 0.703876 0.146655
O O6 0.000000 0.627707 0.083629
O O7 0.500000 0.632841 0.509779
O O8 0.000000 0.818186 0.327668
O O9 0.000000 0.774323 0.418687
O O10 0.250000 0.637698 0.750000
O O11 0.750000 0.750000 0.500000
#
# Coordination Sequence:
#
# PCOD9481301 Si02
#       7
#     8   4   8   8   8   8   8
#     4  10  23  44  65  92 127 175 210 262 335 394
#     4  10  24  38  60  88 124 164 214 264 314 378
#     4  12  24  40  68  95 131 162 220 273 324 388
#     4  11  22  42  61  91 129 169 215 268 328 372
#     4  12  24  40  66 102 123 174 217 268 331 379
#     4  10  23  43  65  91 133 167 213 268 323 394
#     4  12  22  41  65  89 129 175 212 256 323 395
#
# _framework density 19.080681999999999
#
# number of rings (size 3 to 8) (size 9 to 14) (size 15 to 20)
#    0.000    0.923    3.077    3.692    0.000    6.154 
#    0.000    6.154    0.000    0.000    0.000    0.000 
#    0.000    0.000    0.000    0.000    0.000    0.000 
#
# Total GULP energy -144837.853228 kJ/mol
# GULP energy per Si atom -5570.686663 kJ/mol
# Density = 1.903725 g / cm^3
# Si number density = 19.080682 Si / 1000 Ang^3
#
#
#
# Elastic Constant Matrix: (Units=GPa)
#
#
# Indices 1 2 3 4 5 6 
#
# 1 215.0028 67.1365 57.8890 0.0000 0.0000 0.0000
# 2 67.1365 120.9260 103.7045 0.0000 0.0000 0.0000
# 3 57.8890 103.7045 122.9733 0.0000 0.0000 0.0000
# 4 0.0000 0.0000 0.0000 49.1162 0.0000 0.0000
# 5 0.0000 0.0000 0.0000 0.0000 25.5482 0.0000
# 6 0.0000 0.0000 0.0000 0.0000 0.0000 8.5446
#
#
#
# Elastic Compliance Matrix: (Units=1/GPa)
#
#
# Indices 1 2 3 4 5 6 
#
# 1 0.005627 -0.003079 -0.000052 0.000000 0.000000 0.000000
# 2 -0.003079 0.031562 -0.025167 0.000000 0.000000 0.000000
# 3 -0.000052 -0.025167 0.029380 0.000000 0.000000 0.000000
# 4 0.000000 0.000000 0.000000 0.020360 0.000000 0.000000
# 5 0.000000 0.000000 0.000000 0.000000 0.039142 0.000000
# 6 0.000000 0.000000 0.000000 0.000000 0.000000 0.117034
#
#
# Mechanical properties :
#
#
# Convention : Reuss Voigt Hill
#
# Bulk Modulus (GPa) = 100.27982 101.81800 101.04891
# Shear Modulus (GPa) = 16.50039 31.98660 24.24349
#
# Velocity S-wave (km/s) = 2.94389 4.09881 3.56838
# Velocity P-wave (km/s) = 8.01405 8.71080 8.36968
#
# Compressibility (1/GPa) = 0.00997210
#
# Stress axis : x y z
#
# Youngs Moduli (GPa) = 177.72663 31.68385 34.03718
#
# Poissons Ratio (x) = 0.09757 0.00176
# Poissons Ratio (y) = 0.54728 0.85661
# Poissons Ratio (z) = 0.00922 0.79738
#
# Static dielectric constant tensor:
#      x y z
#    x 1.673620 0.000000 0.000000 
#    y 0.000000 1.682610 0.000000 
#    z 0.000000 0.000000 1.639530 
# 
# From -- ./inp_files/47278.got.cif
#   From: 2010.05.17/outbox.cif.g08.bks.cpg/sg64_24_cif.got.tgz:47278.got - 2010.06.03 16:29:19.
