data_PCOD9481568
_publ_section_title
;
Structure prediction by ZEFSAII (Michael W. Deem and Ramdas Pophale) SiO2 
 PCOD9481568
Probable space group: C M C A
;
_chemical_formula_sum "Si O2"
_cell_formula_units_Z 88
_cell_length_a 32.512001
_cell_length_b 5.242316
_cell_length_c 20.307997
_cell_angle_alpha 90.000000
_cell_angle_beta 90.000000
_cell_angle_gamma 90.000000
_cell_volume 3461.258110
_symmetry_space_group_name_H-M "C M C A"
_symmetry_group_IT_number 64
_symmetry_cell_setting 'orthorhombic'
loop_
_space_group_symop_operation_xyz
x,y,z
-x,1/2-y,1/2+z
x,-y,-z
-x,1/2+y,1/2-z
-x,-y,-z
x,1/2+y,1/2-z
-x,y,z
x,1/2-y,1/2+z
1/2+x,1/2+y,z
1/2-x,-y,1/2+z
1/2+x,1/2-y,-z
1/2-x,y,1/2-z
1/2-x,1/2-y,-z
1/2+x,y,1/2-z
1/2-x,1/2+y,z
1/2+x,-y,1/2+z
loop_
_atom_site_type_symbol
_atom_site_label
_atom_site_fract_x
_atom_site_fract_y
_atom_site_fract_z
Si Si1 0.586433 0.258858 0.393289
Si Si2 0.732936 0.319325 0.176683
Si Si3 0.548017 0.918932 0.293599
Si Si4 0.840798 0.132046 0.389828
Si Si5 0.278649 0.500000 0.500000
Si Si6 0.130003 0.000000 0.000000
Si Si7 0.500000 0.263559 0.452159
O O1 0.581384 0.004929 0.348224
O O2 0.619700 0.465700 0.370071
O O3 0.601330 0.209300 0.467430
O O4 0.538914 0.314438 0.404661
O O5 0.750000 0.357005 0.250000
O O6 0.739726 0.594726 0.145545
O O7 0.686412 0.226406 0.171272
O O8 0.553095 0.141849 0.238722
O O9 0.500000 0.927376 0.316746
O O10 0.848231 0.373360 0.437954
O O11 0.809953 0.976949 0.438016
O O12 0.250000 0.250000 0.500000
O O13 0.500000 0.500000 0.500000
O O14 0.500000 0.000000 0.500000
#
# Coordination Sequence:
#
# PCOD9481568 Si02
#       7
#    16  16  16  16   8   8   8
#     4  12  26  47  74 111 158 207 252 325 380 463
#     4  10  24  49  76 105 144 194 248 312 379 459
#     4  10  24  48  74 104 143 199 265 316 371 443
#     4  12  26  45  72 111 154 192 252 314 382 465
#     4  12  25  42  70 100 140 191 237 292 376 455
#     4  12  25  45  72 115 158 198 251 316 390 462
#     4  12  26  44  72 112 156 206 258 307 393 455
#
# _framework density 25.424282000000002
#
# number of rings (size 3 to 8) (size 9 to 14) (size 15 to 20)
#    0.000    0.727    3.636    2.727    5.091    0.000 
#    6.545    0.000    0.000    0.000    0.000    0.000 
#    0.000    0.000    0.000    0.000    0.000    0.000 
#
# Total GULP energy -245764.208440 kJ/mol
# GULP energy per Si atom -5585.550192 kJ/mol
# Density = 2.536641 g / cm^3
# Si number density = 25.424282 Si / 1000 Ang^3
#
#
#
# Elastic Constant Matrix: (Units=GPa)
#
#
# Indices 1 2 3 4 5 6 
#
# 1 149.0551 44.0496 38.3843 0.0000 0.0000 0.0000
# 2 44.0496 132.2565 5.6245 0.0000 0.0000 0.0000
# 3 38.3843 5.6245 77.9319 0.0000 0.0000 0.0000
# 4 0.0000 0.0000 0.0000 39.6057 0.0000 0.0000
# 5 0.0000 0.0000 0.0000 0.0000 42.7339 0.0000
# 6 0.0000 0.0000 0.0000 0.0000 0.0000 24.2982
#
#
#
# Elastic Compliance Matrix: (Units=1/GPa)
#
#
# Indices 1 2 3 4 5 6 
#
# 1 0.008531 -0.002671 -0.004009 0.000000 0.000000 0.000000
# 2 -0.002671 0.008420 0.000708 0.000000 0.000000 0.000000
# 3 -0.004009 0.000708 0.014755 0.000000 0.000000 0.000000
# 4 0.000000 0.000000 0.000000 0.025249 0.000000 0.000000
# 5 0.000000 0.000000 0.000000 0.000000 0.023401 0.000000
# 6 0.000000 0.000000 0.000000 0.000000 0.000000 0.041155
#
#
# Mechanical properties :
#
#
# Convention : Reuss Voigt Hill
#
# Bulk Modulus (GPa) = 50.60104 59.48449 55.04276
# Shear Modulus (GPa) = 35.70354 39.40657 37.55506
#
# Velocity S-wave (km/s) = 3.75148 3.94122 3.84752
# Velocity P-wave (km/s) = 6.22179 6.64519 6.43697
#
# Compressibility (1/GPa) = 0.01976244
#
# Stress axis : x y z
#
# Youngs Moduli (GPa) = 117.22587 118.75809 67.77297
#
# Poissons Ratio (x) = 0.31717 0.27169
# Poissons Ratio (y) = 0.31308 -0.04796
# Poissons Ratio (z) = 0.46994 -0.08405
#
# Static dielectric constant tensor:
#      x y z
#    x 2.040700 0.000000 0.000000 
#    y 0.000000 2.131030 0.000000 
#    z 0.000000 0.000000 2.051330 
# 
# From -- ./inp_files/47114.got.cif
#   From: 2010.05.17/outbox.cif.g08.bks.cpg/sg64_24_cif.got.tgz:47114.got - 2010.06.03 16:29:19.
