data_PCOD9481019
_publ_section_title
;
Structure prediction by ZEFSAII (Michael W. Deem and Ramdas Pophale) SiO2 
 PCOD9481019
Probable space group: C M C A
;
_chemical_formula_sum "Si O2"
_cell_formula_units_Z 64
_cell_length_a 21.464573
_cell_length_b 9.290839
_cell_length_c 14.417102
_cell_angle_alpha 90.000000
_cell_angle_beta 90.000000
_cell_angle_gamma 90.000000
_cell_volume 2875.114591
_symmetry_space_group_name_H-M "C M C A"
_symmetry_group_IT_number 64
_symmetry_cell_setting 'orthorhombic'
loop_
_space_group_symop_operation_xyz
x,y,z
-x,1/2-y,1/2+z
x,-y,-z
-x,1/2+y,1/2-z
-x,-y,-z
x,1/2+y,1/2-z
-x,y,z
x,1/2-y,1/2+z
1/2+x,1/2+y,z
1/2-x,-y,1/2+z
1/2+x,1/2-y,-z
1/2-x,y,1/2-z
1/2-x,1/2-y,-z
1/2+x,y,1/2-z
1/2-x,1/2+y,z
1/2+x,-y,1/2+z
loop_
_atom_site_type_symbol
_atom_site_label
_atom_site_fract_x
_atom_site_fract_y
_atom_site_fract_z
Si Si1 0.866277 0.325290 0.153592
Si Si2 0.244911 0.380260 0.430369
Si Si3 0.105766 0.650943 0.534765
Si Si4 0.929030 0.133309 0.307699
O O1 0.792286 0.358113 0.152960
O O2 0.887519 0.211473 0.230269
O O3 0.901626 0.477249 0.165708
O O4 0.881181 0.249326 0.055287
O O5 0.270389 0.500000 0.500000
O O6 0.250000 0.250000 0.500000
O O7 0.171223 0.398207 0.415186
O O8 0.076868 0.500000 0.500000
O O9 0.071762 0.754632 0.606671
O O10 0.000000 0.115093 0.274513
#
# Coordination Sequence:
#
# PCOD9481019 Si02
#       4
#    16  16  16  16
#     4  11  23  42  65  92 130 172 218 272 323 378
#     4   9  18  37  65  94 124 159 206 262 324 387
#     4  10  22  42  68  97 129 168 212 269 332 386
#     4  12  26  42  64  96 133 178 226 263 312 387
#
# _framework density 22.259982999999998
#
# number of rings (size 3 to 8) (size 9 to 14) (size 15 to 20)
#    0.000    1.500    0.000    6.000    0.000    4.500 
#    0.000    2.500    0.000    0.000    0.000    0.000 
#    0.000    0.000    0.000    0.000    0.000    0.000 
#
# Total GULP energy -178643.931924 kJ/mol
# GULP energy per Si atom -5582.622873 kJ/mol
# Density = 2.220932 g / cm^3
# Si number density = 22.259983 Si / 1000 Ang^3
#
#
#
# Elastic Constant Matrix: (Units=GPa)
#
#
# Indices 1 2 3 4 5 6 
#
# 1 106.8936 48.5594 44.2590 0.0000 0.0000 0.0000
# 2 48.5594 167.2030 37.6075 0.0000 0.0000 0.0000
# 3 44.2590 37.6075 90.8391 0.0000 0.0000 0.0000
# 4 0.0000 0.0000 0.0000 43.7873 0.0000 0.0000
# 5 0.0000 0.0000 0.0000 0.0000 22.6031 0.0000
# 6 0.0000 0.0000 0.0000 0.0000 0.0000 15.3586
#
#
#
# Elastic Compliance Matrix: (Units=1/GPa)
#
#
# Indices 1 2 3 4 5 6 
#
# 1 0.012610 -0.002515 -0.005103 0.000000 0.000000 0.000000
# 2 -0.002515 0.007096 -0.001713 0.000000 0.000000 0.000000
# 3 -0.005103 -0.001713 0.014204 0.000000 0.000000 0.000000
# 4 0.000000 0.000000 0.000000 0.022838 0.000000 0.000000
# 5 0.000000 0.000000 0.000000 0.000000 0.044242 0.000000
# 6 0.000000 0.000000 0.000000 0.000000 0.000000 0.065110
#
#
# Mechanical properties :
#
#
# Convention : Reuss Voigt Hill
#
# Bulk Modulus (GPa) = 65.57432 69.53193 67.55313
# Shear Modulus (GPa) = 26.33747 31.98380 29.16064
#
# Velocity S-wave (km/s) = 3.44346 3.79467 3.62332
# Velocity P-wave (km/s) = 6.73292 7.10658 6.92227
#
# Compressibility (1/GPa) = 0.01524987
#
# Stress axis : x y z
#
# Youngs Moduli (GPa) = 79.30035 140.91943 70.40340
#
# Poissons Ratio (x) = 0.35435 0.35927
# Poissons Ratio (y) = 0.19940 0.12058
# Poissons Ratio (z) = 0.40467 0.24136
#
# Static dielectric constant tensor:
#      x y z
#    x 1.909670 0.000000 0.000000 
#    y 0.000000 1.771760 0.000000 
#    z 0.000000 0.000000 1.816150 
# 
# From -- ./inp_files/26922.got.cif
#   From: 2010.05.17/outbox.cif.g08.bks.cpg/sg64_14_cif.got.tgz:26922.got - 2010.06.03 16:29:19.
