data_PCOD9481346
_publ_section_title
;
Structure prediction by ZEFSAII (Michael W. Deem and Ramdas Pophale) SiO2 
 PCOD9481346
Probable space group: C M C A
;
_chemical_formula_sum "Si O2"
_cell_formula_units_Z 64
_cell_length_a 25.687518
_cell_length_b 12.366910
_cell_length_c 9.016711
_cell_angle_alpha 90.000000
_cell_angle_beta 90.000000
_cell_angle_gamma 90.000000
_cell_volume 2864.385680
_symmetry_space_group_name_H-M "C M C A"
_symmetry_group_IT_number 64
_symmetry_cell_setting 'orthorhombic'
loop_
_space_group_symop_operation_xyz
x,y,z
-x,1/2-y,1/2+z
x,-y,-z
-x,1/2+y,1/2-z
-x,-y,-z
x,1/2+y,1/2-z
-x,y,z
x,1/2-y,1/2+z
1/2+x,1/2+y,z
1/2-x,-y,1/2+z
1/2+x,1/2-y,-z
1/2-x,y,1/2-z
1/2-x,1/2-y,-z
1/2+x,y,1/2-z
1/2-x,1/2+y,z
1/2+x,-y,1/2+z
loop_
_atom_site_type_symbol
_atom_site_label
_atom_site_fract_x
_atom_site_fract_y
_atom_site_fract_z
Si Si1 0.629498 0.046774 0.656123
Si Si2 0.560936 0.129156 0.253383
Si Si3 0.710337 0.583849 0.620848
Si Si4 0.622024 0.266029 0.505403
O O1 0.667763 0.015215 0.787167
O O2 0.631370 0.173481 0.628200
O O3 0.646979 0.000000 0.500000
O O4 0.574558 0.993130 0.695771
O O5 0.500000 0.150884 0.256297
O O6 0.591110 0.204335 0.373961
O O7 0.584747 0.150229 0.090661
O O8 0.732751 0.500000 0.500000
O O9 0.750000 0.620716 0.750000
O O10 0.675982 0.679178 0.546878
#
# Coordination Sequence:
#
# PCOD9481346 Si02
#       4
#    16  16  16  16
#     4  10  23  44  67  99 148 185 232 290 343 419
#     4  11  23  42  72 106 147 194 235 286 351 412
#     4  12  25  46  73 103 138 184 236 299 364 417
#     4  11  23  44  68 105 147 182 240 294 339 428
#
# _framework density 22.343359
#
# number of rings (size 3 to 8) (size 9 to 14) (size 15 to 20)
#    0.000    1.000    5.000    1.500    0.000    6.500 
#    0.000    5.000    0.000    0.000    0.000    0.000 
#    0.000    0.000    0.000    0.000    0.000    0.000 
#
# Total GULP energy -178555.217847 kJ/mol
# GULP energy per Si atom -5579.850558 kJ/mol
# Density = 2.229250 g / cm^3
# Si number density = 22.343359 Si / 1000 Ang^3
#
#
#
# Elastic Constant Matrix: (Units=GPa)
#
#
# Indices 1 2 3 4 5 6 
#
# 1 135.1157 51.2755 36.4317 0.0000 0.0000 0.0000
# 2 51.2755 88.1032 39.5294 0.0000 0.0000 0.0000
# 3 36.4317 39.5294 89.9456 0.0000 0.0000 0.0000
# 4 0.0000 0.0000 0.0000 14.3487 0.0000 0.0000
# 5 0.0000 0.0000 0.0000 0.0000 36.0477 0.0000
# 6 0.0000 0.0000 0.0000 0.0000 0.0000 26.3465
#
#
#
# Elastic Compliance Matrix: (Units=1/GPa)
#
#
# Indices 1 2 3 4 5 6 
#
# 1 0.009730 -0.004851 -0.001809 0.000000 0.000000 0.000000
# 2 -0.004851 0.016557 -0.005312 0.000000 0.000000 0.000000
# 3 -0.001809 -0.005312 0.014185 0.000000 0.000000 0.000000
# 4 0.000000 0.000000 0.000000 0.069693 0.000000 0.000000
# 5 0.000000 0.000000 0.000000 0.000000 0.027741 0.000000
# 6 0.000000 0.000000 0.000000 0.000000 0.000000 0.037956
#
#
# Mechanical properties :
#
#
# Convention : Reuss Voigt Hill
#
# Bulk Modulus (GPa) = 60.50244 63.07086 61.78665
# Shear Modulus (GPa) = 24.35306 27.74379 26.04842
#
# Velocity S-wave (km/s) = 3.30501 3.52760 3.41812
# Velocity P-wave (km/s) = 6.45767 6.69935 6.57962
#
# Compressibility (1/GPa) = 0.01652826
#
# Stress axis : x y z
#
# Youngs Moduli (GPa) = 102.77740 60.39854 70.49762
#
# Poissons Ratio (x) = 0.29299 0.12753
# Poissons Ratio (y) = 0.49857 0.37445
# Poissons Ratio (z) = 0.18593 0.32081
#
# Static dielectric constant tensor:
#      x y z
#    x 1.805710 0.000000 0.000000 
#    y 0.000000 1.975680 0.000000 
#    z 0.000000 0.000000 1.660120 
# 
# From -- ./inp_files/10860.got.cif
#   From: 2010.05.17/outbox.cif.g08.bks.cpg/sg64_6_cif.got.tgz:10860.got - 2010.06.03 16:29:19.
