data_PCOD9481108
_publ_section_title
;
Structure prediction by ZEFSAII (Michael W. Deem and Ramdas Pophale) SiO2 
 PCOD9481108
Probable space group: C M C A
;
_chemical_formula_sum "Si O2"
_cell_formula_units_Z 96
_cell_length_a 23.493651
_cell_length_b 9.759709
_cell_length_c 22.287442
_cell_angle_alpha 90.000000
_cell_angle_beta 90.000000
_cell_angle_gamma 90.000000
_cell_volume 5110.314257
_symmetry_space_group_name_H-M "C M C A"
_symmetry_group_IT_number 64
_symmetry_cell_setting 'orthorhombic'
loop_
_space_group_symop_operation_xyz
x,y,z
-x,1/2-y,1/2+z
x,-y,-z
-x,1/2+y,1/2-z
-x,-y,-z
x,1/2+y,1/2-z
-x,y,z
x,1/2-y,1/2+z
1/2+x,1/2+y,z
1/2-x,-y,1/2+z
1/2+x,1/2-y,-z
1/2-x,y,1/2-z
1/2-x,1/2-y,-z
1/2+x,y,1/2-z
1/2-x,1/2+y,z
1/2+x,-y,1/2+z
loop_
_atom_site_type_symbol
_atom_site_label
_atom_site_fract_x
_atom_site_fract_y
_atom_site_fract_z
Si Si1 0.628512 0.035203 0.171523
Si Si2 0.565190 0.228041 0.616867
Si Si3 0.270413 0.745361 0.818964
Si Si4 0.139895 0.518805 0.691624
Si Si5 0.652648 0.752979 0.619966
Si Si6 0.066661 0.838553 0.984259
O O1 0.624552 0.977827 0.238776
O O2 0.635092 0.902753 0.130838
O O3 0.577066 0.130557 0.150763
O O4 0.682353 0.138717 0.168793
O O5 0.500000 0.188707 0.618880
O O6 0.599504 0.109340 0.650083
O O7 0.580146 0.238225 0.546711
O O8 0.250000 0.767929 0.750000
O O9 0.299308 0.594280 0.817729
O O10 0.221210 0.752541 0.869268
O O11 0.136383 0.362141 0.671531
O O12 0.616525 0.804475 0.562877
O O13 0.000000 0.808215 0.965961
O O14 0.068195 0.000000 0.000000
#
# Coordination Sequence:
#
# PCOD9481108 Si02
#       6
#    16  16  16  16  16  16
#     4  11  23  38  61 100 133 163 208 266 328 383
#     4  10  23  44  65  88 129 173 211 267 326 375
#     4  11  21  38  63  91 132 171 203 251 320 388
#     4  11  21  38  63  95 127 170 211 256 317 390
#     4  12  22  35  67  97 120 168 224 260 309 390
#     4  10  22  44  69  88 118 171 227 269 316 382
#
# _framework density 18.785536
#
# number of rings (size 3 to 8) (size 9 to 14) (size 15 to 20)
#    0.000    1.167    5.000    2.000    0.000    2.000 
#    0.000    6.667    0.000    0.000    0.000    0.000 
#    0.000    0.000    0.000    0.000    0.000    0.000 
#
# Total GULP energy -267593.978627 kJ/mol
# GULP energy per Si atom -5574.874555 kJ/mol
# Density = 1.874278 g / cm^3
# Si number density = 18.785536 Si / 1000 Ang^3
#
#
#
# Elastic Constant Matrix: (Units=GPa)
#
#
# Indices 1 2 3 4 5 6 
#
# 1 58.8263 -7.2070 53.4020 0.0000 0.0000 0.0000
# 2 -7.2070 65.7751 -5.1460 0.0000 0.0000 0.0000
# 3 53.4020 -5.1460 72.5343 0.0000 0.0000 0.0000
# 4 0.0000 0.0000 0.0000 25.6103 0.0000 0.0000
# 5 0.0000 0.0000 0.0000 0.0000 29.7596 0.0000
# 6 0.0000 0.0000 0.0000 0.0000 0.0000 245.5212
#
#
#
# Elastic Compliance Matrix: (Units=1/GPa)
#
#
# Indices 1 2 3 4 5 6 
#
# 1 0.051729 0.002703 -0.037893 0.000000 0.000000 0.000000
# 2 0.002703 0.015429 -0.000896 0.000000 0.000000 0.000000
# 3 -0.037893 -0.000896 0.041621 0.000000 0.000000 0.000000
# 4 0.000000 0.000000 0.000000 0.039047 0.000000 0.000000
# 5 0.000000 0.000000 0.000000 0.000000 0.033603 0.000000
# 6 0.000000 0.000000 0.000000 0.000000 0.000000 0.004073
#
#
# Mechanical properties :
#
#
# Convention : Reuss Voigt Hill
#
# Bulk Modulus (GPa) = 27.31545 31.02597 29.17071
# Shear Modulus (GPa) = 18.52712 70.58400 44.55556
#
# Velocity S-wave (km/s) = 3.14386 6.13638 4.87540
# Velocity P-wave (km/s) = 5.26789 8.17059 6.87420
#
# Compressibility (1/GPa) = 0.03660932
#
# Stress axis : x y z
#
# Youngs Moduli (GPa) = 19.33150 64.81111 24.02646
#
# Poissons Ratio (x) = -0.17521 0.91043
# Poissons Ratio (y) = -0.05226 0.02152
# Poissons Ratio (z) = 0.73252 0.05805
#
# Static dielectric constant tensor:
#      x y z
#    x 1.815910 0.000000 0.000000 
#    y 0.000000 1.649300 0.000000 
#    z 0.000000 0.000000 1.657850 
# 
# From -- ./inp_files/46593.got.cif
#   From: 2010.05.17/outbox.cif.g08.bks.cpg/sg64_24_cif.got.tgz:46593.got - 2010.06.03 16:29:19.
