data_PCOD9481117
_publ_section_title
;
Structure prediction by ZEFSAII (Michael W. Deem and Ramdas Pophale) SiO2 
 PCOD9481117
Probable space group: C M C A
;
_chemical_formula_sum "Si O2"
_cell_formula_units_Z 112
_cell_length_a 23.267791
_cell_length_b 16.476790
_cell_length_c 14.563747
_cell_angle_alpha 90.000000
_cell_angle_beta 90.000000
_cell_angle_gamma 90.000000
_cell_volume 5583.427568
_symmetry_space_group_name_H-M "C M C A"
_symmetry_group_IT_number 64
_symmetry_cell_setting 'orthorhombic'
loop_
_space_group_symop_operation_xyz
x,y,z
-x,1/2-y,1/2+z
x,-y,-z
-x,1/2+y,1/2-z
-x,-y,-z
x,1/2+y,1/2-z
-x,y,z
x,1/2-y,1/2+z
1/2+x,1/2+y,z
1/2-x,-y,1/2+z
1/2+x,1/2-y,-z
1/2-x,y,1/2-z
1/2-x,1/2-y,-z
1/2+x,y,1/2-z
1/2-x,1/2+y,z
1/2+x,-y,1/2+z
loop_
_atom_site_type_symbol
_atom_site_label
_atom_site_fract_x
_atom_site_fract_y
_atom_site_fract_z
Si Si1 0.814068 0.595997 0.240752
Si Si2 0.261849 0.330711 0.059711
Si Si3 0.566340 0.643315 0.678798
Si Si4 0.135893 0.759921 0.167780
Si Si5 0.854393 0.576000 0.440891
Si Si6 0.836187 0.541786 0.901255
Si Si7 0.433929 0.775656 0.517184
O O1 0.750000 0.630324 0.250000
O O2 0.852809 0.671559 0.209872
O O3 0.836695 0.559975 0.336546
O O4 0.810158 0.525424 0.165968
O O5 0.303867 0.303701 0.142232
O O6 0.205073 0.379207 0.090028
O O7 0.250000 0.250000 0.000000
O O8 0.298538 0.390028 0.994317
O O9 0.500000 0.624526 0.700537
O O10 0.598875 0.684609 0.764107
O O11 0.603462 0.568196 0.642653
O O12 0.567442 0.707332 0.595022
O O13 0.101924 0.750191 0.072226
O O14 0.874746 0.500000 0.500000
O O15 0.902296 0.645334 0.443900
O O16 0.842946 0.500000 0.000000
O O17 0.500000 0.791802 0.492707
#
# Coordination Sequence:
#
# PCOD9481117 Si02
#       7
#    16  16  16  16  16  16  16
#     4  12  25  40  65 102 138 177 216 276 349 411
#     4  11  23  42  68  98 135 180 221 276 341 420
#     4  11  25  45  69  98 130 178 239 280 328 404
#     4  11  24  42  69  98 135 176 226 282 340 404
#     4  11  23  41  60  94 136 175 218 273 338 407
#     4  12  26  44  66 101 140 177 222 280 348 409
#     4  10  22  44  70  92 127 176 228 282 330 394
#
# _framework density 20.059363000000001
#
# number of rings (size 3 to 8) (size 9 to 14) (size 15 to 20)
#    0.000    0.857    1.429    6.857    8.000    0.571 
#    0.000    2.143    0.000    0.000    0.000    0.000 
#    0.000    0.000    0.000    0.000    0.000    0.000 
#
# Total GULP energy -313332.128707 kJ/mol
# GULP energy per Si atom -5595.216584 kJ/mol
# Density = 2.001371 g / cm^3
# Si number density = 20.059363 Si / 1000 Ang^3
#
#
#
# Elastic Constant Matrix: (Units=GPa)
#
#
# Indices 1 2 3 4 5 6 
#
# 1 112.5056 21.9368 22.3568 0.0000 0.0000 0.0000
# 2 21.9368 45.9016 20.5328 0.0000 0.0000 0.0000
# 3 22.3568 20.5328 105.4614 0.0000 0.0000 0.0000
# 4 0.0000 0.0000 0.0000 26.2134 0.0000 0.0000
# 5 0.0000 0.0000 0.0000 0.0000 52.4375 0.0000
# 6 0.0000 0.0000 0.0000 0.0000 0.0000 9.5422
#
#
#
# Elastic Compliance Matrix: (Units=1/GPa)
#
#
# Indices 1 2 3 4 5 6 
#
# 1 0.009961 -0.004180 -0.001298 0.000000 0.000000 0.000000
# 2 -0.004180 0.025618 -0.004102 0.000000 0.000000 0.000000
# 3 -0.001298 -0.004102 0.010556 0.000000 0.000000 0.000000
# 4 0.000000 0.000000 0.000000 0.038148 0.000000 0.000000
# 5 0.000000 0.000000 0.000000 0.000000 0.019070 0.000000
# 6 0.000000 0.000000 0.000000 0.000000 0.000000 0.104798
#
#
# Mechanical properties :
#
#
# Convention : Reuss Voigt Hill
#
# Bulk Modulus (GPa) = 37.06958 43.72460 40.39709
# Shear Modulus (GPa) = 21.15926 30.90810 26.03368
#
# Velocity S-wave (km/s) = 3.25134 3.92960 3.60645
# Velocity P-wave (km/s) = 5.71096 6.51413 6.12572
#
# Compressibility (1/GPa) = 0.02697630
#
# Stress axis : x y z
#
# Youngs Moduli (GPa) = 100.38743 39.03484 94.73437
#
# Poissons Ratio (x) = 0.16317 0.12295
# Poissons Ratio (y) = 0.41963 0.38856
# Poissons Ratio (z) = 0.13029 0.16010
#
# Static dielectric constant tensor:
#      x y z
#    x 1.786210 0.000000 0.000000 
#    y 0.000000 1.814820 0.000000 
#    z 0.000000 0.000000 1.681950 
# 
# From -- ./inp_files/27378.got.cif
#   From: 2010.05.17/outbox.cif.g08.bks.cpg/sg64_14_cif.got.tgz:27378.got - 2010.06.03 16:29:19.
