data_PCOD9481227
_publ_section_title
;
Structure prediction by ZEFSAII (Michael W. Deem and Ramdas Pophale) SiO2 
 PCOD9481227
Probable space group: C M C A
;
_chemical_formula_sum "Si O2"
_cell_formula_units_Z 48
_cell_length_a 21.826810
_cell_length_b 9.631206
_cell_length_c 10.452513
_cell_angle_alpha 90.000000
_cell_angle_beta 90.000000
_cell_angle_gamma 90.000000
_cell_volume 2197.311640
_symmetry_space_group_name_H-M "C M C A"
_symmetry_group_IT_number 64
_symmetry_cell_setting 'orthorhombic'
loop_
_space_group_symop_operation_xyz
x,y,z
-x,1/2-y,1/2+z
x,-y,-z
-x,1/2+y,1/2-z
-x,-y,-z
x,1/2+y,1/2-z
-x,y,z
x,1/2-y,1/2+z
1/2+x,1/2+y,z
1/2-x,-y,1/2+z
1/2+x,1/2-y,-z
1/2-x,y,1/2-z
1/2-x,1/2-y,-z
1/2+x,y,1/2-z
1/2-x,1/2+y,z
1/2+x,-y,1/2+z
loop_
_atom_site_type_symbol
_atom_site_label
_atom_site_fract_x
_atom_site_fract_y
_atom_site_fract_z
Si Si1 0.816630 0.820922 0.740649
Si Si2 0.932597 0.396601 0.619419
Si Si3 0.140811 0.660533 0.968971
O O1 0.750000 0.888413 0.750000
O O2 0.874977 0.913184 0.786129
O O3 0.830373 0.773742 0.597086
O O4 0.818089 0.698010 0.845927
O O5 0.928029 0.500000 0.500000
O O6 0.921651 0.241599 0.563917
O O7 0.000000 0.411074 0.677972
O O8 0.135396 0.500000 0.000000
#
# Coordination Sequence:
#
# PCOD9481227 Si02
#       3
#    16  16  16
#     4  10  23  41  65  96 137 177 226 282 342 403
#     4   9  22  42  67  96 137 182 223 278 347 412
#     4  10  24  40  66 101 127 177 230 282 344 407
#
# _framework density 21.844874000000001
#
# number of rings (size 3 to 8) (size 9 to 14) (size 15 to 20)
#    2.000    0.333    0.000    1.000    4.667    4.667 
#    0.000    0.000    0.000    0.000    0.000    0.000 
#    0.000    0.000    0.000    0.000    0.000    0.000 
#
# Total GULP energy -133613.392284 kJ/mol
# GULP energy per Si atom -5567.224678 kJ/mol
# Density = 2.179515 g / cm^3
# Si number density = 21.844874 Si / 1000 Ang^3
#
#
#
# Elastic Constant Matrix: (Units=GPa)
#
#
# Indices 1 2 3 4 5 6 
#
# 1 170.4313 26.8371 25.3897 0.0000 0.0000 0.0000
# 2 26.8371 73.9217 34.7853 0.0000 0.0000 0.0000
# 3 25.3897 34.7853 125.0478 0.0000 0.0000 0.0000
# 4 0.0000 0.0000 0.0000 24.5465 0.0000 0.0000
# 5 0.0000 0.0000 0.0000 0.0000 14.8940 0.0000
# 6 0.0000 0.0000 0.0000 0.0000 0.0000 6.7430
#
#
#
# Elastic Compliance Matrix: (Units=1/GPa)
#
#
# Indices 1 2 3 4 5 6 
#
# 1 0.006282 -0.001933 -0.000738 0.000000 0.000000 0.000000
# 2 -0.001933 0.016160 -0.004103 0.000000 0.000000 0.000000
# 3 -0.000738 -0.004103 0.009288 0.000000 0.000000 0.000000
# 4 0.000000 0.000000 0.000000 0.040739 0.000000 0.000000
# 5 0.000000 0.000000 0.000000 0.000000 0.067141 0.000000
# 6 0.000000 0.000000 0.000000 0.000000 0.000000 0.148302
#
#
# Mechanical properties :
#
#
# Convention : Reuss Voigt Hill
#
# Bulk Modulus (GPa) = 54.99839 60.38054 57.68947
# Shear Modulus (GPa) = 16.25903 28.06262 22.16083
#
# Velocity S-wave (km/s) = 2.73114 3.58806 3.18852
# Velocity P-wave (km/s) = 5.93101 6.69822 6.32626
#
# Compressibility (1/GPa) = 0.01818235
#
# Stress axis : x y z
#
# Youngs Moduli (GPa) = 159.18983 61.87938 107.66553
#
# Poissons Ratio (x) = 0.11964 0.07941
# Poissons Ratio (y) = 0.30779 0.44174
# Poissons Ratio (z) = 0.11742 0.25388
#
# Static dielectric constant tensor:
#      x y z
#    x 1.811690 0.000000 0.000000 
#    y 0.000000 1.826190 0.000000 
#    z 0.000000 0.000000 1.815260 
# 
# From -- ./inp_files/16650.got.cif
#   From: 2010.05.17/outbox.cif.g08.bks.cpg/sg64_9_cif.got.tgz:16650.got - 2010.06.03 16:29:19.
