data_PCOD9481830
_publ_section_title
;
Structure prediction by ZEFSAII (Michael W. Deem and Ramdas Pophale) SiO2 
 PCOD9481830
Probable space group: C M C A
;
_chemical_formula_sum "Si O2"
_cell_formula_units_Z 64
_cell_length_a 29.540603
_cell_length_b 10.944696
_cell_length_c 9.331292
_cell_angle_alpha 90.000000
_cell_angle_beta 90.000000
_cell_angle_gamma 90.000000
_cell_volume 3016.927259
_symmetry_space_group_name_H-M "C M C A"
_symmetry_group_IT_number 64
_symmetry_cell_setting 'orthorhombic'
loop_
_space_group_symop_operation_xyz
x,y,z
-x,1/2-y,1/2+z
x,-y,-z
-x,1/2+y,1/2-z
-x,-y,-z
x,1/2+y,1/2-z
-x,y,z
x,1/2-y,1/2+z
1/2+x,1/2+y,z
1/2-x,-y,1/2+z
1/2+x,1/2-y,-z
1/2-x,y,1/2-z
1/2-x,1/2-y,-z
1/2+x,y,1/2-z
1/2-x,1/2+y,z
1/2+x,-y,1/2+z
loop_
_atom_site_type_symbol
_atom_site_label
_atom_site_fract_x
_atom_site_fract_y
_atom_site_fract_z
Si Si1 0.500000 0.379164 0.412135
Si Si2 0.000000 0.541403 0.335822
Si Si3 0.373400 0.365856 0.048878
Si Si4 0.922460 0.263204 0.690273
Si Si5 0.266813 0.872619 0.414869
O O1 0.500000 0.500000 0.500000
O O2 0.500000 0.414596 0.246025
O O3 0.453896 0.307666 0.424849
O O4 0.000000 0.500000 0.500000
O O5 0.956039 0.620668 0.285841
O O6 0.405368 0.310443 0.172245
O O7 0.321430 0.369238 0.093447
O O8 0.388943 0.500000 0.000000
O O9 0.378121 0.293463 0.900405
O O10 0.250000 0.874585 0.250000
O O11 0.250000 0.750000 0.500000
O O12 0.254643 0.000000 0.500000
#
# Coordination Sequence:
#
# PCOD9481830 Si02
#       5
#     8   8  16  16  16
#     4  11  22  35  54  84 119 158 206 252 301 363
#     4  11  22  39  59  84 125 168 211 260 311 369
#     4  11  24  42  64  93 127 163 213 269 323 393
#     4  11  22  38  61  87 122 169 211 258 317 376
#     4  11  24  45  71 100 135 175 221 279 347 419
#
# _framework density 21.213638
#
# number of rings (size 3 to 8) (size 9 to 14) (size 15 to 20)
#    0.000    1.000    0.000    7.500    0.000    6.000 
#    0.000    6.875    0.000    0.000    0.000    0.000 
#    0.000    0.000    0.000    0.000    0.000    0.000 
#
# Total GULP energy -178437.385307 kJ/mol
# GULP energy per Si atom -5576.168291 kJ/mol
# Density = 2.116535 g / cm^3
# Si number density = 21.213638 Si / 1000 Ang^3
#
#
#
# Elastic Constant Matrix: (Units=GPa)
#
#
# Indices 1 2 3 4 5 6 
#
# 1 109.4634 36.5241 57.1793 0.0000 0.0000 0.0000
# 2 36.5241 113.4660 66.8553 0.0000 0.0000 0.0000
# 3 57.1793 66.8553 160.8747 0.0000 0.0000 0.0000
# 4 0.0000 0.0000 0.0000 49.7590 0.0000 0.0000
# 5 0.0000 0.0000 0.0000 0.0000 184.7218 0.0000
# 6 0.0000 0.0000 0.0000 0.0000 0.0000 25.8229
#
#
#
# Elastic Compliance Matrix: (Units=1/GPa)
#
#
# Indices 1 2 3 4 5 6 
#
# 1 0.011463 -0.001707 -0.003365 0.000000 0.000000 0.000000
# 2 -0.001707 0.011925 -0.004349 0.000000 0.000000 0.000000
# 3 -0.003365 -0.004349 0.009219 0.000000 0.000000 0.000000
# 4 0.000000 0.000000 0.000000 0.020097 0.000000 0.000000
# 5 0.000000 0.000000 0.000000 0.000000 0.005414 0.000000
# 6 0.000000 0.000000 0.000000 0.000000 0.000000 0.038725
#
#
# Mechanical properties :
#
#
# Convention : Reuss Voigt Hill
#
# Bulk Modulus (GPa) = 72.64647 78.32460 75.48553
# Shear Modulus (GPa) = 41.57201 66.94377 54.25789
#
# Velocity S-wave (km/s) = 4.43163 5.62365 5.06285
# Velocity P-wave (km/s) = 7.77852 8.89771 8.35687
#
# Compressibility (1/GPa) = 0.01376529
#
# Stress axis : x y z
#
# Youngs Moduli (GPa) = 87.23955 83.85567 108.46887
#
# Poissons Ratio (x) = 0.14317 0.36496
# Poissons Ratio (y) = 0.14894 0.47173
# Poissons Ratio (z) = 0.29353 0.36469
#
# Static dielectric constant tensor:
#      x y z
#    x 1.531520 0.000000 0.000000 
#    y 0.000000 2.295950 0.000000 
#    z 0.000000 0.000000 1.790480 
# 
# From -- ./inp_files/10883.got.cif
#   From: 2010.05.17/outbox.cif.g08.bks.cpg/sg64_6_cif.got.tgz:10883.got - 2010.06.03 16:29:19.
