data_PCOD9481983
_publ_section_title
;
Structure prediction by ZEFSAII (Michael W. Deem and Ramdas Pophale) SiO2 
 PCOD9481983
Probable space group: C M C A
;
_chemical_formula_sum "Si O2"
_cell_formula_units_Z 64
_cell_length_a 18.234899
_cell_length_b 11.769952
_cell_length_c 13.662930
_cell_angle_alpha 90.000000
_cell_angle_beta 90.000000
_cell_angle_gamma 90.000000
_cell_volume 2932.391130
_symmetry_space_group_name_H-M "C M C A"
_symmetry_group_IT_number 64
_symmetry_cell_setting 'orthorhombic'
loop_
_space_group_symop_operation_xyz
x,y,z
-x,1/2-y,1/2+z
x,-y,-z
-x,1/2+y,1/2-z
-x,-y,-z
x,1/2+y,1/2-z
-x,y,z
x,1/2-y,1/2+z
1/2+x,1/2+y,z
1/2-x,-y,1/2+z
1/2+x,1/2-y,-z
1/2-x,y,1/2-z
1/2-x,1/2-y,-z
1/2+x,y,1/2-z
1/2-x,1/2+y,z
1/2+x,-y,1/2+z
loop_
_atom_site_type_symbol
_atom_site_label
_atom_site_fract_x
_atom_site_fract_y
_atom_site_fract_z
Si Si1 0.915730 0.961666 0.612301
Si Si2 0.331707 0.457214 0.218281
Si Si3 0.174212 0.252673 0.437478
Si Si4 0.581437 0.606202 0.075829
O O1 0.855060 0.861621 0.612445
O O2 0.000000 0.929509 0.637952
O O3 0.916501 0.000000 0.500000
O O4 0.884998 0.055419 0.688167
O O5 0.250000 0.482305 0.250000
O O6 0.325912 0.350032 0.145453
O O7 0.365036 0.563289 0.159467
O O8 0.250000 0.250000 0.500000
O O9 0.112724 0.289042 0.516067
O O10 0.500000 0.627344 0.113038
O O11 0.578549 0.500000 0.000000
#
# Coordination Sequence:
#
# PCOD9481983 Si02
#       4
#    16  16  16  16
#     4  11  25  43  63  92 132 174 218 272 331 398
#     4  11  23  40  64  93 126 167 216 268 329 399
#     4  11  23  41  66  96 130 169 215 274 339 398
#     4   9  19  38  64  91 121 161 210 262 316 380
#
# _framework density 21.825192999999999
#
# number of rings (size 3 to 8) (size 9 to 14) (size 15 to 20)
#    0.000    1.500    0.000    4.500    0.000   10.000 
#    0.000    2.500    0.000    0.000    0.000    0.000 
#    0.000    0.000    0.000    0.000    0.000    0.000 
#
# Total GULP energy -178767.503745 kJ/mol
# GULP energy per Si atom -5586.484492 kJ/mol
# Density = 2.177552 g / cm^3
# Si number density = 21.825193 Si / 1000 Ang^3
#
#
#
# Elastic Constant Matrix: (Units=GPa)
#
#
# Indices 1 2 3 4 5 6 
#
# 1 169.7175 42.9203 60.9486 0.0000 0.0000 0.0000
# 2 42.9203 60.6178 32.7608 0.0000 0.0000 0.0000
# 3 60.9486 32.7608 131.5318 0.0000 0.0000 0.0000
# 4 0.0000 0.0000 0.0000 39.3044 0.0000 0.0000
# 5 0.0000 0.0000 0.0000 0.0000 33.6130 0.0000
# 6 0.0000 0.0000 0.0000 0.0000 0.0000 8.8866
#
#
#
# Elastic Compliance Matrix: (Units=1/GPa)
#
#
# Indices 1 2 3 4 5 6 
#
# 1 0.007886 -0.004170 -0.002616 0.000000 0.000000 0.000000
# 2 -0.004170 0.021268 -0.003365 0.000000 0.000000 0.000000
# 3 -0.002616 -0.003365 0.009653 0.000000 0.000000 0.000000
# 4 0.000000 0.000000 0.000000 0.025442 0.000000 0.000000
# 5 0.000000 0.000000 0.000000 0.000000 0.029750 0.000000
# 6 0.000000 0.000000 0.000000 0.000000 0.000000 0.112529
#
#
# Mechanical properties :
#
#
# Convention : Reuss Voigt Hill
#
# Bulk Modulus (GPa) = 54.03743 70.56961 62.30352
# Shear Modulus (GPa) = 21.45939 31.37663 26.41801
#
# Velocity S-wave (km/s) = 3.13907 3.79573 3.48291
# Velocity P-wave (km/s) = 6.16046 7.18431 6.69199
#
# Compressibility (1/GPa) = 0.01850569
#
# Stress axis : x y z
#
# Youngs Moduli (GPa) = 126.80669 47.01901 103.59687
#
# Poissons Ratio (x) = 0.19607 0.27096
# Poissons Ratio (y) = 0.52880 0.34859
# Poissons Ratio (z) = 0.33167 0.15821
#
# Static dielectric constant tensor:
#      x y z
#    x 1.762820 0.000000 0.000000 
#    y 0.000000 1.839580 0.000000 
#    z 0.000000 0.000000 1.843730 
# 
# From -- ./inp_files/15439.got.cif
#   From: 2010.05.17/outbox.cif.g08.bks.cpg/sg64_8_cif.got.tgz:15439.got - 2010.06.03 16:29:19.
