data_PCOD9481198
_publ_section_title
;
Structure prediction by ZEFSAII (Michael W. Deem and Ramdas Pophale) SiO2 
 PCOD9481198
Probable space group: C M C A
;
_chemical_formula_sum "Si O2"
_cell_formula_units_Z 80
_cell_length_a 13.568836
_cell_length_b 13.777431
_cell_length_c 22.710121
_cell_angle_alpha 90.000000
_cell_angle_beta 90.000000
_cell_angle_gamma 90.000000
_cell_volume 4245.514087
_symmetry_space_group_name_H-M "C M C A"
_symmetry_group_IT_number 64
_symmetry_cell_setting 'orthorhombic'
loop_
_space_group_symop_operation_xyz
x,y,z
-x,1/2-y,1/2+z
x,-y,-z
-x,1/2+y,1/2-z
-x,-y,-z
x,1/2+y,1/2-z
-x,y,z
x,1/2-y,1/2+z
1/2+x,1/2+y,z
1/2-x,-y,1/2+z
1/2+x,1/2-y,-z
1/2-x,y,1/2-z
1/2-x,1/2-y,-z
1/2+x,y,1/2-z
1/2-x,1/2+y,z
1/2+x,-y,1/2+z
loop_
_atom_site_type_symbol
_atom_site_label
_atom_site_fract_x
_atom_site_fract_y
_atom_site_fract_z
Si Si1 0.000000 0.844099 0.289639
Si Si2 0.500000 0.654798 0.361443
Si Si3 0.792131 0.397697 0.021807
Si Si4 0.500000 0.054780 0.917362
Si Si5 0.000000 0.450353 0.733683
Si Si6 0.800629 0.263409 0.906562
Si Si7 0.834154 0.815679 0.799009
O O1 0.000000 0.889614 0.355078
O O2 0.095032 0.775174 0.283778
O O3 0.000000 0.935634 0.246093
O O4 0.500000 0.560424 0.404152
O O5 0.500000 0.606998 0.296660
O O6 0.596275 0.718529 0.373943
O O7 0.900703 0.416697 0.048563
O O8 0.725638 0.343658 0.070283
O O9 0.750829 0.500000 0.000000
O O10 0.801166 0.329707 0.964783
O O11 0.096697 0.410390 0.701276
O O12 0.716343 0.297114 0.861526
O O13 0.750000 0.826004 0.750000
#
# Coordination Sequence:
#
# PCOD9481198 Si02
#       7
#     8   8  16   8   8  16  16
#     4  10  23  41  61  93 122 165 203 251 305 370
#     4  11  20  39  64  92 123 163 209 257 298 366
#     4  11  22  39  61  95 123 161 210 256 307 374
#     4  11  19  39  67  89 120 160 216 253 295 375
#     4  10  23  40  64  93 121 157 211 250 306 367
#     4  11  23  38  63  92 126 161 203 259 313 359
#     4  11  22  42  63  90 127 160 202 256 312 370
#
# _framework density 18.843419000000001
#
# number of rings (size 3 to 8) (size 9 to 14) (size 15 to 20)
#    0.000    1.200    6.000    0.900    0.000    0.800 
#    3.600    0.500    0.000    0.000    0.000    0.000 
#    0.000    0.000    0.000    0.000    0.000    0.000 
#
# Total GULP energy -223474.738236 kJ/mol
# GULP energy per Si atom -5586.868456 kJ/mol
# Density = 1.880053 g / cm^3
# Si number density = 18.843419 Si / 1000 Ang^3
#
#
#
# Elastic Constant Matrix: (Units=GPa)
#
#
# Indices 1 2 3 4 5 6 
#
# 1 117.6349 46.6946 19.5840 0.0000 0.0000 0.0000
# 2 46.6946 90.0006 13.4423 0.0000 0.0000 0.0000
# 3 19.5840 13.4423 50.8827 0.0000 0.0000 0.0000
# 4 0.0000 0.0000 0.0000 38.1786 0.0000 0.0000
# 5 0.0000 0.0000 0.0000 0.0000 -3.7896 0.0000
# 6 0.0000 0.0000 0.0000 0.0000 0.0000 14.4767
#
#
#
# Elastic Compliance Matrix: (Units=1/GPa)
#
#
# Indices 1 2 3 4 5 6 
#
# 1 0.011092 -0.005327 -0.002862 0.000000 0.000000 0.000000
# 2 -0.005327 0.014126 -0.001681 0.000000 0.000000 0.000000
# 3 -0.002862 -0.001681 0.021199 0.000000 0.000000 0.000000
# 4 0.000000 0.000000 0.000000 0.026193 0.000000 0.000000
# 5 0.000000 0.000000 0.000000 0.000000 -0.263881 0.000000
# 6 0.000000 0.000000 0.000000 0.000000 0.000000 0.069077
#
#
# Mechanical properties :
#
#
# Convention : Reuss Voigt Hill
#
# Bulk Modulus (GPa) = 37.48728 46.43997 41.96363
# Shear Modulus (GPa) = -53.44068 21.69296 -15.87386
#
# Velocity S-wave (km/s) = -5.33123 3.39665 -2.90558
# Velocity P-wave (km/s) = 4.23777 6.33101 3.32588
#
# Compressibility (1/GPa) = 0.02667571
#
# Stress axis : x y z
#
# Youngs Moduli (GPa) = 90.15527 70.79067 47.17270
#
# Poissons Ratio (x) = 0.37713 0.13500
# Poissons Ratio (y) = 0.48029 0.07932
# Poissons Ratio (z) = 0.25800 0.11903
#
# Static dielectric constant tensor:
#      x y z
#    x 1.629370 0.000000 0.000000 
#    y 0.000000 1.649350 0.000000 
#    z 0.000000 0.000000 1.663930 
# 
# From -- ./inp_files/44015.got.cif
#   From: 2010.05.17/outbox.cif.g08.bks.cpg/sg64_23_cif.got.tgz:44015.got - 2010.06.03 16:29:19.
