data_PCOD9481347
_publ_section_title
;
Structure prediction by ZEFSAII (Michael W. Deem and Ramdas Pophale) SiO2 
 PCOD9481347
Probable space group: C M C A
;
_chemical_formula_sum "Si O2"
_cell_formula_units_Z 96
_cell_length_a 15.106110
_cell_length_b 20.077872
_cell_length_c 14.844163
_cell_angle_alpha 90.000000
_cell_angle_beta 90.000000
_cell_angle_gamma 90.000000
_cell_volume 4502.213010
_symmetry_space_group_name_H-M "C M C A"
_symmetry_group_IT_number 64
_symmetry_cell_setting 'orthorhombic'
loop_
_space_group_symop_operation_xyz
x,y,z
-x,1/2-y,1/2+z
x,-y,-z
-x,1/2+y,1/2-z
-x,-y,-z
x,1/2+y,1/2-z
-x,y,z
x,1/2-y,1/2+z
1/2+x,1/2+y,z
1/2-x,-y,1/2+z
1/2+x,1/2-y,-z
1/2-x,y,1/2-z
1/2-x,1/2-y,-z
1/2+x,y,1/2-z
1/2-x,1/2+y,z
1/2+x,-y,1/2+z
loop_
_atom_site_type_symbol
_atom_site_label
_atom_site_fract_x
_atom_site_fract_y
_atom_site_fract_z
Si Si1 0.903708 0.140118 0.608648
Si Si2 0.902559 0.423960 0.468885
Si Si3 0.730772 0.861983 0.945515
Si Si4 0.319406 0.232833 0.321577
Si Si5 0.603202 0.394901 0.717112
Si Si6 0.145328 0.457761 0.267562
O O1 0.828472 0.135461 0.533981
O O2 0.890119 0.212182 0.653404
O O3 0.894621 0.084250 0.685184
O O4 0.000000 0.134697 0.565577
O O5 0.907999 0.500000 0.500000
O O6 0.823994 0.393792 0.527382
O O7 0.878410 0.424567 0.363002
O O8 0.000000 0.392708 0.482593
O O9 0.758971 0.790818 0.904944
O O10 0.671609 0.896092 0.867097
O O11 0.250000 0.262374 0.250000
O O12 0.362878 0.166578 0.278343
O O13 0.500000 0.384602 0.692094
O O14 0.611490 0.466148 0.765749
O O15 0.250000 0.458817 0.250000
#
# Coordination Sequence:
#
# PCOD9481347 Si02
#       6
#    16  16  16  16  16  16
#     4  12  25  42  66  98 137 176 223 279 340 402
#     4  11  23  40  64  97 131 172 227 276 323 390
#     4  11  24  42  65  98 133 174 219 274 341 394
#     4  10  23  44  68  92 129 181 226 273 331 401
#     4  11  23  43  70  99 134 175 224 270 332 408
#     4  12  23  43  68  96 136 179 221 276 336 398
#
# _framework density 21.322845999999998
#
# number of rings (size 3 to 8) (size 9 to 14) (size 15 to 20)
#    0.000    0.833    1.667    7.000    0.000    2.667 
#    0.000    1.667    0.000    0.000    0.000    0.000 
#    0.000    0.000    0.000    0.000    0.000    0.000 
#
# Total GULP energy -268437.572259 kJ/mol
# GULP energy per Si atom -5592.449422 kJ/mol
# Density = 2.127431 g / cm^3
# Si number density = 21.322846 Si / 1000 Ang^3
#
#
#
# Elastic Constant Matrix: (Units=GPa)
#
#
# Indices 1 2 3 4 5 6 
#
# 1 176.6068 4.2772 37.2658 0.0000 0.0000 0.0000
# 2 4.2772 37.4116 14.6035 0.0000 0.0000 0.0000
# 3 37.2658 14.6035 98.8074 0.0000 0.0000 0.0000
# 4 0.0000 0.0000 0.0000 18.1274 0.0000 0.0000
# 5 0.0000 0.0000 0.0000 0.0000 7.3463 0.0000
# 6 0.0000 0.0000 0.0000 0.0000 0.0000 68.3354
#
#
#
# Elastic Compliance Matrix: (Units=1/GPa)
#
#
# Indices 1 2 3 4 5 6 
#
# 1 0.006154 0.000215 -0.002353 0.000000 0.000000 0.000000
# 2 0.000215 0.028374 -0.004275 0.000000 0.000000 0.000000
# 3 -0.002353 -0.004275 0.011640 0.000000 0.000000 0.000000
# 4 0.000000 0.000000 0.000000 0.055165 0.000000 0.000000
# 5 0.000000 0.000000 0.000000 0.000000 0.136124 0.000000
# 6 0.000000 0.000000 0.000000 0.000000 0.000000 0.014634
#
#
# Mechanical properties :
#
#
# Convention : Reuss Voigt Hill
#
# Bulk Modulus (GPa) = 29.99201 47.23545 38.61373
# Shear Modulus (GPa) = 18.11410 35.87378 26.99394
#
# Velocity S-wave (km/s) = 2.91781 4.10617 3.56190
# Velocity P-wave (km/s) = 5.04457 6.68442 5.92153
#
# Compressibility (1/GPa) = 0.03334221
#
# Stress axis : x y z
#
# Youngs Moduli (GPa) = 162.50885 35.24395 85.91238
#
# Poissons Ratio (x) = -0.00757 0.20212
# Poissons Ratio (y) = -0.03491 0.36724
# Poissons Ratio (z) = 0.38232 0.15065
#
# Static dielectric constant tensor:
#      x y z
#    x 1.863950 0.000000 0.000000 
#    y 0.000000 1.753400 0.000000 
#    z 0.000000 0.000000 1.790290 
# 
# From -- ./inp_files/23897.got.cif
#   From: 2010.05.17/outbox.cif.g08.bks.cpg/sg64_12_cif.got.tgz:23897.got - 2010.06.03 16:29:19.
