data_PCOD9481189
_publ_section_title
;
Structure prediction by ZEFSAII (Michael W. Deem and Ramdas Pophale) SiO2 
 PCOD9481189
Probable space group: C M C A
;
_chemical_formula_sum "Si O2"
_cell_formula_units_Z 88
_cell_length_a 14.787318
_cell_length_b 21.916815
_cell_length_c 13.956039
_cell_angle_alpha 90.000000
_cell_angle_beta 90.000000
_cell_angle_gamma 90.000000
_cell_volume 4523.025421
_symmetry_space_group_name_H-M "C M C A"
_symmetry_group_IT_number 64
_symmetry_cell_setting 'orthorhombic'
loop_
_space_group_symop_operation_xyz
x,y,z
-x,1/2-y,1/2+z
x,-y,-z
-x,1/2+y,1/2-z
-x,-y,-z
x,1/2+y,1/2-z
-x,y,z
x,1/2-y,1/2+z
1/2+x,1/2+y,z
1/2-x,-y,1/2+z
1/2+x,1/2-y,-z
1/2-x,y,1/2-z
1/2-x,1/2-y,-z
1/2+x,y,1/2-z
1/2-x,1/2+y,z
1/2+x,-y,1/2+z
loop_
_atom_site_type_symbol
_atom_site_label
_atom_site_fract_x
_atom_site_fract_y
_atom_site_fract_z
Si Si1 0.109763 0.011783 0.386019
Si Si2 0.401194 0.642220 0.857325
Si Si3 0.351322 0.245880 0.778401
Si Si4 0.603880 0.149455 0.148718
Si Si5 0.750000 0.436748 0.250000
Si Si6 0.642326 0.254148 0.997776
O O1 0.138615 0.082338 0.371495
O O2 0.000000 0.003070 0.365295
O O3 0.119986 0.000000 0.500000
O O4 0.177350 0.972736 0.318090
O O5 0.500000 0.610936 0.861937
O O6 0.407299 0.696632 0.779807
O O7 0.316902 0.601133 0.822110
O O8 0.385143 0.681634 0.954328
O O9 0.250000 0.226077 0.750000
O O10 0.355607 0.313665 0.736628
O O11 0.380948 0.246904 0.887368
O O12 0.500000 0.140975 0.172140
O O13 0.609743 0.196718 0.060222
O O14 0.750000 0.250000 0.000000
#
# Coordination Sequence:
#
# PCOD9481189 Si02
#       6
#    16  16  16  16   8  16
#     4  10  25  45  69  96 122 169 227 269 313 370
#     4  11  24  40  60  96 130 162 211 261 316 385
#     4  11  20  35  62  93 126 164 202 250 317 380
#     4  10  23  40  59  92 125 157 209 262 309 375
#     4  12  24  44  68  90 126 172 210 270 324 376
#     4  11  20  35  61  93 127 161 203 250 321 382
#
# _framework density 19.456002999999999
#
# number of rings (size 3 to 8) (size 9 to 14) (size 15 to 20)
#    0.000    1.273    4.545    2.727    6.364    2.909 
#    0.000    0.000    0.000    1.091    0.000    0.000 
#    0.000    0.000    0.000    0.000    0.000    0.000 
#
# Total GULP energy -245045.900058 kJ/mol
# GULP energy per Si atom -5569.225001 kJ/mol
# Density = 1.941172 g / cm^3
# Si number density = 19.456003 Si / 1000 Ang^3
#
#
#
# Elastic Constant Matrix: (Units=GPa)
#
#
# Indices 1 2 3 4 5 6 
#
# 1 112.9417 32.1748 6.7294 0.0000 0.0000 0.0000
# 2 32.1748 84.1554 12.2796 0.0000 0.0000 0.0000
# 3 6.7294 12.2796 93.5685 0.0000 0.0000 0.0000
# 4 0.0000 0.0000 0.0000 11.8135 0.0000 0.0000
# 5 0.0000 0.0000 0.0000 0.0000 24.6020 0.0000
# 6 0.0000 0.0000 0.0000 0.0000 0.0000 25.7857
#
#
#
# Elastic Compliance Matrix: (Units=1/GPa)
#
#
# Indices 1 2 3 4 5 6 
#
# 1 0.009941 -0.003768 -0.000220 0.000000 0.000000 0.000000
# 2 -0.003768 0.013543 -0.001506 0.000000 0.000000 0.000000
# 3 -0.000220 -0.001506 0.010901 0.000000 0.000000 0.000000
# 4 0.000000 0.000000 0.000000 0.084649 0.000000 0.000000
# 5 0.000000 0.000000 0.000000 0.000000 0.040647 0.000000
# 6 0.000000 0.000000 0.000000 0.000000 0.000000 0.038781
#
#
# Mechanical properties :
#
#
# Convention : Reuss Voigt Hill
#
# Bulk Modulus (GPa) = 42.74481 43.67037 43.20759
# Shear Modulus (GPa) = 23.01484 28.40569 25.71026
#
# Velocity S-wave (km/s) = 3.44309 3.82513 3.63913
# Velocity P-wave (km/s) = 6.15013 6.48100 6.31773
#
# Compressibility (1/GPa) = 0.02339465
#
# Stress axis : x y z
#
# Youngs Moduli (GPa) = 100.59536 73.83694 91.73561
#
# Poissons Ratio (x) = 0.27825 0.02022
# Poissons Ratio (y) = 0.37909 0.13819
# Poissons Ratio (z) = 0.02217 0.11122
#
# Static dielectric constant tensor:
#      x y z
#    x 1.825720 0.000000 0.000000 
#    y 0.000000 1.713080 0.000000 
#    z 0.000000 0.000000 1.717620 
# 
# From -- ./inp_files/23781.got.cif
#   From: 2010.05.17/outbox.cif.g08.bks.cpg/sg64_12_cif.got.tgz:23781.got - 2010.06.03 16:29:19.
