data_PCOD9481368
_publ_section_title
;
Structure prediction by ZEFSAII (Michael W. Deem and Ramdas Pophale) SiO2 
 PCOD9481368
Probable space group: C M C A
;
_chemical_formula_sum "Si O2"
_cell_formula_units_Z 72
_cell_length_a 9.521966
_cell_length_b 23.366478
_cell_length_c 15.373851
_cell_angle_alpha 90.000000
_cell_angle_beta 90.000000
_cell_angle_gamma 90.000000
_cell_volume 3420.602043
_symmetry_space_group_name_H-M "C M C A"
_symmetry_group_IT_number 64
_symmetry_cell_setting 'orthorhombic'
loop_
_space_group_symop_operation_xyz
x,y,z
-x,1/2-y,1/2+z
x,-y,-z
-x,1/2+y,1/2-z
-x,-y,-z
x,1/2+y,1/2-z
-x,y,z
x,1/2-y,1/2+z
1/2+x,1/2+y,z
1/2-x,-y,1/2+z
1/2+x,1/2-y,-z
1/2-x,y,1/2-z
1/2-x,1/2-y,-z
1/2+x,y,1/2-z
1/2-x,1/2+y,z
1/2+x,-y,1/2+z
loop_
_atom_site_type_symbol
_atom_site_label
_atom_site_fract_x
_atom_site_fract_y
_atom_site_fract_z
Si Si1 0.164970 0.229977 0.914515
Si Si2 0.150810 0.406971 0.639399
Si Si3 0.750000 0.693979 0.250000
Si Si4 0.660718 0.397495 0.064157
Si Si5 0.832886 0.984684 0.334604
O O1 0.189880 0.267451 0.828033
O O2 0.200260 0.163597 0.895355
O O3 0.000000 0.232029 0.936473
O O4 0.250000 0.250000 0.000000
O O5 0.152513 0.351294 0.699251
O O6 0.160017 0.388792 0.539399
O O7 0.278326 0.450232 0.656090
O O8 0.000000 0.437653 0.652028
O O9 0.500000 0.412979 0.089495
O O10 0.768831 0.447011 0.087990
O O11 0.750000 0.961929 0.250000
O O12 0.000000 0.980978 0.329198
#
# Coordination Sequence:
#
# PCOD9481368 Si02
#       5
#    16  16   8  16  16
#     4  11  25  45  71 103 141 183 230 282 340 408
#     4  11  23  43  70  98 134 176 222 278 341 403
#     4  12  24  42  72 106 134 182 232 282 334 406
#     4  10  23  45  67  96 138 180 221 277 342 399
#     4  12  26  43  67 100 135 174 224 278 339 406
#
# _framework density 21.048926999999999
#
# number of rings (size 3 to 8) (size 9 to 14) (size 15 to 20)
#    0.000    0.889    3.333    3.333    1.556    6.222 
#    0.000    0.000    0.000    0.000    0.000    0.000 
#    0.000    0.000    0.000    0.000    0.000    0.000 
#
# Total GULP energy -201070.276810 kJ/mol
# GULP energy per Si atom -5585.285467 kJ/mol
# Density = 2.100102 g / cm^3
# Si number density = 21.048927 Si / 1000 Ang^3
#
#
#
# Elastic Constant Matrix: (Units=GPa)
#
#
# Indices 1 2 3 4 5 6 
#
# 1 136.8056 59.2049 33.2066 0.0000 0.0000 0.0000
# 2 59.2049 117.3122 47.3172 0.0000 0.0000 0.0000
# 3 33.2066 47.3172 107.3256 0.0000 0.0000 0.0000
# 4 0.0000 0.0000 0.0000 44.1692 0.0000 0.0000
# 5 0.0000 0.0000 0.0000 0.0000 21.2692 0.0000
# 6 0.0000 0.0000 0.0000 0.0000 0.0000 26.1047
#
#
#
# Elastic Compliance Matrix: (Units=1/GPa)
#
#
# Indices 1 2 3 4 5 6 
#
# 1 0.009439 -0.004361 -0.000998 0.000000 0.000000 0.000000
# 2 -0.004361 0.012383 -0.004110 0.000000 0.000000 0.000000
# 3 -0.000998 -0.004110 0.011438 0.000000 0.000000 0.000000
# 4 0.000000 0.000000 0.000000 0.022640 0.000000 0.000000
# 5 0.000000 0.000000 0.000000 0.000000 0.047016 0.000000
# 6 0.000000 0.000000 0.000000 0.000000 0.000000 0.038307
#
#
# Mechanical properties :
#
#
# Convention : Reuss Voigt Hill
#
# Bulk Modulus (GPa) = 69.82084 71.21119 70.51601
# Shear Modulus (GPa) = 30.31469 33.08961 31.70215
#
# Velocity S-wave (km/s) = 3.79912 3.96919 3.88508
# Velocity P-wave (km/s) = 7.24480 7.41017 7.32795
#
# Compressibility (1/GPa) = 0.01432237
#
# Stress axis : x y z
#
# Youngs Moduli (GPa) = 105.94037 80.75525 87.42700
#
# Poissons Ratio (x) = 0.35220 0.08722
# Poissons Ratio (y) = 0.46205 0.35932
# Poissons Ratio (z) = 0.10570 0.33190
#
# Static dielectric constant tensor:
#      x y z
#    x 1.753350 0.000000 0.000000 
#    y 0.000000 1.768540 0.000000 
#    z 0.000000 0.000000 1.811940 
# 
# From -- ./inp_files/21103.got.cif
#   From: 2010.05.17/outbox.cif.g08.bks.cpg/sg64_11_cif.got.tgz:21103.got - 2010.06.03 16:29:19.
