data_PCOD9481903
_publ_section_title
;
Structure prediction by ZEFSAII (Michael W. Deem and Ramdas Pophale) SiO2 
 PCOD9481903
Probable space group: C M C A
;
_chemical_formula_sum "Si O2"
_cell_formula_units_Z 96
_cell_length_a 24.363328
_cell_length_b 11.978976
_cell_length_c 18.110846
_cell_angle_alpha 90.000000
_cell_angle_beta 90.000000
_cell_angle_gamma 90.000000
_cell_volume 5285.609138
_symmetry_space_group_name_H-M "C M C A"
_symmetry_group_IT_number 64
_symmetry_cell_setting 'orthorhombic'
loop_
_space_group_symop_operation_xyz
x,y,z
-x,1/2-y,1/2+z
x,-y,-z
-x,1/2+y,1/2-z
-x,-y,-z
x,1/2+y,1/2-z
-x,y,z
x,1/2-y,1/2+z
1/2+x,1/2+y,z
1/2-x,-y,1/2+z
1/2+x,1/2-y,-z
1/2-x,y,1/2-z
1/2-x,1/2-y,-z
1/2+x,y,1/2-z
1/2-x,1/2+y,z
1/2+x,-y,1/2+z
loop_
_atom_site_type_symbol
_atom_site_label
_atom_site_fract_x
_atom_site_fract_y
_atom_site_fract_z
Si Si1 0.314987 0.830817 0.397040
Si Si2 0.119310 0.954498 0.838840
Si Si3 0.692771 0.881114 0.794406
Si Si4 0.381077 0.255295 0.958142
Si Si5 0.500000 0.188273 0.498458
Si Si6 0.500000 0.488975 0.123034
Si Si7 0.697945 0.935151 0.077373
O O1 0.317734 0.735379 0.335350
O O2 0.344799 0.789170 0.471048
O O3 0.251799 0.859018 0.413490
O O4 0.344871 0.942600 0.369279
O O5 0.145379 0.911523 0.763323
O O6 0.122004 0.855170 0.898848
O O7 0.056372 0.994795 0.833045
O O8 0.750000 0.875996 0.750000
O O9 0.696655 0.976485 0.856521
O O10 0.443965 0.245556 0.984526
O O11 0.355097 0.143979 0.924515
O O12 0.500000 0.127032 0.577782
O O13 0.500000 0.086792 0.439024
O O14 0.701800 0.000000 0.000000
#
# Coordination Sequence:
#
# PCOD9481903 Si02
#       7
#    16  16  16  16   8   8  16
#     4  12  24  40  65  94 126 167 210 266 319 388
#     4  11  23  40  68  95 126 167 213 270 321 375
#     4  12  27  42  59  93 133 171 207 261 330 384
#     4  11  22  41  68  94 127 161 222 266 317 379
#     4   9  18  36  65  98 122 162 212 270 313 369
#     4   9  18  38  64  94 127 160 214 263 314 375
#     4  12  25  42  63  94 130 169 212 262 324 396
#
# _framework density 18.162521999999999
#
# number of rings (size 3 to 8) (size 9 to 14) (size 15 to 20)
#    0.000    0.833    5.000    3.000    4.667    0.000 
#    0.000    2.917    0.000    0.000    0.000    0.000 
#    0.000    0.000    0.000    0.000    0.000    0.000 
#
# Total GULP energy -268380.757241 kJ/mol
# GULP energy per Si atom -5591.265776 kJ/mol
# Density = 1.812118 g / cm^3
# Si number density = 18.162522 Si / 1000 Ang^3
#
#
#
# Elastic Constant Matrix: (Units=GPa)
#
#
# Indices 1 2 3 4 5 6 
#
# 1 118.6978 9.1222 40.6316 0.0000 0.0000 0.0000
# 2 9.1222 50.2406 29.1701 0.0000 0.0000 0.0000
# 3 40.6316 29.1701 112.7495 0.0000 0.0000 0.0000
# 4 0.0000 0.0000 0.0000 28.0899 0.0000 0.0000
# 5 0.0000 0.0000 0.0000 0.0000 -0.3843 0.0000
# 6 0.0000 0.0000 0.0000 0.0000 0.0000 27.5293
#
#
#
# Elastic Compliance Matrix: (Units=1/GPa)
#
#
# Indices 1 2 3 4 5 6 
#
# 1 0.009614 0.000313 -0.003546 0.000000 0.000000 0.000000
# 2 0.000313 0.023433 -0.006175 0.000000 0.000000 0.000000
# 3 -0.003546 -0.006175 0.011745 0.000000 0.000000 0.000000
# 4 0.000000 0.000000 0.000000 0.035600 0.000000 0.000000
# 5 0.000000 0.000000 0.000000 0.000000 -2.602360 0.000000
# 6 0.000000 0.000000 0.000000 0.000000 0.000000 0.036325
#
#
# Mechanical properties :
#
#
# Convention : Reuss Voigt Hill
#
# Bulk Modulus (GPa) = 38.49725 48.83731 43.66728
# Shear Modulus (GPa) = -2.03403 24.56460 11.26528
#
# Velocity S-wave (km/s) = -1.05940 3.68161 2.49318
# Velocity P-wave (km/s) = 4.44360 6.70968 5.69058
#
# Compressibility (1/GPa) = 0.02597588
#
# Stress axis : x y z
#
# Youngs Moduli (GPa) = 104.01007 42.67531 85.14531
#
# Poissons Ratio (x) = -0.01336 0.30190
# Poissons Ratio (y) = -0.03255 0.52579
# Poissons Ratio (z) = 0.36879 0.26353
#
# Static dielectric constant tensor:
#      x y z
#    x 1.623590 0.000000 0.000000 
#    y 0.000000 1.607980 0.000000 
#    z 0.000000 0.000000 1.602240 
# 
# From -- ./inp_files/34980.got.cif
#   From: 2010.05.17/outbox.cif.g08.bks.cpg/sg64_18_cif.got.tgz:34980.got - 2010.06.03 16:29:19.
