data_PCOD9481152
_publ_section_title
;
Structure prediction by ZEFSAII (Michael W. Deem and Ramdas Pophale) SiO2 
 PCOD9481152
Probable space group: C M C A
;
_chemical_formula_sum "Si O2"
_cell_formula_units_Z 116
_cell_length_a 17.055702
_cell_length_b 17.172623
_cell_length_c 17.285650
_cell_angle_alpha 90.000000
_cell_angle_beta 90.000000
_cell_angle_gamma 90.000000
_cell_volume 5062.813742
_symmetry_space_group_name_H-M "C M C A"
_symmetry_group_IT_number 64
_symmetry_cell_setting 'orthorhombic'
loop_
_space_group_symop_operation_xyz
x,y,z
-x,1/2-y,1/2+z
x,-y,-z
-x,1/2+y,1/2-z
-x,-y,-z
x,1/2+y,1/2-z
-x,y,z
x,1/2-y,1/2+z
1/2+x,1/2+y,z
1/2-x,-y,1/2+z
1/2+x,1/2-y,-z
1/2-x,y,1/2-z
1/2-x,1/2-y,-z
1/2+x,y,1/2-z
1/2-x,1/2+y,z
1/2+x,-y,1/2+z
loop_
_atom_site_type_symbol
_atom_site_label
_atom_site_fract_x
_atom_site_fract_y
_atom_site_fract_z
Si Si1 0.621131 0.439524 0.398608
Si Si2 0.172525 0.158824 0.073543
Si Si3 0.801135 0.095684 0.911076
Si Si4 0.176664 0.726628 0.144202
Si Si5 0.584853 0.208138 0.998577
Si Si6 0.500000 0.000000 0.000000
Si Si7 0.909055 0.648895 0.271685
Si Si8 0.155687 0.020601 0.761560
O O1 0.713882 0.440180 0.414007
O O2 0.584498 0.369987 0.449188
O O3 0.569521 0.508979 0.432515
O O4 0.616377 0.428315 0.306232
O O5 0.253939 0.167864 0.119193
O O6 0.155465 0.242250 0.035573
O O7 0.106202 0.147549 0.136787
O O8 0.172495 0.102223 0.000078
O O9 0.799948 0.183901 0.874750
O O10 0.853810 0.048084 0.849997
O O11 0.146461 0.712703 0.230625
O O12 0.104897 0.702655 0.088340
O O13 0.500000 0.246372 0.989795
O O14 0.877446 0.564812 0.245987
O O15 0.000000 0.661027 0.254717
O O16 0.250000 0.021857 0.750000
#
# Coordination Sequence:
#
# PCOD9481152 Si02
#       8
#    16  16  16  16  16   4  16  16
#     4  11  23  39  66 101 137 184 225 281 358 428
#     4  11  22  42  70  99 129 178 239 289 347 423
#     4  10  22  46  71 100 129 183 245 287 340 433
#     4  11  22  41  73 100 131 176 235 294 357 427
#     4  11  21  38  64 100 138 171 213 291 355 425
#     4  12  28  36  64 108 148 186 218 294 384 426
#     4  12  28  44  62  97 139 180 227 300 364 427
#     4  10  25  44  66  95 137 183 236 283 344 441
#
# _framework density 22.912161000000001
#
# number of rings (size 3 to 8) (size 9 to 14) (size 15 to 20)
#    0.000    1.103    3.448    2.897    4.828    3.862 
#    0.000    4.828    0.000    0.000    0.000    0.000 
#    0.000    0.000    0.000    0.000    0.000    0.000 
#
# Total GULP energy -323385.638001 kJ/mol
# GULP energy per Si atom -5575.614448 kJ/mol
# Density = 2.286001 g / cm^3
# Si number density = 22.912161 Si / 1000 Ang^3
#
#
#
# Elastic Constant Matrix: (Units=GPa)
#
#
# Indices 1 2 3 4 5 6 
#
# 1 103.7528 13.4518 51.0592 0.0000 0.0000 0.0000
# 2 13.4518 38.0082 4.9939 0.0000 0.0000 0.0000
# 3 51.0592 4.9939 136.0161 0.0000 0.0000 0.0000
# 4 0.0000 0.0000 0.0000 28.3280 0.0000 0.0000
# 5 0.0000 0.0000 0.0000 0.0000 184.8431 0.0000
# 6 0.0000 0.0000 0.0000 0.0000 0.0000 16.4699
#
#
#
# Elastic Compliance Matrix: (Units=1/GPa)
#
#
# Indices 1 2 3 4 5 6 
#
# 1 0.012339 -0.003777 -0.004493 0.000000 0.000000 0.000000
# 2 -0.003777 0.027594 0.000405 0.000000 0.000000 0.000000
# 3 -0.004493 0.000405 0.009024 0.000000 0.000000 0.000000
# 4 0.000000 0.000000 0.000000 0.035301 0.000000 0.000000
# 5 0.000000 0.000000 0.000000 0.000000 0.005410 0.000000
# 6 0.000000 0.000000 0.000000 0.000000 0.000000 0.060717
#
#
# Mechanical properties :
#
#
# Convention : Reuss Voigt Hill
#
# Bulk Modulus (GPa) = 30.09699 46.30966 38.20333
# Shear Modulus (GPa) = 28.21821 59.81302 44.01562
#
# Velocity S-wave (km/s) = 3.51320 5.11488 4.38774
# Velocity P-wave (km/s) = 5.44253 7.42552 6.50997
#
# Compressibility (1/GPa) = 0.03322591
#
# Stress axis : x y z
#
# Youngs Moduli (GPa) = 81.04223 36.24034 110.81574
#
# Poissons Ratio (x) = 0.13687 0.49794
# Poissons Ratio (y) = 0.30607 -0.04484
# Poissons Ratio (z) = 0.36415 -0.01466
#
# Static dielectric constant tensor:
#      x y z
#    x 1.593920 0.000000 0.000000 
#    y 0.000000 1.998830 0.000000 
#    z 0.000000 0.000000 1.947750 
# 
# From -- ./inp_files/33467.got.cif
#   From: 2010.05.17/outbox.cif.g08.bks.cpg/sg64_17_cif.got.tgz:33467.got - 2010.06.03 16:29:19.
