data_PCOD9481249
_publ_section_title
;
Structure prediction by ZEFSAII (Michael W. Deem and Ramdas Pophale) SiO2 
 PCOD9481249
Probable space group: C M C A
;
_chemical_formula_sum "Si O2"
_cell_formula_units_Z 40
_cell_length_a 27.904081
_cell_length_b 11.480807
_cell_length_c 4.802033
_cell_angle_alpha 90.000000
_cell_angle_beta 90.000000
_cell_angle_gamma 90.000000
_cell_volume 1538.385863
_symmetry_space_group_name_H-M "C M C A"
_symmetry_group_IT_number 64
_symmetry_cell_setting 'orthorhombic'
loop_
_space_group_symop_operation_xyz
x,y,z
-x,1/2-y,1/2+z
x,-y,-z
-x,1/2+y,1/2-z
-x,-y,-z
x,1/2+y,1/2-z
-x,y,z
x,1/2-y,1/2+z
1/2+x,1/2+y,z
1/2-x,-y,1/2+z
1/2+x,1/2-y,-z
1/2-x,y,1/2-z
1/2-x,1/2-y,-z
1/2+x,y,1/2-z
1/2-x,1/2+y,z
1/2+x,-y,1/2+z
loop_
_atom_site_type_symbol
_atom_site_label
_atom_site_fract_x
_atom_site_fract_y
_atom_site_fract_z
Si Si1 0.375800 0.000000 0.000000
Si Si2 0.304420 0.329249 0.195672
Si Si3 0.944612 0.170825 0.177767
O O1 0.341855 0.079495 0.808868
O O2 0.409309 0.923707 0.798920
O O3 0.310144 0.210961 0.378842
O O4 0.250000 0.369895 0.250000
O O5 0.937635 0.288030 0.362462
O O6 0.000000 0.134121 0.213636
#
# Coordination Sequence:
#
# PCOD9481249 Si02
#       3
#     8  16  16
#     4  12  23  40  70  96 122 170 221 260 314 380
#     4  10  24  43  61  88 126 163 206 261 315 369
#     4  10  23  42  63  94 133 167 207 262 320 380
#
# _framework density 26.001279
#
# number of rings (size 3 to 8) (size 9 to 14) (size 15 to 20)
#    0.000    1.600    0.000    3.000    0.000   11.200 
#    0.000    6.000    0.000    0.000    0.000    0.000 
#    0.000    0.000    0.000    0.000    0.000    0.000 
#
# Total GULP energy -112458.479610 kJ/mol
# GULP energy per Si atom -5622.923981 kJ/mol
# Density = 2.594210 g / cm^3
# Si number density = 26.001279 Si / 1000 Ang^3
#
#
#
# Elastic Constant Matrix: (Units=GPa)
#
#
# Indices 1 2 3 4 5 6 
#
# 1 188.7413 96.1658 30.7475 0.0000 0.0000 0.0000
# 2 96.1658 75.2940 0.2996 0.0000 0.0000 0.0000
# 3 30.7475 0.2996 97.1436 0.0000 0.0000 0.0000
# 4 0.0000 0.0000 0.0000 28.8462 0.0000 0.0000
# 5 0.0000 0.0000 0.0000 0.0000 37.0521 0.0000
# 6 0.0000 0.0000 0.0000 0.0000 0.0000 -47.7667
#
#
#
# Elastic Compliance Matrix: (Units=1/GPa)
#
#
# Indices 1 2 3 4 5 6 
#
# 1 0.017722 -0.022613 -0.005540 0.000000 0.000000 0.000000
# 2 -0.022613 0.042134 0.007027 0.000000 0.000000 0.000000
# 3 -0.005540 0.007027 0.012026 0.000000 0.000000 0.000000
# 4 0.000000 0.000000 0.000000 0.034667 0.000000 0.000000
# 5 0.000000 0.000000 0.000000 0.000000 0.026989 0.000000
# 6 0.000000 0.000000 0.000000 0.000000 0.000000 -0.020935
#
#
# Mechanical properties :
#
#
# Convention : Reuss Voigt Hill
#
# Bulk Modulus (GPa) = 33.74697 68.40054 51.07376
# Shear Modulus (GPa) = 30.35264 19.22407 24.78835
#
# Velocity S-wave (km/s) = 3.42036 2.72205 3.09099
# Velocity P-wave (km/s) = 5.34842 6.02023 5.69424
#
# Compressibility (1/GPa) = 0.02963229
#
# Stress axis : x y z
#
# Youngs Moduli (GPa) = 56.42649 23.73355 83.15495
#
# Poissons Ratio (x) = 0.53668 0.46065
# Poissons Ratio (y) = 1.27596 -0.58436
# Poissons Ratio (z) = 0.31258 -0.16678
#
# Static dielectric constant tensor:
#      x y z
#    x 2.001100 0.000000 0.000000 
#    y 0.000000 2.022250 0.000000 
#    z 0.000000 0.000000 1.950580 
# 
# From -- ./inp_files/2498.got.cif
#   From: 2010.05.17/outbox.cif.g08.bks.cpg/sg64_2_cif.got.tgz:2498.got - 2010.06.03 16:29:19.
