data_PCOD9481835
_publ_section_title
;
Structure prediction by ZEFSAII (Michael W. Deem and Ramdas Pophale) SiO2 
 PCOD9481835
Probable space group: C M C A
;
_chemical_formula_sum "Si O2"
_cell_formula_units_Z 112
_cell_length_a 15.344620
_cell_length_b 29.145522
_cell_length_c 14.703484
_cell_angle_alpha 90.000000
_cell_angle_beta 90.000000
_cell_angle_gamma 90.000000
_cell_volume 6575.794448
_symmetry_space_group_name_H-M "C M C A"
_symmetry_group_IT_number 64
_symmetry_cell_setting 'orthorhombic'
loop_
_space_group_symop_operation_xyz
x,y,z
-x,1/2-y,1/2+z
x,-y,-z
-x,1/2+y,1/2-z
-x,-y,-z
x,1/2+y,1/2-z
-x,y,z
x,1/2-y,1/2+z
1/2+x,1/2+y,z
1/2-x,-y,1/2+z
1/2+x,1/2-y,-z
1/2-x,y,1/2-z
1/2-x,1/2-y,-z
1/2+x,y,1/2-z
1/2-x,1/2+y,z
1/2+x,-y,1/2+z
loop_
_atom_site_type_symbol
_atom_site_label
_atom_site_fract_x
_atom_site_fract_y
_atom_site_fract_z
Si Si1 0.904245 0.747016 0.127225
Si Si2 0.899054 0.588657 0.351517
Si Si3 0.898688 0.392360 0.431630
Si Si4 0.765859 0.322742 0.348145
Si Si5 0.399071 0.766571 0.088428
Si Si6 0.150708 0.814801 0.774566
Si Si7 0.894232 0.007296 0.896259
O O1 0.828801 0.778961 0.166279
O O2 0.900103 0.699872 0.183377
O O3 0.000000 0.767540 0.142277
O O4 0.891129 0.742067 0.019565
O O5 0.897117 0.597239 0.460500
O O6 0.858036 0.632598 0.303945
O O7 0.863257 0.536749 0.338816
O O8 0.000000 0.588795 0.323099
O O9 0.825029 0.355327 0.410175
O O10 0.877161 0.439416 0.377083
O O11 0.000000 0.379182 0.410995
O O12 0.750000 0.344767 0.250000
O O13 0.674378 0.303929 0.386313
O O14 0.500000 0.779933 0.107014
O O15 0.380090 0.719920 0.145375
O O16 0.250000 0.806275 0.750000
O O17 0.000000 0.003572 0.897988
O O18 0.863438 0.000000 0.000000
#
# Coordination Sequence:
#
# PCOD9481835 Si02
#       7
#    16  16  16  16  16  16  16
#     4  11  22  36  54  72 100 138 175 217 259 306
#     4   9  17  31  54  79 106 135 162 207 263 315
#     4   9  18  32  55  81 104 133 170 210 257 312
#     4  12  22  34  50  75 101 138 171 213 253 302
#     4  11  23  38  53  69 101 144 178 217 259 301
#     4  12  22  34  50  77 107 139 176 214 261 309
#     4   7  12  27  50  78 105 129 161 203 258 312
#
# _framework density 17.032163000000001
#
# number of rings (size 3 to 8) (size 9 to 14) (size 15 to 20)
#    0.000    1.857    2.857    4.714    2.000    2.857 
#    0.000    0.714    0.000    0.000    0.000    0.000 
#    0.000    5.143    0.000    0.571    0.000    0.000 
#
# Total GULP energy -311792.279347 kJ/mol
# GULP energy per Si atom -5567.719274 kJ/mol
# Density = 1.699340 g / cm^3
# Si number density = 17.032163 Si / 1000 Ang^3
#
#
#
# Elastic Constant Matrix: (Units=GPa)
#
#
# Indices 1 2 3 4 5 6 
#
# 1 93.3468 34.4413 14.1945 0.0000 0.0000 0.0000
# 2 34.4413 100.7638 12.5876 0.0000 0.0000 0.0000
# 3 14.1945 12.5876 52.6701 0.0000 0.0000 0.0000
# 4 0.0000 0.0000 0.0000 19.8833 0.0000 0.0000
# 5 0.0000 0.0000 0.0000 0.0000 15.1234 0.0000
# 6 0.0000 0.0000 0.0000 0.0000 0.0000 14.4373
#
#
#
# Elastic Compliance Matrix: (Units=1/GPa)
#
#
# Indices 1 2 3 4 5 6 
#
# 1 0.012553 -0.003987 -0.002430 0.000000 0.000000 0.000000
# 2 -0.003987 0.011496 -0.001673 0.000000 0.000000 0.000000
# 3 -0.002430 -0.001673 0.020041 0.000000 0.000000 0.000000
# 4 0.000000 0.000000 0.000000 0.050293 0.000000 0.000000
# 5 0.000000 0.000000 0.000000 0.000000 0.066123 0.000000
# 6 0.000000 0.000000 0.000000 0.000000 0.000000 0.069265
#
#
# Mechanical properties :
#
#
# Convention : Reuss Voigt Hill
#
# Bulk Modulus (GPa) = 35.82988 41.02528 38.42758
# Shear Modulus (GPa) = 19.58825 22.25930 20.92377
#
# Velocity S-wave (km/s) = 3.39495 3.61903 3.50878
# Velocity P-wave (km/s) = 6.03737 6.44999 6.24709
#
# Compressibility (1/GPa) = 0.02790966
#
# Stress axis : x y z
#
# Youngs Moduli (GPa) = 79.65971 86.98669 49.89808
#
# Poissons Ratio (x) = 0.34683 0.12126
# Poissons Ratio (y) = 0.31762 0.08347
# Poissons Ratio (z) = 0.19359 0.14552
#
# Static dielectric constant tensor:
#      x y z
#    x 1.292800 0.000000 0.000000 
#    y 0.000000 1.632910 0.000000 
#    z 0.000000 0.000000 1.593390 
# 
# From -- ./inp_files/24372.got.cif
#   From: 2010.05.17/outbox.cif.g08.bks.cpg/sg64_13_cif.got.tgz:24372.got - 2010.06.03 16:29:19.
