data_PCOD9481343
_publ_section_title
;
Structure prediction by ZEFSAII (Michael W. Deem and Ramdas Pophale) SiO2 
 PCOD9481343
Probable space group: C M C A
;
_chemical_formula_sum "Si O2"
_cell_formula_units_Z 48
_cell_length_a 15.369407
_cell_length_b 24.352703
_cell_length_c 5.036273
_cell_angle_alpha 90.000000
_cell_angle_beta 90.000000
_cell_angle_gamma 90.000000
_cell_volume 1885.009518
_symmetry_space_group_name_H-M "C M C A"
_symmetry_group_IT_number 64
_symmetry_cell_setting 'orthorhombic'
loop_
_space_group_symop_operation_xyz
x,y,z
-x,1/2-y,1/2+z
x,-y,-z
-x,1/2+y,1/2-z
-x,-y,-z
x,1/2+y,1/2-z
-x,y,z
x,1/2-y,1/2+z
1/2+x,1/2+y,z
1/2-x,-y,1/2+z
1/2+x,1/2-y,-z
1/2-x,y,1/2-z
1/2-x,1/2-y,-z
1/2+x,y,1/2-z
1/2-x,1/2+y,z
1/2+x,-y,1/2+z
loop_
_atom_site_type_symbol
_atom_site_label
_atom_site_fract_x
_atom_site_fract_y
_atom_site_fract_z
Si Si1 0.699807 0.000000 0.500000
Si Si2 0.338052 0.110195 0.410981
Si Si3 0.394979 0.282065 0.215269
Si Si4 0.000000 0.457100 0.759442
O O1 0.663705 0.057049 0.609328
O O2 0.750000 0.022214 0.250000
O O3 0.250000 0.124301 0.250000
O O4 0.361706 0.162093 0.588608
O O5 0.417661 0.084583 0.236194
O O6 0.500000 0.284726 0.212820
O O7 0.368179 0.233321 0.012596
O O8 0.000000 0.500000 0.500000
O O9 0.000000 0.500000 0.000000
#
# Coordination Sequence:
#
# PCOD9481343 Si02
#       4
#     8  16  16   8
#     4  10  24  41  66 101 138 172 216 275 334 401
#     4  11  25  45  72 101 138 178 226 281 336 403
#     4  10  23  44  67  96 133 176 227 278 332 397
#     4  12  28  44  68 102 140 180 222 269 341 408
#
# _framework density 25.464062999999999
#
# number of rings (size 3 to 8) (size 9 to 14) (size 15 to 20)
#    0.000    1.333    3.333    0.000    9.333    9.333 
#    0.000    0.000    0.000    0.000    0.000    0.000 
#    0.000    0.000    0.000    0.000    0.000    0.000 
#
# Total GULP energy -133736.469675 kJ/mol
# GULP energy per Si atom -5572.352903 kJ/mol
# Density = 2.540611 g / cm^3
# Si number density = 25.464063 Si / 1000 Ang^3
#
#
#
# Elastic Constant Matrix: (Units=GPa)
#
#
# Indices 1 2 3 4 5 6 
#
# 1 115.1759 7.4098 9.8286 0.0000 0.0000 0.0000
# 2 7.4098 105.5762 -18.4243 0.0000 0.0000 0.0000
# 3 9.8286 -18.4243 74.6397 0.0000 0.0000 0.0000
# 4 0.0000 0.0000 0.0000 28.7603 0.0000 0.0000
# 5 0.0000 0.0000 0.0000 0.0000 15.1079 0.0000
# 6 0.0000 0.0000 0.0000 0.0000 0.0000 35.3047
#
#
#
# Elastic Compliance Matrix: (Units=1/GPa)
#
#
# Indices 1 2 3 4 5 6 
#
# 1 0.008856 -0.000862 -0.001379 0.000000 0.000000 0.000000
# 2 -0.000862 0.009982 0.002578 0.000000 0.000000 0.000000
# 3 -0.001379 0.002578 0.014216 0.000000 0.000000 0.000000
# 4 0.000000 0.000000 0.000000 0.034770 0.000000 0.000000
# 5 0.000000 0.000000 0.000000 0.000000 0.066191 0.000000
# 6 0.000000 0.000000 0.000000 0.000000 0.000000 0.028325
#
#
# Mechanical properties :
#
#
# Convention : Reuss Voigt Hill
#
# Bulk Modulus (GPa) = 29.65057 32.55778 31.10417
# Shear Modulus (GPa) = 28.91711 35.60641 32.26176
#
# Velocity S-wave (km/s) = 3.37353 3.74344 3.56329
# Velocity P-wave (km/s) = 5.18108 5.61231 5.40100
#
# Compressibility (1/GPa) = 0.03372616
#
# Stress axis : x y z
#
# Youngs Moduli (GPa) = 112.92405 100.17873 70.34562
#
# Poissons Ratio (x) = 0.08637 0.09700
# Poissons Ratio (y) = 0.09736 -0.18132
# Poissons Ratio (z) = 0.15571 -0.25822
#
# Static dielectric constant tensor:
#      x y z
#    x 2.752170 0.000000 0.000000 
#    y 0.000000 2.018590 0.000000 
#    z 0.000000 0.000000 2.157260 
# 
# From -- ./inp_files/1110.got.cif
#   From: 2010.05.17/outbox.cif.g08.bks.cpg/sg64_1_cif.got.tgz:1110.got - 2010.06.03 16:29:19.
