data_PCOD9481597
_publ_section_title
;
Structure prediction by ZEFSAII (Michael W. Deem and Ramdas Pophale) SiO2 
 PCOD9481597
Probable space group: C M C A
;
_chemical_formula_sum "Si O2"
_cell_formula_units_Z 48
_cell_length_a 9.189798
_cell_length_b 19.840514
_cell_length_c 11.739487
_cell_angle_alpha 90.000000
_cell_angle_beta 90.000000
_cell_angle_gamma 90.000000
_cell_volume 2140.464373
_symmetry_space_group_name_H-M "C M C A"
_symmetry_group_IT_number 64
_symmetry_cell_setting 'orthorhombic'
loop_
_space_group_symop_operation_xyz
x,y,z
-x,1/2-y,1/2+z
x,-y,-z
-x,1/2+y,1/2-z
-x,-y,-z
x,1/2+y,1/2-z
-x,y,z
x,1/2-y,1/2+z
1/2+x,1/2+y,z
1/2-x,-y,1/2+z
1/2+x,1/2-y,-z
1/2-x,y,1/2-z
1/2-x,1/2-y,-z
1/2+x,y,1/2-z
1/2-x,1/2+y,z
1/2+x,-y,1/2+z
loop_
_atom_site_type_symbol
_atom_site_label
_atom_site_fract_x
_atom_site_fract_y
_atom_site_fract_z
Si Si1 0.250000 0.005639 0.750000
Si Si2 0.750000 0.198389 0.250000
Si Si3 0.500000 0.827821 0.913196
Si Si4 0.500000 0.558630 0.594637
Si Si5 0.000000 0.716021 0.414980
Si Si6 0.000000 0.055568 0.099584
O O1 0.357067 0.049496 0.828638
O O2 0.142768 0.961353 0.827096
O O3 0.638936 0.160470 0.166210
O O4 0.640614 0.235107 0.338115
O O5 0.500000 0.873757 0.023194
O O6 0.500000 0.752531 0.963964
O O7 0.500000 0.500000 0.500000
O O8 0.000000 0.634698 0.430802
O O9 0.000000 0.000000 0.000000
#
# Coordination Sequence:
#
# PCOD9481597 Si02
#       6
#     8   8   8   8   8   8
#     4  10  25  45  64 106 137 177 224 286 333 403
#     4  10  25  45  70  98 139 179 228 276 345 411
#     4  11  26  47  70 104 131 186 228 283 340 404
#     4  11  26  43  72  98 143 178 233 277 344 405
#     4  11  24  44  71  99 134 179 229 278 338 407
#     4  11  24  42  69  96 138 179 225 274 342 396
#
# _framework density 22.425041
#
# number of rings (size 3 to 8) (size 9 to 14) (size 15 to 20)
#    0.000    1.333    0.000    3.000   18.667    1.333 
#   12.000    0.000    0.000    0.000    0.000    0.000 
#    0.000    0.000    0.000    0.000    0.000    0.000 
#
# Total GULP energy -134264.615144 kJ/mol
# GULP energy per Si atom -5594.358964 kJ/mol
# Density = 2.237400 g / cm^3
# Si number density = 22.425041 Si / 1000 Ang^3
#
#
#
# Elastic Constant Matrix: (Units=GPa)
#
#
# Indices 1 2 3 4 5 6 
#
# 1 209.9146 44.9679 87.6494 0.0000 0.0000 0.0000
# 2 44.9679 109.9422 76.7598 0.0000 0.0000 0.0000
# 3 87.6494 76.7598 155.8509 0.0000 0.0000 0.0000
# 4 0.0000 0.0000 0.0000 50.8200 0.0000 0.0000
# 5 0.0000 0.0000 0.0000 0.0000 -7.7429 0.0000
# 6 0.0000 0.0000 0.0000 0.0000 0.0000 54.3896
#
#
#
# Elastic Compliance Matrix: (Units=1/GPa)
#
#
# Indices 1 2 3 4 5 6 
#
# 1 0.006228 -0.000155 -0.003426 0.000000 0.000000 0.000000
# 2 -0.000155 0.013867 -0.006742 0.000000 0.000000 0.000000
# 3 -0.003426 -0.006742 0.011664 0.000000 0.000000 0.000000
# 4 0.000000 0.000000 0.000000 0.019677 0.000000 0.000000
# 5 0.000000 0.000000 0.000000 0.000000 -0.129151 0.000000
# 6 0.000000 0.000000 0.000000 0.000000 0.000000 0.018386
#
#
# Mechanical properties :
#
#
# Convention : Reuss Voigt Hill
#
# Bulk Modulus (GPa) = 90.00001 99.38466 94.69233
# Shear Modulus (GPa) = -142.93920 37.24874 -52.84523
#
# Velocity S-wave (km/s) = -7.99245 4.08000 -4.85967
# Velocity P-wave (km/s) = 6.70459 8.16150 3.29078
#
# Compressibility (1/GPa) = 0.01111111
#
# Stress axis : x y z
#
# Youngs Moduli (GPa) = 160.57644 72.11621 85.73577
#
# Poissons Ratio (x) = 0.01120 0.29372
# Poissons Ratio (y) = 0.02494 0.57805
# Poissons Ratio (z) = 0.55011 0.48622
#
# Static dielectric constant tensor:
#      x y z
#    x 1.854070 0.000000 0.000000 
#    y 0.000000 1.921770 0.000000 
#    z 0.000000 0.000000 1.805710 
# 
# From -- ./inp_files/11832.got.cif
#   From: 2010.05.17/outbox.cif.g08.bks.cpg/sg64_6_cif.got.tgz:11832.got - 2010.06.03 16:29:19.
