data_PCOD9481914
_publ_section_title
;
Structure prediction by ZEFSAII (Michael W. Deem and Ramdas Pophale) SiO2 
 PCOD9481914
Probable space group: C M C A
;
_chemical_formula_sum "Si O2"
_cell_formula_units_Z 112
_cell_length_a 15.729914
_cell_length_b 10.955241
_cell_length_c 30.405622
_cell_angle_alpha 90.000000
_cell_angle_beta 90.000000
_cell_angle_gamma 90.000000
_cell_volume 5239.648774
_symmetry_space_group_name_H-M "C M C A"
_symmetry_group_IT_number 64
_symmetry_cell_setting 'orthorhombic'
loop_
_space_group_symop_operation_xyz
x,y,z
-x,1/2-y,1/2+z
x,-y,-z
-x,1/2+y,1/2-z
-x,-y,-z
x,1/2+y,1/2-z
-x,y,z
x,1/2-y,1/2+z
1/2+x,1/2+y,z
1/2-x,-y,1/2+z
1/2+x,1/2-y,-z
1/2-x,y,1/2-z
1/2-x,1/2-y,-z
1/2+x,y,1/2-z
1/2-x,1/2+y,z
1/2+x,-y,1/2+z
loop_
_atom_site_type_symbol
_atom_site_label
_atom_site_fract_x
_atom_site_fract_y
_atom_site_fract_z
Si Si1 0.403232 0.883139 0.899021
Si Si2 0.176737 0.260492 0.667898
Si Si3 0.902403 0.018963 0.682788
Si Si4 0.664712 0.508706 0.229104
Si Si5 0.757274 0.375690 0.972642
Si Si6 0.100468 0.911390 0.909484
Si Si7 0.639710 0.646173 0.850846
O O1 0.500000 0.914399 0.914309
O O2 0.362128 0.977026 0.863371
O O3 0.334995 0.865321 0.937704
O O4 0.409392 0.761475 0.869524
O O5 0.191091 0.376901 0.699009
O O6 0.123570 0.307499 0.626173
O O7 0.264186 0.196614 0.653624
O O8 0.122186 0.157706 0.691940
O O9 0.884385 0.948049 0.727687
O O10 0.000000 0.007370 0.672931
O O11 0.750000 0.452331 0.250000
O O12 0.619080 0.413617 0.196630
O O13 0.666269 0.392743 0.948855
O O14 0.772825 0.500000 0.000000
O O15 0.750000 0.250000 0.000000
O O16 0.000000 0.909932 0.920122
O O17 0.125166 0.038094 0.885583
#
# Coordination Sequence:
#
# PCOD9481914 Si02
#       7
#    16  16  16  16  16  16  16
#     4  11  25  46  72 102 139 186 232 288 363 432
#     4  11  23  41  67  94 138 185 236 288 346 420
#     4  11  25  40  62  95 136 181 234 293 345 413
#     4  11  24  37  62  97 132 185 240 286 342 400
#     4  12  28  48  77 109 143 183 236 302 370 447
#     4  11  25  46  75 106 141 183 229 287 362 435
#     4  11  22  42  71 100 140 183 237 287 342 426
#
# _framework density 21.375478000000001
#
# number of rings (size 3 to 8) (size 9 to 14) (size 15 to 20)
#    0.000    0.857    2.857    3.429    6.000    4.571 
#    0.000    0.000    0.000    0.000    0.000    0.000 
#    0.000    0.000    0.000    0.000    0.000    0.000 
#
# Total GULP energy -312633.225412 kJ/mol
# GULP energy per Si atom -5582.736168 kJ/mol
# Density = 2.132683 g / cm^3
# Si number density = 21.375478 Si / 1000 Ang^3
#
#
#
# Elastic Constant Matrix: (Units=GPa)
#
#
# Indices 1 2 3 4 5 6 
#
# 1 118.5262 25.1393 58.8353 0.0000 0.0000 0.0000
# 2 25.1393 82.7579 46.8339 0.0000 0.0000 0.0000
# 3 58.8353 46.8339 116.9815 0.0000 0.0000 0.0000
# 4 0.0000 0.0000 0.0000 27.0876 0.0000 0.0000
# 5 0.0000 0.0000 0.0000 0.0000 8.7400 0.0000
# 6 0.0000 0.0000 0.0000 0.0000 0.0000 14.8837
#
#
#
# Elastic Compliance Matrix: (Units=1/GPa)
#
#
# Indices 1 2 3 4 5 6 
#
# 1 0.011249 -0.000278 -0.005546 0.000000 0.000000 0.000000
# 2 -0.000278 0.015630 -0.006117 0.000000 0.000000 0.000000
# 3 -0.005546 -0.006117 0.013787 0.000000 0.000000 0.000000
# 4 0.000000 0.000000 0.000000 0.036917 0.000000 0.000000
# 5 0.000000 0.000000 0.000000 0.000000 0.114417 0.000000
# 6 0.000000 0.000000 0.000000 0.000000 0.000000 0.067188
#
#
# Mechanical properties :
#
#
# Convention : Reuss Voigt Hill
#
# Bulk Modulus (GPa) = 59.58842 64.43140 62.00991
# Shear Modulus (GPa) = 17.32107 22.63941 19.98024
#
# Velocity S-wave (km/s) = 2.84971 3.25796 3.06065
# Velocity P-wave (km/s) = 6.22618 6.66037 6.44693
#
# Compressibility (1/GPa) = 0.01678178
#
# Stress axis : x y z
#
# Youngs Moduli (GPa) = 88.89613 63.97962 72.53244
#
# Poissons Ratio (x) = 0.01781 0.40228
# Poissons Ratio (y) = 0.02475 0.44371
# Poissons Ratio (z) = 0.49304 0.39139
#
# Static dielectric constant tensor:
#      x y z
#    x 2.090530 0.000000 0.000000 
#    y 0.000000 1.817460 0.000000 
#    z 0.000000 0.000000 1.821980 
# 
# From -- ./inp_files/53241.got.cif
#   From: 2010.05.17/outbox.cif.g08.bks.cpg/sg64_27_cif.got.tgz:53241.got - 2010.06.03 16:29:19.
