data_PCOD9481270
_publ_section_title
;
Structure prediction by ZEFSAII (Michael W. Deem and Ramdas Pophale) SiO2 
 PCOD9481270
Probable space group: C M C A
;
_chemical_formula_sum "Si O2"
_cell_formula_units_Z 56
_cell_length_a 15.878544
_cell_length_b 18.538780
_cell_length_c 9.380966
_cell_angle_alpha 90.000000
_cell_angle_beta 90.000000
_cell_angle_gamma 90.000000
_cell_volume 2761.464023
_symmetry_space_group_name_H-M "C M C A"
_symmetry_group_IT_number 64
_symmetry_cell_setting 'orthorhombic'
loop_
_space_group_symop_operation_xyz
x,y,z
-x,1/2-y,1/2+z
x,-y,-z
-x,1/2+y,1/2-z
-x,-y,-z
x,1/2+y,1/2-z
-x,y,z
x,1/2-y,1/2+z
1/2+x,1/2+y,z
1/2-x,-y,1/2+z
1/2+x,1/2-y,-z
1/2-x,y,1/2-z
1/2-x,1/2-y,-z
1/2+x,y,1/2-z
1/2-x,1/2+y,z
1/2+x,-y,1/2+z
loop_
_atom_site_type_symbol
_atom_site_label
_atom_site_fract_x
_atom_site_fract_y
_atom_site_fract_z
Si Si1 0.819950 0.790511 0.088906
Si Si2 0.595445 0.186149 0.310741
Si Si3 0.750000 0.922864 0.250000
Si Si4 0.900272 0.017623 0.170012
O O1 0.651527 0.742277 0.277843
O O2 0.779062 0.866928 0.128677
O O3 0.750000 0.750000 0.000000
O O4 0.896186 0.799988 0.979213
O O5 0.500000 0.196097 0.263140
O O6 0.617170 0.101639 0.296162
O O7 0.833353 0.971876 0.262187
O O8 0.000000 0.003023 0.198736
O O9 0.887715 0.000000 0.000000
#
# Coordination Sequence:
#
# PCOD9481270 Si02
#       4
#    16  16   8  16
#     4  12  24  43  64 100 131 171 223 271 336 393
#     4  11  24  44  69  95 132 175 224 275 326 400
#     4  12  24  38  70  98 134 174 218 286 332 400
#     4  10  23  42  66  97 133 178 223 269 335 403
#
# _framework density 20.279098999999999
#
# number of rings (size 3 to 8) (size 9 to 14) (size 15 to 20)
#    0.000    0.857    5.714    0.857    4.000    1.143 
#    0.000    0.000    0.000    4.286    0.000    0.000 
#    0.000    0.000    0.000    0.000    0.000    0.000 
#
# Total GULP energy -156141.414862 kJ/mol
# GULP energy per Si atom -5576.479102 kJ/mol
# Density = 2.023294 g / cm^3
# Si number density = 20.279099 Si / 1000 Ang^3
#
#
#
# Elastic Constant Matrix: (Units=GPa)
#
#
# Indices 1 2 3 4 5 6 
#
# 1 105.8573 80.1638 38.3589 0.0000 0.0000 0.0000
# 2 80.1638 128.1220 45.7820 0.0000 0.0000 0.0000
# 3 38.3589 45.7820 77.5740 0.0000 0.0000 0.0000
# 4 0.0000 0.0000 0.0000 -19.2032 0.0000 0.0000
# 5 0.0000 0.0000 0.0000 0.0000 29.5384 0.0000
# 6 0.0000 0.0000 0.0000 0.0000 0.0000 24.7325
#
#
#
# Elastic Compliance Matrix: (Units=1/GPa)
#
#
# Indices 1 2 3 4 5 6 
#
# 1 0.018464 -0.010506 -0.002930 0.000000 0.000000 0.000000
# 2 -0.010506 0.015869 -0.004170 0.000000 0.000000 0.000000
# 3 -0.002930 -0.004170 0.016801 0.000000 0.000000 0.000000
# 4 0.000000 0.000000 0.000000 -0.052075 0.000000 0.000000
# 5 0.000000 0.000000 0.000000 0.000000 0.033854 0.000000
# 6 0.000000 0.000000 0.000000 0.000000 0.000000 0.040433
#
#
# Mechanical properties :
#
#
# Convention : Reuss Voigt Hill
#
# Bulk Modulus (GPa) = 62.80771 71.12918 66.96844
# Shear Modulus (GPa) = 43.91164 16.83013 30.37088
#
# Velocity S-wave (km/s) = 4.65840 2.88397 3.87414
# Velocity P-wave (km/s) = 7.74423 6.80007 7.28746
#
# Compressibility (1/GPa) = 0.01592161
#
# Stress axis : x y z
#
# Youngs Moduli (GPa) = 54.15879 63.01790 59.52059
#
# Poissons Ratio (x) = 0.66205 0.17440
# Poissons Ratio (y) = 0.56898 0.24822
# Poissons Ratio (z) = 0.15869 0.26280
#
# Static dielectric constant tensor:
#      x y z
#    x 1.757320 0.000000 0.000000 
#    y 0.000000 1.789890 0.000000 
#    z 0.000000 0.000000 1.745700 
# 
# From -- ./inp_files/13937.got.cif
#   From: 2010.05.17/outbox.cif.g08.bks.cpg/sg64_7_cif.got.tgz:13937.got - 2010.06.03 16:29:19.
