data_PCOD9481706
_publ_section_title
;
Structure prediction by ZEFSAII (Michael W. Deem and Ramdas Pophale) SiO2 
 PCOD9481706
Probable space group: C M C A
;
_chemical_formula_sum "Si O2"
_cell_formula_units_Z 72
_cell_length_a 19.050317
_cell_length_b 16.030302
_cell_length_c 13.511280
_cell_angle_alpha 90.000000
_cell_angle_beta 90.000000
_cell_angle_gamma 90.000000
_cell_volume 4126.106231
_symmetry_space_group_name_H-M "C M C A"
_symmetry_group_IT_number 64
_symmetry_cell_setting 'orthorhombic'
loop_
_space_group_symop_operation_xyz
x,y,z
-x,1/2-y,1/2+z
x,-y,-z
-x,1/2+y,1/2-z
-x,-y,-z
x,1/2+y,1/2-z
-x,y,z
x,1/2-y,1/2+z
1/2+x,1/2+y,z
1/2-x,-y,1/2+z
1/2+x,1/2-y,-z
1/2-x,y,1/2-z
1/2-x,1/2-y,-z
1/2+x,y,1/2-z
1/2-x,1/2+y,z
1/2+x,-y,1/2+z
loop_
_atom_site_type_symbol
_atom_site_label
_atom_site_fract_x
_atom_site_fract_y
_atom_site_fract_z
Si Si1 0.916752 0.155057 0.602498
Si Si2 0.154119 0.000000 0.500000
Si Si3 0.724709 0.941611 0.646943
Si Si4 0.324742 0.202574 0.494140
Si Si5 0.173231 0.121877 0.795222
O O1 0.881250 0.235641 0.552722
O O2 0.882972 0.139913 0.710483
O O3 0.000000 0.161798 0.607236
O O4 0.892308 0.076476 0.536657
O O5 0.206593 0.027344 0.412233
O O6 0.750000 0.901556 0.750000
O O7 0.685405 0.877336 0.576484
O O8 0.680561 0.024140 0.675289
O O9 0.250000 0.250000 0.500000
O O10 0.341166 0.172400 0.604867
O O11 0.250000 0.144214 0.750000
#
# Coordination Sequence:
#
# PCOD9481706 Si02
#       5
#    16   8  16  16  16
#     4  12  27  42  61  97 138 170 205 264 335 386
#     4  12  19  42  66  94 123 168 210 270 311 378
#     4  11  20  36  68 100 118 157 225 268 309 363
#     4  12  22  37  67  96 128 162 216 270 314 378
#     4  11  20  41  65  91 125 168 218 265 309 380
#
# _framework density 17.449866
#
# number of rings (size 3 to 8) (size 9 to 14) (size 15 to 20)
#    0.000    0.444   11.111    0.333    3.111    0.889 
#    0.000    1.111    0.000    2.667    0.000    0.000 
#    0.000    0.000    0.000    0.000    0.000    0.000 
#
# Total GULP energy -201182.592126 kJ/mol
# GULP energy per Si atom -5588.405337 kJ/mol
# Density = 1.741015 g / cm^3
# Si number density = 17.449866 Si / 1000 Ang^3
#
#
#
# Elastic Constant Matrix: (Units=GPa)
#
#
# Indices 1 2 3 4 5 6 
#
# 1 144.5142 76.2340 63.8804 0.0000 0.0000 0.0000
# 2 76.2340 113.3190 75.1889 0.0000 0.0000 0.0000
# 3 63.8804 75.1889 155.3363 0.0000 0.0000 0.0000
# 4 0.0000 0.0000 0.0000 28.6430 0.0000 0.0000
# 5 0.0000 0.0000 0.0000 0.0000 21.8088 0.0000
# 6 0.0000 0.0000 0.0000 0.0000 0.0000 14.5696
#
#
#
# Elastic Compliance Matrix: (Units=1/GPa)
#
#
# Indices 1 2 3 4 5 6 
#
# 1 0.010923 -0.006434 -0.001377 0.000000 0.000000 0.000000
# 2 -0.006434 0.016790 -0.005481 0.000000 0.000000 0.000000
# 3 -0.001377 -0.005481 0.009657 0.000000 0.000000 0.000000
# 4 0.000000 0.000000 0.000000 0.034913 0.000000 0.000000
# 5 0.000000 0.000000 0.000000 0.000000 0.045853 0.000000
# 6 0.000000 0.000000 0.000000 0.000000 0.000000 0.068636
#
#
# Mechanical properties :
#
#
# Convention : Reuss Voigt Hill
#
# Bulk Modulus (GPa) = 92.72563 93.75292 93.23928
# Shear Modulus (GPa) = 23.04658 26.19534 24.62096
#
# Velocity S-wave (km/s) = 3.63813 3.87871 3.76034
# Velocity P-wave (km/s) = 8.42031 8.59667 8.50895
#
# Compressibility (1/GPa) = 0.01078450
#
# Stress axis : x y z
#
# Youngs Moduli (GPa) = 91.55166 59.55963 103.55044
#
# Poissons Ratio (x) = 0.38322 0.14264
# Poissons Ratio (y) = 0.58906 0.56756
# Poissons Ratio (z) = 0.12611 0.32645
#
# Static dielectric constant tensor:
#      x y z
#    x 1.548320 0.000000 0.000000 
#    y 0.000000 1.609980 0.000000 
#    z 0.000000 0.000000 1.603660 
# 
# From -- ./inp_files/15764.got.cif
#   From: 2010.05.17/outbox.cif.g08.bks.cpg/sg64_8_cif.got.tgz:15764.got - 2010.06.03 16:29:19.
