data_PCOD9481382
_publ_section_title
;
Structure prediction by ZEFSAII (Michael W. Deem and Ramdas Pophale) SiO2 
 PCOD9481382
Probable space group: C M C A
;
_chemical_formula_sum "Si O2"
_cell_formula_units_Z 68
_cell_length_a 19.421144
_cell_length_b 14.100187
_cell_length_c 10.852177
_cell_angle_alpha 90.000000
_cell_angle_beta 90.000000
_cell_angle_gamma 90.000000
_cell_volume 2971.779273
_symmetry_space_group_name_H-M "C M C A"
_symmetry_group_IT_number 64
_symmetry_cell_setting 'orthorhombic'
loop_
_space_group_symop_operation_xyz
x,y,z
-x,1/2-y,1/2+z
x,-y,-z
-x,1/2+y,1/2-z
-x,-y,-z
x,1/2+y,1/2-z
-x,y,z
x,1/2-y,1/2+z
1/2+x,1/2+y,z
1/2-x,-y,1/2+z
1/2+x,1/2-y,-z
1/2-x,y,1/2-z
1/2-x,1/2-y,-z
1/2+x,y,1/2-z
1/2-x,1/2+y,z
1/2+x,-y,1/2+z
loop_
_atom_site_type_symbol
_atom_site_label
_atom_site_fract_x
_atom_site_fract_y
_atom_site_fract_z
Si Si1 0.077125 0.013273 0.357668
Si Si2 0.500000 0.500000 0.000000
Si Si3 0.640046 0.665623 0.704779
Si Si4 0.729023 0.350756 0.054444
Si Si5 0.124247 0.117336 0.135767
O O1 0.078654 0.908789 0.298475
O O2 0.000000 0.054282 0.350668
O O3 0.093718 0.000000 0.500000
O O4 0.126127 0.076345 0.273828
O O5 0.560816 0.432971 0.933711
O O6 0.671455 0.668641 0.841237
O O7 0.701505 0.618407 0.623054
O O8 0.620255 0.768438 0.651982
O O9 0.750000 0.250000 0.000000
O O10 0.693151 0.404377 0.941827
#
# Coordination Sequence:
#
# PCOD9481382 Si02
#       5
#    16   4  16  16  16
#     4  11  26  47  66 106 150 189 248 298 374 452
#     4  12  24  44  66 120 134 186 258 288 374 436
#     4  10  23  46  72 104 142 197 236 303 385 427
#     4   9  21  44  71 106 141 184 248 298 367 448
#     4  11  24  44  72 102 148 186 243 316 350 453
#
# _framework density 22.881913999999998
#
# number of rings (size 3 to 8) (size 9 to 14) (size 15 to 20)
#    0.000    1.647    1.176    1.412    8.235    0.000 
#   10.588    0.000    0.000    0.000    0.000    0.000 
#    0.000    0.000    0.000    0.000    0.000    0.000 
#
# Total GULP energy -189320.376217 kJ/mol
# GULP energy per Si atom -5568.246359 kJ/mol
# Density = 2.282983 g / cm^3
# Si number density = 22.881914 Si / 1000 Ang^3
#
#
#
# Elastic Constant Matrix: (Units=GPa)
#
#
# Indices 1 2 3 4 5 6 
#
# 1 89.5821 21.6917 65.5827 0.0000 0.0000 0.0000
# 2 21.6917 73.1595 12.8886 0.0000 0.0000 0.0000
# 3 65.5827 12.8886 127.5898 0.0000 0.0000 0.0000
# 4 0.0000 0.0000 0.0000 46.5689 0.0000 0.0000
# 5 0.0000 0.0000 0.0000 0.0000 1.3528 0.0000
# 6 0.0000 0.0000 0.0000 0.0000 0.0000 24.2792
#
#
#
# Elastic Compliance Matrix: (Units=1/GPa)
#
#
# Indices 1 2 3 4 5 6 
#
# 1 0.018971 -0.003978 -0.009349 0.000000 0.000000 0.000000
# 2 -0.003978 0.014750 0.000555 0.000000 0.000000 0.000000
# 3 -0.009349 0.000555 0.012587 0.000000 0.000000 0.000000
# 4 0.000000 0.000000 0.000000 0.021474 0.000000 0.000000
# 5 0.000000 0.000000 0.000000 0.000000 0.739185 0.000000
# 6 0.000000 0.000000 0.000000 0.000000 0.000000 0.041188
#
#
# Mechanical properties :
#
#
# Convention : Reuss Voigt Hill
#
# Bulk Modulus (GPa) = 48.16158 54.51748 51.33953
# Shear Modulus (GPa) = 5.67781 27.11807 16.39794
#
# Velocity S-wave (km/s) = 1.57694 3.44631 2.67990
# Velocity P-wave (km/s) = 4.94057 6.30185 5.66227
#
# Compressibility (1/GPa) = 0.02076344
#
# Stress axis : x y z
#
# Youngs Moduli (GPa) = 52.71263 67.79455 79.44513
#
# Poissons Ratio (x) = 0.26967 0.74276
# Poissons Ratio (y) = 0.20968 -0.04406
# Poissons Ratio (z) = 0.49283 -0.03760
#
# Static dielectric constant tensor:
#      x y z
#    x 1.859000 0.000000 0.000000 
#    y 0.000000 1.848240 0.000000 
#    z 0.000000 0.000000 1.884350 
# 
# From -- ./inp_files/16967.got.cif
#   From: 2010.05.17/outbox.cif.g08.bks.cpg/sg64_9_cif.got.tgz:16967.got - 2010.06.03 16:29:19.
