data_PCOD9481226
_publ_section_title
;
Structure prediction by ZEFSAII (Michael W. Deem and Ramdas Pophale) SiO2 
 PCOD9481226
Probable space group: C M C A
;
_chemical_formula_sum "Si O2"
_cell_formula_units_Z 112
_cell_length_a 26.656612
_cell_length_b 12.483039
_cell_length_c 12.286134
_cell_angle_alpha 90.000000
_cell_angle_beta 90.000000
_cell_angle_gamma 90.000000
_cell_volume 4088.278996
_symmetry_space_group_name_H-M "C M C A"
_symmetry_group_IT_number 64
_symmetry_cell_setting 'orthorhombic'
loop_
_space_group_symop_operation_xyz
x,y,z
-x,1/2-y,1/2+z
x,-y,-z
-x,1/2+y,1/2-z
-x,-y,-z
x,1/2+y,1/2-z
-x,y,z
x,1/2-y,1/2+z
1/2+x,1/2+y,z
1/2-x,-y,1/2+z
1/2+x,1/2-y,-z
1/2-x,y,1/2-z
1/2-x,1/2-y,-z
1/2+x,y,1/2-z
1/2-x,1/2+y,z
1/2+x,-y,1/2+z
loop_
_atom_site_type_symbol
_atom_site_label
_atom_site_fract_x
_atom_site_fract_y
_atom_site_fract_z
Si Si1 0.056086 0.363931 0.920918
Si Si2 0.094156 0.407535 0.686472
Si Si3 0.085354 0.374445 0.386525
Si Si4 0.182491 0.713165 0.521740
Si Si5 0.805605 0.601806 0.202509
Si Si6 0.275951 0.874364 0.131600
Si Si7 0.939462 0.170608 0.654569
O O1 0.081014 0.411136 0.814997
O O2 0.054645 0.233825 0.908105
O O3 0.134153 0.141204 0.959581
O O4 0.076694 0.381672 0.041150
O O5 0.069519 0.502543 0.617153
O O6 0.069958 0.297342 0.647236
O O7 0.000000 0.404351 0.919800
O O8 0.154480 0.588300 0.300881
O O9 0.094254 0.363114 0.256255
O O10 0.180288 0.802356 0.619673
O O11 0.231034 0.640399 0.544345
O O12 0.187411 0.780970 0.411110
O O13 0.750000 0.620236 0.250000
O O14 0.801431 0.489562 0.138072
O O15 0.250000 0.859048 0.250000
O O16 0.000000 0.152955 0.672627
#
# Coordination Sequence:
#
# PCOD9481226 Si02
#       7
#    16  16  16  16  16  16  16
#     4  10  23  44  69 100 141 189 238 296 374 451
#     4  11  23  43  68 104 141 181 244 303 364 442
#     4  11  22  40  70 104 140 187 236 306 362 438
#     4  11  22  43  66  98 138 189 241 299 368 424
#     4  11  22  42  67  99 139 187 238 297 363 432
#     4  10  23  41  65  95 134 185 246 294 354 424
#     4  10  23  45  70 103 147 189 238 302 374 447
#
# _framework density 27.395391
#
# number of rings (size 3 to 8) (size 9 to 14) (size 15 to 20)
#    0.000    1.429    2.857    4.286    0.000    5.714 
#    7.714    2.857    3.143    0.000    0.000    0.000 
#    0.000    0.000    0.000    0.000    0.000    0.000 
#
# Total GULP energy -313781.283486 kJ/mol
# GULP energy per Si atom -5603.237205 kJ/mol
# Density = 2.733304 g / cm^3
# Si number density = 27.395391 Si / 1000 Ang^3
#
#
#
# Elastic Constant Matrix: (Units=GPa)
#
#
# Indices 1 2 3 4 5 6 
#
# 1 86.4948 0.9616 14.4917 0.0000 0.0000 0.0000
# 2 0.9616 142.4416 13.5743 0.0000 0.0000 0.0000
# 3 14.4917 13.5743 155.2137 0.0000 0.0000 0.0000
# 4 0.0000 0.0000 0.0000 46.3695 0.0000 0.0000
# 5 0.0000 0.0000 0.0000 0.0000 34.6640 0.0000
# 6 0.0000 0.0000 0.0000 0.0000 0.0000 -14.7274
#
#
#
# Elastic Compliance Matrix: (Units=1/GPa)
#
#
# Indices 1 2 3 4 5 6 
#
# 1 0.011745 0.000025 -0.001099 0.000000 0.000000 0.000000
# 2 0.000025 0.007079 -0.000622 0.000000 0.000000 0.000000
# 3 -0.001099 -0.000622 0.006600 0.000000 0.000000 0.000000
# 4 0.000000 0.000000 0.000000 0.021566 0.000000 0.000000
# 5 0.000000 0.000000 0.000000 0.000000 0.028848 0.000000
# 6 0.000000 0.000000 0.000000 0.000000 0.000000 -0.067901
#
#
# Mechanical properties :
#
#
# Convention : Reuss Voigt Hill
#
# Bulk Modulus (GPa) = 45.38332 49.13394 47.25863
# Shear Modulus (GPa) = 267.77149 36.93604 152.35377
#
# Velocity S-wave (km/s) = 9.89724 3.67585 7.46550
# Velocity P-wave (km/s) = 12.13298 5.99915 9.57077
#
# Compressibility (1/GPa) = 0.02203453
#
# Stress axis : x y z
#
# Youngs Moduli (GPa) = 85.14106 141.25335 151.52256
#
# Poissons Ratio (x) = -0.00359 0.16650
# Poissons Ratio (y) = -0.00216 0.09417
# Poissons Ratio (z) = 0.09356 0.08779
#
# Static dielectric constant tensor:
#      x y z
#    x 2.153460 0.000000 0.000000 
#    y 0.000000 2.192290 0.000000 
#    z 0.000000 0.000000 2.150860 
# 
# From -- ./inp_files/28109.got.cif
#   From: 2010.05.17/outbox.cif.g08.bks.cpg/sg64_15_cif.got.tgz:28109.got - 2010.06.03 16:29:19.
