data_PCOD9481772
_publ_section_title
;
Structure prediction by ZEFSAII (Michael W. Deem and Ramdas Pophale) SiO2 
 PCOD9481772
Probable space group: C M C A
;
_chemical_formula_sum "Si O2"
_cell_formula_units_Z 64
_cell_length_a 13.339599
_cell_length_b 7.059817
_cell_length_c 23.679321
_cell_angle_alpha 90.000000
_cell_angle_beta 90.000000
_cell_angle_gamma 90.000000
_cell_volume 2230.003081
_symmetry_space_group_name_H-M "C M C A"
_symmetry_group_IT_number 64
_symmetry_cell_setting 'orthorhombic'
loop_
_space_group_symop_operation_xyz
x,y,z
-x,1/2-y,1/2+z
x,-y,-z
-x,1/2+y,1/2-z
-x,-y,-z
x,1/2+y,1/2-z
-x,y,z
x,1/2-y,1/2+z
1/2+x,1/2+y,z
1/2-x,-y,1/2+z
1/2+x,1/2-y,-z
1/2-x,y,1/2-z
1/2-x,1/2-y,-z
1/2+x,y,1/2-z
1/2-x,1/2+y,z
1/2+x,-y,1/2+z
loop_
_atom_site_type_symbol
_atom_site_label
_atom_site_fract_x
_atom_site_fract_y
_atom_site_fract_z
Si Si1 0.138345 0.774032 0.074807
Si Si2 0.158939 0.502724 0.825558
Si Si3 0.112094 0.425635 0.698409
Si Si4 0.654810 0.155160 0.457535
O O1 0.116269 0.621134 0.122425
O O2 0.260238 0.761981 0.075236
O O3 0.103684 0.993978 0.080578
O O4 0.105842 0.731047 0.009276
O O5 0.127490 0.409214 0.766292
O O6 0.114561 0.712526 0.825340
O O7 0.281563 0.518135 0.821784
O O8 0.000000 0.509345 0.690974
O O9 0.707234 0.000000 0.500000
#
# Coordination Sequence:
#
# PCOD9481772 Si02
#       4
#    16  16  16  16
#     4   8  14  26  47  77 106 143 185 221 282 344
#     4  11  21  37  60  81 116 162 189 235 298 340
#     4  11  24  39  56  86 117 147 198 244 277 338
#     4   7  13  24  43  77 111 128 181 239 262 339
#
# _framework density 28.699511999999999
#
# number of rings (size 3 to 8) (size 9 to 14) (size 15 to 20)
#    1.500    1.000    0.000    5.250    0.000    0.000 
#    0.000    1.250    0.000    0.000    0.000   52.500 
#    0.000    0.000    0.000    0.000    0.000    0.000 
#
# Total GULP energy -178155.811138 kJ/mol
# GULP energy per Si atom -5567.369098 kJ/mol
# Density = 2.863419 g / cm^3
# Si number density = 28.699512 Si / 1000 Ang^3
#
#
#
# Elastic Constant Matrix: (Units=GPa)
#
#
# Indices 1 2 3 4 5 6 
#
# 1 229.3769 34.8859 46.9085 0.0000 0.0000 0.0000
# 2 34.8859 118.6256 24.0600 0.0000 0.0000 0.0000
# 3 46.9085 24.0600 133.9304 0.0000 0.0000 0.0000
# 4 0.0000 0.0000 0.0000 67.6613 0.0000 0.0000
# 5 0.0000 0.0000 0.0000 0.0000 -49.1624 0.0000
# 6 0.0000 0.0000 0.0000 0.0000 0.0000 -9.3681
#
#
#
# Elastic Compliance Matrix: (Units=1/GPa)
#
#
# Indices 1 2 3 4 5 6 
#
# 1 0.004835 -0.001119 -0.001492 0.000000 0.000000 0.000000
# 2 -0.001119 0.009008 -0.001226 0.000000 0.000000 0.000000
# 3 -0.001492 -0.001226 0.008210 0.000000 0.000000 0.000000
# 4 0.000000 0.000000 0.000000 0.014779 0.000000 0.000000
# 5 0.000000 0.000000 0.000000 0.000000 -0.020341 0.000000
# 6 0.000000 0.000000 0.000000 0.000000 0.000000 -0.106745
#
#
# Mechanical properties :
#
#
# Convention : Reuss Voigt Hill
#
# Bulk Modulus (GPa) = 69.55692 77.07130 73.31411
# Shear Modulus (GPa) = -64.27877 26.89807 -18.69035
#
# Velocity S-wave (km/s) = -4.73770 3.06474 -2.55471
# Velocity P-wave (km/s) = 2.37462 6.27984 4.11081
#
# Compressibility (1/GPa) = 0.01437671
#
# Stress axis : x y z
#
# Youngs Moduli (GPa) = 206.82270 111.01576 121.80937
#
# Poissons Ratio (x) = 0.12425 0.18179
# Poissons Ratio (y) = 0.23148 0.14936
# Poissons Ratio (z) = 0.30866 0.13613
#
# Static dielectric constant tensor:
#      x y z
#    x 2.178100 0.000000 0.000000 
#    y 0.000000 2.265130 0.000000 
#    z 0.000000 0.000000 2.523000 
# 
# From -- ./inp_files/44790.got.cif
#   From: 2010.05.17/outbox.cif.g08.bks.cpg/sg64_23_cif.got.tgz:44790.got - 2010.06.03 16:29:19.
