data_PCOD9481915
_publ_section_title
;
Structure prediction by ZEFSAII (Michael W. Deem and Ramdas Pophale) SiO2 
 PCOD9481915
Probable space group: C M C A
;
_chemical_formula_sum "Si O2"
_cell_formula_units_Z 64
_cell_length_a 32.572746
_cell_length_b 17.882551
_cell_length_c 5.119771
_cell_angle_alpha 90.000000
_cell_angle_beta 90.000000
_cell_angle_gamma 90.000000
_cell_volume 2982.183624
_symmetry_space_group_name_H-M "C M C A"
_symmetry_group_IT_number 64
_symmetry_cell_setting 'orthorhombic'
loop_
_space_group_symop_operation_xyz
x,y,z
-x,1/2-y,1/2+z
x,-y,-z
-x,1/2+y,1/2-z
-x,-y,-z
x,1/2+y,1/2-z
-x,y,z
x,1/2-y,1/2+z
1/2+x,1/2+y,z
1/2-x,-y,1/2+z
1/2+x,1/2-y,-z
1/2-x,y,1/2-z
1/2-x,1/2-y,-z
1/2+x,y,1/2-z
1/2-x,1/2+y,z
1/2+x,-y,1/2+z
loop_
_atom_site_type_symbol
_atom_site_label
_atom_site_fract_x
_atom_site_fract_y
_atom_site_fract_z
Si Si1 0.672526 0.803598 0.269867
Si Si2 0.712653 0.087064 0.067128
Si Si3 0.370111 0.586383 0.088873
Si Si4 0.544712 0.054035 0.247830
O O1 0.674374 0.750797 0.521806
O O2 0.634707 0.858101 0.343600
O O3 0.706759 0.864793 0.194428
O O4 0.750000 0.112362 0.250000
O O5 0.669601 0.095274 0.225354
O O6 0.718354 0.000000 0.000000
O O7 0.413608 0.600796 0.226828
O O8 0.369018 0.500000 0.000000
O O9 0.500000 0.092692 0.233388
O O10 0.543727 0.000000 0.500000
O O11 0.548541 0.000000 0.000000
#
# Coordination Sequence:
#
# PCOD9481915 Si02
#       4
#    16  16  16  16
#     4  12  27  46  67  99 136 180 228 283 347 416
#     4  12  26  43  70 101 135 183 238 296 347 423
#     4  11  22  42  71  96 134 179 230 286 350 415
#     4   9  19  34  61 101 135 166 218 287 349 406
#
# _framework density 21.460782999999999
#
# number of rings (size 3 to 8) (size 9 to 14) (size 15 to 20)
#    0.000    1.000    5.000    1.500    3.500    1.000 
#    0.000    0.000    0.000    1.500    0.000    0.000 
#    0.000    0.000    0.000    0.000    0.000    0.000 
#
# Total GULP energy -178609.676001 kJ/mol
# GULP energy per Si atom -5581.552375 kJ/mol
# Density = 2.141194 g / cm^3
# Si number density = 21.460783 Si / 1000 Ang^3
#
#
#
# Elastic Constant Matrix: (Units=GPa)
#
#
# Indices 1 2 3 4 5 6 
#
# 1 208.4844 12.7766 52.0611 0.0000 0.0000 0.0000
# 2 12.7766 116.8903 44.6173 0.0000 0.0000 0.0000
# 3 52.0611 44.6173 159.9618 0.0000 0.0000 0.0000
# 4 0.0000 0.0000 0.0000 50.4214 0.0000 0.0000
# 5 0.0000 0.0000 0.0000 0.0000 41.6658 0.0000
# 6 0.0000 0.0000 0.0000 0.0000 0.0000 -73.0790
#
#
#
# Elastic Compliance Matrix: (Units=1/GPa)
#
#
# Indices 1 2 3 4 5 6 
#
# 1 0.005222 0.000087 -0.001724 0.000000 0.000000 0.000000
# 2 0.000087 0.009576 -0.002699 0.000000 0.000000 0.000000
# 3 -0.001724 -0.002699 0.007565 0.000000 0.000000 0.000000
# 4 0.000000 0.000000 0.000000 0.019833 0.000000 0.000000
# 5 0.000000 0.000000 0.000000 0.000000 0.024001 0.000000
# 6 0.000000 0.000000 0.000000 0.000000 0.000000 -0.013684
#
#
# Mechanical properties :
#
#
# Convention : Reuss Voigt Hill
#
# Bulk Modulus (GPa) = 73.03987 78.24959 75.64473
# Shear Modulus (GPa) = 76.04812 28.86040 52.45426
#
# Velocity S-wave (km/s) = 5.95926 3.67113 4.94924
# Velocity P-wave (km/s) = 9.02543 7.38311 8.24526
#
# Compressibility (1/GPa) = 0.01369115
#
# Stress axis : x y z
#
# Youngs Moduli (GPa) = 191.51149 104.42954 132.18050
#
# Poissons Ratio (x) = -0.00911 0.22785
# Poissons Ratio (y) = -0.01670 0.35680
# Poissons Ratio (z) = 0.33012 0.28189
#
# Static dielectric constant tensor:
#      x y z
#    x 1.858120 0.000000 0.000000 
#    y 0.000000 1.782960 0.000000 
#    z 0.000000 0.000000 1.845680 
# 
# From -- ./inp_files/3145.got.cif
#   From: 2010.05.17/outbox.cif.g08.bks.cpg/sg64_2_cif.got.tgz:3145.got - 2010.06.03 16:29:19.
