data_PCOD9481161
_publ_section_title
;
Structure prediction by ZEFSAII (Michael W. Deem and Ramdas Pophale) SiO2 
 PCOD9481161
Probable space group: C M C A
;
_chemical_formula_sum "Si O2"
_cell_formula_units_Z 88
_cell_length_a 18.762034
_cell_length_b 9.752831
_cell_length_c 24.668087
_cell_angle_alpha 90.000000
_cell_angle_beta 90.000000
_cell_angle_gamma 90.000000
_cell_volume 4513.839252
_symmetry_space_group_name_H-M "C M C A"
_symmetry_group_IT_number 64
_symmetry_cell_setting 'orthorhombic'
loop_
_space_group_symop_operation_xyz
x,y,z
-x,1/2-y,1/2+z
x,-y,-z
-x,1/2+y,1/2-z
-x,-y,-z
x,1/2+y,1/2-z
-x,y,z
x,1/2-y,1/2+z
1/2+x,1/2+y,z
1/2-x,-y,1/2+z
1/2+x,1/2-y,-z
1/2-x,y,1/2-z
1/2-x,1/2-y,-z
1/2+x,y,1/2-z
1/2-x,1/2+y,z
1/2+x,-y,1/2+z
loop_
_atom_site_type_symbol
_atom_site_label
_atom_site_fract_x
_atom_site_fract_y
_atom_site_fract_z
Si Si1 0.348195 0.881310 0.285269
Si Si2 0.652826 0.170907 0.310949
Si Si3 0.261192 0.274849 0.111140
Si Si4 0.657027 0.483399 0.564290
Si Si5 0.500000 0.510488 0.379014
Si Si6 0.000000 0.727037 0.694815
Si Si7 0.500000 0.769308 0.682043
O O1 0.338118 0.797666 0.229994
O O2 0.303165 0.834153 0.336897
O O3 0.429192 0.861098 0.304238
O O4 0.335047 0.039243 0.274235
O O5 0.705255 0.173699 0.360656
O O6 0.574441 0.172232 0.336813
O O7 0.312296 0.170436 0.077693
O O8 0.213717 0.398114 0.084541
O O9 0.650838 0.500000 0.500000
O O10 0.576835 0.502016 0.589916
O O11 0.500000 0.658400 0.350751
O O12 0.500000 0.391276 0.333313
O O13 0.000000 0.797936 0.753808
#
# Coordination Sequence:
#
# PCOD9481161 Si02
#       7
#    16  16  16  16   8   8   8
#     4  11  24  38  62  96 136 178 218 259 328 410
#     4  11  24  38  62  96 136 178 218 259 328 410
#     4  12  24  42  68  94 132 166 214 286 342 388
#     4  12  27  48  70  96 127 175 232 286 337 389
#     4  12  23  46  70  98 128 182 225 272 318 402
#     4  10  23  35  63  93 134 172 216 255 320 393
#     4  10  23  35  63  93 134 172 216 255 320 393
#
# _framework density 19.495598000000001
#
# number of rings (size 3 to 8) (size 9 to 14) (size 15 to 20)
#    0.000    0.727    5.455    1.909   12.727    1.455 
#    0.000    0.000    0.000    0.000    0.000    7.636 
#    0.000    0.000    0.000    0.000    0.000    0.000 
#
# Total GULP energy -245361.982187 kJ/mol
# GULP energy per Si atom -5576.408686 kJ/mol
# Density = 1.945122 g / cm^3
# Si number density = 19.495598 Si / 1000 Ang^3
#
#
#
# Elastic Constant Matrix: (Units=GPa)
#
#
# Indices 1 2 3 4 5 6 
#
# 1 130.5917 9.7539 36.3282 0.0000 0.0000 0.0000
# 2 9.7539 74.5056 2.3932 0.0000 0.0000 0.0000
# 3 36.3282 2.3932 68.4989 0.0000 0.0000 0.0000
# 4 0.0000 0.0000 0.0000 20.8553 0.0000 0.0000
# 5 0.0000 0.0000 0.0000 0.0000 16.2493 0.0000
# 6 0.0000 0.0000 0.0000 0.0000 0.0000 11.1994
#
#
#
# Elastic Compliance Matrix: (Units=1/GPa)
#
#
# Indices 1 2 3 4 5 6 
#
# 1 0.009061 -0.001033 -0.004770 0.000000 0.000000 0.000000
# 2 -0.001033 0.013555 0.000074 0.000000 0.000000 0.000000
# 3 -0.004770 0.000074 0.017126 0.000000 0.000000 0.000000
# 4 0.000000 0.000000 0.000000 0.047949 0.000000 0.000000
# 5 0.000000 0.000000 0.000000 0.000000 0.061541 0.000000
# 6 0.000000 0.000000 0.000000 0.000000 0.000000 0.089291
#
#
# Mechanical properties :
#
#
# Convention : Reuss Voigt Hill
#
# Bulk Modulus (GPa) = 35.35429 41.17186 38.26307
# Shear Modulus (GPa) = 19.27463 24.66885 21.97174
#
# Velocity S-wave (km/s) = 3.14772 3.56104 3.36074
# Velocity P-wave (km/s) = 5.60220 6.17028 5.89309
#
# Compressibility (1/GPa) = 0.02828511
#
# Stress axis : x y z
#
# Youngs Moduli (GPa) = 110.35778 73.77527 58.39164
#
# Poissons Ratio (x) = 0.07622 0.27851
# Poissons Ratio (y) = 0.11401 -0.00434
# Poissons Ratio (z) = 0.52636 -0.00548
#
# Static dielectric constant tensor:
#      x y z
#    x 1.812270 0.000000 0.000000 
#    y 0.000000 1.723950 0.000000 
#    z 0.000000 0.000000 1.631510 
# 
# From -- ./inp_files/46232.got.cif
#   From: 2010.05.17/outbox.cif.g08.bks.cpg/sg64_24_cif.got.tgz:46232.got - 2010.06.03 16:29:19.
