data_PCOD9481754
_publ_section_title
;
Structure prediction by ZEFSAII (Michael W. Deem and Ramdas Pophale) SiO2 
 PCOD9481754
Probable space group: C M C A
;
_chemical_formula_sum "Si O2"
_cell_formula_units_Z 80
_cell_length_a 8.251446
_cell_length_b 16.269980
_cell_length_c 29.432770
_cell_angle_alpha 90.000000
_cell_angle_beta 90.000000
_cell_angle_gamma 90.000000
_cell_volume 3951.374726
_symmetry_space_group_name_H-M "C M C A"
_symmetry_group_IT_number 64
_symmetry_cell_setting 'orthorhombic'
loop_
_space_group_symop_operation_xyz
x,y,z
-x,1/2-y,1/2+z
x,-y,-z
-x,1/2+y,1/2-z
-x,-y,-z
x,1/2+y,1/2-z
-x,y,z
x,1/2-y,1/2+z
1/2+x,1/2+y,z
1/2-x,-y,1/2+z
1/2+x,1/2-y,-z
1/2-x,y,1/2-z
1/2-x,1/2-y,-z
1/2+x,y,1/2-z
1/2-x,1/2+y,z
1/2+x,-y,1/2+z
loop_
_atom_site_type_symbol
_atom_site_label
_atom_site_fract_x
_atom_site_fract_y
_atom_site_fract_z
Si Si1 0.691695 0.218245 0.855859
Si Si2 0.697168 0.031581 0.048769
Si Si3 0.698674 0.537434 0.644448
Si Si4 0.192415 0.122785 0.301471
Si Si5 0.305724 0.777963 0.950402
O O1 0.500000 0.221045 0.848590
O O2 0.752123 0.128194 0.840635
O O3 0.764468 0.296204 0.830075
O O4 0.727802 0.227449 0.909412
O O5 0.500000 0.027966 0.047703
O O6 0.740911 0.126560 0.055634
O O7 0.749691 0.979874 0.092444
O O8 0.756309 0.000000 0.000000
O O9 0.500000 0.537449 0.644818
O O10 0.755707 0.460760 0.674731
O O11 0.250000 0.130113 0.250000
O O12 0.000000 0.115907 0.301507
O O13 0.500000 0.771820 0.947132
O O14 0.250000 0.750000 0.000000
#
# Coordination Sequence:
#
# PCOD9481754 Si02
#       5
#    16  16  16  16  16
#     4  11  22  39  64  93 124 160 203 253 310 369
#     4   9  16  30  55  83 113 156 202 242 291 355
#     4   9  19  37  61  88 120 160 203 247 300 367
#     4  11  23  43  66  90 122 160 205 254 307 363
#     4  11  21  35  57  86 124 166 208 253 305 363
#
# _framework density 20.246117000000002
#
# number of rings (size 3 to 8) (size 9 to 14) (size 15 to 20)
#    0.000    1.800    2.000    3.000    0.000    4.000 
#    0.000    6.000    0.000    2.400    0.000    0.000 
#    0.000    0.000    0.000    0.000    0.000    0.000 
#
# Total GULP energy -223447.687692 kJ/mol
# GULP energy per Si atom -5586.192192 kJ/mol
# Density = 2.020004 g / cm^3
# Si number density = 20.246117 Si / 1000 Ang^3
#
#
#
# Elastic Constant Matrix: (Units=GPa)
#
#
# Indices 1 2 3 4 5 6 
#
# 1 18.8818 13.2980 1.2719 0.0000 0.0000 0.0000
# 2 13.2980 158.6942 56.8480 0.0000 0.0000 0.0000
# 3 1.2719 56.8480 120.0241 0.0000 0.0000 0.0000
# 4 0.0000 0.0000 0.0000 19.0778 0.0000 0.0000
# 5 0.0000 0.0000 0.0000 0.0000 25.2066 0.0000
# 6 0.0000 0.0000 0.0000 0.0000 0.0000 20.7787
#
#
#
# Elastic Compliance Matrix: (Units=1/GPa)
#
#
# Indices 1 2 3 4 5 6 
#
# 1 0.056673 -0.005460 0.001986 0.000000 0.000000 0.000000
# 2 -0.005460 0.008115 -0.003786 0.000000 0.000000 0.000000
# 3 0.001986 -0.003786 0.010104 0.000000 0.000000 0.000000
# 4 0.000000 0.000000 0.000000 0.052417 0.000000 0.000000
# 5 0.000000 0.000000 0.000000 0.000000 0.039672 0.000000
# 6 0.000000 0.000000 0.000000 0.000000 0.000000 0.048126
#
#
# Mechanical properties :
#
#
# Convention : Reuss Voigt Hill
#
# Bulk Modulus (GPa) = 16.56427 48.93731 32.75079
# Shear Modulus (GPa) = 20.01990 28.09143 24.05566
#
# Velocity S-wave (km/s) = 3.14797 3.72895 3.45071
# Velocity P-wave (km/s) = 4.62733 6.53940 5.66463
#
# Compressibility (1/GPa) = 0.06037090
#
# Stress axis : x y z
#
# Youngs Moduli (GPa) = 17.64512 123.22650 98.97354
#
# Poissons Ratio (x) = 0.67285 -0.19653
# Poissons Ratio (y) = 0.09635 0.37469
# Poissons Ratio (z) = -0.03504 0.46651
#
# Static dielectric constant tensor:
#      x y z
#    x 1.705580 0.000000 0.000000 
#    y 0.000000 1.749850 0.000000 
#    z 0.000000 0.000000 1.684030 
# 
# From -- ./inp_files/51767.got.cif
#   From: 2010.05.17/outbox.cif.g08.bks.cpg/sg64_26_cif.got.tgz:51767.got - 2010.06.03 16:29:19.
