data_PCOD9481140
_publ_section_title
;
Structure prediction by ZEFSAII (Michael W. Deem and Ramdas Pophale) SiO2 
 PCOD9481140
Probable space group: C M C A
;
_chemical_formula_sum "Si O2"
_cell_formula_units_Z 104
_cell_length_a 9.258331
_cell_length_b 19.343453
_cell_length_c 29.495045
_cell_angle_alpha 90.000000
_cell_angle_beta 90.000000
_cell_angle_gamma 90.000000
_cell_volume 5282.211290
_symmetry_space_group_name_H-M "C M C A"
_symmetry_group_IT_number 64
_symmetry_cell_setting 'orthorhombic'
loop_
_space_group_symop_operation_xyz
x,y,z
-x,1/2-y,1/2+z
x,-y,-z
-x,1/2+y,1/2-z
-x,-y,-z
x,1/2+y,1/2-z
-x,y,z
x,1/2-y,1/2+z
1/2+x,1/2+y,z
1/2-x,-y,1/2+z
1/2+x,1/2-y,-z
1/2-x,y,1/2-z
1/2-x,1/2-y,-z
1/2+x,y,1/2-z
1/2-x,1/2+y,z
1/2+x,-y,1/2+z
loop_
_atom_site_type_symbol
_atom_site_label
_atom_site_fract_x
_atom_site_fract_y
_atom_site_fract_z
Si Si1 0.167443 0.602950 0.632665
Si Si2 0.293480 0.174807 0.536935
Si Si3 0.000000 0.283648 0.998435
Si Si4 0.837600 0.939484 0.964268
Si Si5 0.670173 0.700708 0.702543
Si Si6 0.826833 0.043070 0.373318
Si Si7 0.170633 0.134264 0.202301
O O1 0.169764 0.631760 0.581489
O O2 0.246178 0.658667 0.664226
O O3 0.257531 0.532252 0.634699
O O4 0.000000 0.592252 0.646029
O O5 0.125391 0.186092 0.531696
O O6 0.375641 0.247140 0.533889
O O7 0.342075 0.130388 0.493176
O O8 0.723974 0.936027 0.923935
O O9 0.000000 0.953809 0.946170
O O10 0.801157 0.000000 0.000000
O O11 0.500000 0.682611 0.704467
O O12 0.750000 0.686211 0.750000
O O13 0.679986 0.783183 0.694528
O O14 0.753425 0.094402 0.337386
O O15 0.000000 0.042814 0.369674
O O16 0.250000 0.119200 0.250000
O O17 0.000000 0.115948 0.204008
#
# Coordination Sequence:
#
# PCOD9481140 Si02
#       7
#    16  16   8  16  16  16  16
#     4  12  24  43  68  94 133 174 222 272 330 389
#     4  11  23  43  64  91 131 175 218 274 326 381
#     4  10  24  40  60  92 126 166 218 266 324 380
#     4  11  22  41  66  87 125 175 220 264 324 385
#     4  10  23  44  71 101 132 170 211 266 331 395
#     4  12  27  42  65  99 131 174 225 273 327 391
#     4  10  22  45  72 100 136 170 212 268 327 393
#
# _framework density 19.688724000000001
#
# number of rings (size 3 to 8) (size 9 to 14) (size 15 to 20)
#    0.000    1.077    3.077    2.769    3.231    5.231 
#    2.769    3.077    0.000    0.000    0.000    0.000 
#    0.000    0.000    0.000    0.000    0.000    0.000 
#
# Total GULP energy -289619.235069 kJ/mol
# GULP energy per Si atom -5569.600674 kJ/mol
# Density = 1.964391 g / cm^3
# Si number density = 19.688724 Si / 1000 Ang^3
#
#
#
# Elastic Constant Matrix: (Units=GPa)
#
#
# Indices 1 2 3 4 5 6 
#
# 1 229.9856 45.5498 79.5144 0.0000 0.0000 0.0000
# 2 45.5498 42.9005 49.9155 0.0000 0.0000 0.0000
# 3 79.5144 49.9155 103.3003 0.0000 0.0000 0.0000
# 4 0.0000 0.0000 0.0000 38.4653 0.0000 0.0000
# 5 0.0000 0.0000 0.0000 0.0000 32.1164 0.0000
# 6 0.0000 0.0000 0.0000 0.0000 0.0000 39.7888
#
#
#
# Elastic Compliance Matrix: (Units=1/GPa)
#
#
# Indices 1 2 3 4 5 6 
#
# 1 0.006021 -0.002285 -0.003531 0.000000 0.000000 0.000000
# 2 -0.002285 0.054113 -0.024389 0.000000 0.000000 0.000000
# 3 -0.003531 -0.024389 0.024183 0.000000 0.000000 0.000000
# 4 0.000000 0.000000 0.000000 0.025997 0.000000 0.000000
# 5 0.000000 0.000000 0.000000 0.000000 0.031137 0.000000
# 6 0.000000 0.000000 0.000000 0.000000 0.000000 0.025133
#
#
# Mechanical properties :
#
#
# Convention : Reuss Voigt Hill
#
# Bulk Modulus (GPa) = 41.82694 80.68289 61.25491
# Shear Modulus (GPa) = 21.27998 35.48787 28.38393
#
# Velocity S-wave (km/s) = 3.29115 4.25013 3.80100
# Velocity P-wave (km/s) = 5.97766 8.07174 7.10230
#
# Compressibility (1/GPa) = 0.02390804
#
# Stress axis : x y z
#
# Youngs Moduli (GPa) = 166.07496 18.47990 41.35140
#
# Poissons Ratio (x) = 0.04223 0.14600
# Poissons Ratio (y) = 0.37953 1.00851
# Poissons Ratio (z) = 0.58635 0.45070
#
# Static dielectric constant tensor:
#      x y z
#    x 1.693350 0.000000 0.000000 
#    y 0.000000 1.721260 0.000000 
#    z 0.000000 0.000000 1.682280 
# 
# From -- ./inp_files/52070.got.cif
#   From: 2010.05.17/outbox.cif.g08.bks.cpg/sg64_27_cif.got.tgz:52070.got - 2010.06.03 16:29:19.
