data_PCOD9481162
_publ_section_title
;
Structure prediction by ZEFSAII (Michael W. Deem and Ramdas Pophale) SiO2 
 PCOD9481162
Probable space group: C M C A
;
_chemical_formula_sum "Si O2"
_cell_formula_units_Z 72
_cell_length_a 14.301964
_cell_length_b 10.074684
_cell_length_c 24.538745
_cell_angle_alpha 90.000000
_cell_angle_beta 90.000000
_cell_angle_gamma 90.000000
_cell_volume 3535.732994
_symmetry_space_group_name_H-M "C M C A"
_symmetry_group_IT_number 64
_symmetry_cell_setting 'orthorhombic'
loop_
_space_group_symop_operation_xyz
x,y,z
-x,1/2-y,1/2+z
x,-y,-z
-x,1/2+y,1/2-z
-x,-y,-z
x,1/2+y,1/2-z
-x,y,z
x,1/2-y,1/2+z
1/2+x,1/2+y,z
1/2-x,-y,1/2+z
1/2+x,1/2-y,-z
1/2-x,y,1/2-z
1/2-x,1/2-y,-z
1/2+x,y,1/2-z
1/2-x,1/2+y,z
1/2+x,-y,1/2+z
loop_
_atom_site_type_symbol
_atom_site_label
_atom_site_fract_x
_atom_site_fract_y
_atom_site_fract_z
Si Si1 0.500000 0.399983 0.855768
Si Si2 0.000000 0.816922 0.082977
Si Si3 0.197546 0.954412 0.807204
Si Si4 0.000000 0.780326 0.462875
Si Si5 0.794307 0.628183 0.968068
Si Si6 0.306501 0.774712 0.364449
O O1 0.500000 0.536216 0.891091
O O2 0.592624 0.399031 0.818263
O O3 0.500000 0.291507 0.904055
O O4 0.906420 0.750927 0.107016
O O5 0.000000 0.813098 0.017251
O O6 0.250000 0.935301 0.750000
O O7 0.259653 0.863332 0.847828
O O8 0.187730 0.113108 0.817506
O O9 0.094457 0.863331 0.467329
O O10 0.756128 0.646312 0.907928
O O11 0.760962 0.500000 0.000000
O O12 0.750000 0.750000 0.000000
#
# Coordination Sequence:
#
# PCOD9481162 Si02
#       6
#     8   8  16   8  16  16
#     4  10  23  42  65  99 128 172 220 267 329 393
#     4  10  23  36  66  96 138 171 211 255 327 411
#     4  11  24  45  69  92 127 172 225 279 327 377
#     4  12  22  40  63  99 135 175 210 270 317 400
#     4  12  25  40  64  99 137 176 215 261 329 396
#     4  11  23  43  64  98 130 171 219 269 324 389
#
# _framework density 20.363527999999999
#
# number of rings (size 3 to 8) (size 9 to 14) (size 15 to 20)
#    0.000    0.889    4.444    2.667    3.111    0.889 
#    0.000    5.556    0.000    0.000    0.000    0.000 
#    0.000    0.000    0.000    0.000    0.000    0.000 
#
# Total GULP energy -200942.904303 kJ/mol
# GULP energy per Si atom -5581.747342 kJ/mol
# Density = 2.031718 g / cm^3
# Si number density = 20.363528 Si / 1000 Ang^3
#
#
#
# Elastic Constant Matrix: (Units=GPa)
#
#
# Indices 1 2 3 4 5 6 
#
# 1 146.4290 15.5983 39.8425 0.0000 0.0000 0.0000
# 2 15.5983 61.9188 7.4576 0.0000 0.0000 0.0000
# 3 39.8425 7.4576 101.6904 0.0000 0.0000 0.0000
# 4 0.0000 0.0000 0.0000 25.8684 0.0000 0.0000
# 5 0.0000 0.0000 0.0000 0.0000 11.8339 0.0000
# 6 0.0000 0.0000 0.0000 0.0000 0.0000 34.1179
#
#
#
# Elastic Compliance Matrix: (Units=1/GPa)
#
#
# Indices 1 2 3 4 5 6 
#
# 1 0.007800 -0.001611 -0.002938 0.000000 0.000000 0.000000
# 2 -0.001611 0.016627 -0.000588 0.000000 0.000000 0.000000
# 3 -0.002938 -0.000588 0.011028 0.000000 0.000000 0.000000
# 4 0.000000 0.000000 0.000000 0.038657 0.000000 0.000000
# 5 0.000000 0.000000 0.000000 0.000000 0.084503 0.000000
# 6 0.000000 0.000000 0.000000 0.000000 0.000000 0.029310
#
#
# Mechanical properties :
#
#
# Convention : Reuss Voigt Hill
#
# Bulk Modulus (GPa) = 39.71300 48.42611 44.06956
# Shear Modulus (GPa) = 24.20213 30.84004 27.52109
#
# Velocity S-wave (km/s) = 3.45121 3.89585 3.68025
# Velocity P-wave (km/s) = 5.95193 6.63847 6.30455
#
# Compressibility (1/GPa) = 0.02518067
#
# Stress axis : x y z
#
# Youngs Moduli (GPa) = 128.20033 60.14354 90.67809
#
# Poissons Ratio (x) = 0.09690 0.26641
# Poissons Ratio (y) = 0.20655 0.05333
# Poissons Ratio (z) = 0.37665 0.03537
#
# Static dielectric constant tensor:
#      x y z
#    x 1.733750 0.000000 0.000000 
#    y 0.000000 1.724570 0.000000 
#    z 0.000000 0.000000 1.758820 
# 
# From -- ./inp_files/49835.got.cif
#   From: 2010.05.17/outbox.cif.g08.bks.cpg/sg64_25_cif.got.tgz:49835.got - 2010.06.03 16:29:19.
