data_PCOD9481269
_publ_section_title
;
Structure prediction by ZEFSAII (Michael W. Deem and Ramdas Pophale) SiO2 
 PCOD9481269
Probable space group: C M C A
;
_chemical_formula_sum "Si O2"
_cell_formula_units_Z 56
_cell_length_a 10.151798
_cell_length_b 17.114771
_cell_length_c 13.678306
_cell_angle_alpha 90.000000
_cell_angle_beta 90.000000
_cell_angle_gamma 90.000000
_cell_volume 2376.546824
_symmetry_space_group_name_H-M "C M C A"
_symmetry_group_IT_number 64
_symmetry_cell_setting 'orthorhombic'
loop_
_space_group_symop_operation_xyz
x,y,z
-x,1/2-y,1/2+z
x,-y,-z
-x,1/2+y,1/2-z
-x,-y,-z
x,1/2+y,1/2-z
-x,y,z
x,1/2-y,1/2+z
1/2+x,1/2+y,z
1/2-x,-y,1/2+z
1/2+x,1/2-y,-z
1/2-x,y,1/2-z
1/2-x,1/2-y,-z
1/2+x,y,1/2-z
1/2-x,1/2+y,z
1/2+x,-y,1/2+z
loop_
_atom_site_type_symbol
_atom_site_label
_atom_site_fract_x
_atom_site_fract_y
_atom_site_fract_z
Si Si1 0.856255 0.963586 0.832981
Si Si2 0.500000 0.162337 0.970679
Si Si3 0.272991 0.626391 0.866937
Si Si4 0.000000 0.822208 0.870877
Si Si5 0.500000 0.254121 0.650065
O O1 0.750000 0.954051 0.750000
O O2 0.876349 0.880356 0.885082
O O3 0.000000 0.975348 0.784922
O O4 0.832544 0.041832 0.893776
O O5 0.634055 0.132424 0.922067
O O6 0.500000 0.253877 0.946043
O O7 0.500000 0.165917 0.087445
O O8 0.250000 0.621052 0.750000
O O9 0.372353 0.699772 0.873332
O O10 0.000000 0.781393 0.763888
#
# Coordination Sequence:
#
# PCOD9481269 Si02
#       5
#    16   8  16   8   8
#     4   9  21  37  65  90 123 173 217 261 324 397
#     4  12  26  37  73 100 133 173 222 275 341 377
#     4  11  21  43  66  94 128 183 215 266 334 401
#     4  10  23  42  66  95 130 172 222 276 332 380
#     4  12  23  41  68 104 137 163 228 281 324 396
#
# _framework density 23.563600999999998
#
# number of rings (size 3 to 8) (size 9 to 14) (size 15 to 20)
#    0.857    0.571    4.286    0.857   10.000    0.000 
#    0.000    2.857    6.286    6.857    0.000    0.000 
#    0.000    0.000    0.000    0.000    0.000    0.000 
#
# Total GULP energy -156328.042160 kJ/mol
# GULP energy per Si atom -5583.144363 kJ/mol
# Density = 2.350997 g / cm^3
# Si number density = 23.563601 Si / 1000 Ang^3
#
#
#
# Elastic Constant Matrix: (Units=GPa)
#
#
# Indices 1 2 3 4 5 6 
#
# 1 134.7873 33.5523 7.5017 0.0000 0.0000 0.0000
# 2 33.5523 108.9770 -3.1910 0.0000 0.0000 0.0000
# 3 7.5017 -3.1910 69.9512 0.0000 0.0000 0.0000
# 4 0.0000 0.0000 0.0000 7.7605 0.0000 0.0000
# 5 0.0000 0.0000 0.0000 0.0000 412.5717 0.0000
# 6 0.0000 0.0000 0.0000 0.0000 0.0000 19.0810
#
#
#
# Elastic Compliance Matrix: (Units=1/GPa)
#
#
# Indices 1 2 3 4 5 6 
#
# 1 0.008102 -0.002523 -0.000984 0.000000 0.000000 0.000000
# 2 -0.002523 0.009974 0.000726 0.000000 0.000000 0.000000
# 3 -0.000984 0.000726 0.014434 0.000000 0.000000 0.000000
# 4 0.000000 0.000000 0.000000 0.128857 0.000000 0.000000
# 5 0.000000 0.000000 0.000000 0.000000 0.002424 0.000000
# 6 0.000000 0.000000 0.000000 0.000000 0.000000 0.052408
#
#
# Mechanical properties :
#
#
# Convention : Reuss Voigt Hill
#
# Bulk Modulus (GPa) = 37.10941 43.27128 40.19035
# Shear Modulus (GPa) = 21.66892 106.27283 63.97087
#
# Velocity S-wave (km/s) = 3.03577 6.72297 5.21604
# Velocity P-wave (km/s) = 5.29818 8.86949 7.30543
#
# Compressibility (1/GPa) = 0.02694734
#
# Stress axis : x y z
#
# Youngs Moduli (GPa) = 123.42666 100.25691 69.27945
#
# Poissons Ratio (x) = 0.25298 0.06817
# Poissons Ratio (y) = 0.31144 -0.05027
# Poissons Ratio (z) = 0.12145 -0.07275
#
# Static dielectric constant tensor:
#      x y z
#    x 1.866580 0.000000 0.000000 
#    y 0.000000 1.948480 0.000000 
#    z 0.000000 0.000000 1.909670 
# 
# From -- ./inp_files/21773.got.cif
#   From: 2010.05.17/outbox.cif.g08.bks.cpg/sg64_11_cif.got.tgz:21773.got - 2010.06.03 16:29:19.
