data_PCOD9481682
_publ_section_title
;
Structure prediction by ZEFSAII (Michael W. Deem and Ramdas Pophale) SiO2 
 PCOD9481682
Probable space group: C M C A
;
_chemical_formula_sum "Si O2"
_cell_formula_units_Z 80
_cell_length_a 7.939441
_cell_length_b 26.731594
_cell_length_c 20.614499
_cell_angle_alpha 90.000000
_cell_angle_beta 90.000000
_cell_angle_gamma 90.000000
_cell_volume 4375.095796
_symmetry_space_group_name_H-M "C M C A"
_symmetry_group_IT_number 64
_symmetry_cell_setting 'orthorhombic'
loop_
_space_group_symop_operation_xyz
x,y,z
-x,1/2-y,1/2+z
x,-y,-z
-x,1/2+y,1/2-z
-x,-y,-z
x,1/2+y,1/2-z
-x,y,z
x,1/2-y,1/2+z
1/2+x,1/2+y,z
1/2-x,-y,1/2+z
1/2+x,1/2-y,-z
1/2-x,y,1/2-z
1/2-x,1/2-y,-z
1/2+x,y,1/2-z
1/2-x,1/2+y,z
1/2+x,-y,1/2+z
loop_
_atom_site_type_symbol
_atom_site_label
_atom_site_fract_x
_atom_site_fract_y
_atom_site_fract_z
Si Si1 0.300572 0.308694 0.676603
Si Si2 0.799455 0.227959 0.569940
Si Si3 0.293599 0.596265 0.399849
Si Si4 0.197343 0.988924 0.422415
Si Si5 0.293760 0.882393 0.049214
O O1 0.500000 0.313438 0.674884
O O2 0.250000 0.298410 0.750000
O O3 0.254588 0.264862 0.626874
O O4 0.231696 0.361709 0.649694
O O5 0.750000 0.250000 0.500000
O O6 0.734669 0.170948 0.575553
O O7 0.000000 0.225135 0.571109
O O8 0.500000 0.594481 0.398319
O O9 0.231805 0.539276 0.390119
O O10 0.249130 0.613408 0.472973
O O11 0.268221 0.932988 0.415511
O O12 0.000000 0.986314 0.404205
O O13 0.202476 0.000000 0.500000
O O14 0.500000 0.883613 0.051478
#
# Coordination Sequence:
#
# PCOD9481682 Si02
#       5
#    16  16  16  16  16
#     4  11  22  36  51  72 101 134 172 211 256 308
#     4  11  20  32  51  76 104 136 172 212 254 301
#     4   8  13  24  43  68  97 125 156 199 245 294
#     4   7  10  18  37  66  96 121 149 190 238 286
#     4   8  13  23  42  71 100 124 157 200 245 294
#
# _framework density 18.285312999999999
#
# number of rings (size 3 to 8) (size 9 to 14) (size 15 to 20)
#    0.000    3.000    2.000    3.600    0.000    0.000 
#    0.000    0.000    0.000    1.200    0.000    9.800 
#    0.000    0.000    0.000    0.000    0.000    0.000 
#
# Total GULP energy -222715.386983 kJ/mol
# GULP energy per Si atom -5567.884675 kJ/mol
# Density = 1.824369 g / cm^3
# Si number density = 18.285313 Si / 1000 Ang^3
#
#
#
# Elastic Constant Matrix: (Units=GPa)
#
#
# Indices 1 2 3 4 5 6 
#
# 1 20.6739 14.0396 7.9134 0.0000 0.0000 0.0000
# 2 14.0396 215.4494 83.1692 0.0000 0.0000 0.0000
# 3 7.9134 83.1692 94.3239 0.0000 0.0000 0.0000
# 4 0.0000 0.0000 0.0000 30.3916 0.0000 0.0000
# 5 0.0000 0.0000 0.0000 0.0000 14.1189 0.0000
# 6 0.0000 0.0000 0.0000 0.0000 0.0000 10.5708
#
#
#
# Elastic Compliance Matrix: (Units=1/GPa)
#
#
# Indices 1 2 3 4 5 6 
#
# 1 0.050867 -0.002528 -0.002039 0.000000 0.000000 0.000000
# 2 -0.002528 0.007162 -0.006103 0.000000 0.000000 0.000000
# 3 -0.002039 -0.006103 0.016154 0.000000 0.000000 0.000000
# 4 0.000000 0.000000 0.000000 0.032904 0.000000 0.000000
# 5 0.000000 0.000000 0.000000 0.000000 0.070827 0.000000
# 6 0.000000 0.000000 0.000000 0.000000 0.000000 0.094600
#
#
# Mechanical properties :
#
#
# Convention : Reuss Voigt Hill
#
# Bulk Modulus (GPa) = 18.92354 60.07688 39.50021
# Shear Modulus (GPa) = 16.05298 26.03792 21.04545
#
# Velocity S-wave (km/s) = 2.96618 3.77766 3.39624
# Velocity P-wave (km/s) = 4.70133 7.20793 6.08509
#
# Compressibility (1/GPa) = 0.05284423
#
# Stress axis : x y z
#
# Youngs Moduli (GPa) = 19.65908 139.62332 61.90364
#
# Poissons Ratio (x) = 0.35293 0.12621
# Poissons Ratio (y) = 0.04969 0.37780
# Poissons Ratio (z) = 0.04008 0.85213
#
# Static dielectric constant tensor:
#      x y z
#    x 1.699610 0.000000 0.000000 
#    y 0.000000 1.700770 0.000000 
#    z 0.000000 0.000000 1.575220 
# 
# From -- ./inp_files/29789.got.cif
#   From: 2010.05.17/outbox.cif.g08.bks.cpg/sg64_15_cif.got.tgz:29789.got - 2010.06.03 16:29:19.
