data_PCOD9481376
_publ_section_title
;
Structure prediction by ZEFSAII (Michael W. Deem and Ramdas Pophale) SiO2 
 PCOD9481376
Probable space group: C M C A
;
_chemical_formula_sum "Si O2"
_cell_formula_units_Z 56
_cell_length_a 8.153056
_cell_length_b 10.689654
_cell_length_c 29.255394
_cell_angle_alpha 90.000000
_cell_angle_beta 90.000000
_cell_angle_gamma 90.000000
_cell_volume 2549.705525
_symmetry_space_group_name_H-M "C M C A"
_symmetry_group_IT_number 64
_symmetry_cell_setting 'orthorhombic'
loop_
_space_group_symop_operation_xyz
x,y,z
-x,1/2-y,1/2+z
x,-y,-z
-x,1/2+y,1/2-z
-x,-y,-z
x,1/2+y,1/2-z
-x,y,z
x,1/2-y,1/2+z
1/2+x,1/2+y,z
1/2-x,-y,1/2+z
1/2+x,1/2-y,-z
1/2-x,y,1/2-z
1/2-x,1/2-y,-z
1/2+x,y,1/2-z
1/2-x,1/2+y,z
1/2+x,-y,1/2+z
loop_
_atom_site_type_symbol
_atom_site_label
_atom_site_fract_x
_atom_site_fract_y
_atom_site_fract_z
Si Si1 0.000000 0.370148 0.113039
Si Si2 0.811456 0.781889 0.949559
Si Si3 0.000000 0.362722 0.319182
Si Si4 0.500000 0.141531 0.107347
Si Si5 0.750000 0.748443 0.750000
Si Si6 0.000000 0.640146 0.317040
O O1 0.845176 0.344139 0.079974
O O2 0.000000 0.507933 0.132720
O O3 0.000000 0.255497 0.148043
O O4 0.664880 0.852053 0.923437
O O5 0.000000 0.836525 0.951106
O O6 0.750000 0.750000 0.000000
O O7 0.000000 0.256986 0.357899
O O8 0.150030 0.338050 0.284800
O O9 0.000000 0.502981 0.338135
O O10 0.849692 0.838177 0.783348
#
# Coordination Sequence:
#
# PCOD9481376 Si02
#       6
#     8  16   8   8   8   8
#     4  10  26  43  66 106 148 175 239 292 341 436
#     4  10  23  45  71 102 141 184 236 286 352 422
#     4  11  25  42  73  96 136 189 228 281 354 413
#     4  12  24  47  70 106 146 189 225 298 359 406
#     4  10  24  42  68 102 136 172 238 294 336 406
#     4  11  23  46  67 102 136 181 234 281 346 419
#
# _framework density 21.963322000000002
#
# number of rings (size 3 to 8) (size 9 to 14) (size 15 to 20)
#    0.857    0.571    1.429    2.571    0.000   16.000 
#    2.571    1.429    0.000    0.000    0.000    0.000 
#    0.000    0.000    0.000    0.000    0.000    0.000 
#
# Total GULP energy -156162.718511 kJ/mol
# GULP energy per Si atom -5577.239947 kJ/mol
# Density = 2.191333 g / cm^3
# Si number density = 21.963322 Si / 1000 Ang^3
#
#
#
# Elastic Constant Matrix: (Units=GPa)
#
#
# Indices 1 2 3 4 5 6 
#
# 1 130.2229 37.2044 38.9984 0.0000 0.0000 0.0000
# 2 37.2044 185.0661 70.1065 0.0000 0.0000 0.0000
# 3 38.9984 70.1065 137.9613 0.0000 0.0000 0.0000
# 4 0.0000 0.0000 0.0000 9.4787 0.0000 0.0000
# 5 0.0000 0.0000 0.0000 0.0000 19.0276 0.0000
# 6 0.0000 0.0000 0.0000 0.0000 0.0000 27.3909
#
#
#
# Elastic Compliance Matrix: (Units=1/GPa)
#
#
# Indices 1 2 3 4 5 6 
#
# 1 0.008534 -0.000993 -0.001908 0.000000 0.000000 0.000000
# 2 -0.000993 0.006807 -0.003178 0.000000 0.000000 0.000000
# 3 -0.001908 -0.003178 0.009403 0.000000 0.000000 0.000000
# 4 0.000000 0.000000 0.000000 0.105499 0.000000 0.000000
# 5 0.000000 0.000000 0.000000 0.000000 0.052555 0.000000
# 6 0.000000 0.000000 0.000000 0.000000 0.000000 0.036508
#
#
# Mechanical properties :
#
#
# Convention : Reuss Voigt Hill
#
# Bulk Modulus (GPa) = 79.45489 82.87432 81.16460
# Shear Modulus (GPa) = 21.21694 31.64219 26.42957
#
# Velocity S-wave (km/s) = 3.11145 3.79975 3.47270
# Velocity P-wave (km/s) = 7.01163 7.55419 7.28796
#
# Compressibility (1/GPa) = 0.01258576
#
# Stress axis : x y z
#
# Youngs Moduli (GPa) = 117.17609 146.90470 106.35056
#
# Poissons Ratio (x) = 0.14586 0.20290
# Poissons Ratio (y) = 0.11635 0.33803
# Poissons Ratio (z) = 0.22355 0.46693
#
# Static dielectric constant tensor:
#      x y z
#    x 3.436110 0.000000 0.000000 
#    y 0.000000 1.785130 0.000000 
#    z 0.000000 0.000000 1.795770 
# 
# From -- ./inp_files/51521.got.cif
#   From: 2010.05.17/outbox.cif.g08.bks.cpg/sg64_26_cif.got.tgz:51521.got - 2010.06.03 16:29:19.
