data_PCOD9481388
_publ_section_title
;
Structure prediction by ZEFSAII (Michael W. Deem and Ramdas Pophale) SiO2 
 PCOD9481388
Probable space group: C M C A
;
_chemical_formula_sum "Si O2"
_cell_formula_units_Z 96
_cell_length_a 21.245515
_cell_length_b 25.190735
_cell_length_c 9.107492
_cell_angle_alpha 90.000000
_cell_angle_beta 90.000000
_cell_angle_gamma 90.000000
_cell_volume 4874.239903
_symmetry_space_group_name_H-M "C M C A"
_symmetry_group_IT_number 64
_symmetry_cell_setting 'orthorhombic'
loop_
_space_group_symop_operation_xyz
x,y,z
-x,1/2-y,1/2+z
x,-y,-z
-x,1/2+y,1/2-z
-x,-y,-z
x,1/2+y,1/2-z
-x,y,z
x,1/2-y,1/2+z
1/2+x,1/2+y,z
1/2-x,-y,1/2+z
1/2+x,1/2-y,-z
1/2-x,y,1/2-z
1/2-x,1/2-y,-z
1/2+x,y,1/2-z
1/2-x,1/2+y,z
1/2+x,-y,1/2+z
loop_
_atom_site_type_symbol
_atom_site_label
_atom_site_fract_x
_atom_site_fract_y
_atom_site_fract_z
Si Si1 0.314505 0.281879 0.513117
Si Si2 0.820056 0.879725 0.743488
Si Si3 0.613189 0.146941 0.826074
Si Si4 0.500000 0.184579 0.330586
Si Si5 0.500000 0.705438 0.512253
Si Si6 0.923917 0.938383 0.543517
Si Si7 0.880905 0.329553 0.504189
O O1 0.250000 0.250000 0.500000
O O2 0.320111 0.323869 0.647979
O O3 0.325484 0.319386 0.371466
O O4 0.364221 0.232792 0.516293
O O5 0.750000 0.904564 0.750000
O O6 0.875337 0.916712 0.670751
O O7 0.826567 0.860550 0.912128
O O8 0.559477 0.178559 0.913221
O O9 0.603338 0.148399 0.654456
O O10 0.605007 0.090388 0.899904
O O11 0.500000 0.234804 0.437613
O O12 0.436379 0.157992 0.380639
O O13 0.500000 0.199601 0.161682
O O14 0.000000 0.924896 0.569011
O O15 0.922306 0.000000 0.500000
#
# Coordination Sequence:
#
# PCOD9481388 Si02
#       7
#    16  16  16   8   8  16  16
#     4  11  22  39  58  87 134 182 220 254 311 402
#     4  11  24  43  66  96 134 176 224 272 330 401
#     4  11  23  38  61  90 126 162 218 266 325 392
#     4  12  24  34  56  81 128 169 211 259 320 380
#     4  12  22  38  53  85 120 167 209 257 320 386
#     4  10  23  47  74  94 122 173 227 284 350 401
#     4  12  24  36  59  95 131 173 209 268 323 393
#
# _framework density 19.69538
#
# number of rings (size 3 to 8) (size 9 to 14) (size 15 to 20)
#    0.000    0.833    4.167    4.500    1.167    0.000 
#    0.000    2.500    0.000    2.000    0.000    0.000 
#    0.000    0.000    0.000    0.000    0.000    0.000 
#
# Total GULP energy -267448.723313 kJ/mol
# GULP energy per Si atom -5571.848402 kJ/mol
# Density = 1.965055 g / cm^3
# Si number density = 19.695380 Si / 1000 Ang^3
#
#
#
# Elastic Constant Matrix: (Units=GPa)
#
#
# Indices 1 2 3 4 5 6 
#
# 1 104.4828 43.7320 42.1153 0.0000 0.0000 0.0000
# 2 43.7320 86.6386 9.6207 0.0000 0.0000 0.0000
# 3 42.1153 9.6207 131.6511 0.0000 0.0000 0.0000
# 4 0.0000 0.0000 0.0000 19.6332 0.0000 0.0000
# 5 0.0000 0.0000 0.0000 0.0000 23.9438 0.0000
# 6 0.0000 0.0000 0.0000 0.0000 0.0000 27.2425
#
#
#
# Elastic Compliance Matrix: (Units=1/GPa)
#
#
# Indices 1 2 3 4 5 6 
#
# 1 0.013932 -0.006591 -0.003975 0.000000 0.000000 0.000000
# 2 -0.006591 0.014755 0.001030 0.000000 0.000000 0.000000
# 3 -0.003975 0.001030 0.008792 0.000000 0.000000 0.000000
# 4 0.000000 0.000000 0.000000 0.050934 0.000000 0.000000
# 5 0.000000 0.000000 0.000000 0.000000 0.041764 0.000000
# 6 0.000000 0.000000 0.000000 0.000000 0.000000 0.036707
#
#
# Mechanical properties :
#
#
# Convention : Reuss Voigt Hill
#
# Bulk Modulus (GPa) = 54.32710 57.07872 55.70291
# Shear Modulus (GPa) = 26.02915 29.31752 27.67334
#
# Velocity S-wave (km/s) = 3.63931 3.86236 3.75249
# Velocity P-wave (km/s) = 6.73075 6.99529 6.86429
#
# Compressibility (1/GPa) = 0.01840702
#
# Stress axis : x y z
#
# Youngs Moduli (GPa) = 71.77734 67.77514 113.73691
#
# Poissons Ratio (x) = 0.44670 0.45213
# Poissons Ratio (y) = 0.47308 -0.11717
# Poissons Ratio (z) = 0.28533 -0.06982
#
# Static dielectric constant tensor:
#      x y z
#    x 1.980700 0.000000 0.000000 
#    y 0.000000 1.531570 0.000000 
#    z 0.000000 0.000000 1.691160 
# 
# From -- ./inp_files/9623.got.cif
#   From: 2010.05.17/outbox.cif.g08.bks.cpg/sg64_5_cif.got.tgz:9623.got - 2010.06.03 16:29:19.
