data_PCOD9481160
_publ_section_title
;
Structure prediction by ZEFSAII (Michael W. Deem and Ramdas Pophale) SiO2 
 PCOD9481160
Probable space group: C M C A
;
_chemical_formula_sum "Si O2"
_cell_formula_units_Z 64
_cell_length_a 24.265025
_cell_length_b 5.309178
_cell_length_c 22.887027
_cell_angle_alpha 90.000000
_cell_angle_beta 90.000000
_cell_angle_gamma 90.000000
_cell_volume 2948.474738
_symmetry_space_group_name_H-M "C M C A"
_symmetry_group_IT_number 64
_symmetry_cell_setting 'orthorhombic'
loop_
_space_group_symop_operation_xyz
x,y,z
-x,1/2-y,1/2+z
x,-y,-z
-x,1/2+y,1/2-z
-x,-y,-z
x,1/2+y,1/2-z
-x,y,z
x,1/2-y,1/2+z
1/2+x,1/2+y,z
1/2-x,-y,1/2+z
1/2+x,1/2-y,-z
1/2-x,y,1/2-z
1/2-x,1/2-y,-z
1/2+x,y,1/2-z
1/2-x,1/2+y,z
1/2+x,-y,1/2+z
loop_
_atom_site_type_symbol
_atom_site_label
_atom_site_fract_x
_atom_site_fract_y
_atom_site_fract_z
Si Si1 0.623166 0.462221 0.108959
Si Si2 0.185731 0.346060 0.272741
Si Si3 0.934635 0.973189 0.430441
Si Si4 0.270705 0.296089 0.065048
O O1 0.664040 0.447389 0.165114
O O2 0.596836 0.732616 0.096786
O O3 0.667786 0.389650 0.060559
O O4 0.580403 0.231574 0.103580
O O5 0.162971 0.564172 0.230993
O O6 0.250000 0.318891 0.250000
O O7 0.000000 0.927764 0.426831
O O8 0.921159 0.000000 0.500000
O O9 0.235194 0.520856 0.094121
O O10 0.250000 0.250000 0.000000
#
# Coordination Sequence:
#
# PCOD9481160 Si02
#       4
#    16  16  16  16
#     4  12  24  41  72  94 137 188 217 278 351 398
#     4  10  23  41  63  96 135 175 225 272 328 405
#     4  11  26  46  70 102 135 177 235 285 332 404
#     4  10  23  35  54  92 134 171 212 257 321 419
#
# _framework density 21.706139
#
# number of rings (size 3 to 8) (size 9 to 14) (size 15 to 20)
#    0.000    1.250    0.000    4.500   17.500    2.000 
#    0.000    0.000    0.000   15.000    0.000    0.000 
#    0.000    0.000    0.000    0.000    0.000    0.000 
#
# Total GULP energy -178207.976972 kJ/mol
# GULP energy per Si atom -5568.999280 kJ/mol
# Density = 2.165674 g / cm^3
# Si number density = 21.706139 Si / 1000 Ang^3
#
#
#
# Elastic Constant Matrix: (Units=GPa)
#
#
# Indices 1 2 3 4 5 6 
#
# 1 83.1453 26.6243 33.4860 0.0000 0.0000 0.0000
# 2 26.6243 177.6359 1.3097 0.0000 0.0000 0.0000
# 3 33.4860 1.3097 66.0276 0.0000 0.0000 0.0000
# 4 0.0000 0.0000 0.0000 24.5673 0.0000 0.0000
# 5 0.0000 0.0000 0.0000 0.0000 30.5202 0.0000
# 6 0.0000 0.0000 0.0000 0.0000 0.0000 61.7760
#
#
#
# Elastic Compliance Matrix: (Units=1/GPa)
#
#
# Indices 1 2 3 4 5 6 
#
# 1 0.016034 -0.002344 -0.008085 0.000000 0.000000 0.000000
# 2 -0.002344 0.005973 0.001070 0.000000 0.000000 0.000000
# 3 -0.008085 0.001070 0.019224 0.000000 0.000000 0.000000
# 4 0.000000 0.000000 0.000000 0.040705 0.000000 0.000000
# 5 0.000000 0.000000 0.000000 0.000000 0.032765 0.000000
# 6 0.000000 0.000000 0.000000 0.000000 0.000000 0.016188
#
#
# Mechanical properties :
#
#
# Convention : Reuss Voigt Hill
#
# Bulk Modulus (GPa) = 44.41715 49.96096 47.18905
# Shear Modulus (GPa) = 31.82486 41.06530 36.44508
#
# Velocity S-wave (km/s) = 3.83321 4.35429 4.10203
# Velocity P-wave (km/s) = 6.33235 6.95318 6.65002
#
# Compressibility (1/GPa) = 0.02251383
#
# Stress axis : x y z
#
# Youngs Moduli (GPa) = 62.36838 167.42408 52.01746
#
# Poissons Ratio (x) = 0.39237 0.42056
# Poissons Ratio (y) = 0.14616 -0.05566
# Poissons Ratio (z) = 0.50425 -0.17915
#
# Static dielectric constant tensor:
#      x y z
#    x 2.164990 0.000000 0.000000 
#    y 0.000000 1.966350 0.000000 
#    z 0.000000 0.000000 1.994150 
# 
# From -- ./inp_files/41244.got.cif
#   From: 2010.05.17/outbox.cif.g08.bks.cpg/sg64_21_cif.got.tgz:41244.got - 2010.06.03 16:29:19.
