data_PCOD9481620
_publ_section_title
;
Structure prediction by ZEFSAII (Michael W. Deem and Ramdas Pophale) SiO2 
 PCOD9481620
Probable space group: C M C A
;
_chemical_formula_sum "Si O2"
_cell_formula_units_Z 88
_cell_length_a 18.895468
_cell_length_b 11.284067
_cell_length_c 18.877185
_cell_angle_alpha 90.000000
_cell_angle_beta 90.000000
_cell_angle_gamma 90.000000
_cell_volume 4024.950476
_symmetry_space_group_name_H-M "C M C A"
_symmetry_group_IT_number 64
_symmetry_cell_setting 'orthorhombic'
loop_
_space_group_symop_operation_xyz
x,y,z
-x,1/2-y,1/2+z
x,-y,-z
-x,1/2+y,1/2-z
-x,-y,-z
x,1/2+y,1/2-z
-x,y,z
x,1/2-y,1/2+z
1/2+x,1/2+y,z
1/2-x,-y,1/2+z
1/2+x,1/2-y,-z
1/2-x,y,1/2-z
1/2-x,1/2-y,-z
1/2+x,y,1/2-z
1/2-x,1/2+y,z
1/2+x,-y,1/2+z
loop_
_atom_site_type_symbol
_atom_site_label
_atom_site_fract_x
_atom_site_fract_y
_atom_site_fract_z
Si Si1 0.859236 0.329946 0.671534
Si Si2 0.000000 0.809061 0.151488
Si Si3 0.121037 0.000000 0.500000
Si Si4 0.119562 0.943894 0.073968
Si Si5 0.000000 0.172933 0.691005
Si Si6 0.250000 0.534299 0.250000
Si Si7 0.272539 0.623502 0.608150
Si Si8 0.500000 0.565092 0.400088
O O1 0.878537 0.444562 0.626479
O O2 0.928488 0.250012 0.682422
O O3 0.818636 0.382422 0.739565
O O4 0.800378 0.251732 0.630985
O O5 0.066907 0.849806 0.106742
O O6 0.000000 0.869933 0.227887
O O7 0.000000 0.667613 0.158070
O O8 0.170003 0.070590 0.554501
O O9 0.067991 0.076085 0.451048
O O10 0.196942 0.885236 0.070135
O O11 0.097105 0.000000 0.000000
O O12 0.000000 0.063811 0.636479
O O13 0.263366 0.453187 0.319269
#
# Coordination Sequence:
#
# PCOD9481620 Si02
#       8
#    16   8   8  16   8   8  16   8
#     4  11  26  45  74  99 149 179 236 296 351 430
#     4  12  31  45  73  99 148 186 247 293 362 423
#     4  11  24  46  74 107 140 188 244 287 358 432
#     4  11  27  48  71 107 140 187 232 293 362 421
#     4  12  28  46  71 104 136 199 240 289 362 422
#     4  10  26  44  72 110 142 186 232 300 354 426
#     4  11  24  46  76 105 143 186 237 289 361 427
#     4  11  28  47  73 103 144 190 244 302 350 436
#
# _framework density 21.863624000000002
#
# number of rings (size 3 to 8) (size 9 to 14) (size 15 to 20)
#    0.000    0.909    2.727    1.364   15.273    2.182 
#    0.000    0.000    0.000    0.000    0.000    0.000 
#    0.000    0.000    0.000    0.000    0.000    0.000 
#
# Total GULP energy -246182.856438 kJ/mol
# GULP energy per Si atom -5595.064919 kJ/mol
# Density = 2.181386 g / cm^3
# Si number density = 21.863624 Si / 1000 Ang^3
#
#
#
# Elastic Constant Matrix: (Units=GPa)
#
#
# Indices 1 2 3 4 5 6 
#
# 1 117.3210 34.0380 22.1182 0.0000 0.0000 0.0000
# 2 34.0380 85.7351 2.2497 0.0000 0.0000 0.0000
# 3 22.1182 2.2497 70.7118 0.0000 0.0000 0.0000
# 4 0.0000 0.0000 0.0000 14.2804 0.0000 0.0000
# 5 0.0000 0.0000 0.0000 0.0000 287.5684 0.0000
# 6 0.0000 0.0000 0.0000 0.0000 0.0000 -30.3979
#
#
#
# Elastic Compliance Matrix: (Units=1/GPa)
#
#
# Indices 1 2 3 4 5 6 
#
# 1 0.010264 -0.003994 -0.003083 0.000000 0.000000 0.000000
# 2 -0.003994 0.013228 0.000828 0.000000 0.000000 0.000000
# 3 -0.003083 0.000828 0.015080 0.000000 0.000000 0.000000
# 4 0.000000 0.000000 0.000000 0.070026 0.000000 0.000000
# 5 0.000000 0.000000 0.000000 0.000000 0.003477 0.000000
# 6 0.000000 0.000000 0.000000 0.000000 0.000000 -0.032897
#
#
# Mechanical properties :
#
#
# Convention : Reuss Voigt Hill
#
# Bulk Modulus (GPa) = 38.35275 43.39775 40.87525
# Shear Modulus (GPa) = 49.81732 68.64766 59.23249
#
# Velocity S-wave (km/s) = 4.77859 5.60948 5.21063
# Velocity P-wave (km/s) = 6.93011 7.86431 7.41195
#
# Compressibility (1/GPa) = 0.02607375
#
# Stress axis : x y z
#
# Youngs Moduli (GPa) = 97.43117 75.59878 66.31297
#
# Poissons Ratio (x) = 0.30193 0.20447
# Poissons Ratio (y) = 0.38913 -0.05494
# Poissons Ratio (z) = 0.30041 -0.06263
#
# Static dielectric constant tensor:
#      x y z
#    x 1.802080 0.000000 0.000000 
#    y 0.000000 1.760970 0.000000 
#    z 0.000000 0.000000 1.795520 
# 
# From -- ./inp_files/40107.got.cif
#   From: 2010.05.17/outbox.cif.g08.bks.cpg/sg64_21_cif.got.tgz:40107.got - 2010.06.03 16:29:19.
