data_PCOD9481438
_publ_section_title
;
Structure prediction by ZEFSAII (Michael W. Deem and Ramdas Pophale) SiO2 
 PCOD9481438
Probable space group: C M C A
;
_chemical_formula_sum "Si O2"
_cell_formula_units_Z 72
_cell_length_a 14.092144
_cell_length_b 8.497501
_cell_length_c 24.705190
_cell_angle_alpha 90.000000
_cell_angle_beta 90.000000
_cell_angle_gamma 90.000000
_cell_volume 2958.397283
_symmetry_space_group_name_H-M "C M C A"
_symmetry_group_IT_number 64
_symmetry_cell_setting 'orthorhombic'
loop_
_space_group_symop_operation_xyz
x,y,z
-x,1/2-y,1/2+z
x,-y,-z
-x,1/2+y,1/2-z
-x,-y,-z
x,1/2+y,1/2-z
-x,y,z
x,1/2-y,1/2+z
1/2+x,1/2+y,z
1/2-x,-y,1/2+z
1/2+x,1/2-y,-z
1/2-x,y,1/2-z
1/2-x,1/2-y,-z
1/2+x,y,1/2-z
1/2-x,1/2+y,z
1/2+x,-y,1/2+z
loop_
_atom_site_type_symbol
_atom_site_label
_atom_site_fract_x
_atom_site_fract_y
_atom_site_fract_z
Si Si1 0.500000 0.612973 0.397964
Si Si2 0.801256 0.179995 0.807017
Si Si3 0.000000 0.270403 0.097319
Si Si4 0.329818 0.152629 0.467607
Si Si5 0.500000 0.554616 0.836802
Si Si6 0.190946 0.536430 0.119485
O O1 0.500000 0.434684 0.368641
O O2 0.500000 0.791628 0.376411
O O3 0.395282 0.587138 0.420700
O O4 0.750000 0.184436 0.750000
O O5 0.898447 0.077200 0.806447
O O6 0.829096 0.351254 0.829072
O O7 0.723539 0.122658 0.851283
O O8 0.088574 0.261000 0.056573
O O9 0.000000 0.113778 0.133742
O O10 0.250000 0.250000 0.500000
O O11 0.281651 0.076850 0.415298
O O12 0.367026 0.000000 0.500000
#
# Coordination Sequence:
#
# PCOD9481438 Si02
#       6
#     8  16   8  16   8  16
#     4  10  24  41  71 100 138 190 230 291 369 421
#     4  11  23  43  70 102 138 185 240 294 362 439
#     4  12  23  47  72 104 142 197 243 303 370 434
#     4  12  26  43  69 105 140 191 247 302 367 439
#     4  10  24  44  75 101 144 189 237 296 363 439
#     4  11  23  44  66 101 143 184 234 302 363 430
#
# _framework density 24.337503999999999
#
# number of rings (size 3 to 8) (size 9 to 14) (size 15 to 20)
#    0.000    0.889    2.222    5.000    3.111    1.778 
#    0.000    6.667    0.000    0.000    0.000    0.000 
#    0.000    0.000    0.000    0.000    0.000    0.000 
#
# Total GULP energy -200527.449247 kJ/mol
# GULP energy per Si atom -5570.206924 kJ/mol
# Density = 2.428211 g / cm^3
# Si number density = 24.337504 Si / 1000 Ang^3
#
#
#
# Elastic Constant Matrix: (Units=GPa)
#
#
# Indices 1 2 3 4 5 6 
#
# 1 82.6181 -27.9405 3.0971 0.0000 0.0000 0.0000
# 2 -27.9405 124.6231 22.1778 0.0000 0.0000 0.0000
# 3 3.0971 22.1778 77.3364 0.0000 0.0000 0.0000
# 4 0.0000 0.0000 0.0000 22.6909 0.0000 0.0000
# 5 0.0000 0.0000 0.0000 0.0000 27.7462 0.0000
# 6 0.0000 0.0000 0.0000 0.0000 0.0000 30.5220
#
#
#
# Elastic Compliance Matrix: (Units=1/GPa)
#
#
# Indices 1 2 3 4 5 6 
#
# 1 0.013251 0.003230 -0.001457 0.000000 0.000000 0.000000
# 2 0.003230 0.009243 -0.002780 0.000000 0.000000 0.000000
# 3 -0.001457 -0.002780 0.013786 0.000000 0.000000 0.000000
# 4 0.000000 0.000000 0.000000 0.044070 0.000000 0.000000
# 5 0.000000 0.000000 0.000000 0.000000 0.036041 0.000000
# 6 0.000000 0.000000 0.000000 0.000000 0.000000 0.032763
#
#
# Mechanical properties :
#
#
# Convention : Reuss Voigt Hill
#
# Bulk Modulus (GPa) = 29.18308 31.02737 30.10523
# Shear Modulus (GPa) = 30.75208 35.34138 33.04673
#
# Velocity S-wave (km/s) = 3.55853 3.81483 3.68890
# Velocity P-wave (km/s) = 5.37598 5.67277 5.52637
#
# Compressibility (1/GPa) = 0.03426643
#
# Stress axis : x y z
#
# Youngs Moduli (GPa) = 75.46654 108.18856 72.53680
#
# Poissons Ratio (x) = -0.34946 0.10568
# Poissons Ratio (y) = -0.24377 0.20165
# Poissons Ratio (z) = 0.10995 0.30077
#
# Static dielectric constant tensor:
#      x y z
#    x 2.146380 0.000000 0.000000 
#    y 0.000000 2.016480 0.000000 
#    z 0.000000 0.000000 1.904980 
# 
# From -- ./inp_files/49836.got.cif
#   From: 2010.05.17/outbox.cif.g08.bks.cpg/sg64_25_cif.got.tgz:49836.got - 2010.06.03 16:29:19.
