data_PCOD9481151
_publ_section_title
;
Structure prediction by ZEFSAII (Michael W. Deem and Ramdas Pophale) SiO2 
 PCOD9481151
Probable space group: C M C A
;
_chemical_formula_sum "Si O2"
_cell_formula_units_Z 64
_cell_length_a 9.258841
_cell_length_b 12.498282
_cell_length_c 21.979150
_cell_angle_alpha 90.000000
_cell_angle_beta 90.000000
_cell_angle_gamma 90.000000
_cell_volume 2543.418574
_symmetry_space_group_name_H-M "C M C A"
_symmetry_group_IT_number 64
_symmetry_cell_setting 'orthorhombic'
loop_
_space_group_symop_operation_xyz
x,y,z
-x,1/2-y,1/2+z
x,-y,-z
-x,1/2+y,1/2-z
-x,-y,-z
x,1/2+y,1/2-z
-x,y,z
x,1/2-y,1/2+z
1/2+x,1/2+y,z
1/2-x,-y,1/2+z
1/2+x,1/2-y,-z
1/2-x,y,1/2-z
1/2-x,1/2-y,-z
1/2+x,y,1/2-z
1/2-x,1/2+y,z
1/2+x,-y,1/2+z
loop_
_atom_site_type_symbol
_atom_site_label
_atom_site_fract_x
_atom_site_fract_y
_atom_site_fract_z
Si Si1 0.500000 0.577939 0.864530
Si Si2 0.758724 0.950834 0.937754
Si Si3 0.000000 0.817696 0.596094
Si Si4 0.250000 0.306766 0.750000
Si Si5 0.000000 0.309664 0.172666
Si Si6 0.000000 0.967869 0.730510
Si Si7 0.500000 0.778156 0.538134
O O1 0.358960 0.533966 0.900520
O O2 0.500000 0.707192 0.865430
O O3 0.500000 0.523709 0.797994
O O4 0.638521 0.892432 0.899144
O O5 0.864344 0.856656 0.959396
O O6 0.697919 0.000000 0.000000
O O7 0.000000 0.781616 0.525202
O O8 0.146854 0.238151 0.704354
O O9 0.134285 0.389688 0.775808
O O10 0.000000 0.286771 0.101032
O O11 0.000000 0.434002 0.185415
#
# Coordination Sequence:
#
# PCOD9481151 Si02
#       7
#     8  16   8   8   8   8   8
#     4  11  25  46  69  97 142 180 223 289 348 408
#     4  11  22  44  69 101 139 179 225 274 335 414
#     4  12  25  43  71 106 142 179 225 278 349 415
#     4  10  22  46  70  94 132 174 234 284 336 404
#     4  11  25  47  71  99 141 179 234 292 339 403
#     4  11  25  45  71  99 130 184 235 284 350 405
#     4  11  23  46  68 101 145 183 219 288 348 406
#
# _framework density 25.162983000000001
#
# number of rings (size 3 to 8) (size 9 to 14) (size 15 to 20)
#    0.000    1.000    2.500    5.625    0.000    6.000 
#    4.500    5.000    0.000    0.000    0.000    0.000 
#    0.000    0.000    0.000    0.000    0.000    0.000 
#
# Total GULP energy -179437.620374 kJ/mol
# GULP energy per Si atom -5607.425637 kJ/mol
# Density = 2.510571 g / cm^3
# Si number density = 25.162983 Si / 1000 Ang^3
#
#
#
# Elastic Constant Matrix: (Units=GPa)
#
#
# Indices 1 2 3 4 5 6 
#
# 1 165.6738 68.2116 14.3461 0.0000 0.0000 0.0000
# 2 68.2116 164.4576 48.6437 0.0000 0.0000 0.0000
# 3 14.3461 48.6437 159.2923 0.0000 0.0000 0.0000
# 4 0.0000 0.0000 0.0000 42.3118 0.0000 0.0000
# 5 0.0000 0.0000 0.0000 0.0000 24.3037 0.0000
# 6 0.0000 0.0000 0.0000 0.0000 0.0000 -13.1618
#
#
#
# Elastic Compliance Matrix: (Units=1/GPa)
#
#
# Indices 1 2 3 4 5 6 
#
# 1 0.007291 -0.003111 0.000293 0.000000 0.000000 0.000000
# 2 -0.003111 0.008012 -0.002166 0.000000 0.000000 0.000000
# 3 0.000293 -0.002166 0.006913 0.000000 0.000000 0.000000
# 4 0.000000 0.000000 0.000000 0.023634 0.000000 0.000000
# 5 0.000000 0.000000 0.000000 0.000000 0.041146 0.000000
# 6 0.000000 0.000000 0.000000 0.000000 0.000000 -0.075978
#
#
# Mechanical properties :
#
#
# Convention : Reuss Voigt Hill
#
# Bulk Modulus (GPa) = 81.64634 83.53628 82.59131
# Shear Modulus (GPa) = 199.44769 34.57225 117.00997
#
# Velocity S-wave (km/s) = 8.91260 3.71068 6.82655
# Velocity P-wave (km/s) = 11.76563 7.18533 9.74831
#
# Compressibility (1/GPa) = 0.01224795
#
# Stress axis : x y z
#
# Youngs Moduli (GPa) = 137.14734 124.81719 144.65697
#
# Poissons Ratio (x) = 0.38831 -0.04243
# Poissons Ratio (y) = 0.42667 0.31338
# Poissons Ratio (z) = -0.04023 0.27040
#
# Static dielectric constant tensor:
#      x y z
#    x 1.558070 0.000000 0.000000 
#    y 0.000000 1.938950 0.000000 
#    z 0.000000 0.000000 2.044000 
# 
# From -- ./inp_files/42548.got.cif
#   From: 2010.05.17/outbox.cif.g08.bks.cpg/sg64_22_cif.got.tgz:42548.got - 2010.06.03 16:29:19.
