data_PCOD9481708
_publ_section_title
;
Structure prediction by ZEFSAII (Michael W. Deem and Ramdas Pophale) SiO2 
 PCOD9481708
Probable space group: C M C A
;
_chemical_formula_sum "Si O2"
_cell_formula_units_Z 112
_cell_length_a 20.908589
_cell_length_b 23.316483
_cell_length_c 12.226945
_cell_angle_alpha 90.000000
_cell_angle_beta 90.000000
_cell_angle_gamma 90.000000
_cell_volume 5960.816157
_symmetry_space_group_name_H-M "C M C A"
_symmetry_group_IT_number 64
_symmetry_cell_setting 'orthorhombic'
loop_
_space_group_symop_operation_xyz
x,y,z
-x,1/2-y,1/2+z
x,-y,-z
-x,1/2+y,1/2-z
-x,-y,-z
x,1/2+y,1/2-z
-x,y,z
x,1/2-y,1/2+z
1/2+x,1/2+y,z
1/2-x,-y,1/2+z
1/2+x,1/2-y,-z
1/2-x,y,1/2-z
1/2-x,1/2-y,-z
1/2+x,y,1/2-z
1/2-x,1/2+y,z
1/2+x,-y,1/2+z
loop_
_atom_site_type_symbol
_atom_site_label
_atom_site_fract_x
_atom_site_fract_y
_atom_site_fract_z
Si Si1 0.196616 0.332105 0.668490
Si Si2 0.072221 0.603171 0.389761
Si Si3 0.660066 0.796039 0.237961
Si Si4 0.754589 0.347092 0.075869
Si Si5 0.146443 0.495105 0.330983
Si Si6 0.284090 0.019103 0.891753
Si Si7 0.927517 0.877347 0.144137
O O1 0.250000 0.356264 0.750000
O O2 0.131399 0.367439 0.669817
O O3 0.175357 0.270377 0.717287
O O4 0.228312 0.333111 0.545765
O O5 0.092384 0.536442 0.379919
O O6 0.073805 0.629006 0.512550
O O7 0.000000 0.611015 0.348160
O O8 0.706196 0.819070 0.335951
O O9 0.677984 0.821938 0.118792
O O10 0.594299 0.822331 0.284887
O O11 0.763986 0.414328 0.100715
O O12 0.214319 0.510639 0.386874
O O13 0.170145 0.497682 0.206427
O O14 0.120831 0.430306 0.339852
O O15 0.318518 0.000000 0.000000
O O16 0.000000 0.893511 0.173854
#
# Coordination Sequence:
#
# PCOD9481708 Si02
#       7
#    16  16  16  16  16  16  16
#     4  12  25  37  66  93 124 171 216 264 320 377
#     4  11  25  41  60  90 131 164 210 267 317 381
#     4  11  21  39  62  92 121 161 207 269 311 377
#     4  11  20  40  59  93 129 154 203 261 325 363
#     4  11  20  37  60  93 123 159 205 259 318 385
#     4  11  21  33  61  93 129 157 197 262 323 382
#     4  11  21  39  65  90 123 171 209 256 321 386
#
# _framework density 18.789373000000001
#
# number of rings (size 3 to 8) (size 9 to 14) (size 15 to 20)
#    0.000    0.857    5.714    3.857    4.000    1.714 
#    0.000    0.000    0.000    4.286    0.000    0.000 
#    0.000    0.000    0.000    0.000    0.000    0.000 
#
# Total GULP energy -311742.100905 kJ/mol
# GULP energy per Si atom -5566.823230 kJ/mol
# Density = 1.874661 g / cm^3
# Si number density = 18.789373 Si / 1000 Ang^3
#
#
#
# Elastic Constant Matrix: (Units=GPa)
#
#
# Indices 1 2 3 4 5 6 
#
# 1 107.3686 16.7130 29.4794 0.0000 0.0000 0.0000
# 2 16.7130 61.2654 19.2148 0.0000 0.0000 0.0000
# 3 29.4794 19.2148 100.6845 0.0000 0.0000 0.0000
# 4 0.0000 0.0000 0.0000 28.3762 0.0000 0.0000
# 5 0.0000 0.0000 0.0000 0.0000 26.7370 0.0000
# 6 0.0000 0.0000 0.0000 0.0000 0.0000 -32.4274
#
#
#
# Elastic Compliance Matrix: (Units=1/GPa)
#
#
# Indices 1 2 3 4 5 6 
#
# 1 0.010352 -0.001993 -0.002651 0.000000 0.000000 0.000000
# 2 -0.001993 0.017745 -0.002803 0.000000 0.000000 0.000000
# 3 -0.002651 -0.002803 0.011243 0.000000 0.000000 0.000000
# 4 0.000000 0.000000 0.000000 0.035241 0.000000 0.000000
# 5 0.000000 0.000000 0.000000 0.000000 0.037401 0.000000
# 6 0.000000 0.000000 0.000000 0.000000 0.000000 -0.030838
#
#
# Mechanical properties :
#
#
# Convention : Reuss Voigt Hill
#
# Bulk Modulus (GPa) = 40.90440 44.45922 42.68181
# Shear Modulus (GPa) = 47.99131 18.13123 33.06127
#
# Velocity S-wave (km/s) = 5.05937 3.10977 4.19928
# Velocity P-wave (km/s) = 7.47976 6.05041 6.80273
#
# Compressibility (1/GPa) = 0.02444725
#
# Stress axis : x y z
#
# Youngs Moduli (GPa) = 96.60320 56.35347 88.94402
#
# Poissons Ratio (x) = 0.11229 0.23575
# Poissons Ratio (y) = 0.19249 0.24932
# Poissons Ratio (z) = 0.25605 0.15796
#
# Static dielectric constant tensor:
#      x y z
#    x 1.688930 0.000000 0.000000 
#    y 0.000000 1.723940 0.000000 
#    z 0.000000 0.000000 2.556390 
# 
# From -- ./inp_files/17547.got.cif
#   From: 2010.05.17/outbox.cif.g08.bks.cpg/sg64_9_cif.got.tgz:17547.got - 2010.06.03 16:29:19.
