data_PCOD9481563
_publ_section_title
;
Structure prediction by ZEFSAII (Michael W. Deem and Ramdas Pophale) SiO2 
 PCOD9481563
Probable space group: C M C A
;
_chemical_formula_sum "Si O2"
_cell_formula_units_Z 48
_cell_length_a 15.772281
_cell_length_b 25.861101
_cell_length_c 4.984140
_cell_angle_alpha 90.000000
_cell_angle_beta 90.000000
_cell_angle_gamma 90.000000
_cell_volume 2032.973647
_symmetry_space_group_name_H-M "C M C A"
_symmetry_group_IT_number 64
_symmetry_cell_setting 'orthorhombic'
loop_
_space_group_symop_operation_xyz
x,y,z
-x,1/2-y,1/2+z
x,-y,-z
-x,1/2+y,1/2-z
-x,-y,-z
x,1/2+y,1/2-z
-x,y,z
x,1/2-y,1/2+z
1/2+x,1/2+y,z
1/2-x,-y,1/2+z
1/2+x,1/2-y,-z
1/2-x,y,1/2-z
1/2-x,1/2-y,-z
1/2+x,y,1/2-z
1/2-x,1/2+y,z
1/2+x,-y,1/2+z
loop_
_atom_site_type_symbol
_atom_site_label
_atom_site_fract_x
_atom_site_fract_y
_atom_site_fract_z
Si Si1 0.596790 0.464960 0.737706
Si Si2 0.250000 0.710455 0.750000
Si Si3 0.000000 0.214976 0.328783
Si Si4 0.657387 0.148642 0.376322
O O1 0.636573 0.500000 0.500000
O O2 0.500000 0.452685 0.648854
O O3 0.636896 0.411164 0.829062
O O4 0.594066 0.500000 0.000000
O O5 0.250000 0.750000 0.500000
O O6 0.172534 0.671559 0.676263
O O7 0.083098 0.182030 0.256161
O O8 0.000000 0.235834 0.629576
O O9 0.750000 0.155396 0.250000
#
# Coordination Sequence:
#
# PCOD9481563 Si02
#       4
#    16   8   8  16
#     4  10  24  47  76 109 150 196 253 319 387 464
#     4  12  26  46  72 106 154 200 250 316 378 456
#     4  12  30  48  74 110 154 206 254 310 386 468
#     4  12  28  49  79 114 153 203 260 322 391 468
#
# _framework density 23.610734000000001
#
# number of rings (size 3 to 8) (size 9 to 14) (size 15 to 20)
#    0.000    0.667    3.333    2.000    9.333    1.333 
#    0.000    0.000    0.000    0.000    0.000    0.000 
#    0.000    0.000    0.000    0.000    0.000    0.000 
#
# Total GULP energy -134158.491386 kJ/mol
# GULP energy per Si atom -5589.937141 kJ/mol
# Density = 2.355699 g / cm^3
# Si number density = 23.610734 Si / 1000 Ang^3
#
#
#
# Elastic Constant Matrix: (Units=GPa)
#
#
# Indices 1 2 3 4 5 6 
#
# 1 138.0882 68.1186 22.4344 0.0000 0.0000 0.0000
# 2 68.1186 216.2887 53.1822 0.0000 0.0000 0.0000
# 3 22.4344 53.1822 131.8975 0.0000 0.0000 0.0000
# 4 0.0000 0.0000 0.0000 44.3938 0.0000 0.0000
# 5 0.0000 0.0000 0.0000 0.0000 32.3248 0.0000
# 6 0.0000 0.0000 0.0000 0.0000 0.0000 7.5389
#
#
#
# Elastic Compliance Matrix: (Units=1/GPa)
#
#
# Indices 1 2 3 4 5 6 
#
# 1 0.008594 -0.002605 -0.000411 0.000000 0.000000 0.000000
# 2 -0.002605 0.005922 -0.001945 0.000000 0.000000 0.000000
# 3 -0.000411 -0.001945 0.008436 0.000000 0.000000 0.000000
# 4 0.000000 0.000000 0.000000 0.022526 0.000000 0.000000
# 5 0.000000 0.000000 0.000000 0.000000 0.030936 0.000000
# 6 0.000000 0.000000 0.000000 0.000000 0.000000 0.132645
#
#
# Mechanical properties :
#
#
# Convention : Reuss Voigt Hill
#
# Bulk Modulus (GPa) = 76.75175 85.97163 81.36169
# Shear Modulus (GPa) = 22.38903 39.68746 31.03825
#
# Velocity S-wave (km/s) = 3.08272 4.10434 3.62965
# Velocity P-wave (km/s) = 6.72671 7.67801 7.21805
#
# Compressibility (1/GPa) = 0.01302902
#
# Stress axis : x y z
#
# Youngs Moduli (GPa) = 116.36274 168.85620 118.54369
#
# Poissons Ratio (x) = 0.43995 0.04874
# Poissons Ratio (y) = 0.30318 0.23053
# Poissons Ratio (z) = 0.04785 0.32838
#
# Static dielectric constant tensor:
#      x y z
#    x 1.937650 0.000000 0.000000 
#    y 0.000000 1.919290 0.000000 
#    z 0.000000 0.000000 2.016520 
# 
# From -- ./inp_files/1157.got.cif
#   From: 2010.05.17/outbox.cif.g08.bks.cpg/sg64_1_cif.got.tgz:1157.got - 2010.06.03 16:29:19.
