data_PCOD9481370
_publ_section_title
;
Structure prediction by ZEFSAII (Michael W. Deem and Ramdas Pophale) SiO2 
 PCOD9481370
Probable space group: C M C A
;
_chemical_formula_sum "Si O2"
_cell_formula_units_Z 72
_cell_length_a 14.634637
_cell_length_b 19.989530
_cell_length_c 9.441251
_cell_angle_alpha 90.000000
_cell_angle_beta 90.000000
_cell_angle_gamma 90.000000
_cell_volume 2761.938992
_symmetry_space_group_name_H-M "C M C A"
_symmetry_group_IT_number 64
_symmetry_cell_setting 'orthorhombic'
loop_
_space_group_symop_operation_xyz
x,y,z
-x,1/2-y,1/2+z
x,-y,-z
-x,1/2+y,1/2-z
-x,-y,-z
x,1/2+y,1/2-z
-x,y,z
x,1/2-y,1/2+z
1/2+x,1/2+y,z
1/2-x,-y,1/2+z
1/2+x,1/2-y,-z
1/2-x,y,1/2-z
1/2-x,1/2-y,-z
1/2+x,y,1/2-z
1/2-x,1/2+y,z
1/2+x,-y,1/2+z
loop_
_atom_site_type_symbol
_atom_site_label
_atom_site_fract_x
_atom_site_fract_y
_atom_site_fract_z
Si Si1 0.607929 0.310201 0.710909
Si Si2 0.149081 0.016221 0.780958
Si Si3 0.897911 0.394889 0.531462
Si Si4 0.103076 0.622055 0.928025
Si Si5 0.750000 0.295590 0.250000
O O1 0.500000 0.292309 0.714704
O O2 0.635416 0.335845 0.867410
O O3 0.616449 0.369238 0.595372
O O4 0.675778 0.251037 0.670161
O O5 0.250000 0.991296 0.750000
O O6 0.108318 0.048731 0.640602
O O7 0.097162 0.957948 0.861407
O O8 0.154815 0.076934 0.896391
O O9 0.000000 0.378200 0.481170
O O10 0.183377 0.663501 0.853395
O O11 0.000000 0.648162 0.897948
#
# Coordination Sequence:
#
# PCOD9481370 Si02
#       5
#    16  16  16  16   8
#     4  10  25  43  67  98 131 173 222 275 331 389
#     4  11  23  39  67 101 132 170 217 264 325 392
#     4  10  23  45  68  96 135 179 214 264 337 399
#     4  11  24  44  66  97 133 172 224 276 328 391
#     4  12  24  42  68  94 132 178 220 274 332 394
#
# _framework density 26.068642000000001
#
# number of rings (size 3 to 8) (size 9 to 14) (size 15 to 20)
#    0.000    1.333    1.111    4.000    4.667    4.444 
#    0.000    5.556    0.000    0.000    0.000    0.000 
#    0.000    0.000    0.000    0.000    0.000    0.000 
#
# Total GULP energy -201543.745790 kJ/mol
# GULP energy per Si atom -5598.437383 kJ/mol
# Density = 2.600931 g / cm^3
# Si number density = 26.068642 Si / 1000 Ang^3
#
#
#
# Elastic Constant Matrix: (Units=GPa)
#
#
# Indices 1 2 3 4 5 6 
#
# 1 144.3507 20.6093 30.6594 0.0000 0.0000 0.0000
# 2 20.6093 40.0843 21.7597 0.0000 0.0000 0.0000
# 3 30.6594 21.7597 105.8771 0.0000 0.0000 0.0000
# 4 0.0000 0.0000 0.0000 42.2096 0.0000 0.0000
# 5 0.0000 0.0000 0.0000 0.0000 26.0504 0.0000
# 6 0.0000 0.0000 0.0000 0.0000 0.0000 55.6397
#
#
#
# Elastic Compliance Matrix: (Units=1/GPa)
#
#
# Indices 1 2 3 4 5 6 
#
# 1 0.007709 -0.003097 -0.001596 0.000000 0.000000 0.000000
# 2 -0.003097 0.029325 -0.005130 0.000000 0.000000 0.000000
# 3 -0.001596 -0.005130 0.010961 0.000000 0.000000 0.000000
# 4 0.000000 0.000000 0.000000 0.023691 0.000000 0.000000
# 5 0.000000 0.000000 0.000000 0.000000 0.038387 0.000000
# 6 0.000000 0.000000 0.000000 0.000000 0.000000 0.017973
#
#
# Mechanical properties :
#
#
# Convention : Reuss Voigt Hill
#
# Bulk Modulus (GPa) = 35.27464 48.48544 41.88004
# Shear Modulus (GPa) = 31.81858 39.26552 35.54205
#
# Velocity S-wave (km/s) = 3.49745 3.88524 3.69643
# Velocity P-wave (km/s) = 5.46538 6.22626 5.85819
#
# Compressibility (1/GPa) = 0.02834897
#
# Stress axis : x y z
#
# Youngs Moduli (GPa) = 129.72380 34.10111 91.23018
#
# Poissons Ratio (x) = 0.10562 0.14558
# Poissons Ratio (y) = 0.40178 0.46800
# Poissons Ratio (z) = 0.20700 0.17493
#
# Static dielectric constant tensor:
#      x y z
#    x 1.979310 0.000000 0.000000 
#    y 0.000000 2.089710 0.000000 
#    z 0.000000 0.000000 1.999590 
# 
# From -- ./inp_files/5857.got.cif
#   From: 2010.05.17/outbox.cif.g08.bks.cpg/sg64_3_cif.got.tgz:5857.got - 2010.06.03 16:29:19.
