data_PCOD9481523
_publ_section_title
;
Structure prediction by ZEFSAII (Michael W. Deem and Ramdas Pophale) SiO2 
 PCOD9481523
Probable space group: C M C A
;
_chemical_formula_sum "Si O2"
_cell_formula_units_Z 72
_cell_length_a 14.022476
_cell_length_b 18.028915
_cell_length_c 14.076636
_cell_angle_alpha 90.000000
_cell_angle_beta 90.000000
_cell_angle_gamma 90.000000
_cell_volume 3558.714740
_symmetry_space_group_name_H-M "C M C A"
_symmetry_group_IT_number 64
_symmetry_cell_setting 'orthorhombic'
loop_
_space_group_symop_operation_xyz
x,y,z
-x,1/2-y,1/2+z
x,-y,-z
-x,1/2+y,1/2-z
-x,-y,-z
x,1/2+y,1/2-z
-x,y,z
x,1/2-y,1/2+z
1/2+x,1/2+y,z
1/2-x,-y,1/2+z
1/2+x,1/2-y,-z
1/2-x,y,1/2-z
1/2-x,1/2-y,-z
1/2+x,y,1/2-z
1/2-x,1/2+y,z
1/2+x,-y,1/2+z
loop_
_atom_site_type_symbol
_atom_site_label
_atom_site_fract_x
_atom_site_fract_y
_atom_site_fract_z
Si Si1 0.000000 0.424948 0.817251
Si Si2 0.000000 0.746745 0.132857
Si Si3 0.000000 0.082870 0.099416
Si Si4 0.671089 0.500000 0.000000
Si Si5 0.500000 0.256990 0.409272
Si Si6 0.814534 0.010213 0.668494
Si Si7 0.642686 0.673749 0.735452
O O1 0.903617 0.459491 0.860806
O O2 0.000000 0.336005 0.823641
O O3 0.000000 0.448736 0.706208
O O4 0.086851 0.795927 0.173043
O O5 0.000000 0.733498 0.021379
O O6 0.903851 0.058057 0.045212
O O7 0.000000 0.170187 0.107893
O O8 0.742366 0.528057 0.917495
O O9 0.590326 0.292219 0.355822
O O10 0.750000 0.971841 0.750000
O O11 0.854638 0.085472 0.716673
O O12 0.750000 0.698593 0.750000
#
# Coordination Sequence:
#
# PCOD9481523 Si02
#       7
#     8   8   8   8   8  16  16
#     4  12  23  44  67  99 135 177 218 290 321 382
#     4  11  26  42  67  95 135 176 219 269 332 394
#     4  11  24  45  70  97 134 173 224 277 324 400
#     4  11  26  43  70 104 128 173 230 269 332 396
#     4  11  25  44  66  97 133 177 218 270 331 397
#     4  11  25  43  70  97 135 177 220 275 333 391
#     4  10  24  45  64  95 134 175 216 269 334 394
#
# _framework density 20.232023999999999
#
# number of rings (size 3 to 8) (size 9 to 14) (size 15 to 20)
#    0.000    1.111    4.444    1.333    9.333    4.000 
#    0.000    0.000    0.000    0.000    0.000    0.000 
#    0.000    0.000    0.000    0.000    0.000    0.000 
#
# Total GULP energy -200980.449371 kJ/mol
# GULP energy per Si atom -5582.790260 kJ/mol
# Density = 2.018597 g / cm^3
# Si number density = 20.232024 Si / 1000 Ang^3
#
#
#
# Elastic Constant Matrix: (Units=GPa)
#
#
# Indices 1 2 3 4 5 6 
#
# 1 153.5546 43.0097 35.7057 0.0000 0.0000 0.0000
# 2 43.0097 80.1202 5.7505 0.0000 0.0000 0.0000
# 3 35.7057 5.7505 119.8529 0.0000 0.0000 0.0000
# 4 0.0000 0.0000 0.0000 24.8317 0.0000 0.0000
# 5 0.0000 0.0000 0.0000 0.0000 33.1673 0.0000
# 6 0.0000 0.0000 0.0000 0.0000 0.0000 144.7021
#
#
#
# Elastic Compliance Matrix: (Units=1/GPa)
#
#
# Indices 1 2 3 4 5 6 
#
# 1 0.008227 -0.004255 -0.002247 0.000000 0.000000 0.000000
# 2 -0.004255 0.014725 0.000561 0.000000 0.000000 0.000000
# 3 -0.002247 0.000561 0.008986 0.000000 0.000000 0.000000
# 4 0.000000 0.000000 0.000000 0.040271 0.000000 0.000000
# 5 0.000000 0.000000 0.000000 0.000000 0.030150 0.000000
# 6 0.000000 0.000000 0.000000 0.000000 0.000000 0.006911
#
#
# Mechanical properties :
#
#
# Convention : Reuss Voigt Hill
#
# Bulk Modulus (GPa) = 49.85877 58.05107 53.95492
# Shear Modulus (GPa) = 39.11262 58.47767 48.79515
#
# Velocity S-wave (km/s) = 4.40159 5.38203 4.91631
# Velocity P-wave (km/s) = 7.10838 8.20833 7.67807
#
# Compressibility (1/GPa) = 0.02005665
#
# Stress axis : x y z
#
# Youngs Moduli (GPa) = 121.55824 67.91149 111.28490
#
# Poissons Ratio (x) = 0.28895 0.25002
# Poissons Ratio (y) = 0.51721 -0.06244
# Poissons Ratio (z) = 0.27310 -0.03810
#
# Static dielectric constant tensor:
#      x y z
#    x 1.675380 0.000000 0.000000 
#    y 0.000000 1.692070 0.000000 
#    z 0.000000 0.000000 1.210400 
# 
# From -- ./inp_files/23589.got.cif
#   From: 2010.05.17/outbox.cif.g08.bks.cpg/sg64_12_cif.got.tgz:23589.got - 2010.06.03 16:29:19.
