data_PCOD9481258
_publ_section_title
;
Structure prediction by ZEFSAII (Michael W. Deem and Ramdas Pophale) SiO2 
 PCOD9481258
Probable space group: C M C A
;
_chemical_formula_sum "Si O2"
_cell_formula_units_Z 80
_cell_length_a 15.447568
_cell_length_b 22.275577
_cell_length_c 10.630152
_cell_angle_alpha 90.000000
_cell_angle_beta 90.000000
_cell_angle_gamma 90.000000
_cell_volume 3657.872407
_symmetry_space_group_name_H-M "C M C A"
_symmetry_group_IT_number 64
_symmetry_cell_setting 'orthorhombic'
loop_
_space_group_symop_operation_xyz
x,y,z
-x,1/2-y,1/2+z
x,-y,-z
-x,1/2+y,1/2-z
-x,-y,-z
x,1/2+y,1/2-z
-x,y,z
x,1/2-y,1/2+z
1/2+x,1/2+y,z
1/2-x,-y,1/2+z
1/2+x,1/2-y,-z
1/2-x,y,1/2-z
1/2-x,1/2-y,-z
1/2+x,y,1/2-z
1/2-x,1/2+y,z
1/2+x,-y,1/2+z
loop_
_atom_site_type_symbol
_atom_site_label
_atom_site_fract_x
_atom_site_fract_y
_atom_site_fract_z
Si Si1 0.298758 0.495835 0.368789
Si Si2 0.146351 0.283699 0.259627
Si Si3 0.596666 0.881225 0.082099
Si Si4 0.099207 0.309357 0.538059
Si Si5 0.265357 0.370029 0.616202
O O1 0.246119 0.500000 0.500000
O O2 0.250000 0.469438 0.250000
O O3 0.376317 0.450791 0.399206
O O4 0.309871 0.566309 0.343209
O O5 0.250000 0.288918 0.250000
O O6 0.105961 0.346516 0.212525
O O7 0.119373 0.276515 0.405104
O O8 0.111602 0.235448 0.157420
O O9 0.500000 0.876175 0.032470
O O10 0.666254 0.850797 0.988688
O O11 0.171255 0.361986 0.553089
O O12 0.000000 0.330155 0.537613
O O13 0.250000 0.338508 0.750000
#
# Coordination Sequence:
#
# PCOD9481258 Si02
#       5
#    16  16  16  16  16
#     4   9  20  39  65  92 129 175 225 277 339 405
#     4  12  25  46  70  99 137 182 226 282 346 408
#     4  11  23  41  70 102 134 178 233 284 339 413
#     4  12  26  44  68 101 138 179 231 284 339 411
#     4  10  23  42  64  98 137 178 222 281 346 399
#
# _framework density 21.870638
#
# number of rings (size 3 to 8) (size 9 to 14) (size 15 to 20)
#    0.000    1.200    2.000    3.600    5.600    4.400 
#    0.000    3.000    0.000    6.000    0.000    0.000 
#    0.000    0.000    0.000    0.000    0.000    0.000 
#
# Total GULP energy -222737.444577 kJ/mol
# GULP energy per Si atom -5568.436114 kJ/mol
# Density = 2.182086 g / cm^3
# Si number density = 21.870638 Si / 1000 Ang^3
#
#
#
# Elastic Constant Matrix: (Units=GPa)
#
#
# Indices 1 2 3 4 5 6 
#
# 1 193.5903 27.9599 40.1297 0.0000 0.0000 0.0000
# 2 27.9599 103.4191 0.5024 0.0000 0.0000 0.0000
# 3 40.1297 0.5024 124.3172 0.0000 0.0000 0.0000
# 4 0.0000 0.0000 0.0000 23.2397 0.0000 0.0000
# 5 0.0000 0.0000 0.0000 0.0000 21.4286 0.0000
# 6 0.0000 0.0000 0.0000 0.0000 0.0000 41.5636
#
#
#
# Elastic Compliance Matrix: (Units=1/GPa)
#
#
# Indices 1 2 3 4 5 6 
#
# 1 0.005775 -0.001552 -0.001858 0.000000 0.000000 0.000000
# 2 -0.001552 0.010087 0.000460 0.000000 0.000000 0.000000
# 3 -0.001858 0.000460 0.008642 0.000000 0.000000 0.000000
# 4 0.000000 0.000000 0.000000 0.043030 0.000000 0.000000
# 5 0.000000 0.000000 0.000000 0.000000 0.046667 0.000000
# 6 0.000000 0.000000 0.000000 0.000000 0.000000 0.024060
#
#
# Mechanical properties :
#
#
# Convention : Reuss Voigt Hill
#
# Bulk Modulus (GPa) = 53.75224 62.05674 57.90449
# Shear Modulus (GPa) = 33.25346 40.76202 37.00774
#
# Velocity S-wave (km/s) = 3.90354 4.32183 4.11800
# Velocity P-wave (km/s) = 6.70429 7.30345 7.01028
#
# Compressibility (1/GPa) = 0.01860388
#
# Stress axis : x y z
#
# Youngs Moduli (GPa) = 173.16453 99.13936 115.71670
#
# Poissons Ratio (x) = 0.15389 0.21498
# Poissons Ratio (y) = 0.26879 -0.05326
# Poissons Ratio (z) = 0.32171 -0.04563
#
# Static dielectric constant tensor:
#      x y z
#    x 1.786240 0.000000 0.000000 
#    y 0.000000 1.914790 0.000000 
#    z 0.000000 0.000000 1.768980 
# 
# From -- ./inp_files/14438.got.cif
#   From: 2010.05.17/outbox.cif.g08.bks.cpg/sg64_8_cif.got.tgz:14438.got - 2010.06.03 16:29:19.
