data_PCOD9481933
_publ_section_title
;
Structure prediction by ZEFSAII (Michael W. Deem and Ramdas Pophale) SiO2 
 PCOD9481933
Probable space group: C M C A
;
_chemical_formula_sum "Si O2"
_cell_formula_units_Z 64
_cell_length_a 9.960494
_cell_length_b 19.621623
_cell_length_c 16.022222
_cell_angle_alpha 90.000000
_cell_angle_beta 90.000000
_cell_angle_gamma 90.000000
_cell_volume 3131.400022
_symmetry_space_group_name_H-M "C M C A"
_symmetry_group_IT_number 64
_symmetry_cell_setting 'orthorhombic'
loop_
_space_group_symop_operation_xyz
x,y,z
-x,1/2-y,1/2+z
x,-y,-z
-x,1/2+y,1/2-z
-x,-y,-z
x,1/2+y,1/2-z
-x,y,z
x,1/2-y,1/2+z
1/2+x,1/2+y,z
1/2-x,-y,1/2+z
1/2+x,1/2-y,-z
1/2-x,y,1/2-z
1/2-x,1/2-y,-z
1/2+x,y,1/2-z
1/2-x,1/2+y,z
1/2+x,-y,1/2+z
loop_
_atom_site_type_symbol
_atom_site_label
_atom_site_fract_x
_atom_site_fract_y
_atom_site_fract_z
Si Si1 0.250000 0.364125 0.750000
Si Si2 0.000000 0.731877 0.286381
Si Si3 0.500000 0.787454 0.398640
Si Si4 0.656169 0.960591 0.621958
Si Si5 0.718338 0.397233 0.056255
Si Si6 0.000000 0.323596 0.045074
O O1 0.129608 0.316085 0.721393
O O2 0.237274 0.416532 0.826128
O O3 0.000000 0.774886 0.372133
O O4 0.000000 0.773176 0.199778
O O5 0.370821 0.832868 0.419178
O O6 0.500000 0.722436 0.460746
O O7 0.500000 0.955507 0.651156
O O8 0.663258 0.927821 0.530275
O O9 0.698332 0.039499 0.618854
O O10 0.869071 0.370955 0.047659
#
# Coordination Sequence:
#
# PCOD9481933 Si02
#       6
#     8   8   8  16  16   8
#     4  12  24  42  68  94 132 172 218 278 332 386
#     4  12  26  42  64 100 138 172 224 276 324 408
#     4  12  22  42  68  90 136 190 212 262 346 388
#     4  11  22  44  70  97 129 172 228 277 329 403
#     4  11  23  43  70  95 131 177 221 273 334 393
#     4  12  26  42  64 106 140 170 228 276 324 408
#
# _framework density 20.438143
#
# number of rings (size 3 to 8) (size 9 to 14) (size 15 to 20)
#    0.000    0.500    3.750    6.000    0.000    5.000 
#    0.000    0.000    0.000    0.000    0.000    0.000 
#    0.000    0.000    0.000    0.000    0.000    0.000 
#
# Total GULP energy -178760.204745 kJ/mol
# GULP energy per Si atom -5586.256398 kJ/mol
# Density = 2.039162 g / cm^3
# Si number density = 20.438143 Si / 1000 Ang^3
#
#
#
# Elastic Constant Matrix: (Units=GPa)
#
#
# Indices 1 2 3 4 5 6 
#
# 1 96.2112 26.8126 -24.2067 0.0000 0.0000 0.0000
# 2 26.8126 82.5594 3.5128 0.0000 0.0000 0.0000
# 3 -24.2067 3.5128 52.4204 0.0000 0.0000 0.0000
# 4 0.0000 0.0000 0.0000 7.9916 0.0000 0.0000
# 5 0.0000 0.0000 0.0000 0.0000 19.7590 0.0000
# 6 0.0000 0.0000 0.0000 0.0000 0.0000-1979.2829
#
#
#
# Elastic Compliance Matrix: (Units=1/GPa)
#
#
# Indices 1 2 3 4 5 6 
#
# 1 0.013296 -0.004592 0.006447 0.000000 0.000000 0.000000
# 2 -0.004592 0.013733 -0.003041 0.000000 0.000000 0.000000
# 3 0.006447 -0.003041 0.022258 0.000000 0.000000 0.000000
# 4 0.000000 0.000000 0.000000 0.125132 0.000000 0.000000
# 5 0.000000 0.000000 0.000000 0.000000 0.050610 0.000000
# 6 0.000000 0.000000 0.000000 0.000000 0.000000 -0.000505
#
#
# Mechanical properties :
#
#
# Convention : Reuss Voigt Hill
#
# Bulk Modulus (GPa) = 21.31511 27.04760 24.18136
# Shear Modulus (GPa) = 20.61573 -375.30165 -177.34296
#
# Velocity S-wave (km/s) = 3.17943 -13.56564 -9.32518
# Velocity P-wave (km/s) = 4.89184 15.23504 10.20236
#
# Compressibility (1/GPa) = 0.04691508
#
# Stress axis : x y z
#
# Youngs Moduli (GPa) = 75.21161 72.81546 44.92835
#
# Poissons Ratio (x) = 0.33440 -0.28968
# Poissons Ratio (y) = 0.34540 0.13663
# Poissons Ratio (z) = -0.48493 0.22143
#
# Static dielectric constant tensor:
#      x y z
#    x 1.663880 0.000000 0.000000 
#    y 0.000000 1.724850 0.000000 
#    z 0.000000 0.000000 1.792870 
# 
# From -- ./inp_files/29312.got.cif
#   From: 2010.05.17/outbox.cif.g08.bks.cpg/sg64_15_cif.got.tgz:29312.got - 2010.06.03 16:29:19.
