data_PCOD9481488
_publ_section_title
;
Structure prediction by ZEFSAII (Michael W. Deem and Ramdas Pophale) SiO2 
 PCOD9481488
Probable space group: C M C A
;
_chemical_formula_sum "Si O2"
_cell_formula_units_Z 64
_cell_length_a 22.488395
_cell_length_b 14.649591
_cell_length_c 8.162014
_cell_angle_alpha 90.000000
_cell_angle_beta 90.000000
_cell_angle_gamma 90.000000
_cell_volume 2688.941142
_symmetry_space_group_name_H-M "C M C A"
_symmetry_group_IT_number 64
_symmetry_cell_setting 'orthorhombic'
loop_
_space_group_symop_operation_xyz
x,y,z
-x,1/2-y,1/2+z
x,-y,-z
-x,1/2+y,1/2-z
-x,-y,-z
x,1/2+y,1/2-z
-x,y,z
x,1/2-y,1/2+z
1/2+x,1/2+y,z
1/2-x,-y,1/2+z
1/2+x,1/2-y,-z
1/2-x,y,1/2-z
1/2-x,1/2-y,-z
1/2+x,y,1/2-z
1/2-x,1/2+y,z
1/2+x,-y,1/2+z
loop_
_atom_site_type_symbol
_atom_site_label
_atom_site_fract_x
_atom_site_fract_y
_atom_site_fract_z
Si Si1 0.181342 0.274704 0.003403
Si Si2 0.500000 0.867077 0.745302
Si Si3 0.128690 0.558179 0.167796
Si Si4 0.368368 0.619077 0.814790
Si Si5 0.500000 0.841196 0.356046
O O1 0.165206 0.349763 0.864675
O O2 0.144333 0.181718 0.972270
O O3 0.250000 0.250000 0.000000
O O4 0.163535 0.324532 0.170834
O O5 0.560728 0.914432 0.799865
O O6 0.500000 0.861054 0.548881
O O7 0.500000 0.766201 0.821761
O O8 0.150729 0.486182 0.304553
O O9 0.131767 0.500000 0.000000
O O10 0.439106 0.619756 0.783819
#
# Coordination Sequence:
#
# PCOD9481488 Si02
#       5
#    16   8  16  16   8
#     4  11  24  47  72  99 141 195 241 293 355 422
#     4  12  24  43  72 109 147 187 237 294 379 442
#     4  10  24  43  73 105 142 190 236 297 371 431
#     4  11  24  46  72 104 144 183 239 297 365 433
#     4  12  25  41  77 106 145 186 229 303 376 435
#
# _framework density 23.801189999999998
#
# number of rings (size 3 to 8) (size 9 to 14) (size 15 to 20)
#    0.000    1.000    2.500    3.375    3.500    2.000 
#    0.000   15.000    0.000    0.000    0.000    0.000 
#    0.000    0.000    0.000    0.000    0.000    0.000 
#
# Total GULP energy -179265.972534 kJ/mol
# GULP energy per Si atom -5602.061642 kJ/mol
# Density = 2.374702 g / cm^3
# Si number density = 23.801190 Si / 1000 Ang^3
#
#
#
# Elastic Constant Matrix: (Units=GPa)
#
#
# Indices 1 2 3 4 5 6 
#
# 1 159.5827 46.4702 19.7897 0.0000 0.0000 0.0000
# 2 46.4702 178.3271 24.5278 0.0000 0.0000 0.0000
# 3 19.7897 24.5278 65.2243 0.0000 0.0000 0.0000
# 4 0.0000 0.0000 0.0000 49.6500 0.0000 0.0000
# 5 0.0000 0.0000 0.0000 0.0000 15.2717 0.0000
# 6 0.0000 0.0000 0.0000 0.0000 0.0000 -2.0132
#
#
#
# Elastic Compliance Matrix: (Units=1/GPa)
#
#
# Indices 1 2 3 4 5 6 
#
# 1 0.006917 -0.001596 -0.001498 0.000000 0.000000 0.000000
# 2 -0.001596 0.006282 -0.001878 0.000000 0.000000 0.000000
# 3 -0.001498 -0.001878 0.016493 0.000000 0.000000 0.000000
# 4 0.000000 0.000000 0.000000 0.020141 0.000000 0.000000
# 5 0.000000 0.000000 0.000000 0.000000 0.065481 0.000000
# 6 0.000000 0.000000 0.000000 0.000000 0.000000 -0.496710
#
#
# Mechanical properties :
#
#
# Convention : Reuss Voigt Hill
#
# Bulk Modulus (GPa) = 50.64306 64.96771 57.80538
# Shear Modulus (GPa) = -13.70352 33.40478 9.85063
#
# Velocity S-wave (km/s) = -2.40208 3.75039 2.03659
# Velocity P-wave (km/s) = 3.69194 6.79037 5.46532
#
# Compressibility (1/GPa) = 0.01974604
#
# Stress axis : x y z
#
# Youngs Moduli (GPa) = 144.57078 159.18532 60.63340
#
# Poissons Ratio (x) = 0.25413 0.09085
# Poissons Ratio (y) = 0.23079 0.11387
# Poissons Ratio (z) = 0.21662 0.29895
#
# Static dielectric constant tensor:
#      x y z
#    x 1.827670 0.000000 0.000000 
#    y 0.000000 1.911550 0.000000 
#    z 0.000000 0.000000 1.976680 
# 
# From -- ./inp_files/9013.got.cif
#   From: 2010.05.17/outbox.cif.g08.bks.cpg/sg64_5_cif.got.tgz:9013.got - 2010.06.03 16:29:19.
