data_PCOD9481641
_publ_section_title
;
Structure prediction by ZEFSAII (Michael W. Deem and Ramdas Pophale) SiO2 
 PCOD9481641
Probable space group: C M C A
;
_chemical_formula_sum "Si O2"
_cell_formula_units_Z 96
_cell_length_a 18.761075
_cell_length_b 14.240894
_cell_length_c 18.735460
_cell_angle_alpha 90.000000
_cell_angle_beta 90.000000
_cell_angle_gamma 90.000000
_cell_volume 5005.636791
_symmetry_space_group_name_H-M "C M C A"
_symmetry_group_IT_number 64
_symmetry_cell_setting 'orthorhombic'
loop_
_space_group_symop_operation_xyz
x,y,z
-x,1/2-y,1/2+z
x,-y,-z
-x,1/2+y,1/2-z
-x,-y,-z
x,1/2+y,1/2-z
-x,y,z
x,1/2-y,1/2+z
1/2+x,1/2+y,z
1/2-x,-y,1/2+z
1/2+x,1/2-y,-z
1/2-x,y,1/2-z
1/2-x,1/2-y,-z
1/2+x,y,1/2-z
1/2-x,1/2+y,z
1/2+x,-y,1/2+z
loop_
_atom_site_type_symbol
_atom_site_label
_atom_site_fract_x
_atom_site_fract_y
_atom_site_fract_z
Si Si1 0.579622 0.954583 0.749347
Si Si2 0.210982 0.707357 0.432687
Si Si3 0.280350 0.435481 0.673092
Si Si4 0.081155 0.385116 0.360193
Si Si5 0.763814 0.649885 0.667500
Si Si6 0.918288 0.911945 0.910456
O O1 0.500000 0.932891 0.772446
O O2 0.636394 0.942428 0.810643
O O3 0.594174 0.896866 0.675678
O O4 0.581967 0.060226 0.716609
O O5 0.250000 0.750000 0.500000
O O6 0.258502 0.631519 0.390388
O O7 0.206331 0.794095 0.378303
O O8 0.138087 0.653031 0.449332
O O9 0.250000 0.402737 0.750000
O O10 0.246885 0.538073 0.659718
O O11 0.154821 0.327576 0.358098
O O12 0.088860 0.474373 0.414652
O O13 0.000000 0.346667 0.369452
O O14 0.750000 0.671612 0.750000
O O15 0.000000 0.889372 0.926905
#
# Coordination Sequence:
#
# PCOD9481641 Si02
#       6
#    16  16  16  16  16  16
#     4   8  14  28  57  84 104 139 176 231 300 328
#     4  12  25  36  52  84 118 156 190 223 276 339
#     4  11  17  37  57  77 113 139 185 240 282 319
#     4   8  14  30  57  87 109 131 177 241 296 324
#     4  11  20  34  60  87 105 140 190 231 285 327
#     4   8  15  34  58  78 108 148 183 226 288 329
#
# _framework density 19.178379
#
# number of rings (size 3 to 8) (size 9 to 14) (size 15 to 20)
#    1.000    1.333    6.667    0.500    0.000    0.667 
#    0.000    4.167    0.000    2.000    0.000    2.333 
#    0.000    0.000    0.000    0.000    0.000    0.000 
#
# Total GULP energy -267219.089112 kJ/mol
# GULP energy per Si atom -5567.064357 kJ/mol
# Density = 1.913473 g / cm^3
# Si number density = 19.178379 Si / 1000 Ang^3
#
#
#
# Elastic Constant Matrix: (Units=GPa)
#
#
# Indices 1 2 3 4 5 6 
#
# 1 125.5233 16.3402 8.9447 0.0000 0.0000 0.0000
# 2 16.3402 45.7440 24.3955 0.0000 0.0000 0.0000
# 3 8.9447 24.3955 52.9695 0.0000 0.0000 0.0000
# 4 0.0000 0.0000 0.0000 29.6021 0.0000 0.0000
# 5 0.0000 0.0000 0.0000 0.0000 20.7257 0.0000
# 6 0.0000 0.0000 0.0000 0.0000 0.0000 14.7761
#
#
#
# Elastic Compliance Matrix: (Units=1/GPa)
#
#
# Indices 1 2 3 4 5 6 
#
# 1 0.008355 -0.002959 -0.000048 0.000000 0.000000 0.000000
# 2 -0.002959 0.030026 -0.013329 0.000000 0.000000 0.000000
# 3 -0.000048 -0.013329 0.025026 0.000000 0.000000 0.000000
# 4 0.000000 0.000000 0.000000 0.033781 0.000000 0.000000
# 5 0.000000 0.000000 0.000000 0.000000 0.048249 0.000000
# 6 0.000000 0.000000 0.000000 0.000000 0.000000 0.067677
#
#
# Mechanical properties :
#
#
# Convention : Reuss Voigt Hill
#
# Bulk Modulus (GPa) = 32.53638 35.95529 34.24583
# Shear Modulus (GPa) = 19.52878 24.65787 22.09333
#
# Velocity S-wave (km/s) = 3.19450 3.58957 3.39778
# Velocity P-wave (km/s) = 5.53248 5.99738 5.76962
#
# Compressibility (1/GPa) = 0.03073483
#
# Stress axis : x y z
#
# Youngs Moduli (GPa) = 119.68512 33.30422 39.95877
#
# Poissons Ratio (x) = 0.09854 0.00193
# Poissons Ratio (y) = 0.35413 0.53262
# Poissons Ratio (z) = 0.00577 0.44392
#
# Static dielectric constant tensor:
#      x y z
#    x 1.706960 0.000000 0.000000 
#    y 0.000000 1.696640 0.000000 
#    z 0.000000 0.000000 1.685330 
# 
# From -- ./inp_files/33337.got.cif
#   From: 2010.05.17/outbox.cif.g08.bks.cpg/sg64_17_cif.got.tgz:33337.got - 2010.06.03 16:29:19.
