data_PCOD9481817
_publ_section_title
;
Structure prediction by ZEFSAII (Michael W. Deem and Ramdas Pophale) SiO2 
 PCOD9481817
Probable space group: C M C A
;
_chemical_formula_sum "Si O2"
_cell_formula_units_Z 104
_cell_length_a 28.441543
_cell_length_b 7.725622
_cell_length_c 21.323066
_cell_angle_alpha 90.000000
_cell_angle_beta 90.000000
_cell_angle_gamma 90.000000
_cell_volume 4685.287660
_symmetry_space_group_name_H-M "C M C A"
_symmetry_group_IT_number 64
_symmetry_cell_setting 'orthorhombic'
loop_
_space_group_symop_operation_xyz
x,y,z
-x,1/2-y,1/2+z
x,-y,-z
-x,1/2+y,1/2-z
-x,-y,-z
x,1/2+y,1/2-z
-x,y,z
x,1/2-y,1/2+z
1/2+x,1/2+y,z
1/2-x,-y,1/2+z
1/2+x,1/2-y,-z
1/2-x,y,1/2-z
1/2-x,1/2-y,-z
1/2+x,y,1/2-z
1/2-x,1/2+y,z
1/2+x,-y,1/2+z
loop_
_atom_site_type_symbol
_atom_site_label
_atom_site_fract_x
_atom_site_fract_y
_atom_site_fract_z
Si Si1 0.500000 0.603076 0.607422
Si Si2 0.500000 0.243636 0.531736
Si Si3 0.104120 0.146262 0.953210
Si Si4 0.229121 0.848994 0.681558
Si Si5 0.371718 0.211061 0.681562
Si Si6 0.810568 0.180895 0.620695
Si Si7 0.847098 0.500000 0.000000
Si Si8 0.902980 0.890837 0.319287
O O1 0.500000 0.407511 0.579542
O O2 0.500000 0.706175 0.541870
O O3 0.453745 0.637913 0.649448
O O4 0.451899 0.146516 0.543938
O O5 0.116922 0.111300 0.881728
O O6 0.122050 0.339732 0.972860
O O7 0.123501 0.000000 0.000000
O O8 0.250000 0.845600 0.750000
O O9 0.184880 0.719488 0.683009
O O10 0.207252 0.034956 0.668701
O O11 0.269498 0.819231 0.629454
O O12 0.390653 0.406750 0.671584
O O13 0.395437 0.145325 0.745476
O O14 0.816248 0.088536 0.554033
O O15 0.863172 0.220084 0.644328
#
# Coordination Sequence:
#
# PCOD9481817 Si02
#       8
#     8   8  16  16  16  16   8  16
#     4  11  22  41  79 103 136 201 230 295 373 419
#     4  11  21  43  73 104 140 184 248 287 358 443
#     4  12  26  47  75 108 144 191 244 301 360 432
#     4  11  22  41  68  96 134 186 234 296 357 424
#     4  11  25  45  66 104 144 179 245 299 355 435
#     4  11  24  41  67  98 137 183 240 292 359 426
#     4  12  24  49  68 102 152 186 238 303 362 428
#     4  11  23  42  67 101 140 184 235 302 356 429
#
# _framework density 22.197140999999998
#
# number of rings (size 3 to 8) (size 9 to 14) (size 15 to 20)
#    0.000    0.769    6.154    2.538    2.154    5.538 
#    1.385    0.000    0.000    0.000    0.000    0.000 
#    0.000    0.000    0.000    0.000    0.000    0.000 
#
# Total GULP energy -290759.556894 kJ/mol
# GULP energy per Si atom -5591.529940 kJ/mol
# Density = 2.214662 g / cm^3
# Si number density = 22.197141 Si / 1000 Ang^3
#
#
#
# Elastic Constant Matrix: (Units=GPa)
#
#
# Indices 1 2 3 4 5 6 
#
# 1 157.7816 18.9201 45.4058 0.0000 0.0000 0.0000
# 2 18.9201 66.8284 12.7549 0.0000 0.0000 0.0000
# 3 45.4058 12.7549 119.3726 0.0000 0.0000 0.0000
# 4 0.0000 0.0000 0.0000 23.9751 0.0000 0.0000
# 5 0.0000 0.0000 0.0000 0.0000 37.8896 0.0000
# 6 0.0000 0.0000 0.0000 0.0000 0.0000 -8.5345
#
#
#
# Elastic Compliance Matrix: (Units=1/GPa)
#
#
# Indices 1 2 3 4 5 6 
#
# 1 0.007273 -0.001563 -0.002600 0.000000 0.000000 0.000000
# 2 -0.001563 0.015611 -0.001073 0.000000 0.000000 0.000000
# 3 -0.002600 -0.001073 0.009481 0.000000 0.000000 0.000000
# 4 0.000000 0.000000 0.000000 0.041710 0.000000 0.000000
# 5 0.000000 0.000000 0.000000 0.000000 0.026392 0.000000
# 6 0.000000 0.000000 0.000000 0.000000 0.000000 -0.117171
#
#
# Mechanical properties :
#
#
# Convention : Reuss Voigt Hill
#
# Bulk Modulus (GPa) = 45.67692 55.34937 50.51314
# Shear Modulus (GPa) = 4690.70088 28.45950 2359.58019
#
# Velocity S-wave (km/s) = 46.01943 3.58456 32.63922
# Velocity P-wave (km/s) = 53.33235 6.49012 37.98988
#
# Compressibility (1/GPa) = 0.02189290
#
# Stress axis : x y z
#
# Youngs Moduli (GPa) = 137.48724 64.05691 105.47818
#
# Poissons Ratio (x) = 0.10012 0.27420
# Poissons Ratio (y) = 0.21490 0.11323
# Poissons Ratio (z) = 0.35741 0.06876
#
# Static dielectric constant tensor:
#      x y z
#    x 1.839360 0.000000 0.000000 
#    y 0.000000 1.863860 0.000000 
#    z 0.000000 0.000000 1.797420 
# 
# From -- ./inp_files/41913.got.cif
#   From: 2010.05.17/outbox.cif.g08.bks.cpg/sg64_21_cif.got.tgz:41913.got - 2010.06.03 16:29:19.
