data_PCOD9481992
_publ_section_title
;
Structure prediction by ZEFSAII (Michael W. Deem and Ramdas Pophale) SiO2 
 PCOD9481992
Probable space group: C M C A
;
_chemical_formula_sum "Si O2"
_cell_formula_units_Z 64
_cell_length_a 19.827717
_cell_length_b 9.809495
_cell_length_c 15.881948
_cell_angle_alpha 90.000000
_cell_angle_beta 90.000000
_cell_angle_gamma 90.000000
_cell_volume 3089.037151
_symmetry_space_group_name_H-M "C M C A"
_symmetry_group_IT_number 64
_symmetry_cell_setting 'orthorhombic'
loop_
_space_group_symop_operation_xyz
x,y,z
-x,1/2-y,1/2+z
x,-y,-z
-x,1/2+y,1/2-z
-x,-y,-z
x,1/2+y,1/2-z
-x,y,z
x,1/2-y,1/2+z
1/2+x,1/2+y,z
1/2-x,-y,1/2+z
1/2+x,1/2-y,-z
1/2-x,y,1/2-z
1/2-x,1/2-y,-z
1/2+x,y,1/2-z
1/2-x,1/2+y,z
1/2+x,-y,1/2+z
loop_
_atom_site_type_symbol
_atom_site_label
_atom_site_fract_x
_atom_site_fract_y
_atom_site_fract_z
Si Si1 0.190273 0.656014 0.024400
Si Si2 0.429928 0.618347 0.571418
Si Si3 0.327674 0.258505 0.714261
Si Si4 0.080569 0.498441 0.259478
O O1 0.177846 0.672730 0.122829
O O2 0.204361 0.500000 0.000000
O O3 0.250000 0.750000 0.000000
O O4 0.130372 0.705309 0.963386
O O5 0.433134 0.500000 0.500000
O O6 0.500000 0.695690 0.572639
O O7 0.421388 0.546611 0.660780
O O8 0.250000 0.242279 0.750000
O O9 0.378022 0.359543 0.766314
O O10 0.370065 0.118405 0.703169
O O11 0.000000 0.503232 0.284898
#
# Coordination Sequence:
#
# PCOD9481992 Si02
#       4
#    16  16  16  16
#     4  11  23  41  65  93 123 167 217 261 316 382
#     4   9  17  36  63  86 112 158 211 249 295 371
#     4  12  25  40  65  94 134 168 210 268 331 383
#     4  11  23  41  64  94 127 167 214 265 320 385
#
# _framework density 20.718430000000001
#
# number of rings (size 3 to 8) (size 9 to 14) (size 15 to 20)
#    0.000    1.250    5.000    3.000    3.500    1.000 
#    0.000    0.000    0.000    0.750    0.000    0.000 
#    0.000    0.000    0.000    0.000    0.000    0.000 
#
# Total GULP energy -178172.263347 kJ/mol
# GULP energy per Si atom -5567.883230 kJ/mol
# Density = 2.067127 g / cm^3
# Si number density = 20.718430 Si / 1000 Ang^3
#
#
#
# Elastic Constant Matrix: (Units=GPa)
#
#
# Indices 1 2 3 4 5 6 
#
# 1 207.6835 38.5867 -2.9642 0.0000 0.0000 0.0000
# 2 38.5867 76.8783 -13.9672 0.0000 0.0000 0.0000
# 3 -2.9642 -13.9672 43.7888 0.0000 0.0000 0.0000
# 4 0.0000 0.0000 0.0000 18.5153 0.0000 0.0000
# 5 0.0000 0.0000 0.0000 0.0000 13.9352 0.0000
# 6 0.0000 0.0000 0.0000 0.0000 0.0000 41.7444
#
#
#
# Elastic Compliance Matrix: (Units=1/GPa)
#
#
# Indices 1 2 3 4 5 6 
#
# 1 0.005321 -0.002766 -0.000522 0.000000 0.000000 0.000000
# 2 -0.002766 0.015245 0.004675 0.000000 0.000000 0.000000
# 3 -0.000522 0.004675 0.024293 0.000000 0.000000 0.000000
# 4 0.000000 0.000000 0.000000 0.054009 0.000000 0.000000
# 5 0.000000 0.000000 0.000000 0.000000 0.071761 0.000000
# 6 0.000000 0.000000 0.000000 0.000000 0.000000 0.023955
#
#
# Mechanical properties :
#
#
# Convention : Reuss Voigt Hill
#
# Bulk Modulus (GPa) = 20.99293 41.29569 31.14431
# Shear Modulus (GPa) = 24.07463 35.28534 29.67998
#
# Velocity S-wave (km/s) = 3.41250 4.13133 3.78900
# Velocity P-wave (km/s) = 5.06768 6.53699 5.84866
#
# Compressibility (1/GPa) = 0.04763507
#
# Stress axis : x y z
#
# Youngs Moduli (GPa) = 187.91920 65.59441 41.16429
#
# Poissons Ratio (x) = 0.18142 0.02149
# Poissons Ratio (y) = 0.51974 -0.19246
# Poissons Ratio (z) = 0.09809 -0.30669
#
# Static dielectric constant tensor:
#      x y z
#    x 1.837000 0.000000 0.000000 
#    y 0.000000 1.751420 0.000000 
#    z 0.000000 0.000000 1.759030 
# 
# From -- ./inp_files/33868.got.cif
#   From: 2010.05.17/outbox.cif.g08.bks.cpg/sg64_17_cif.got.tgz:33868.got - 2010.06.03 16:29:19.
