data_PCOD9481243
_publ_section_title
;
Structure prediction by ZEFSAII (Michael W. Deem and Ramdas Pophale) SiO2 
 PCOD9481243
Probable space group: C M C A
;
_chemical_formula_sum "Si O2"
_cell_formula_units_Z 72
_cell_length_a 14.531674
_cell_length_b 26.198835
_cell_length_c 9.583095
_cell_angle_alpha 90.000000
_cell_angle_beta 90.000000
_cell_angle_gamma 90.000000
_cell_volume 3648.408170
_symmetry_space_group_name_H-M "C M C A"
_symmetry_group_IT_number 64
_symmetry_cell_setting 'orthorhombic'
loop_
_space_group_symop_operation_xyz
x,y,z
-x,1/2-y,1/2+z
x,-y,-z
-x,1/2+y,1/2-z
-x,-y,-z
x,1/2+y,1/2-z
-x,y,z
x,1/2-y,1/2+z
1/2+x,1/2+y,z
1/2-x,-y,1/2+z
1/2+x,1/2-y,-z
1/2-x,y,1/2-z
1/2-x,1/2-y,-z
1/2+x,y,1/2-z
1/2-x,1/2+y,z
1/2+x,-y,1/2+z
loop_
_atom_site_type_symbol
_atom_site_label
_atom_site_fract_x
_atom_site_fract_y
_atom_site_fract_z
Si Si1 0.106162 0.560443 0.976024
Si Si2 0.104881 0.647984 0.541953
Si Si3 0.750000 0.596755 0.750000
Si Si4 0.817670 0.751469 0.127873
Si Si5 0.110108 0.640957 0.217654
O O1 0.179182 0.568799 0.853484
O O2 0.000000 0.576192 0.940244
O O3 0.104098 0.500000 0.000000
O O4 0.133772 0.594469 0.112450
O O5 0.180372 0.625639 0.646023
O O6 0.105821 0.707945 0.582503
O O7 0.135671 0.637470 0.381738
O O8 0.000000 0.628499 0.558857
O O9 0.750000 0.769777 0.250000
O O10 0.853237 0.695157 0.162982
O O11 0.750000 0.750000 0.000000
O O12 0.000000 0.643562 0.218188
#
# Coordination Sequence:
#
# PCOD9481243 Si02
#       5
#    16  16   8  16  16
#     4  10  24  46  69  95 127 166 217 274 332 390
#     4  11  24  41  62  94 134 172 214 261 316 387
#     4  12  24  40  66  98 126 166 216 268 328 384
#     4  12  22  37  59  91 128 167 212 256 309 381
#     4  10  23  42  62  85 124 173 212 259 320 381
#
# _framework density 19.734632999999999
#
# number of rings (size 3 to 8) (size 9 to 14) (size 15 to 20)
#    0.000    1.111    3.333    2.667    0.000    1.778 
#    0.000    0.000    0.000    6.667    0.000    0.000 
#    0.000    0.000    0.000    0.000    0.000    0.000 
#
# Total GULP energy -200740.337286 kJ/mol
# GULP energy per Si atom -5576.120480 kJ/mol
# Density = 1.968972 g / cm^3
# Si number density = 19.734633 Si / 1000 Ang^3
#
#
#
# Elastic Constant Matrix: (Units=GPa)
#
#
# Indices 1 2 3 4 5 6 
#
# 1 113.1920 49.7299 71.3261 0.0000 0.0000 0.0000
# 2 49.7299 91.8978 62.9433 0.0000 0.0000 0.0000
# 3 71.3261 62.9433 176.1412 0.0000 0.0000 0.0000
# 4 0.0000 0.0000 0.0000 18.4259 0.0000 0.0000
# 5 0.0000 0.0000 0.0000 0.0000 44.3305 0.0000
# 6 0.0000 0.0000 0.0000 0.0000 0.0000 80.8519
#
#
#
# Elastic Compliance Matrix: (Units=1/GPa)
#
#
# Indices 1 2 3 4 5 6 
#
# 1 0.013185 -0.004605 -0.003694 0.000000 0.000000 0.000000
# 2 -0.004605 0.016017 -0.003859 0.000000 0.000000 0.000000
# 3 -0.003694 -0.003859 0.008552 0.000000 0.000000 0.000000
# 4 0.000000 0.000000 0.000000 0.054271 0.000000 0.000000
# 5 0.000000 0.000000 0.000000 0.000000 0.022558 0.000000
# 6 0.000000 0.000000 0.000000 0.000000 0.000000 0.012368
#
#
# Mechanical properties :
#
#
# Convention : Reuss Voigt Hill
#
# Bulk Modulus (GPa) = 74.41151 83.24774 78.82962
# Shear Modulus (GPa) = 32.10358 41.87043 36.98700
#
# Velocity S-wave (km/s) = 4.03769 4.61116 4.33392
# Velocity P-wave (km/s) = 7.71526 8.40390 8.06693
#
# Compressibility (1/GPa) = 0.01343878
#
# Stress axis : x y z
#
# Youngs Moduli (GPa) = 75.84226 62.43489 116.93495
#
# Poissons Ratio (x) = 0.28753 0.43190
# Poissons Ratio (y) = 0.34928 0.45121
# Poissons Ratio (z) = 0.28012 0.24091
#
# Static dielectric constant tensor:
#      x y z
#    x 2.011270 0.000000 0.000000 
#    y 0.000000 1.746290 0.000000 
#    z 0.000000 0.000000 1.661430 
# 
# From -- ./inp_files/5805.got.cif
#   From: 2010.05.17/outbox.cif.g08.bks.cpg/sg64_3_cif.got.tgz:5805.got - 2010.06.03 16:29:19.
