data_PCOD9481399
_publ_section_title
;
Structure prediction by ZEFSAII (Michael W. Deem and Ramdas Pophale) SiO2 
 PCOD9481399
Probable space group: C M C A
;
_chemical_formula_sum "Si O2"
_cell_formula_units_Z 72
_cell_length_a 19.692978
_cell_length_b 22.903997
_cell_length_c 8.264821
_cell_angle_alpha 90.000000
_cell_angle_beta 90.000000
_cell_angle_gamma 90.000000
_cell_volume 3727.830231
_symmetry_space_group_name_H-M "C M C A"
_symmetry_group_IT_number 64
_symmetry_cell_setting 'orthorhombic'
loop_
_space_group_symop_operation_xyz
x,y,z
-x,1/2-y,1/2+z
x,-y,-z
-x,1/2+y,1/2-z
-x,-y,-z
x,1/2+y,1/2-z
-x,y,z
x,1/2-y,1/2+z
1/2+x,1/2+y,z
1/2-x,-y,1/2+z
1/2+x,1/2-y,-z
1/2-x,y,1/2-z
1/2-x,1/2-y,-z
1/2+x,y,1/2-z
1/2-x,1/2+y,z
1/2+x,-y,1/2+z
loop_
_atom_site_type_symbol
_atom_site_label
_atom_site_fract_x
_atom_site_fract_y
_atom_site_fract_z
Si Si1 0.250000 0.769584 0.250000
Si Si2 0.077880 0.586722 0.400263
Si Si3 0.199170 0.666542 0.467908
Si Si4 0.786784 0.062655 0.576257
Si Si5 0.921930 0.533673 0.763662
O O1 0.213592 0.724930 0.369390
O O2 0.198139 0.810757 0.152892
O O3 0.132589 0.637102 0.397555
O O4 0.094497 0.534000 0.277331
O O5 0.081689 0.562668 0.585161
O O6 0.000000 0.604105 0.371079
O O7 0.258286 0.616771 0.471279
O O8 0.750000 0.065470 0.750000
O O9 0.866851 0.060904 0.616693
O O10 0.768141 0.000000 0.500000
O O11 0.000000 0.538062 0.819475
#
# Coordination Sequence:
#
# PCOD9481399 Si02
#       5
#     8  16  16  16  16
#     4  10  24  38  60  76 112 154 190 258 272 334
#     4   9  17  33  59  82 115 152 184 227 288 355
#     4  11  21  40  57  84 112 147 202 232 295 328
#     4  12  23  34  58  90 117 147 186 242 286 348
#     4   9  18  33  52  84 122 153 175 221 297 354
#
# _framework density 19.314183
#
# number of rings (size 3 to 8) (size 9 to 14) (size 15 to 20)
#    0.000    1.778    3.333    2.667    4.667    0.444 
#    0.000    1.111    0.000    5.333    0.000    0.000 
#    0.000    0.000    0.000    0.000    0.000    0.000 
#
# Total GULP energy -200875.363574 kJ/mol
# GULP energy per Si atom -5579.871210 kJ/mol
# Density = 1.927022 g / cm^3
# Si number density = 19.314183 Si / 1000 Ang^3
#
#
#
# Elastic Constant Matrix: (Units=GPa)
#
#
# Indices 1 2 3 4 5 6 
#
# 1 103.8186 50.7138 13.4531 0.0000 0.0000 0.0000
# 2 50.7138 94.7834 6.8791 0.0000 0.0000 0.0000
# 3 13.4531 6.8791 30.0116 0.0000 0.0000 0.0000
# 4 0.0000 0.0000 0.0000 21.3955 0.0000 0.0000
# 5 0.0000 0.0000 0.0000 0.0000 7.4326 0.0000
# 6 0.0000 0.0000 0.0000 0.0000 0.0000 24.3801
#
#
#
# Elastic Compliance Matrix: (Units=1/GPa)
#
#
# Indices 1 2 3 4 5 6 
#
# 1 0.013615 -0.006958 -0.004508 0.000000 0.000000 0.000000
# 2 -0.006958 0.014284 -0.000155 0.000000 0.000000 0.000000
# 3 -0.004508 -0.000155 0.035377 0.000000 0.000000 0.000000
# 4 0.000000 0.000000 0.000000 0.046739 0.000000 0.000000
# 5 0.000000 0.000000 0.000000 0.000000 0.134542 0.000000
# 6 0.000000 0.000000 0.000000 0.000000 0.000000 0.041017
#
#
# Mechanical properties :
#
#
# Convention : Reuss Voigt Hill
#
# Bulk Modulus (GPa) = 24.97890 41.18952 33.08421
# Shear Modulus (GPa) = 15.52020 21.14615 18.33318
#
# Velocity S-wave (km/s) = 2.83780 3.31244 3.08426
# Velocity P-wave (km/s) = 4.86811 6.00017 5.46354
#
# Compressibility (1/GPa) = 0.04003379
#
# Stress axis : x y z
#
# Youngs Moduli (GPa) = 73.44826 70.00710 28.26700
#
# Poissons Ratio (x) = 0.48708 0.12744
# Poissons Ratio (y) = 0.51102 0.00439
# Poissons Ratio (z) = 0.33113 0.01088
#
# Static dielectric constant tensor:
#      x y z
#    x 1.679440 0.000000 0.000000 
#    y 0.000000 1.664300 0.000000 
#    z 0.000000 0.000000 1.770840 
# 
# From -- ./inp_files/8042.got.cif
#   From: 2010.05.17/outbox.cif.g08.bks.cpg/sg64_5_cif.got.tgz:8042.got - 2010.06.03 16:29:19.
