data_PCOD9481148
_publ_section_title
;
Structure prediction by ZEFSAII (Michael W. Deem and Ramdas Pophale) SiO2 
 PCOD9481148
Probable space group: C M C A
;
_chemical_formula_sum "Si O2"
_cell_formula_units_Z 56
_cell_length_a 20.783185
_cell_length_b 10.080611
_cell_length_c 11.541334
_cell_angle_alpha 90.000000
_cell_angle_beta 90.000000
_cell_angle_gamma 90.000000
_cell_volume 2417.992609
_symmetry_space_group_name_H-M "C M C A"
_symmetry_group_IT_number 64
_symmetry_cell_setting 'orthorhombic'
loop_
_space_group_symop_operation_xyz
x,y,z
-x,1/2-y,1/2+z
x,-y,-z
-x,1/2+y,1/2-z
-x,-y,-z
x,1/2+y,1/2-z
-x,y,z
x,1/2-y,1/2+z
1/2+x,1/2+y,z
1/2-x,-y,1/2+z
1/2+x,1/2-y,-z
1/2-x,y,1/2-z
1/2-x,1/2-y,-z
1/2+x,y,1/2-z
1/2-x,1/2+y,z
1/2+x,-y,1/2+z
loop_
_atom_site_type_symbol
_atom_site_label
_atom_site_fract_x
_atom_site_fract_y
_atom_site_fract_z
Si Si1 0.121566 0.028164 0.771739
Si Si2 0.928437 0.279485 0.878502
Si Si3 0.702554 0.000000 0.500000
Si Si4 0.827500 0.638518 0.952815
O O1 0.071214 0.137890 0.814324
O O2 0.165296 0.116542 0.683567
O O3 0.093112 0.897639 0.709221
O O4 0.163269 0.985972 0.882375
O O5 0.000000 0.309019 0.923955
O O6 0.874518 0.263000 0.979628
O O7 0.753747 0.879658 0.489503
O O8 0.857959 0.500000 0.000000
#
# Coordination Sequence:
#
# PCOD9481148 Si02
#       4
#    16  16   8  16
#     4  11  24  45  70 104 138 181 227 290 343 407
#     4  11  25  45  70 100 138 188 234 278 344 413
#     4  10  22  46  66 108 132 178 232 288 348 408
#     4   8  21  43  65  99 133 183 215 289 338 406
#
# _framework density 23.159706
#
# number of rings (size 3 to 8) (size 9 to 14) (size 15 to 20)
#    0.857    1.143    0.000    1.714    4.000    7.429 
#    5.143    1.429    0.000    0.000    0.000    0.000 
#    0.000    0.000    0.000    0.000    0.000    0.000 
#
# Total GULP energy -155974.239413 kJ/mol
# GULP energy per Si atom -5570.508550 kJ/mol
# Density = 2.310699 g / cm^3
# Si number density = 23.159706 Si / 1000 Ang^3
#
#
#
# Elastic Constant Matrix: (Units=GPa)
#
#
# Indices 1 2 3 4 5 6 
#
# 1 160.3448 49.9995 67.2016 0.0000 0.0000 0.0000
# 2 49.9995 84.7975 30.8393 0.0000 0.0000 0.0000
# 3 67.2016 30.8393 128.5122 0.0000 0.0000 0.0000
# 4 0.0000 0.0000 0.0000 19.7739 0.0000 0.0000
# 5 0.0000 0.0000 0.0000 0.0000 23.0538 0.0000
# 6 0.0000 0.0000 0.0000 0.0000 0.0000 22.8779
#
#
#
# Elastic Compliance Matrix: (Units=1/GPa)
#
#
# Indices 1 2 3 4 5 6 
#
# 1 0.009060 -0.003965 -0.003786 0.000000 0.000000 0.000000
# 2 -0.003965 0.014656 -0.001444 0.000000 0.000000 0.000000
# 3 -0.003786 -0.001444 0.010108 0.000000 0.000000 0.000000
# 4 0.000000 0.000000 0.000000 0.050572 0.000000 0.000000
# 5 0.000000 0.000000 0.000000 0.000000 0.043377 0.000000
# 6 0.000000 0.000000 0.000000 0.000000 0.000000 0.043710
#
#
# Mechanical properties :
#
#
# Convention : Reuss Voigt Hill
#
# Bulk Modulus (GPa) = 64.79293 74.41505 69.60399
# Shear Modulus (GPa) = 25.63899 28.18206 26.91053
#
# Velocity S-wave (km/s) = 3.33085 3.49213 3.41244
# Velocity P-wave (km/s) = 6.54447 6.96139 6.75615
#
# Compressibility (1/GPa) = 0.01543378
#
# Stress axis : x y z
#
# Youngs Moduli (GPa) = 110.37906 68.23284 98.93584
#
# Poissons Ratio (x) = 0.27054 0.37457
# Poissons Ratio (y) = 0.43765 0.14282
# Poissons Ratio (z) = 0.41790 0.09850
#
# Static dielectric constant tensor:
#      x y z
#    x 1.836680 0.000000 0.000000 
#    y 0.000000 2.025630 0.000000 
#    z 0.000000 0.000000 1.939820 
# 
# From -- ./inp_files/16699.got.cif
#   From: 2010.05.17/outbox.cif.g08.bks.cpg/sg64_9_cif.got.tgz:16699.got - 2010.06.03 16:29:19.
