data_PCOD9481178
_publ_section_title
;
Structure prediction by ZEFSAII (Michael W. Deem and Ramdas Pophale) SiO2 
 PCOD9481178
Probable space group: C M C A
;
_chemical_formula_sum "Si O2"
_cell_formula_units_Z 80
_cell_length_a 14.945033
_cell_length_b 16.884443
_cell_length_c 13.876581
_cell_angle_alpha 90.000000
_cell_angle_beta 90.000000
_cell_angle_gamma 90.000000
_cell_volume 3501.596437
_symmetry_space_group_name_H-M "C M C A"
_symmetry_group_IT_number 64
_symmetry_cell_setting 'orthorhombic'
loop_
_space_group_symop_operation_xyz
x,y,z
-x,1/2-y,1/2+z
x,-y,-z
-x,1/2+y,1/2-z
-x,-y,-z
x,1/2+y,1/2-z
-x,y,z
x,1/2-y,1/2+z
1/2+x,1/2+y,z
1/2-x,-y,1/2+z
1/2+x,1/2-y,-z
1/2-x,y,1/2-z
1/2-x,1/2-y,-z
1/2+x,y,1/2-z
1/2-x,1/2+y,z
1/2+x,-y,1/2+z
loop_
_atom_site_type_symbol
_atom_site_label
_atom_site_fract_x
_atom_site_fract_y
_atom_site_fract_z
Si Si1 0.357344 0.701753 0.753332
Si Si2 0.402448 0.352137 0.631897
Si Si3 0.779328 0.902187 0.935356
Si Si4 0.097949 0.251985 0.559931
Si Si5 0.809946 0.053890 0.847665
O O1 0.250000 0.709987 0.750000
O O2 0.394296 0.786598 0.785162
O O3 0.392437 0.689942 0.646522
O O4 0.375991 0.626755 0.821786
O O5 0.500000 0.391422 0.635575
O O6 0.314876 0.405322 0.621126
O O7 0.396411 0.296477 0.537740
O O8 0.824428 0.816483 0.930651
O O9 0.841016 0.966629 0.880000
O O10 0.766038 0.920343 0.049272
O O11 0.000000 0.290591 0.563863
O O12 0.750000 0.048184 0.750000
#
# Coordination Sequence:
#
# PCOD9481178 Si02
#       5
#    16  16  16  16  16
#     4  11  20  38  65  91 124 165 210 262 317 374
#     4  11  22  38  65  96 125 163 214 263 316 379
#     4  11  22  43  65  93 131 176 213 264 323 387
#     4  11  23  39  65  99 127 166 219 271 324 383
#     4  10  23  39  65  94 128 173 216 259 328 386
#
# _framework density 22.846722
#
# number of rings (size 3 to 8) (size 9 to 14) (size 15 to 20)
#    0.000    1.200    4.000    3.600    2.800    0.000 
#    0.000    6.000    0.000   12.000    0.000    0.000 
#    0.000    0.000    0.000    0.000    0.000    0.000 
#
# Total GULP energy -223132.081664 kJ/mol
# GULP energy per Si atom -5578.302042 kJ/mol
# Density = 2.279472 g / cm^3
# Si number density = 22.846722 Si / 1000 Ang^3
#
#
#
# Elastic Constant Matrix: (Units=GPa)
#
#
# Indices 1 2 3 4 5 6 
#
# 1 84.9438 0.2408 -9.5919 0.0000 0.0000 0.0000
# 2 0.2408 55.7986 13.6874 0.0000 0.0000 0.0000
# 3 -9.5919 13.6874 95.9083 0.0000 0.0000 0.0000
# 4 0.0000 0.0000 0.0000 35.7925 0.0000 0.0000
# 5 0.0000 0.0000 0.0000 0.0000 11.1052 0.0000
# 6 0.0000 0.0000 0.0000 0.0000 0.0000 -4.4368
#
#
#
# Elastic Compliance Matrix: (Units=1/GPa)
#
#
# Indices 1 2 3 4 5 6 
#
# 1 0.011914 -0.000356 0.001242 0.000000 0.000000 0.000000
# 2 -0.000356 0.018582 -0.002688 0.000000 0.000000 0.000000
# 3 0.001242 -0.002688 0.010934 0.000000 0.000000 0.000000
# 4 0.000000 0.000000 0.000000 0.027939 0.000000 0.000000
# 5 0.000000 0.000000 0.000000 0.000000 0.090048 0.000000
# 6 0.000000 0.000000 0.000000 0.000000 0.000000 -0.225389
#
#
# Mechanical properties :
#
#
# Convention : Reuss Voigt Hill
#
# Bulk Modulus (GPa) = 26.43559 27.25816 26.84688
# Shear Modulus (GPa) = -100.48388 23.97979 -38.25204
#
# Velocity S-wave (km/s) = -6.63907 3.24326 -4.09625
# Velocity P-wave (km/s) = 6.86831 5.09723 3.25514
#
# Compressibility (1/GPa) = 0.03782779
#
# Stress axis : x y z
#
# Youngs Moduli (GPa) = 83.93636 53.81436 91.45420
#
# Poissons Ratio (x) = 0.01917 -0.11362
# Poissons Ratio (y) = 0.02990 0.24579
# Poissons Ratio (z) = -0.10428 0.14463
#
# Static dielectric constant tensor:
#      x y z
#    x 1.851300 0.000000 0.000000 
#    y 0.000000 1.888190 0.000000 
#    z 0.000000 0.000000 1.898050 
# 
# From -- ./inp_files/23651.got.cif
#   From: 2010.05.17/outbox.cif.g08.bks.cpg/sg64_12_cif.got.tgz:23651.got - 2010.06.03 16:29:19.
