data_PCOD9481977
_publ_section_title
;
Structure prediction by ZEFSAII (Michael W. Deem and Ramdas Pophale) SiO2 
 PCOD9481977
Probable space group: C M C A
;
_chemical_formula_sum "Si O2"
_cell_formula_units_Z 80
_cell_length_a 14.504141
_cell_length_b 19.559300
_cell_length_c 12.807177
_cell_angle_alpha 90.000000
_cell_angle_beta 90.000000
_cell_angle_gamma 90.000000
_cell_volume 3633.278866
_symmetry_space_group_name_H-M "C M C A"
_symmetry_group_IT_number 64
_symmetry_cell_setting 'orthorhombic'
loop_
_space_group_symop_operation_xyz
x,y,z
-x,1/2-y,1/2+z
x,-y,-z
-x,1/2+y,1/2-z
-x,-y,-z
x,1/2+y,1/2-z
-x,y,z
x,1/2-y,1/2+z
1/2+x,1/2+y,z
1/2-x,-y,1/2+z
1/2+x,1/2-y,-z
1/2-x,y,1/2-z
1/2-x,1/2-y,-z
1/2+x,y,1/2-z
1/2-x,1/2+y,z
1/2+x,-y,1/2+z
loop_
_atom_site_type_symbol
_atom_site_label
_atom_site_fract_x
_atom_site_fract_y
_atom_site_fract_z
Si Si1 0.500000 0.741331 0.265530
Si Si2 0.798939 0.699965 0.152223
Si Si3 0.151078 0.934713 0.060219
Si Si4 0.500000 0.998801 0.291157
Si Si5 0.697431 0.837312 0.082166
Si Si6 0.000000 0.867651 0.908136
Si Si7 0.000000 0.876151 0.335590
O O1 0.595557 0.718823 0.319862
O O2 0.500000 0.706219 0.148391
O O3 0.500000 0.824136 0.263803
O O4 0.750000 0.663589 0.250000
O O5 0.734279 0.766238 0.129477
O O6 0.796530 0.661738 0.043148
O O7 0.228429 0.892214 0.117373
O O8 0.085254 0.968968 0.144449
O O9 0.087933 0.887636 0.981565
O O10 0.191443 0.000000 0.000000
O O11 0.500000 0.957165 0.184554
O O12 0.500000 0.079633 0.309529
O O13 0.593974 0.854398 0.110205
#
# Coordination Sequence:
#
# PCOD9481977 Si02
#       7
#     8  16  16   8  16   8   8
#     4  12  22  38  62  91 122 164 205 254 309 382
#     4  11  23  40  60  89 127 161 207 255 320 372
#     4   9  19  39  64  89 118 164 215 256 308 376
#     4   9  20  39  64  91 124 166 208 260 308 387
#     4  11  24  40  61  92 126 162 208 266 310 377
#     4   9  20  39  64  93 124 162 211 255 318 378
#     4  12  24  40  61  94 129 165 212 256 325 367
#
# _framework density 22.018678999999999
#
# number of rings (size 3 to 8) (size 9 to 14) (size 15 to 20)
#    0.000    1.600    2.000    4.200    2.800    0.800 
#    3.600    0.500    0.000    0.000    0.000    0.000 
#    0.000    0.000    0.000    0.000    0.000    0.000 
#
# Total GULP energy -223396.300465 kJ/mol
# GULP energy per Si atom -5584.907512 kJ/mol
# Density = 2.196856 g / cm^3
# Si number density = 22.018679 Si / 1000 Ang^3
#
#
#
# Elastic Constant Matrix: (Units=GPa)
#
#
# Indices 1 2 3 4 5 6 
#
# 1 127.0738 12.0772 4.7539 0.0000 0.0000 0.0000
# 2 12.0772 50.4287 -8.3736 0.0000 0.0000 0.0000
# 3 4.7539 -8.3736 58.0278 0.0000 0.0000 0.0000
# 4 0.0000 0.0000 0.0000 13.7577 0.0000 0.0000
# 5 0.0000 0.0000 0.0000 0.0000 -6.4761 0.0000
# 6 0.0000 0.0000 0.0000 0.0000 0.0000 20.2364
#
#
#
# Elastic Compliance Matrix: (Units=1/GPa)
#
#
# Indices 1 2 3 4 5 6 
#
# 1 0.008105 -0.002102 -0.000967 0.000000 0.000000 0.000000
# 2 -0.002102 0.020862 0.003183 0.000000 0.000000 0.000000
# 3 -0.000967 0.003183 0.017772 0.000000 0.000000 0.000000
# 4 0.000000 0.000000 0.000000 0.072687 0.000000 0.000000
# 5 0.000000 0.000000 0.000000 0.000000 -0.154414 0.000000
# 6 0.000000 0.000000 0.000000 0.000000 0.000000 0.049416
#
#
# Mechanical properties :
#
#
# Convention : Reuss Voigt Hill
#
# Bulk Modulus (GPa) = 21.29207 28.04949 24.67078
# Shear Modulus (GPa) = 167.47310 20.64178 94.05744
#
# Velocity S-wave (km/s) = 8.73067 3.06513 6.54292
# Velocity P-wave (km/s) = 10.55101 5.02924 8.26490
#
# Compressibility (1/GPa) = 0.04696583
#
# Stress axis : x y z
#
# Youngs Moduli (GPa) = 123.37473 47.93447 56.26942
#
# Poissons Ratio (x) = 0.10075 0.05443
# Poissons Ratio (y) = 0.25931 -0.17908
# Poissons Ratio (z) = 0.11934 -0.15256
#
# Static dielectric constant tensor:
#      x y z
#    x 1.830890 0.000000 0.000000 
#    y 0.000000 1.830070 0.000000 
#    z 0.000000 0.000000 1.864070 
# 
# From -- ./inp_files/14529.got.cif
#   From: 2010.05.17/outbox.cif.g08.bks.cpg/sg64_8_cif.got.tgz:14529.got - 2010.06.03 16:29:19.
