data_PCOD9481410
_publ_section_title
;
Structure prediction by ZEFSAII (Michael W. Deem and Ramdas Pophale) SiO2 
 PCOD9481410
Probable space group: C M C A
;
_chemical_formula_sum "Si O2"
_cell_formula_units_Z 72
_cell_length_a 22.468301
_cell_length_b 15.257869
_cell_length_c 8.123663
_cell_angle_alpha 90.000000
_cell_angle_beta 90.000000
_cell_angle_gamma 90.000000
_cell_volume 2784.941097
_symmetry_space_group_name_H-M "C M C A"
_symmetry_group_IT_number 64
_symmetry_cell_setting 'orthorhombic'
loop_
_space_group_symop_operation_xyz
x,y,z
-x,1/2-y,1/2+z
x,-y,-z
-x,1/2+y,1/2-z
-x,-y,-z
x,1/2+y,1/2-z
-x,y,z
x,1/2-y,1/2+z
1/2+x,1/2+y,z
1/2-x,-y,1/2+z
1/2+x,1/2-y,-z
1/2-x,y,1/2-z
1/2-x,1/2-y,-z
1/2+x,y,1/2-z
1/2-x,1/2+y,z
1/2+x,-y,1/2+z
loop_
_atom_site_type_symbol
_atom_site_label
_atom_site_fract_x
_atom_site_fract_y
_atom_site_fract_z
Si Si1 0.750000 0.709505 0.750000
Si Si2 0.569585 0.950685 0.339398
Si Si3 0.595937 0.885873 0.881100
Si Si4 0.235592 0.405453 0.939980
Si Si5 0.389052 0.721559 0.692308
O O1 0.760641 0.657671 0.579263
O O2 0.682283 0.740717 0.704090
O O3 0.500000 0.932966 0.361556
O O4 0.602037 0.858511 0.319033
O O5 0.593492 0.000000 0.500000
O O6 0.575175 0.019413 0.185665
O O7 0.664243 0.901252 0.936083
O O8 0.585133 0.816466 0.734721
O O9 0.578474 0.824587 0.036661
O O10 0.250000 0.388638 0.750000
O O11 0.255212 0.500000 0.000000
#
# Coordination Sequence:
#
# PCOD9481410 Si02
#       5
#     8  16  16  16  16
#     4  10  24  40  60 104 142 182 236 276 348 424
#     4  11  26  48  73 100 134 181 236 297 360 420
#     4  11  25  43  68 103 137 180 236 280 354 416
#     4  11  23  37  64  98 139 193 231 284 342 414
#     4  11  25  44  69 103 142 184 229 290 347 420
#
# _framework density 25.853327
#
# number of rings (size 3 to 8) (size 9 to 14) (size 15 to 20)
#    0.000    1.111    1.111    4.667    7.778    4.444 
#    0.000    0.000    0.000    0.000    0.000    0.000 
#    0.000    0.000    0.000    0.000    0.000    0.000 
#
# Total GULP energy -200788.701221 kJ/mol
# GULP energy per Si atom -5577.463923 kJ/mol
# Density = 2.579448 g / cm^3
# Si number density = 25.853327 Si / 1000 Ang^3
#
#
#
# Elastic Constant Matrix: (Units=GPa)
#
#
# Indices 1 2 3 4 5 6 
#
# 1 62.2084 19.5549 1.2559 0.0000 0.0000 0.0000
# 2 19.5549 127.2479 1.1124 0.0000 0.0000 0.0000
# 3 1.2559 1.1124 119.1226 0.0000 0.0000 0.0000
# 4 0.0000 0.0000 0.0000 39.3235 0.0000 0.0000
# 5 0.0000 0.0000 0.0000 0.0000 27.3398 0.0000
# 6 0.0000 0.0000 0.0000 0.0000 0.0000 26.1299
#
#
#
# Elastic Compliance Matrix: (Units=1/GPa)
#
#
# Indices 1 2 3 4 5 6 
#
# 1 0.016894 -0.002595 -0.000154 0.000000 0.000000 0.000000
# 2 -0.002595 0.008258 -0.000050 0.000000 0.000000 0.000000
# 3 -0.000154 -0.000050 0.008397 0.000000 0.000000 0.000000
# 4 0.000000 0.000000 0.000000 0.025430 0.000000 0.000000
# 5 0.000000 0.000000 0.000000 0.000000 0.036577 0.000000
# 6 0.000000 0.000000 0.000000 0.000000 0.000000 0.038270
#
#
# Mechanical properties :
#
#
# Convention : Reuss Voigt Hill
#
# Bulk Modulus (GPa) = 35.77621 39.15837 37.46729
# Shear Modulus (GPa) = 33.61580 37.66903 35.64242
#
# Velocity S-wave (km/s) = 3.60981 3.82125 3.71703
# Velocity P-wave (km/s) = 5.58950 5.88629 5.73982
#
# Compressibility (1/GPa) = 0.02795154
#
# Stress axis : x y z
#
# Youngs Moduli (GPa) = 59.19344 121.09656 119.09295
#
# Poissons Ratio (x) = 0.31422 0.01833
# Poissons Ratio (y) = 0.15360 0.00593
# Poissons Ratio (z) = 0.00911 0.00603
#
# Static dielectric constant tensor:
#      x y z
#    x 1.994390 0.000000 0.000000 
#    y 0.000000 1.998440 0.000000 
#    z 0.000000 0.000000 2.207350 
# 
# From -- ./inp_files/9994.got.cif
#   From: 2010.05.17/outbox.cif.g08.bks.cpg/sg64_5_cif.got.tgz:9994.got - 2010.06.03 16:29:19.
