data_PCOD9481298
_publ_section_title
;
Structure prediction by ZEFSAII (Michael W. Deem and Ramdas Pophale) SiO2 
 PCOD9481298
Probable space group: C M C A
;
_chemical_formula_sum "Si O2"
_cell_formula_units_Z 112
_cell_length_a 16.201135
_cell_length_b 24.029661
_cell_length_c 14.531141
_cell_angle_alpha 90.000000
_cell_angle_beta 90.000000
_cell_angle_gamma 90.000000
_cell_volume 5657.086271
_symmetry_space_group_name_H-M "C M C A"
_symmetry_group_IT_number 64
_symmetry_cell_setting 'orthorhombic'
loop_
_space_group_symop_operation_xyz
x,y,z
-x,1/2-y,1/2+z
x,-y,-z
-x,1/2+y,1/2-z
-x,-y,-z
x,1/2+y,1/2-z
-x,y,z
x,1/2-y,1/2+z
1/2+x,1/2+y,z
1/2-x,-y,1/2+z
1/2+x,1/2-y,-z
1/2-x,y,1/2-z
1/2-x,1/2-y,-z
1/2+x,y,1/2-z
1/2-x,1/2+y,z
1/2+x,-y,1/2+z
loop_
_atom_site_type_symbol
_atom_site_label
_atom_site_fract_x
_atom_site_fract_y
_atom_site_fract_z
Si Si1 0.903221 0.335455 0.479108
Si Si2 0.659609 0.047073 0.930833
Si Si3 0.595923 0.211935 0.955669
Si Si4 0.097688 0.548629 0.432271
Si Si5 0.747428 0.847892 0.141484
Si Si6 0.344261 0.532691 0.273189
Si Si7 0.907084 0.880937 0.591133
O O1 0.899288 0.278073 0.535199
O O2 0.875600 0.389476 0.537669
O O3 0.835667 0.330348 0.399011
O O4 0.000000 0.342162 0.450036
O O5 0.726679 0.090231 0.894873
O O6 0.622561 0.014754 0.843011
O O7 0.599923 0.082547 0.997219
O O8 0.692396 0.000000 0.000000
O O9 0.500000 0.197766 0.929545
O O10 0.669758 0.189036 0.892916
O O11 0.610316 0.181033 0.054491
O O12 0.128753 0.500000 0.500000
O O13 0.114280 0.536842 0.325612
O O14 0.000000 0.549669 0.444119
O O15 0.750000 0.847875 0.250000
O O16 0.250000 0.519745 0.250000
O O17 0.350958 0.589777 0.332354
O O18 0.000000 0.883732 0.627160
#
# Coordination Sequence:
#
# PCOD9481298 Si02
#       7
#    16  16  16  16  16  16  16
#     4  10  23  43  65  87 123 169 208 253 313 369
#     4   9  21  36  58  89 120 160 197 250 315 368
#     4   9  20  43  67  89 122 164 204 258 319 369
#     4  10  24  41  59  83 119 163 203 249 299 367
#     4  11  23  38  63  97 125 163 210 260 313 377
#     4  11  23  34  57  89 117 158 196 246 304 368
#     4   9  19  38  62  87 115 150 198 255 309 362
#
# _framework density 19.798178
#
# number of rings (size 3 to 8) (size 9 to 14) (size 15 to 20)
#    0.000    2.143    0.000    1.286   10.000    3.714 
#    2.571    0.000    0.000    0.000    0.000    0.000 
#    0.000    0.000    0.000    0.000    0.000    0.000 
#
# Total GULP energy -312157.254698 kJ/mol
# GULP energy per Si atom -5574.236691 kJ/mol
# Density = 1.975312 g / cm^3
# Si number density = 19.798178 Si / 1000 Ang^3
#
#
#
# Elastic Constant Matrix: (Units=GPa)
#
#
# Indices 1 2 3 4 5 6 
#
# 1 69.1976 34.6919 38.0626 0.0000 0.0000 0.0000
# 2 34.6919 128.8383 52.5000 0.0000 0.0000 0.0000
# 3 38.0626 52.5000 122.7644 0.0000 0.0000 0.0000
# 4 0.0000 0.0000 0.0000 7.2364 0.0000 0.0000
# 5 0.0000 0.0000 0.0000 0.0000 20.7227 0.0000
# 6 0.0000 0.0000 0.0000 0.0000 0.0000 30.6460
#
#
#
# Elastic Compliance Matrix: (Units=1/GPa)
#
#
# Indices 1 2 3 4 5 6 
#
# 1 0.018447 -0.003193 -0.004354 0.000000 0.000000 0.000000
# 2 -0.003193 0.009952 -0.003266 0.000000 0.000000 0.000000
# 3 -0.004354 -0.003266 0.010892 0.000000 0.000000 0.000000
# 4 0.000000 0.000000 0.000000 0.138190 0.000000 0.000000
# 5 0.000000 0.000000 0.000000 0.000000 0.048256 0.000000
# 6 0.000000 0.000000 0.000000 0.000000 0.000000 0.032631
#
#
# Mechanical properties :
#
#
# Convention : Reuss Voigt Hill
#
# Bulk Modulus (GPa) = 56.60714 63.47880 60.04297
# Shear Modulus (GPa) = 17.48968 24.75744 21.12356
#
# Velocity S-wave (km/s) = 2.97543 3.54006 3.26996
# Velocity P-wave (km/s) = 6.36069 6.98870 6.68208
#
# Compressibility (1/GPa) = 0.01766562
#
# Stress axis : x y z
#
# Youngs Moduli (GPa) = 54.20911 100.47889 91.80749
#
# Poissons Ratio (x) = 0.32083 0.39973
# Poissons Ratio (y) = 0.17309 0.29985
# Poissons Ratio (z) = 0.23602 0.32818
#
# Static dielectric constant tensor:
#      x y z
#    x 1.707130 0.000000 0.000000 
#    y 0.000000 1.737640 0.000000 
#    z 0.000000 0.000000 1.708920 
# 
# From -- ./inp_files/24243.got.cif
#   From: 2010.05.17/outbox.cif.g08.bks.cpg/sg64_13_cif.got.tgz:24243.got - 2010.06.03 16:29:19.
