data_PCOD9481806
_publ_section_title
;
Structure prediction by ZEFSAII (Michael W. Deem and Ramdas Pophale) SiO2 
 PCOD9481806
Probable space group: C M C A
;
_chemical_formula_sum "Si O2"
_cell_formula_units_Z 96
_cell_length_a 21.262098
_cell_length_b 12.261443
_cell_length_c 16.643254
_cell_angle_alpha 90.000000
_cell_angle_beta 90.000000
_cell_angle_gamma 90.000000
_cell_volume 4338.962936
_symmetry_space_group_name_H-M "C M C A"
_symmetry_group_IT_number 64
_symmetry_cell_setting 'orthorhombic'
loop_
_space_group_symop_operation_xyz
x,y,z
-x,1/2-y,1/2+z
x,-y,-z
-x,1/2+y,1/2-z
-x,-y,-z
x,1/2+y,1/2-z
-x,y,z
x,1/2-y,1/2+z
1/2+x,1/2+y,z
1/2-x,-y,1/2+z
1/2+x,1/2-y,-z
1/2-x,y,1/2-z
1/2-x,1/2-y,-z
1/2+x,y,1/2-z
1/2-x,1/2+y,z
1/2+x,-y,1/2+z
loop_
_atom_site_type_symbol
_atom_site_label
_atom_site_fract_x
_atom_site_fract_y
_atom_site_fract_z
Si Si1 0.363649 0.683683 0.882765
Si Si2 0.798102 0.954161 0.865882
Si Si3 0.370636 0.743905 0.065410
Si Si4 0.500000 0.890340 0.383810
Si Si5 0.927171 0.464537 0.093348
Si Si6 0.334463 0.400115 0.685267
Si Si7 0.000000 0.869163 0.920599
O O1 0.328684 0.567642 0.895404
O O2 0.434884 0.659817 0.854508
O O3 0.330725 0.769042 0.823475
O O4 0.368771 0.743920 0.968726
O O5 0.818530 0.843373 0.910160
O O6 0.722940 0.953242 0.864365
O O7 0.823605 0.938183 0.775586
O O8 0.377619 0.864932 0.099151
O O9 0.435838 0.691558 0.095325
O O10 0.500000 0.882493 0.481830
O O11 0.500000 0.019199 0.372099
O O12 0.900263 0.559118 0.149651
O O13 0.000000 0.436250 0.112816
O O14 0.927228 0.500000 0.000000
#
# Coordination Sequence:
#
# PCOD9481806 Si02
#       7
#    16  16  16   8  16  16   8
#     4  11  23  43  68  99 129 172 224 278 328 394
#     4  11  27  45  67  91 136 183 224 276 333 396
#     4  11  21  41  69 100 130 167 225 275 329 392
#     4   9  18  34  64  93 130 156 203 272 326 376
#     4  11  24  44  69 100 138 176 217 274 345 406
#     4  11  28  46  63  94 137 183 217 272 345 405
#     4   9  16  34  59  98 127 159 200 262 334 373
#
# _framework density 22.125101999999998
#
# number of rings (size 3 to 8) (size 9 to 14) (size 15 to 20)
#    0.000    1.333    4.167    0.500    5.833    3.333 
#    3.000    0.000    0.000    0.000    0.000    0.000 
#    0.000    0.000    0.000    0.000    0.000    0.000 
#
# Total GULP energy -268075.568045 kJ/mol
# GULP energy per Si atom -5584.907668 kJ/mol
# Density = 2.207474 g / cm^3
# Si number density = 22.125102 Si / 1000 Ang^3
#
#
#
# Elastic Constant Matrix: (Units=GPa)
#
#
# Indices 1 2 3 4 5 6 
#
# 1 76.1805 22.7587 15.0453 0.0000 0.0000 0.0000
# 2 22.7587 107.8722 6.3003 0.0000 0.0000 0.0000
# 3 15.0453 6.3003 13.5251 0.0000 0.0000 0.0000
# 4 0.0000 0.0000 0.0000 17.3232 0.0000 0.0000
# 5 0.0000 0.0000 0.0000 0.0000 35.7514 0.0000
# 6 0.0000 0.0000 0.0000 0.0000 0.0000 17.2452
#
#
#
# Elastic Compliance Matrix: (Units=1/GPa)
#
#
# Indices 1 2 3 4 5 6 
#
# 1 0.017519 -0.002629 -0.018263 0.000000 0.000000 0.000000
# 2 -0.002629 0.009924 -0.001698 0.000000 0.000000 0.000000
# 3 -0.018263 -0.001698 0.095044 0.000000 0.000000 0.000000
# 4 0.000000 0.000000 0.000000 0.057726 0.000000 0.000000
# 5 0.000000 0.000000 0.000000 0.000000 0.027971 0.000000
# 6 0.000000 0.000000 0.000000 0.000000 0.000000 0.057987
#
#
# Mechanical properties :
#
#
# Convention : Reuss Voigt Hill
#
# Bulk Modulus (GPa) = 12.93566 31.75402 22.34484
# Shear Modulus (GPa) = 14.83145 24.29554 19.56350
#
# Velocity S-wave (km/s) = 2.59191 3.31735 2.97681
# Velocity P-wave (km/s) = 3.84924 5.39039 4.68364
#
# Compressibility (1/GPa) = 0.07730567
#
# Stress axis : x y z
#
# Youngs Moduli (GPa) = 57.08022 100.76427 10.52145
#
# Poissons Ratio (x) = 0.26496 0.19216
# Poissons Ratio (y) = 0.15009 0.01786
# Poissons Ratio (z) = 1.04248 0.17108
#
# Static dielectric constant tensor:
#      x y z
#    x 1.791520 0.000000 0.000000 
#    y 0.000000 1.826610 0.000000 
#    z 0.000000 0.000000 1.801450 
# 
# From -- ./inp_files/40919.got.cif
#   From: 2010.05.17/outbox.cif.g08.bks.cpg/sg64_21_cif.got.tgz:40919.got - 2010.06.03 16:29:19.
