data_PCOD9481242
_publ_section_title
;
Structure prediction by ZEFSAII (Michael W. Deem and Ramdas Pophale) SiO2 
 PCOD9481242
Probable space group: C M C A
;
_chemical_formula_sum "Si O2"
_cell_formula_units_Z 80
_cell_length_a 20.535550
_cell_length_b 8.727032
_cell_length_c 19.686463
_cell_angle_alpha 90.000000
_cell_angle_beta 90.000000
_cell_angle_gamma 90.000000
_cell_volume 3528.097694
_symmetry_space_group_name_H-M "C M C A"
_symmetry_group_IT_number 64
_symmetry_cell_setting 'orthorhombic'
loop_
_space_group_symop_operation_xyz
x,y,z
-x,1/2-y,1/2+z
x,-y,-z
-x,1/2+y,1/2-z
-x,-y,-z
x,1/2+y,1/2-z
-x,y,z
x,1/2-y,1/2+z
1/2+x,1/2+y,z
1/2-x,-y,1/2+z
1/2+x,1/2-y,-z
1/2-x,y,1/2-z
1/2-x,1/2-y,-z
1/2+x,y,1/2-z
1/2-x,1/2+y,z
1/2+x,-y,1/2+z
loop_
_atom_site_type_symbol
_atom_site_label
_atom_site_fract_x
_atom_site_fract_y
_atom_site_fract_z
Si Si1 0.573326 0.578386 0.341128
Si Si2 0.427638 0.654196 0.543796
Si Si3 0.313637 0.349112 0.910694
Si Si4 0.679849 0.840025 0.745216
Si Si5 0.821785 0.203997 0.886633
O O1 0.500000 0.627956 0.326337
O O2 0.571253 0.419295 0.380727
O O3 0.618385 0.568692 0.274877
O O4 0.610601 0.702719 0.388968
O O5 0.420441 0.500000 0.500000
O O6 0.500000 0.720228 0.529483
O O7 0.366222 0.766493 0.541728
O O8 0.329599 0.301283 0.832783
O O9 0.238689 0.296924 0.918947
O O10 0.320121 0.468021 0.087265
O O11 0.750000 0.921333 0.750000
O O12 0.812246 0.709976 0.696043
#
# Coordination Sequence:
#
# PCOD9481242 Si02
#       5
#    16  16  16  16  16
#     4   9  19  38  60  84 120 156 199 249 301 359
#     4  10  23  42  62  85 119 164 206 252 307 362
#     4  11  20  36  60  86 121 161 202 243 296 366
#     4   8  19  32  58  85 124 154 191 240 302 362
#     4   9  21  34  57  91 120 154 193 244 309 351
#
# _framework density 22.67511
#
# number of rings (size 3 to 8) (size 9 to 14) (size 15 to 20)
#    1.200    1.400    0.000    1.200    2.800    5.600 
#    0.000    5.000    0.000    3.600    0.000    0.000 
#    0.000    0.000    0.000    0.000    0.000    0.000 
#
# Total GULP energy -222983.160886 kJ/mol
# GULP energy per Si atom -5574.579022 kJ/mol
# Density = 2.262350 g / cm^3
# Si number density = 22.675110 Si / 1000 Ang^3
#
#
#
# Elastic Constant Matrix: (Units=GPa)
#
#
# Indices 1 2 3 4 5 6 
#
# 1 206.6207 64.7137 24.6713 0.0000 0.0000 0.0000
# 2 64.7137 85.5355 -10.2688 0.0000 0.0000 0.0000
# 3 24.6713 -10.2688 55.7581 0.0000 0.0000 0.0000
# 4 0.0000 0.0000 0.0000 26.3902 0.0000 0.0000
# 5 0.0000 0.0000 0.0000 0.0000 28.5873 0.0000
# 6 0.0000 0.0000 0.0000 0.0000 0.0000 30.5079
#
#
#
# Elastic Compliance Matrix: (Units=1/GPa)
#
#
# Indices 1 2 3 4 5 6 
#
# 1 0.007228 -0.005984 -0.004300 0.000000 0.000000 0.000000
# 2 -0.005984 0.016910 0.005762 0.000000 0.000000 0.000000
# 3 -0.004300 0.005762 0.020898 0.000000 0.000000 0.000000
# 4 0.000000 0.000000 0.000000 0.037893 0.000000 0.000000
# 5 0.000000 0.000000 0.000000 0.000000 0.034981 0.000000
# 6 0.000000 0.000000 0.000000 0.000000 0.000000 0.032778
#
#
# Mechanical properties :
#
#
# Convention : Reuss Voigt Hill
#
# Bulk Modulus (GPa) = 27.78396 56.23855 42.01125
# Shear Modulus (GPa) = 29.11544 35.01694 32.06619
#
# Velocity S-wave (km/s) = 3.58722 3.93401 3.76461
# Velocity P-wave (km/s) = 5.42560 6.74470 6.12079
#
# Compressibility (1/GPa) = 0.03599199
#
# Stress axis : x y z
#
# Youngs Moduli (GPa) = 138.35947 59.13507 47.85034
#
# Poissons Ratio (x) = 0.35389 0.20576
# Poissons Ratio (y) = 0.82800 -0.27573
# Poissons Ratio (z) = 0.59496 -0.34075
#
# Static dielectric constant tensor:
#      x y z
#    x 1.842470 0.000000 0.000000 
#    y 0.000000 1.822660 0.000000 
#    z 0.000000 0.000000 1.964740 
# 
# From -- ./inp_files/34216.got.cif
#   From: 2010.05.17/outbox.cif.g08.bks.cpg/sg64_18_cif.got.tgz:34216.got - 2010.06.03 16:29:19.
