data_PCOD9481607
_publ_section_title
;
Structure prediction by ZEFSAII (Michael W. Deem and Ramdas Pophale) SiO2 
 PCOD9481607
Probable space group: C M C A
;
_chemical_formula_sum "Si O2"
_cell_formula_units_Z 112
_cell_length_a 14.523632
_cell_length_b 27.547826
_cell_length_c 14.167571
_cell_angle_alpha 90.000000
_cell_angle_beta 90.000000
_cell_angle_gamma 90.000000
_cell_volume 5668.367054
_symmetry_space_group_name_H-M "C M C A"
_symmetry_group_IT_number 64
_symmetry_cell_setting 'orthorhombic'
loop_
_space_group_symop_operation_xyz
x,y,z
-x,1/2-y,1/2+z
x,-y,-z
-x,1/2+y,1/2-z
-x,-y,-z
x,1/2+y,1/2-z
-x,y,z
x,1/2-y,1/2+z
1/2+x,1/2+y,z
1/2-x,-y,1/2+z
1/2+x,1/2-y,-z
1/2-x,y,1/2-z
1/2-x,1/2-y,-z
1/2+x,y,1/2-z
1/2-x,1/2+y,z
1/2+x,-y,1/2+z
loop_
_atom_site_type_symbol
_atom_site_label
_atom_site_fract_x
_atom_site_fract_y
_atom_site_fract_z
Si Si1 0.105267 0.461600 0.416002
Si Si2 0.891693 0.766049 0.747604
Si Si3 0.737658 0.123016 0.524298
Si Si4 0.140317 0.037953 0.240784
Si Si5 0.241444 0.726385 0.897447
Si Si6 0.396104 0.360593 0.853914
Si Si7 0.395463 0.051446 0.042056
O O1 0.126120 0.500000 0.500000
O O2 0.174171 0.417051 0.425131
O O3 0.113301 0.490360 0.317721
O O4 0.000000 0.445323 0.429941
O O5 0.850891 0.742267 0.842880
O O6 0.827170 0.745921 0.664780
O O7 0.878261 0.823573 0.767739
O O8 0.000000 0.756900 0.733061
O O9 0.757924 0.168535 0.590480
O O10 0.679237 0.143305 0.435419
O O11 0.827290 0.094556 0.486878
O O12 0.250000 0.039149 0.250000
O O13 0.108344 0.084423 0.181575
O O14 0.103300 0.043517 0.345846
O O15 0.250000 0.750000 0.000000
O O16 0.500000 0.349764 0.888248
O O17 0.500000 0.060259 0.008613
O O18 0.362364 0.000000 0.000000
#
# Coordination Sequence:
#
# PCOD9481607 Si02
#       7
#    16  16  16  16  16  16  16
#     4  11  22  39  63  98 135 165 210 264 325 397
#     4  10  25  47  69  97 135 177 222 276 341 409
#     4  12  23  42  69  97 131 178 218 277 339 393
#     4  12  22  38  66  95 133 171 211 264 331 391
#     4  11  25  44  70  99 136 173 228 287 342 400
#     4  11  22  38  68 101 128 163 216 274 333 400
#     4  11  25  44  62  91 131 174 222 268 324 400
#
# _framework density 19.758776999999998
#
# number of rings (size 3 to 8) (size 9 to 14) (size 15 to 20)
#    0.000    0.857    4.286    3.000    4.000    2.286 
#    7.714    0.000    0.000    0.000    0.000    0.000 
#    0.000    0.000    0.000    0.000    0.000    0.000 
#
# Total GULP energy -313115.399725 kJ/mol
# GULP energy per Si atom -5591.346424 kJ/mol
# Density = 1.971381 g / cm^3
# Si number density = 19.758777 Si / 1000 Ang^3
#
#
#
# Elastic Constant Matrix: (Units=GPa)
#
#
# Indices 1 2 3 4 5 6 
#
# 1 119.7009 34.1452 20.7561 0.0000 0.0000 0.0000
# 2 34.1452 102.8873 30.2825 0.0000 0.0000 0.0000
# 3 20.7561 30.2825 68.4747 0.0000 0.0000 0.0000
# 4 0.0000 0.0000 0.0000 35.4911 0.0000 0.0000
# 5 0.0000 0.0000 0.0000 0.0000 14.1113 0.0000
# 6 0.0000 0.0000 0.0000 0.0000 0.0000 29.9450
#
#
#
# Elastic Compliance Matrix: (Units=1/GPa)
#
#
# Indices 1 2 3 4 5 6 
#
# 1 0.009395 -0.002621 -0.001689 0.000000 0.000000 0.000000
# 2 -0.002621 0.011905 -0.004470 0.000000 0.000000 0.000000
# 3 -0.001689 -0.004470 0.017093 0.000000 0.000000 0.000000
# 4 0.000000 0.000000 0.000000 0.028176 0.000000 0.000000
# 5 0.000000 0.000000 0.000000 0.000000 0.070865 0.000000
# 6 0.000000 0.000000 0.000000 0.000000 0.000000 0.033395
#
#
# Mechanical properties :
#
#
# Convention : Reuss Voigt Hill
#
# Bulk Modulus (GPa) = 48.00186 51.27005 49.63596
# Shear Modulus (GPa) = 25.59746 29.63477 27.61612
#
# Velocity S-wave (km/s) = 3.60321 3.87696 3.74259
# Velocity P-wave (km/s) = 6.45426 6.78568 6.62204
#
# Compressibility (1/GPa) = 0.02083252
#
# Stress axis : x y z
#
# Youngs Moduli (GPa) = 106.44468 83.99910 58.50408
#
# Poissons Ratio (x) = 0.22014 0.09879
# Poissons Ratio (y) = 0.27896 0.26154
# Poissons Ratio (z) = 0.17975 0.37551
#
# Static dielectric constant tensor:
#      x y z
#    x 1.714430 0.000000 0.000000 
#    y 0.000000 1.685480 0.000000 
#    z 0.000000 0.000000 1.698980 
# 
# From -- ./inp_files/24255.got.cif
#   From: 2010.05.17/outbox.cif.g08.bks.cpg/sg64_13_cif.got.tgz:24255.got - 2010.06.03 16:29:19.
