data_PCOD9481004
_publ_section_title
;
Structure prediction by ZEFSAII (Michael W. Deem and Ramdas Pophale) SiO2 
 PCOD9481004
Probable space group: C M C A
;
_chemical_formula_sum "Si O2"
_cell_formula_units_Z 88
_cell_length_a 16.649640
_cell_length_b 24.225611
_cell_length_c 10.310444
_cell_angle_alpha 90.000000
_cell_angle_beta 90.000000
_cell_angle_gamma 90.000000
_cell_volume 4158.693893
_symmetry_space_group_name_H-M "C M C A"
_symmetry_group_IT_number 64
_symmetry_cell_setting 'orthorhombic'
loop_
_space_group_symop_operation_xyz
x,y,z
-x,1/2-y,1/2+z
x,-y,-z
-x,1/2+y,1/2-z
-x,-y,-z
x,1/2+y,1/2-z
-x,y,z
x,1/2-y,1/2+z
1/2+x,1/2+y,z
1/2-x,-y,1/2+z
1/2+x,1/2-y,-z
1/2-x,y,1/2-z
1/2-x,1/2-y,-z
1/2+x,y,1/2-z
1/2-x,1/2+y,z
1/2+x,-y,1/2+z
loop_
_atom_site_type_symbol
_atom_site_label
_atom_site_fract_x
_atom_site_fract_y
_atom_site_fract_z
Si Si1 0.325946 0.285462 0.043230
Si Si2 0.096853 0.974824 0.281117
Si Si3 0.095692 0.281471 0.730987
Si Si4 0.091543 0.901602 0.768713
Si Si5 0.666265 0.087419 0.530425
Si Si6 0.297095 0.000000 0.000000
O O1 0.361825 0.262643 0.177292
O O2 0.305919 0.350276 0.057025
O O3 0.250000 0.250000 0.000000
O O4 0.386690 0.276754 0.922097
O O5 0.133372 0.942199 0.159551
O O6 0.143777 0.962102 0.412081
O O7 0.000000 0.969586 0.284257
O O8 0.121747 0.039499 0.276332
O O9 0.128735 0.342927 0.768347
O O10 0.000000 0.279135 0.751040
O O11 0.000000 0.899119 0.724311
O O12 0.096111 0.906078 0.924516
O O13 0.732613 0.048209 0.463626
#
# Coordination Sequence:
#
# PCOD9481004 Si02
#       6
#    16  16  16  16  16   8
#     4  11  25  43  66  99 135 177 218 277 335 399
#     4  11  23  41  63  92 128 167 213 267 328 388
#     4  10  22  42  67  94 127 172 225 272 326 395
#     4   9  19  38  65  92 120 161 213 267 320 383
#     4  11  23  41  66  93 129 170 219 263 325 396
#     4  12  25  38  61  96 130 166 210 272 331 386
#
# _framework density 21.160489999999999
#
# number of rings (size 3 to 8) (size 9 to 14) (size 15 to 20)
#    0.000    1.455    1.818    2.455    2.545    6.545 
#    0.000    0.000    0.000    0.000    0.000    0.000 
#    0.000    0.000    0.000    0.000    0.000    0.000 
#
# Total GULP energy -245089.042087 kJ/mol
# GULP energy per Si atom -5570.205502 kJ/mol
# Density = 2.111233 g / cm^3
# Si number density = 21.160490 Si / 1000 Ang^3
#
#
#
# Elastic Constant Matrix: (Units=GPa)
#
#
# Indices 1 2 3 4 5 6 
#
# 1 88.7284 24.0477 16.9965 0.0000 0.0000 0.0000
# 2 24.0477 123.9942 7.7138 0.0000 0.0000 0.0000
# 3 16.9965 7.7138 51.0450 0.0000 0.0000 0.0000
# 4 0.0000 0.0000 0.0000 34.6938 0.0000 0.0000
# 5 0.0000 0.0000 0.0000 0.0000 50.0093 0.0000
# 6 0.0000 0.0000 0.0000 0.0000 0.0000 23.6209
#
#
#
# Elastic Compliance Matrix: (Units=1/GPa)
#
#
# Indices 1 2 3 4 5 6 
#
# 1 0.012608 -0.002205 -0.003865 0.000000 0.000000 0.000000
# 2 -0.002205 0.008527 -0.000554 0.000000 0.000000 0.000000
# 3 -0.003865 -0.000554 0.020961 0.000000 0.000000 0.000000
# 4 0.000000 0.000000 0.000000 0.028824 0.000000 0.000000
# 5 0.000000 0.000000 0.000000 0.000000 0.019996 0.000000
# 6 0.000000 0.000000 0.000000 0.000000 0.000000 0.042335
#
#
# Mechanical properties :
#
#
# Convention : Reuss Voigt Hill
#
# Bulk Modulus (GPa) = 34.66443 40.14262 37.40353
# Shear Modulus (GPa) = 32.02738 35.99877 34.01308
#
# Velocity S-wave (km/s) = 3.89465 4.12907 4.01357
# Velocity P-wave (km/s) = 6.05324 6.46096 6.26042
#
# Compressibility (1/GPa) = 0.02884801
#
# Stress axis : x y z
#
# Youngs Moduli (GPa) = 79.31290 117.27459 47.70700
#
# Poissons Ratio (x) = 0.25857 0.18439
# Poissons Ratio (y) = 0.17487 0.02645
# Poissons Ratio (z) = 0.30655 0.06502
#
# Static dielectric constant tensor:
#      x y z
#    x 1.769000 0.000000 0.000000 
#    y 0.000000 1.803480 0.000000 
#    z 0.000000 0.000000 1.926560 
# 
# From -- ./inp_files/14613.got.cif
#   From: 2010.05.17/outbox.cif.g08.bks.cpg/sg64_8_cif.got.tgz:14613.got - 2010.06.03 16:29:19.
