data_PCOD9481617
_publ_section_title
;
Structure prediction by ZEFSAII (Michael W. Deem and Ramdas Pophale) SiO2 
 PCOD9481617
Probable space group: C M C A
;
_chemical_formula_sum "Si O2"
_cell_formula_units_Z 68
_cell_length_a 9.833732
_cell_length_b 17.321285
_cell_length_c 17.899993
_cell_angle_alpha 90.000000
_cell_angle_beta 90.000000
_cell_angle_gamma 90.000000
_cell_volume 3048.957263
_symmetry_space_group_name_H-M "C M C A"
_symmetry_group_IT_number 64
_symmetry_cell_setting 'orthorhombic'
loop_
_space_group_symop_operation_xyz
x,y,z
-x,1/2-y,1/2+z
x,-y,-z
-x,1/2+y,1/2-z
-x,-y,-z
x,1/2+y,1/2-z
-x,y,z
x,1/2-y,1/2+z
1/2+x,1/2+y,z
1/2-x,-y,1/2+z
1/2+x,1/2-y,-z
1/2-x,y,1/2-z
1/2-x,1/2-y,-z
1/2+x,y,1/2-z
1/2-x,1/2+y,z
1/2+x,-y,1/2+z
loop_
_atom_site_type_symbol
_atom_site_label
_atom_site_fract_x
_atom_site_fract_y
_atom_site_fract_z
Si Si1 0.735609 0.179827 0.337972
Si Si2 0.266641 0.492686 0.628200
Si Si3 0.000000 0.230685 0.425717
Si Si4 0.000000 0.928111 0.291597
Si Si5 0.000000 0.000000 0.500000
Si Si6 0.000000 0.285546 0.098882
Si Si7 0.500000 0.904278 0.378987
O O1 0.750000 0.194675 0.250000
O O2 0.704412 0.090217 0.351645
O O3 0.627172 0.236053 0.374806
O O4 0.872711 0.199352 0.380864
O O5 0.362895 0.523291 0.695716
O O6 0.378592 0.485622 0.562941
O O7 0.140352 0.548717 0.607671
O O8 0.000000 0.323946 0.423447
O O9 0.000000 0.200922 0.510535
O O10 0.000000 0.865513 0.357503
O O11 0.000000 0.889132 0.210552
#
# Coordination Sequence:
#
# PCOD9481617 Si02
#       7
#    16  16   8   8   4   8   8
#     4  12  25  47  73 103 141 188 240 295 352 425
#     4  11  26  43  77 102 144 181 249 290 371 418
#     4  12  28  45  69 107 148 189 238 289 360 427
#     4  11  23  45  71 105 147 191 236 290 364 429
#     4  10  26  44  66 102 146 186 218 302 374 422
#     4  12  28  45  71 105 148 191 236 291 358 421
#     4  12  24  44  72 108 142 185 246 304 343 427
#
# _framework density 22.302707000000002
#
# number of rings (size 3 to 8) (size 9 to 14) (size 15 to 20)
#    0.000    0.471    0.000    8.471    9.882    0.471 
#    0.000    0.000    0.000    0.000    0.000    0.000 
#    0.000    0.000    0.000    0.000    0.000    0.000 
#
# Total GULP energy -189958.664200 kJ/mol
# GULP energy per Si atom -5587.019535 kJ/mol
# Density = 2.225194 g / cm^3
# Si number density = 22.302707 Si / 1000 Ang^3
#
#
#
# Elastic Constant Matrix: (Units=GPa)
#
#
# Indices 1 2 3 4 5 6 
#
# 1 81.1186 12.6146 20.5082 0.0000 0.0000 0.0000
# 2 12.6146 97.5249 -0.5239 0.0000 0.0000 0.0000
# 3 20.5082 -0.5239 156.1671 0.0000 0.0000 0.0000
# 4 0.0000 0.0000 0.0000 -483.0669 0.0000 0.0000
# 5 0.0000 0.0000 0.0000 0.0000 12.3101 0.0000
# 6 0.0000 0.0000 0.0000 0.0000 0.0000 73.4443
#
#
#
# Elastic Compliance Matrix: (Units=1/GPa)
#
#
# Indices 1 2 3 4 5 6 
#
# 1 0.013025 -0.001694 -0.001716 0.000000 0.000000 0.000000
# 2 -0.001694 0.010474 0.000258 0.000000 0.000000 0.000000
# 3 -0.001716 0.000258 0.006630 0.000000 0.000000 0.000000
# 4 0.000000 0.000000 0.000000 -0.002070 0.000000 0.000000
# 5 0.000000 0.000000 0.000000 0.000000 0.081234 0.000000
# 6 0.000000 0.000000 0.000000 0.000000 0.000000 0.013616
#
#
# Mechanical properties :
#
#
# Convention : Reuss Voigt Hill
#
# Bulk Modulus (GPa) = 41.97480 44.44538 43.21009
# Shear Modulus (GPa) = 36.45518 -59.31504 -11.42993
#
# Velocity S-wave (km/s) = 4.04736 -5.16267 -2.26628
# Velocity P-wave (km/s) = 6.37988 3.94539 3.54519
#
# Compressibility (1/GPa) = 0.02382382
#
# Stress axis : x y z
#
# Youngs Moduli (GPa) = 76.77583 95.47195 150.83800
#
# Poissons Ratio (x) = 0.16173 0.25886
# Poissons Ratio (y) = 0.13006 -0.03886
# Poissons Ratio (z) = 0.13176 -0.02459
#
# Static dielectric constant tensor:
#      x y z
#    x 1.717610 0.000000 0.000000 
#    y 0.000000 1.840990 0.000000 
#    z 0.000000 0.000000 1.938540 
# 
# From -- ./inp_files/36427.got.cif
#   From: 2010.05.17/outbox.cif.g08.bks.cpg/sg64_19_cif.got.tgz:36427.got - 2010.06.03 16:29:19.
