data_PCOD9481371
_publ_section_title
;
Structure prediction by ZEFSAII (Michael W. Deem and Ramdas Pophale) SiO2 
 PCOD9481371
Probable space group: C M C A
;
_chemical_formula_sum "Si O2"
_cell_formula_units_Z 112
_cell_length_a 15.190330
_cell_length_b 14.381783
_cell_length_c 25.195637
_cell_angle_alpha 90.000000
_cell_angle_beta 90.000000
_cell_angle_gamma 90.000000
_cell_volume 5504.340391
_symmetry_space_group_name_H-M "C M C A"
_symmetry_group_IT_number 64
_symmetry_cell_setting 'orthorhombic'
loop_
_space_group_symop_operation_xyz
x,y,z
-x,1/2-y,1/2+z
x,-y,-z
-x,1/2+y,1/2-z
-x,-y,-z
x,1/2+y,1/2-z
-x,y,z
x,1/2-y,1/2+z
1/2+x,1/2+y,z
1/2-x,-y,1/2+z
1/2+x,1/2-y,-z
1/2-x,y,1/2-z
1/2-x,1/2-y,-z
1/2+x,y,1/2-z
1/2-x,1/2+y,z
1/2+x,-y,1/2+z
loop_
_atom_site_type_symbol
_atom_site_label
_atom_site_fract_x
_atom_site_fract_y
_atom_site_fract_z
Si Si1 0.661316 0.904381 0.413460
Si Si2 0.264687 0.403556 0.688257
Si Si3 0.246650 0.814099 0.188226
Si Si4 0.604662 0.276399 0.991426
Si Si5 0.150907 0.576539 0.959342
Si Si6 0.598571 0.565838 0.656076
Si Si7 0.598593 0.405015 0.890334
O O1 0.686179 0.868042 0.354523
O O2 0.629656 0.825438 0.453633
O O3 0.750959 0.944167 0.438886
O O4 0.595416 0.989681 0.411337
O O5 0.250000 0.425568 0.750000
O O6 0.283512 0.292999 0.685185
O O7 0.340244 0.475595 0.669227
O O8 0.174618 0.409643 0.654114
O O9 0.250000 0.842343 0.250000
O O10 0.346161 0.841431 0.171154
O O11 0.500000 0.261333 0.990575
O O12 0.651215 0.177924 0.984934
O O13 0.625536 0.339388 0.939684
O O14 0.093269 0.573583 0.906986
O O15 0.120796 0.500000 0.000000
O O16 0.500000 0.560438 0.679040
O O17 0.500000 0.377261 0.872062
#
# Coordination Sequence:
#
# PCOD9481371 Si02
#       7
#    16  16  16  16  16  16  16
#     4  11  22  38  65  94 123 169 219 267 334 396
#     4  11  24  44  68  96 134 173 226 281 340 401
#     4  10  23  45  69  93 131 175 223 280 338 406
#     4  11  24  39  60  95 133 169 219 275 329 407
#     4  11  23  39  62  87 128 174 214 258 334 396
#     4  11  24  43  68  97 132 175 224 277 335 402
#     4  11  22  40  67  96 129 171 219 274 337 405
#
# _framework density 20.347579
#
# number of rings (size 3 to 8) (size 9 to 14) (size 15 to 20)
#    0.000    1.143    2.857    4.714    2.000    4.571 
#    0.000    3.571    0.000    0.000    0.000    0.000 
#    0.000    0.000    0.000    0.000    0.000    0.000 
#
# Total GULP energy -312546.741594 kJ/mol
# GULP energy per Si atom -5581.191814 kJ/mol
# Density = 2.030127 g / cm^3
# Si number density = 20.347579 Si / 1000 Ang^3
#
#
#
# Elastic Constant Matrix: (Units=GPa)
#
#
# Indices 1 2 3 4 5 6 
#
# 1 62.0552 -11.1596 -5.8650 0.0000 0.0000 0.0000
# 2 -11.1596 85.4435 15.6978 0.0000 0.0000 0.0000
# 3 -5.8650 15.6978 104.0530 0.0000 0.0000 0.0000
# 4 0.0000 0.0000 0.0000 34.9017 0.0000 0.0000
# 5 0.0000 0.0000 0.0000 0.0000 7.7292 0.0000
# 6 0.0000 0.0000 0.0000 0.0000 0.0000 24.3503
#
#
#
# Elastic Compliance Matrix: (Units=1/GPa)
#
#
# Indices 1 2 3 4 5 6 
#
# 1 0.016542 0.002046 0.000624 0.000000 0.000000 0.000000
# 2 0.002046 0.012290 -0.001739 0.000000 0.000000 0.000000
# 3 0.000624 -0.001739 0.009908 0.000000 0.000000 0.000000
# 4 0.000000 0.000000 0.000000 0.028652 0.000000 0.000000
# 5 0.000000 0.000000 0.000000 0.000000 0.129380 0.000000
# 6 0.000000 0.000000 0.000000 0.000000 0.000000 0.041067
#
#
# Mechanical properties :
#
#
# Convention : Reuss Voigt Hill
#
# Bulk Modulus (GPa) = 24.62976 27.65537 26.14256
# Shear Modulus (GPa) = 20.03919 30.25480 25.14700
#
# Velocity S-wave (km/s) = 3.14163 3.86022 3.51931
# Velocity P-wave (km/s) = 5.02897 5.78700 5.42125
#
# Compressibility (1/GPa) = 0.04060129
#
# Stress axis : x y z
#
# Youngs Moduli (GPa) = 60.45386 81.36496 100.92886
#
# Poissons Ratio (x) = -0.16646 -0.06295
# Poissons Ratio (y) = -0.12368 0.17550
# Poissons Ratio (z) = -0.03771 0.14148
#
# Static dielectric constant tensor:
#      x y z
#    x 1.843710 0.000000 0.000000 
#    y 0.000000 1.741550 0.000000 
#    z 0.000000 0.000000 1.718100 
# 
# From -- ./inp_files/45289.got.cif
#   From: 2010.05.17/outbox.cif.g08.bks.cpg/sg64_23_cif.got.tgz:45289.got - 2010.06.03 16:29:19.
