data_PCOD9481930
_publ_section_title
;
Structure prediction by ZEFSAII (Michael W. Deem and Ramdas Pophale) SiO2 
 PCOD9481930
Probable space group: C M C A
;
_chemical_formula_sum "Si O2"
_cell_formula_units_Z 56
_cell_length_a 14.782913
_cell_length_b 7.368366
_cell_length_c 20.075502
_cell_angle_alpha 90.000000
_cell_angle_beta 90.000000
_cell_angle_gamma 90.000000
_cell_volume 2186.742395
_symmetry_space_group_name_H-M "C M C A"
_symmetry_group_IT_number 64
_symmetry_cell_setting 'orthorhombic'
loop_
_space_group_symop_operation_xyz
x,y,z
-x,1/2-y,1/2+z
x,-y,-z
-x,1/2+y,1/2-z
-x,-y,-z
x,1/2+y,1/2-z
-x,y,z
x,1/2-y,1/2+z
1/2+x,1/2+y,z
1/2-x,-y,1/2+z
1/2+x,1/2-y,-z
1/2-x,y,1/2-z
1/2-x,1/2-y,-z
1/2+x,y,1/2-z
1/2-x,1/2+y,z
1/2+x,-y,1/2+z
loop_
_atom_site_type_symbol
_atom_site_label
_atom_site_fract_x
_atom_site_fract_y
_atom_site_fract_z
Si Si1 0.855293 0.788655 0.484190
Si Si2 0.150384 0.657258 0.834860
Si Si3 0.000000 0.383247 0.415938
Si Si4 0.362029 0.762476 0.313213
O O1 0.750000 0.750000 0.500000
O O2 0.875584 0.760535 0.405958
O O3 0.921204 0.672473 0.529320
O O4 0.871780 0.000000 0.500000
O O5 0.258509 0.679584 0.825689
O O6 0.126668 0.444224 0.837494
O O7 0.114620 0.732491 0.764975
O O8 0.077117 0.389949 0.357137
#
# Coordination Sequence:
#
# PCOD9481930 Si02
#       4
#    16  16   8  16
#     4  12  24  45  76  98 139 179 229 280 348 400
#     4  11  22  44  69 100 135 188 217 283 341 398
#     4  12  25  42  69 108 130 181 229 285 329 420
#     4  11  24  41  74  96 139 176 239 269 342 404
#
# _framework density 25.60887
#
# number of rings (size 3 to 8) (size 9 to 14) (size 15 to 20)
#    0.000    0.571    5.714    3.857    0.000    2.286 
#    0.000    0.714    0.000    1.714    0.000    0.000 
#    0.000    0.000    0.000    0.000    0.000    0.000 
#
# Total GULP energy -156095.142885 kJ/mol
# GULP energy per Si atom -5574.826532 kJ/mol
# Density = 2.555058 g / cm^3
# Si number density = 25.608870 Si / 1000 Ang^3
#
#
#
# Elastic Constant Matrix: (Units=GPa)
#
#
# Indices 1 2 3 4 5 6 
#
# 1 106.3887 -23.5498 49.7779 0.0000 0.0000 0.0000
# 2 -23.5498 55.5599 31.5963 0.0000 0.0000 0.0000
# 3 49.7779 31.5963 283.3848 0.0000 0.0000 0.0000
# 4 0.0000 0.0000 0.0000 30.0444 0.0000 0.0000
# 5 0.0000 0.0000 0.0000 0.0000 46.9345 0.0000
# 6 0.0000 0.0000 0.0000 0.0000 0.0000 -43.9516
#
#
#
# Elastic Compliance Matrix: (Units=1/GPa)
#
#
# Indices 1 2 3 4 5 6 
#
# 1 0.012289 0.006872 -0.002925 0.000000 0.000000 0.000000
# 2 0.006872 0.023060 -0.003778 0.000000 0.000000 0.000000
# 3 -0.002925 -0.003778 0.004464 0.000000 0.000000 0.000000
# 4 0.000000 0.000000 0.000000 0.033284 0.000000 0.000000
# 5 0.000000 0.000000 0.000000 0.000000 0.021306 0.000000
# 6 0.000000 0.000000 0.000000 0.000000 0.000000 -0.022752
#
#
# Mechanical properties :
#
#
# Convention : Reuss Voigt Hill
#
# Bulk Modulus (GPa) = 24.90563 62.33136 43.61850
# Shear Modulus (GPa) = 59.03403 32.43939 45.73671
#
# Velocity S-wave (km/s) = 4.80648 3.56297 4.23066
# Velocity P-wave (km/s) = 6.36785 6.42798 6.39798
#
# Compressibility (1/GPa) = 0.04015156
#
# Stress axis : x y z
#
# Youngs Moduli (GPa) = 81.37189 43.36474 224.02392
#
# Poissons Ratio (x) = -0.29802 0.65525
# Poissons Ratio (y) = -0.55921 0.84643
# Poissons Ratio (z) = 0.23801 0.16384
#
# Static dielectric constant tensor:
#      x y z
#    x 1.837770 0.000000 0.000000 
#    y 0.000000 2.141210 0.000000 
#    z 0.000000 0.000000 0.594710 
# 
# From -- ./inp_files/38729.got.cif
#   From: 2010.05.17/outbox.cif.g08.bks.cpg/sg64_20_cif.got.tgz:38729.got - 2010.06.03 16:29:19.
