data_PCOD9481264
_publ_section_title
;
Structure prediction by ZEFSAII (Michael W. Deem and Ramdas Pophale) SiO2 
 PCOD9481264
Probable space group: C M C A
;
_chemical_formula_sum "Si O2"
_cell_formula_units_Z 64
_cell_length_a 12.245761
_cell_length_b 28.975010
_cell_length_c 8.355267
_cell_angle_alpha 90.000000
_cell_angle_beta 90.000000
_cell_angle_gamma 90.000000
_cell_volume 2964.624589
_symmetry_space_group_name_H-M "C M C A"
_symmetry_group_IT_number 64
_symmetry_cell_setting 'orthorhombic'
loop_
_space_group_symop_operation_xyz
x,y,z
-x,1/2-y,1/2+z
x,-y,-z
-x,1/2+y,1/2-z
-x,-y,-z
x,1/2+y,1/2-z
-x,y,z
x,1/2-y,1/2+z
1/2+x,1/2+y,z
1/2-x,-y,1/2+z
1/2+x,1/2-y,-z
1/2-x,y,1/2-z
1/2-x,1/2-y,-z
1/2+x,y,1/2-z
1/2-x,1/2+y,z
1/2+x,-y,1/2+z
loop_
_atom_site_type_symbol
_atom_site_label
_atom_site_fract_x
_atom_site_fract_y
_atom_site_fract_z
Si Si1 0.500000 0.493147 0.219906
Si Si2 0.750000 0.238058 0.750000
Si Si3 0.750000 0.037194 0.750000
Si Si4 0.765048 0.097970 0.072872
Si Si5 0.629027 0.689368 0.474360
Si Si6 0.500000 0.915094 0.562958
O O1 0.372294 0.485014 0.272590
O O2 0.500000 0.548780 0.208237
O O3 0.500000 0.454374 0.076716
O O4 0.676009 0.271805 0.643708
O O5 0.828274 0.205844 0.646222
O O6 0.744463 0.065474 0.582044
O O7 0.750000 0.076371 0.250000
O O8 0.683118 0.140308 0.062713
O O9 0.890986 0.114313 0.062809
O O10 0.500000 0.686369 0.466030
#
# Coordination Sequence:
#
# PCOD9481264 Si02
#       6
#     8   8   8  16  16   8
#     4   9  20  43  69  93 136 172 229 270 330 398
#     4  10  23  44  63  96 128 176 218 276 337 404
#     4  10  23  42  65  98 132 180 218 278 329 400
#     4  11  24  41  65  97 133 170 219 270 335 395
#     4  11  23  42  66  96 132 171 224 276 337 408
#     4   9  22  43  65  95 134 174 213 276 332 392
#
# _framework density 21.587893000000001
#
# number of rings (size 3 to 8) (size 9 to 14) (size 15 to 20)
#    0.000    1.750    1.250    1.500    5.250    0.000 
#   15.750    1.250    0.000    0.000    0.000    0.000 
#    0.000    0.000    0.000    0.000    0.000    0.000 
#
# Total GULP energy -178192.071277 kJ/mol
# GULP energy per Si atom -5568.502227 kJ/mol
# Density = 2.153876 g / cm^3
# Si number density = 21.587893 Si / 1000 Ang^3
#
#
#
# Elastic Constant Matrix: (Units=GPa)
#
#
# Indices 1 2 3 4 5 6 
#
# 1 249.7469 62.4749 38.7536 0.0000 0.0000 0.0000
# 2 62.4749 54.6641 25.4417 0.0000 0.0000 0.0000
# 3 38.7536 25.4417 85.0244 0.0000 0.0000 0.0000
# 4 0.0000 0.0000 0.0000 25.4511 0.0000 0.0000
# 5 0.0000 0.0000 0.0000 0.0000 13.9644 0.0000
# 6 0.0000 0.0000 0.0000 0.0000 0.0000 49.5052
#
#
#
# Elastic Compliance Matrix: (Units=1/GPa)
#
#
# Indices 1 2 3 4 5 6 
#
# 1 0.005648 -0.006107 -0.000747 0.000000 0.000000 0.000000
# 2 -0.006107 0.027857 -0.005552 0.000000 0.000000 0.000000
# 3 -0.000747 -0.005552 0.013763 0.000000 0.000000 0.000000
# 4 0.000000 0.000000 0.000000 0.039291 0.000000 0.000000
# 5 0.000000 0.000000 0.000000 0.000000 0.071611 0.000000
# 6 0.000000 0.000000 0.000000 0.000000 0.000000 0.020200
#
#
# Mechanical properties :
#
#
# Convention : Reuss Voigt Hill
#
# Bulk Modulus (GPa) = 44.53137 71.41953 57.97545
# Shear Modulus (GPa) = 23.73416 35.30181 29.51798
#
# Velocity S-wave (km/s) = 3.31935 4.04822 3.70177
# Velocity P-wave (km/s) = 5.94672 7.41659 6.72195
#
# Compressibility (1/GPa) = 0.02245608
#
# Stress axis : x y z
#
# Youngs Moduli (GPa) = 177.06583 35.89731 72.65833
#
# Poissons Ratio (x) = 0.21923 0.05426
# Poissons Ratio (y) = 1.08135 0.40341
# Poissons Ratio (z) = 0.13222 0.19931
#
# Static dielectric constant tensor:
#      x y z
#    x 1.776880 0.000000 0.000000 
#    y 0.000000 1.764250 0.000000 
#    z 0.000000 0.000000 1.731600 
# 
# From -- ./inp_files/4680.got.cif
#   From: 2010.05.17/outbox.cif.g08.bks.cpg/sg64_3_cif.got.tgz:4680.got - 2010.06.03 16:29:19.
