data_PCOD9481717
_publ_section_title
;
Structure prediction by ZEFSAII (Michael W. Deem and Ramdas Pophale) SiO2 
 PCOD9481717
Probable space group: C M C A
;
_chemical_formula_sum "Si O2"
_cell_formula_units_Z 96
_cell_length_a 10.970568
_cell_length_b 24.263020
_cell_length_c 17.250882
_cell_angle_alpha 90.000000
_cell_angle_beta 90.000000
_cell_angle_gamma 90.000000
_cell_volume 4591.824431
_symmetry_space_group_name_H-M "C M C A"
_symmetry_group_IT_number 64
_symmetry_cell_setting 'orthorhombic'
loop_
_space_group_symop_operation_xyz
x,y,z
-x,1/2-y,1/2+z
x,-y,-z
-x,1/2+y,1/2-z
-x,-y,-z
x,1/2+y,1/2-z
-x,y,z
x,1/2-y,1/2+z
1/2+x,1/2+y,z
1/2-x,-y,1/2+z
1/2+x,1/2-y,-z
1/2-x,y,1/2-z
1/2-x,1/2-y,-z
1/2+x,y,1/2-z
1/2-x,1/2+y,z
1/2+x,-y,1/2+z
loop_
_atom_site_type_symbol
_atom_site_label
_atom_site_fract_x
_atom_site_fract_y
_atom_site_fract_z
Si Si1 0.738421 0.135052 0.098529
Si Si2 0.000000 0.063284 0.415801
Si Si3 0.754718 0.581326 0.660582
Si Si4 0.850730 0.739193 0.187720
Si Si5 0.862164 0.170977 0.946238
Si Si6 0.142446 0.021062 0.085518
Si Si7 0.500000 0.559480 0.599539
O O1 0.617671 0.098667 0.100326
O O2 0.710671 0.181251 0.162179
O O3 0.837681 0.085693 0.101709
O O4 0.768935 0.165469 0.017374
O O5 0.000000 0.056117 0.507863
O O6 0.000000 0.004375 0.373938
O O7 0.750000 0.595778 0.750000
O O8 0.844440 0.617761 0.608705
O O9 0.790990 0.517843 0.646979
O O10 0.620094 0.589329 0.627596
O O11 0.750000 0.761445 0.250000
O O12 0.846177 0.777908 0.111665
O O13 0.000000 0.735485 0.208202
O O14 0.000000 0.172240 0.977609
O O15 0.000000 0.009035 0.087603
O O16 0.188556 0.000000 0.000000
#
# Coordination Sequence:
#
# PCOD9481717 Si02
#       7
#    16   8  16  16  16  16   8
#     4  12  22  43  71 101 128 174 224 276 334 396
#     4  11  20  40  66  93 129 171 223 274 319 388
#     4  12  25  39  62  97 136 177 219 273 342 402
#     4  11  27  50  71  99 139 180 227 284 343 403
#     4  11  24  45  69  97 133 174 228 283 334 403
#     4  11  22  40  66  96 134 175 218 271 330 398
#     4  11  22  40  64  93 134 179 219 271 331 404
#
# _framework density 20.906721999999998
#
# number of rings (size 3 to 8) (size 9 to 14) (size 15 to 20)
#    0.000    0.667    5.833    2.000    2.333    2.000 
#    3.000    0.000    0.000    0.000    0.000    0.000 
#    0.000    0.000    0.000    0.000    0.000    0.000 
#
# Total GULP energy -267789.616854 kJ/mol
# GULP energy per Si atom -5578.950351 kJ/mol
# Density = 2.085914 g / cm^3
# Si number density = 20.906722 Si / 1000 Ang^3
#
#
#
# Elastic Constant Matrix: (Units=GPa)
#
#
# Indices 1 2 3 4 5 6 
#
# 1 66.3298 10.0788 4.2721 0.0000 0.0000 0.0000
# 2 10.0788 76.1687 4.8845 0.0000 0.0000 0.0000
# 3 4.2721 4.8845 41.6501 0.0000 0.0000 0.0000
# 4 0.0000 0.0000 0.0000 -39.9382 0.0000 0.0000
# 5 0.0000 0.0000 0.0000 0.0000 114.9407 0.0000
# 6 0.0000 0.0000 0.0000 0.0000 0.0000 37.7542
#
#
#
# Elastic Compliance Matrix: (Units=1/GPa)
#
#
# Indices 1 2 3 4 5 6 
#
# 1 0.015461 -0.001959 -0.001356 0.000000 0.000000 0.000000
# 2 -0.001959 0.013476 -0.001380 0.000000 0.000000 0.000000
# 3 -0.001356 -0.001380 0.024310 0.000000 0.000000 0.000000
# 4 0.000000 0.000000 0.000000 -0.025039 0.000000 0.000000
# 5 0.000000 0.000000 0.000000 0.000000 0.008700 0.000000
# 6 0.000000 0.000000 0.000000 0.000000 0.000000 0.026487
#
#
# Mechanical properties :
#
#
# Convention : Reuss Voigt Hill
#
# Bulk Modulus (GPa) = 22.80038 24.73550 23.76794
# Shear Modulus (GPa) = 57.20472 33.54555 45.37513
#
# Velocity S-wave (km/s) = 5.23653 4.01001 4.66377
# Velocity P-wave (km/s) = 6.89138 5.77038 6.35564
#
# Compressibility (1/GPa) = 0.04385891
#
# Stress axis : x y z
#
# Youngs Moduli (GPa) = 64.67812 74.20363 41.13460
#
# Poissons Ratio (x) = 0.14536 0.05579
# Poissons Ratio (y) = 0.12670 0.05675
# Poissons Ratio (z) = 0.08771 0.10237
#
# Static dielectric constant tensor:
#      x y z
#    x 1.893330 0.000000 0.000000 
#    y 0.000000 1.816780 0.000000 
#    z 0.000000 0.000000 1.749520 
# 
# From -- ./inp_files/31128.got.cif
#   From: 2010.05.17/outbox.cif.g08.bks.cpg/sg64_16_cif.got.tgz:31128.got - 2010.06.03 16:29:19.
