data_PCOD9481150
_publ_section_title
;
Structure prediction by ZEFSAII (Michael W. Deem and Ramdas Pophale) SiO2 
 PCOD9481150
Probable space group: C M C A
;
_chemical_formula_sum "Si O2"
_cell_formula_units_Z 108
_cell_length_a 23.658361
_cell_length_b 9.733399
_cell_length_c 21.470733
_cell_angle_alpha 90.000000
_cell_angle_beta 90.000000
_cell_angle_gamma 90.000000
_cell_volume 4944.200251
_symmetry_space_group_name_H-M "C M C A"
_symmetry_group_IT_number 64
_symmetry_cell_setting 'orthorhombic'
loop_
_space_group_symop_operation_xyz
x,y,z
-x,1/2-y,1/2+z
x,-y,-z
-x,1/2+y,1/2-z
-x,-y,-z
x,1/2+y,1/2-z
-x,y,z
x,1/2-y,1/2+z
1/2+x,1/2+y,z
1/2-x,-y,1/2+z
1/2+x,1/2-y,-z
1/2-x,y,1/2-z
1/2-x,1/2-y,-z
1/2+x,y,1/2-z
1/2-x,1/2+y,z
1/2+x,-y,1/2+z
loop_
_atom_site_type_symbol
_atom_site_label
_atom_site_fract_x
_atom_site_fract_y
_atom_site_fract_z
Si Si1 0.063629 0.021954 0.700930
Si Si2 0.091472 0.444877 0.069515
Si Si3 0.372025 0.189488 0.284789
Si Si4 0.250000 0.581037 0.250000
Si Si5 0.280893 0.333824 0.946323
Si Si6 0.095339 0.365110 0.576528
Si Si7 0.219689 0.068417 0.620931
Si Si8 0.500000 0.500000 0.000000
O O1 0.061709 0.984462 0.627725
O O2 0.105068 0.154073 0.710493
O O3 0.000000 0.056446 0.721607
O O4 0.089493 0.894766 0.737255
O O5 0.070113 0.288026 0.070171
O O6 0.156706 0.450457 0.092674
O O7 0.085489 0.500000 0.000000
O O8 0.307040 0.167677 0.264511
O O9 0.383914 0.121336 0.352398
O O10 0.233225 0.487987 0.189613
O O11 0.346477 0.353363 0.961771
O O12 0.257320 0.479507 0.926134
O O13 0.271365 0.230606 0.887619
O O14 0.250000 0.250000 0.000000
O O15 0.050032 0.470970 0.552224
#
# Coordination Sequence:
#
# PCOD9481150 Si02
#       8
#    16  16  16   8  16  16  16   4
#     4  11  25  46  73 100 140 192 244 294 356 433
#     4  10  22  46  69 100 138 186 237 299 371 428
#     4  11  25  47  73 102 147 190 234 299 366 428
#     4  12  24  44  72 114 148 188 240 296 372 446
#     4  11  23  42  70  99 143 188 232 296 369 431
#     4  10  25  46  67 101 143 192 237 303 361 424
#     4  11  23  40  66 103 144 182 230 294 360 437
#     4  12  28  48  74 100 140 200 258 284 366 434
#
# _framework density 21.843775999999998
#
# number of rings (size 3 to 8) (size 9 to 14) (size 15 to 20)
#    0.000    1.185    2.963    2.667    7.259    2.667 
#    2.667    0.000    0.000    0.000    0.000    0.000 
#    0.000    0.000    0.000    0.000    0.000    0.000 
#
# Total GULP energy -301087.187143 kJ/mol
# GULP energy per Si atom -5575.688651 kJ/mol
# Density = 2.179406 g / cm^3
# Si number density = 21.843776 Si / 1000 Ang^3
#
#
#
# Elastic Constant Matrix: (Units=GPa)
#
#
# Indices 1 2 3 4 5 6 
#
# 1 146.9065 26.8766 40.4932 0.0000 0.0000 0.0000
# 2 26.8766 60.8300 36.9365 0.0000 0.0000 0.0000
# 3 40.4932 36.9365 138.9199 0.0000 0.0000 0.0000
# 4 0.0000 0.0000 0.0000 32.2570 0.0000 0.0000
# 5 0.0000 0.0000 0.0000 0.0000 21.4564 0.0000
# 6 0.0000 0.0000 0.0000 0.0000 0.0000 -1.8537
#
#
#
# Elastic Compliance Matrix: (Units=1/GPa)
#
#
# Indices 1 2 3 4 5 6 
#
# 1 0.007691 -0.002429 -0.001596 0.000000 0.000000 0.000000
# 2 -0.002429 0.020372 -0.004708 0.000000 0.000000 0.000000
# 3 -0.001596 -0.004708 0.008916 0.000000 0.000000 0.000000
# 4 0.000000 0.000000 0.000000 0.031001 0.000000 0.000000
# 5 0.000000 0.000000 0.000000 0.000000 0.046606 0.000000
# 6 0.000000 0.000000 0.000000 0.000000 0.000000 -0.539472
#
#
# Mechanical properties :
#
#
# Convention : Reuss Voigt Hill
#
# Bulk Modulus (GPa) = 51.25260 61.69656 56.47458
# Shear Modulus (GPa) = -12.47146 26.52861 7.02858
#
# Velocity S-wave (km/s) = -2.39202 3.48871 1.79573
# Velocity P-wave (km/s) = 3.98562 6.67337 5.49632
#
# Compressibility (1/GPa) = 0.01951120
#
# Stress axis : x y z
#
# Youngs Moduli (GPa) = 130.01526 49.08816 112.16419
#
# Poissons Ratio (x) = 0.11924 0.17902
# Poissons Ratio (y) = 0.31583 0.52811
# Poissons Ratio (z) = 0.20751 0.23113
#
# Static dielectric constant tensor:
#      x y z
#    x 1.824670 0.000000 0.000000 
#    y 0.000000 1.816960 0.000000 
#    z 0.000000 0.000000 1.850340 
# 
# From -- ./inp_files/41569.got.cif
#   From: 2010.05.17/outbox.cif.g08.bks.cpg/sg64_21_cif.got.tgz:41569.got - 2010.06.03 16:29:19.
