data_PCOD9481387
_publ_section_title
;
Structure prediction by ZEFSAII (Michael W. Deem and Ramdas Pophale) SiO2 
 PCOD9481387
Probable space group: C M C A
;
_chemical_formula_sum "Si O2"
_cell_formula_units_Z 80
_cell_length_a 31.958337
_cell_length_b 11.637324
_cell_length_c 9.948940
_cell_angle_alpha 90.000000
_cell_angle_beta 90.000000
_cell_angle_gamma 90.000000
_cell_volume 3700.105521
_symmetry_space_group_name_H-M "C M C A"
_symmetry_group_IT_number 64
_symmetry_cell_setting 'orthorhombic'
loop_
_space_group_symop_operation_xyz
x,y,z
-x,1/2-y,1/2+z
x,-y,-z
-x,1/2+y,1/2-z
-x,-y,-z
x,1/2+y,1/2-z
-x,y,z
x,1/2-y,1/2+z
1/2+x,1/2+y,z
1/2-x,-y,1/2+z
1/2+x,1/2-y,-z
1/2-x,y,1/2-z
1/2-x,1/2-y,-z
1/2+x,y,1/2-z
1/2-x,1/2+y,z
1/2+x,-y,1/2+z
loop_
_atom_site_type_symbol
_atom_site_label
_atom_site_fract_x
_atom_site_fract_y
_atom_site_fract_z
Si Si1 0.777325 0.620289 0.040789
Si Si2 0.047732 0.802974 0.481143
Si Si3 0.801356 0.192338 0.167956
Si Si4 0.952539 0.005342 0.285266
Si Si5 0.611032 0.611406 0.074360
O O1 0.797549 0.681563 0.171337
O O2 0.730067 0.600824 0.096977
O O3 0.797177 0.500000 0.000000
O O4 0.782517 0.695870 0.906760
O O5 0.047556 0.897763 0.598338
O O6 0.081165 0.702604 0.501241
O O7 0.000000 0.758112 0.468693
O O8 0.057232 0.880569 0.349068
O O9 0.849406 0.178337 0.131677
O O10 0.919455 0.051566 0.181200
O O11 0.000000 0.998950 0.231452
O O12 0.628762 0.500000 0.000000
#
# Coordination Sequence:
#
# PCOD9481387 Si02
#       5
#    16  16  16  16  16
#     4  10  23  47  72  95 134 184 221 276 344 406
#     4   9  21  42  64  87 123 172 217 258 324 393
#     4  10  25  43  68 101 134 173 231 276 333 413
#     4   9  21  42  63  86 124 172 214 262 321 386
#     4  12  26  38  62  99 131 160 215 277 329 391
#
# _framework density 21.621005
#
# number of rings (size 3 to 8) (size 9 to 14) (size 15 to 20)
#    0.000    2.000    0.000    2.400    5.600   11.200 
#    0.000    0.000    0.000    0.000    0.000    0.000 
#    0.000    0.000    0.000    0.000    0.000    0.000 
#
# Total GULP energy -223057.588274 kJ/mol
# GULP energy per Si atom -5576.439707 kJ/mol
# Density = 2.157179 g / cm^3
# Si number density = 21.621005 Si / 1000 Ang^3
#
#
#
# Elastic Constant Matrix: (Units=GPa)
#
#
# Indices 1 2 3 4 5 6 
#
# 1 77.5259 5.6362 -1.3765 0.0000 0.0000 0.0000
# 2 5.6362 70.3707 22.0214 0.0000 0.0000 0.0000
# 3 -1.3765 22.0214 67.4322 0.0000 0.0000 0.0000
# 4 0.0000 0.0000 0.0000 19.5730 0.0000 0.0000
# 5 0.0000 0.0000 0.0000 0.0000 -76.4430 0.0000
# 6 0.0000 0.0000 0.0000 0.0000 0.0000 13.0467
#
#
#
# Elastic Compliance Matrix: (Units=1/GPa)
#
#
# Indices 1 2 3 4 5 6 
#
# 1 0.013002 -0.001252 0.000674 0.000000 0.000000 0.000000
# 2 -0.001252 0.015949 -0.005234 0.000000 0.000000 0.000000
# 3 0.000674 -0.005234 0.016553 0.000000 0.000000 0.000000
# 4 0.000000 0.000000 0.000000 0.051091 0.000000 0.000000
# 5 0.000000 0.000000 0.000000 0.000000 -0.013082 0.000000
# 6 0.000000 0.000000 0.000000 0.000000 0.000000 0.076648
#
#
# Mechanical properties :
#
#
# Convention : Reuss Voigt Hill
#
# Bulk Modulus (GPa) = 29.51641 29.76566 29.64104
# Shear Modulus (GPa) = 27.31089 3.83853 15.57471
#
# Velocity S-wave (km/s) = 3.55796 1.33388 2.68685
# Velocity P-wave (km/s) = 5.52812 4.02109 4.83370
#
# Compressibility (1/GPa) = 0.03387945
#
# Stress axis : x y z
#
# Youngs Moduli (GPa) = 76.91164 62.70123 60.41299
#
# Poissons Ratio (x) = 0.07853 -0.04074
# Poissons Ratio (y) = 0.09632 0.31620
# Poissons Ratio (z) = -0.05187 0.32817
#
# Static dielectric constant tensor:
#      x y z
#    x 1.792170 0.000000 0.000000 
#    y 0.000000 1.809330 0.000000 
#    z 0.000000 0.000000 1.787040 
# 
# From -- ./inp_files/19617.got.cif
#   From: 2010.05.17/outbox.cif.g08.bks.cpg/sg64_10_cif.got.tgz:19617.got - 2010.06.03 16:29:19.
