data_PCOD9481214
_publ_section_title
;
Structure prediction by ZEFSAII (Michael W. Deem and Ramdas Pophale) SiO2 
 PCOD9481214
Probable space group: C M C A
;
_chemical_formula_sum "Si O2"
_cell_formula_units_Z 52
_cell_length_a 14.378892
_cell_length_b 28.675737
_cell_length_c 5.310373
_cell_angle_alpha 90.000000
_cell_angle_beta 90.000000
_cell_angle_gamma 90.000000
_cell_volume 2189.601275
_symmetry_space_group_name_H-M "C M C A"
_symmetry_group_IT_number 64
_symmetry_cell_setting 'orthorhombic'
loop_
_space_group_symop_operation_xyz
x,y,z
-x,1/2-y,1/2+z
x,-y,-z
-x,1/2+y,1/2-z
-x,-y,-z
x,1/2+y,1/2-z
-x,y,z
x,1/2-y,1/2+z
1/2+x,1/2+y,z
1/2-x,-y,1/2+z
1/2+x,1/2-y,-z
1/2-x,y,1/2-z
1/2-x,1/2-y,-z
1/2+x,y,1/2-z
1/2-x,1/2+y,z
1/2+x,-y,1/2+z
loop_
_atom_site_type_symbol
_atom_site_label
_atom_site_fract_x
_atom_site_fract_y
_atom_site_fract_z
Si Si1 0.138375 0.941134 0.755992
Si Si2 0.000000 0.000000 0.500000
Si Si3 0.862295 0.384537 0.246241
Si Si4 0.863293 0.222653 0.751214
O O1 0.250000 0.948309 0.750000
O O2 0.110359 0.909859 0.511778
O O3 0.111503 0.913204 0.006178
O O4 0.081750 0.987579 0.707630
O O5 0.750000 0.383567 0.250000
O O6 0.893413 0.331020 0.254319
O O7 0.892104 0.249556 0.499766
O O8 0.750000 0.222219 0.750000
#
# Coordination Sequence:
#
# PCOD9481214 Si02
#       4
#    16   4  16  16
#     4  10  23  41  63  91 127 165 210 268 327 393
#     4  12  28  46  72 100 124 170 228 278 344 408
#     4   9  18  35  56  85 127 168 204 257 322 377
#     4   9  15  24  46  82 120 158 205 252 296 365
#
# _framework density 23.748615999999998
#
# number of rings (size 3 to 8) (size 9 to 14) (size 15 to 20)
#    0.000    2.462    0.000    1.846    0.000   14.769 
#    0.000    0.000    0.000    0.000    0.000   21.538 
#    0.000    0.000    0.000    0.000    0.000    7.077 
#
# Total GULP energy -145034.447828 kJ/mol
# GULP energy per Si atom -5578.247993 kJ/mol
# Density = 2.369456 g / cm^3
# Si number density = 23.748616 Si / 1000 Ang^3
#
#
#
# Elastic Constant Matrix: (Units=GPa)
#
#
# Indices 1 2 3 4 5 6 
#
# 1 147.8389 17.5104 27.1576 0.0000 0.0000 0.0000
# 2 17.5104 117.8929 93.2603 0.0000 0.0000 0.0000
# 3 27.1576 93.2603 243.9539 0.0000 0.0000 0.0000
# 4 0.0000 0.0000 0.0000 50.1222 0.0000 0.0000
# 5 0.0000 0.0000 0.0000 0.0000 -2.4143 0.0000
# 6 0.0000 0.0000 0.0000 0.0000 0.0000 -28.1113
#
#
#
# Elastic Compliance Matrix: (Units=1/GPa)
#
#
# Indices 1 2 3 4 5 6 
#
# 1 0.006935 -0.000601 -0.000542 0.000000 0.000000 0.000000
# 2 -0.000601 0.012212 -0.004601 0.000000 0.000000 0.000000
# 3 -0.000542 -0.004601 0.005919 0.000000 0.000000 0.000000
# 4 0.000000 0.000000 0.000000 0.019951 0.000000 0.000000
# 5 0.000000 0.000000 0.000000 0.000000 -0.414193 0.000000
# 6 0.000000 0.000000 0.000000 0.000000 0.000000 -0.035573
#
#
# Mechanical properties :
#
#
# Convention : Reuss Voigt Hill
#
# Bulk Modulus (GPa) = 73.66171 87.28249 80.47210
# Shear Modulus (GPa) = -12.86222 28.70314 7.92046
#
# Velocity S-wave (km/s) = -2.32975 3.48030 1.82821
# Velocity P-wave (km/s) = 4.88340 7.27890 6.19798
#
# Compressibility (1/GPa) = 0.01357557
#
# Stress axis : x y z
#
# Youngs Moduli (GPa) = 144.19779 81.88983 168.96042
#
# Poissons Ratio (x) = 0.04922 0.09161
# Poissons Ratio (y) = 0.08668 0.77745
# Poissons Ratio (z) = 0.07819 0.37681
#
# Static dielectric constant tensor:
#      x y z
#    x 1.997820 0.000000 0.000000 
#    y 0.000000 1.937760 0.000000 
#    z 0.000000 0.000000 1.857350 
# 
# From -- ./inp_files/1179.got.cif
#   From: 2010.05.17/outbox.cif.g08.bks.cpg/sg64_1_cif.got.tgz:1179.got - 2010.06.03 16:29:19.
