data_PCOD9481987
_publ_section_title
;
Structure prediction by ZEFSAII (Michael W. Deem and Ramdas Pophale) SiO2 
 PCOD9481987
Probable space group: C M C A
;
_chemical_formula_sum "Si O2"
_cell_formula_units_Z 80
_cell_length_a 16.526393
_cell_length_b 30.479403
_cell_length_c 8.598200
_cell_angle_alpha 90.000000
_cell_angle_beta 90.000000
_cell_angle_gamma 90.000000
_cell_volume 4331.038808
_symmetry_space_group_name_H-M "C M C A"
_symmetry_group_IT_number 64
_symmetry_cell_setting 'orthorhombic'
loop_
_space_group_symop_operation_xyz
x,y,z
-x,1/2-y,1/2+z
x,-y,-z
-x,1/2+y,1/2-z
-x,-y,-z
x,1/2+y,1/2-z
-x,y,z
x,1/2-y,1/2+z
1/2+x,1/2+y,z
1/2-x,-y,1/2+z
1/2+x,1/2-y,-z
1/2-x,y,1/2-z
1/2-x,1/2-y,-z
1/2+x,y,1/2-z
1/2-x,1/2+y,z
1/2+x,-y,1/2+z
loop_
_atom_site_type_symbol
_atom_site_label
_atom_site_fract_x
_atom_site_fract_y
_atom_site_fract_z
Si Si1 0.405769 0.454558 0.554789
Si Si2 0.094291 0.856681 0.551050
Si Si3 0.906313 0.454188 0.571243
Si Si4 0.237957 0.701370 0.933965
Si Si5 0.326233 0.630971 0.135707
O O1 0.366283 0.500000 0.500000
O O2 0.500000 0.455122 0.502820
O O3 0.376304 0.406247 0.505237
O O4 0.405136 0.456615 0.741474
O O5 0.151165 0.819893 0.477658
O O6 0.105312 0.855832 0.738871
O O7 0.000000 0.852136 0.512219
O O8 0.877500 0.500000 0.500000
O O9 0.853260 0.411438 0.539036
O O10 0.000000 0.448034 0.521403
O O11 0.250000 0.701117 0.750000
O O12 0.250000 0.750000 0.000000
O O13 0.300964 0.669913 0.023195
O O14 0.250000 0.621145 0.250000
#
# Coordination Sequence:
#
# PCOD9481987 Si02
#       5
#    16  16  16  16  16
#     4   8  14  26  47  75 106 139 173 214 262 307
#     4   9  18  36  60  84 110 143 186 227 266 319
#     4   9  17  30  49  75 108 143 179 218 260 309
#     4  11  23  41  60  80 109 143 176 222 284 336
#     4   9  18  35  56  77 106 144 181 222 274 324
#
# _framework density 18.471319999999999
#
# number of rings (size 3 to 8) (size 9 to 14) (size 15 to 20)
#    0.000    2.800    0.000    3.600    0.000    1.600 
#    0.000   19.000    0.000    0.000    0.000    0.000 
#    0.000    0.000    0.000    0.000    0.000    0.000 
#
# Total GULP energy -222802.375169 kJ/mol
# GULP energy per Si atom -5570.059379 kJ/mol
# Density = 1.842928 g / cm^3
# Si number density = 18.471320 Si / 1000 Ang^3
#
#
#
# Elastic Constant Matrix: (Units=GPa)
#
#
# Indices 1 2 3 4 5 6 
#
# 1 48.2478 72.9533 28.0160 0.0000 0.0000 0.0000
# 2 72.9533 214.5584 66.0376 0.0000 0.0000 0.0000
# 3 28.0160 66.0376 57.9324 0.0000 0.0000 0.0000
# 4 0.0000 0.0000 0.0000 37.5190 0.0000 0.0000
# 5 0.0000 0.0000 0.0000 0.0000 15.7883 0.0000
# 6 0.0000 0.0000 0.0000 0.0000 0.0000 27.4491
#
#
#
# Elastic Compliance Matrix: (Units=1/GPa)
#
#
# Indices 1 2 3 4 5 6 
#
# 1 0.044209 -0.013019 -0.006539 0.000000 0.000000 0.000000
# 2 -0.013019 0.011014 -0.006259 0.000000 0.000000 0.000000
# 3 -0.006539 -0.006259 0.027558 0.000000 0.000000 0.000000
# 4 0.000000 0.000000 0.000000 0.026653 0.000000 0.000000
# 5 0.000000 0.000000 0.000000 0.000000 0.063338 0.000000
# 6 0.000000 0.000000 0.000000 0.000000 0.000000 0.036431
#
#
# Mechanical properties :
#
#
# Convention : Reuss Voigt Hill
#
# Bulk Modulus (GPa) = 32.10518 72.75024 52.42771
# Shear Modulus (GPa) = 18.43532 26.40004 22.41768
#
# Velocity S-wave (km/s) = 3.16262 3.78464 3.48752
# Velocity P-wave (km/s) = 5.54572 7.65304 6.68297
#
# Compressibility (1/GPa) = 0.03114762
#
# Stress axis : x y z
#
# Youngs Moduli (GPa) = 22.61985 90.79508 36.28735
#
# Poissons Ratio (x) = 1.18209 0.23727
# Poissons Ratio (y) = 0.29449 0.22711
# Poissons Ratio (z) = 0.14790 0.56825
#
# Static dielectric constant tensor:
#      x y z
#    x 1.676820 0.000000 0.000000 
#    y 0.000000 1.661650 0.000000 
#    z 0.000000 0.000000 1.628730 
# 
# From -- ./inp_files/7255.got.cif
#   From: 2010.05.17/outbox.cif.g08.bks.cpg/sg64_4_cif.got.tgz:7255.got - 2010.06.03 16:29:19.
