data_PCOD9481839
_publ_section_title
;
Structure prediction by ZEFSAII (Michael W. Deem and Ramdas Pophale) SiO2 
 PCOD9481839
Probable space group: C M C A
;
_chemical_formula_sum "Si O2"
_cell_formula_units_Z 88
_cell_length_a 25.675695
_cell_length_b 13.885447
_cell_length_c 12.322368
_cell_angle_alpha 90.000000
_cell_angle_beta 90.000000
_cell_angle_gamma 90.000000
_cell_volume 4393.152182
_symmetry_space_group_name_H-M "C M C A"
_symmetry_group_IT_number 64
_symmetry_cell_setting 'orthorhombic'
loop_
_space_group_symop_operation_xyz
x,y,z
-x,1/2-y,1/2+z
x,-y,-z
-x,1/2+y,1/2-z
-x,-y,-z
x,1/2+y,1/2-z
-x,y,z
x,1/2-y,1/2+z
1/2+x,1/2+y,z
1/2-x,-y,1/2+z
1/2+x,1/2-y,-z
1/2-x,y,1/2-z
1/2-x,1/2-y,-z
1/2+x,y,1/2-z
1/2-x,1/2+y,z
1/2+x,-y,1/2+z
loop_
_atom_site_type_symbol
_atom_site_label
_atom_site_fract_x
_atom_site_fract_y
_atom_site_fract_z
Si Si1 0.149783 0.891983 0.821747
Si Si2 0.626531 0.186268 0.720606
Si Si3 0.750000 0.014747 0.750000
Si Si4 0.308231 0.282943 0.026364
Si Si5 0.329068 0.589626 0.577778
Si Si6 0.441212 0.465236 0.124862
O O1 0.129549 0.795822 0.761626
O O2 0.200862 0.944941 0.775210
O O3 0.102079 0.964954 0.825176
O O4 0.169216 0.858272 0.940409
O O5 0.677648 0.179964 0.644737
O O6 0.632444 0.118088 0.824912
O O7 0.579986 0.142994 0.648016
O O8 0.725912 0.071676 0.855707
O O9 0.250000 0.250000 0.000000
O O10 0.334826 0.180693 0.001961
O O11 0.338170 0.500000 0.500000
O O12 0.500000 0.474684 0.167346
O O13 0.442280 0.500000 0.000000
#
# Coordination Sequence:
#
# PCOD9481839 Si02
#       6
#    16  16   8  16  16  16
#     4  11  23  39  63  96 132 172 221 274 337 412
#     4  11  23  42  64  91 133 176 217 275 346 391
#     4  12  22  38  64  98 138 182 208 264 344 406
#     4  11  22  36  56  92 133 172 216 264 325 408
#     4  11  23  36  60  94 131 174 220 262 319 407
#     4  11  24  45  71  95 125 177 239 286 334 401
#
# _framework density 20.031175000000001
#
# number of rings (size 3 to 8) (size 9 to 14) (size 15 to 20)
#    0.000    0.909    3.636    4.364    0.000    4.364 
#    0.000    0.000    0.000    0.545    0.000    0.000 
#    0.000    0.000    0.000    0.000    0.000    0.000 
#
# Total GULP energy -245185.182573 kJ/mol
# GULP energy per Si atom -5572.390513 kJ/mol
# Density = 1.998558 g / cm^3
# Si number density = 20.031175 Si / 1000 Ang^3
#
#
#
# Elastic Constant Matrix: (Units=GPa)
#
#
# Indices 1 2 3 4 5 6 
#
# 1 121.2794 32.5276 6.1218 0.0000 0.0000 0.0000
# 2 32.5276 57.5099 13.6458 0.0000 0.0000 0.0000
# 3 6.1218 13.6458 69.4511 0.0000 0.0000 0.0000
# 4 0.0000 0.0000 0.0000 37.5151 0.0000 0.0000
# 5 0.0000 0.0000 0.0000 0.0000 16.9868 0.0000
# 6 0.0000 0.0000 0.0000 0.0000 0.0000 20.5324
#
#
#
# Elastic Compliance Matrix: (Units=1/GPa)
#
#
# Indices 1 2 3 4 5 6 
#
# 1 0.009724 -0.005555 0.000234 0.000000 0.000000 0.000000
# 2 -0.005555 0.021412 -0.003717 0.000000 0.000000 0.000000
# 3 0.000234 -0.003717 0.015108 0.000000 0.000000 0.000000
# 4 0.000000 0.000000 0.000000 0.026656 0.000000 0.000000
# 5 0.000000 0.000000 0.000000 0.000000 0.058869 0.000000
# 6 0.000000 0.000000 0.000000 0.000000 0.000000 0.048704
#
#
# Mechanical properties :
#
#
# Convention : Reuss Voigt Hill
#
# Bulk Modulus (GPa) = 35.50161 39.20343 37.35252
# Shear Modulus (GPa) = 24.04554 28.06989 26.05771
#
# Velocity S-wave (km/s) = 3.46845 3.74747 3.61065
# Velocity P-wave (km/s) = 5.81393 6.19180 6.00584
#
# Compressibility (1/GPa) = 0.02816774
#
# Stress axis : x y z
#
# Youngs Moduli (GPa) = 102.84326 46.70179 66.18853
#
# Poissons Ratio (x) = 0.25944 -0.01552
# Poissons Ratio (y) = 0.57132 0.24605
# Poissons Ratio (z) = -0.02411 0.17361
#
# Static dielectric constant tensor:
#      x y z
#    x 1.717110 0.000000 0.000000 
#    y 0.000000 1.805980 0.000000 
#    z 0.000000 0.000000 1.839560 
# 
# From -- ./inp_files/18192.got.cif
#   From: 2010.05.17/outbox.cif.g08.bks.cpg/sg64_10_cif.got.tgz:18192.got - 2010.06.03 16:29:19.
