data_PCOD9481153
_publ_section_title
;
Structure prediction by ZEFSAII (Michael W. Deem and Ramdas Pophale) SiO2 
 PCOD9481153
Probable space group: C M C A
;
_chemical_formula_sum "Si O2"
_cell_formula_units_Z 64
_cell_length_a 29.153499
_cell_length_b 7.831282
_cell_length_c 13.544909
_cell_angle_alpha 90.000000
_cell_angle_beta 90.000000
_cell_angle_gamma 90.000000
_cell_volume 3092.428312
_symmetry_space_group_name_H-M "C M C A"
_symmetry_group_IT_number 64
_symmetry_cell_setting 'orthorhombic'
loop_
_space_group_symop_operation_xyz
x,y,z
-x,1/2-y,1/2+z
x,-y,-z
-x,1/2+y,1/2-z
-x,-y,-z
x,1/2+y,1/2-z
-x,y,z
x,1/2-y,1/2+z
1/2+x,1/2+y,z
1/2-x,-y,1/2+z
1/2+x,1/2-y,-z
1/2-x,y,1/2-z
1/2-x,1/2-y,-z
1/2+x,y,1/2-z
1/2-x,1/2+y,z
1/2+x,-y,1/2+z
loop_
_atom_site_type_symbol
_atom_site_label
_atom_site_fract_x
_atom_site_fract_y
_atom_site_fract_z
Si Si1 0.193009 0.031510 0.379952
Si Si2 0.098018 0.650750 0.080513
Si Si3 0.500000 0.834595 0.621726
Si Si4 0.750000 0.780294 0.250000
Si Si5 0.000000 0.568800 0.156110
Si Si6 0.418433 0.000000 0.500000
O O1 0.140615 0.083942 0.355899
O O2 0.226101 0.178541 0.339220
O O3 0.196323 0.000000 0.500000
O O4 0.210213 0.880266 0.309092
O O5 0.046703 0.659875 0.122742
O O6 0.109859 0.842355 0.044794
O O7 0.094272 0.500000 0.000000
O O8 0.500000 0.628760 0.622809
O O9 0.500000 0.918710 0.727767
O O10 0.546282 0.901850 0.571722
#
# Coordination Sequence:
#
# PCOD9481153 Si02
#       6
#    16  16   8   8   8   8
#     4  10  23  44  70 103 134 178 226 283 353 409
#     4  11  23  43  65  95 135 173 219 270 334 405
#     4  11  23  36  61  88 125 182 226 264 329 378
#     4  10  22  46  72  96 138 172 228 292 342 422
#     4  12  22  40  63  93 137 172 219 278 314 402
#     4  11  22  42  60  88 130 176 218 270 328 389
#
# _framework density 20.695709000000001
#
# number of rings (size 3 to 8) (size 9 to 14) (size 15 to 20)
#    0.000    1.250    2.500    4.125    0.000    4.000 
#   20.250    0.000    0.000    0.000    0.000    0.000 
#    0.000    0.000    0.000    0.000    0.000    0.000 
#
# Total GULP energy -178321.130166 kJ/mol
# GULP energy per Si atom -5572.535318 kJ/mol
# Density = 2.064860 g / cm^3
# Si number density = 20.695709 Si / 1000 Ang^3
#
#
#
# Elastic Constant Matrix: (Units=GPa)
#
#
# Indices 1 2 3 4 5 6 
#
# 1 131.8829 27.2790 27.1134 0.0000 0.0000 0.0000
# 2 27.2790 109.4338 26.4759 0.0000 0.0000 0.0000
# 3 27.1134 26.4759 82.1643 0.0000 0.0000 0.0000
# 4 0.0000 0.0000 0.0000 11.9051 0.0000 0.0000
# 5 0.0000 0.0000 0.0000 0.0000 24.2441 0.0000
# 6 0.0000 0.0000 0.0000 0.0000 0.0000 -12.2072
#
#
#
# Elastic Compliance Matrix: (Units=1/GPa)
#
#
# Indices 1 2 3 4 5 6 
#
# 1 0.008366 -0.001537 -0.002265 0.000000 0.000000 0.000000
# 2 -0.001537 0.010193 -0.002777 0.000000 0.000000 0.000000
# 3 -0.002265 -0.002777 0.013813 0.000000 0.000000 0.000000
# 4 0.000000 0.000000 0.000000 0.083997 0.000000 0.000000
# 5 0.000000 0.000000 0.000000 0.000000 0.041247 0.000000
# 6 0.000000 0.000000 0.000000 0.000000 0.000000 -0.081919
#
#
# Mechanical properties :
#
#
# Convention : Reuss Voigt Hill
#
# Bulk Modulus (GPa) = 52.04935 53.91306 52.98120
# Shear Modulus (GPa) = 52.48656 20.96259 36.72457
#
# Velocity S-wave (km/s) = 5.04144 3.18605 4.21705
# Velocity P-wave (km/s) = 7.68717 6.29615 7.02617
#
# Compressibility (1/GPa) = 0.01921254
#
# Stress axis : x y z
#
# Youngs Moduli (GPa) = 119.52841 98.10578 72.39455
#
# Poissons Ratio (x) = 0.15083 0.16400
# Poissons Ratio (y) = 0.18376 0.20105
# Poissons Ratio (z) = 0.27078 0.27246
#
# Static dielectric constant tensor:
#      x y z
#    x 1.763350 0.000000 0.000000 
#    y 0.000000 1.786050 0.000000 
#    z 0.000000 0.000000 1.743560 
# 
# From -- ./inp_files/19531.got.cif
#   From: 2010.05.17/outbox.cif.g08.bks.cpg/sg64_10_cif.got.tgz:19531.got - 2010.06.03 16:29:19.
