data_PCOD9481104
_publ_section_title
;
Structure prediction by ZEFSAII (Michael W. Deem and Ramdas Pophale) SiO2 
 PCOD9481104
Probable space group: C M C A
;
_chemical_formula_sum "Si O2"
_cell_formula_units_Z 56
_cell_length_a 20.031992
_cell_length_b 14.887441
_cell_length_c 7.500553
_cell_angle_alpha 90.000000
_cell_angle_beta 90.000000
_cell_angle_gamma 90.000000
_cell_volume 2236.853161
_symmetry_space_group_name_H-M "C M C A"
_symmetry_group_IT_number 64
_symmetry_cell_setting 'orthorhombic'
loop_
_space_group_symop_operation_xyz
x,y,z
-x,1/2-y,1/2+z
x,-y,-z
-x,1/2+y,1/2-z
-x,-y,-z
x,1/2+y,1/2-z
-x,y,z
x,1/2-y,1/2+z
1/2+x,1/2+y,z
1/2-x,-y,1/2+z
1/2+x,1/2-y,-z
1/2-x,y,1/2-z
1/2-x,1/2-y,-z
1/2+x,y,1/2-z
1/2-x,1/2+y,z
1/2+x,-y,1/2+z
loop_
_atom_site_type_symbol
_atom_site_label
_atom_site_fract_x
_atom_site_fract_y
_atom_site_fract_z
Si Si1 0.170122 0.910902 0.915235
Si Si2 0.107038 0.175979 0.775265
Si Si3 0.572753 0.123549 0.118128
Si Si4 0.750000 0.261697 0.750000
O O1 0.134302 0.921093 0.723357
O O2 0.226278 0.834094 0.899398
O O3 0.109198 0.882321 0.046093
O O4 0.199505 0.000000 0.000000
O O5 0.074078 0.272368 0.814354
O O6 0.082793 0.130480 0.594617
O O7 0.184732 0.201590 0.755064
O O8 0.500000 0.084143 0.157452
#
# Coordination Sequence:
#
# PCOD9481104 Si02
#       4
#    16  16  16   8
#     4  11  26  43  63 102 139 178 220 287 356 405
#     4  11  22  40  71  96 131 174 233 281 344 403
#     4  11  23  41  69  99 130 178 233 279 334 413
#     4  10  22  44  68  96 130 176 226 288 332 414
#
# _framework density 25.035170999999998
#
# number of rings (size 3 to 8) (size 9 to 14) (size 15 to 20)
#    0.000    1.143    5.714    1.714    4.000    4.000 
#    0.000    1.429    0.000    0.000    0.000    0.000 
#    0.000    0.000    0.000    0.000    0.000    0.000 
#
# Total GULP energy -156467.789393 kJ/mol
# GULP energy per Si atom -5588.135335 kJ/mol
# Density = 2.497819 g / cm^3
# Si number density = 25.035171 Si / 1000 Ang^3
#
#
#
# Elastic Constant Matrix: (Units=GPa)
#
#
# Indices 1 2 3 4 5 6 
#
# 1 130.5072 -14.7642 6.8362 0.0000 0.0000 0.0000
# 2 -14.7642 28.4156 0.0893 0.0000 0.0000 0.0000
# 3 6.8362 0.0893 127.0143 0.0000 0.0000 0.0000
# 4 0.0000 0.0000 0.0000 34.3895 0.0000 0.0000
# 5 0.0000 0.0000 0.0000 0.0000 13.3293 0.0000
# 6 0.0000 0.0000 0.0000 0.0000 0.0000 20.2692
#
#
#
# Elastic Compliance Matrix: (Units=1/GPa)
#
#
# Indices 1 2 3 4 5 6 
#
# 1 0.008166 0.004244 -0.000442 0.000000 0.000000 0.000000
# 2 0.004244 0.037398 -0.000255 0.000000 0.000000 0.000000
# 3 -0.000442 -0.000255 0.007897 0.000000 0.000000 0.000000
# 4 0.000000 0.000000 0.000000 0.029079 0.000000 0.000000
# 5 0.000000 0.000000 0.000000 0.000000 0.075023 0.000000
# 6 0.000000 0.000000 0.000000 0.000000 0.000000 0.049336
#
#
# Mechanical properties :
#
#
# Convention : Reuss Voigt Hill
#
# Bulk Modulus (GPa) = 16.51399 30.02884 23.27141
# Shear Modulus (GPa) = 22.72838 33.18264 27.95551
#
# Velocity S-wave (km/s) = 3.01634 3.64461 3.34526
# Velocity P-wave (km/s) = 4.32917 5.45267 4.92307
#
# Compressibility (1/GPa) = 0.06055471
#
# Stress axis : x y z
#
# Youngs Moduli (GPa) = 122.46305 26.73944 126.62834
#
# Poissons Ratio (x) = -0.11349 0.05603
# Poissons Ratio (y) = -0.51975 0.03225
# Poissons Ratio (z) = 0.05419 0.00681
#
# Static dielectric constant tensor:
#      x y z
#    x 1.934300 0.000000 0.000000 
#    y 0.000000 2.019360 0.000000 
#    z 0.000000 0.000000 2.118860 
# 
# From -- ./inp_files/8899.got.cif
#   From: 2010.05.17/outbox.cif.g08.bks.cpg/sg64_5_cif.got.tgz:8899.got - 2010.06.03 16:29:19.
