data_PCOD9481478
_publ_section_title
;
Structure prediction by ZEFSAII (Michael W. Deem and Ramdas Pophale) SiO2 
 PCOD9481478
Probable space group: C M C A
;
_chemical_formula_sum "Si O2"
_cell_formula_units_Z 112
_cell_length_a 13.968460
_cell_length_b 20.470714
_cell_length_c 15.991821
_cell_angle_alpha 90.000000
_cell_angle_beta 90.000000
_cell_angle_gamma 90.000000
_cell_volume 4572.770856
_symmetry_space_group_name_H-M "C M C A"
_symmetry_group_IT_number 64
_symmetry_cell_setting 'orthorhombic'
loop_
_space_group_symop_operation_xyz
x,y,z
-x,1/2-y,1/2+z
x,-y,-z
-x,1/2+y,1/2-z
-x,-y,-z
x,1/2+y,1/2-z
-x,y,z
x,1/2-y,1/2+z
1/2+x,1/2+y,z
1/2-x,-y,1/2+z
1/2+x,1/2-y,-z
1/2-x,y,1/2-z
1/2-x,1/2-y,-z
1/2+x,y,1/2-z
1/2-x,1/2+y,z
1/2+x,-y,1/2+z
loop_
_atom_site_type_symbol
_atom_site_label
_atom_site_fract_x
_atom_site_fract_y
_atom_site_fract_z
Si Si1 0.894107 0.623581 0.293406
Si Si2 0.638348 0.232951 0.726536
Si Si3 0.891653 0.473661 0.862288
Si Si4 0.390590 0.265840 0.535968
Si Si5 0.190620 0.033011 0.922767
Si Si6 0.634967 0.912488 0.255924
Si Si7 0.280164 0.351473 0.957556
O O1 0.897339 0.699261 0.265012
O O2 0.872163 0.579387 0.211807
O O3 0.822591 0.619834 0.371710
O O4 0.000000 0.604308 0.322350
O O5 0.750000 0.234258 0.750000
O O6 0.618143 0.235386 0.628049
O O7 0.602112 0.161688 0.752180
O O8 0.709885 0.490721 0.590422
O O9 0.902629 0.542790 0.816600
O O10 0.000000 0.458232 0.898776
O O11 0.500000 0.275711 0.512760
O O12 0.338928 0.215852 0.472965
O O13 0.330768 0.332052 0.545991
O O14 0.126139 0.046998 0.842209
O O15 0.212184 0.104339 0.960495
O O16 0.136775 0.000000 0.000000
O O17 0.750000 0.909888 0.250000
#
# Coordination Sequence:
#
# PCOD9481478 Si02
#       7
#    16  16  16  16  16  16  16
#     4  11  24  43  69 104 141 185 236 290 351 420
#     4  11  21  40  69  99 134 180 232 287 347 416
#     4  10  24  43  66  99 137 176 230 288 341 415
#     4  11  24  42  67 100 137 176 225 285 350 422
#     4  11  23  41  66  92 129 179 225 278 345 415
#     4   9  20  40  64  93 126 173 229 274 335 406
#     4  11  24  44  68  99 139 181 226 284 354 423
#
# _framework density 24.492808
#
# number of rings (size 3 to 8) (size 9 to 14) (size 15 to 20)
#    0.000    1.429    2.857    1.714    2.000    3.714 
#    0.000    0.000    0.000    3.000    0.000    2.000 
#    0.000    0.000    0.000    0.000    0.000    0.000 
#
# Total GULP energy -312712.277784 kJ/mol
# GULP energy per Si atom -5584.147818 kJ/mol
# Density = 2.443706 g / cm^3
# Si number density = 24.492808 Si / 1000 Ang^3
#
#
#
# Elastic Constant Matrix: (Units=GPa)
#
#
# Indices 1 2 3 4 5 6 
#
# 1 132.4714 26.5805 -2.3243 0.0000 0.0000 0.0000
# 2 26.5805 76.5223 23.3091 0.0000 0.0000 0.0000
# 3 -2.3243 23.3091 51.2688 0.0000 0.0000 0.0000
# 4 0.0000 0.0000 0.0000 48.5497 0.0000 0.0000
# 5 0.0000 0.0000 0.0000 0.0000 6.7255 0.0000
# 6 0.0000 0.0000 0.0000 0.0000 0.0000 -32.0670
#
#
#
# Elastic Compliance Matrix: (Units=1/GPa)
#
#
# Indices 1 2 3 4 5 6 
#
# 1 0.008280 -0.003471 0.001953 0.000000 0.000000 0.000000
# 2 -0.003471 0.016624 -0.007715 0.000000 0.000000 0.000000
# 3 0.001953 -0.007715 0.023101 0.000000 0.000000 0.000000
# 4 0.000000 0.000000 0.000000 0.020597 0.000000 0.000000
# 5 0.000000 0.000000 0.000000 0.000000 0.148687 0.000000
# 6 0.000000 0.000000 0.000000 0.000000 0.000000 -0.031185
#
#
# Mechanical properties :
#
#
# Convention : Reuss Voigt Hill
#
# Bulk Modulus (GPa) = 33.85353 39.48809 36.67081
# Shear Modulus (GPa) = 23.31912 18.82148 21.07030
#
# Velocity S-wave (km/s) = 3.08893 2.77510 2.93621
# Velocity P-wave (km/s) = 5.15498 5.14058 5.14778
#
# Compressibility (1/GPa) = 0.02953902
#
# Stress axis : x y z
#
# Youngs Moduli (GPa) = 120.77989 60.15448 43.28755
#
# Poissons Ratio (x) = 0.20879 -0.08456
# Poissons Ratio (y) = 0.41922 0.33398
# Poissons Ratio (z) = -0.23593 0.46411
#
# Static dielectric constant tensor:
#      x y z
#    x 2.224750 0.000000 0.000000 
#    y 0.000000 1.976240 0.000000 
#    z 0.000000 0.000000 1.886260 
# 
# From -- ./inp_files/24217.got.cif
#   From: 2010.05.17/outbox.cif.g08.bks.cpg/sg64_13_cif.got.tgz:24217.got - 2010.06.03 16:29:19.
