data_PCOD9481385
_publ_section_title
;
Structure prediction by ZEFSAII (Michael W. Deem and Ramdas Pophale) SiO2 
 PCOD9481385
Probable space group: C M C A
;
_chemical_formula_sum "Si O2"
_cell_formula_units_Z 44
_cell_length_a 13.338103
_cell_length_b 26.567309
_cell_length_c 4.929818
_cell_angle_alpha 90.000000
_cell_angle_beta 90.000000
_cell_angle_gamma 90.000000
_cell_volume 1746.918001
_symmetry_space_group_name_H-M "C M C A"
_symmetry_group_IT_number 64
_symmetry_cell_setting 'orthorhombic'
loop_
_space_group_symop_operation_xyz
x,y,z
-x,1/2-y,1/2+z
x,-y,-z
-x,1/2+y,1/2-z
-x,-y,-z
x,1/2+y,1/2-z
-x,y,z
x,1/2-y,1/2+z
1/2+x,1/2+y,z
1/2-x,-y,1/2+z
1/2+x,1/2-y,-z
1/2-x,y,1/2-z
1/2-x,1/2-y,-z
1/2+x,y,1/2-z
1/2-x,1/2+y,z
1/2+x,-y,1/2+z
loop_
_atom_site_type_symbol
_atom_site_label
_atom_site_fract_x
_atom_site_fract_y
_atom_site_fract_z
Si Si1 0.386338 0.947399 0.588397
Si Si2 0.750000 0.138031 0.250000
Si Si3 0.500000 0.000000 0.000000
Si Si4 0.882203 0.283462 0.065780
O O1 0.500000 0.947146 0.451562
O O2 0.322208 0.898105 0.573655
O O3 0.338643 0.000000 0.500000
O O4 0.414283 0.959249 0.898453
O O5 0.817530 0.171878 0.445810
O O6 0.863434 0.235040 0.870650
O O7 0.000000 0.295847 0.040234
#
# Coordination Sequence:
#
# PCOD9481385 Si02
#       4
#    16   8   4  16
#     4   9  21  40  56  85 126 161 204 247 306 365
#     4  12  22  38  64  96 118 160 220 256 312 374
#     4   8  18  44  56  78 126 172 194 256 308 358
#     4  10  23  47  66  92 130 164 205 266 322 377
#
# _framework density 25.187214000000001
#
# number of rings (size 3 to 8) (size 9 to 14) (size 15 to 20)
#    1.091    1.091    0.000    2.182    2.545    0.000 
#   13.091    0.000    0.000    0.000    0.000    0.000 
#    0.000    0.000    0.000    0.000    0.000    0.000 
#
# Total GULP energy -122497.318188 kJ/mol
# GULP energy per Si atom -5568.059918 kJ/mol
# Density = 2.512989 g / cm^3
# Si number density = 25.187214 Si / 1000 Ang^3
#
#
#
# Elastic Constant Matrix: (Units=GPa)
#
#
# Indices 1 2 3 4 5 6 
#
# 1 119.6827 83.7504 18.0550 0.0000 0.0000 0.0000
# 2 83.7504 142.1862 10.5354 0.0000 0.0000 0.0000
# 3 18.0550 10.5354 73.1298 0.0000 0.0000 0.0000
# 4 0.0000 0.0000 0.0000 31.3429 0.0000 0.0000
# 5 0.0000 0.0000 0.0000 0.0000 30.9664 0.0000
# 6 0.0000 0.0000 0.0000 0.0000 0.0000 62.8783
#
#
#
# Elastic Compliance Matrix: (Units=1/GPa)
#
#
# Indices 1 2 3 4 5 6 
#
# 1 0.014617 -0.008433 -0.002394 0.000000 0.000000 0.000000
# 2 -0.008433 0.011974 0.000357 0.000000 0.000000 0.000000
# 3 -0.002394 0.000357 0.014214 0.000000 0.000000 0.000000
# 4 0.000000 0.000000 0.000000 0.031905 0.000000 0.000000
# 5 0.000000 0.000000 0.000000 0.000000 0.032293 0.000000
# 6 0.000000 0.000000 0.000000 0.000000 0.000000 0.015904
#
#
# Mechanical properties :
#
#
# Convention : Reuss Voigt Hill
#
# Bulk Modulus (GPa) = 50.33831 62.18668 56.26249
# Shear Modulus (GPa) = 33.67727 39.88137 36.77932
#
# Velocity S-wave (km/s) = 3.66057 3.98351 3.82545
# Velocity P-wave (km/s) = 6.15593 6.77504 6.47289
#
# Compressibility (1/GPa) = 0.01986559
#
# Stress axis : x y z
#
# Youngs Moduli (GPa) = 68.41137 83.51758 70.35338
#
# Poissons Ratio (x) = 0.70427 0.16843
# Poissons Ratio (y) = 0.57688 -0.02511
# Poissons Ratio (z) = 0.16378 -0.02981
#
# Static dielectric constant tensor:
#      x y z
#    x 2.035050 0.000000 0.000000 
#    y 0.000000 1.907320 0.000000 
#    z 0.000000 0.000000 2.039090 
# 
# From -- ./inp_files/692.got.cif
#   From: 2010.05.17/outbox.cif.g08.bks.cpg/sg64_1_cif.got.tgz:692.got - 2010.06.03 16:29:19.
