data_PCOD9481841
_publ_section_title
;
Structure prediction by ZEFSAII (Michael W. Deem and Ramdas Pophale) SiO2 
 PCOD9481841
Probable space group: C M C A
;
_chemical_formula_sum "Si O2"
_cell_formula_units_Z 88
_cell_length_a 24.221222
_cell_length_b 15.354580
_cell_length_c 9.870383
_cell_angle_alpha 90.000000
_cell_angle_beta 90.000000
_cell_angle_gamma 90.000000
_cell_volume 3670.861479
_symmetry_space_group_name_H-M "C M C A"
_symmetry_group_IT_number 64
_symmetry_cell_setting 'orthorhombic'
loop_
_space_group_symop_operation_xyz
x,y,z
-x,1/2-y,1/2+z
x,-y,-z
-x,1/2+y,1/2-z
-x,-y,-z
x,1/2+y,1/2-z
-x,y,z
x,1/2-y,1/2+z
1/2+x,1/2+y,z
1/2-x,-y,1/2+z
1/2+x,1/2-y,-z
1/2-x,y,1/2-z
1/2-x,1/2-y,-z
1/2+x,y,1/2-z
1/2-x,1/2+y,z
1/2+x,-y,1/2+z
loop_
_atom_site_type_symbol
_atom_site_label
_atom_site_fract_x
_atom_site_fract_y
_atom_site_fract_z
Si Si1 0.415590 0.320376 0.357258
Si Si2 0.708847 0.158447 0.863850
Si Si3 0.000000 0.113902 0.876633
Si Si4 0.403212 0.115059 0.397060
Si Si5 0.277146 0.369216 0.888643
Si Si6 0.564275 0.430328 0.604946
O O1 0.354417 0.355686 0.334083
O O2 0.453386 0.359390 0.240491
O O3 0.413872 0.216096 0.355374
O O4 0.432590 0.343744 0.512735
O O5 0.750000 0.127373 0.750000
O O6 0.715586 0.263821 0.874798
O O7 0.730291 0.116918 0.000837
O O8 0.049870 0.096624 0.991190
O O9 0.338639 0.101910 0.432997
O O10 0.410523 0.068278 0.252469
O O11 0.250000 0.402026 0.750000
O O12 0.587694 0.500000 0.500000
O O13 0.500000 0.450992 0.628114
#
# Coordination Sequence:
#
# PCOD9481841 Si02
#       6
#    16  16   8  16  16  16
#     4  11  22  36  60  89 123 164 205 258 315 374
#     4   9  17  31  51  81 119 153 193 246 304 360
#     4  12  22  32  53  88 119 148 202 266 308 348
#     4  11  22  36  60  92 124 159 210 268 310 369
#     4   9  17  31  52  81 115 155 202 249 300 358
#     4  11  24  43  60  83 125 172 207 246 320 396
#
# _framework density 23.972574999999999
#
# number of rings (size 3 to 8) (size 9 to 14) (size 15 to 20)
#    0.000    1.636    1.818    3.818    2.545    5.818 
#    0.000    1.818    0.000    3.273    0.000    0.000 
#    0.000    0.000    0.000    0.000    0.000    0.000 
#
# Total GULP energy -244961.144519 kJ/mol
# GULP energy per Si atom -5567.298739 kJ/mol
# Density = 2.391801 g / cm^3
# Si number density = 23.972575 Si / 1000 Ang^3
#
#
#
# Elastic Constant Matrix: (Units=GPa)
#
#
# Indices 1 2 3 4 5 6 
#
# 1 230.6296 19.3162 88.1182 0.0000 0.0000 0.0000
# 2 19.3162 56.8404 11.6121 0.0000 0.0000 0.0000
# 3 88.1182 11.6121 149.7131 0.0000 0.0000 0.0000
# 4 0.0000 0.0000 0.0000 7.7626 0.0000 0.0000
# 5 0.0000 0.0000 0.0000 0.0000 33.5300 0.0000
# 6 0.0000 0.0000 0.0000 0.0000 0.0000 -6.6097
#
#
#
# Elastic Compliance Matrix: (Units=1/GPa)
#
#
# Indices 1 2 3 4 5 6 
#
# 1 0.005682 -0.001268 -0.003246 0.000000 0.000000 0.000000
# 2 -0.001268 0.018159 -0.000662 0.000000 0.000000 0.000000
# 3 -0.003246 -0.000662 0.008641 0.000000 0.000000 0.000000
# 4 0.000000 0.000000 0.000000 0.128822 0.000000 0.000000
# 5 0.000000 0.000000 0.000000 0.000000 0.029824 0.000000
# 6 0.000000 0.000000 0.000000 0.000000 0.000000 -0.151293
#
#
# Mechanical properties :
#
#
# Convention : Reuss Voigt Hill
#
# Bulk Modulus (GPa) = 45.18650 75.03066 60.10858
# Shear Modulus (GPa) = 86.85668 28.14571 57.50120
#
# Velocity S-wave (km/s) = 6.02581 3.43020 4.90289
# Velocity P-wave (km/s) = 8.20390 6.85965 7.56171
#
# Compressibility (1/GPa) = 0.02213050
#
# Stress axis : x y z
#
# Youngs Moduli (GPa) = 175.98011 55.06830 115.72092
#
# Poissons Ratio (x) = 0.06982 0.37566
# Poissons Ratio (y) = 0.22312 0.07663
# Poissons Ratio (z) = 0.57127 0.03647
#
# Static dielectric constant tensor:
#      x y z
#    x 1.862940 0.000000 0.000000 
#    y 0.000000 2.075930 0.000000 
#    z 0.000000 0.000000 1.884030 
# 
# From -- ./inp_files/9326.got.cif
#   From: 2010.05.17/outbox.cif.g08.bks.cpg/sg64_5_cif.got.tgz:9326.got - 2010.06.03 16:29:19.
