data_PCOD9481365
_publ_section_title
;
Structure prediction by ZEFSAII (Michael W. Deem and Ramdas Pophale) SiO2 
 PCOD9481365
Probable space group: C M C A
;
_chemical_formula_sum "Si O2"
_cell_formula_units_Z 60
_cell_length_a 32.052589
_cell_length_b 5.357611
_cell_length_c 14.854813
_cell_angle_alpha 90.000000
_cell_angle_beta 90.000000
_cell_angle_gamma 90.000000
_cell_volume 2550.947269
_symmetry_space_group_name_H-M "C M C A"
_symmetry_group_IT_number 64
_symmetry_cell_setting 'orthorhombic'
loop_
_space_group_symop_operation_xyz
x,y,z
-x,1/2-y,1/2+z
x,-y,-z
-x,1/2+y,1/2-z
-x,-y,-z
x,1/2+y,1/2-z
-x,y,z
x,1/2-y,1/2+z
1/2+x,1/2+y,z
1/2-x,-y,1/2+z
1/2+x,1/2-y,-z
1/2-x,y,1/2-z
1/2-x,1/2-y,-z
1/2+x,y,1/2-z
1/2-x,1/2+y,z
1/2+x,-y,1/2+z
loop_
_atom_site_type_symbol
_atom_site_label
_atom_site_fract_x
_atom_site_fract_y
_atom_site_fract_z
Si Si1 0.000000 0.121289 0.804906
Si Si2 0.267681 0.756441 0.102403
Si Si3 0.069546 0.864251 0.914813
Si Si4 0.500000 0.000000 0.000000
Si Si5 0.647706 0.184227 0.808435
O O1 0.000000 0.400559 0.768331
O O2 0.041527 0.070765 0.862694
O O3 0.254672 0.494851 0.144772
O O4 0.316740 0.791388 0.115293
O O5 0.250000 0.750000 0.000000
O O6 0.102559 0.728311 0.852088
O O7 0.036039 0.671061 0.951681
O O8 0.090549 0.000000 0.000000
O O9 0.652308 0.415580 0.738843
#
# Coordination Sequence:
#
# PCOD9481365 Si02
#       5
#     8  16  16   4  16
#     4  11  24  43  70  98 142 185 234 297 365 425
#     4  10  23  44  75 107 143 194 243 291 364 445
#     4  11  27  44  74 104 146 194 250 302 365 445
#     4  10  24  44  72 102 136 194 252 296 350 440
#     4  12  28  48  74 111 152 192 243 312 377 437
#
# _framework density 23.520675000000001
#
# number of rings (size 3 to 8) (size 9 to 14) (size 15 to 20)
#    0.000    1.067    0.000    4.800   14.933    5.333 
#    0.000    0.000    0.000    0.000    0.000    0.000 
#    0.000    0.000    0.000    0.000    0.000    0.000 
#
# Total GULP energy -167446.138950 kJ/mol
# GULP energy per Si atom -5581.537965 kJ/mol
# Density = 2.346714 g / cm^3
# Si number density = 23.520675 Si / 1000 Ang^3
#
#
#
# Elastic Constant Matrix: (Units=GPa)
#
#
# Indices 1 2 3 4 5 6 
#
# 1 107.7037 -11.2732 11.8969 0.0000 0.0000 0.0000
# 2 -11.2732 124.5913 10.7540 0.0000 0.0000 0.0000
# 3 11.8969 10.7540 75.0714 0.0000 0.0000 0.0000
# 4 0.0000 0.0000 0.0000 27.8772 0.0000 0.0000
# 5 0.0000 0.0000 0.0000 0.0000 40.5086 0.0000
# 6 0.0000 0.0000 0.0000 0.0000 0.0000 93.5605
#
#
#
# Elastic Compliance Matrix: (Units=1/GPa)
#
#
# Indices 1 2 3 4 5 6 
#
# 1 0.009574 0.001010 -0.001662 0.000000 0.000000 0.000000
# 2 0.001010 0.008233 -0.001339 0.000000 0.000000 0.000000
# 3 -0.001662 -0.001339 0.013776 0.000000 0.000000 0.000000
# 4 0.000000 0.000000 0.000000 0.035872 0.000000 0.000000
# 5 0.000000 0.000000 0.000000 0.000000 0.024686 0.000000
# 6 0.000000 0.000000 0.000000 0.000000 0.000000 0.010688
#
#
# Mechanical properties :
#
#
# Convention : Reuss Voigt Hill
#
# Bulk Modulus (GPa) = 36.23200 36.68020 36.45610
# Shear Modulus (GPa) = 43.09892 52.12186 47.61039
#
# Velocity S-wave (km/s) = 4.28528 4.71255 4.50398
# Velocity P-wave (km/s) = 6.31843 6.72604 6.52542
#
# Compressibility (1/GPa) = 0.02759991
#
# Stress axis : x y z
#
# Youngs Moduli (GPa) = 104.44966 121.45924 72.59063
#
# Poissons Ratio (x) = -0.12264 0.12064
# Poissons Ratio (y) = -0.10546 0.09723
# Poissons Ratio (z) = 0.17358 0.16269
#
# Static dielectric constant tensor:
#      x y z
#    x 1.821860 0.000000 0.000000 
#    y 0.000000 1.884430 0.000000 
#    z 0.000000 0.000000 1.958160 
# 
# From -- ./inp_files/35269.got.cif
#   From: 2010.05.17/outbox.cif.g08.bks.cpg/sg64_18_cif.got.tgz:35269.got - 2010.06.03 16:29:19.
