data_PCOD9481629
_publ_section_title
;
Structure prediction by ZEFSAII (Michael W. Deem and Ramdas Pophale) SiO2 
 PCOD9481629
Probable space group: C M C A
;
_chemical_formula_sum "Si O2"
_cell_formula_units_Z 64
_cell_length_a 16.916143
_cell_length_b 9.175589
_cell_length_c 17.639103
_cell_angle_alpha 90.000000
_cell_angle_beta 90.000000
_cell_angle_gamma 90.000000
_cell_volume 2737.863526
_symmetry_space_group_name_H-M "C M C A"
_symmetry_group_IT_number 64
_symmetry_cell_setting 'orthorhombic'
loop_
_space_group_symop_operation_xyz
x,y,z
-x,1/2-y,1/2+z
x,-y,-z
-x,1/2+y,1/2-z
-x,-y,-z
x,1/2+y,1/2-z
-x,y,z
x,1/2-y,1/2+z
1/2+x,1/2+y,z
1/2-x,-y,1/2+z
1/2+x,1/2-y,-z
1/2-x,y,1/2-z
1/2-x,1/2-y,-z
1/2+x,y,1/2-z
1/2-x,1/2+y,z
1/2+x,-y,1/2+z
loop_
_atom_site_type_symbol
_atom_site_label
_atom_site_fract_x
_atom_site_fract_y
_atom_site_fract_z
Si Si1 0.168476 0.327388 0.663738
Si Si2 0.500000 0.031126 0.848678
Si Si3 0.134722 0.854372 0.462715
Si Si4 0.250000 0.579967 0.750000
Si Si5 0.000000 0.972991 0.821619
Si Si6 0.500000 0.740128 0.927295
O O1 0.187929 0.261713 0.581199
O O2 0.219660 0.469048 0.685839
O O3 0.185034 0.193834 0.720964
O O4 0.078601 0.377944 0.671292
O O5 0.424901 0.087041 0.896568
O O6 0.500000 0.055355 0.759277
O O7 0.500000 0.856812 0.859479
O O8 0.077117 0.774891 0.522337
O O9 0.169874 0.000000 0.500000
O O10 0.000000 0.082654 0.891841
#
# Coordination Sequence:
#
# PCOD9481629 Si02
#       6
#    16   8  16   8   8   8
#     4  11  24  44  72  98 141 179 227 284 345 408
#     4   9  19  33  60 106 141 167 211 289 353 380
#     4   9  19  41  64  95 143 181 216 277 353 400
#     4  10  26  48  66 102 146 180 218 290 354 406
#     4  12  24  36  77 111 127 171 251 285 335 393
#     4   9  21  37  62 104 147 169 217 303 341 394
#
# _framework density 23.375892
#
# number of rings (size 3 to 8) (size 9 to 14) (size 15 to 20)
#    0.000    2.000    0.000    4.500    7.000    2.000 
#    4.500    1.250    0.000    0.000    0.000    0.000 
#    0.000    0.000    0.000    0.000    0.000    0.000 
#
# Total GULP energy -178948.337690 kJ/mol
# GULP energy per Si atom -5592.135553 kJ/mol
# Density = 2.332269 g / cm^3
# Si number density = 23.375892 Si / 1000 Ang^3
#
#
#
# Elastic Constant Matrix: (Units=GPa)
#
#
# Indices 1 2 3 4 5 6 
#
# 1 55.5815 63.1036 14.9174 0.0000 0.0000 0.0000
# 2 63.1036 192.1826 72.7822 0.0000 0.0000 0.0000
# 3 14.9174 72.7822 109.9949 0.0000 0.0000 0.0000
# 4 0.0000 0.0000 0.0000 37.1268 0.0000 0.0000
# 5 0.0000 0.0000 0.0000 0.0000 102.4062 0.0000
# 6 0.0000 0.0000 0.0000 0.0000 0.0000 8.0608
#
#
#
# Elastic Compliance Matrix: (Units=1/GPa)
#
#
# Indices 1 2 3 4 5 6 
#
# 1 0.029513 -0.010909 0.003215 0.000000 0.000000 0.000000
# 2 -0.010909 0.010975 -0.005783 0.000000 0.000000 0.000000
# 3 0.003215 -0.005783 0.012482 0.000000 0.000000 0.000000
# 4 0.000000 0.000000 0.000000 0.026935 0.000000 0.000000
# 5 0.000000 0.000000 0.000000 0.000000 0.009765 0.000000
# 6 0.000000 0.000000 0.000000 0.000000 0.000000 0.124057
#
#
# Mechanical properties :
#
#
# Convention : Reuss Voigt Hill
#
# Bulk Modulus (GPa) = 38.43401 73.26282 55.84841
# Shear Modulus (GPa) = 20.05199 43.31582 31.68391
#
# Velocity S-wave (km/s) = 2.93201 4.30933 3.68558
# Velocity P-wave (km/s) = 5.28580 7.49464 6.48496
#
# Compressibility (1/GPa) = 0.02601862
#
# Stress axis : x y z
#
# Youngs Moduli (GPa) = 33.88282 91.11401 80.11766
#
# Poissons Ratio (x) = 0.99392 -0.25762
# Poissons Ratio (y) = 0.36961 0.46330
# Poissons Ratio (z) = -0.10895 0.52689
#
# Static dielectric constant tensor:
#      x y z
#    x 1.902350 0.000000 0.000000 
#    y 0.000000 1.897050 0.000000 
#    z 0.000000 0.000000 1.897940 
# 
# From -- ./inp_files/33922.got.cif
#   From: 2010.05.17/outbox.cif.g08.bks.cpg/sg64_17_cif.got.tgz:33922.got - 2010.06.03 16:29:19.
