data_PCOD9481664
_publ_section_title
;
Structure prediction by ZEFSAII (Michael W. Deem and Ramdas Pophale) SiO2 
 PCOD9481664
Probable space group: C M C A
;
_chemical_formula_sum "Si O2"
_cell_formula_units_Z 48
_cell_length_a 17.990772
_cell_length_b 9.233769
_cell_length_c 10.510489
_cell_angle_alpha 90.000000
_cell_angle_beta 90.000000
_cell_angle_gamma 90.000000
_cell_volume 1746.030104
_symmetry_space_group_name_H-M "C M C A"
_symmetry_group_IT_number 64
_symmetry_cell_setting 'orthorhombic'
loop_
_space_group_symop_operation_xyz
x,y,z
-x,1/2-y,1/2+z
x,-y,-z
-x,1/2+y,1/2-z
-x,-y,-z
x,1/2+y,1/2-z
-x,y,z
x,1/2-y,1/2+z
1/2+x,1/2+y,z
1/2-x,-y,1/2+z
1/2+x,1/2-y,-z
1/2-x,y,1/2-z
1/2-x,1/2-y,-z
1/2+x,y,1/2-z
1/2-x,1/2+y,z
1/2+x,-y,1/2+z
loop_
_atom_site_type_symbol
_atom_site_label
_atom_site_fract_x
_atom_site_fract_y
_atom_site_fract_z
Si Si1 0.500000 0.170553 0.073850
Si Si2 0.750000 0.654433 0.250000
Si Si3 0.500000 0.993015 0.315273
Si Si4 0.759125 0.000000 0.000000
Si Si5 0.125870 0.700922 0.425598
O O1 0.500000 0.039047 0.169627
O O2 0.500000 0.323056 0.154757
O O3 0.426262 0.182337 0.989059
O O4 0.723378 0.553288 0.369070
O O5 0.820230 0.738141 0.308520
O O6 0.570581 0.075367 0.376361
O O7 0.815455 0.866044 0.025678
#
# Coordination Sequence:
#
# PCOD9481664 Si02
#       5
#     8   8   8   8  16
#     4  11  19  35  64  94 127 171 213 260 333 387
#     4   8  14  30  62  90 116 158 230 262 326 370
#     4  11  19  35  64  89 127 167 213 264 326 387
#     4   8  14  29  66  87 114 164 220 268 314 385
#     4   9  17  36  62  86 118 175 213 262 329 387
#
# _framework density 27.490932999999998
#
# number of rings (size 3 to 8) (size 9 to 14) (size 15 to 20)
#    2.000    0.667    3.333    1.000    0.000    0.000 
#    0.000    5.000   29.333    5.000    0.000    9.333 
#    0.000   10.667    0.000    0.000    0.000    0.000 
#
# Total GULP energy -134196.363479 kJ/mol
# GULP energy per Si atom -5591.515145 kJ/mol
# Density = 2.742836 g / cm^3
# Si number density = 27.490933 Si / 1000 Ang^3
#
#
#
# Elastic Constant Matrix: (Units=GPa)
#
#
# Indices 1 2 3 4 5 6 
#
# 1 147.2055 51.8535 79.7425 0.0000 0.0000 0.0000
# 2 51.8535 132.4705 70.4080 0.0000 0.0000 0.0000
# 3 79.7425 70.4080 190.6750 0.0000 0.0000 0.0000
# 4 0.0000 0.0000 0.0000 48.6482 0.0000 0.0000
# 5 0.0000 0.0000 0.0000 0.0000 65.9459 0.0000
# 6 0.0000 0.0000 0.0000 0.0000 0.0000 0.8455
#
#
#
# Elastic Compliance Matrix: (Units=1/GPa)
#
#
# Indices 1 2 3 4 5 6 
#
# 1 0.009163 -0.001928 -0.003120 0.000000 0.000000 0.000000
# 2 -0.001928 0.009798 -0.002812 0.000000 0.000000 0.000000
# 3 -0.003120 -0.002812 0.007587 0.000000 0.000000 0.000000
# 4 0.000000 0.000000 0.000000 0.020556 0.000000 0.000000
# 5 0.000000 0.000000 0.000000 0.000000 0.015164 0.000000
# 6 0.000000 0.000000 0.000000 0.000000 0.000000 1.182732
#
#
# Mechanical properties :
#
#
# Convention : Reuss Voigt Hill
#
# Bulk Modulus (GPa) = 92.34811 97.15103 94.74957
# Shear Modulus (GPa) = 3.95467 40.97772 22.46619
#
# Velocity S-wave (km/s) = 1.20069 3.86500 2.86181
# Velocity P-wave (km/s) = 5.96551 7.43866 6.74244
#
# Compressibility (1/GPa) = 0.01082859
#
# Stress axis : x y z
#
# Youngs Moduli (GPa) = 109.14024 102.06174 131.79669
#
# Poissons Ratio (x) = 0.19681 0.41118
# Poissons Ratio (y) = 0.21046 0.37055
# Poissons Ratio (z) = 0.34050 0.28695
#
# Static dielectric constant tensor:
#      x y z
#    x 2.119650 0.000000 0.000000 
#    y 0.000000 2.129290 0.000000 
#    z 0.000000 0.000000 2.176150 
# 
# From -- ./inp_files/15257.got.cif
#   From: 2010.05.17/outbox.cif.g08.bks.cpg/sg64_8_cif.got.tgz:15257.got - 2010.06.03 16:29:19.
