data_PCOD9481502
_publ_section_title
;
Structure prediction by ZEFSAII (Michael W. Deem and Ramdas Pophale) SiO2 
 PCOD9481502
Probable space group: C M C A
;
_chemical_formula_sum "Si O2"
_cell_formula_units_Z 88
_cell_length_a 20.845191
_cell_length_b 11.835385
_cell_length_c 16.142969
_cell_angle_alpha 90.000000
_cell_angle_beta 90.000000
_cell_angle_gamma 90.000000
_cell_volume 3982.645779
_symmetry_space_group_name_H-M "C M C A"
_symmetry_group_IT_number 64
_symmetry_cell_setting 'orthorhombic'
loop_
_space_group_symop_operation_xyz
x,y,z
-x,1/2-y,1/2+z
x,-y,-z
-x,1/2+y,1/2-z
-x,-y,-z
x,1/2+y,1/2-z
-x,y,z
x,1/2-y,1/2+z
1/2+x,1/2+y,z
1/2-x,-y,1/2+z
1/2+x,1/2-y,-z
1/2-x,y,1/2-z
1/2-x,1/2-y,-z
1/2+x,y,1/2-z
1/2-x,1/2+y,z
1/2+x,-y,1/2+z
loop_
_atom_site_type_symbol
_atom_site_label
_atom_site_fract_x
_atom_site_fract_y
_atom_site_fract_z
Si Si1 0.500000 0.128442 0.123318
Si Si2 0.500000 0.338488 0.249478
Si Si3 0.785567 0.138394 0.675562
Si Si4 0.766564 0.883963 0.013543
Si Si5 0.500000 0.235715 0.944239
Si Si6 0.126745 0.333822 0.608725
Si Si7 0.106286 0.483841 0.768971
O O1 0.500000 0.237210 0.184218
O O2 0.564066 0.062548 0.153811
O O3 0.500000 0.155739 0.025384
O O4 0.500000 0.310135 0.348499
O O5 0.436491 0.412486 0.235583
O O6 0.750000 0.200364 0.750000
O O7 0.728709 0.113854 0.611914
O O8 0.839041 0.216035 0.633067
O O9 0.823810 0.028240 0.705543
O O10 0.750000 0.750000 0.000000
O O11 0.823949 0.899462 0.949524
O O12 0.724229 0.000000 0.000000
O O13 0.435906 0.309247 0.944919
O O14 0.110529 0.394523 0.694733
#
# Coordination Sequence:
#
# PCOD9481502 Si02
#       7
#     8   8  16  16   8  16  16
#     4  11  25  40  73 101 134 189 229 296 379 442
#     4  11  22  48  66 102 145 170 238 300 366 442
#     4  11  24  42  68  97 137 187 240 303 360 437
#     4  10  24  44  66  99 141 187 242 301 361 437
#     4  12  23  45  70 105 143 181 235 304 373 455
#     4  11  24  45  68 101 145 184 238 304 370 445
#     4  11  22  42  72  96 139 187 236 296 371 444
#
# _framework density 22.095865
#
# number of rings (size 3 to 8) (size 9 to 14) (size 15 to 20)
#    0.000    1.091    3.636    1.636    0.000   12.364 
#    0.000    1.364    0.000    0.000    0.000    0.000 
#    0.000    0.000    0.000    0.000    0.000    0.000 
#
# Total GULP energy -245118.708854 kJ/mol
# GULP energy per Si atom -5570.879747 kJ/mol
# Density = 2.204557 g / cm^3
# Si number density = 22.095865 Si / 1000 Ang^3
#
#
#
# Elastic Constant Matrix: (Units=GPa)
#
#
# Indices 1 2 3 4 5 6 
#
# 1 86.1510 14.0900 27.7353 0.0000 0.0000 0.0000
# 2 14.0900 97.4122 12.8592 0.0000 0.0000 0.0000
# 3 27.7353 12.8592 82.4185 0.0000 0.0000 0.0000
# 4 0.0000 0.0000 0.0000 34.2388 0.0000 0.0000
# 5 0.0000 0.0000 0.0000 0.0000 26.1559 0.0000
# 6 0.0000 0.0000 0.0000 0.0000 0.0000 8.3714
#
#
#
# Elastic Compliance Matrix: (Units=1/GPa)
#
#
# Indices 1 2 3 4 5 6 
#
# 1 0.013189 -0.001350 -0.004228 0.000000 0.000000 0.000000
# 2 -0.001350 0.010620 -0.001203 0.000000 0.000000 0.000000
# 3 -0.004228 -0.001203 0.013744 0.000000 0.000000 0.000000
# 4 0.000000 0.000000 0.000000 0.029207 0.000000 0.000000
# 5 0.000000 0.000000 0.000000 0.000000 0.038232 0.000000
# 6 0.000000 0.000000 0.000000 0.000000 0.000000 0.119454
#
#
# Mechanical properties :
#
#
# Convention : Reuss Voigt Hill
#
# Bulk Modulus (GPa) = 41.68034 41.70562 41.69298
# Shear Modulus (GPa) = 20.32493 27.83972 24.08232
#
# Velocity S-wave (km/s) = 3.03620 3.55343 3.30495
# Velocity P-wave (km/s) = 5.58531 5.97927 5.78564
#
# Compressibility (1/GPa) = 0.02399212
#
# Stress axis : x y z
#
# Youngs Moduli (GPa) = 75.81860 94.16515 72.76111
#
# Poissons Ratio (x) = 0.12709 0.30763
# Poissons Ratio (y) = 0.10233 0.08751
# Poissons Ratio (z) = 0.32055 0.11326
#
# Static dielectric constant tensor:
#      x y z
#    x 1.960510 0.000000 0.000000 
#    y 0.000000 1.923650 0.000000 
#    z 0.000000 0.000000 1.700960 
# 
# From -- ./inp_files/27212.got.cif
#   From: 2010.05.17/outbox.cif.g08.bks.cpg/sg64_14_cif.got.tgz:27212.got - 2010.06.03 16:29:19.
