data_PCOD9481970
_publ_section_title
;
Structure prediction by ZEFSAII (Michael W. Deem and Ramdas Pophale) SiO2 
 PCOD9481970
Probable space group: C M C A
;
_chemical_formula_sum "Si O2"
_cell_formula_units_Z 64
_cell_length_a 8.654178
_cell_length_b 13.382012
_cell_length_c 26.913107
_cell_angle_alpha 90.000000
_cell_angle_beta 90.000000
_cell_angle_gamma 90.000000
_cell_volume 3116.815368
_symmetry_space_group_name_H-M "C M C A"
_symmetry_group_IT_number 64
_symmetry_cell_setting 'orthorhombic'
loop_
_space_group_symop_operation_xyz
x,y,z
-x,1/2-y,1/2+z
x,-y,-z
-x,1/2+y,1/2-z
-x,-y,-z
x,1/2+y,1/2-z
-x,y,z
x,1/2-y,1/2+z
1/2+x,1/2+y,z
1/2-x,-y,1/2+z
1/2+x,1/2-y,-z
1/2-x,y,1/2-z
1/2-x,1/2-y,-z
1/2+x,y,1/2-z
1/2-x,1/2+y,z
1/2+x,-y,1/2+z
loop_
_atom_site_type_symbol
_atom_site_label
_atom_site_fract_x
_atom_site_fract_y
_atom_site_fract_z
Si Si1 0.500000 0.124461 0.055668
Si Si2 0.185338 0.889336 0.695118
Si Si3 0.173339 0.901817 0.200486
Si Si4 0.257293 0.245998 0.614944
Si Si5 0.000000 0.611399 0.936665
O O1 0.642497 0.189360 0.076497
O O2 0.500000 0.008436 0.074414
O O3 0.500000 0.119926 0.996296
O O4 0.250000 0.868668 0.750000
O O5 0.289216 0.831095 0.654790
O O6 0.000000 0.867643 0.690479
O O7 0.216522 0.006238 0.687172
O O8 0.250000 0.855510 0.250000
O O9 0.163161 0.828764 0.154137
O O10 0.000000 0.937280 0.213005
O O11 0.141993 0.174110 0.585843
#
# Coordination Sequence:
#
# PCOD9481970 Si02
#       5
#     8  16  16  16   8
#     4  11  24  54  66 103 135 169 232 290 350 401
#     4  11  23  40  64  99 145 181 225 277 328 403
#     4  11  23  39  63  99 141 182 226 273 329 404
#     4  12  24  42  70  99 130 179 227 271 343 405
#     4  11  28  44  78  95 135 179 220 296 348 407
#
# _framework density 20.533778999999999
#
# number of rings (size 3 to 8) (size 9 to 14) (size 15 to 20)
#    0.000    0.750    2.500    6.000    7.000    0.000 
#    0.000    0.000    0.000    6.000    0.000    0.000 
#    0.000    0.000    0.000    0.000    0.000    0.000 
#
# Total GULP energy -178384.108593 kJ/mol
# GULP energy per Si atom -5574.503394 kJ/mol
# Density = 2.048704 g / cm^3
# Si number density = 20.533779 Si / 1000 Ang^3
#
#
#
# Elastic Constant Matrix: (Units=GPa)
#
#
# Indices 1 2 3 4 5 6 
#
# 1 111.1177 63.7480 58.0754 0.0000 0.0000 0.0000
# 2 63.7480 174.2742 66.8322 0.0000 0.0000 0.0000
# 3 58.0754 66.8322 135.7538 0.0000 0.0000 0.0000
# 4 0.0000 0.0000 0.0000 53.3208 0.0000 0.0000
# 5 0.0000 0.0000 0.0000 0.0000 22.2124 0.0000
# 6 0.0000 0.0000 0.0000 0.0000 0.0000 27.8564
#
#
#
# Elastic Compliance Matrix: (Units=1/GPa)
#
#
# Indices 1 2 3 4 5 6 
#
# 1 0.012898 -0.003208 -0.003939 0.000000 0.000000 0.000000
# 2 -0.003208 0.007871 -0.002503 0.000000 0.000000 0.000000
# 3 -0.003939 -0.002503 0.010283 0.000000 0.000000 0.000000
# 4 0.000000 0.000000 0.000000 0.018754 0.000000 0.000000
# 5 0.000000 0.000000 0.000000 0.000000 0.045020 0.000000
# 6 0.000000 0.000000 0.000000 0.000000 0.000000 0.035898
#
#
# Mechanical properties :
#
#
# Convention : Reuss Voigt Hill
#
# Bulk Modulus (GPa) = 85.07361 88.71746 86.89553
# Shear Modulus (GPa) = 32.47975 36.17725 34.32850
#
# Velocity S-wave (km/s) = 3.98146 4.20198 4.09321
# Velocity P-wave (km/s) = 7.91562 8.17567 8.04670
#
# Compressibility (1/GPa) = 0.01175453
#
# Stress axis : x y z
#
# Youngs Moduli (GPa) = 77.53000 127.04541 97.24395
#
# Poissons Ratio (x) = 0.40751 0.38302
# Poissons Ratio (y) = 0.24869 0.24338
# Poissons Ratio (z) = 0.30537 0.31797
#
# Static dielectric constant tensor:
#      x y z
#    x 1.749000 0.000000 0.000000 
#    y 0.000000 1.768890 0.000000 
#    z 0.000000 0.000000 1.741660 
# 
# From -- ./inp_files/47559.got.cif
#   From: 2010.05.17/outbox.cif.g08.bks.cpg/sg64_24_cif.got.tgz:47559.got - 2010.06.03 16:29:19.
