data_PCOD9481308
_publ_section_title
;
Structure prediction by ZEFSAII (Michael W. Deem and Ramdas Pophale) SiO2 
 PCOD9481308
Probable space group: C M C A
;
_chemical_formula_sum "Si O2"
_cell_formula_units_Z 96
_cell_length_a 16.276175
_cell_length_b 29.720945
_cell_length_c 9.946324
_cell_angle_alpha 90.000000
_cell_angle_beta 90.000000
_cell_angle_gamma 90.000000
_cell_volume 4811.467614
_symmetry_space_group_name_H-M "C M C A"
_symmetry_group_IT_number 64
_symmetry_cell_setting 'orthorhombic'
loop_
_space_group_symop_operation_xyz
x,y,z
-x,1/2-y,1/2+z
x,-y,-z
-x,1/2+y,1/2-z
-x,-y,-z
x,1/2+y,1/2-z
-x,y,z
x,1/2-y,1/2+z
1/2+x,1/2+y,z
1/2-x,-y,1/2+z
1/2+x,1/2-y,-z
1/2-x,y,1/2-z
1/2-x,1/2-y,-z
1/2+x,y,1/2-z
1/2-x,1/2+y,z
1/2+x,-y,1/2+z
loop_
_atom_site_type_symbol
_atom_site_label
_atom_site_fract_x
_atom_site_fract_y
_atom_site_fract_z
Si Si1 0.906279 0.537659 0.614941
Si Si2 0.668487 0.015695 0.154412
Si Si3 0.899755 0.209990 0.972504
Si Si4 0.206910 0.124630 0.892647
Si Si5 0.823355 0.117415 0.357565
Si Si6 0.097697 0.290430 0.779984
O O1 0.892358 0.500000 0.500000
O O2 0.892925 0.515734 0.761717
O O3 0.843033 0.578119 0.596724
O O4 0.000000 0.553633 0.600761
O O5 0.750000 0.014119 0.250000
O O6 0.639222 0.067519 0.151136
O O7 0.682447 0.000000 0.000000
O O8 0.855923 0.165113 0.920504
O O9 0.872557 0.252255 0.882261
O O10 0.000000 0.205804 0.967396
O O11 0.873650 0.216809 0.127294
O O12 0.250000 0.128658 0.750000
O O13 0.279426 0.123763 0.000676
O O14 0.750000 0.118900 0.250000
O O15 0.880523 0.159461 0.326272
O O16 0.000000 0.286044 0.777418
#
# Coordination Sequence:
#
# PCOD9481308 Si02
#       6
#    16  16  16  16  16  16
#     4  11  24  42  66  94 126 170 220 264 320 383
#     4  11  22  40  64  92 131 171 212 263 319 378
#     4  10  23  44  67  91 126 167 209 257 319 380
#     4  12  25  41  63  96 130 168 210 263 315 374
#     4  11  22  39  63  94 127 165 213 258 318 375
#     4  10  23  43  66  93 126 165 207 262 321 379
#
# _framework density 19.952331999999998
#
# number of rings (size 3 to 8) (size 9 to 14) (size 15 to 20)
#    0.000    1.167    1.667    5.500    2.333    2.333 
#    0.000    2.500    0.000    0.000    0.000    0.000 
#    0.000    0.000    0.000    0.000    0.000    0.000 
#
# Total GULP energy -268325.304463 kJ/mol
# GULP energy per Si atom -5590.110510 kJ/mol
# Density = 1.990692 g / cm^3
# Si number density = 19.952332 Si / 1000 Ang^3
#
#
#
# Elastic Constant Matrix: (Units=GPa)
#
#
# Indices 1 2 3 4 5 6 
#
# 1 21.8534 12.1929 26.9866 0.0000 0.0000 0.0000
# 2 12.1929 128.7132 49.3970 0.0000 0.0000 0.0000
# 3 26.9866 49.3970 173.5638 0.0000 0.0000 0.0000
# 4 0.0000 0.0000 0.0000 31.6828 0.0000 0.0000
# 5 0.0000 0.0000 0.0000 0.0000 24.6603 0.0000
# 6 0.0000 0.0000 0.0000 0.0000 0.0000 37.7701
#
#
#
# Elastic Compliance Matrix: (Units=1/GPa)
#
#
# Indices 1 2 3 4 5 6 
#
# 1 0.057209 -0.002252 -0.008254 0.000000 0.000000 0.000000
# 2 -0.002252 0.008810 -0.002157 0.000000 0.000000 0.000000
# 3 -0.008254 -0.002157 0.007659 0.000000 0.000000 0.000000
# 4 0.000000 0.000000 0.000000 0.031563 0.000000 0.000000
# 5 0.000000 0.000000 0.000000 0.000000 0.040551 0.000000
# 6 0.000000 0.000000 0.000000 0.000000 0.000000 0.026476
#
#
# Mechanical properties :
#
#
# Convention : Reuss Voigt Hill
#
# Bulk Modulus (GPa) = 20.68177 55.69815 38.18996
# Shear Modulus (GPa) = 23.39597 34.52623 28.96110
#
# Velocity S-wave (km/s) = 3.42803 4.16436 3.81401
# Velocity P-wave (km/s) = 5.10457 7.14834 6.21109
#
# Compressibility (1/GPa) = 0.04835177
#
# Stress axis : x y z
#
# Youngs Moduli (GPa) = 17.47980 113.50149 130.56529
#
# Poissons Ratio (x) = 0.25555 1.07773
# Poissons Ratio (y) = 0.03936 0.28168
# Poissons Ratio (z) = 0.14428 0.24487
#
# Static dielectric constant tensor:
#      x y z
#    x 1.707110 0.000000 0.000000 
#    y 0.000000 1.685020 0.000000 
#    z 0.000000 0.000000 1.682070 
# 
# From -- ./inp_files/8438.got.cif
#   From: 2010.05.17/outbox.cif.g08.bks.cpg/sg64_5_cif.got.tgz:8438.got - 2010.06.03 16:29:19.
