data_PCOD9481757
_publ_section_title
;
Structure prediction by ZEFSAII (Michael W. Deem and Ramdas Pophale) SiO2 
 PCOD9481757
Probable space group: C M C A
;
_chemical_formula_sum "Si O2"
_cell_formula_units_Z 80
_cell_length_a 17.648937
_cell_length_b 9.515434
_cell_length_c 21.386383
_cell_angle_alpha 90.000000
_cell_angle_beta 90.000000
_cell_angle_gamma 90.000000
_cell_volume 3591.571315
_symmetry_space_group_name_H-M "C M C A"
_symmetry_group_IT_number 64
_symmetry_cell_setting 'orthorhombic'
loop_
_space_group_symop_operation_xyz
x,y,z
-x,1/2-y,1/2+z
x,-y,-z
-x,1/2+y,1/2-z
-x,-y,-z
x,1/2+y,1/2-z
-x,y,z
x,1/2-y,1/2+z
1/2+x,1/2+y,z
1/2-x,-y,1/2+z
1/2+x,1/2-y,-z
1/2-x,y,1/2-z
1/2-x,1/2-y,-z
1/2+x,y,1/2-z
1/2-x,1/2+y,z
1/2+x,-y,1/2+z
loop_
_atom_site_type_symbol
_atom_site_label
_atom_site_fract_x
_atom_site_fract_y
_atom_site_fract_z
Si Si1 0.774992 0.149620 0.822366
Si Si2 0.085730 0.363359 0.826788
Si Si3 0.000000 0.440167 0.402595
Si Si4 0.000000 0.769232 0.978905
Si Si5 0.884964 0.923648 0.814026
Si Si6 0.120528 0.150117 0.610251
O O1 0.750000 0.178612 0.750000
O O2 0.844034 0.257273 0.833812
O O3 0.800870 0.985623 0.821004
O O4 0.710773 0.159522 0.876036
O O5 0.093418 0.430498 0.757730
O O6 0.094575 0.494141 0.873230
O O7 0.000000 0.304334 0.829570
O O8 0.000000 0.578814 0.446367
O O9 0.000000 0.306472 0.448114
O O10 0.929855 0.470207 0.358041
O O11 0.076220 0.693902 0.952900
O O12 0.903857 0.768492 0.838814
#
# Coordination Sequence:
#
# PCOD9481757 Si02
#       6
#    16  16   8   8  16  16
#     4  12  24  36  58  92 137 159 190 248 318 385
#     4  12  23  36  58  95 130 162 197 247 316 389
#     4   9  20  37  63  87 115 155 226 267 296 346
#     4   9  20  41  61  87 115 163 218 273 292 358
#     4  11  21  35  61  88 121 161 204 251 303 370
#     4  11  22  38  61  88 123 167 202 253 311 367
#
# _framework density 22.274373000000001
#
# number of rings (size 3 to 8) (size 9 to 14) (size 15 to 20)
#    0.000    1.000    6.000    1.200    1.400    1.600 
#    0.000    1.000    0.000    4.800    0.000    0.000 
#    0.000    0.000    0.000    0.000    0.000    0.000 
#
# Total GULP energy -223084.102943 kJ/mol
# GULP energy per Si atom -5577.102574 kJ/mol
# Density = 2.222368 g / cm^3
# Si number density = 22.274373 Si / 1000 Ang^3
#
#
#
# Elastic Constant Matrix: (Units=GPa)
#
#
# Indices 1 2 3 4 5 6 
#
# 1 136.7852 25.3219 13.1556 0.0000 0.0000 0.0000
# 2 25.3219 74.5214 -5.1268 0.0000 0.0000 0.0000
# 3 13.1556 -5.1268 53.3568 0.0000 0.0000 0.0000
# 4 0.0000 0.0000 0.0000 26.3492 0.0000 0.0000
# 5 0.0000 0.0000 0.0000 0.0000 6.1787 0.0000
# 6 0.0000 0.0000 0.0000 0.0000 0.0000 93.9097
#
#
#
# Elastic Compliance Matrix: (Units=1/GPa)
#
#
# Indices 1 2 3 4 5 6 
#
# 1 0.008065 -0.002896 -0.002267 0.000000 0.000000 0.000000
# 2 -0.002896 0.014548 0.002112 0.000000 0.000000 0.000000
# 3 -0.002267 0.002112 0.019504 0.000000 0.000000 0.000000
# 4 0.000000 0.000000 0.000000 0.037952 0.000000 0.000000
# 5 0.000000 0.000000 0.000000 0.000000 0.161847 0.000000
# 6 0.000000 0.000000 0.000000 0.000000 0.000000 0.010649
#
#
# Mechanical properties :
#
#
# Convention : Reuss Voigt Hill
#
# Bulk Modulus (GPa) = 27.76646 36.81832 32.29239
# Shear Modulus (GPa) = 18.47255 40.70835 29.59045
#
# Velocity S-wave (km/s) = 2.88291 4.27967 3.64875
# Velocity P-wave (km/s) = 4.85534 6.40204 5.68157
#
# Compressibility (1/GPa) = 0.03601467
#
# Stress axis : x y z
#
# Youngs Moduli (GPa) = 123.99376 68.73600 51.27262
#
# Poissons Ratio (x) = 0.19908 0.11622
# Poissons Ratio (y) = 0.35913 -0.10829
# Poissons Ratio (z) = 0.28107 -0.14517
#
# Static dielectric constant tensor:
#      x y z
#    x 1.871550 0.000000 0.000000 
#    y 0.000000 1.864410 0.000000 
#    z 0.000000 0.000000 1.760460 
# 
# From -- ./inp_files/46155.got.cif
#   From: 2010.05.17/outbox.cif.g08.bks.cpg/sg64_24_cif.got.tgz:46155.got - 2010.06.03 16:29:19.
