data_PCOD9481842
_publ_section_title
;
Structure prediction by ZEFSAII (Michael W. Deem and Ramdas Pophale) SiO2 
 PCOD9481842
Probable space group: C M C A
;
_chemical_formula_sum "Si O2"
_cell_formula_units_Z 96
_cell_length_a 8.969316
_cell_length_b 21.776450
_cell_length_c 23.715998
_cell_angle_alpha 90.000000
_cell_angle_beta 90.000000
_cell_angle_gamma 90.000000
_cell_volume 4632.205443
_symmetry_space_group_name_H-M "C M C A"
_symmetry_group_IT_number 64
_symmetry_cell_setting 'orthorhombic'
loop_
_space_group_symop_operation_xyz
x,y,z
-x,1/2-y,1/2+z
x,-y,-z
-x,1/2+y,1/2-z
-x,-y,-z
x,1/2+y,1/2-z
-x,y,z
x,1/2-y,1/2+z
1/2+x,1/2+y,z
1/2-x,-y,1/2+z
1/2+x,1/2-y,-z
1/2-x,y,1/2-z
1/2-x,1/2-y,-z
1/2+x,y,1/2-z
1/2-x,1/2+y,z
1/2+x,-y,1/2+z
loop_
_atom_site_type_symbol
_atom_site_label
_atom_site_fract_x
_atom_site_fract_y
_atom_site_fract_z
Si Si1 0.321756 0.342418 0.811605
Si Si2 0.673399 0.536777 0.574346
Si Si3 0.676015 0.845374 0.477265
Si Si4 0.676783 0.396648 0.582771
Si Si5 0.326667 0.591730 0.692609
Si Si6 0.179218 0.713413 0.872549
O O1 0.500000 0.349214 0.807908
O O2 0.250000 0.347010 0.750000
O O3 0.252618 0.389312 0.856616
O O4 0.288469 0.276017 0.839912
O O5 0.500000 0.552661 0.559533
O O6 0.781446 0.588078 0.549391
O O7 0.700630 0.466118 0.560257
O O8 0.685785 0.543689 0.641886
O O9 0.500000 0.837135 0.482228
O O10 0.750884 0.849415 0.538583
O O11 0.745427 0.797056 0.433232
O O12 0.500000 0.386923 0.586987
O O13 0.500000 0.600912 0.704921
O O14 0.250000 0.573480 0.750000
O O15 0.270627 0.656447 0.666928
O O16 0.000000 0.708548 0.880458
#
# Coordination Sequence:
#
# PCOD9481842 Si02
#       6
#    16  16  16  16  16  16
#     4  11  24  42  63  87 117 154 196 239 284 338
#     4   9  20  38  57  80 114 156 195 234 288 349
#     4  11  22  36  60  92 119 145 186 242 296 345
#     4  11  23  40  61  83 115 159 198 235 284 343
#     4   9  17  31  52  79 108 140 184 233 282 335
#     4   9  20  39  60  82 113 152 191 234 286 347
#
# _framework density 20.724468999999999
#
# number of rings (size 3 to 8) (size 9 to 14) (size 15 to 20)
#    0.000    2.000    0.000    4.500    0.000    8.667 
#    0.000    1.667    0.000    0.000    0.000    0.000 
#    0.000    0.000    0.000    0.000    0.000    0.000 
#
# Total GULP energy -268242.254565 kJ/mol
# GULP energy per Si atom -5588.380303 kJ/mol
# Density = 2.067730 g / cm^3
# Si number density = 20.724469 Si / 1000 Ang^3
#
#
#
# Elastic Constant Matrix: (Units=GPa)
#
#
# Indices 1 2 3 4 5 6 
#
# 1 69.5215 27.1060 45.3757 0.0000 0.0000 0.0000
# 2 27.1060 40.3999 15.5338 0.0000 0.0000 0.0000
# 3 45.3757 15.5338 119.6158 0.0000 0.0000 0.0000
# 4 0.0000 0.0000 0.0000 21.6121 0.0000 0.0000
# 5 0.0000 0.0000 0.0000 0.0000 38.5622 0.0000
# 6 0.0000 0.0000 0.0000 0.0000 0.0000 19.7961
#
#
#
# Elastic Compliance Matrix: (Units=1/GPa)
#
#
# Indices 1 2 3 4 5 6 
#
# 1 0.024640 -0.013618 -0.007579 0.000000 0.000000 0.000000
# 2 -0.013618 0.033580 0.000805 0.000000 0.000000 0.000000
# 3 -0.007579 0.000805 0.011130 0.000000 0.000000 0.000000
# 4 0.000000 0.000000 0.000000 0.046270 0.000000 0.000000
# 5 0.000000 0.000000 0.000000 0.000000 0.025932 0.000000
# 6 0.000000 0.000000 0.000000 0.000000 0.000000 0.050515
#
#
# Mechanical properties :
#
#
# Convention : Reuss Voigt Hill
#
# Bulk Modulus (GPa) = 35.00503 45.06315 40.03409
# Shear Modulus (GPa) = 20.62931 25.42887 23.02909
#
# Velocity S-wave (km/s) = 3.15843 3.50665 3.33709
# Velocity P-wave (km/s) = 5.49802 6.17953 5.84871
#
# Compressibility (1/GPa) = 0.02856732
#
# Stress axis : x y z
#
# Youngs Moduli (GPa) = 40.58421 29.77969 89.84357
#
# Poissons Ratio (x) = 0.40554 0.68089
# Poissons Ratio (y) = 0.55268 -0.07234
# Poissons Ratio (z) = 0.30757 -0.02398
#
# Static dielectric constant tensor:
#      x y z
#    x 1.689290 0.000000 0.000000 
#    y 0.000000 1.767830 0.000000 
#    z 0.000000 0.000000 1.751900 
# 
# From -- ./inp_files/43062.got.cif
#   From: 2010.05.17/outbox.cif.g08.bks.cpg/sg64_22_cif.got.tgz:43062.got - 2010.06.03 16:29:19.
