data_PCOD9481112
_publ_section_title
;
Structure prediction by ZEFSAII (Michael W. Deem and Ramdas Pophale) SiO2 
 PCOD9481112
Probable space group: C M C A
;
_chemical_formula_sum "Si O2"
_cell_formula_units_Z 104
_cell_length_a 19.378501
_cell_length_b 9.568444
_cell_length_c 26.413427
_cell_angle_alpha 90.000000
_cell_angle_beta 90.000000
_cell_angle_gamma 90.000000
_cell_volume 4897.633145
_symmetry_space_group_name_H-M "C M C A"
_symmetry_group_IT_number 64
_symmetry_cell_setting 'orthorhombic'
loop_
_space_group_symop_operation_xyz
x,y,z
-x,1/2-y,1/2+z
x,-y,-z
-x,1/2+y,1/2-z
-x,-y,-z
x,1/2+y,1/2-z
-x,y,z
x,1/2-y,1/2+z
1/2+x,1/2+y,z
1/2-x,-y,1/2+z
1/2+x,1/2-y,-z
1/2-x,y,1/2-z
1/2-x,1/2-y,-z
1/2+x,y,1/2-z
1/2-x,1/2+y,z
1/2+x,-y,1/2+z
loop_
_atom_site_type_symbol
_atom_site_label
_atom_site_fract_x
_atom_site_fract_y
_atom_site_fract_z
Si Si1 0.185848 0.301299 0.715082
Si Si2 0.500000 0.580448 0.129024
Si Si3 0.000000 0.791754 0.180452
Si Si4 0.276203 0.125336 0.035223
Si Si5 0.000000 0.843316 0.298795
Si Si6 0.138656 0.505497 0.208920
Si Si7 0.841827 0.044264 0.113697
Si Si8 0.144343 0.225563 0.370229
O O1 0.250000 0.346028 0.750000
O O2 0.127862 0.393581 0.743171
O O3 0.179753 0.135822 0.721104
O O4 0.178510 0.345039 0.657181
O O5 0.500000 0.456720 0.169730
O O6 0.500000 0.724663 0.158941
O O7 0.424436 0.562103 0.101899
O O8 0.000000 0.783059 0.241225
O O9 0.933359 0.734435 0.150986
O O10 0.210198 0.071153 0.067597
O O11 0.335088 0.179856 0.073533
O O12 0.250000 0.250000 0.000000
O O13 0.301766 0.000000 0.000000
O O14 0.933858 0.939875 0.306482
O O15 0.171985 0.600800 0.165253
O O16 0.830021 0.885983 0.134716
#
# Coordination Sequence:
#
# PCOD9481112 Si02
#       8
#    16   8   8  16   8  16  16  16
#     4  12  25  40  61  95 140 184 229 278 336 419
#     4  10  22  44  70 100 140 182 240 280 343 424
#     4  10  23  42  72 100 146 191 233 277 343 420
#     4  12  27  49  77 103 136 181 239 307 380 431
#     4  12  23  38  66 103 145 195 225 273 329 423
#     4  12  25  39  64  98 143 185 234 275 337 414
#     4  11  24  47  72 102 138 185 237 296 360 435
#     4  11  25  46  71 104 140 186 234 295 355 430
#
# _framework density 21.234748
#
# number of rings (size 3 to 8) (size 9 to 14) (size 15 to 20)
#    0.000    0.615    3.077    5.538    4.308    2.462 
#    0.000    2.308    0.000    0.000    0.000    0.000 
#    0.000    0.000    0.000    0.000    0.000    0.000 
#
# Total GULP energy -290393.033770 kJ/mol
# GULP energy per Si atom -5584.481419 kJ/mol
# Density = 2.118642 g / cm^3
# Si number density = 21.234748 Si / 1000 Ang^3
#
#
#
# Elastic Constant Matrix: (Units=GPa)
#
#
# Indices 1 2 3 4 5 6 
#
# 1 62.6840 31.4970 4.4855 0.0000 0.0000 0.0000
# 2 31.4970 153.6165 47.8828 0.0000 0.0000 0.0000
# 3 4.4855 47.8828 88.0517 0.0000 0.0000 0.0000
# 4 0.0000 0.0000 0.0000 48.0830 0.0000 0.0000
# 5 0.0000 0.0000 0.0000 0.0000 28.9815 0.0000
# 6 0.0000 0.0000 0.0000 0.0000 0.0000 11.9449
#
#
#
# Elastic Compliance Matrix: (Units=1/GPa)
#
#
# Indices 1 2 3 4 5 6 
#
# 1 0.017909 -0.004079 0.001306 0.000000 0.000000 0.000000
# 2 -0.004079 0.008767 -0.004560 0.000000 0.000000 0.000000
# 3 0.001306 -0.004560 0.013770 0.000000 0.000000 0.000000
# 4 0.000000 0.000000 0.000000 0.020797 0.000000 0.000000
# 5 0.000000 0.000000 0.000000 0.000000 0.034505 0.000000
# 6 0.000000 0.000000 0.000000 0.000000 0.000000 0.083718
#
#
# Mechanical properties :
#
#
# Convention : Reuss Voigt Hill
#
# Bulk Modulus (GPa) = 38.78900 52.45364 45.62132
# Shear Modulus (GPa) = 24.66373 32.50100 28.58237
#
# Velocity S-wave (km/s) = 3.41175 3.91648 3.67279
# Velocity P-wave (km/s) = 5.81605 6.72363 6.28624
#
# Compressibility (1/GPa) = 0.02578051
#
# Stress axis : x y z
#
# Youngs Moduli (GPa) = 55.83715 114.05830 72.62074
#
# Poissons Ratio (x) = 0.46526 -0.09484
# Poissons Ratio (y) = 0.22777 0.33115
# Poissons Ratio (z) = -0.07292 0.52010
#
# Static dielectric constant tensor:
#      x y z
#    x 1.894540 0.000000 0.000000 
#    y 0.000000 1.781300 0.000000 
#    z 0.000000 0.000000 1.753270 
# 
# From -- ./inp_files/50810.got.cif
#   From: 2010.05.17/outbox.cif.g08.bks.cpg/sg64_26_cif.got.tgz:50810.got - 2010.06.03 16:29:19.
