data_PCOD9481130
_publ_section_title
;
Structure prediction by ZEFSAII (Michael W. Deem and Ramdas Pophale) SiO2 
 PCOD9481130
Probable space group: C M C A
;
_chemical_formula_sum "Si O2"
_cell_formula_units_Z 112
_cell_length_a 15.015664
_cell_length_b 11.142141
_cell_length_c 28.471766
_cell_angle_alpha 90.000000
_cell_angle_beta 90.000000
_cell_angle_gamma 90.000000
_cell_volume 4763.515661
_symmetry_space_group_name_H-M "C M C A"
_symmetry_group_IT_number 64
_symmetry_cell_setting 'orthorhombic'
loop_
_space_group_symop_operation_xyz
x,y,z
-x,1/2-y,1/2+z
x,-y,-z
-x,1/2+y,1/2-z
-x,-y,-z
x,1/2+y,1/2-z
-x,y,z
x,1/2-y,1/2+z
1/2+x,1/2+y,z
1/2-x,-y,1/2+z
1/2+x,1/2-y,-z
1/2-x,y,1/2-z
1/2-x,1/2-y,-z
1/2+x,y,1/2-z
1/2-x,1/2+y,z
1/2+x,-y,1/2+z
loop_
_atom_site_type_symbol
_atom_site_label
_atom_site_fract_x
_atom_site_fract_y
_atom_site_fract_z
Si Si1 0.900186 0.736138 0.709007
Si Si2 0.652048 0.495064 0.270996
Si Si3 0.397237 0.632322 0.109843
Si Si4 0.785392 0.815504 0.344068
Si Si5 0.228069 0.542992 0.578259
Si Si6 0.846963 0.189305 0.000940
Si Si7 0.594307 0.580693 0.453171
O O1 0.891582 0.619437 0.743574
O O2 0.806611 0.724981 0.680141
O O3 0.000000 0.726814 0.686867
O O4 0.894394 0.874376 0.728411
O O5 0.750000 0.516061 0.250000
O O6 0.673389 0.435765 0.321739
O O7 0.500000 0.610480 0.114859
O O8 0.362752 0.718639 0.150951
O O9 0.337910 0.514937 0.115360
O O10 0.380282 0.669372 0.054328
O O11 0.763867 0.837873 0.398397
O O12 0.170499 0.577799 0.533409
O O13 0.312636 0.456768 0.570272
O O14 0.904659 0.284492 0.972036
O O15 0.750000 0.250000 0.000000
O O16 0.594511 0.500000 0.500000
O O17 0.500000 0.556507 0.427481
#
# Coordination Sequence:
#
# PCOD9481130 Si02
#       7
#    16  16  16  16  16  16  16
#     4  11  24  45  74 108 143 183 228 278 341 419
#     4  10  22  44  75 106 142 183 225 275 340 412
#     4  12  26  42  63  92 127 175 232 287 349 410
#     4  11  24  44  67  96 140 180 222 278 342 411
#     4  12  23  41  63  89 130 173 220 286 339 403
#     4  12  21  40  64  87 126 171 223 287 347 405
#     4  11  21  36  59  86 115 159 214 270 335 404
#
# _framework density 23.512046999999999
#
# number of rings (size 3 to 8) (size 9 to 14) (size 15 to 20)
#    0.000    0.714    4.286    3.429    0.000    6.286 
#    0.000    5.000    0.000    0.000    0.000    0.000 
#    0.000    0.000    0.000    0.000    0.000    0.000 
#
# Total GULP energy -312178.882123 kJ/mol
# GULP energy per Si atom -5574.622895 kJ/mol
# Density = 2.345853 g / cm^3
# Si number density = 23.512047 Si / 1000 Ang^3
#
#
#
# Elastic Constant Matrix: (Units=GPa)
#
#
# Indices 1 2 3 4 5 6 
#
# 1 170.4996 30.7688 -1.4144 0.0000 0.0000 0.0000
# 2 30.7688 108.7722 13.1904 0.0000 0.0000 0.0000
# 3 -1.4144 13.1904 32.1392 0.0000 0.0000 0.0000
# 4 0.0000 0.0000 0.0000 28.3169 0.0000 0.0000
# 5 0.0000 0.0000 0.0000 0.0000 19.5654 0.0000
# 6 0.0000 0.0000 0.0000 0.0000 0.0000 18.2932
#
#
#
# Elastic Compliance Matrix: (Units=1/GPa)
#
#
# Indices 1 2 3 4 5 6 
#
# 1 0.006214 -0.001885 0.001047 0.000000 0.000000 0.000000
# 2 -0.001885 0.010247 -0.004288 0.000000 0.000000 0.000000
# 3 0.001047 -0.004288 0.032921 0.000000 0.000000 0.000000
# 4 0.000000 0.000000 0.000000 0.035315 0.000000 0.000000
# 5 0.000000 0.000000 0.000000 0.000000 0.051111 0.000000
# 6 0.000000 0.000000 0.000000 0.000000 0.000000 0.054665
#
#
# Mechanical properties :
#
#
# Convention : Reuss Voigt Hill
#
# Bulk Modulus (GPa) = 25.55633 44.05560 34.80596
# Shear Modulus (GPa) = 23.38998 31.15954 27.27476
#
# Velocity S-wave (km/s) = 3.15748 3.64436 3.40962
# Velocity P-wave (km/s) = 4.91792 6.04041 5.50784
#
# Compressibility (1/GPa) = 0.03912925
#
# Stress axis : x y z
#
# Youngs Moduli (GPa) = 160.92897 97.59246 30.37596
#
# Poissons Ratio (x) = 0.18393 -0.03180
# Poissons Ratio (y) = 0.30331 0.13026
# Poissons Ratio (z) = -0.16849 0.41851
#
# Static dielectric constant tensor:
#      x y z
#    x 1.759750 0.000000 0.000000 
#    y 0.000000 2.049050 0.000000 
#    z 0.000000 0.000000 1.901130 
# 
# From -- ./inp_files/53236.got.cif
#   From: 2010.05.17/outbox.cif.g08.bks.cpg/sg64_27_cif.got.tgz:53236.got - 2010.06.03 16:29:19.
