data_PCOD9481828
_publ_section_title
;
Structure prediction by ZEFSAII (Michael W. Deem and Ramdas Pophale) SiO2 
 PCOD9481828
Probable space group: C M C A
;
_chemical_formula_sum "Si O2"
_cell_formula_units_Z 64
_cell_length_a 19.912581
_cell_length_b 16.580443
_cell_length_c 9.899017
_cell_angle_alpha 90.000000
_cell_angle_beta 90.000000
_cell_angle_gamma 90.000000
_cell_volume 3268.253654
_symmetry_space_group_name_H-M "C M C A"
_symmetry_group_IT_number 64
_symmetry_cell_setting 'orthorhombic'
loop_
_space_group_symop_operation_xyz
x,y,z
-x,1/2-y,1/2+z
x,-y,-z
-x,1/2+y,1/2-z
-x,-y,-z
x,1/2+y,1/2-z
-x,y,z
x,1/2-y,1/2+z
1/2+x,1/2+y,z
1/2-x,-y,1/2+z
1/2+x,1/2-y,-z
1/2-x,y,1/2-z
1/2-x,1/2-y,-z
1/2+x,y,1/2-z
1/2-x,1/2+y,z
1/2+x,-y,1/2+z
loop_
_atom_site_type_symbol
_atom_site_label
_atom_site_fract_x
_atom_site_fract_y
_atom_site_fract_z
Si Si1 0.578642 0.090029 0.052642
Si Si2 0.838809 0.154209 0.675557
Si Si3 0.327083 0.659718 0.218632
Si Si4 0.200564 0.089637 0.944299
O O1 0.500000 0.095678 0.083221
O O2 0.623322 0.114644 0.180371
O O3 0.599983 0.145690 0.926586
O O4 0.594150 0.000000 0.000000
O O5 0.833497 0.244150 0.733253
O O6 0.839097 0.093777 0.802904
O O7 0.771670 0.132081 0.590473
O O8 0.250000 0.636251 0.250000
O O9 0.337104 0.637457 0.062268
O O10 0.211725 0.000000 0.000000
#
# Coordination Sequence:
#
# PCOD9481828 Si02
#       4
#    16  16  16  16
#     4  11  25  44  64  89 129 175 210 254 322 389
#     4  11  22  39  60  93 126 166 204 263 318 374
#     4  12  22  39  66  94 126 160 213 268 315 373
#     4  11  22  34  61  96 123 157 204 263 314 363
#
# _framework density 19.582324
#
# number of rings (size 3 to 8) (size 9 to 14) (size 15 to 20)
#    0.000    0.750    5.000    4.500    3.500    1.000 
#    0.000    1.250    0.000    4.500    0.000    0.000 
#    0.000    0.000    0.000    0.000    0.000    0.000 
#
# Total GULP energy -178901.028615 kJ/mol
# GULP energy per Si atom -5590.657144 kJ/mol
# Density = 1.953775 g / cm^3
# Si number density = 19.582324 Si / 1000 Ang^3
#
#
#
# Elastic Constant Matrix: (Units=GPa)
#
#
# Indices 1 2 3 4 5 6 
#
# 1 83.2915 50.6036 63.7009 0.0000 0.0000 0.0000
# 2 50.6036 101.0820 43.8877 0.0000 0.0000 0.0000
# 3 63.7009 43.8877 152.5895 0.0000 0.0000 0.0000
# 4 0.0000 0.0000 0.0000 34.2458 0.0000 0.0000
# 5 0.0000 0.0000 0.0000 0.0000 18.4850 0.0000
# 6 0.0000 0.0000 0.0000 0.0000 0.0000 9.7645
#
#
#
# Elastic Compliance Matrix: (Units=1/GPa)
#
#
# Indices 1 2 3 4 5 6 
#
# 1 0.022263 -0.008125 -0.006957 0.000000 0.000000 0.000000
# 2 -0.008125 0.014270 -0.000712 0.000000 0.000000 0.000000
# 3 -0.006957 -0.000712 0.009663 0.000000 0.000000 0.000000
# 4 0.000000 0.000000 0.000000 0.029201 0.000000 0.000000
# 5 0.000000 0.000000 0.000000 0.000000 0.054098 0.000000
# 6 0.000000 0.000000 0.000000 0.000000 0.000000 0.102412
#
#
# Mechanical properties :
#
#
# Convention : Reuss Voigt Hill
#
# Bulk Modulus (GPa) = 68.46106 72.59414 70.52760
# Shear Modulus (GPa) = 18.63146 24.41712 21.52429
#
# Velocity S-wave (km/s) = 3.08789 3.53497 3.31897
# Velocity P-wave (km/s) = 6.91014 7.33574 7.12612
#
# Compressibility (1/GPa) = 0.01460684
#
# Stress axis : x y z
#
# Youngs Moduli (GPa) = 44.91765 70.07894 103.48892
#
# Poissons Ratio (x) = 0.56936 0.72000
# Poissons Ratio (y) = 0.36494 0.07373
# Poissons Ratio (z) = 0.31250 0.04993
#
# Static dielectric constant tensor:
#      x y z
#    x 1.672340 0.000000 0.000000 
#    y 0.000000 1.712990 0.000000 
#    z 0.000000 0.000000 1.718100 
# 
# From -- ./inp_files/7776.got.cif
#   From: 2010.05.17/outbox.cif.g08.bks.cpg/sg64_4_cif.got.tgz:7776.got - 2010.06.03 16:29:19.
