data_PCOD9481165
_publ_section_title
;
Structure prediction by ZEFSAII (Michael W. Deem and Ramdas Pophale) SiO2 
 PCOD9481165
Probable space group: C M C A
;
_chemical_formula_sum "Si O2"
_cell_formula_units_Z 88
_cell_length_a 24.169371
_cell_length_b 10.683714
_cell_length_c 15.533649
_cell_angle_alpha 90.000000
_cell_angle_beta 90.000000
_cell_angle_gamma 90.000000
_cell_volume 4011.077833
_symmetry_space_group_name_H-M "C M C A"
_symmetry_group_IT_number 64
_symmetry_cell_setting 'orthorhombic'
loop_
_space_group_symop_operation_xyz
x,y,z
-x,1/2-y,1/2+z
x,-y,-z
-x,1/2+y,1/2-z
-x,-y,-z
x,1/2+y,1/2-z
-x,y,z
x,1/2-y,1/2+z
1/2+x,1/2+y,z
1/2-x,-y,1/2+z
1/2+x,1/2-y,-z
1/2-x,y,1/2-z
1/2-x,1/2-y,-z
1/2+x,y,1/2-z
1/2-x,1/2+y,z
1/2+x,-y,1/2+z
loop_
_atom_site_type_symbol
_atom_site_label
_atom_site_fract_x
_atom_site_fract_y
_atom_site_fract_z
Si Si1 0.187000 0.965014 0.398561
Si Si2 0.378427 0.202974 0.134628
Si Si3 0.000000 0.733348 0.090481
Si Si4 0.500000 0.335631 0.905587
Si Si5 0.000000 0.943134 0.226022
Si Si6 0.592420 0.174211 0.815430
Si Si7 0.211675 0.136486 0.955005
O O1 0.142815 0.861583 0.375084
O O2 0.247496 0.911924 0.379272
O O3 0.186235 0.000000 0.500000
O O4 0.163799 0.088476 0.354454
O O5 0.438832 0.169891 0.092724
O O6 0.387597 0.262450 0.227877
O O7 0.345179 0.301665 0.075122
O O8 0.000000 0.807737 0.180574
O O9 0.000000 0.825408 0.008181
O O10 0.500000 0.463337 0.852773
O O11 0.552648 0.261801 0.869825
O O12 0.945433 0.943858 0.284442
O O13 0.250000 0.250000 0.000000
O O14 0.199971 0.000000 0.000000
#
# Coordination Sequence:
#
# PCOD9481165 Si02
#       7
#    16  16   8   8   8  16  16
#     4  11  22  43  69  94 135 178 238 282 339 418
#     4  11  23  45  67 101 139 179 229 289 353 415
#     4  10  23  39  68  98 129 175 225 281 348 416
#     4  11  20  36  60  91 131 177 228 275 343 413
#     4   9  20  39  55  89 138 172 217 282 350 407
#     4  10  23  38  60  94 133 179 225 289 343 405
#     4  11  23  45  72 100 139 181 229 288 339 414
#
# _framework density 21.939240999999999
#
# number of rings (size 3 to 8) (size 9 to 14) (size 15 to 20)
#    0.000    1.455    3.636    3.000    0.000    5.091 
#    3.273    5.000    0.000    0.000    0.000    0.000 
#    0.000    0.000    0.000    0.000    0.000    0.000 
#
# Total GULP energy -245159.628025 kJ/mol
# GULP energy per Si atom -5571.809728 kJ/mol
# Density = 2.188931 g / cm^3
# Si number density = 21.939241 Si / 1000 Ang^3
#
#
#
# Elastic Constant Matrix: (Units=GPa)
#
#
# Indices 1 2 3 4 5 6 
#
# 1 120.7904 38.0464 31.0732 0.0000 0.0000 0.0000
# 2 38.0464 81.3174 -1.1204 0.0000 0.0000 0.0000
# 3 31.0732 -1.1204 56.3765 0.0000 0.0000 0.0000
# 4 0.0000 0.0000 0.0000 32.9590 0.0000 0.0000
# 5 0.0000 0.0000 0.0000 0.0000 17.4939 0.0000
# 6 0.0000 0.0000 0.0000 0.0000 0.0000 -96.6351
#
#
#
# Elastic Compliance Matrix: (Units=1/GPa)
#
#
# Indices 1 2 3 4 5 6 
#
# 1 0.011727 -0.005577 -0.006574 0.000000 0.000000 0.000000
# 2 -0.005577 0.014953 0.003371 0.000000 0.000000 0.000000
# 3 -0.006574 0.003371 0.021428 0.000000 0.000000 0.000000
# 4 0.000000 0.000000 0.000000 0.030341 0.000000 0.000000
# 5 0.000000 0.000000 0.000000 0.000000 0.057163 0.000000
# 6 0.000000 0.000000 0.000000 0.000000 0.000000 -0.010348
#
#
# Mechanical properties :
#
#
# Convention : Reuss Voigt Hill
#
# Bulk Modulus (GPa) = 32.73547 43.83141 38.28344
# Shear Modulus (GPa) = 32.67819 3.46256 18.07038
#
# Velocity S-wave (km/s) = 3.86357 1.25765 2.87305
# Velocity P-wave (km/s) = 5.90392 4.70434 5.33794
#
# Compressibility (1/GPa) = 0.03054790
#
# Stress axis : x y z
#
# Youngs Moduli (GPa) = 85.27509 66.87443 46.66693
#
# Poissons Ratio (x) = 0.37297 0.30680
# Poissons Ratio (y) = 0.47560 -0.15732
# Poissons Ratio (z) = 0.56062 -0.22545
#
# Static dielectric constant tensor:
#      x y z
#    x 1.852480 0.000000 0.000000 
#    y 0.000000 1.885150 0.000000 
#    z 0.000000 0.000000 1.775220 
# 
# From -- ./inp_files/27241.got.cif
#   From: 2010.05.17/outbox.cif.g08.bks.cpg/sg64_14_cif.got.tgz:27241.got - 2010.06.03 16:29:19.
