data_PCOD9481494
_publ_section_title
;
Structure prediction by ZEFSAII (Michael W. Deem and Ramdas Pophale) SiO2 
 PCOD9481494
Probable space group: C M C A
;
_chemical_formula_sum "Si O2"
_cell_formula_units_Z 56
_cell_length_a 19.120443
_cell_length_b 12.339019
_cell_length_c 8.725773
_cell_angle_alpha 90.000000
_cell_angle_beta 90.000000
_cell_angle_gamma 90.000000
_cell_volume 2058.649892
_symmetry_space_group_name_H-M "C M C A"
_symmetry_group_IT_number 64
_symmetry_cell_setting 'orthorhombic'
loop_
_space_group_symop_operation_xyz
x,y,z
-x,1/2-y,1/2+z
x,-y,-z
-x,1/2+y,1/2-z
-x,-y,-z
x,1/2+y,1/2-z
-x,y,z
x,1/2-y,1/2+z
1/2+x,1/2+y,z
1/2-x,-y,1/2+z
1/2+x,1/2-y,-z
1/2-x,y,1/2-z
1/2-x,1/2-y,-z
1/2+x,y,1/2-z
1/2-x,1/2+y,z
1/2+x,-y,1/2+z
loop_
_atom_site_type_symbol
_atom_site_label
_atom_site_fract_x
_atom_site_fract_y
_atom_site_fract_z
Si Si1 0.127215 0.000000 0.000000
Si Si2 0.250000 0.845987 0.750000
Si Si3 0.000000 0.749466 0.091141
Si Si4 0.676799 0.000000 0.000000
Si Si5 0.000000 0.600939 0.319642
Si Si6 0.360163 0.340288 0.244072
O O1 0.169145 0.087005 0.898321
O O2 0.071253 0.953820 0.876110
O O3 0.219732 0.922988 0.617450
O O4 0.312695 0.762330 0.711901
O O5 0.931330 0.799794 0.168104
O O6 0.000000 0.625522 0.141461
O O7 0.000000 0.787483 0.918063
O O8 0.634832 0.083431 0.891637
#
# Coordination Sequence:
#
# PCOD9481494 Si02
#       6
#     8   8   8   8   8  16
#     4   9  22  45  73 111 152 204 248 310 386 444
#     4  12  30  56  76 112 154 202 262 320 386 468
#     4  10  24  43  74 116 153 206 253 315 383 443
#     4  12  30  50  79 112 148 209 254 322 392 462
#     4   9  20  40  70 108 157 200 243 310 373 455
#     4  11  27  49  80 116 158 202 259 318 380 464
#
# _framework density 27.202294999999999
#
# number of rings (size 3 to 8) (size 9 to 14) (size 15 to 20)
#    0.000    1.429    0.000    2.571   12.000    5.143 
#    0.000    0.000    0.000    0.000    0.000    0.000 
#    0.000    0.000    0.000    0.000    0.000    0.000 
#
# Total GULP energy -156854.984483 kJ/mol
# GULP energy per Si atom -5601.963732 kJ/mol
# Density = 2.714038 g / cm^3
# Si number density = 27.202295 Si / 1000 Ang^3
#
#
#
# Elastic Constant Matrix: (Units=GPa)
#
#
# Indices 1 2 3 4 5 6 
#
# 1 42.6022 0.9063 11.9582 0.0000 0.0000 0.0000
# 2 0.9063 102.6644 38.5186 0.0000 0.0000 0.0000
# 3 11.9582 38.5186 98.5700 0.0000 0.0000 0.0000
# 4 0.0000 0.0000 0.0000 79.3701 0.0000 0.0000
# 5 0.0000 0.0000 0.0000 0.0000 46.9853 0.0000
# 6 0.0000 0.0000 0.0000 0.0000 0.0000 11.7539
#
#
#
# Elastic Compliance Matrix: (Units=1/GPa)
#
#
# Indices 1 2 3 4 5 6 
#
# 1 0.024396 0.001049 -0.003370 0.000000 0.000000 0.000000
# 2 0.001049 0.011459 -0.004605 0.000000 0.000000 0.000000
# 3 -0.003370 -0.004605 0.012353 0.000000 0.000000 0.000000
# 4 0.000000 0.000000 0.000000 0.012599 0.000000 0.000000
# 5 0.000000 0.000000 0.000000 0.000000 0.021283 0.000000
# 6 0.000000 0.000000 0.000000 0.000000 0.000000 0.085078
#
#
# Mechanical properties :
#
#
# Convention : Reuss Voigt Hill
#
# Bulk Modulus (GPa) = 29.10594 38.51141 33.80867
# Shear Modulus (GPa) = 25.97759 40.45209 33.21484
#
# Velocity S-wave (km/s) = 3.09362 3.86046 3.49812
# Velocity P-wave (km/s) = 4.84600 5.83601 5.36389
#
# Compressibility (1/GPa) = 0.03435725
#
# Stress axis : x y z
#
# Youngs Moduli (GPa) = 40.98953 87.26759 80.94918
#
# Poissons Ratio (x) = -0.09153 0.27276
# Poissons Ratio (y) = -0.04299 0.37278
# Poissons Ratio (z) = 0.13812 0.40188
#
# Static dielectric constant tensor:
#      x y z
#    x 2.139760 0.000000 0.000000 
#    y 0.000000 2.206580 0.000000 
#    z 0.000000 0.000000 2.066230 
# 
# From -- ./inp_files/7680.got.cif
#   From: 2010.05.17/outbox.cif.g08.bks.cpg/sg64_4_cif.got.tgz:7680.got - 2010.06.03 16:29:19.
