data_PCOD9481797
_publ_section_title
;
Structure prediction by ZEFSAII (Michael W. Deem and Ramdas Pophale) SiO2 
 PCOD9481797
Probable space group: C M C A
;
_chemical_formula_sum "Si O2"
_cell_formula_units_Z 48
_cell_length_a 12.268367
_cell_length_b 20.051108
_cell_length_c 9.386038
_cell_angle_alpha 90.000000
_cell_angle_beta 90.000000
_cell_angle_gamma 90.000000
_cell_volume 2308.912333
_symmetry_space_group_name_H-M "C M C A"
_symmetry_group_IT_number 64
_symmetry_cell_setting 'orthorhombic'
loop_
_space_group_symop_operation_xyz
x,y,z
-x,1/2-y,1/2+z
x,-y,-z
-x,1/2+y,1/2-z
-x,-y,-z
x,1/2+y,1/2-z
-x,y,z
x,1/2-y,1/2+z
1/2+x,1/2+y,z
1/2-x,-y,1/2+z
1/2+x,1/2-y,-z
1/2-x,y,1/2-z
1/2-x,1/2-y,-z
1/2+x,y,1/2-z
1/2-x,1/2+y,z
1/2+x,-y,1/2+z
loop_
_atom_site_type_symbol
_atom_site_label
_atom_site_fract_x
_atom_site_fract_y
_atom_site_fract_z
Si Si1 0.500000 0.012680 0.742119
Si Si2 0.769176 0.682191 0.417060
Si Si3 0.304193 0.047391 0.100348
Si Si4 0.000000 0.110558 0.019609
O O1 0.500000 0.076356 0.637874
O O2 0.399595 0.002237 0.850225
O O3 0.500000 0.948284 0.637840
O O4 0.750000 0.696697 0.250000
O O5 0.750000 0.750000 0.500000
O O6 0.685950 0.621658 0.460773
O O7 0.889959 0.653039 0.451854
O O8 0.250000 0.062049 0.250000
O O9 0.231925 0.000000 0.000000
#
# Coordination Sequence:
#
# PCOD9481797 Si02
#       4
#     8  16  16   8
#     4  11  21  39  71  99 126 169 219 281 343 395
#     4  11  25  42  64  95 134 182 223 276 340 412
#     4  11  22  39  65  96 133 170 223 279 336 402
#     4  11  22  43  69  97 129 175 222 287 348 403
#
# _framework density 20.789010000000001
#
# number of rings (size 3 to 8) (size 9 to 14) (size 15 to 20)
#    0.000    1.000    6.667    2.500    0.000    6.667 
#    0.000    0.000    0.000    0.000    0.000    0.000 
#    0.000    0.000    0.000    0.000    0.000    0.000 
#
# Total GULP energy -133634.710983 kJ/mol
# GULP energy per Si atom -5568.112958 kJ/mol
# Density = 2.074169 g / cm^3
# Si number density = 20.789010 Si / 1000 Ang^3
#
#
#
# Elastic Constant Matrix: (Units=GPa)
#
#
# Indices 1 2 3 4 5 6 
#
# 1 97.8781 40.0025 27.6578 0.0000 0.0000 0.0000
# 2 40.0025 190.6368 97.6887 0.0000 0.0000 0.0000
# 3 27.6578 97.6887 115.6896 0.0000 0.0000 0.0000
# 4 0.0000 0.0000 0.0000 45.5815 0.0000 0.0000
# 5 0.0000 0.0000 0.0000 0.0000 16.4086 0.0000
# 6 0.0000 0.0000 0.0000 0.0000 0.0000 19.0235
#
#
#
# Elastic Compliance Matrix: (Units=1/GPa)
#
#
# Indices 1 2 3 4 5 6 
#
# 1 0.011274 -0.001735 -0.001230 0.000000 0.000000 0.000000
# 2 -0.001735 0.009514 -0.007619 0.000000 0.000000 0.000000
# 3 -0.001230 -0.007619 0.015371 0.000000 0.000000 0.000000
# 4 0.000000 0.000000 0.000000 0.021939 0.000000 0.000000
# 5 0.000000 0.000000 0.000000 0.000000 0.060944 0.000000
# 6 0.000000 0.000000 0.000000 0.000000 0.000000 0.052567
#
#
# Mechanical properties :
#
#
# Convention : Reuss Voigt Hill
#
# Bulk Modulus (GPa) = 66.70769 81.65583 74.18176
# Shear Modulus (GPa) = 25.28168 32.12641 28.70405
#
# Velocity S-wave (km/s) = 3.49106 3.93537 3.71985
# Velocity P-wave (km/s) = 6.95756 7.74681 7.36277
#
# Compressibility (1/GPa) = 0.01499078
#
# Stress axis : x y z
#
# Youngs Moduli (GPa) = 88.70322 105.11126 65.05783
#
# Poissons Ratio (x) = 0.18241 0.08000
# Poissons Ratio (y) = 0.15394 0.49565
# Poissons Ratio (z) = 0.10908 0.80079
#
# Static dielectric constant tensor:
#      x y z
#    x 1.882660 0.000000 0.000000 
#    y 0.000000 1.790840 0.000000 
#    z 0.000000 0.000000 1.816650 
# 
# From -- ./inp_files/12622.got.cif
#   From: 2010.05.17/outbox.cif.g08.bks.cpg/sg64_7_cif.got.tgz:12622.got - 2010.06.03 16:29:19.
