data_PCOD9481473
_publ_section_title
;
Structure prediction by ZEFSAII (Michael W. Deem and Ramdas Pophale) SiO2 
 PCOD9481473
Probable space group: C M C A
;
_chemical_formula_sum "Si O2"
_cell_formula_units_Z 72
_cell_length_a 10.052987
_cell_length_b 21.885267
_cell_length_c 14.309127
_cell_angle_alpha 90.000000
_cell_angle_beta 90.000000
_cell_angle_gamma 90.000000
_cell_volume 3148.184009
_symmetry_space_group_name_H-M "C M C A"
_symmetry_group_IT_number 64
_symmetry_cell_setting 'orthorhombic'
loop_
_space_group_symop_operation_xyz
x,y,z
-x,1/2-y,1/2+z
x,-y,-z
-x,1/2+y,1/2-z
-x,-y,-z
x,1/2+y,1/2-z
-x,y,z
x,1/2-y,1/2+z
1/2+x,1/2+y,z
1/2-x,-y,1/2+z
1/2+x,1/2-y,-z
1/2-x,y,1/2-z
1/2-x,1/2-y,-z
1/2+x,y,1/2-z
1/2-x,1/2+y,z
1/2+x,-y,1/2+z
loop_
_atom_site_type_symbol
_atom_site_label
_atom_site_fract_x
_atom_site_fract_y
_atom_site_fract_z
Si Si1 0.000000 0.195084 0.274506
Si Si2 0.651953 0.492340 0.113471
Si Si3 0.000000 0.280784 0.114700
Si Si4 0.768582 0.133303 0.580742
Si Si5 0.354695 0.405367 0.625845
Si Si6 0.500000 0.291672 0.070533
O O1 0.000000 0.216505 0.168809
O O2 0.877343 0.153593 0.309231
O O3 0.000000 0.258192 0.330516
O O4 0.500000 0.490496 0.146828
O O5 0.730414 0.429685 0.131370
O O6 0.734342 0.550120 0.148656
O O7 0.647823 0.500000 0.000000
O O8 0.870261 0.321900 0.132963
O O9 0.000000 0.261318 0.006529
O O10 0.832838 0.116461 0.480657
O O11 0.631078 0.167924 0.560877
O O12 0.500000 0.437796 0.629622
#
# Coordination Sequence:
#
# PCOD9481473 Si02
#       6
#     8  16   8  16  16   8
#     4  10  24  43  62 104 139 183 241 284 339 427
#     4   9  18  33  63 107 135 174 226 288 359 415
#     4  12  24  39  70  96 143 197 228 278 360 405
#     4  11  21  39  66 104 135 184 230 287 346 422
#     4   9  19  38  63 100 141 171 230 289 337 421
#     4  12  24  44  63  99 146 178 235 286 339 426
#
# _framework density 22.870328000000001
#
# number of rings (size 3 to 8) (size 9 to 14) (size 15 to 20)
#    0.667    1.111    4.444    0.667    3.111    2.222 
#    0.000    0.000    2.444    0.000   52.000    0.000 
#    0.000    0.000    0.000    0.000    0.000    0.000 
#
# Total GULP energy -201295.466149 kJ/mol
# GULP energy per Si atom -5591.540726 kJ/mol
# Density = 2.281827 g / cm^3
# Si number density = 22.870328 Si / 1000 Ang^3
#
#
#
# Elastic Constant Matrix: (Units=GPa)
#
#
# Indices 1 2 3 4 5 6 
#
# 1 127.1505 42.1953 25.3062 0.0000 0.0000 0.0000
# 2 42.1953 107.5785 13.4197 0.0000 0.0000 0.0000
# 3 25.3062 13.4197 52.2969 0.0000 0.0000 0.0000
# 4 0.0000 0.0000 0.0000 26.3272 0.0000 0.0000
# 5 0.0000 0.0000 0.0000 0.0000 15.1469 0.0000
# 6 0.0000 0.0000 0.0000 0.0000 0.0000 76.9147
#
#
#
# Elastic Compliance Matrix: (Units=1/GPa)
#
#
# Indices 1 2 3 4 5 6 
#
# 1 0.009740 -0.003339 -0.003856 0.000000 0.000000 0.000000
# 2 -0.003339 0.010748 -0.001142 0.000000 0.000000 0.000000
# 3 -0.003856 -0.001142 0.021281 0.000000 0.000000 0.000000
# 4 0.000000 0.000000 0.000000 0.037984 0.000000 0.000000
# 5 0.000000 0.000000 0.000000 0.000000 0.066020 0.000000
# 6 0.000000 0.000000 0.000000 0.000000 0.000000 0.013001
#
#
# Mechanical properties :
#
#
# Convention : Reuss Voigt Hill
#
# Bulk Modulus (GPa) = 39.85135 49.87427 44.86281
# Shear Modulus (GPa) = 27.20139 37.41807 32.30973
#
# Velocity S-wave (km/s) = 3.45247 4.04926 3.76272
# Velocity P-wave (km/s) = 5.77542 6.61186 6.20775
#
# Compressibility (1/GPa) = 0.02509325
#
# Stress axis : x y z
#
# Youngs Moduli (GPa) = 102.66495 93.04223 46.99083
#
# Poissons Ratio (x) = 0.31071 0.18122
# Poissons Ratio (y) = 0.34284 0.05366
# Poissons Ratio (z) = 0.39592 0.10626
#
# Static dielectric constant tensor:
#      x y z
#    x 1.836780 0.000000 0.000000 
#    y 0.000000 1.839260 0.000000 
#    z 0.000000 0.000000 1.847370 
# 
# From -- ./inp_files/29558.got.cif
#   From: 2010.05.17/outbox.cif.g08.bks.cpg/sg64_15_cif.got.tgz:29558.got - 2010.06.03 16:29:19.
