data_PCOD9481621
_publ_section_title
;
Structure prediction by ZEFSAII (Michael W. Deem and Ramdas Pophale) SiO2 
 PCOD9481621
Probable space group: C M C A
;
_chemical_formula_sum "Si O2"
_cell_formula_units_Z 72
_cell_length_a 22.172208
_cell_length_b 13.984393
_cell_length_c 9.176129
_cell_angle_alpha 90.000000
_cell_angle_beta 90.000000
_cell_angle_gamma 90.000000
_cell_volume 2845.195249
_symmetry_space_group_name_H-M "C M C A"
_symmetry_group_IT_number 64
_symmetry_cell_setting 'orthorhombic'
loop_
_space_group_symop_operation_xyz
x,y,z
-x,1/2-y,1/2+z
x,-y,-z
-x,1/2+y,1/2-z
-x,-y,-z
x,1/2+y,1/2-z
-x,y,z
x,1/2-y,1/2+z
1/2+x,1/2+y,z
1/2-x,-y,1/2+z
1/2+x,1/2-y,-z
1/2-x,y,1/2-z
1/2-x,1/2-y,-z
1/2+x,y,1/2-z
1/2-x,1/2+y,z
1/2+x,-y,1/2+z
loop_
_atom_site_type_symbol
_atom_site_label
_atom_site_fract_x
_atom_site_fract_y
_atom_site_fract_z
Si Si1 0.000000 0.140992 0.121172
Si Si2 0.805127 0.584017 0.596263
Si Si3 0.750000 0.247378 0.250000
Si Si4 0.622050 0.918589 0.119869
Si Si5 0.628585 0.798386 0.618222
Si Si6 0.500000 0.418394 0.198810
O O1 0.937752 0.184540 0.182287
O O2 0.000000 0.029048 0.151727
O O3 0.000000 0.148811 0.944359
O O4 0.777351 0.500000 0.500000
O O5 0.765566 0.678352 0.619769
O O6 0.828807 0.555437 0.755261
O O7 0.862564 0.622084 0.505618
O O8 0.688532 0.191377 0.282288
O O9 0.632838 0.810755 0.063263
O O10 0.558848 0.908289 0.202766
O O11 0.620255 0.000000 0.000000
#
# Coordination Sequence:
#
# PCOD9481621 Si02
#       6
#     8  16   8  16  16   8
#     4  11  23  43  82 109 148 200 255 312 385 455
#     4  11  24  46  75 105 148 200 255 315 389 463
#     4  10  26  44  72 112 154 198 262 316 386 458
#     4  11  25  44  69 111 156 196 251 319 383 461
#     4  11  24  46  72 111 153 202 251 317 385 462
#     4  11  22  45  71 113 150 197 244 313 381 453
#
# _framework density 25.305821000000002
#
# number of rings (size 3 to 8) (size 9 to 14) (size 15 to 20)
#    0.000    1.111    2.222    3.000    0.000   11.556 
#    4.000    0.000    0.000    0.000    0.000    0.000 
#    0.000    0.000    0.000    0.000    0.000    0.000 
#
# Total GULP energy -201511.499416 kJ/mol
# GULP energy per Si atom -5597.541650 kJ/mol
# Density = 2.524822 g / cm^3
# Si number density = 25.305821 Si / 1000 Ang^3
#
#
#
# Elastic Constant Matrix: (Units=GPa)
#
#
# Indices 1 2 3 4 5 6 
#
# 1 187.3985 10.3708 38.4336 0.0000 0.0000 0.0000
# 2 10.3708 99.9842 36.6940 0.0000 0.0000 0.0000
# 3 38.4336 36.6940 92.5467 0.0000 0.0000 0.0000
# 4 0.0000 0.0000 0.0000 42.4244 0.0000 0.0000
# 5 0.0000 0.0000 0.0000 0.0000 92.5747 0.0000
# 6 0.0000 0.0000 0.0000 0.0000 0.0000 22.8609
#
#
#
# Elastic Compliance Matrix: (Units=1/GPa)
#
#
# Indices 1 2 3 4 5 6 
#
# 1 0.005842 0.000333 -0.002558 0.000000 0.000000 0.000000
# 2 0.000333 0.011724 -0.004787 0.000000 0.000000 0.000000
# 3 -0.002558 -0.004787 0.013766 0.000000 0.000000 0.000000
# 4 0.000000 0.000000 0.000000 0.023571 0.000000 0.000000
# 5 0.000000 0.000000 0.000000 0.000000 0.010802 0.000000
# 6 0.000000 0.000000 0.000000 0.000000 0.000000 0.043743
#
#
# Mechanical properties :
#
#
# Convention : Reuss Voigt Hill
#
# Bulk Modulus (GPa) = 57.77742 61.21403 59.49573
# Shear Modulus (GPa) = 38.68727 51.20072 44.94400
#
# Velocity S-wave (km/s) = 3.91422 4.50297 4.21887
# Velocity P-wave (km/s) = 6.58098 7.16085 6.87703
#
# Compressibility (1/GPa) = 0.01730780
#
# Stress axis : x y z
#
# Youngs Moduli (GPa) = 171.16014 85.29713 72.64467
#
# Poissons Ratio (x) = -0.02839 0.18585
# Poissons Ratio (y) = -0.05698 0.34772
# Poissons Ratio (z) = 0.43788 0.40828
#
# Static dielectric constant tensor:
#      x y z
#    x 2.059370 0.000000 0.000000 
#    y 0.000000 1.962630 0.000000 
#    z 0.000000 0.000000 2.058640 
# 
# From -- ./inp_files/10064.got.cif
#   From: 2010.05.17/outbox.cif.g08.bks.cpg/sg64_6_cif.got.tgz:10064.got - 2010.06.03 16:29:19.
