data_PCOD9481845
_publ_section_title
;
Structure prediction by ZEFSAII (Michael W. Deem and Ramdas Pophale) SiO2 
 PCOD9481845
Probable space group: C M C A
;
_chemical_formula_sum "Si O2"
_cell_formula_units_Z 64
_cell_length_a 21.326116
_cell_length_b 31.667224
_cell_length_c 5.149927
_cell_angle_alpha 90.000000
_cell_angle_beta 90.000000
_cell_angle_gamma 90.000000
_cell_volume 3477.945996
_symmetry_space_group_name_H-M "C M C A"
_symmetry_group_IT_number 64
_symmetry_cell_setting 'orthorhombic'
loop_
_space_group_symop_operation_xyz
x,y,z
-x,1/2-y,1/2+z
x,-y,-z
-x,1/2+y,1/2-z
-x,-y,-z
x,1/2+y,1/2-z
-x,y,z
x,1/2-y,1/2+z
1/2+x,1/2+y,z
1/2-x,-y,1/2+z
1/2+x,1/2-y,-z
1/2-x,y,1/2-z
1/2-x,1/2-y,-z
1/2+x,y,1/2-z
1/2-x,1/2+y,z
1/2+x,-y,1/2+z
loop_
_atom_site_type_symbol
_atom_site_label
_atom_site_fract_x
_atom_site_fract_y
_atom_site_fract_z
Si Si1 0.174847 0.127705 0.202959
Si Si2 0.630185 0.921793 0.195044
Si Si3 0.673887 0.274601 0.762101
Si Si4 0.288240 0.000000 0.000000
Si Si5 0.500000 0.969321 0.250312
O O1 0.250000 0.124927 0.250000
O O2 0.138257 0.108887 0.449381
O O3 0.158107 0.177102 0.176142
O O4 0.157016 0.101478 0.947843
O O5 0.671179 0.962549 0.119822
O O6 0.561019 0.939669 0.244808
O O7 0.652105 0.257261 0.485466
O O8 0.750000 0.273190 0.750000
O O9 0.250000 0.983411 0.750000
O O10 0.500000 0.000000 0.500000
O O11 0.500000 0.000000 0.000000
#
# Coordination Sequence:
#
# PCOD9481845 Si02
#       5
#    16  16  16   8   8
#     4  11  22  37  58  92 124 148 187 241 294 351
#     4  12  24  40  59  83 114 156 197 244 289 331
#     4   9  17  31  53  82 119 155 182 217 280 355
#     4  12  24  37  58  85 118 150 186 232 302 362
#     4  12  26  46  62  78 108 156 212 252 272 334
#
# _framework density 18.401668000000001
#
# number of rings (size 3 to 8) (size 9 to 14) (size 15 to 20)
#    0.000    1.000    1.250    7.500    1.750    4.000 
#    0.000    0.000    0.000    0.000    0.000   17.500 
#    0.000    0.000    0.000    0.000    0.000    0.000 
#
# Total GULP energy -178856.889122 kJ/mol
# GULP energy per Si atom -5589.277785 kJ/mol
# Density = 1.835979 g / cm^3
# Si number density = 18.401668 Si / 1000 Ang^3
#
#
#
# Elastic Constant Matrix: (Units=GPa)
#
#
# Indices 1 2 3 4 5 6 
#
# 1 83.3309 55.5558 46.0768 0.0000 0.0000 0.0000
# 2 55.5558 143.5417 70.1301 0.0000 0.0000 0.0000
# 3 46.0768 70.1301 164.6962 0.0000 0.0000 0.0000
# 4 0.0000 0.0000 0.0000 35.6601 0.0000 0.0000
# 5 0.0000 0.0000 0.0000 0.0000 16.5948 0.0000
# 6 0.0000 0.0000 0.0000 0.0000 0.0000-1352.7309
#
#
#
# Elastic Compliance Matrix: (Units=1/GPa)
#
#
# Indices 1 2 3 4 5 6 
#
# 1 0.016926 -0.005351 -0.002457 0.000000 0.000000 0.000000
# 2 -0.005351 0.010488 -0.002969 0.000000 0.000000 0.000000
# 3 -0.002457 -0.002969 0.008023 0.000000 0.000000 0.000000
# 4 0.000000 0.000000 0.000000 0.028043 0.000000 0.000000
# 5 0.000000 0.000000 0.000000 0.000000 0.060260 0.000000
# 6 0.000000 0.000000 0.000000 0.000000 0.000000 -0.000739
#
#
# Mechanical properties :
#
#
# Convention : Reuss Voigt Hill
#
# Bulk Modulus (GPa) = 72.02378 81.67712 76.85045
# Shear Modulus (GPa) = 33.51606 -245.44145 -105.96270
#
# Velocity S-wave (km/s) = 4.27237 -11.56156 -7.59659
# Velocity P-wave (km/s) = 7.97260 11.56477 5.92375
#
# Compressibility (1/GPa) = 0.01388430
#
# Stress axis : x y z
#
# Youngs Moduli (GPa) = 59.08032 95.34641 124.63463
#
# Poissons Ratio (x) = 0.51016 0.30623
# Poissons Ratio (y) = 0.31611 0.37005
# Poissons Ratio (z) = 0.14516 0.28309
#
# Static dielectric constant tensor:
#      x y z
#    x 1.633390 0.000000 0.000000 
#    y 0.000000 1.630920 0.000000 
#    z 0.000000 0.000000 1.631550 
# 
# From -- ./inp_files/1368.got.cif
#   From: 2010.05.17/outbox.cif.g08.bks.cpg/sg64_1_cif.got.tgz:1368.got - 2010.06.03 16:29:19.
