data_PCOD9481651
_publ_section_title
;
Structure prediction by ZEFSAII (Michael W. Deem and Ramdas Pophale) SiO2 
 PCOD9481651
Probable space group: C M C A
;
_chemical_formula_sum "Si O2"
_cell_formula_units_Z 112
_cell_length_a 23.645640
_cell_length_b 14.940876
_cell_length_c 14.778330
_cell_angle_alpha 90.000000
_cell_angle_beta 90.000000
_cell_angle_gamma 90.000000
_cell_volume 5220.985593
_symmetry_space_group_name_H-M "C M C A"
_symmetry_group_IT_number 64
_symmetry_cell_setting 'orthorhombic'
loop_
_space_group_symop_operation_xyz
x,y,z
-x,1/2-y,1/2+z
x,-y,-z
-x,1/2+y,1/2-z
-x,-y,-z
x,1/2+y,1/2-z
-x,y,z
x,1/2-y,1/2+z
1/2+x,1/2+y,z
1/2-x,-y,1/2+z
1/2+x,1/2-y,-z
1/2-x,y,1/2-z
1/2-x,1/2-y,-z
1/2+x,y,1/2-z
1/2-x,1/2+y,z
1/2+x,-y,1/2+z
loop_
_atom_site_type_symbol
_atom_site_label
_atom_site_fract_x
_atom_site_fract_y
_atom_site_fract_z
Si Si1 0.238821 0.991788 0.850504
Si Si2 0.880230 0.469196 0.718948
Si Si3 0.760569 0.197728 0.645041
Si Si4 0.882592 0.716359 0.378054
Si Si5 0.434751 0.343466 0.237396
Si Si6 0.362859 0.230070 0.571779
Si Si7 0.657890 0.431443 0.576389
O O1 0.250000 0.954055 0.750000
O O2 0.267272 0.089808 0.857110
O O3 0.171346 0.999025 0.848606
O O4 0.272982 0.930663 0.919935
O O5 0.895337 0.370698 0.682950
O O6 0.924057 0.550422 0.725553
O O7 0.859674 0.458500 0.822493
O O8 0.750000 0.220664 0.750000
O O9 0.816741 0.252009 0.621300
O O10 0.703898 0.213922 0.588166
O O11 0.915379 0.800021 0.333061
O O12 0.891132 0.689277 0.482386
O O13 0.500000 0.322379 0.222361
O O14 0.394575 0.298754 0.162345
O O15 0.367156 0.335738 0.557084
O O16 0.639948 0.500000 0.500000
#
# Coordination Sequence:
#
# PCOD9481651 Si02
#       7
#    16  16  16  16  16  16  16
#     4   9  18  32  59  94 142 179 215 264 335 415
#     4  11  22  44  66  96 135 185 228 287 348 411
#     4  11  18  38  67 102 149 182 223 277 352 431
#     4  12  25  43  73 103 140 185 229 291 365 431
#     4  12  27  50  72  95 135 186 247 306 347 410
#     4  12  24  43  68 106 143 182 228 287 358 432
#     4  11  21  37  65 103 140 175 225 275 345 427
#
# _framework density 21.451888
#
# number of rings (size 3 to 8) (size 9 to 14) (size 15 to 20)
#    0.000    0.857    4.286    4.714    0.000    4.000 
#    0.000    0.714    0.000    1.714    0.000    0.000 
#    0.000    0.000    0.000    0.000    0.000    0.000 
#
# Total GULP energy -312746.458808 kJ/mol
# GULP energy per Si atom -5584.758193 kJ/mol
# Density = 2.140306 g / cm^3
# Si number density = 21.451888 Si / 1000 Ang^3
#
#
#
# Elastic Constant Matrix: (Units=GPa)
#
#
# Indices 1 2 3 4 5 6 
#
# 1 52.2148 11.1277 -6.9519 0.0000 0.0000 0.0000
# 2 11.1277 96.0376 12.4365 0.0000 0.0000 0.0000
# 3 -6.9519 12.4365 88.8226 0.0000 0.0000 0.0000
# 4 0.0000 0.0000 0.0000 29.4237 0.0000 0.0000
# 5 0.0000 0.0000 0.0000 0.0000 4.7378 0.0000
# 6 0.0000 0.0000 0.0000 0.0000 0.0000 10.5718
#
#
#
# Elastic Compliance Matrix: (Units=1/GPa)
#
#
# Indices 1 2 3 4 5 6 
#
# 1 0.019953 -0.002561 0.001920 0.000000 0.000000 0.000000
# 2 -0.002561 0.010933 -0.001731 0.000000 0.000000 0.000000
# 3 0.001920 -0.001731 0.011651 0.000000 0.000000 0.000000
# 4 0.000000 0.000000 0.000000 0.033986 0.000000 0.000000
# 5 0.000000 0.000000 0.000000 0.000000 0.211069 0.000000
# 6 0.000000 0.000000 0.000000 0.000000 0.000000 0.094592
#
#
# Mechanical properties :
#
#
# Convention : Reuss Voigt Hill
#
# Bulk Modulus (GPa) = 26.45905 30.03329 28.24617
# Shear Modulus (GPa) = 12.51485 23.64417 18.07951
#
# Velocity S-wave (km/s) = 2.41797 3.32353 2.90624
# Velocity P-wave (km/s) = 4.48958 5.36270 4.94545
#
# Compressibility (1/GPa) = 0.03779425
#
# Stress axis : x y z
#
# Youngs Moduli (GPa) = 50.11780 91.46228 85.82893
#
# Poissons Ratio (x) = 0.23420 -0.16481
# Poissons Ratio (y) = 0.12833 0.14859
# Poissons Ratio (z) = -0.09624 0.15834
#
# Static dielectric constant tensor:
#      x y z
#    x 1.787580 0.000000 0.000000 
#    y 0.000000 1.821630 0.000000 
#    z 0.000000 0.000000 1.829180 
# 
# From -- ./inp_files/27385.got.cif
#   From: 2010.05.17/outbox.cif.g08.bks.cpg/sg64_14_cif.got.tgz:27385.got - 2010.06.03 16:29:19.
