data_PCOD9481445
_publ_section_title
;
Structure prediction by ZEFSAII (Michael W. Deem and Ramdas Pophale) SiO2 
 PCOD9481445
Probable space group: C M C A
;
_chemical_formula_sum "Si O2"
_cell_formula_units_Z 64
_cell_length_a 16.174743
_cell_length_b 19.412045
_cell_length_c 9.404285
_cell_angle_alpha 90.000000
_cell_angle_beta 90.000000
_cell_angle_gamma 90.000000
_cell_volume 2952.802911
_symmetry_space_group_name_H-M "C M C A"
_symmetry_group_IT_number 64
_symmetry_cell_setting 'orthorhombic'
loop_
_space_group_symop_operation_xyz
x,y,z
-x,1/2-y,1/2+z
x,-y,-z
-x,1/2+y,1/2-z
-x,-y,-z
x,1/2+y,1/2-z
-x,y,z
x,1/2-y,1/2+z
1/2+x,1/2+y,z
1/2-x,-y,1/2+z
1/2+x,1/2-y,-z
1/2-x,y,1/2-z
1/2-x,1/2-y,-z
1/2+x,y,1/2-z
1/2-x,1/2+y,z
1/2+x,-y,1/2+z
loop_
_atom_site_type_symbol
_atom_site_label
_atom_site_fract_x
_atom_site_fract_y
_atom_site_fract_z
Si Si1 0.093389 0.021677 0.350362
Si Si2 0.689252 0.249319 0.863872
Si Si3 0.839004 0.602337 0.712530
Si Si4 0.903077 0.121010 0.100071
O O1 0.092868 0.949654 0.267898
O O2 0.000000 0.046045 0.384640
O O3 0.134773 0.000000 0.500000
O O4 0.126520 0.077779 0.237914
O O5 0.750000 0.283374 0.750000
O O6 0.610482 0.297623 0.878854
O O7 0.750000 0.250000 0.000000
O O8 0.663701 0.324925 0.298305
O O9 0.750000 0.570329 0.750000
O O10 0.852322 0.607678 0.544235
O O11 0.000000 0.104390 0.078876
#
# Coordination Sequence:
#
# PCOD9481445 Si02
#       4
#    16  16  16  16
#     4  10  24  42  62  94 132 170 223 283 336 402
#     4  11  23  44  66  95 136 172 222 286 340 410
#     4  11  23  41  65  95 128 174 222 272 339 405
#     4  11  24  43  68  97 133 181 226 279 347 409
#
# _framework density 21.674320999999999
#
# number of rings (size 3 to 8) (size 9 to 14) (size 15 to 20)
#    0.000    1.250    5.000    1.500    3.500    7.000 
#    0.000    0.000    0.000    0.000    0.000    0.000 
#    0.000    0.000    0.000    0.000    0.000    0.000 
#
# Total GULP energy -178199.034606 kJ/mol
# GULP energy per Si atom -5568.719831 kJ/mol
# Density = 2.162499 g / cm^3
# Si number density = 21.674321 Si / 1000 Ang^3
#
#
#
# Elastic Constant Matrix: (Units=GPa)
#
#
# Indices 1 2 3 4 5 6 
#
# 1 64.6558 14.6899 22.6493 0.0000 0.0000 0.0000
# 2 14.6899 94.6144 46.5479 0.0000 0.0000 0.0000
# 3 22.6493 46.5479 174.3814 0.0000 0.0000 0.0000
# 4 0.0000 0.0000 0.0000 37.8830 0.0000 0.0000
# 5 0.0000 0.0000 0.0000 0.0000 26.1765 0.0000
# 6 0.0000 0.0000 0.0000 0.0000 0.0000 29.7960
#
#
#
# Elastic Compliance Matrix: (Units=1/GPa)
#
#
# Indices 1 2 3 4 5 6 
#
# 1 0.016446 -0.001730 -0.001674 0.000000 0.000000 0.000000
# 2 -0.001730 0.012349 -0.003072 0.000000 0.000000 0.000000
# 3 -0.001674 -0.003072 0.006772 0.000000 0.000000 0.000000
# 4 0.000000 0.000000 0.000000 0.026397 0.000000 0.000000
# 5 0.000000 0.000000 0.000000 0.000000 0.038202 0.000000
# 6 0.000000 0.000000 0.000000 0.000000 0.000000 0.033562
#
#
# Mechanical properties :
#
#
# Convention : Reuss Voigt Hill
#
# Bulk Modulus (GPa) = 44.21741 55.71397 49.96569
# Shear Modulus (GPa) = 32.42169 35.42206 33.92188
#
# Velocity S-wave (km/s) = 3.87183 4.04702 3.96039
# Velocity P-wave (km/s) = 6.35871 6.89918 6.63445
#
# Compressibility (1/GPa) = 0.02261553
#
# Stress axis : x y z
#
# Youngs Moduli (GPa) = 60.80489 80.97855 147.66791
#
# Poissons Ratio (x) = 0.14007 0.24725
# Poissons Ratio (y) = 0.10517 0.45359
# Poissons Ratio (z) = 0.10181 0.24874
#
# Static dielectric constant tensor:
#      x y z
#    x 1.873610 0.000000 0.000000 
#    y 0.000000 1.796810 0.000000 
#    z 0.000000 0.000000 1.826100 
# 
# From -- ./inp_files/5554.got.cif
#   From: 2010.05.17/outbox.cif.g08.bks.cpg/sg64_3_cif.got.tgz:5554.got - 2010.06.03 16:29:19.
