data_PCOD9481005
_publ_section_title
;
Structure prediction by ZEFSAII (Michael W. Deem and Ramdas Pophale) SiO2 
 PCOD9481005
Probable space group: C M C A
;
_chemical_formula_sum "Si O2"
_cell_formula_units_Z 80
_cell_length_a 23.638057
_cell_length_b 28.102906
_cell_length_c 5.097134
_cell_angle_alpha 90.000000
_cell_angle_beta 90.000000
_cell_angle_gamma 90.000000
_cell_volume 3386.016401
_symmetry_space_group_name_H-M "C M C A"
_symmetry_group_IT_number 64
_symmetry_cell_setting 'orthorhombic'
loop_
_space_group_symop_operation_xyz
x,y,z
-x,1/2-y,1/2+z
x,-y,-z
-x,1/2+y,1/2-z
-x,-y,-z
x,1/2+y,1/2-z
-x,y,z
x,1/2-y,1/2+z
1/2+x,1/2+y,z
1/2-x,-y,1/2+z
1/2+x,1/2-y,-z
1/2-x,y,1/2-z
1/2-x,1/2-y,-z
1/2+x,y,1/2-z
1/2-x,1/2+y,z
1/2+x,-y,1/2+z
loop_
_atom_site_type_symbol
_atom_site_label
_atom_site_fract_x
_atom_site_fract_y
_atom_site_fract_z
Si Si1 0.139187 0.719666 0.804922
Si Si2 0.566399 0.570700 0.030406
Si Si3 0.319639 0.454698 0.685605
Si Si4 0.216428 0.141267 0.512933
Si Si5 0.063934 0.868713 0.469144
O O1 0.134276 0.736835 0.507733
O O2 0.097311 0.677732 0.885620
O O3 0.195628 0.690692 0.869782
O O4 0.500000 0.551693 0.061988
O O5 0.625743 0.545032 0.116603
O O6 0.566826 0.615628 0.228384
O O7 0.573170 0.587137 0.731083
O O8 0.327399 0.500000 0.500000
O O9 0.250000 0.456218 0.750000
O O10 0.325324 0.401317 0.566744
O O11 0.250000 0.152004 0.250000
O O12 0.250000 0.117429 0.750000
O O13 0.000000 0.855018 0.416839
#
# Coordination Sequence:
#
# PCOD9481005 Si02
#       5
#    16  16  16  16  16
#     4  12  25  39  66  98 132 177 237 290 349 419
#     4  10  22  43  72 100 137 188 232 281 346 420
#     4  11  25  43  73 109 143 184 233 292 354 426
#     4  11  25  43  65  92 137 185 226 286 354 415
#     4  10  22  42  67  96 135 179 231 289 350 414
#
# _framework density 23.626584000000001
#
# number of rings (size 3 to 8) (size 9 to 14) (size 15 to 20)
#    0.000    1.200    2.000    3.000    5.600    5.200 
#    0.000    0.000    0.000    4.200    0.000    0.000 
#    0.000    0.000    0.000    0.000    0.000    0.000 
#
# Total GULP energy -222752.827584 kJ/mol
# GULP energy per Si atom -5568.820690 kJ/mol
# Density = 2.357281 g / cm^3
# Si number density = 23.626584 Si / 1000 Ang^3
#
#
#
# Elastic Constant Matrix: (Units=GPa)
#
#
# Indices 1 2 3 4 5 6 
#
# 1 139.0251 3.8197 10.8891 0.0000 0.0000 0.0000
# 2 3.8197 64.1284 -28.9580 0.0000 0.0000 0.0000
# 3 10.8891 -28.9580 45.2322 0.0000 0.0000 0.0000
# 4 0.0000 0.0000 0.0000 37.2553 0.0000 0.0000
# 5 0.0000 0.0000 0.0000 0.0000 32.3175 0.0000
# 6 0.0000 0.0000 0.0000 0.0000 0.0000 150.5657
#
#
#
# Elastic Compliance Matrix: (Units=1/GPa)
#
#
# Indices 1 2 3 4 5 6 
#
# 1 0.007471 -0.001768 -0.002931 0.000000 0.000000 0.000000
# 2 -0.001768 0.022354 0.014737 0.000000 0.000000 0.000000
# 3 -0.002931 0.014737 0.032248 0.000000 0.000000 0.000000
# 4 0.000000 0.000000 0.000000 0.026842 0.000000 0.000000
# 5 0.000000 0.000000 0.000000 0.000000 0.030943 0.000000
# 6 0.000000 0.000000 0.000000 0.000000 0.000000 0.006642
#
#
# Mechanical properties :
#
#
# Convention : Reuss Voigt Hill
#
# Bulk Modulus (GPa) = 12.17316 24.43191 18.30253
# Shear Modulus (GPa) = 37.36728 61.53669 49.45199
#
# Velocity S-wave (km/s) = 3.98122 5.10902 4.57997
# Velocity P-wave (km/s) = 5.12806 6.72057 5.97759
#
# Compressibility (1/GPa) = 0.08214796
#
# Stress axis : x y z
#
# Youngs Moduli (GPa) = 133.84942 44.73555 31.00947
#
# Poissons Ratio (x) = 0.07911 0.09088
# Poissons Ratio (y) = 0.23670 -0.45698
# Poissons Ratio (z) = 0.39228 -0.65925
#
# Static dielectric constant tensor:
#      x y z
#    x 2.184130 0.000000 0.000000 
#    y 0.000000 1.861110 0.000000 
#    z 0.000000 0.000000 1.859640 
# 
# From -- ./inp_files/2343.got.cif
#   From: 2010.05.17/outbox.cif.g08.bks.cpg/sg64_2_cif.got.tgz:2343.got - 2010.06.03 16:29:19.
