data_PCOD9481225
_publ_section_title
;
Structure prediction by ZEFSAII (Michael W. Deem and Ramdas Pophale) SiO2 
 PCOD9481225
Probable space group: C M C A
;
_chemical_formula_sum "Si O2"
_cell_formula_units_Z 96
_cell_length_a 12.295561
_cell_length_b 14.739310
_cell_length_c 27.857349
_cell_angle_alpha 90.000000
_cell_angle_beta 90.000000
_cell_angle_gamma 90.000000
_cell_volume 5048.534018
_symmetry_space_group_name_H-M "C M C A"
_symmetry_group_IT_number 64
_symmetry_cell_setting 'orthorhombic'
loop_
_space_group_symop_operation_xyz
x,y,z
-x,1/2-y,1/2+z
x,-y,-z
-x,1/2+y,1/2-z
-x,-y,-z
x,1/2+y,1/2-z
-x,y,z
x,1/2-y,1/2+z
1/2+x,1/2+y,z
1/2-x,-y,1/2+z
1/2+x,1/2-y,-z
1/2-x,y,1/2-z
1/2-x,1/2-y,-z
1/2+x,y,1/2-z
1/2-x,1/2+y,z
1/2+x,-y,1/2+z
loop_
_atom_site_type_symbol
_atom_site_label
_atom_site_fract_x
_atom_site_fract_y
_atom_site_fract_z
Si Si1 0.132569 0.184946 0.555103
Si Si2 0.787169 0.856690 0.551568
Si Si3 0.000000 0.905849 0.141698
Si Si4 0.338723 0.487976 0.289124
Si Si5 0.237240 0.469314 0.390345
Si Si6 0.000000 0.347614 0.245079
Si Si7 0.000000 0.202642 0.389698
Si Si8 0.000000 0.645840 0.221052
O O1 0.167017 0.148010 0.502488
O O2 0.189093 0.284183 0.557812
O O3 0.197004 0.119720 0.592051
O O4 0.000000 0.185198 0.560538
O O5 0.891108 0.829843 0.583966
O O6 0.746970 0.954805 0.568643
O O7 0.112466 0.952511 0.125451
O O8 0.000000 0.886569 0.199609
O O9 0.000000 0.810683 0.113779
O O10 0.250000 0.474020 0.250000
O O11 0.297918 0.502977 0.342549
O O12 0.403148 0.393554 0.284454
O O13 0.401022 0.577527 0.271457
O O14 0.000000 0.239322 0.249706
O O15 0.000000 0.170034 0.335028
#
# Coordination Sequence:
#
# PCOD9481225 Si02
#       8
#    16  16   8  16  16   8   8   8
#     4  11  26  44  66  99 132 171 221 273 327 394
#     4  11  24  44  67  97 132 172 216 274 329 394
#     4  11  23  43  65  91 135 176 218 258 327 394
#     4  11  23  42  63  95 128 166 220 272 320 388
#     4  12  25  43  67  98 132 173 220 271 332 387
#     4  10  23  43  63  92 129 172 210 268 324 380
#     4  11  19  43  67  93 129 174 215 257 332 394
#     4  10  23  41  65  92 126 170 215 264 328 384
#
# _framework density 19.015421
#
# number of rings (size 3 to 8) (size 9 to 14) (size 15 to 20)
#    0.000    1.000    5.833    0.500    4.667    1.333 
#    3.000    0.833    0.000    0.000    0.000    0.000 
#    0.000    0.000    0.000    0.000    0.000    0.000 
#
# Total GULP energy -267671.786323 kJ/mol
# GULP energy per Si atom -5576.495548 kJ/mol
# Density = 1.897214 g / cm^3
# Si number density = 19.015421 Si / 1000 Ang^3
#
#
#
# Elastic Constant Matrix: (Units=GPa)
#
#
# Indices 1 2 3 4 5 6 
#
# 1 125.7830 36.9377 7.2157 0.0000 0.0000 0.0000
# 2 36.9377 86.5047 -0.9590 0.0000 0.0000 0.0000
# 3 7.2157 -0.9590 24.1657 0.0000 0.0000 0.0000
# 4 0.0000 0.0000 0.0000 30.7650 0.0000 0.0000
# 5 0.0000 0.0000 0.0000 0.0000 72.7657 0.0000
# 6 0.0000 0.0000 0.0000 0.0000 0.0000 114.2635
#
#
#
# Elastic Compliance Matrix: (Units=1/GPa)
#
#
# Indices 1 2 3 4 5 6 
#
# 1 0.009293 -0.004001 -0.002934 0.000000 0.000000 0.000000
# 2 -0.004001 0.013288 0.001722 0.000000 0.000000 0.000000
# 3 -0.002934 0.001722 0.042325 0.000000 0.000000 0.000000
# 4 0.000000 0.000000 0.000000 0.032504 0.000000 0.000000
# 5 0.000000 0.000000 0.000000 0.000000 0.013743 0.000000
# 6 0.000000 0.000000 0.000000 0.000000 0.000000 0.008752
#
#
# Mechanical properties :
#
#
# Convention : Reuss Voigt Hill
#
# Bulk Modulus (GPa) = 18.35504 35.87136 27.11320
# Shear Modulus (GPa) = 33.67217 56.44278 45.05747
#
# Velocity S-wave (km/s) = 4.21263 5.45409 4.87306
# Velocity P-wave (km/s) = 5.77368 7.65298 6.77877
#
# Compressibility (1/GPa) = 0.05448095
#
# Stress axis : x y z
#
# Youngs Moduli (GPa) = 107.60344 75.25864 23.62655
#
# Poissons Ratio (x) = 0.30110 0.06931
# Poissons Ratio (y) = 0.43050 -0.04068
# Poissons Ratio (z) = 0.31568 -0.12959
#
# Static dielectric constant tensor:
#      x y z
#    x 1.657620 0.000000 0.000000 
#    y 0.000000 1.654760 0.000000 
#    z 0.000000 0.000000 1.648750 
# 
# From -- ./inp_files/52815.got.cif
#   From: 2010.05.17/outbox.cif.g08.bks.cpg/sg64_27_cif.got.tgz:52815.got - 2010.06.03 16:29:19.
