data_PCOD9481971
_publ_section_title
;
Structure prediction by ZEFSAII (Michael W. Deem and Ramdas Pophale) SiO2 
 PCOD9481971
Probable space group: C M C A
;
_chemical_formula_sum "Si O2"
_cell_formula_units_Z 112
_cell_length_a 27.335911
_cell_length_b 13.669715
_cell_length_c 13.711209
_cell_angle_alpha 90.000000
_cell_angle_beta 90.000000
_cell_angle_gamma 90.000000
_cell_volume 5123.523856
_symmetry_space_group_name_H-M "C M C A"
_symmetry_group_IT_number 64
_symmetry_cell_setting 'orthorhombic'
loop_
_space_group_symop_operation_xyz
x,y,z
-x,1/2-y,1/2+z
x,-y,-z
-x,1/2+y,1/2-z
-x,-y,-z
x,1/2+y,1/2-z
-x,y,z
x,1/2-y,1/2+z
1/2+x,1/2+y,z
1/2-x,-y,1/2+z
1/2+x,1/2-y,-z
1/2-x,y,1/2-z
1/2-x,1/2-y,-z
1/2+x,y,1/2-z
1/2-x,1/2+y,z
1/2+x,-y,1/2+z
loop_
_atom_site_type_symbol
_atom_site_label
_atom_site_fract_x
_atom_site_fract_y
_atom_site_fract_z
Si Si1 0.289134 0.163929 0.514592
Si Si2 0.398789 0.711085 0.945387
Si Si3 0.893124 0.990932 0.266773
Si Si4 0.942065 0.199908 0.728304
Si Si5 0.444378 0.904962 0.932512
Si Si6 0.711117 0.487591 0.835935
Si Si7 0.444036 0.100734 0.393143
O O1 0.250000 0.250000 0.500000
O O2 0.340487 0.213030 0.546645
O O3 0.276628 0.083837 0.598759
O O4 0.293611 0.101433 0.413721
O O5 0.420997 0.707723 0.837618
O O6 0.426362 0.807409 0.985555
O O7 0.413175 0.618089 0.010316
O O8 0.905359 0.070923 0.348450
O O9 0.928939 0.013249 0.176492
O O10 0.000000 0.824712 0.273332
O O11 0.909216 0.888242 0.311995
O O12 0.839874 0.004810 0.779585
O O13 0.936331 0.301940 0.672645
O O14 0.500000 0.889830 0.893449
O O15 0.446337 0.000000 0.000000
O O16 0.750000 0.469284 0.750000
O O17 0.500000 0.094308 0.421372
#
# Coordination Sequence:
#
# PCOD9481971 Si02
#       7
#    16  16  16  16  16  16  16
#     4  11  27  51  74 102 137 176 232 297 358 424
#     4  12  23  43  68  98 139 182 225 282 345 405
#     4  12  23  43  68  97 139 181 227 283 345 406
#     4  11  23  39  65 101 142 183 228 275 332 409
#     4  11  24  42  65 100 145 192 240 282 331 402
#     4  11  27  51  74 102 137 176 231 298 359 423
#     4  11  23  39  64 101 142 182 227 273 332 405
#
# _framework density 21.859954999999999
#
# number of rings (size 3 to 8) (size 9 to 14) (size 15 to 20)
#    0.000    0.714    4.286    3.429    2.000    5.714 
#    0.000    1.429    0.000    0.000    0.000    0.000 
#    0.000    0.000    0.000    0.000    0.000    0.000 
#
# Total GULP energy -313134.853883 kJ/mol
# GULP energy per Si atom -5591.693819 kJ/mol
# Density = 2.181020 g / cm^3
# Si number density = 21.859955 Si / 1000 Ang^3
#
#
#
# Elastic Constant Matrix: (Units=GPa)
#
#
# Indices 1 2 3 4 5 6 
#
# 1 101.5188 25.7343 26.5364 0.0000 0.0000 0.0000
# 2 25.7343 101.2065 15.2443 0.0000 0.0000 0.0000
# 3 26.5364 15.2443 97.7819 0.0000 0.0000 0.0000
# 4 0.0000 0.0000 0.0000 39.6832 0.0000 0.0000
# 5 0.0000 0.0000 0.0000 0.0000 2.1040 0.0000
# 6 0.0000 0.0000 0.0000 0.0000 0.0000 22.4862
#
#
#
# Elastic Compliance Matrix: (Units=1/GPa)
#
#
# Indices 1 2 3 4 5 6 
#
# 1 0.011161 -0.002439 -0.002649 0.000000 0.000000 0.000000
# 2 -0.002439 0.010651 -0.000999 0.000000 0.000000 0.000000
# 3 -0.002649 -0.000999 0.011101 0.000000 0.000000 0.000000
# 4 0.000000 0.000000 0.000000 0.025200 0.000000 0.000000
# 5 0.000000 0.000000 0.000000 0.000000 0.475275 0.000000
# 6 0.000000 0.000000 0.000000 0.000000 0.000000 0.044472
#
#
# Mechanical properties :
#
#
# Convention : Reuss Voigt Hill
#
# Bulk Modulus (GPa) = 48.21356 48.39305 48.30331
# Shear Modulus (GPa) = 8.37597 28.38749 18.38173
#
# Velocity S-wave (km/s) = 1.95958 3.60753 2.90295
# Velocity P-wave (km/s) = 5.21761 6.28794 5.77761
#
# Compressibility (1/GPa) = 0.02074105
#
# Stress axis : x y z
#
# Youngs Moduli (GPa) = 89.59761 93.88440 90.07922
#
# Poissons Ratio (x) = 0.22899 0.23859
# Poissons Ratio (y) = 0.21853 0.08996
# Poissons Ratio (z) = 0.23731 0.09376
#
# Static dielectric constant tensor:
#      x y z
#    x 1.750980 0.000000 0.000000 
#    y 0.000000 1.828970 0.000000 
#    z 0.000000 0.000000 1.838310 
# 
# From -- ./inp_files/28104.got.cif
#   From: 2010.05.17/outbox.cif.g08.bks.cpg/sg64_15_cif.got.tgz:28104.got - 2010.06.03 16:29:19.
