data_PCOD9481660
_publ_section_title
;
Structure prediction by ZEFSAII (Michael W. Deem and Ramdas Pophale) SiO2 
 PCOD9481660
Probable space group: C M C A
;
_chemical_formula_sum "Si O2"
_cell_formula_units_Z 96
_cell_length_a 29.458719
_cell_length_b 19.741291
_cell_length_c 7.835475
_cell_angle_alpha 90.000000
_cell_angle_beta 90.000000
_cell_angle_gamma 90.000000
_cell_volume 4556.745123
_symmetry_space_group_name_H-M "C M C A"
_symmetry_group_IT_number 64
_symmetry_cell_setting 'orthorhombic'
loop_
_space_group_symop_operation_xyz
x,y,z
-x,1/2-y,1/2+z
x,-y,-z
-x,1/2+y,1/2-z
-x,-y,-z
x,1/2+y,1/2-z
-x,y,z
x,1/2-y,1/2+z
1/2+x,1/2+y,z
1/2-x,-y,1/2+z
1/2+x,1/2-y,-z
1/2-x,y,1/2-z
1/2-x,1/2-y,-z
1/2+x,y,1/2-z
1/2-x,1/2+y,z
1/2+x,-y,1/2+z
loop_
_atom_site_type_symbol
_atom_site_label
_atom_site_fract_x
_atom_site_fract_y
_atom_site_fract_z
Si Si1 0.949703 0.828845 0.064402
Si Si2 0.802293 0.118721 0.220781
Si Si3 0.643528 0.886959 0.044943
Si Si4 0.367106 0.926502 0.433516
Si Si5 0.049848 0.672132 0.973482
Si Si6 0.786776 0.272523 0.139719
O O1 0.907157 0.874456 0.015226
O O2 0.951512 0.832841 0.269074
O O3 0.000000 0.848700 0.998174
O O4 0.942462 0.750620 0.017623
O O5 0.750000 0.102032 0.250000
O O6 0.829063 0.087066 0.381157
O O7 0.804615 0.201560 0.218426
O O8 0.822885 0.094815 0.041828
O O9 0.640305 0.923976 0.228434
O O10 0.593102 0.871492 0.976132
O O11 0.670671 0.817610 0.091388
O O12 0.380409 0.000000 0.500000
O O13 0.000000 0.652539 0.041546
O O14 0.750000 0.314828 0.250000
O O15 0.750000 0.250000 0.000000
#
# Coordination Sequence:
#
# PCOD9481660 Si02
#       6
#    16  16  16  16  16  16
#     4   9  19  37  63  92 126 159 196 257 320 378
#     4  11  24  41  61  92 123 163 210 257 324 381
#     4  11  23  38  65  90 129 168 197 267 316 371
#     4  11  26  44  60  87 123 170 227 259 298 370
#     4   9  19  34  57  96 129 155 193 245 323 391
#     4  11  19  34  58  94 125 146 194 256 322 389
#
# _framework density 21.067668999999999
#
# number of rings (size 3 to 8) (size 9 to 14) (size 15 to 20)
#    0.000    1.667    3.333    2.000    7.000    1.000 
#    3.000    0.000    0.000    0.000    0.000    5.833 
#    0.000    0.000    0.000    0.000    0.000    0.000 
#
# Total GULP energy -267586.774787 kJ/mol
# GULP energy per Si atom -5574.724475 kJ/mol
# Density = 2.101972 g / cm^3
# Si number density = 21.067669 Si / 1000 Ang^3
#
#
#
# Elastic Constant Matrix: (Units=GPa)
#
#
# Indices 1 2 3 4 5 6 
#
# 1 130.7664 18.3709 39.3801 0.0000 0.0000 0.0000
# 2 18.3709 -15.7150 36.0900 0.0000 0.0000 0.0000
# 3 39.3801 36.0900 62.6407 0.0000 0.0000 0.0000
# 4 0.0000 0.0000 0.0000 17.9955 0.0000 0.0000
# 5 0.0000 0.0000 0.0000 0.0000 24.4257 0.0000
# 6 0.0000 0.0000 0.0000 0.0000 0.0000 5.4829
#
#
#
# Elastic Compliance Matrix: (Units=1/GPa)
#
#
# Indices 1 2 3 4 5 6 
#
# 1 0.009388 -0.001110 -0.005262 0.000000 0.000000 0.000000
# 2 -0.001110 -0.027260 0.016404 0.000000 0.000000 0.000000
# 3 -0.005262 0.016404 0.009821 0.000000 0.000000 0.000000
# 4 0.000000 0.000000 0.000000 0.055569 0.000000 0.000000
# 5 0.000000 0.000000 0.000000 0.000000 0.040940 0.000000
# 6 0.000000 0.000000 0.000000 0.000000 0.000000 0.182387
#
#
# Mechanical properties :
#
#
# Convention : Reuss Voigt Hill
#
# Bulk Modulus (GPa) = 83.25215 40.59711 61.92463
# Shear Modulus (GPa) = 19.62420 15.17088 17.39754
#
# Velocity S-wave (km/s) = 3.05533 2.68638 2.87678
# Velocity P-wave (km/s) = 7.21451 5.37902 6.36329
#
# Compressibility (1/GPa) = 0.01201170
#
# Stress axis : x y z
#
# Youngs Moduli (GPa) = 106.52008 -36.68391 101.81838
#
# Poissons Ratio (x) = -0.04073 0.53579
# Poissons Ratio (y) = 0.11826 -1.67019
# Poissons Ratio (z) = 0.56053 0.60175
#
# Static dielectric constant tensor:
#      x y z
#    x 1.779770 0.000000 0.000000 
#    y 0.000000 1.741470 0.000000 
#    z 0.000000 0.000000 1.899030 
# 
# From -- ./inp_files/10368.got.cif
#   From: 2010.05.17/outbox.cif.g08.bks.cpg/sg64_6_cif.got.tgz:10368.got - 2010.06.03 16:29:19.
