data_PCOD9481705
_publ_section_title
;
Structure prediction by ZEFSAII (Michael W. Deem and Ramdas Pophale) SiO2 
 PCOD9481705
Probable space group: C M C A
;
_chemical_formula_sum "Si O2"
_cell_formula_units_Z 112
_cell_length_a 14.193182
_cell_length_b 27.799755
_cell_length_c 13.714272
_cell_angle_alpha 90.000000
_cell_angle_beta 90.000000
_cell_angle_gamma 90.000000
_cell_volume 5411.198917
_symmetry_space_group_name_H-M "C M C A"
_symmetry_group_IT_number 64
_symmetry_cell_setting 'orthorhombic'
loop_
_space_group_symop_operation_xyz
x,y,z
-x,1/2-y,1/2+z
x,-y,-z
-x,1/2+y,1/2-z
-x,-y,-z
x,1/2+y,1/2-z
-x,y,z
x,1/2-y,1/2+z
1/2+x,1/2+y,z
1/2-x,-y,1/2+z
1/2+x,1/2-y,-z
1/2-x,y,1/2-z
1/2-x,1/2-y,-z
1/2+x,y,1/2-z
1/2-x,1/2+y,z
1/2+x,-y,1/2+z
loop_
_atom_site_type_symbol
_atom_site_label
_atom_site_fract_x
_atom_site_fract_y
_atom_site_fract_z
Si Si1 0.389936 0.272552 0.463490
Si Si2 0.261910 0.400503 0.932034
Si Si3 0.854198 0.649443 0.792626
Si Si4 0.610298 0.062828 0.939728
Si Si5 0.396150 0.098539 0.603067
Si Si6 0.246255 0.201060 0.137304
Si Si7 0.221844 0.497210 0.359623
O O1 0.500000 0.266973 0.485124
O O2 0.379798 0.310483 0.372892
O O3 0.333343 0.287408 0.562493
O O4 0.341208 0.225312 0.418773
O O5 0.264213 0.356474 0.859563
O O6 0.307832 0.451641 0.903742
O O7 0.155166 0.412607 0.964524
O O8 0.319375 0.383023 0.026572
O O9 0.750000 0.657076 0.750000
O O10 0.871753 0.600889 0.853553
O O11 0.903873 0.636484 0.690855
O O12 0.500000 0.051557 0.947199
O O13 0.681677 0.020642 0.910256
O O14 0.500000 0.091403 0.560870
O O15 0.352581 0.046613 0.635299
O O16 0.250000 0.218833 0.250000
O O17 0.250000 0.506700 0.250000
#
# Coordination Sequence:
#
# PCOD9481705 Si02
#       7
#    16  16  16  16  16  16  16
#     4  11  25  45  72 102 130 165 219 283 334 388
#     4  11  24  40  60  88 129 175 222 264 318 397
#     4  12  19  38  67 100 130 158 205 271 338 386
#     4  11  20  36  61  90 126 163 209 269 325 379
#     4  11  21  37  62  91 127 168 214 273 333 386
#     4  11  25  47  69  95 132 179 218 265 330 403
#     4  11  22  38  56  87 126 171 221 271 321 391
#
# _framework density 20.697816
#
# number of rings (size 3 to 8) (size 9 to 14) (size 15 to 20)
#    0.000    0.857    5.714    3.857    0.000    4.571 
#    0.000    0.000    0.000    5.143    0.000    0.000 
#    0.000    0.000    0.000    0.000    0.000    0.000 
#
# Total GULP energy -312171.512457 kJ/mol
# GULP energy per Si atom -5574.491294 kJ/mol
# Density = 2.065071 g / cm^3
# Si number density = 20.697816 Si / 1000 Ang^3
#
#
#
# Elastic Constant Matrix: (Units=GPa)
#
#
# Indices 1 2 3 4 5 6 
#
# 1 149.4983 33.6622 26.5868 0.0000 0.0000 0.0000
# 2 33.6622 86.1004 32.3716 0.0000 0.0000 0.0000
# 3 26.5868 32.3716 105.6191 0.0000 0.0000 0.0000
# 4 0.0000 0.0000 0.0000 22.3200 0.0000 0.0000
# 5 0.0000 0.0000 0.0000 0.0000 0.3442 0.0000
# 6 0.0000 0.0000 0.0000 0.0000 0.0000 76.1155
#
#
#
# Elastic Compliance Matrix: (Units=1/GPa)
#
#
# Indices 1 2 3 4 5 6 
#
# 1 0.007448 -0.002495 -0.001110 0.000000 0.000000 0.000000
# 2 -0.002495 0.013962 -0.003651 0.000000 0.000000 0.000000
# 3 -0.001110 -0.003651 0.010867 0.000000 0.000000 0.000000
# 4 0.000000 0.000000 0.000000 0.044803 0.000000 0.000000
# 5 0.000000 0.000000 0.000000 0.000000 2.905656 0.000000
# 6 0.000000 0.000000 0.000000 0.000000 0.000000 0.013138
#
#
# Mechanical properties :
#
#
# Convention : Reuss Voigt Hill
#
# Bulk Modulus (GPa) = 56.29160 58.49544 57.39352
# Shear Modulus (GPa) = 1.65766 36.32908 18.99337
#
# Velocity S-wave (km/s) = 0.89589 4.19407 3.03256
# Velocity P-wave (km/s) = 5.32223 7.19560 6.32862
#
# Compressibility (1/GPa) = 0.01776464
#
# Stress axis : x y z
#
# Youngs Moduli (GPa) = 134.26092 71.62047 92.02481
#
# Poissons Ratio (x) = 0.17866 0.10218
# Poissons Ratio (y) = 0.33492 0.33603
# Poissons Ratio (z) = 0.14907 0.26152
#
# Static dielectric constant tensor:
#      x y z
#    x 1.757340 0.000000 0.000000 
#    y 0.000000 1.845940 0.000000 
#    z 0.000000 0.000000 1.824050 
# 
# From -- ./inp_files/24391.got.cif
#   From: 2010.05.17/outbox.cif.g08.bks.cpg/sg64_13_cif.got.tgz:24391.got - 2010.06.03 16:29:19.
