data_PCOD9481517
_publ_section_title
;
Structure prediction by ZEFSAII (Michael W. Deem and Ramdas Pophale) SiO2 
 PCOD9481517
Probable space group: C M C A
;
_chemical_formula_sum "Si O2"
_cell_formula_units_Z 104
_cell_length_a 26.012328
_cell_length_b 18.943345
_cell_length_c 9.023661
_cell_angle_alpha 90.000000
_cell_angle_beta 90.000000
_cell_angle_gamma 90.000000
_cell_volume 4446.503738
_symmetry_space_group_name_H-M "C M C A"
_symmetry_group_IT_number 64
_symmetry_cell_setting 'orthorhombic'
loop_
_space_group_symop_operation_xyz
x,y,z
-x,1/2-y,1/2+z
x,-y,-z
-x,1/2+y,1/2-z
-x,-y,-z
x,1/2+y,1/2-z
-x,y,z
x,1/2-y,1/2+z
1/2+x,1/2+y,z
1/2-x,-y,1/2+z
1/2+x,1/2-y,-z
1/2-x,y,1/2-z
1/2-x,1/2-y,-z
1/2+x,y,1/2-z
1/2-x,1/2+y,z
1/2+x,-y,1/2+z
loop_
_atom_site_type_symbol
_atom_site_label
_atom_site_fract_x
_atom_site_fract_y
_atom_site_fract_z
Si Si1 0.673560 0.862845 0.018534
Si Si2 0.880696 0.894516 0.778579
Si Si3 0.000000 0.241755 0.520063
Si Si4 0.160568 0.202628 0.950655
Si Si5 0.945069 0.517944 0.671652
Si Si6 0.500000 0.845526 0.736449
Si Si7 0.082794 0.335011 0.217651
Si Si8 0.250000 0.365835 0.250000
O O1 0.678767 0.776798 0.019283
O O2 0.622845 0.875217 0.112899
O O3 0.718802 0.899330 0.112005
O O4 0.660299 0.881952 0.851100
O O5 0.859018 0.852831 0.923509
O O6 0.892474 0.978078 0.787617
O O7 0.940469 0.871927 0.743891
O O8 0.000000 0.322709 0.564583
O O9 0.951684 0.208091 0.604735
O O10 0.000000 0.220305 0.351460
O O11 0.112688 0.212417 0.837533
O O12 0.205879 0.175110 0.843348
O O13 0.948915 0.500000 0.500000
O O14 0.943229 0.600649 0.698581
O O15 0.000000 0.492599 0.741895
#
# Coordination Sequence:
#
# PCOD9481517 Si02
#       8
#    16  16   8  16  16   8  16   8
#     4  11  23  42  65 102 132 168 217 278 349 399
#     4  12  24  40  66 100 138 177 226 276 321 404
#     4  12  24  39  60  93 145 186 214 266 341 389
#     4  11  23  42  69  99 136 170 220 278 346 406
#     4  11  23  42  63  92 137 188 236 261 316 394
#     4  12  26  39  60 103 145 180 218 266 333 413
#     4  11  23  40  63  93 136 180 222 273 322 391
#     4  10  24  44  70  98 136 170 218 280 350 416
#
# _framework density 23.389161999999999
#
# number of rings (size 3 to 8) (size 9 to 14) (size 15 to 20)
#    0.000    0.769    4.615    4.154    2.154    1.231 
#    0.000    1.538    0.000   14.769    0.000    1.077 
#    0.000    0.000    0.000    0.000    0.000    0.000 
#
# Total GULP energy -289882.882120 kJ/mol
# GULP energy per Si atom -5574.670810 kJ/mol
# Density = 2.333593 g / cm^3
# Si number density = 23.389162 Si / 1000 Ang^3
#
#
#
# Elastic Constant Matrix: (Units=GPa)
#
#
# Indices 1 2 3 4 5 6 
#
# 1 106.8486 1.9995 40.7181 0.0000 0.0000 0.0000
# 2 1.9995 20.3377 15.3734 0.0000 0.0000 0.0000
# 3 40.7181 15.3734 121.9143 0.0000 0.0000 0.0000
# 4 0.0000 0.0000 0.0000 10.3121 0.0000 0.0000
# 5 0.0000 0.0000 0.0000 0.0000 14.5897 0.0000
# 6 0.0000 0.0000 0.0000 0.0000 0.0000 30.0792
#
#
#
# Elastic Compliance Matrix: (Units=1/GPa)
#
#
# Indices 1 2 3 4 5 6 
#
# 1 0.010786 0.001838 -0.003834 0.000000 0.000000 0.000000
# 2 0.001838 0.054664 -0.007507 0.000000 0.000000 0.000000
# 3 -0.003834 -0.007507 0.010430 0.000000 0.000000 0.000000
# 4 0.000000 0.000000 0.000000 0.096974 0.000000 0.000000
# 5 0.000000 0.000000 0.000000 0.000000 0.068542 0.000000
# 6 0.000000 0.000000 0.000000 0.000000 0.000000 0.033246
#
#
# Mechanical properties :
#
#
# Convention : Reuss Voigt Hill
#
# Bulk Modulus (GPa) = 17.58315 40.58695 29.08505
# Shear Modulus (GPa) = 15.99471 23.73017 19.86244
#
# Velocity S-wave (km/s) = 2.61789 3.18870 2.91729
# Velocity P-wave (km/s) = 4.08311 5.56306 4.87952
#
# Compressibility (1/GPa) = 0.05687263
#
# Stress axis : x y z
#
# Youngs Moduli (GPa) = 92.71498 18.29372 95.88060
#
# Poissons Ratio (x) = -0.03362 0.36761
# Poissons Ratio (y) = -0.17039 0.71976
# Poissons Ratio (z) = 0.35548 0.13733
#
# Static dielectric constant tensor:
#      x y z
#    x 1.947130 0.000000 0.000000 
#    y 0.000000 2.056470 0.000000 
#    z 0.000000 0.000000 1.862190 
# 
# From -- ./inp_files/10478.got.cif
#   From: 2010.05.17/outbox.cif.g08.bks.cpg/sg64_6_cif.got.tgz:10478.got - 2010.06.03 16:29:19.
