data_PCOD9481191
_publ_section_title
;
Structure prediction by ZEFSAII (Michael W. Deem and Ramdas Pophale) SiO2 
 PCOD9481191
Probable space group: C M C A
;
_chemical_formula_sum "Si O2"
_cell_formula_units_Z 52
_cell_length_a 17.251125
_cell_length_b 16.421824
_cell_length_c 7.711800
_cell_angle_alpha 90.000000
_cell_angle_beta 90.000000
_cell_angle_gamma 90.000000
_cell_volume 2184.713907
_symmetry_space_group_name_H-M "C M C A"
_symmetry_group_IT_number 64
_symmetry_cell_setting 'orthorhombic'
loop_
_space_group_symop_operation_xyz
x,y,z
-x,1/2-y,1/2+z
x,-y,-z
-x,1/2+y,1/2-z
-x,-y,-z
x,1/2+y,1/2-z
-x,y,z
x,1/2-y,1/2+z
1/2+x,1/2+y,z
1/2-x,-y,1/2+z
1/2+x,1/2-y,-z
1/2-x,y,1/2-z
1/2-x,1/2-y,-z
1/2+x,y,1/2-z
1/2-x,1/2+y,z
1/2+x,-y,1/2+z
loop_
_atom_site_type_symbol
_atom_site_label
_atom_site_fract_x
_atom_site_fract_y
_atom_site_fract_z
Si Si1 0.000000 0.500000 0.000000
Si Si2 0.912254 0.800490 0.806024
Si Si3 0.621681 0.128223 0.924123
Si Si4 0.285477 0.414066 0.942095
O O1 0.931587 0.449653 0.106473
O O2 0.904883 0.840310 0.615918
O O3 0.849022 0.844270 0.925369
O O4 0.000000 0.812842 0.867582
O O5 0.894660 0.704792 0.802554
O O6 0.712171 0.107890 0.938066
O O7 0.250000 0.423562 0.750000
O O8 0.319661 0.500000 0.000000
#
# Coordination Sequence:
#
# PCOD9481191 Si02
#       4
#     4  16  16  16
#     4  12  20  40  72  86 120 164 204 254 298 374
#     4  11  22  41  61  92 123 160 205 251 302 368
#     4  11  23  42  65  90 124 163 206 250 310 361
#     4  10  23  40  61  89 126 161 204 253 306 363
#
# _framework density 23.801745
#
# number of rings (size 3 to 8) (size 9 to 14) (size 15 to 20)
#    0.000    1.231    4.615    0.923    0.000    3.077 
#    0.000    0.000    0.000    0.000    0.000    0.000 
#    0.000    0.000    0.000    0.000    0.000    0.000 
#
# Total GULP energy -145108.543765 kJ/mol
# GULP energy per Si atom -5581.097837 kJ/mol
# Density = 2.374757 g / cm^3
# Si number density = 23.801745 Si / 1000 Ang^3
#
#
#
# Elastic Constant Matrix: (Units=GPa)
#
#
# Indices 1 2 3 4 5 6 
#
# 1 22.4420 -12.8100 83.5567 0.0000 0.0000 0.0000
# 2 -12.8100 72.2771 21.5056 0.0000 0.0000 0.0000
# 3 83.5567 21.5056 32.3497 0.0000 0.0000 0.0000
# 4 0.0000 0.0000 0.0000 7.6164 0.0000 0.0000
# 5 0.0000 0.0000 0.0000 0.0000 11.4823 0.0000
# 6 0.0000 0.0000 0.0000 0.0000 0.0000 -22.6651
#
#
#
# Elastic Compliance Matrix: (Units=1/GPa)
#
#
# Indices 1 2 3 4 5 6 
#
# 1 -0.003650 -0.004303 0.012289 0.000000 0.000000 0.000000
# 2 -0.004303 0.012174 0.003022 0.000000 0.000000 0.000000
# 3 0.012289 0.003022 -0.002837 0.000000 0.000000 0.000000
# 4 0.000000 0.000000 0.000000 0.131295 0.000000 0.000000
# 5 0.000000 0.000000 0.000000 0.000000 0.087091 0.000000
# 6 0.000000 0.000000 0.000000 0.000000 0.000000 -0.044121
#
#
# Mechanical properties :
#
#
# Convention : Reuss Voigt Hill
#
# Bulk Modulus (GPa) = 36.09944 34.61927 35.35936
# Shear Modulus (GPa) = 29.90952 1.60781 15.75867
#
# Velocity S-wave (km/s) = 3.54872 0.82278 2.57588
# Velocity P-wave (km/s) = 5.65604 3.93434 4.87185
#
# Compressibility (1/GPa) = 0.02770126
#
# Stress axis : x y z
#
# Youngs Moduli (GPa) = -273.96988 82.14410 -352.46265
#
# Poissons Ratio (x) = 0.35349 4.33125
# Poissons Ratio (y) = -1.17897 1.06519
# Poissons Ratio (z) = 3.36669 -0.24825
#
# Static dielectric constant tensor:
#      x y z
#    x 1.922070 0.000000 0.000000 
#    y 0.000000 1.912510 0.000000 
#    z 0.000000 0.000000 1.950970 
# 
# From -- ./inp_files/5282.got.cif
#   From: 2010.05.17/outbox.cif.g08.bks.cpg/sg64_3_cif.got.tgz:5282.got - 2010.06.03 16:29:19.
