data_PCOD9481251
_publ_section_title
;
Structure prediction by ZEFSAII (Michael W. Deem and Ramdas Pophale) SiO2 
 PCOD9481251
Probable space group: C M C A
;
_chemical_formula_sum "Si O2"
_cell_formula_units_Z 80
_cell_length_a 28.245375
_cell_length_b 17.217058
_cell_length_c 7.381954
_cell_angle_alpha 90.000000
_cell_angle_beta 90.000000
_cell_angle_gamma 90.000000
_cell_volume 3589.860911
_symmetry_space_group_name_H-M "C M C A"
_symmetry_group_IT_number 64
_symmetry_cell_setting 'orthorhombic'
loop_
_space_group_symop_operation_xyz
x,y,z
-x,1/2-y,1/2+z
x,-y,-z
-x,1/2+y,1/2-z
-x,-y,-z
x,1/2+y,1/2-z
-x,y,z
x,1/2-y,1/2+z
1/2+x,1/2+y,z
1/2-x,-y,1/2+z
1/2+x,1/2-y,-z
1/2-x,y,1/2-z
1/2-x,1/2-y,-z
1/2+x,y,1/2-z
1/2-x,1/2+y,z
1/2+x,-y,1/2+z
loop_
_atom_site_type_symbol
_atom_site_label
_atom_site_fract_x
_atom_site_fract_y
_atom_site_fract_z
Si Si1 0.448069 0.908525 0.033998
Si Si2 0.149091 0.153341 0.554526
Si Si3 0.050771 0.092557 0.964186
Si Si4 0.844122 0.087747 0.936441
Si Si5 0.198049 0.696707 0.297943
O O1 0.500000 0.891379 0.955347
O O2 0.404023 0.856357 0.978241
O O3 0.450994 0.897001 0.248896
O O4 0.438535 0.000000 0.000000
O O5 0.155429 0.092301 0.718333
O O6 0.162435 0.233375 0.655474
O O7 0.181846 0.149652 0.379266
O O8 0.104216 0.118040 0.010884
O O9 0.000000 0.123557 0.036837
O O10 0.050572 0.000000 0.000000
O O11 0.804567 0.140931 0.028527
O O12 0.838912 0.000000 0.000000
O O13 0.250000 0.727304 0.250000
#
# Coordination Sequence:
#
# PCOD9481251 Si02
#       5
#    16  16  16  16  16
#     4   9  19  36  61  96 132 167 210 262 327 396
#     4  11  24  42  71  92 131 178 219 271 336 406
#     4   8  15  30  55  85 124 162 195 246 318 387
#     4  10  23  42  64 100 132 161 220 282 333 404
#     4  12  26  46  68  91 126 180 227 278 344 399
#
# _framework density 22.284984999999999
#
# number of rings (size 3 to 8) (size 9 to 14) (size 15 to 20)
#    0.000    2.000    2.000    0.600    8.400    0.000 
#    3.600    2.000    0.000    0.000    0.000    0.000 
#    0.000    0.000    0.000    0.000    0.000    0.000 
#
# Total GULP energy -223028.358868 kJ/mol
# GULP energy per Si atom -5575.708972 kJ/mol
# Density = 2.223426 g / cm^3
# Si number density = 22.284985 Si / 1000 Ang^3
#
#
#
# Elastic Constant Matrix: (Units=GPa)
#
#
# Indices 1 2 3 4 5 6 
#
# 1 128.8538 37.7476 6.9050 0.0000 0.0000 0.0000
# 2 37.7476 42.5713 -0.1219 0.0000 0.0000 0.0000
# 3 6.9050 -0.1219 88.0878 0.0000 0.0000 0.0000
# 4 0.0000 0.0000 0.0000 28.8514 0.0000 0.0000
# 5 0.0000 0.0000 0.0000 0.0000 -7.9962 0.0000
# 6 0.0000 0.0000 0.0000 0.0000 0.0000 26.9026
#
#
#
# Elastic Compliance Matrix: (Units=1/GPa)
#
#
# Indices 1 2 3 4 5 6 
#
# 1 0.010546 -0.009353 -0.000840 0.000000 0.000000 0.000000
# 2 -0.009353 0.031786 0.000777 0.000000 0.000000 0.000000
# 3 -0.000840 0.000777 0.011419 0.000000 0.000000 0.000000
# 4 0.000000 0.000000 0.000000 0.034660 0.000000 0.000000
# 5 0.000000 0.000000 0.000000 0.000000 -0.125060 0.000000
# 6 0.000000 0.000000 0.000000 0.000000 0.000000 0.037171
#
#
# Mechanical properties :
#
#
# Convention : Reuss Voigt Hill
#
# Bulk Modulus (GPa) = 28.63746 38.73046 33.68396
# Shear Modulus (GPa) = 161.32501 23.88371 92.60436
#
# Velocity S-wave (km/s) = 8.51757 3.27730 6.45328
# Velocity P-wave (km/s) = 10.46950 5.63367 8.40680
#
# Compressibility (1/GPa) = 0.03491930
#
# Stress axis : x y z
#
# Youngs Moduli (GPa) = 94.82492 31.46071 87.57180
#
# Poissons Ratio (x) = 0.29426 0.07353
# Poissons Ratio (y) = 0.88692 -0.06806
# Poissons Ratio (z) = 0.07962 -0.02445
#
# Static dielectric constant tensor:
#      x y z
#    x 1.949330 0.000000 0.000000 
#    y 0.000000 2.060990 0.000000 
#    z 0.000000 0.000000 1.831870 
# 
# From -- ./inp_files/11022.got.cif
#   From: 2010.05.17/outbox.cif.g08.bks.cpg/sg64_6_cif.got.tgz:11022.got - 2010.06.03 16:29:19.
