data_PCOD9481935
_publ_section_title
;
Structure prediction by ZEFSAII (Michael W. Deem and Ramdas Pophale) SiO2 
 PCOD9481935
Probable space group: C M C A
;
_chemical_formula_sum "Si O2"
_cell_formula_units_Z 48
_cell_length_a 12.718856
_cell_length_b 13.691123
_cell_length_c 11.845875
_cell_angle_alpha 90.000000
_cell_angle_beta 90.000000
_cell_angle_gamma 90.000000
_cell_volume 2062.786441
_symmetry_space_group_name_H-M "C M C A"
_symmetry_group_IT_number 64
_symmetry_cell_setting 'orthorhombic'
loop_
_space_group_symop_operation_xyz
x,y,z
-x,1/2-y,1/2+z
x,-y,-z
-x,1/2+y,1/2-z
-x,-y,-z
x,1/2+y,1/2-z
-x,y,z
x,1/2-y,1/2+z
1/2+x,1/2+y,z
1/2-x,-y,1/2+z
1/2+x,1/2-y,-z
1/2-x,y,1/2-z
1/2-x,1/2-y,-z
1/2+x,y,1/2-z
1/2-x,1/2+y,z
1/2+x,-y,1/2+z
loop_
_atom_site_type_symbol
_atom_site_label
_atom_site_fract_x
_atom_site_fract_y
_atom_site_fract_z
Si Si1 0.192100 0.238328 0.875821
Si Si2 0.114695 0.476865 0.350980
Si Si3 0.657261 0.548934 0.386819
O O1 0.250000 0.234961 0.750000
O O2 0.133282 0.135210 0.883470
O O3 0.127872 0.339127 0.869946
O O4 0.250000 0.250000 0.000000
O O5 0.214535 0.541729 0.387432
O O6 0.120855 0.483680 0.216253
O O7 0.000000 0.513593 0.384698
O O8 0.619774 0.500000 0.500000
#
# Coordination Sequence:
#
# PCOD9481935 Si02
#       3
#    16  16  16
#     4  12  22  43  69  95 136 183 225 283 352 411
#     4  11  24  41  67 102 133 175 235 285 340 415
#     4  11  22  44  71  92 139 186 227 285 356 413
#
# _framework density 23.269497000000001
#
# number of rings (size 3 to 8) (size 9 to 14) (size 15 to 20)
#    0.000    0.667   10.000    0.000    0.000    2.667 
#    0.000    5.000    0.000    0.000    0.000    0.000 
#    0.000    0.000    0.000    0.000    0.000    0.000 
#
# Total GULP energy -133865.150324 kJ/mol
# GULP energy per Si atom -5577.714597 kJ/mol
# Density = 2.321653 g / cm^3
# Si number density = 23.269497 Si / 1000 Ang^3
#
#
#
# Elastic Constant Matrix: (Units=GPa)
#
#
# Indices 1 2 3 4 5 6 
#
# 1 129.4279 13.6078 13.1009 0.0000 0.0000 0.0000
# 2 13.6078 137.1596 5.9641 0.0000 0.0000 0.0000
# 3 13.1009 5.9641 198.6646 0.0000 0.0000 0.0000
# 4 0.0000 0.0000 0.0000 52.6949 0.0000 0.0000
# 5 0.0000 0.0000 0.0000 0.0000 -21.0040 0.0000
# 6 0.0000 0.0000 0.0000 0.0000 0.0000 0.7523
#
#
#
# Elastic Compliance Matrix: (Units=1/GPa)
#
#
# Indices 1 2 3 4 5 6 
#
# 1 0.007856 -0.000758 -0.000495 0.000000 0.000000 0.000000
# 2 -0.000758 0.007373 -0.000171 0.000000 0.000000 0.000000
# 3 -0.000495 -0.000171 0.005071 0.000000 0.000000 0.000000
# 4 0.000000 0.000000 0.000000 0.018977 0.000000 0.000000
# 5 0.000000 0.000000 0.000000 0.000000 -0.047610 0.000000
# 6 0.000000 0.000000 0.000000 0.000000 0.000000 1.329262
#
#
# Mechanical properties :
#
#
# Convention : Reuss Voigt Hill
#
# Bulk Modulus (GPa) = 57.30064 58.95529 58.12797
# Shear Modulus (GPa) = 3.76054 35.32725 19.54389
#
# Velocity S-wave (km/s) = 1.27263 3.90061 2.90124
# Velocity P-wave (km/s) = 5.18051 6.75849 6.02142
#
# Compressibility (1/GPa) = 0.01745181
#
# Stress axis : x y z
#
# Youngs Moduli (GPa) = 127.28920 135.62227 197.18347
#
# Poissons Ratio (x) = 0.10279 0.09767
# Poissons Ratio (y) = 0.09647 0.03379
# Poissons Ratio (z) = 0.06305 0.02324
#
# Static dielectric constant tensor:
#      x y z
#    x 1.948950 0.000000 0.000000 
#    y 0.000000 1.799030 0.000000 
#    z 0.000000 0.000000 1.986610 
# 
# From -- ./inp_files/13658.got.cif
#   From: 2010.05.17/outbox.cif.g08.bks.cpg/sg64_7_cif.got.tgz:13658.got - 2010.06.03 16:29:19.
