data_PCOD9481981
_publ_section_title
;
Structure prediction by ZEFSAII (Michael W. Deem and Ramdas Pophale) SiO2 
 PCOD9481981
Probable space group: C M C A
;
_chemical_formula_sum "Si O2"
_cell_formula_units_Z 112
_cell_length_a 25.790986
_cell_length_b 13.980070
_cell_length_c 14.653049
_cell_angle_alpha 90.000000
_cell_angle_beta 90.000000
_cell_angle_gamma 90.000000
_cell_volume 5283.300265
_symmetry_space_group_name_H-M "C M C A"
_symmetry_group_IT_number 64
_symmetry_cell_setting 'orthorhombic'
loop_
_space_group_symop_operation_xyz
x,y,z
-x,1/2-y,1/2+z
x,-y,-z
-x,1/2+y,1/2-z
-x,-y,-z
x,1/2+y,1/2-z
-x,y,z
x,1/2-y,1/2+z
1/2+x,1/2+y,z
1/2-x,-y,1/2+z
1/2+x,1/2-y,-z
1/2-x,y,1/2-z
1/2-x,1/2-y,-z
1/2+x,y,1/2-z
1/2-x,1/2+y,z
1/2+x,-y,1/2+z
loop_
_atom_site_type_symbol
_atom_site_label
_atom_site_fract_x
_atom_site_fract_y
_atom_site_fract_z
Si Si1 0.267157 0.041011 0.396730
Si Si2 0.864795 0.814479 0.181005
Si Si3 0.059156 0.650036 0.254608
Si Si4 0.885843 0.483706 0.608651
Si Si5 0.687217 0.682571 0.452438
Si Si6 0.187817 0.617521 0.849169
Si Si7 0.900739 0.975319 0.595887
O O1 0.237306 0.141289 0.400648
O O2 0.267244 0.000000 0.500000
O O3 0.326356 0.044830 0.367524
O O4 0.231181 0.964428 0.345792
O O5 0.904013 0.736617 0.222402
O O6 0.892799 0.913445 0.156602
O O7 0.836255 0.778051 0.089286
O O8 0.819965 0.828065 0.255704
O O9 0.078811 0.597649 0.346370
O O10 0.065039 0.571489 0.173955
O O11 0.000000 0.681122 0.263787
O O12 0.891750 0.500000 0.500000
O O13 0.696893 0.680367 0.560309
O O14 0.643548 0.601832 0.432195
O O15 0.132432 0.564142 0.866086
O O16 0.927721 0.000000 0.500000
#
# Coordination Sequence:
#
# PCOD9481981 Si02
#       7
#    16  16  16  16  16  16  16
#     4   8  17  39  63  92 131 173 210 260 319 395
#     4  11  23  40  63  98 129 177 220 271 326 400
#     4  11  25  45  65  92 128 168 224 286 333 382
#     4  11  25  46  69  95 137 178 222 269 331 399
#     4   8  17  34  62  92 132 170 203 259 321 386
#     4   9  16  35  63  91 131 169 209 254 318 385
#     4   8  15  35  64  91 118 156 203 264 323 383
#
# _framework density 21.198871
#
# number of rings (size 3 to 8) (size 9 to 14) (size 15 to 20)
#    0.000    2.571    1.429    1.714    2.000    1.714 
#    5.143    2.143    0.000    0.000    0.000    0.000 
#    0.000    0.000    0.000    0.000    0.000    0.000 
#
# Total GULP energy -312877.397033 kJ/mol
# GULP energy per Si atom -5587.096376 kJ/mol
# Density = 2.115062 g / cm^3
# Si number density = 21.198871 Si / 1000 Ang^3
#
#
#
# Elastic Constant Matrix: (Units=GPa)
#
#
# Indices 1 2 3 4 5 6 
#
# 1 74.1450 27.8124 19.7086 0.0000 0.0000 0.0000
# 2 27.8124 70.5214 24.6682 0.0000 0.0000 0.0000
# 3 19.7086 24.6682 104.4040 0.0000 0.0000 0.0000
# 4 0.0000 0.0000 0.0000 28.0523 0.0000 0.0000
# 5 0.0000 0.0000 0.0000 0.0000 17.6748 0.0000
# 6 0.0000 0.0000 0.0000 0.0000 0.0000 17.2265
#
#
#
# Elastic Compliance Matrix: (Units=1/GPa)
#
#
# Indices 1 2 3 4 5 6 
#
# 1 0.016094 -0.005760 -0.001677 0.000000 0.000000 0.000000
# 2 -0.005760 0.017519 -0.003052 0.000000 0.000000 0.000000
# 3 -0.001677 -0.003052 0.010616 0.000000 0.000000 0.000000
# 4 0.000000 0.000000 0.000000 0.035648 0.000000 0.000000
# 5 0.000000 0.000000 0.000000 0.000000 0.056578 0.000000
# 6 0.000000 0.000000 0.000000 0.000000 0.000000 0.058050
#
#
# Mechanical properties :
#
#
# Convention : Reuss Voigt Hill
#
# Bulk Modulus (GPa) = 43.01057 43.71653 43.36355
# Shear Modulus (GPa) = 22.39810 24.38282 23.39046
#
# Velocity S-wave (km/s) = 3.25402 3.39513 3.32532
# Velocity P-wave (km/s) = 5.86952 6.00301 5.93664
#
# Compressibility (1/GPa) = 0.02325010
#
# Stress axis : x y z
#
# Youngs Moduli (GPa) = 62.13642 57.07929 94.19865
#
# Poissons Ratio (x) = 0.32880 0.15797
# Poissons Ratio (y) = 0.35793 0.28750
# Poissons Ratio (z) = 0.10420 0.17421
#
# Static dielectric constant tensor:
#      x y z
#    x 1.742470 0.000000 0.000000 
#    y 0.000000 1.778530 0.000000 
#    z 0.000000 0.000000 1.794270 
# 
# From -- ./inp_files/27402.got.cif
#   From: 2010.05.17/outbox.cif.g08.bks.cpg/sg64_14_cif.got.tgz:27402.got - 2010.06.03 16:29:19.
