data_PCOD9481201
_publ_section_title
;
Structure prediction by ZEFSAII (Michael W. Deem and Ramdas Pophale) SiO2 
 PCOD9481201
Probable space group: C M C A
;
_chemical_formula_sum "Si O2"
_cell_formula_units_Z 112
_cell_length_a 21.544455
_cell_length_b 15.599483
_cell_length_c 15.531180
_cell_angle_alpha 90.000000
_cell_angle_beta 90.000000
_cell_angle_gamma 90.000000
_cell_volume 5219.755620
_symmetry_space_group_name_H-M "C M C A"
_symmetry_group_IT_number 64
_symmetry_cell_setting 'orthorhombic'
loop_
_space_group_symop_operation_xyz
x,y,z
-x,1/2-y,1/2+z
x,-y,-z
-x,1/2+y,1/2-z
-x,-y,-z
x,1/2+y,1/2-z
-x,y,z
x,1/2-y,1/2+z
1/2+x,1/2+y,z
1/2-x,-y,1/2+z
1/2+x,1/2-y,-z
1/2-x,y,1/2-z
1/2-x,1/2-y,-z
1/2+x,y,1/2-z
1/2-x,1/2+y,z
1/2+x,-y,1/2+z
loop_
_atom_site_type_symbol
_atom_site_label
_atom_site_fract_x
_atom_site_fract_y
_atom_site_fract_z
Si Si1 0.823449 0.329584 0.222025
Si Si2 0.835984 0.274057 0.408516
Si Si3 0.750164 0.134852 0.348514
Si Si4 0.134232 0.411892 0.550072
Si Si5 0.568867 0.370286 0.624580
Si Si6 0.656408 0.992466 0.100317
Si Si7 0.069869 0.195400 0.180752
O O1 0.750000 0.333713 0.250000
O O2 0.850847 0.324161 0.319370
O O3 0.833498 0.406440 0.153940
O O4 0.867400 0.254490 0.179267
O O5 0.771703 0.220423 0.399324
O O6 0.840415 0.342632 0.482370
O O7 0.885836 0.198168 0.420165
O O8 0.750000 0.162339 0.250000
O O9 0.689917 0.085322 0.380669
O O10 0.803936 0.065389 0.353320
O O11 0.123056 0.500000 0.500000
O O12 0.077580 0.371711 0.603020
O O13 0.500000 0.352639 0.594806
O O14 0.587875 0.467791 0.605783
O O15 0.572723 0.351797 0.726832
O O16 0.675901 0.000000 0.000000
O O17 0.000000 0.235751 0.176174
#
# Coordination Sequence:
#
# PCOD9481201 Si02
#       7
#    16  16  16  16  16  16  16
#     4  11  24  41  72 100 138 183 229 285 348 413
#     4  10  23  40  65  96 126 174 229 282 341 413
#     4  11  23  44  64  92 136 180 220 277 354 414
#     4  12  26  39  66 100 132 176 226 285 350 414
#     4   9  21  45  68  89 128 180 229 279 342 411
#     4  11  25  38  64 105 137 174 221 285 346 410
#     4  10  24  47  70  95 135 184 233 282 343 412
#
# _framework density 21.456944
#
# number of rings (size 3 to 8) (size 9 to 14) (size 15 to 20)
#    0.000    1.429    0.000    5.143   12.000    1.714 
#    0.000    0.000    0.000    0.000    0.000    0.000 
#    0.000    0.000    0.000    0.000    0.000    0.000 
#
# Total GULP energy -311998.522520 kJ/mol
# GULP energy per Si atom -5571.402188 kJ/mol
# Density = 2.140811 g / cm^3
# Si number density = 21.456944 Si / 1000 Ang^3
#
#
#
# Elastic Constant Matrix: (Units=GPa)
#
#
# Indices 1 2 3 4 5 6 
#
# 1 105.3781 36.3863 18.3040 0.0000 0.0000 0.0000
# 2 36.3863 96.8311 34.3650 0.0000 0.0000 0.0000
# 3 18.3040 34.3650 58.9492 0.0000 0.0000 0.0000
# 4 0.0000 0.0000 0.0000 21.0952 0.0000 0.0000
# 5 0.0000 0.0000 0.0000 0.0000 17.1512 0.0000
# 6 0.0000 0.0000 0.0000 0.0000 0.0000 -75.2011
#
#
#
# Elastic Compliance Matrix: (Units=1/GPa)
#
#
# Indices 1 2 3 4 5 6 
#
# 1 0.010979 -0.003676 -0.001266 0.000000 0.000000 0.000000
# 2 -0.003676 0.014252 -0.007167 0.000000 0.000000 0.000000
# 3 -0.001266 -0.007167 0.021535 0.000000 0.000000 0.000000
# 4 0.000000 0.000000 0.000000 0.047404 0.000000 0.000000
# 5 0.000000 0.000000 0.000000 0.000000 0.058305 0.000000
# 6 0.000000 0.000000 0.000000 0.000000 0.000000 -0.013298
#
#
# Mechanical properties :
#
#
# Convention : Reuss Voigt Hill
#
# Bulk Modulus (GPa) = 44.35033 48.80766 46.57900
# Shear Modulus (GPa) = 29.25486 4.08260 16.66873
#
# Velocity S-wave (km/s) = 3.69646 1.38088 2.79022
# Velocity P-wave (km/s) = 6.23961 5.03375 5.66883
#
# Compressibility (1/GPa) = 0.02254775
#
# Stress axis : x y z
#
# Youngs Moduli (GPa) = 91.08362 70.16438 46.43629
#
# Poissons Ratio (x) = 0.25795 0.05878
# Poissons Ratio (y) = 0.33485 0.33281
# Poissons Ratio (z) = 0.11530 0.50287
#
# Static dielectric constant tensor:
#      x y z
#    x 1.855200 0.000000 0.000000 
#    y 0.000000 1.785840 0.000000 
#    z 0.000000 0.000000 1.808090 
# 
# From -- ./inp_files/27455.got.cif
#   From: 2010.05.17/outbox.cif.g08.bks.cpg/sg64_14_cif.got.tgz:27455.got - 2010.06.03 16:29:19.
