data_PCOD9481441
_publ_section_title
;
Structure prediction by ZEFSAII (Michael W. Deem and Ramdas Pophale) SiO2 
 PCOD9481441
Probable space group: C M C A
;
_chemical_formula_sum "Si O2"
_cell_formula_units_Z 88
_cell_length_a 26.395860
_cell_length_b 8.593191
_cell_length_c 20.017110
_cell_angle_alpha 90.000000
_cell_angle_beta 90.000000
_cell_angle_gamma 90.000000
_cell_volume 4540.374302
_symmetry_space_group_name_H-M "C M C A"
_symmetry_group_IT_number 64
_symmetry_cell_setting 'orthorhombic'
loop_
_space_group_symop_operation_xyz
x,y,z
-x,1/2-y,1/2+z
x,-y,-z
-x,1/2+y,1/2-z
-x,-y,-z
x,1/2+y,1/2-z
-x,y,z
x,1/2-y,1/2+z
1/2+x,1/2+y,z
1/2-x,-y,1/2+z
1/2+x,1/2-y,-z
1/2-x,y,1/2-z
1/2-x,1/2-y,-z
1/2+x,y,1/2-z
1/2-x,1/2+y,z
1/2+x,-y,1/2+z
loop_
_atom_site_type_symbol
_atom_site_label
_atom_site_fract_x
_atom_site_fract_y
_atom_site_fract_z
Si Si1 0.155347 0.128358 0.298197
Si Si2 0.255675 0.500000 0.000000
Si Si3 0.270966 0.744634 0.904561
Si Si4 0.444059 0.672494 0.154352
Si Si5 0.160141 0.272135 0.154655
Si Si6 0.555634 0.813023 0.299686
O O1 0.199368 0.215779 0.338273
O O2 0.163177 0.159559 0.219577
O O3 0.102778 0.208104 0.321218
O O4 0.156458 0.947404 0.316580
O O5 0.286509 0.411606 0.057310
O O6 0.222079 0.621654 0.040603
O O7 0.211273 0.736038 0.887748
O O8 0.500000 0.684054 0.122082
O O9 0.392242 0.723143 0.118381
O O10 0.438724 0.494235 0.181034
O O11 0.445099 0.784462 0.219731
O O12 0.500000 0.761516 0.324325
#
# Coordination Sequence:
#
# PCOD9481441 Si02
#       6
#    16   8  16  16  16  16
#     4  11  22  33  54  84 114 144 173 217 274 321
#     4  10  24  42  58  74 102 142 188 226 266 312
#     4  11  23  40  58  80 105 139 182 228 268 323
#     4   9  17  29  47  74 109 145 176 207 256 321
#     4  11  22  33  54  84 114 144 173 217 274 321
#     4   9  17  29  47  74 109 145 176 207 256 321
#
# _framework density 19.381661000000001
#
# number of rings (size 3 to 8) (size 9 to 14) (size 15 to 20)
#    0.000    1.818    1.818    4.909    5.091    3.636 
#    0.000    0.000    0.000    0.000    0.000    7.636 
#    0.000    0.000    0.000    0.000    0.000    0.000 
#
# Total GULP energy -245251.466274 kJ/mol
# GULP energy per Si atom -5573.896961 kJ/mol
# Density = 1.933755 g / cm^3
# Si number density = 19.381661 Si / 1000 Ang^3
#
#
#
# Elastic Constant Matrix: (Units=GPa)
#
#
# Indices 1 2 3 4 5 6 
#
# 1 146.9273 25.6284 22.3751 0.0000 0.0000 0.0000
# 2 25.6284 75.3509 7.3494 0.0000 0.0000 0.0000
# 3 22.3751 7.3494 32.0810 0.0000 0.0000 0.0000
# 4 0.0000 0.0000 0.0000 24.7383 0.0000 0.0000
# 5 0.0000 0.0000 0.0000 0.0000 -3.4079 0.0000
# 6 0.0000 0.0000 0.0000 0.0000 0.0000 -54.9618
#
#
#
# Elastic Compliance Matrix: (Units=1/GPa)
#
#
# Indices 1 2 3 4 5 6 
#
# 1 0.007961 -0.002216 -0.005045 0.000000 0.000000 0.000000
# 2 -0.002216 0.014191 -0.001706 0.000000 0.000000 0.000000
# 3 -0.005045 -0.001706 0.035080 0.000000 0.000000 0.000000
# 4 0.000000 0.000000 0.000000 0.040423 0.000000 0.000000
# 5 0.000000 0.000000 0.000000 0.000000 -0.293436 0.000000
# 6 0.000000 0.000000 0.000000 0.000000 0.000000 -0.018194
#
#
# Mechanical properties :
#
#
# Convention : Reuss Voigt Hill
#
# Bulk Modulus (GPa) = 25.44517 40.56277 33.00397
# Shear Modulus (GPa) = -27.33103 6.54081 -10.39511
#
# Velocity S-wave (km/s) = -3.75927 1.83904 -2.31841
# Velocity P-wave (km/s) = 2.38450 5.04810 3.14622
#
# Compressibility (1/GPa) = 0.03930018
#
# Stress axis : x y z
#
# Youngs Moduli (GPa) = 125.61549 70.46627 28.50594
#
# Poissons Ratio (x) = 0.15612 0.14381
# Poissons Ratio (y) = 0.27831 0.04862
# Poissons Ratio (z) = 0.63370 0.12020
#
# Static dielectric constant tensor:
#      x y z
#    x 1.749960 0.000000 0.000000 
#    y 0.000000 1.726170 0.000000 
#    z 0.000000 0.000000 1.645670 
# 
# From -- ./inp_files/35694.got.cif
#   From: 2010.05.17/outbox.cif.g08.bks.cpg/sg64_18_cif.got.tgz:35694.got - 2010.06.03 16:29:19.
