data_PCOD9481089
_publ_section_title
;
Structure prediction by ZEFSAII (Michael W. Deem and Ramdas Pophale) SiO2 
 PCOD9481089
Probable space group: C M C A
;
_chemical_formula_sum "Si O2"
_cell_formula_units_Z 56
_cell_length_a 18.981124
_cell_length_b 14.918618
_cell_length_c 9.332617
_cell_angle_alpha 90.000000
_cell_angle_beta 90.000000
_cell_angle_gamma 90.000000
_cell_volume 2642.737111
_symmetry_space_group_name_H-M "C M C A"
_symmetry_group_IT_number 64
_symmetry_cell_setting 'orthorhombic'
loop_
_space_group_symop_operation_xyz
x,y,z
-x,1/2-y,1/2+z
x,-y,-z
-x,1/2+y,1/2-z
-x,-y,-z
x,1/2+y,1/2-z
-x,y,z
x,1/2-y,1/2+z
1/2+x,1/2+y,z
1/2-x,-y,1/2+z
1/2+x,1/2-y,-z
1/2-x,y,1/2-z
1/2-x,1/2-y,-z
1/2+x,y,1/2-z
1/2-x,1/2+y,z
1/2+x,-y,1/2+z
loop_
_atom_site_type_symbol
_atom_site_label
_atom_site_fract_x
_atom_site_fract_y
_atom_site_fract_z
Si Si1 0.181091 0.500000 0.000000
Si Si2 0.419306 0.126821 0.157390
Si Si3 0.081076 0.804147 0.978328
Si Si4 0.773902 0.165878 0.906207
O O1 0.132432 0.454174 0.878799
O O2 0.230471 0.578084 0.943404
O O3 0.500000 0.095129 0.161351
O O4 0.405800 0.176118 0.309887
O O5 0.413717 0.200630 0.030028
O O6 0.000000 0.831726 0.009686
O O7 0.143253 0.850445 0.067791
O O8 0.750000 0.192608 0.750000
O O9 0.750000 0.250000 0.000000
#
# Coordination Sequence:
#
# PCOD9481089 Si02
#       4
#     8  16  16  16
#     4  12  27  40  71 100 144 180 234 292 347 418
#     4  10  22  43  71 104 139 184 232 286 350 419
#     4  10  22  44  72 100 139 184 232 284 346 418
#     4  12  27  45  71 103 139 184 236 292 352 417
#
# _framework density 21.190152999999999
#
# number of rings (size 3 to 8) (size 9 to 14) (size 15 to 20)
#    0.000    1.143    2.857    2.143    4.000    0.000 
#    0.000    2.143    0.000    0.000    0.000    0.000 
#    0.000    0.000    0.000    0.000    0.000    0.000 
#
# Total GULP energy -156465.944666 kJ/mol
# GULP energy per Si atom -5588.069452 kJ/mol
# Density = 2.114192 g / cm^3
# Si number density = 21.190153 Si / 1000 Ang^3
#
#
#
# Elastic Constant Matrix: (Units=GPa)
#
#
# Indices 1 2 3 4 5 6 
#
# 1 184.0220 77.0175 67.3907 0.0000 0.0000 0.0000
# 2 77.0175 111.3801 73.5369 0.0000 0.0000 0.0000
# 3 67.3907 73.5369 140.4177 0.0000 0.0000 0.0000
# 4 0.0000 0.0000 0.0000 10.2151 0.0000 0.0000
# 5 0.0000 0.0000 0.0000 0.0000 29.7546 0.0000
# 6 0.0000 0.0000 0.0000 0.0000 0.0000 45.0169
#
#
#
# Elastic Compliance Matrix: (Units=1/GPa)
#
#
# Indices 1 2 3 4 5 6 
#
# 1 0.007826 -0.004481 -0.001409 0.000000 0.000000 0.000000
# 2 -0.004481 0.016289 -0.006380 0.000000 0.000000 0.000000
# 3 -0.001409 -0.006380 0.011139 0.000000 0.000000 0.000000
# 4 0.000000 0.000000 0.000000 0.097894 0.000000 0.000000
# 5 0.000000 0.000000 0.000000 0.000000 0.033608 0.000000
# 6 0.000000 0.000000 0.000000 0.000000 0.000000 0.022214
#
#
# Mechanical properties :
#
#
# Convention : Reuss Voigt Hill
#
# Bulk Modulus (GPa) = 93.33909 96.85666 95.09787
# Shear Modulus (GPa) = 23.03287 31.52230 27.27759
#
# Velocity S-wave (km/s) = 3.30049 3.86112 3.59176
# Velocity P-wave (km/s) = 7.65952 8.10464 7.88522
#
# Compressibility (1/GPa) = 0.01071363
#
# Stress axis : x y z
#
# Youngs Moduli (GPa) = 127.78733 61.39076 89.77377
#
# Poissons Ratio (x) = 0.27509 0.12649
# Poissons Ratio (y) = 0.57260 0.57277
# Poissons Ratio (z) = 0.18006 0.39168
#
# Static dielectric constant tensor:
#      x y z
#    x 1.811440 0.000000 0.000000 
#    y 0.000000 1.680700 0.000000 
#    z 0.000000 0.000000 1.766230 
# 
# From -- ./inp_files/7635.got.cif
#   From: 2010.05.17/outbox.cif.g08.bks.cpg/sg64_4_cif.got.tgz:7635.got - 2010.06.03 16:29:19.
