data_PCOD9481156
_publ_section_title
;
Structure prediction by ZEFSAII (Michael W. Deem and Ramdas Pophale) SiO2 
 PCOD9481156
Probable space group: C M C A
;
_chemical_formula_sum "Si O2"
_cell_formula_units_Z 64
_cell_length_a 25.295876
_cell_length_b 13.982311
_cell_length_c 7.236892
_cell_angle_alpha 90.000000
_cell_angle_beta 90.000000
_cell_angle_gamma 90.000000
_cell_volume 2559.651107
_symmetry_space_group_name_H-M "C M C A"
_symmetry_group_IT_number 64
_symmetry_cell_setting 'orthorhombic'
loop_
_space_group_symop_operation_xyz
x,y,z
-x,1/2-y,1/2+z
x,-y,-z
-x,1/2+y,1/2-z
-x,-y,-z
x,1/2+y,1/2-z
-x,y,z
x,1/2-y,1/2+z
1/2+x,1/2+y,z
1/2-x,-y,1/2+z
1/2+x,1/2-y,-z
1/2-x,y,1/2-z
1/2-x,1/2-y,-z
1/2+x,y,1/2-z
1/2-x,1/2+y,z
1/2+x,-y,1/2+z
loop_
_atom_site_type_symbol
_atom_site_label
_atom_site_fract_x
_atom_site_fract_y
_atom_site_fract_z
Si Si1 0.405891 0.000000 0.500000
Si Si2 0.750000 0.491927 0.250000
Si Si3 0.284626 0.154736 0.979882
Si Si4 0.387321 0.407692 0.632067
Si Si5 0.500000 0.114090 0.620037
Si Si6 0.500000 0.827761 0.804564
O O1 0.377317 0.066275 0.349530
O O2 0.445698 0.056911 0.639486
O O3 0.705993 0.408117 0.290814
O O4 0.746839 0.572620 0.409092
O O5 0.341768 0.165893 0.071501
O O6 0.250000 0.250000 0.000000
O O7 0.382112 0.500000 0.500000
O O8 0.445732 0.364519 0.607726
O O9 0.500000 0.133514 0.401762
O O10 0.500000 0.214513 0.715960
#
# Coordination Sequence:
#
# PCOD9481156 Si02
#       6
#     8   8  16  16   8   8
#     4   9  22  42  70  96 150 198 248 299 376 466
#     4  10  22  48  70 100 140 186 256 314 396 466
#     4  11  24  48  74 104 144 196 261 326 394 467
#     4  11  23  47  73 107 143 203 249 310 398 463
#     4   9  20  42  61 104 147 199 244 301 366 453
#     4  10  23  40  68 108 153 190 252 306 378 473
#
# _framework density 25.003409000000001
#
# number of rings (size 3 to 8) (size 9 to 14) (size 15 to 20)
#    0.000    1.750    2.500    1.875    3.500    2.000 
#   22.500    0.000    0.000    0.000    0.000    0.000 
#    0.000    0.000    0.000    0.000    0.000    0.000 
#
# Total GULP energy -178193.003747 kJ/mol
# GULP energy per Si atom -5568.531367 kJ/mol
# Density = 2.494650 g / cm^3
# Si number density = 25.003409 Si / 1000 Ang^3
#
#
#
# Elastic Constant Matrix: (Units=GPa)
#
#
# Indices 1 2 3 4 5 6 
#
# 1 169.2265 48.3120 22.0187 0.0000 0.0000 0.0000
# 2 48.3120 147.7224 9.6974 0.0000 0.0000 0.0000
# 3 22.0187 9.6974 52.3908 0.0000 0.0000 0.0000
# 4 0.0000 0.0000 0.0000 27.5494 0.0000 0.0000
# 5 0.0000 0.0000 0.0000 0.0000 2.2035 0.0000
# 6 0.0000 0.0000 0.0000 0.0000 0.0000 37.9330
#
#
#
# Elastic Compliance Matrix: (Units=1/GPa)
#
#
# Indices 1 2 3 4 5 6 
#
# 1 0.006823 -0.002068 -0.002485 0.000000 0.000000 0.000000
# 2 -0.002068 0.007480 -0.000515 0.000000 0.000000 0.000000
# 3 -0.002485 -0.000515 0.020227 0.000000 0.000000 0.000000
# 4 0.000000 0.000000 0.000000 0.036298 0.000000 0.000000
# 5 0.000000 0.000000 0.000000 0.000000 0.453826 0.000000
# 6 0.000000 0.000000 0.000000 0.000000 0.000000 0.026362
#
#
# Mechanical properties :
#
#
# Convention : Reuss Voigt Hill
#
# Bulk Modulus (GPa) = 40.99508 58.82177 49.90843
# Shear Modulus (GPa) = 8.78297 32.82462 20.80379
#
# Velocity S-wave (km/s) = 1.87626 3.62720 2.88764
# Velocity P-wave (km/s) = 4.59621 6.41238 5.57870
#
# Compressibility (1/GPa) = 0.02439317
#
# Stress axis : x y z
#
# Youngs Moduli (GPa) = 146.56269 133.69493 49.43901
#
# Poissons Ratio (x) = 0.27653 0.12284
# Poissons Ratio (y) = 0.30314 0.02547
# Poissons Ratio (z) = 0.36417 0.06888
#
# Static dielectric constant tensor:
#      x y z
#    x 2.124540 0.000000 0.000000 
#    y 0.000000 1.740290 0.000000 
#    z 0.000000 0.000000 1.635210 
# 
# From -- ./inp_files/9035.got.cif
#   From: 2010.05.17/outbox.cif.g08.bks.cpg/sg64_5_cif.got.tgz:9035.got - 2010.06.03 16:29:19.
