data_PCOD9481038
_publ_section_title
;
Structure prediction by ZEFSAII (Michael W. Deem and Ramdas Pophale) SiO2 
 PCOD9481038
Probable space group: C M C A
;
_chemical_formula_sum "Si O2"
_cell_formula_units_Z 80
_cell_length_a 11.782869
_cell_length_b 14.143113
_cell_length_c 23.991149
_cell_angle_alpha 90.000000
_cell_angle_beta 90.000000
_cell_angle_gamma 90.000000
_cell_volume 3998.039758
_symmetry_space_group_name_H-M "C M C A"
_symmetry_group_IT_number 64
_symmetry_cell_setting 'orthorhombic'
loop_
_space_group_symop_operation_xyz
x,y,z
-x,1/2-y,1/2+z
x,-y,-z
-x,1/2+y,1/2-z
-x,-y,-z
x,1/2+y,1/2-z
-x,y,z
x,1/2-y,1/2+z
1/2+x,1/2+y,z
1/2-x,-y,1/2+z
1/2+x,1/2-y,-z
1/2-x,y,1/2-z
1/2-x,1/2-y,-z
1/2+x,y,1/2-z
1/2-x,1/2+y,z
1/2+x,-y,1/2+z
loop_
_atom_site_type_symbol
_atom_site_label
_atom_site_fract_x
_atom_site_fract_y
_atom_site_fract_z
Si Si1 0.500000 0.815197 0.258073
Si Si2 0.500000 0.506719 0.672691
Si Si3 0.127956 0.031334 0.064178
Si Si4 0.500000 0.292230 0.630654
Si Si5 0.750000 0.686698 0.750000
Si Si6 0.262948 0.722215 0.434994
Si Si7 0.723248 0.396743 0.366084
O O1 0.500000 0.921881 0.228695
O O2 0.500000 0.792809 0.324231
O O3 0.376707 0.769470 0.240217
O O4 0.500000 0.391350 0.667103
O O5 0.612123 0.539951 0.640349
O O6 0.205892 0.121480 0.072038
O O7 0.000000 0.052980 0.080635
O O8 0.179905 0.947296 0.099380
O O9 0.129438 0.000000 0.000000
O O10 0.389544 0.284232 0.591010
O O11 0.767202 0.624705 0.695420
O O12 0.250000 0.750000 0.500000
O O13 0.198100 0.799802 0.398006
#
# Coordination Sequence:
#
# PCOD9481038 Si02
#       7
#     8   8  16   8   8  16  16
#     4  10  22  44  72 101 142 186 235 305 359 431
#     4  10  24  45  70 103 138 184 240 295 355 436
#     4  11  25  44  67 102 142 184 237 293 357 434
#     4  12  24  47  76 103 146 195 247 295 376 439
#     4  10  22  42  72  96 138 188 232 290 362 422
#     4  12  26  42  70 105 141 192 238 294 364 435
#     4  11  23  44  69 100 144 183 235 294 357 425
#
# _framework density 20.009806000000001
#
# number of rings (size 3 to 8) (size 9 to 14) (size 15 to 20)
#    0.000    1.000    6.000    0.000    5.600    0.000 
#    0.000   15.000    0.000    0.000    0.000    0.000 
#    0.000    0.000    0.000    0.000    0.000    0.000 
#
# Total GULP energy -222852.104416 kJ/mol
# GULP energy per Si atom -5571.302610 kJ/mol
# Density = 1.996426 g / cm^3
# Si number density = 20.009806 Si / 1000 Ang^3
#
#
#
# Elastic Constant Matrix: (Units=GPa)
#
#
# Indices 1 2 3 4 5 6 
#
# 1 155.1348 16.9053 32.6152 0.0000 0.0000 0.0000
# 2 16.9053 74.6570 30.5921 0.0000 0.0000 0.0000
# 3 32.6152 30.5921 122.2726 0.0000 0.0000 0.0000
# 4 0.0000 0.0000 0.0000 28.8350 0.0000 0.0000
# 5 0.0000 0.0000 0.0000 0.0000 22.8383 0.0000
# 6 0.0000 0.0000 0.0000 0.0000 0.0000 56.5615
#
#
#
# Elastic Compliance Matrix: (Units=1/GPa)
#
#
# Indices 1 2 3 4 5 6 
#
# 1 0.006883 -0.000898 -0.001611 0.000000 0.000000 0.000000
# 2 -0.000898 0.015042 -0.003524 0.000000 0.000000 0.000000
# 3 -0.001611 -0.003524 0.009490 0.000000 0.000000 0.000000
# 4 0.000000 0.000000 0.000000 0.034680 0.000000 0.000000
# 5 0.000000 0.000000 0.000000 0.000000 0.043786 0.000000
# 6 0.000000 0.000000 0.000000 0.000000 0.000000 0.017680
#
#
# Mechanical properties :
#
#
# Convention : Reuss Voigt Hill
#
# Bulk Modulus (GPa) = 51.68518 56.92109 54.30313
# Shear Modulus (GPa) = 34.22867 39.77705 37.00286
#
# Velocity S-wave (km/s) = 4.14042 4.46340 4.30494
# Velocity P-wave (km/s) = 6.98165 7.42098 7.20466
#
# Compressibility (1/GPa) = 0.01934790
#
# Stress axis : x y z
#
# Youngs Moduli (GPa) = 145.29350 66.48068 105.37574
#
# Poissons Ratio (x) = 0.05972 0.16977
# Poissons Ratio (y) = 0.13052 0.37133
# Poissons Ratio (z) = 0.23409 0.23427
#
# Static dielectric constant tensor:
#      x y z
#    x 1.761150 0.000000 0.000000 
#    y 0.000000 1.615330 0.000000 
#    z 0.000000 0.000000 1.691920 
# 
# From -- ./inp_files/44016.got.cif
#   From: 2010.05.17/outbox.cif.g08.bks.cpg/sg64_23_cif.got.tgz:44016.got - 2010.06.03 16:29:19.
