data_PCOD9481879
_publ_section_title
;
Structure prediction by ZEFSAII (Michael W. Deem and Ramdas Pophale) SiO2 
 PCOD9481879
Probable space group: C M C A
;
_chemical_formula_sum "Si O2"
_cell_formula_units_Z 68
_cell_length_a 21.300423
_cell_length_b 7.972748
_cell_length_c 18.853107
_cell_angle_alpha 90.000000
_cell_angle_beta 90.000000
_cell_angle_gamma 90.000000
_cell_volume 3201.689397
_symmetry_space_group_name_H-M "C M C A"
_symmetry_group_IT_number 64
_symmetry_cell_setting 'orthorhombic'
loop_
_space_group_symop_operation_xyz
x,y,z
-x,1/2-y,1/2+z
x,-y,-z
-x,1/2+y,1/2-z
-x,-y,-z
x,1/2+y,1/2-z
-x,y,z
x,1/2-y,1/2+z
1/2+x,1/2+y,z
1/2-x,-y,1/2+z
1/2+x,1/2-y,-z
1/2-x,y,1/2-z
1/2-x,1/2-y,-z
1/2+x,y,1/2-z
1/2-x,1/2+y,z
1/2+x,-y,1/2+z
loop_
_atom_site_type_symbol
_atom_site_label
_atom_site_fract_x
_atom_site_fract_y
_atom_site_fract_z
Si Si1 0.702255 0.883037 0.153597
Si Si2 0.000000 0.500000 0.000000
Si Si3 0.926977 0.894876 0.098407
Si Si4 0.106709 0.743128 0.953373
Si Si5 0.168202 0.758376 0.195856
O O1 0.670798 0.817382 0.082125
O O2 0.777265 0.869754 0.158733
O O3 0.678145 0.772370 0.220187
O O4 0.679880 0.070371 0.170117
O O5 0.944764 0.402533 0.045922
O O6 0.898273 0.828698 0.170920
O O7 0.000000 0.847759 0.087948
O O8 0.918540 0.092828 0.088081
O O9 0.889372 0.804802 0.034707
#
# Coordination Sequence:
#
# PCOD9481879 Si02
#       5
#    16   4  16  16  16
#     4  11  23  42  67  96 123 178 210 281 319 395
#     4  12  20  38  60  92 128 162 202 260 308 386
#     4  11  22  43  63  96 129 177 208 273 319 394
#     4  11  22  39  66  91 129 168 218 255 331 376
#     4  11  23  43  67  93 135 163 226 265 335 378
#
# _framework density 21.238788
#
# number of rings (size 3 to 8) (size 9 to 14) (size 15 to 20)
#    0.000    0.941    2.353    7.765    0.000    0.941 
#    2.118    2.353    0.000    0.000    0.000    0.000 
#    0.000    0.000    0.000    0.000    0.000    0.000 
#
# Total GULP energy -189609.568534 kJ/mol
# GULP energy per Si atom -5576.752016 kJ/mol
# Density = 2.119045 g / cm^3
# Si number density = 21.238788 Si / 1000 Ang^3
#
#
#
# Elastic Constant Matrix: (Units=GPa)
#
#
# Indices 1 2 3 4 5 6 
#
# 1 51.6230 13.3702 33.3798 0.0000 0.0000 0.0000
# 2 13.3702 84.4738 18.7701 0.0000 0.0000 0.0000
# 3 33.3798 18.7701 34.5706 0.0000 0.0000 0.0000
# 4 0.0000 0.0000 0.0000 27.4618 0.0000 0.0000
# 5 0.0000 0.0000 0.0000 0.0000 20.4170 0.0000
# 6 0.0000 0.0000 0.0000 0.0000 0.0000 29.1081
#
#
#
# Elastic Compliance Matrix: (Units=1/GPa)
#
#
# Indices 1 2 3 4 5 6 
#
# 1 0.052387 0.003352 -0.052402 0.000000 0.000000 0.000000
# 2 0.003352 0.013677 -0.010663 0.000000 0.000000 0.000000
# 3 -0.052402 -0.010663 0.085313 0.000000 0.000000 0.000000
# 4 0.000000 0.000000 0.000000 0.036414 0.000000 0.000000
# 5 0.000000 0.000000 0.000000 0.000000 0.048979 0.000000
# 6 0.000000 0.000000 0.000000 0.000000 0.000000 0.034355
#
#
# Mechanical properties :
#
#
# Convention : Reuss Voigt Hill
#
# Bulk Modulus (GPa) = 31.29795 33.52309 32.41052
# Shear Modulus (GPa) = 12.46263 22.40721 17.43492
#
# Velocity S-wave (km/s) = 2.42499 3.25162 2.86824
# Velocity P-wave (km/s) = 4.75489 5.46951 5.12467
#
# Compressibility (1/GPa) = 0.03195098
#
# Stress axis : x y z
#
# Youngs Moduli (GPa) = 19.08880 73.11748 11.72155
#
# Poissons Ratio (x) = -0.24511 0.61424
# Poissons Ratio (y) = -0.06399 0.12498
# Poissons Ratio (z) = 1.00030 0.77962
#
# Static dielectric constant tensor:
#      x y z
#    x 1.710420 0.000000 0.000000 
#    y 0.000000 1.821930 0.000000 
#    z 0.000000 0.000000 1.757650 
# 
# From -- ./inp_files/33941.got.cif
#   From: 2010.05.17/outbox.cif.g08.bks.cpg/sg64_17_cif.got.tgz:33941.got - 2010.06.03 16:29:19.
