data_PCOD9481096
_publ_section_title
;
Structure prediction by ZEFSAII (Michael W. Deem and Ramdas Pophale) SiO2 
 PCOD9481096
Probable space group: C M C A
;
_chemical_formula_sum "Si O2"
_cell_formula_units_Z 64
_cell_length_a 10.624252
_cell_length_b 9.683875
_cell_length_c 27.098152
_cell_angle_alpha 90.000000
_cell_angle_beta 90.000000
_cell_angle_gamma 90.000000
_cell_volume 2787.964328
_symmetry_space_group_name_H-M "C M C A"
_symmetry_group_IT_number 64
_symmetry_cell_setting 'orthorhombic'
loop_
_space_group_symop_operation_xyz
x,y,z
-x,1/2-y,1/2+z
x,-y,-z
-x,1/2+y,1/2-z
-x,-y,-z
x,1/2+y,1/2-z
-x,y,z
x,1/2-y,1/2+z
1/2+x,1/2+y,z
1/2-x,-y,1/2+z
1/2+x,1/2-y,-z
1/2-x,y,1/2-z
1/2-x,1/2-y,-z
1/2+x,y,1/2-z
1/2-x,1/2+y,z
1/2+x,-y,1/2+z
loop_
_atom_site_type_symbol
_atom_site_label
_atom_site_fract_x
_atom_site_fract_y
_atom_site_fract_z
Si Si1 0.355461 0.786807 0.896848
Si Si2 0.142790 0.982728 0.941008
Si Si3 0.726447 0.059944 0.191240
Si Si4 0.000000 0.871504 0.291645
Si Si5 0.500000 0.453656 0.806967
O O1 0.500000 0.829789 0.906081
O O2 0.341322 0.633976 0.917516
O O3 0.329932 0.811001 0.838387
O O4 0.253573 0.882802 0.923509
O O5 0.000000 0.931297 0.929430
O O6 0.149480 0.000000 0.000000
O O7 0.750000 0.084155 0.250000
O O8 0.863945 0.028788 0.169298
O O9 0.625983 0.936908 0.184889
O O10 0.000000 0.707619 0.290947
O O11 0.000000 0.937936 0.237543
#
# Coordination Sequence:
#
# PCOD9481096 Si02
#       5
#    16  16  16   8   8
#     4  11  24  43  67 100 133 173 221 274 333 398
#     4  10  24  46  71 100 132 168 220 281 344 409
#     4  10  23  41  62  93 133 175 218 268 317 389
#     4  10  22  44  60  90 129 170 226 274 323 386
#     4  10  24  40  64  88 123 176 222 268 321 382
#
# _framework density 22.955817
#
# number of rings (size 3 to 8) (size 9 to 14) (size 15 to 20)
#    0.000    1.750    1.250    0.750    5.250   10.500 
#    0.000    0.000    0.000    0.000    0.000    0.000 
#    0.000    0.000    0.000    0.000    0.000    0.000 
#
# Total GULP energy -178998.188112 kJ/mol
# GULP energy per Si atom -5593.693378 kJ/mol
# Density = 2.290357 g / cm^3
# Si number density = 22.955817 Si / 1000 Ang^3
#
#
#
# Elastic Constant Matrix: (Units=GPa)
#
#
# Indices 1 2 3 4 5 6 
#
# 1 246.4822 99.5326 63.4420 0.0000 0.0000 0.0000
# 2 99.5326 128.4790 56.4640 0.0000 0.0000 0.0000
# 3 63.4420 56.4640 109.3873 0.0000 0.0000 0.0000
# 4 0.0000 0.0000 0.0000 26.2335 0.0000 0.0000
# 5 0.0000 0.0000 0.0000 0.0000 39.6185 0.0000
# 6 0.0000 0.0000 0.0000 0.0000 0.0000 44.2545
#
#
#
# Elastic Compliance Matrix: (Units=1/GPa)
#
#
# Indices 1 2 3 4 5 6 
#
# 1 0.006068 -0.004080 -0.001414 0.000000 0.000000 0.000000
# 2 -0.004080 0.012810 -0.004246 0.000000 0.000000 0.000000
# 3 -0.001414 -0.004246 0.012153 0.000000 0.000000 0.000000
# 4 0.000000 0.000000 0.000000 0.038119 0.000000 0.000000
# 5 0.000000 0.000000 0.000000 0.000000 0.025241 0.000000
# 6 0.000000 0.000000 0.000000 0.000000 0.000000 0.022597
#
#
# Mechanical properties :
#
#
# Convention : Reuss Voigt Hill
#
# Bulk Modulus (GPa) = 86.55919 102.58062 94.56990
# Shear Modulus (GPa) = 35.63309 39.68196 37.65753
#
# Velocity S-wave (km/s) = 3.94413 4.16218 4.05462
# Velocity P-wave (km/s) = 7.65051 8.23902 7.95021
#
# Compressibility (1/GPa) = 0.01155279
#
# Stress axis : x y z
#
# Youngs Moduli (GPa) = 164.78580 78.06241 82.28134
#
# Poissons Ratio (x) = 0.31850 0.11631
# Poissons Ratio (y) = 0.67233 0.34938
# Poissons Ratio (z) = 0.23293 0.33146
#
# Static dielectric constant tensor:
#      x y z
#    x 1.886470 0.000000 0.000000 
#    y 0.000000 1.788580 0.000000 
#    z 0.000000 0.000000 1.920280 
# 
# From -- ./inp_files/52484.got.cif
#   From: 2010.05.17/outbox.cif.g08.bks.cpg/sg64_27_cif.got.tgz:52484.got - 2010.06.03 16:29:19.
