data_PCOD9481855
_publ_section_title
;
Structure prediction by ZEFSAII (Michael W. Deem and Ramdas Pophale) SiO2 
 PCOD9481855
Probable space group: C M C A
;
_chemical_formula_sum "Si O2"
_cell_formula_units_Z 68
_cell_length_a 15.394578
_cell_length_b 9.681863
_cell_length_c 20.343954
_cell_angle_alpha 90.000000
_cell_angle_beta 90.000000
_cell_angle_gamma 90.000000
_cell_volume 3032.229626
_symmetry_space_group_name_H-M "C M C A"
_symmetry_group_IT_number 64
_symmetry_cell_setting 'orthorhombic'
loop_
_space_group_symop_operation_xyz
x,y,z
-x,1/2-y,1/2+z
x,-y,-z
-x,1/2+y,1/2-z
-x,-y,-z
x,1/2+y,1/2-z
-x,y,z
x,1/2-y,1/2+z
1/2+x,1/2+y,z
1/2-x,-y,1/2+z
1/2+x,1/2-y,-z
1/2-x,y,1/2-z
1/2-x,1/2-y,-z
1/2+x,y,1/2-z
1/2-x,1/2+y,z
1/2+x,-y,1/2+z
loop_
_atom_site_type_symbol
_atom_site_label
_atom_site_fract_x
_atom_site_fract_y
_atom_site_fract_z
Si Si1 0.354551 0.047268 0.887688
Si Si2 0.605640 0.140737 0.668274
Si Si3 0.500000 0.500000 0.500000
Si Si4 0.100970 0.900574 0.746574
Si Si5 0.266214 0.774209 0.923532
O O1 0.392408 0.996942 0.818339
O O2 0.311377 0.197326 0.885603
O O3 0.282036 0.933579 0.907738
O O4 0.425052 0.037453 0.944895
O O5 0.500000 0.143674 0.664800
O O6 0.636318 0.254600 0.722051
O O7 0.636560 0.992460 0.694176
O O8 0.646530 0.195442 0.601033
O O9 0.000000 0.876307 0.762152
O O10 0.250000 0.750000 0.000000
#
# Coordination Sequence:
#
# PCOD9481855 Si02
#       5
#    16  16   4  16  16
#     4  11  23  38  66  88 125 160 211 256 311 369
#     4   9  20  36  61  86 124 162 204 254 314 372
#     4  12  20  40  68  90 110 176 208 250 304 386
#     4   9  18  36  58  89 116 161 208 251 304 375
#     4  11  22  38  59  91 123 161 206 264 309 370
#
# _framework density 22.425744000000002
#
# number of rings (size 3 to 8) (size 9 to 14) (size 15 to 20)
#    0.000    1.882    3.529    0.000    1.647    2.824 
#    0.000    4.706    2.588    2.824    0.000    0.000 
#    0.000    0.000    0.000    0.000    0.000    0.000 
#
# Total GULP energy -189380.355703 kJ/mol
# GULP energy per Si atom -5570.010462 kJ/mol
# Density = 2.237470 g / cm^3
# Si number density = 22.425744 Si / 1000 Ang^3
#
#
#
# Elastic Constant Matrix: (Units=GPa)
#
#
# Indices 1 2 3 4 5 6 
#
# 1 72.9273 42.2989 24.6613 0.0000 0.0000 0.0000
# 2 42.2989 103.9012 22.4368 0.0000 0.0000 0.0000
# 3 24.6613 22.4368 79.5792 0.0000 0.0000 0.0000
# 4 0.0000 0.0000 0.0000 23.5882 0.0000 0.0000
# 5 0.0000 0.0000 0.0000 0.0000 40.5312 0.0000
# 6 0.0000 0.0000 0.0000 0.0000 0.0000 16.2750
#
#
#
# Elastic Compliance Matrix: (Units=1/GPa)
#
#
# Indices 1 2 3 4 5 6 
#
# 1 0.019054 -0.006902 -0.003959 0.000000 0.000000 0.000000
# 2 -0.006902 0.012749 -0.001455 0.000000 0.000000 0.000000
# 3 -0.003959 -0.001455 0.014203 0.000000 0.000000 0.000000
# 4 0.000000 0.000000 0.000000 0.042394 0.000000 0.000000
# 5 0.000000 0.000000 0.000000 0.000000 0.024672 0.000000
# 6 0.000000 0.000000 0.000000 0.000000 0.000000 0.061444
#
#
# Mechanical properties :
#
#
# Convention : Reuss Voigt Hill
#
# Bulk Modulus (GPa) = 46.78724 48.35575 47.57149
# Shear Modulus (GPa) = 24.23953 27.21292 25.72623
#
# Velocity S-wave (km/s) = 3.29124 3.48727 3.39067
# Velocity P-wave (km/s) = 5.94571 6.15013 6.04879
#
# Compressibility (1/GPa) = 0.02137335
#
# Stress axis : x y z
#
# Youngs Moduli (GPa) = 52.48116 78.43877 70.40627
#
# Poissons Ratio (x) = 0.54141 0.27873
# Poissons Ratio (y) = 0.36224 0.10247
# Poissons Ratio (z) = 0.20776 0.11416
#
# Static dielectric constant tensor:
#      x y z
#    x 1.831230 0.000000 0.000000 
#    y 0.000000 1.857600 0.000000 
#    z 0.000000 0.000000 1.817280 
# 
# From -- ./inp_files/38868.got.cif
#   From: 2010.05.17/outbox.cif.g08.bks.cpg/sg64_20_cif.got.tgz:38868.got - 2010.06.03 16:29:19.
