data_PCOD9481969
_publ_section_title
;
Structure prediction by ZEFSAII (Michael W. Deem and Ramdas Pophale) SiO2 
 PCOD9481969
Probable space group: C M C A
;
_chemical_formula_sum "Si O2"
_cell_formula_units_Z 104
_cell_length_a 23.791210
_cell_length_b 8.844051
_cell_length_c 24.530589
_cell_angle_alpha 90.000000
_cell_angle_beta 90.000000
_cell_angle_gamma 90.000000
_cell_volume 5161.497780
_symmetry_space_group_name_H-M "C M C A"
_symmetry_group_IT_number 64
_symmetry_cell_setting 'orthorhombic'
loop_
_space_group_symop_operation_xyz
x,y,z
-x,1/2-y,1/2+z
x,-y,-z
-x,1/2+y,1/2-z
-x,-y,-z
x,1/2+y,1/2-z
-x,y,z
x,1/2-y,1/2+z
1/2+x,1/2+y,z
1/2-x,-y,1/2+z
1/2+x,1/2-y,-z
1/2-x,y,1/2-z
1/2-x,1/2-y,-z
1/2+x,y,1/2-z
1/2-x,1/2+y,z
1/2+x,-y,1/2+z
loop_
_atom_site_type_symbol
_atom_site_label
_atom_site_fract_x
_atom_site_fract_y
_atom_site_fract_z
Si Si1 0.123714 0.611362 0.724231
Si Si2 0.500000 0.499262 0.360322
Si Si3 0.803505 0.428486 0.165770
Si Si4 0.500000 0.469766 0.238056
Si Si5 0.500000 0.135593 0.377053
Si Si6 0.115761 0.164515 0.375860
Si Si7 0.311551 0.913596 0.648310
Si Si8 0.607102 0.976382 0.435981
O O1 0.161176 0.596172 0.778288
O O2 0.058267 0.620020 0.737970
O O3 0.131342 0.748798 0.681477
O O4 0.138410 0.459664 0.689950
O O5 0.500000 0.544425 0.296658
O O6 0.500000 0.318803 0.372631
O O7 0.557238 0.575590 0.379814
O O8 0.836771 0.536101 0.123917
O O9 0.742002 0.498513 0.172024
O O10 0.797306 0.260044 0.144654
O O11 0.500000 0.572194 0.184500
O O12 0.554765 0.064919 0.407429
O O13 0.109027 0.300415 0.418567
O O14 0.334984 0.963623 0.590099
O O15 0.603272 0.000000 0.500000
#
# Coordination Sequence:
#
# PCOD9481969 Si02
#       8
#    16   8  16   8   8  16  16  16
#     4  11  23  39  63  94 141 182 214 251 320 395
#     4  12  26  35  67 103 147 177 211 259 323 396
#     4  12  24  41  64  96 134 172 214 267 331 396
#     4  12  23  37  64  99 146 176 208 243 325 385
#     4  12  24  44  66 100 140 178 219 264 322 401
#     4  11  23  41  63 100 133 175 220 268 319 394
#     4  11  24  43  63  93 130 170 222 271 321 392
#     4  11  25  48  72  92 124 173 225 284 340 381
#
# _framework density 20.149189
#
# number of rings (size 3 to 8) (size 9 to 14) (size 15 to 20)
#    0.000    0.615    4.615    5.308    2.154    1.231 
#    0.000    6.923    0.000    0.000    0.000    0.000 
#    0.000    0.000    0.000    0.000    0.000    0.000 
#
# Total GULP energy -290272.256897 kJ/mol
# GULP energy per Si atom -5582.158786 kJ/mol
# Density = 2.010333 g / cm^3
# Si number density = 20.149189 Si / 1000 Ang^3
#
#
#
# Elastic Constant Matrix: (Units=GPa)
#
#
# Indices 1 2 3 4 5 6 
#
# 1 120.5048 37.9829 37.2324 0.0000 0.0000 0.0000
# 2 37.9829 114.3484 34.8175 0.0000 0.0000 0.0000
# 3 37.2324 34.8175 87.4651 0.0000 0.0000 0.0000
# 4 0.0000 0.0000 0.0000 8.3394 0.0000 0.0000
# 5 0.0000 0.0000 0.0000 0.0000 10.1080 0.0000
# 6 0.0000 0.0000 0.0000 0.0000 0.0000 92.9616
#
#
#
# Elastic Compliance Matrix: (Units=1/GPa)
#
#
# Indices 1 2 3 4 5 6 
#
# 1 0.010069 -0.002321 -0.003362 0.000000 0.000000 0.000000
# 2 -0.002321 0.010486 -0.003186 0.000000 0.000000 0.000000
# 3 -0.003362 -0.003186 0.014133 0.000000 0.000000 0.000000
# 4 0.000000 0.000000 0.000000 0.119912 0.000000 0.000000
# 5 0.000000 0.000000 0.000000 0.000000 0.098932 0.000000
# 6 0.000000 0.000000 0.000000 0.000000 0.000000 0.010757
#
#
# Mechanical properties :
#
#
# Convention : Reuss Voigt Hill
#
# Bulk Modulus (GPa) = 59.00050 60.26488 59.63269
# Shear Modulus (GPa) = 17.38056 36.43417 26.90737
#
# Velocity S-wave (km/s) = 2.94018 4.25693 3.65829
# Velocity P-wave (km/s) = 6.39309 7.35773 6.89231
#
# Compressibility (1/GPa) = 0.01694901
#
# Stress axis : x y z
#
# Youngs Moduli (GPa) = 99.31710 95.36254 70.75736
#
# Poissons Ratio (x) = 0.22131 0.23790
# Poissons Ratio (y) = 0.23049 0.22546
# Poissons Ratio (z) = 0.33393 0.30386
#
# Static dielectric constant tensor:
#      x y z
#    x 1.777270 0.000000 0.000000 
#    y 0.000000 1.739330 0.000000 
#    z 0.000000 0.000000 1.715510 
# 
# From -- ./inp_files/51062.got.cif
#   From: 2010.05.17/outbox.cif.g08.bks.cpg/sg64_26_cif.got.tgz:51062.got - 2010.06.03 16:29:19.
