data_PCOD9481235
_publ_section_title
;
Structure prediction by ZEFSAII (Michael W. Deem and Ramdas Pophale) SiO2 
 PCOD9481235
Probable space group: C M C A
;
_chemical_formula_sum "Si O2"
_cell_formula_units_Z 116
_cell_length_a 19.286370
_cell_length_b 22.253790
_cell_length_c 13.684318
_cell_angle_alpha 90.000000
_cell_angle_beta 90.000000
_cell_angle_gamma 90.000000
_cell_volume 5873.238508
_symmetry_space_group_name_H-M "C M C A"
_symmetry_group_IT_number 64
_symmetry_cell_setting 'orthorhombic'
loop_
_space_group_symop_operation_xyz
x,y,z
-x,1/2-y,1/2+z
x,-y,-z
-x,1/2+y,1/2-z
-x,-y,-z
x,1/2+y,1/2-z
-x,y,z
x,1/2-y,1/2+z
1/2+x,1/2+y,z
1/2-x,-y,1/2+z
1/2+x,1/2-y,-z
1/2-x,y,1/2-z
1/2-x,1/2-y,-z
1/2+x,y,1/2-z
1/2-x,1/2+y,z
1/2+x,-y,1/2+z
loop_
_atom_site_type_symbol
_atom_site_label
_atom_site_fract_x
_atom_site_fract_y
_atom_site_fract_z
Si Si1 0.418968 0.592752 0.700576
Si Si2 0.579918 0.779731 0.897866
Si Si3 0.421480 0.232119 0.808500
Si Si4 0.189313 0.471823 0.332092
Si Si5 0.820853 0.781572 0.969074
Si Si6 0.379116 0.089440 0.022778
Si Si7 0.500000 0.500000 0.500000
Si Si8 0.280267 0.582529 0.045052
O O1 0.500000 0.575264 0.683924
O O2 0.417095 0.663258 0.727386
O O3 0.379287 0.553003 0.779280
O O4 0.382203 0.589324 0.595314
O O5 0.500000 0.769718 0.922874
O O6 0.585727 0.776924 0.781744
O O7 0.602934 0.843631 0.940936
O O8 0.627043 0.726852 0.940762
O O9 0.500000 0.238375 0.849682
O O10 0.361232 0.246577 0.883952
O O11 0.250000 0.467757 0.250000
O O12 0.204855 0.434573 0.431688
O O13 0.183995 0.538713 0.376687
O O14 0.803629 0.849307 0.940925
O O15 0.750000 0.750000 0.000000
O O16 0.302390 0.073903 0.058196
O O17 0.438709 0.042547 0.049943
#
# Coordination Sequence:
#
# PCOD9481235 Si02
#       8
#    16  16  16  16  16  16   4  16
#     4  11  21  42  69  99 126 175 238 285 327 404
#     4  11  22  42  67  97 136 176 221 282 340 409
#     4  10  23  41  67  99 134 178 225 275 344 410
#     4  11  24  43  68  91 134 181 225 278 336 407
#     4  12  23  41  65  98 138 176 219 283 347 411
#     4  12  22  41  66  97 132 169 231 285 343 396
#     4  12  24  36  68 100 124 174 226 298 348 388
#     4  11  25  44  63 100 135 178 228 273 349 416
#
# _framework density 19.750603000000002
#
# number of rings (size 3 to 8) (size 9 to 14) (size 15 to 20)
#    0.000    0.828    5.517    2.069    0.000    1.655 
#    0.000    3.448    0.000    0.000    0.000    0.000 
#    0.000    0.000    0.000    0.000    0.000    0.000 
#
# Total GULP energy -323511.144443 kJ/mol
# GULP energy per Si atom -5577.778352 kJ/mol
# Density = 1.970565 g / cm^3
# Si number density = 19.750603 Si / 1000 Ang^3
#
#
#
# Elastic Constant Matrix: (Units=GPa)
#
#
# Indices 1 2 3 4 5 6 
#
# 1 112.3205 52.1314 42.7504 0.0000 0.0000 0.0000
# 2 52.1314 118.8858 28.3460 0.0000 0.0000 0.0000
# 3 42.7504 28.3460 92.8862 0.0000 0.0000 0.0000
# 4 0.0000 0.0000 0.0000 29.9711 0.0000 0.0000
# 5 0.0000 0.0000 0.0000 0.0000 -24.1970 0.0000
# 6 0.0000 0.0000 0.0000 0.0000 0.0000 31.3261
#
#
#
# Elastic Compliance Matrix: (Units=1/GPa)
#
#
# Indices 1 2 3 4 5 6 
#
# 1 0.012693 -0.004500 -0.004468 0.000000 0.000000 0.000000
# 2 -0.004500 0.010667 -0.001184 0.000000 0.000000 0.000000
# 3 -0.004468 -0.001184 0.013184 0.000000 0.000000 0.000000
# 4 0.000000 0.000000 0.000000 0.033365 0.000000 0.000000
# 5 0.000000 0.000000 0.000000 0.000000 -0.041327 0.000000
# 6 0.000000 0.000000 0.000000 0.000000 0.000000 0.031922
#
#
# Mechanical properties :
#
#
# Convention : Reuss Voigt Hill
#
# Bulk Modulus (GPa) = 61.58374 63.39426 62.48900
# Shear Modulus (GPa) = 57.99005 20.81101 39.40053
#
# Velocity S-wave (km/s) = 5.42447 3.24958 4.47128
# Velocity P-wave (km/s) = 8.39533 6.80050 7.63964
#
# Compressibility (1/GPa) = 0.01623805
#
# Stress axis : x y z
#
# Youngs Moduli (GPa) = 78.78666 93.74602 75.85114
#
# Poissons Ratio (x) = 0.42188 0.33893
# Poissons Ratio (y) = 0.35456 0.08981
# Poissons Ratio (z) = 0.35204 0.11100
#
# Static dielectric constant tensor:
#      x y z
#    x 1.669110 0.000000 0.000000 
#    y 0.000000 1.619350 0.000000 
#    z 0.000000 0.000000 1.747120 
# 
# From -- ./inp_files/25754.got.cif
#   From: 2010.05.17/outbox.cif.g08.bks.cpg/sg64_13_cif.got.tgz:25754.got - 2010.06.03 16:29:19.
