data_PCOD9481309
_publ_section_title
;
Structure prediction by ZEFSAII (Michael W. Deem and Ramdas Pophale) SiO2 
 PCOD9481309
Probable space group: C M C A
;
_chemical_formula_sum "Si O2"
_cell_formula_units_Z 96
_cell_length_a 18.814639
_cell_length_b 21.732345
_cell_length_c 11.655250
_cell_angle_alpha 90.000000
_cell_angle_beta 90.000000
_cell_angle_gamma 90.000000
_cell_volume 4765.671183
_symmetry_space_group_name_H-M "C M C A"
_symmetry_group_IT_number 64
_symmetry_cell_setting 'orthorhombic'
loop_
_space_group_symop_operation_xyz
x,y,z
-x,1/2-y,1/2+z
x,-y,-z
-x,1/2+y,1/2-z
-x,-y,-z
x,1/2+y,1/2-z
-x,y,z
x,1/2-y,1/2+z
1/2+x,1/2+y,z
1/2-x,-y,1/2+z
1/2+x,1/2-y,-z
1/2-x,y,1/2-z
1/2-x,1/2-y,-z
1/2+x,y,1/2-z
1/2-x,1/2+y,z
1/2+x,-y,1/2+z
loop_
_atom_site_type_symbol
_atom_site_label
_atom_site_fract_x
_atom_site_fract_y
_atom_site_fract_z
Si Si1 0.082028 0.342586 0.830870
Si Si2 0.165148 0.138037 0.566211
Si Si3 0.178790 0.620910 0.518105
Si Si4 0.318229 0.772692 0.669894
Si Si5 0.080304 0.548414 0.350907
Si Si6 0.917574 0.093348 0.778428
O O1 0.114280 0.290450 0.747906
O O2 0.086223 0.405526 0.756917
O O3 0.000000 0.330424 0.858926
O O4 0.128380 0.349974 0.944514
O O5 0.240733 0.104644 0.550674
O O6 0.180995 0.203694 0.624844
O O7 0.112837 0.102758 0.651675
O O8 0.182580 0.681506 0.438698
O O9 0.138334 0.570130 0.442062
O O10 0.131647 0.629808 0.631520
O O11 0.250000 0.783974 0.750000
O O12 0.088024 0.478410 0.312534
O O13 0.000000 0.556760 0.399306
O O14 0.000000 0.111690 0.785848
#
# Coordination Sequence:
#
# PCOD9481309 Si02
#       6
#    16  16  16  16  16  16
#     4  10  23  43  66  94 126 169 220 260 318 387
#     4  12  25  41  63  99 134 170 209 267 330 381
#     4  11  22  41  66  95 123 169 221 263 316 384
#     4  11  23  43  67  88 129 174 209 265 326 382
#     4   9  21  44  68  90 127 175 216 264 321 378
#     4  11  24  43  65  95 134 172 215 265 321 378
#
# _framework density 20.144068000000001
#
# number of rings (size 3 to 8) (size 9 to 14) (size 15 to 20)
#    0.000    1.333    1.667    3.500    2.333    4.000 
#    9.000    2.500    0.000    0.000    0.000    0.000 
#    0.000    0.000    0.000    0.000    0.000    0.000 
#
# Total GULP energy -268509.205117 kJ/mol
# GULP energy per Si atom -5593.941773 kJ/mol
# Density = 2.009822 g / cm^3
# Si number density = 20.144068 Si / 1000 Ang^3
#
#
#
# Elastic Constant Matrix: (Units=GPa)
#
#
# Indices 1 2 3 4 5 6 
#
# 1 150.5928 21.0834 61.7239 0.0000 0.0000 0.0000
# 2 21.0834 53.4973 13.6743 0.0000 0.0000 0.0000
# 3 61.7239 13.6743 108.6637 0.0000 0.0000 0.0000
# 4 0.0000 0.0000 0.0000 16.3266 0.0000 0.0000
# 5 0.0000 0.0000 0.0000 0.0000 44.5398 0.0000
# 6 0.0000 0.0000 0.0000 0.0000 0.0000 13.5279
#
#
#
# Elastic Compliance Matrix: (Units=1/GPa)
#
#
# Indices 1 2 3 4 5 6 
#
# 1 0.008920 -0.002294 -0.004778 0.000000 0.000000 0.000000
# 2 -0.002294 0.019904 -0.001202 0.000000 0.000000 0.000000
# 3 -0.004778 -0.001202 0.012068 0.000000 0.000000 0.000000
# 4 0.000000 0.000000 0.000000 0.061250 0.000000 0.000000
# 5 0.000000 0.000000 0.000000 0.000000 0.022452 0.000000
# 6 0.000000 0.000000 0.000000 0.000000 0.000000 0.073921
#
#
# Mechanical properties :
#
#
# Convention : Reuss Voigt Hill
#
# Bulk Modulus (GPa) = 41.07755 56.19077 48.63416
# Shear Modulus (GPa) = 22.40376 29.29702 25.85039
#
# Velocity S-wave (km/s) = 3.33855 3.81776 3.58617
# Velocity P-wave (km/s) = 5.94116 6.88395 6.42986
#
# Compressibility (1/GPa) = 0.02434420
#
# Stress axis : x y z
#
# Youngs Moduli (GPa) = 112.10735 50.24177 82.86368
#
# Poissons Ratio (x) = 0.11526 0.39593
# Poissons Ratio (y) = 0.25718 0.09957
# Poissons Ratio (z) = 0.53566 0.06037
#
# Static dielectric constant tensor:
#      x y z
#    x 1.708860 0.000000 0.000000 
#    y 0.000000 1.686830 0.000000 
#    z 0.000000 0.000000 1.702850 
# 
# From -- ./inp_files/16171.got.cif
#   From: 2010.05.17/outbox.cif.g08.bks.cpg/sg64_9_cif.got.tgz:16171.got - 2010.06.03 16:29:19.
