data_PCOD9481246
_publ_section_title
;
Structure prediction by ZEFSAII (Michael W. Deem and Ramdas Pophale) SiO2 
 PCOD9481246
Probable space group: C M C A
;
_chemical_formula_sum "Si O2"
_cell_formula_units_Z 96
_cell_length_a 8.602689
_cell_length_b 21.096802
_cell_length_c 25.154771
_cell_angle_alpha 90.000000
_cell_angle_beta 90.000000
_cell_angle_gamma 90.000000
_cell_volume 4565.319932
_symmetry_space_group_name_H-M "C M C A"
_symmetry_group_IT_number 64
_symmetry_cell_setting 'orthorhombic'
loop_
_space_group_symop_operation_xyz
x,y,z
-x,1/2-y,1/2+z
x,-y,-z
-x,1/2+y,1/2-z
-x,-y,-z
x,1/2+y,1/2-z
-x,y,z
x,1/2-y,1/2+z
1/2+x,1/2+y,z
1/2-x,-y,1/2+z
1/2+x,1/2-y,-z
1/2-x,y,1/2-z
1/2-x,1/2-y,-z
1/2+x,y,1/2-z
1/2-x,1/2+y,z
1/2+x,-y,1/2+z
loop_
_atom_site_type_symbol
_atom_site_label
_atom_site_fract_x
_atom_site_fract_y
_atom_site_fract_z
Si Si1 0.822690 0.702577 0.541660
Si Si2 0.815295 0.601408 0.385339
Si Si3 0.318517 0.582639 0.502739
Si Si4 0.185625 0.139547 0.693547
Si Si5 0.312303 0.032081 0.888707
Si Si6 0.176235 0.269025 0.844450
O O1 0.750000 0.750000 0.500000
O O2 0.705488 0.644316 0.539927
O O3 0.829185 0.738919 0.596767
O O4 0.000000 0.682480 0.528389
O O5 0.763408 0.602185 0.447708
O O6 0.747727 0.534261 0.365518
O O7 0.751815 0.662084 0.353108
O O8 0.000000 0.601480 0.383024
O O9 0.500000 0.572585 0.490653
O O10 0.264339 0.532394 0.548195
O O11 0.250000 0.116861 0.750000
O O12 0.242869 0.091471 0.647035
O O13 0.237264 0.212698 0.686445
O O14 0.000000 0.137388 0.693108
O O15 0.500000 0.032874 0.889192
O O16 0.000000 0.275929 0.824158
#
# Coordination Sequence:
#
# PCOD9481246 Si02
#       6
#    16  16  16  16  16  16
#     4  11  21  32  54  86 123 165 207 252 300 358
#     4  12  25  38  59  92 131 169 209 255 307 372
#     4  11  21  36  58  86 125 171 213 253 300 364
#     4  11  24  45  71  97 122 155 203 259 316 373
#     4  10  23  42  63  88 125 169 210 254 307 371
#     4  11  23  40  63  90 124 163 206 257 309 365
#
# _framework density 21.028099000000001
#
# number of rings (size 3 to 8) (size 9 to 14) (size 15 to 20)
#    0.000    1.000    3.333    4.000    0.000    6.000 
#    0.000    0.833    0.000    2.000    0.000    0.000 
#    0.000    0.000    0.000    0.000    0.000    0.000 
#
# Total GULP energy -267853.696472 kJ/mol
# GULP energy per Si atom -5580.285343 kJ/mol
# Density = 2.098024 g / cm^3
# Si number density = 21.028099 Si / 1000 Ang^3
#
#
#
# Elastic Constant Matrix: (Units=GPa)
#
#
# Indices 1 2 3 4 5 6 
#
# 1 65.6043 21.0429 19.1550 0.0000 0.0000 0.0000
# 2 21.0429 124.6997 25.0742 0.0000 0.0000 0.0000
# 3 19.1550 25.0742 87.5542 0.0000 0.0000 0.0000
# 4 0.0000 0.0000 0.0000 21.1997 0.0000 0.0000
# 5 0.0000 0.0000 0.0000 0.0000 23.9928 0.0000
# 6 0.0000 0.0000 0.0000 0.0000 0.0000 33.6573
#
#
#
# Elastic Compliance Matrix: (Units=1/GPa)
#
#
# Indices 1 2 3 4 5 6 
#
# 1 0.016848 -0.002230 -0.003047 0.000000 0.000000 0.000000
# 2 -0.002230 0.008805 -0.002034 0.000000 0.000000 0.000000
# 3 -0.003047 -0.002034 0.012671 0.000000 0.000000 0.000000
# 4 0.000000 0.000000 0.000000 0.047170 0.000000 0.000000
# 5 0.000000 0.000000 0.000000 0.000000 0.041679 0.000000
# 6 0.000000 0.000000 0.000000 0.000000 0.000000 0.029711
#
#
# Mechanical properties :
#
#
# Convention : Reuss Voigt Hill
#
# Bulk Modulus (GPa) = 42.19261 45.37805 43.78533
# Shear Modulus (GPa) = 27.86967 29.94237 28.90602
#
# Velocity S-wave (km/s) = 3.64449 3.77758 3.71163
# Velocity P-wave (km/s) = 6.14965 6.37600 6.26385
#
# Compressibility (1/GPa) = 0.02370083
#
# Stress axis : x y z
#
# Youngs Moduli (GPa) = 59.35418 113.57790 78.92326
#
# Poissons Ratio (x) = 0.25332 0.24050
# Poissons Ratio (y) = 0.13238 0.16049
# Poissons Ratio (z) = 0.18087 0.23096
#
# Static dielectric constant tensor:
#      x y z
#    x 1.760710 0.000000 0.000000 
#    y 0.000000 1.852830 0.000000 
#    z 0.000000 0.000000 1.770230 
# 
# From -- ./inp_files/48148.got.cif
#   From: 2010.05.17/outbox.cif.g08.bks.cpg/sg64_25_cif.got.tgz:48148.got - 2010.06.03 16:29:19.
