data_PCOD9481041
_publ_section_title
;
Structure prediction by ZEFSAII (Michael W. Deem and Ramdas Pophale) SiO2 
 PCOD9481041
Probable space group: C M C A
;
_chemical_formula_sum "Si O2"
_cell_formula_units_Z 112
_cell_length_a 13.652558
_cell_length_b 23.760355
_cell_length_c 14.693984
_cell_angle_alpha 90.000000
_cell_angle_beta 90.000000
_cell_angle_gamma 90.000000
_cell_volume 4766.575956
_symmetry_space_group_name_H-M "C M C A"
_symmetry_group_IT_number 64
_symmetry_cell_setting 'orthorhombic'
loop_
_space_group_symop_operation_xyz
x,y,z
-x,1/2-y,1/2+z
x,-y,-z
-x,1/2+y,1/2-z
-x,-y,-z
x,1/2+y,1/2-z
-x,y,z
x,1/2-y,1/2+z
1/2+x,1/2+y,z
1/2-x,-y,1/2+z
1/2+x,1/2-y,-z
1/2-x,y,1/2-z
1/2-x,1/2-y,-z
1/2+x,y,1/2-z
1/2-x,1/2+y,z
1/2+x,-y,1/2+z
loop_
_atom_site_type_symbol
_atom_site_label
_atom_site_fract_x
_atom_site_fract_y
_atom_site_fract_z
Si Si1 0.383306 0.924177 0.185372
Si Si2 0.886249 0.367551 0.718641
Si Si3 0.885498 0.691562 0.928732
Si Si4 0.246252 0.631036 0.459029
Si Si5 0.884982 0.956386 0.622357
Si Si6 0.881591 0.137026 0.863894
Si Si7 0.883334 0.253072 0.256086
O O1 0.500000 0.934334 0.193204
O O2 0.374474 0.867826 0.125516
O O3 0.351692 0.908388 0.287452
O O4 0.345722 0.981298 0.141266
O O5 0.816579 0.368677 0.632528
O O6 0.878972 0.421442 0.783253
O O7 0.861645 0.311404 0.776445
O O8 0.000000 0.362071 0.689979
O O9 0.859884 0.736424 0.850608
O O10 0.000000 0.698663 0.955172
O O11 0.813704 0.684705 0.013538
O O12 0.320972 0.579018 0.447779
O O13 0.170271 0.625715 0.541708
O O14 0.000000 0.956837 0.594075
O O15 0.847934 0.197228 0.821489
O O16 0.000000 0.137052 0.872756
O O17 0.000000 0.260134 0.259863
#
# Coordination Sequence:
#
# PCOD9481041 Si02
#       7
#    16  16  16  16  16  16  16
#     4   8  17  39  67  86 115 165 209 249 301 366
#     4  10  22  43  62  82 124 170 204 243 306 378
#     4   9  19  38  62  91 122 155 204 257 306 356
#     4  12  23  37  57 101 123 154 197 261 313 353
#     4  10  22  43  63  83 122 173 210 241 301 376
#     4   9  19  40  67  95 121 155 208 258 308 360
#     4   8  17  39  66  86 117 167 206 244 302 372
#
# _framework density 23.496949999999998
#
# number of rings (size 3 to 8) (size 9 to 14) (size 15 to 20)
#    0.000    2.571    0.000    3.000    0.000    3.429 
#   15.429    2.143    0.000    3.429    0.000    0.000 
#    0.000    0.000    0.000    0.000    0.000    0.000 
#
# Total GULP energy -313264.884117 kJ/mol
# GULP energy per Si atom -5594.015788 kJ/mol
# Density = 2.344347 g / cm^3
# Si number density = 23.496950 Si / 1000 Ang^3
#
#
#
# Elastic Constant Matrix: (Units=GPa)
#
#
# Indices 1 2 3 4 5 6 
#
# 1 131.3070 7.2911 43.2303 0.0000 0.0000 0.0000
# 2 7.2911 83.7964 7.2850 0.0000 0.0000 0.0000
# 3 43.2303 7.2850 104.3108 0.0000 0.0000 0.0000
# 4 0.0000 0.0000 0.0000 25.8986 0.0000 0.0000
# 5 0.0000 0.0000 0.0000 0.0000 48.6630 0.0000
# 6 0.0000 0.0000 0.0000 0.0000 0.0000 6.0848
#
#
#
# Elastic Compliance Matrix: (Units=1/GPa)
#
#
# Indices 1 2 3 4 5 6 
#
# 1 0.008836 -0.000453 -0.003630 0.000000 0.000000 0.000000
# 2 -0.000453 0.012030 -0.000652 0.000000 0.000000 0.000000
# 3 -0.003630 -0.000652 0.011137 0.000000 0.000000 0.000000
# 4 0.000000 0.000000 0.000000 0.038612 0.000000 0.000000
# 5 0.000000 0.000000 0.000000 0.000000 0.020549 0.000000
# 6 0.000000 0.000000 0.000000 0.000000 0.000000 0.164343
#
#
# Mechanical properties :
#
#
# Convention : Reuss Voigt Hill
#
# Bulk Modulus (GPa) = 44.38332 48.33635 46.35984
# Shear Modulus (GPa) = 18.34932 33.56981 25.95956
#
# Velocity S-wave (km/s) = 2.79753 3.78390 3.32747
# Velocity P-wave (km/s) = 5.41894 6.30131 5.87671
#
# Compressibility (1/GPa) = 0.02253098
#
# Stress axis : x y z
#
# Youngs Moduli (GPa) = 113.17163 83.12664 89.79199
#
# Poissons Ratio (x) = 0.03767 0.32598
# Poissons Ratio (y) = 0.05129 0.05857
# Poissons Ratio (z) = 0.41086 0.05423
#
# Static dielectric constant tensor:
#      x y z
#    x 1.929580 0.000000 0.000000 
#    y 0.000000 1.872900 0.000000 
#    z 0.000000 0.000000 1.883040 
# 
# From -- ./inp_files/24197.got.cif
#   From: 2010.05.17/outbox.cif.g08.bks.cpg/sg64_13_cif.got.tgz:24197.got - 2010.06.03 16:29:19.
