data_PCOD9481090
_publ_section_title
;
Structure prediction by ZEFSAII (Michael W. Deem and Ramdas Pophale) SiO2 
 PCOD9481090
Probable space group: C M C A
;
_chemical_formula_sum "Si O2"
_cell_formula_units_Z 64
_cell_length_a 18.077277
_cell_length_b 7.855596
_cell_length_c 19.371805
_cell_angle_alpha 90.000000
_cell_angle_beta 90.000000
_cell_angle_gamma 90.000000
_cell_volume 2750.947117
_symmetry_space_group_name_H-M "C M C A"
_symmetry_group_IT_number 64
_symmetry_cell_setting 'orthorhombic'
loop_
_space_group_symop_operation_xyz
x,y,z
-x,1/2-y,1/2+z
x,-y,-z
-x,1/2+y,1/2-z
-x,-y,-z
x,1/2+y,1/2-z
-x,y,z
x,1/2-y,1/2+z
1/2+x,1/2+y,z
1/2-x,-y,1/2+z
1/2+x,1/2-y,-z
1/2-x,y,1/2-z
1/2-x,1/2-y,-z
1/2+x,y,1/2-z
1/2-x,1/2+y,z
1/2+x,-y,1/2+z
loop_
_atom_site_type_symbol
_atom_site_label
_atom_site_fract_x
_atom_site_fract_y
_atom_site_fract_z
Si Si1 0.081399 0.768367 0.796073
Si Si2 0.382625 0.852801 0.346660
Si Si3 0.223402 0.967660 0.320719
Si Si4 0.183028 0.340323 0.957592
O O1 0.083972 0.771334 0.711837
O O2 0.148476 0.642478 0.815241
O O3 0.000000 0.702464 0.815274
O O4 0.090197 0.955616 0.830004
O O5 0.281121 0.568129 0.391537
O O6 0.379783 0.784170 0.425039
O O7 0.250000 0.060571 0.250000
O O8 0.296158 0.856611 0.329615
O O9 0.151270 0.500000 0.000000
O O10 0.250000 0.250000 0.000000
#
# Coordination Sequence:
#
# PCOD9481090 Si02
#       4
#    16  16  16  16
#     4  11  24  44  75 110 150 187 236 304 372 428
#     4  11  22  41  68 108 145 181 242 295 356 421
#     4  10  22  43  71 112 140 181 245 311 350 424
#     4  12  25  42  67 107 149 185 234 305 370 415
#
# _framework density 23.264716
#
# number of rings (size 3 to 8) (size 9 to 14) (size 15 to 20)
#    0.000    1.000    2.500    5.250    0.000    6.000 
#    4.500    1.250    0.000    8.250    0.000    0.000 
#    0.000    0.000    0.000    0.000    0.000    0.000 
#
# Total GULP energy -178357.700095 kJ/mol
# GULP energy per Si atom -5573.678128 kJ/mol
# Density = 2.321176 g / cm^3
# Si number density = 23.264716 Si / 1000 Ang^3
#
#
#
# Elastic Constant Matrix: (Units=GPa)
#
#
# Indices 1 2 3 4 5 6 
#
# 1 146.9022 44.6760 25.4296 0.0000 0.0000 0.0000
# 2 44.6760 112.5467 67.6027 0.0000 0.0000 0.0000
# 3 25.4296 67.6027 140.1453 0.0000 0.0000 0.0000
# 4 0.0000 0.0000 0.0000 68.7789 0.0000 0.0000
# 5 0.0000 0.0000 0.0000 0.0000 -1.6535 0.0000
# 6 0.0000 0.0000 0.0000 0.0000 0.0000 14.6341
#
#
#
# Elastic Compliance Matrix: (Units=1/GPa)
#
#
# Indices 1 2 3 4 5 6 
#
# 1 0.007743 -0.003139 0.000109 0.000000 0.000000 0.000000
# 2 -0.003139 0.013783 -0.006079 0.000000 0.000000 0.000000
# 3 0.000109 -0.006079 0.010048 0.000000 0.000000 0.000000
# 4 0.000000 0.000000 0.000000 0.014539 0.000000 0.000000
# 5 0.000000 0.000000 0.000000 0.000000 -0.604795 0.000000
# 6 0.000000 0.000000 0.000000 0.000000 0.000000 0.068334
#
#
# Mechanical properties :
#
#
# Convention : Reuss Voigt Hill
#
# Bulk Modulus (GPa) = 74.87239 75.00120 74.93679
# Shear Modulus (GPa) = -10.69109 33.81098 11.55994
#
# Velocity S-wave (km/s) = -2.14602 3.81637 2.23152
# Velocity P-wave (km/s) = 5.11001 7.19220 6.23859
#
# Compressibility (1/GPa) = 0.01335606
#
# Stress axis : x y z
#
# Youngs Moduli (GPa) = 129.14800 72.55484 99.52353
#
# Poissons Ratio (x) = 0.22777 -0.01088
# Poissons Ratio (y) = 0.40544 0.60498
# Poissons Ratio (z) = -0.01412 0.44105
#
# Static dielectric constant tensor:
#      x y z
#    x 1.875010 0.000000 0.000000 
#    y 0.000000 2.091640 0.000000 
#    z 0.000000 0.000000 2.106670 
# 
# From -- ./inp_files/34777.got.cif
#   From: 2010.05.17/outbox.cif.g08.bks.cpg/sg64_18_cif.got.tgz:34777.got - 2010.06.03 16:29:19.
