data_PCOD9481354
_publ_section_title
;
Structure prediction by ZEFSAII (Michael W. Deem and Ramdas Pophale) SiO2 
 PCOD9481354
Probable space group: C M C A
;
_chemical_formula_sum "Si O2"
_cell_formula_units_Z 40
_cell_length_a 9.429817
_cell_length_b 15.768206
_cell_length_c 12.199572
_cell_angle_alpha 90.000000
_cell_angle_beta 90.000000
_cell_angle_gamma 90.000000
_cell_volume 1813.970184
_symmetry_space_group_name_H-M "C M C A"
_symmetry_group_IT_number 64
_symmetry_cell_setting 'orthorhombic'
loop_
_space_group_symop_operation_xyz
x,y,z
-x,1/2-y,1/2+z
x,-y,-z
-x,1/2+y,1/2-z
-x,-y,-z
x,1/2+y,1/2-z
-x,y,z
x,1/2-y,1/2+z
1/2+x,1/2+y,z
1/2-x,-y,1/2+z
1/2+x,1/2-y,-z
1/2-x,y,1/2-z
1/2-x,1/2-y,-z
1/2+x,y,1/2-z
1/2-x,1/2+y,z
1/2+x,-y,1/2+z
loop_
_atom_site_type_symbol
_atom_site_label
_atom_site_fract_x
_atom_site_fract_y
_atom_site_fract_z
Si Si1 0.340102 0.919748 0.349922
Si Si2 0.664787 0.665074 0.471255
Si Si3 0.750000 0.086697 0.250000
O O1 0.500000 0.886605 0.361767
O O2 0.250000 0.878441 0.250000
O O3 0.245180 0.905264 0.456204
O O4 0.346802 0.018404 0.314720
O O5 0.500000 0.670666 0.502189
O O6 0.750000 0.750000 0.500000
O O7 0.676995 0.642044 0.343324
#
# Coordination Sequence:
#
# PCOD9481354 Si02
#       3
#    16  16   8
#     4  10  23  44  71 101 136 177 228 282 340 409
#     4  12  27  46  70 103 142 183 231 285 346 409
#     4  10  26  44  74  96 138 182 236 278 346 408
#
# _framework density 22.051078
#
# number of rings (size 3 to 8) (size 9 to 14) (size 15 to 20)
#    1.200    0.000    0.000    4.800    2.800    9.600 
#    0.000    0.000    0.000    0.000    0.000    0.000 
#    0.000    0.000    0.000    0.000    0.000    0.000 
#
# Total GULP energy -111585.416387 kJ/mol
# GULP energy per Si atom -5579.270819 kJ/mol
# Density = 2.200089 g / cm^3
# Si number density = 22.051078 Si / 1000 Ang^3
#
#
#
# Elastic Constant Matrix: (Units=GPa)
#
#
# Indices 1 2 3 4 5 6 
#
# 1 237.5059 48.7673 69.6559 0.0000 0.0000 0.0000
# 2 48.7673 93.9550 47.6799 0.0000 0.0000 0.0000
# 3 69.6559 47.6799 144.5095 0.0000 0.0000 0.0000
# 4 0.0000 0.0000 0.0000 29.3687 0.0000 0.0000
# 5 0.0000 0.0000 0.0000 0.0000 26.4818 0.0000
# 6 0.0000 0.0000 0.0000 0.0000 0.0000 10.5489
#
#
#
# Elastic Compliance Matrix: (Units=1/GPa)
#
#
# Indices 1 2 3 4 5 6 
#
# 1 0.005117 -0.001687 -0.001910 0.000000 0.000000 0.000000
# 2 -0.001687 0.013340 -0.003588 0.000000 0.000000 0.000000
# 3 -0.001910 -0.003588 0.009025 0.000000 0.000000 0.000000
# 4 0.000000 0.000000 0.000000 0.034050 0.000000 0.000000
# 5 0.000000 0.000000 0.000000 0.000000 0.037762 0.000000
# 6 0.000000 0.000000 0.000000 0.000000 0.000000 0.094796
#
#
# Mechanical properties :
#
#
# Convention : Reuss Voigt Hill
#
# Bulk Modulus (GPa) = 76.26992 89.79741 83.03366
# Shear Modulus (GPa) = 23.49298 33.93772 28.71535
#
# Velocity S-wave (km/s) = 3.26757 3.92733 3.61254
# Velocity P-wave (km/s) = 6.99278 7.83429 7.42546
#
# Compressibility (1/GPa) = 0.01311133
#
# Stress axis : x y z
#
# Youngs Moduli (GPa) = 195.43116 74.96315 110.80904
#
# Poissons Ratio (x) = 0.12644 0.21164
# Poissons Ratio (y) = 0.32963 0.39763
# Poissons Ratio (z) = 0.37326 0.26900
#
# Static dielectric constant tensor:
#      x y z
#    x 1.779820 0.000000 0.000000 
#    y 0.000000 1.888640 0.000000 
#    z 0.000000 0.000000 1.853240 
# 
# From -- ./inp_files/11663.got.cif
#   From: 2010.05.17/outbox.cif.g08.bks.cpg/sg64_6_cif.got.tgz:11663.got - 2010.06.03 16:29:19.
