data_PCOD9481403
_publ_section_title
;
Structure prediction by ZEFSAII (Michael W. Deem and Ramdas Pophale) SiO2 
 PCOD9481403
Probable space group: C M C A
;
_chemical_formula_sum "Si O2"
_cell_formula_units_Z 72
_cell_length_a 14.396676
_cell_length_b 27.407172
_cell_length_c 9.171750
_cell_angle_alpha 90.000000
_cell_angle_beta 90.000000
_cell_angle_gamma 90.000000
_cell_volume 3618.917349
_symmetry_space_group_name_H-M "C M C A"
_symmetry_group_IT_number 64
_symmetry_cell_setting 'orthorhombic'
loop_
_space_group_symop_operation_xyz
x,y,z
-x,1/2-y,1/2+z
x,-y,-z
-x,1/2+y,1/2-z
-x,-y,-z
x,1/2+y,1/2-z
-x,y,z
x,1/2-y,1/2+z
1/2+x,1/2+y,z
1/2-x,-y,1/2+z
1/2+x,1/2-y,-z
1/2-x,y,1/2-z
1/2-x,1/2-y,-z
1/2+x,y,1/2-z
1/2-x,1/2+y,z
1/2+x,-y,1/2+z
loop_
_atom_site_type_symbol
_atom_site_label
_atom_site_fract_x
_atom_site_fract_y
_atom_site_fract_z
Si Si1 0.814539 0.885445 0.985716
Si Si2 0.250000 0.547352 0.750000
Si Si3 0.000000 0.821649 0.019306
Si Si4 0.893058 0.025190 0.162458
Si Si5 0.703722 0.707525 0.404491
Si Si6 0.000000 0.227649 0.303944
O O1 0.843251 0.922860 0.857958
O O2 0.737619 0.845286 0.953393
O O3 0.776602 0.918430 0.116304
O O4 0.908676 0.855431 0.021803
O O5 0.163102 0.510647 0.768182
O O6 0.000000 0.785444 0.158268
O O7 0.000000 0.790426 0.865598
O O8 0.000000 0.031413 0.203826
O O9 0.891869 0.000000 0.000000
O O10 0.750000 0.716215 0.250000
O O11 0.750000 0.750000 0.500000
O O12 0.593670 0.709629 0.382511
#
# Coordination Sequence:
#
# PCOD9481403 Si02
#       6
#    16   8   8  16  16   8
#     4  11  23  42  68 101 133 184 230 290 359 426
#     4  10  24  38  66 100 130 168 228 298 348 416
#     4  12  24  42  73  97 138 192 245 285 354 429
#     4   9  19  39  65  90 123 168 222 276 341 415
#     4  12  25  42  67  97 141 184 235 295 349 423
#     4  12  24  44  64 101 135 192 238 291 353 421
#
# _framework density 19.895451000000001
#
# number of rings (size 3 to 8) (size 9 to 14) (size 15 to 20)
#    0.000    1.111    5.556    0.000    4.667    1.778 
#    2.000    0.000    0.000    2.000    0.000    0.000 
#    0.000    0.000    0.000    0.000    0.000    0.000 
#
# Total GULP energy -201004.616496 kJ/mol
# GULP energy per Si atom -5583.461569 kJ/mol
# Density = 1.985017 g / cm^3
# Si number density = 19.895451 Si / 1000 Ang^3
#
#
#
# Elastic Constant Matrix: (Units=GPa)
#
#
# Indices 1 2 3 4 5 6 
#
# 1 181.5474 76.1962 46.2379 0.0000 0.0000 0.0000
# 2 76.1962 160.0874 59.4580 0.0000 0.0000 0.0000
# 3 46.2379 59.4580 56.1423 0.0000 0.0000 0.0000
# 4 0.0000 0.0000 0.0000 33.0046 0.0000 0.0000
# 5 0.0000 0.0000 0.0000 0.0000 29.7175 0.0000
# 6 0.0000 0.0000 0.0000 0.0000 0.0000 42.8958
#
#
#
# Elastic Compliance Matrix: (Units=1/GPa)
#
#
# Indices 1 2 3 4 5 6 
#
# 1 0.007362 -0.002064 -0.003877 0.000000 0.000000 0.000000
# 2 -0.002064 0.010875 -0.009818 0.000000 0.000000 0.000000
# 3 -0.003877 -0.009818 0.031403 0.000000 0.000000 0.000000
# 4 0.000000 0.000000 0.000000 0.030299 0.000000 0.000000
# 5 0.000000 0.000000 0.000000 0.000000 0.033650 0.000000
# 6 0.000000 0.000000 0.000000 0.000000 0.000000 0.023312
#
#
# Mechanical properties :
#
#
# Convention : Reuss Voigt Hill
#
# Bulk Modulus (GPa) = 55.18172 84.61791 69.89982
# Shear Modulus (GPa) = 28.65981 35.51593 32.08787
#
# Velocity S-wave (km/s) = 3.79954 4.22966 4.02036
# Velocity P-wave (km/s) = 6.85891 8.15334 7.53398
#
# Compressibility (1/GPa) = 0.01812194
#
# Stress axis : x y z
#
# Youngs Moduli (GPa) = 135.83324 91.95064 31.84426
#
# Poissons Ratio (x) = 0.18978 0.12347
# Poissons Ratio (y) = 0.28036 0.31264
# Poissons Ratio (z) = 0.52667 0.90276
#
# Static dielectric constant tensor:
#      x y z
#    x 1.688930 0.000000 0.000000 
#    y 0.000000 1.503380 0.000000 
#    z 0.000000 0.000000 1.732030 
# 
# From -- ./inp_files/5992.got.cif
#   From: 2010.05.17/outbox.cif.g08.bks.cpg/sg64_3_cif.got.tgz:5992.got - 2010.06.03 16:29:19.
