data_PCOD9481067
_publ_section_title
;
Structure prediction by ZEFSAII (Michael W. Deem and Ramdas Pophale) SiO2 
 PCOD9481067
Probable space group: C M C A
;
_chemical_formula_sum "Si O2"
_cell_formula_units_Z 104
_cell_length_a 16.029632
_cell_length_b 10.236352
_cell_length_c 28.695944
_cell_angle_alpha 90.000000
_cell_angle_beta 90.000000
_cell_angle_gamma 90.000000
_cell_volume 4708.572697
_symmetry_space_group_name_H-M "C M C A"
_symmetry_group_IT_number 64
_symmetry_cell_setting 'orthorhombic'
loop_
_space_group_symop_operation_xyz
x,y,z
-x,1/2-y,1/2+z
x,-y,-z
-x,1/2+y,1/2-z
-x,-y,-z
x,1/2+y,1/2-z
-x,y,z
x,1/2-y,1/2+z
1/2+x,1/2+y,z
1/2-x,-y,1/2+z
1/2+x,1/2-y,-z
1/2-x,y,1/2-z
1/2-x,1/2-y,-z
1/2+x,y,1/2-z
1/2-x,1/2+y,z
1/2+x,-y,1/2+z
loop_
_atom_site_type_symbol
_atom_site_label
_atom_site_fract_x
_atom_site_fract_y
_atom_site_fract_z
Si Si1 0.830237 0.803741 0.717576
Si Si2 0.597058 0.415709 0.280544
Si Si3 0.407990 0.709380 0.069341
Si Si4 0.773885 0.817905 0.358827
Si Si5 0.153610 0.579017 0.573005
Si Si6 0.910283 0.328405 0.965018
Si Si7 0.724666 0.500000 0.500000
O O1 0.750000 0.828407 0.750000
O O2 0.874430 0.671035 0.735945
O O3 0.789403 0.781268 0.666988
O O4 0.888872 0.928979 0.723815
O O5 0.500000 0.388749 0.290639
O O6 0.661627 0.372086 0.320773
O O7 0.500000 0.738466 0.089553
O O8 0.331793 0.758772 0.100653
O O9 0.396738 0.553283 0.066026
O O10 0.407073 0.771835 0.017823
O O11 0.712008 0.923114 0.381917
O O12 0.099302 0.709069 0.570329
O O13 0.215716 0.593529 0.528923
O O14 0.000000 0.393707 0.958004
O O15 0.834056 0.427267 0.963298
#
# Coordination Sequence:
#
# PCOD9481067 Si02
#       7
#    16  16  16  16  16  16   8
#     4  10  22  43  68  95 128 163 206 249 311 385
#     4  11  23  43  69  99 128 164 202 256 317 380
#     4  11  22  38  59  87 121 161 210 263 312 364
#     4  11  23  40  62  94 129 164 208 254 311 380
#     4  12  22  39  62  88 121 167 216 264 311 365
#     4  11  23  39  57  84 118 162 213 268 316 362
#     4  12  21  38  59  84 116 164 216 260 317 374
#
# _framework density 22.087371999999998
#
# number of rings (size 3 to 8) (size 9 to 14) (size 15 to 20)
#    0.000    0.923    3.077    5.308    0.000    2.462 
#    0.000    7.692    0.000    0.000    0.000    0.000 
#    0.000    0.000    0.000    0.000    0.000    0.000 
#
# Total GULP energy -290593.809443 kJ/mol
# GULP energy per Si atom -5588.342489 kJ/mol
# Density = 2.203710 g / cm^3
# Si number density = 22.087372 Si / 1000 Ang^3
#
#
#
# Elastic Constant Matrix: (Units=GPa)
#
#
# Indices 1 2 3 4 5 6 
#
# 1 113.3230 25.0540 22.8790 0.0000 0.0000 0.0000
# 2 25.0540 66.5063 2.6385 0.0000 0.0000 0.0000
# 3 22.8790 2.6385 55.8796 0.0000 0.0000 0.0000
# 4 0.0000 0.0000 0.0000 19.2058 0.0000 0.0000
# 5 0.0000 0.0000 0.0000 0.0000 8.6688 0.0000
# 6 0.0000 0.0000 0.0000 0.0000 0.0000 21.1502
#
#
#
# Elastic Compliance Matrix: (Units=1/GPa)
#
#
# Indices 1 2 3 4 5 6 
#
# 1 0.010493 -0.003790 -0.004117 0.000000 0.000000 0.000000
# 2 -0.003790 0.016433 0.000776 0.000000 0.000000 0.000000
# 3 -0.004117 0.000776 0.019545 0.000000 0.000000 0.000000
# 4 0.000000 0.000000 0.000000 0.052068 0.000000 0.000000
# 5 0.000000 0.000000 0.000000 0.000000 0.115357 0.000000
# 6 0.000000 0.000000 0.000000 0.000000 0.000000 0.047281
#
#
# Mechanical properties :
#
#
# Convention : Reuss Voigt Hill
#
# Bulk Modulus (GPa) = 31.04777 37.42798 34.23788
# Shear Modulus (GPa) = 17.47179 22.14745 19.80962
#
# Velocity S-wave (km/s) = 2.81558 3.17001 2.99804
# Velocity P-wave (km/s) = 4.96561 5.51188 5.24586
#
# Compressibility (1/GPa) = 0.03220843
#
# Stress axis : x y z
#
# Youngs Moduli (GPa) = 95.29747 60.85304 51.16451
#
# Poissons Ratio (x) = 0.23061 0.21067
# Poissons Ratio (y) = 0.36115 -0.03969
# Poissons Ratio (z) = 0.39238 -0.04720
#
# Static dielectric constant tensor:
#      x y z
#    x 1.795590 0.000000 0.000000 
#    y 0.000000 1.812040 0.000000 
#    z 0.000000 0.000000 1.809020 
# 
# From -- ./inp_files/53235.got.cif
#   From: 2010.05.17/outbox.cif.g08.bks.cpg/sg64_27_cif.got.tgz:53235.got - 2010.06.03 16:29:19.
