data_PCOD9481480
_publ_section_title
;
Structure prediction by ZEFSAII (Michael W. Deem and Ramdas Pophale) SiO2 
 PCOD9481480
Probable space group: C M C A
;
_chemical_formula_sum "Si O2"
_cell_formula_units_Z 56
_cell_length_a 23.991899
_cell_length_b 9.399149
_cell_length_c 10.950022
_cell_angle_alpha 90.000000
_cell_angle_beta 90.000000
_cell_angle_gamma 90.000000
_cell_volume 2469.267558
_symmetry_space_group_name_H-M "C M C A"
_symmetry_group_IT_number 64
_symmetry_cell_setting 'orthorhombic'
loop_
_space_group_symop_operation_xyz
x,y,z
-x,1/2-y,1/2+z
x,-y,-z
-x,1/2+y,1/2-z
-x,-y,-z
x,1/2+y,1/2-z
-x,y,z
x,1/2-y,1/2+z
1/2+x,1/2+y,z
1/2-x,-y,1/2+z
1/2+x,1/2-y,-z
1/2-x,y,1/2-z
1/2-x,1/2-y,-z
1/2+x,y,1/2-z
1/2-x,1/2+y,z
1/2+x,-y,1/2+z
loop_
_atom_site_type_symbol
_atom_site_label
_atom_site_fract_x
_atom_site_fract_y
_atom_site_fract_z
Si Si1 0.728639 0.000000 0.000000
Si Si2 0.000000 0.282596 0.003400
Si Si3 0.500000 0.018259 0.211944
Si Si4 0.095919 0.908765 0.888690
Si Si5 0.296340 0.239827 0.350195
O O1 0.766246 0.112659 0.074541
O O2 0.693477 0.889214 0.080861
O O3 0.000000 0.406161 0.104067
O O4 0.945451 0.193984 0.037065
O O5 0.000000 0.333560 0.863766
O O6 0.445228 0.010472 0.296082
O O7 0.144190 0.826278 0.816249
O O8 0.121306 0.000000 0.000000
O O9 0.250000 0.275729 0.250000
#
# Coordination Sequence:
#
# PCOD9481480 Si02
#       5
#     8   8   8  16  16
#     4  10  24  44  66  98 140 182 242 292 356 438
#     4  10  24  43  67 103 140 176 241 288 350 431
#     4  10  24  43  71 105 134 186 235 291 355 426
#     4  11  25  43  72  99 143 185 234 298 361 423
#     4  11  24  45  71 102 140 188 239 299 362 430
#
# _framework density 22.678789999999999
#
# number of rings (size 3 to 8) (size 9 to 14) (size 15 to 20)
#    0.000    1.429    1.429    2.571    8.000   11.429 
#    0.000    0.000    0.000    0.000    0.000    0.000 
#    0.000    0.000    0.000    0.000    0.000    0.000 
#
# Total GULP energy -156313.801991 kJ/mol
# GULP energy per Si atom -5582.635785 kJ/mol
# Density = 2.262717 g / cm^3
# Si number density = 22.678790 Si / 1000 Ang^3
#
#
#
# Elastic Constant Matrix: (Units=GPa)
#
#
# Indices 1 2 3 4 5 6 
#
# 1 108.7701 8.9749 14.0429 0.0000 0.0000 0.0000
# 2 8.9749 90.6693 17.6799 0.0000 0.0000 0.0000
# 3 14.0429 17.6799 80.2574 0.0000 0.0000 0.0000
# 4 0.0000 0.0000 0.0000 31.6141 0.0000 0.0000
# 5 0.0000 0.0000 0.0000 0.0000 -22.7717 0.0000
# 6 0.0000 0.0000 0.0000 0.0000 0.0000 53.9427
#
#
#
# Elastic Compliance Matrix: (Units=1/GPa)
#
#
# Indices 1 2 3 4 5 6 
#
# 1 0.009442 -0.000640 -0.001511 0.000000 0.000000 0.000000
# 2 -0.000640 0.011567 -0.002436 0.000000 0.000000 0.000000
# 3 -0.001511 -0.002436 0.013261 0.000000 0.000000 0.000000
# 4 0.000000 0.000000 0.000000 0.031631 0.000000 0.000000
# 5 0.000000 0.000000 0.000000 0.000000 -0.043914 0.000000
# 6 0.000000 0.000000 0.000000 0.000000 0.000000 0.018538
#
#
# Mechanical properties :
#
#
# Convention : Reuss Voigt Hill
#
# Bulk Modulus (GPa) = 39.84760 40.12137 39.98449
# Shear Modulus (GPa) = 86.11026 28.49030 57.30028
#
# Velocity S-wave (km/s) = 6.16863 3.54821 5.03198
# Velocity P-wave (km/s) = 8.26707 5.87503 7.17149
#
# Compressibility (1/GPa) = 0.02509561
#
# Stress axis : x y z
#
# Youngs Moduli (GPa) = 105.91436 86.44928 75.40923
#
# Poissons Ratio (x) = 0.05532 0.11395
# Poissons Ratio (y) = 0.06778 0.18371
# Poissons Ratio (z) = 0.16004 0.21061
#
# Static dielectric constant tensor:
#      x y z
#    x 1.795270 0.000000 0.000000 
#    y 0.000000 1.906550 0.000000 
#    z 0.000000 0.000000 1.881330 
# 
# From -- ./inp_files/18859.got.cif
#   From: 2010.05.17/outbox.cif.g08.bks.cpg/sg64_10_cif.got.tgz:18859.got - 2010.06.03 16:29:19.
