data_PCOD9481515
_publ_section_title
;
Structure prediction by ZEFSAII (Michael W. Deem and Ramdas Pophale) SiO2 
 PCOD9481515
Probable space group: C M C A
;
_chemical_formula_sum "Si O2"
_cell_formula_units_Z 104
_cell_length_a 26.239600
_cell_length_b 19.290789
_cell_length_c 8.641439
_cell_angle_alpha 90.000000
_cell_angle_beta 90.000000
_cell_angle_gamma 90.000000
_cell_volume 4374.145949
_symmetry_space_group_name_H-M "C M C A"
_symmetry_group_IT_number 64
_symmetry_cell_setting 'orthorhombic'
loop_
_space_group_symop_operation_xyz
x,y,z
-x,1/2-y,1/2+z
x,-y,-z
-x,1/2+y,1/2-z
-x,-y,-z
x,1/2+y,1/2-z
-x,y,z
x,1/2-y,1/2+z
1/2+x,1/2+y,z
1/2-x,-y,1/2+z
1/2+x,1/2-y,-z
1/2-x,y,1/2-z
1/2-x,1/2-y,-z
1/2+x,y,1/2-z
1/2-x,1/2+y,z
1/2+x,-y,1/2+z
loop_
_atom_site_type_symbol
_atom_site_label
_atom_site_fract_x
_atom_site_fract_y
_atom_site_fract_z
Si Si1 0.675480 0.861136 0.003646
Si Si2 0.882882 0.895634 0.796177
Si Si3 0.000000 0.241894 0.493192
Si Si4 0.156279 0.203309 0.932113
Si Si5 0.943497 0.511641 0.811061
Si Si6 0.500000 0.845959 0.713927
Si Si7 0.080364 0.339475 0.191769
Si Si8 0.250000 0.362690 0.250000
O O1 0.674457 0.776576 0.001200
O O2 0.626066 0.877886 0.102288
O O3 0.722754 0.893723 0.096450
O O4 0.660791 0.883557 0.832053
O O5 0.861684 0.854085 0.943567
O O6 0.897927 0.976623 0.786212
O O7 0.940845 0.869283 0.756093
O O8 0.000000 0.321992 0.535640
O O9 0.951602 0.204293 0.570344
O O10 0.000000 0.225172 0.314739
O O11 0.107380 0.208189 0.819077
O O12 0.203490 0.178630 0.827979
O O13 0.947830 0.591201 0.758858
O O14 0.000000 0.479882 0.775925
O O15 0.937970 0.500000 0.000000
#
# Coordination Sequence:
#
# PCOD9481515 Si02
#       8
#    16  16   8  16  16   8  16   8
#     4  11  21  42  67 101 129 170 216 272 341 393
#     4  12  24  39  66  99 135 177 221 273 317 397
#     4  12  22  37  59  90 136 185 211 266 335 387
#     4  11  25  42  65  98 135 165 218 277 340 403
#     4  11  21  42  65  90 132 183 234 256 308 392
#     4  12  24  37  59  98 140 177 217 262 331 403
#     4  11  23  39  63  92 133 180 218 267 319 387
#     4  10  24  44  70  96 134 168 216 278 344 408
#
# _framework density 23.776071000000002
#
# number of rings (size 3 to 8) (size 9 to 14) (size 15 to 20)
#    0.000    0.769    4.615    4.154    2.154    1.231 
#    0.000    0.769    0.000   14.769    0.000    1.077 
#    0.000    0.000    0.000    0.000    0.000    0.000 
#
# Total GULP energy -289660.161983 kJ/mol
# GULP energy per Si atom -5570.387730 kJ/mol
# Density = 2.372196 g / cm^3
# Si number density = 23.776071 Si / 1000 Ang^3
#
#
#
# Elastic Constant Matrix: (Units=GPa)
#
#
# Indices 1 2 3 4 5 6 
#
# 1 112.6709 5.7153 35.1989 0.0000 0.0000 0.0000
# 2 5.7153 19.7132 12.6523 0.0000 0.0000 0.0000
# 3 35.1989 12.6523 77.5582 0.0000 0.0000 0.0000
# 4 0.0000 0.0000 0.0000 17.6510 0.0000 0.0000
# 5 0.0000 0.0000 0.0000 0.0000 26.7859 0.0000
# 6 0.0000 0.0000 0.0000 0.0000 0.0000 2.4533
#
#
#
# Elastic Compliance Matrix: (Units=1/GPa)
#
#
# Indices 1 2 3 4 5 6 
#
# 1 0.010342 0.000016 -0.004696 0.000000 0.000000 0.000000
# 2 0.000016 0.056660 -0.009250 0.000000 0.000000 0.000000
# 3 -0.004696 -0.009250 0.016534 0.000000 0.000000 0.000000
# 4 0.000000 0.000000 0.000000 0.056654 0.000000 0.000000
# 5 0.000000 0.000000 0.000000 0.000000 0.037333 0.000000
# 6 0.000000 0.000000 0.000000 0.000000 0.000000 0.407622
#
#
# Mechanical properties :
#
#
# Convention : Reuss Voigt Hill
#
# Bulk Modulus (GPa) = 17.96161 35.23061 26.59611
# Shear Modulus (GPa) = 7.91686 19.80310 13.85998
#
# Velocity S-wave (km/s) = 1.82674 2.88913 2.41703
# Velocity P-wave (km/s) = 3.46702 5.09699 4.35887
#
# Compressibility (1/GPa) = 0.05567429
#
# Stress axis : x y z
#
# Youngs Moduli (GPa) = 96.69625 17.64917 60.48223
#
# Poissons Ratio (x) = -0.00028 0.28403
# Poissons Ratio (y) = -0.00152 0.55947
# Poissons Ratio (z) = 0.45409 0.16326
#
# Static dielectric constant tensor:
#      x y z
#    x 1.922960 0.000000 0.000000 
#    y 0.000000 2.017600 0.000000 
#    z 0.000000 0.000000 1.982190 
# 
# From -- ./inp_files/10479.got.cif
#   From: 2010.05.17/outbox.cif.g08.bks.cpg/sg64_6_cif.got.tgz:10479.got - 2010.06.03 16:29:19.
