data_PCOD9481731
_publ_section_title
;
Structure prediction by ZEFSAII (Michael W. Deem and Ramdas Pophale) SiO2 
 PCOD9481731
Probable space group: C M C A
;
_chemical_formula_sum "Si O2"
_cell_formula_units_Z 88
_cell_length_a 30.268081
_cell_length_b 12.705157
_cell_length_c 10.007062
_cell_angle_alpha 90.000000
_cell_angle_beta 90.000000
_cell_angle_gamma 90.000000
_cell_volume 3848.322980
_symmetry_space_group_name_H-M "C M C A"
_symmetry_group_IT_number 64
_symmetry_cell_setting 'orthorhombic'
loop_
_space_group_symop_operation_xyz
x,y,z
-x,1/2-y,1/2+z
x,-y,-z
-x,1/2+y,1/2-z
-x,-y,-z
x,1/2+y,1/2-z
-x,y,z
x,1/2-y,1/2+z
1/2+x,1/2+y,z
1/2-x,-y,1/2+z
1/2+x,1/2-y,-z
1/2-x,y,1/2-z
1/2-x,1/2-y,-z
1/2+x,y,1/2-z
1/2-x,1/2+y,z
1/2+x,-y,1/2+z
loop_
_atom_site_type_symbol
_atom_site_label
_atom_site_fract_x
_atom_site_fract_y
_atom_site_fract_z
Si Si1 0.077434 0.000000 0.500000
Si Si2 0.146557 0.237904 0.443058
Si Si3 0.500000 0.328360 0.268099
Si Si4 0.857702 0.012133 0.301162
Si Si5 0.079985 0.417168 0.401151
Si Si6 0.200389 0.664421 0.797072
Si Si7 0.000000 0.363290 0.918671
O O1 0.110587 0.057179 0.600885
O O2 0.044296 0.931236 0.586466
O O3 0.139306 0.128131 0.361661
O O4 0.102431 0.310296 0.462672
O O5 0.172266 0.303723 0.331189
O O6 0.178684 0.220723 0.572115
O O7 0.456346 0.382630 0.207252
O O8 0.500000 0.322214 0.428083
O O9 0.500000 0.215441 0.200994
O O10 0.880863 0.990819 0.161081
O O11 0.809746 0.960470 0.314404
O O12 0.057380 0.500000 0.500000
O O13 0.250000 0.686690 0.750000
#
# Coordination Sequence:
#
# PCOD9481731 Si02
#       7
#     8  16   8  16  16  16   8
#     4  11  20  44  66  90 134 182 236 276 340 425
#     4  11  23  43  70  95 134 183 222 279 348 417
#     4  12  25  42  64 102 139 180 234 296 351 409
#     4  11  22  42  71  92 130 183 230 273 349 426
#     4  11  25  43  66 101 139 178 234 291 349 409
#     4  11  24  41  65 100 131 170 225 285 343 415
#     4  11  26  40  68 102 137 188 237 290 351 415
#
# _framework density 22.867103
#
# number of rings (size 3 to 8) (size 9 to 14) (size 15 to 20)
#    0.000    0.909    3.636    3.000    0.000    3.636 
#    0.000    9.091    0.000    0.000    0.000    0.000 
#    0.000    0.000    0.000    0.000    0.000    0.000 
#
# Total GULP energy -245244.421615 kJ/mol
# GULP energy per Si atom -5573.736855 kJ/mol
# Density = 2.281506 g / cm^3
# Si number density = 22.867103 Si / 1000 Ang^3
#
#
#
# Elastic Constant Matrix: (Units=GPa)
#
#
# Indices 1 2 3 4 5 6 
#
# 1 87.2262 28.5573 23.1619 0.0000 0.0000 0.0000
# 2 28.5573 87.4237 12.0998 0.0000 0.0000 0.0000
# 3 23.1619 12.0998 62.6119 0.0000 0.0000 0.0000
# 4 0.0000 0.0000 0.0000 35.6531 0.0000 0.0000
# 5 0.0000 0.0000 0.0000 0.0000 43.7418 0.0000
# 6 0.0000 0.0000 0.0000 0.0000 0.0000 -30.8149
#
#
#
# Elastic Compliance Matrix: (Units=1/GPa)
#
#
# Indices 1 2 3 4 5 6 
#
# 1 0.013919 -0.003940 -0.004388 0.000000 0.000000 0.000000
# 2 -0.003940 0.012868 -0.001029 0.000000 0.000000 0.000000
# 3 -0.004388 -0.001029 0.017794 0.000000 0.000000 0.000000
# 4 0.000000 0.000000 0.000000 0.028048 0.000000 0.000000
# 5 0.000000 0.000000 0.000000 0.000000 0.022861 0.000000
# 6 0.000000 0.000000 0.000000 0.000000 0.000000 -0.032452
#
#
# Mechanical properties :
#
#
# Convention : Reuss Voigt Hill
#
# Bulk Modulus (GPa) = 38.65892 40.54443 39.60168
# Shear Modulus (GPa) = 55.32540 21.27884 38.30212
#
# Velocity S-wave (km/s) = 4.92411 3.05379 4.09710
# Velocity P-wave (km/s) = 7.01938 5.49574 6.30376
#
# Compressibility (1/GPa) = 0.02586725
#
# Stress axis : x y z
#
# Youngs Moduli (GPa) = 71.84240 77.71283 56.20019
#
# Poissons Ratio (x) = 0.30615 0.24660
# Poissons Ratio (y) = 0.28302 0.05785
# Poissons Ratio (z) = 0.31523 0.08000
#
# Static dielectric constant tensor:
#      x y z
#    x 1.898630 0.000000 0.000000 
#    y 0.000000 1.985310 0.000000 
#    z 0.000000 0.000000 1.924230 
# 
# From -- ./inp_files/19719.got.cif
#   From: 2010.05.17/outbox.cif.g08.bks.cpg/sg64_10_cif.got.tgz:19719.got - 2010.06.03 16:29:19.
