data_PCOD9481047
_publ_section_title
;
Structure prediction by ZEFSAII (Michael W. Deem and Ramdas Pophale) SiO2 
 PCOD9481047
Probable space group: C M C A
;
_chemical_formula_sum "Si O2"
_cell_formula_units_Z 68
_cell_length_a 10.532343
_cell_length_b 19.298380
_cell_length_c 16.879060
_cell_angle_alpha 90.000000
_cell_angle_beta 90.000000
_cell_angle_gamma 90.000000
_cell_volume 3430.789757
_symmetry_space_group_name_H-M "C M C A"
_symmetry_group_IT_number 64
_symmetry_cell_setting 'orthorhombic'
loop_
_space_group_symop_operation_xyz
x,y,z
-x,1/2-y,1/2+z
x,-y,-z
-x,1/2+y,1/2-z
-x,-y,-z
x,1/2+y,1/2-z
-x,y,z
x,1/2-y,1/2+z
1/2+x,1/2+y,z
1/2-x,-y,1/2+z
1/2+x,1/2-y,-z
1/2-x,y,1/2-z
1/2-x,1/2-y,-z
1/2+x,y,1/2-z
1/2-x,1/2+y,z
1/2+x,-y,1/2+z
loop_
_atom_site_type_symbol
_atom_site_label
_atom_site_fract_x
_atom_site_fract_y
_atom_site_fract_z
Si Si1 0.355277 0.515602 0.681612
Si Si2 0.785909 0.407148 0.583517
Si Si3 0.500000 0.000000 0.500000
Si Si4 0.854271 0.275667 0.682205
Si Si5 0.146421 0.148248 0.567181
O O1 0.500000 0.513005 0.712159
O O2 0.250000 0.515504 0.750000
O O3 0.325915 0.450597 0.625053
O O4 0.340954 0.584955 0.629200
O O5 0.889748 0.461123 0.553204
O O6 0.840564 0.351746 0.645125
O O7 0.735509 0.366119 0.506935
O O8 0.750000 0.266701 0.750000
O O9 0.828412 0.218962 0.614047
O O10 0.000000 0.264842 0.709814
O O11 0.000000 0.149528 0.540110
#
# Coordination Sequence:
#
# PCOD9481047 Si02
#       5
#    16  16   4  16  16
#     4  11  24  39  64  92 128 169 212 266 323 385
#     4  12  23  42  66  94 130 168 217 267 323 384
#     4  12  24  40  66  96 132 168 214 276 310 394
#     4  11  25  44  65  95 130 168 213 264 323 386
#     4  10  22  43  65  92 124 167 215 266 323 384
#
# _framework density 19.820509000000001
#
# number of rings (size 3 to 8) (size 9 to 14) (size 15 to 20)
#    0.000    0.941    3.529    2.824    1.647    5.647 
#    2.118    0.000    0.000    0.000    0.000    0.000 
#    0.000    0.000    0.000    0.000    0.000    0.000 
#
# Total GULP energy -189573.055664 kJ/mol
# GULP energy per Si atom -5575.678108 kJ/mol
# Density = 1.977540 g / cm^3
# Si number density = 19.820509 Si / 1000 Ang^3
#
#
#
# Elastic Constant Matrix: (Units=GPa)
#
#
# Indices 1 2 3 4 5 6 
#
# 1 114.7917 -4.2606 41.9464 0.0000 0.0000 0.0000
# 2 -4.2606 50.8903 -20.8963 0.0000 0.0000 0.0000
# 3 41.9464 -20.8963 39.5753 0.0000 0.0000 0.0000
# 4 0.0000 0.0000 0.0000 7.2227 0.0000 0.0000
# 5 0.0000 0.0000 0.0000 0.0000 17.7945 0.0000
# 6 0.0000 0.0000 0.0000 0.0000 0.0000 -0.6847
#
#
#
# Elastic Compliance Matrix: (Units=1/GPa)
#
#
# Indices 1 2 3 4 5 6 
#
# 1 0.016050 -0.007203 -0.020816 0.000000 0.000000 0.000000
# 2 -0.007203 0.028323 0.022590 0.000000 0.000000 0.000000
# 3 -0.020816 0.022590 0.059259 0.000000 0.000000 0.000000
# 4 0.000000 0.000000 0.000000 0.138453 0.000000 0.000000
# 5 0.000000 0.000000 0.000000 0.000000 0.056197 0.000000
# 6 0.000000 0.000000 0.000000 0.000000 0.000000 -1.460448
#
#
# Mechanical properties :
#
#
# Convention : Reuss Voigt Hill
#
# Bulk Modulus (GPa) = 10.77890 26.53736 18.65813
# Shear Modulus (GPa) = -4.46276 17.43101 6.48412
#
# Velocity S-wave (km/s) = -1.50216 2.96876 1.81067
# Velocity P-wave (km/s) = 1.56251 5.01690 3.71555
#
# Compressibility (1/GPa) = 0.09277385
#
# Stress axis : x y z
#
# Youngs Moduli (GPa) = 62.30401 35.30724 16.87513
#
# Poissons Ratio (x) = 0.25433 0.35126
# Poissons Ratio (y) = 0.44880 -0.38121
# Poissons Ratio (z) = 1.29689 -0.79759
#
# Static dielectric constant tensor:
#      x y z
#    x 1.663800 0.000000 0.000000 
#    y 0.000000 1.690960 0.000000 
#    z 0.000000 0.000000 1.671580 
# 
# From -- ./inp_files/22165.got.cif
#   From: 2010.05.17/outbox.cif.g08.bks.cpg/sg64_12_cif.got.tgz:22165.got - 2010.06.03 16:29:19.
