data_PCOD9481875
_publ_section_title
;
Structure prediction by ZEFSAII (Michael W. Deem and Ramdas Pophale) SiO2 
 PCOD9481875
Probable space group: C M C A
;
_chemical_formula_sum "Si O2"
_cell_formula_units_Z 88
_cell_length_a 14.808337
_cell_length_b 15.394194
_cell_length_c 20.411161
_cell_angle_alpha 90.000000
_cell_angle_beta 90.000000
_cell_angle_gamma 90.000000
_cell_volume 4652.977505
_symmetry_space_group_name_H-M "C M C A"
_symmetry_group_IT_number 64
_symmetry_cell_setting 'orthorhombic'
loop_
_space_group_symop_operation_xyz
x,y,z
-x,1/2-y,1/2+z
x,-y,-z
-x,1/2+y,1/2-z
-x,-y,-z
x,1/2+y,1/2-z
-x,y,z
x,1/2-y,1/2+z
1/2+x,1/2+y,z
1/2-x,-y,1/2+z
1/2+x,1/2-y,-z
1/2-x,y,1/2-z
1/2-x,1/2-y,-z
1/2+x,y,1/2-z
1/2-x,1/2+y,z
1/2+x,-y,1/2+z
loop_
_atom_site_type_symbol
_atom_site_label
_atom_site_fract_x
_atom_site_fract_y
_atom_site_fract_z
Si Si1 0.500000 0.690579 0.342877
Si Si2 0.200932 0.889527 0.817759
Si Si3 0.816863 0.684464 0.805335
Si Si4 0.394740 0.103676 0.931288
Si Si5 0.649721 0.906078 0.921189
Si Si6 0.000000 0.436095 0.715193
Si Si7 0.000000 0.143571 0.766633
O O1 0.411509 0.661907 0.382049
O O2 0.500000 0.629521 0.277742
O O3 0.500000 0.793353 0.329558
O O4 0.250000 0.920848 0.750000
O O5 0.205440 0.785139 0.814997
O O6 0.257095 0.916346 0.881817
O O7 0.096127 0.916881 0.819094
O O8 0.750000 0.646783 0.750000
O O9 0.829231 0.641188 0.875717
O O10 0.913730 0.673865 0.773091
O O11 0.500000 0.134904 0.928743
O O12 0.397172 0.000270 0.919896
O O13 0.351733 0.119684 0.002689
O O14 0.000000 0.539521 0.728923
#
# Coordination Sequence:
#
# PCOD9481875 Si02
#       7
#     8  16  16  16  16   8   8
#     4  12  18  40  65  94 128 160 208 272 311 371
#     4  11  23  40  62  91 128 169 205 263 321 371
#     4  11  23  40  62  94 126 160 210 258 316 385
#     4  11  22  40  68  96 123 165 213 268 315 374
#     4  11  22  39  64  94 128 162 213 263 321 371
#     4  12  24  38  61  95 130 164 208 267 324 367
#     4  12  24  37  62  97 126 165 209 259 318 380
#
# _framework density 18.912621000000001
#
# number of rings (size 3 to 8) (size 9 to 14) (size 15 to 20)
#    0.000    0.727    6.364    2.727    2.545    0.727 
#    0.000    0.000    0.000    3.273    0.000    0.000 
#    0.000    0.000    0.000    0.000    0.000    0.000 
#
# Total GULP energy -245515.825158 kJ/mol
# GULP energy per Si atom -5579.905117 kJ/mol
# Density = 1.886957 g / cm^3
# Si number density = 18.912621 Si / 1000 Ang^3
#
#
#
# Elastic Constant Matrix: (Units=GPa)
#
#
# Indices 1 2 3 4 5 6 
#
# 1 133.8379 -2.0153 77.5429 0.0000 0.0000 0.0000
# 2 -2.0153 59.5963 33.4874 0.0000 0.0000 0.0000
# 3 77.5429 33.4874 129.0465 0.0000 0.0000 0.0000
# 4 0.0000 0.0000 0.0000 26.4183 0.0000 0.0000
# 5 0.0000 0.0000 0.0000 0.0000 23.0793 0.0000
# 6 0.0000 0.0000 0.0000 0.0000 0.0000 106.0396
#
#
#
# Elastic Compliance Matrix: (Units=1/GPa)
#
#
# Indices 1 2 3 4 5 6 
#
# 1 0.012884 0.005603 -0.009196 0.000000 0.000000 0.000000
# 2 0.005603 0.022080 -0.009096 0.000000 0.000000 0.000000
# 3 -0.009196 -0.009096 0.015635 0.000000 0.000000 0.000000
# 4 0.000000 0.000000 0.000000 0.037852 0.000000 0.000000
# 5 0.000000 0.000000 0.000000 0.000000 0.043329 0.000000
# 6 0.000000 0.000000 0.000000 0.000000 0.000000 0.009430
#
#
# Mechanical properties :
#
#
# Convention : Reuss Voigt Hill
#
# Bulk Modulus (GPa) = 39.64993 60.05672 49.85333
# Shear Modulus (GPa) = 28.57189 45.33851 36.95520
#
# Velocity S-wave (km/s) = 3.89103 4.90150 4.42520
# Velocity P-wave (km/s) = 6.41850 7.99104 7.24754
#
# Compressibility (1/GPa) = 0.02522073
#
# Stress axis : x y z
#
# Youngs Moduli (GPa) = 77.61617 45.28908 63.95777
#
# Poissons Ratio (x) = -0.25375 0.58814
# Poissons Ratio (y) = -0.43487 0.58179
# Poissons Ratio (z) = 0.71374 0.41197
#
# Static dielectric constant tensor:
#      x y z
#    x 1.666820 0.000000 0.000000 
#    y 0.000000 1.675770 0.000000 
#    z 0.000000 0.000000 1.703880 
# 
# From -- ./inp_files/39102.got.cif
#   From: 2010.05.17/outbox.cif.g08.bks.cpg/sg64_20_cif.got.tgz:39102.got - 2010.06.03 16:29:19.
