data_PCOD9481683
_publ_section_title
;
Structure prediction by ZEFSAII (Michael W. Deem and Ramdas Pophale) SiO2 
 PCOD9481683
Probable space group: C M C A
;
_chemical_formula_sum "Si O2"
_cell_formula_units_Z 96
_cell_length_a 25.772757
_cell_length_b 24.063337
_cell_length_c 8.606576
_cell_angle_alpha 90.000000
_cell_angle_beta 90.000000
_cell_angle_gamma 90.000000
_cell_volume 5337.613713
_symmetry_space_group_name_H-M "C M C A"
_symmetry_group_IT_number 64
_symmetry_cell_setting 'orthorhombic'
loop_
_space_group_symop_operation_xyz
x,y,z
-x,1/2-y,1/2+z
x,-y,-z
-x,1/2+y,1/2-z
-x,-y,-z
x,1/2+y,1/2-z
-x,y,z
x,1/2-y,1/2+z
1/2+x,1/2+y,z
1/2-x,-y,1/2+z
1/2+x,1/2-y,-z
1/2-x,y,1/2-z
1/2-x,1/2-y,-z
1/2+x,y,1/2-z
1/2-x,1/2+y,z
1/2+x,-y,1/2+z
loop_
_atom_site_type_symbol
_atom_site_label
_atom_site_fract_x
_atom_site_fract_y
_atom_site_fract_z
Si Si1 0.087145 0.649639 0.831731
Si Si2 0.000000 0.554896 0.305823
Si Si3 0.306166 0.676933 0.193731
Si Si4 0.000000 0.075845 0.827622
Si Si5 0.908633 0.629949 0.193758
Si Si6 0.056196 0.228645 0.091671
Si Si7 0.842781 0.788033 0.123236
O O1 0.050459 0.607248 0.739905
O O2 0.058882 0.709249 0.844703
O O3 0.140607 0.664429 0.744101
O O4 0.096254 0.632439 0.009000
O O5 0.947734 0.580690 0.234637
O O6 0.000000 0.488986 0.283589
O O7 0.000000 0.574028 0.485798
O O8 0.250000 0.659182 0.250000
O O9 0.351694 0.632648 0.228847
O O10 0.323241 0.733213 0.287612
O O11 0.304498 0.692148 0.011681
O O12 0.935525 0.684791 0.269214
O O13 0.000000 0.217972 0.019097
O O14 0.104187 0.223002 0.974312
#
# Coordination Sequence:
#
# PCOD9481683 Si02
#       7
#    16   8  16   8  16  16  16
#     4  12  21  33  54  83 116 149 192 226 281 351
#     4  11  25  44  55  82 117 152 189 242 286 353
#     4  11  21  36  55  81 116 159 196 234 282 337
#     4  11  25  38  59  82 113 156 191 230 296 343
#     4  11  22  37  56  81 119 151 190 235 288 340
#     4  11  20  32  51  81 117 154 182 225 275 346
#     4  11  21  34  50  82 120 154 194 228 283 336
#
# _framework density 17.985565999999999
#
# number of rings (size 3 to 8) (size 9 to 14) (size 15 to 20)
#    0.000    0.833    6.667    3.000    1.167    2.667 
#    0.000    0.000    0.000    0.000    0.000   10.500 
#    0.000    0.000    0.000    0.000    0.000    0.000 
#
# Total GULP energy -268096.436420 kJ/mol
# GULP energy per Si atom -5585.342425 kJ/mol
# Density = 1.794463 g / cm^3
# Si number density = 17.985566 Si / 1000 Ang^3
#
#
#
# Elastic Constant Matrix: (Units=GPa)
#
#
# Indices 1 2 3 4 5 6 
#
# 1 81.5568 21.1201 13.1088 0.0000 0.0000 0.0000
# 2 21.1201 75.1695 27.8509 0.0000 0.0000 0.0000
# 3 13.1088 27.8509 93.7500 0.0000 0.0000 0.0000
# 4 0.0000 0.0000 0.0000 22.8716 0.0000 0.0000
# 5 0.0000 0.0000 0.0000 0.0000 17.0263 0.0000
# 6 0.0000 0.0000 0.0000 0.0000 0.0000 2.4181
#
#
#
# Elastic Compliance Matrix: (Units=1/GPa)
#
#
# Indices 1 2 3 4 5 6 
#
# 1 0.013282 -0.003420 -0.000841 0.000000 0.000000 0.000000
# 2 -0.003420 0.015829 -0.004224 0.000000 0.000000 0.000000
# 3 -0.000841 -0.004224 0.012039 0.000000 0.000000 0.000000
# 4 0.000000 0.000000 0.000000 0.043722 0.000000 0.000000
# 5 0.000000 0.000000 0.000000 0.000000 0.058733 0.000000
# 6 0.000000 0.000000 0.000000 0.000000 0.000000 0.413545
#
#
# Mechanical properties :
#
#
# Convention : Reuss Voigt Hill
#
# Bulk Modulus (GPa) = 41.35730 41.62624 41.49177
# Shear Modulus (GPa) = 8.58838 21.02297 14.80568
#
# Velocity S-wave (km/s) = 2.18758 3.42260 2.87225
# Velocity P-wave (km/s) = 5.42451 6.23004 5.84118
#
# Compressibility (1/GPa) = 0.02417953
#
# Stress axis : x y z
#
# Youngs Moduli (GPa) = 75.28814 63.17372 83.06189
#
# Poissons Ratio (x) = 0.21607 0.06987
# Poissons Ratio (y) = 0.25750 0.35088
# Poissons Ratio (z) = 0.06333 0.26686
#
# Static dielectric constant tensor:
#      x y z
#    x 1.654600 0.000000 0.000000 
#    y 0.000000 1.598660 0.000000 
#    z 0.000000 0.000000 1.674390 
# 
# From -- ./inp_files/10543.got.cif
#   From: 2010.05.17/outbox.cif.g08.bks.cpg/sg64_6_cif.got.tgz:10543.got - 2010.06.03 16:29:19.
