data_PCOD9481195
_publ_section_title
;
Structure prediction by ZEFSAII (Michael W. Deem and Ramdas Pophale) SiO2 
 PCOD9481195
Probable space group: C M C A
;
_chemical_formula_sum "Si O2"
_cell_formula_units_Z 112
_cell_length_a 17.150511
_cell_length_b 28.626362
_cell_length_c 11.272279
_cell_angle_alpha 90.000000
_cell_angle_beta 90.000000
_cell_angle_gamma 90.000000
_cell_volume 5534.201309
_symmetry_space_group_name_H-M "C M C A"
_symmetry_group_IT_number 64
_symmetry_cell_setting 'orthorhombic'
loop_
_space_group_symop_operation_xyz
x,y,z
-x,1/2-y,1/2+z
x,-y,-z
-x,1/2+y,1/2-z
-x,-y,-z
x,1/2+y,1/2-z
-x,y,z
x,1/2-y,1/2+z
1/2+x,1/2+y,z
1/2-x,-y,1/2+z
1/2+x,1/2-y,-z
1/2-x,y,1/2-z
1/2-x,1/2-y,-z
1/2+x,y,1/2-z
1/2-x,1/2+y,z
1/2+x,-y,1/2+z
loop_
_atom_site_type_symbol
_atom_site_label
_atom_site_fract_x
_atom_site_fract_y
_atom_site_fract_z
Si Si1 0.089289 0.916879 0.781672
Si Si2 0.673122 0.156412 0.121294
Si Si3 0.310203 0.495633 0.138167
Si Si4 0.851298 0.659153 0.449918
Si Si5 0.835811 0.391284 0.307771
Si Si6 0.589839 0.331924 0.373544
Si Si7 0.092175 0.768415 0.790218
O O1 0.138649 0.891380 0.677489
O O2 0.093800 0.878463 0.885762
O O3 0.000000 0.924333 0.745138
O O4 0.129175 0.963283 0.832334
O O5 0.766258 0.155104 0.111566
O O6 0.640149 0.199909 0.197996
O O7 0.641235 0.162896 0.989521
O O8 0.250000 0.498363 0.250000
O O9 0.345803 0.443818 0.146486
O O10 0.280774 0.500000 0.000000
O O11 0.842336 0.644681 0.584454
O O12 0.886943 0.709215 0.418475
O O13 0.750000 0.387782 0.250000
O O14 0.897048 0.376591 0.208526
O O15 0.500000 0.326155 0.408256
O O16 0.612478 0.285840 0.298700
O O17 0.000000 0.773591 0.766026
#
# Coordination Sequence:
#
# PCOD9481195 Si02
#       7
#    16  16  16  16  16  16  16
#     4  11  23  40  67  98 127 165 215 267 328 395
#     4  11  22  42  66  93 129 169 222 268 325 392
#     4  11  24  44  71  99 130 174 220 275 333 397
#     4  11  21  40  66  91 124 166 211 271 317 380
#     4  11  24  42  62  95 128 166 216 266 325 388
#     4  11  25  42  63  90 133 176 213 271 333 390
#     4  10  23  40  62  95 126 170 218 262 324 387
#
# _framework density 20.23779
#
# number of rings (size 3 to 8) (size 9 to 14) (size 15 to 20)
#    0.000    1.143    2.857    5.143    2.000    3.714 
#    0.000    0.000    0.000    2.143    0.000    0.000 
#    0.000    0.000    0.000    0.000    0.000    0.000 
#
# Total GULP energy -312743.779707 kJ/mol
# GULP energy per Si atom -5584.710352 kJ/mol
# Density = 2.019173 g / cm^3
# Si number density = 20.237790 Si / 1000 Ang^3
#
#
#
# Elastic Constant Matrix: (Units=GPa)
#
#
# Indices 1 2 3 4 5 6 
#
# 1 72.0832 13.3483 26.8829 0.0000 0.0000 0.0000
# 2 13.3483 84.4782 36.8564 0.0000 0.0000 0.0000
# 3 26.8829 36.8564 100.8178 0.0000 0.0000 0.0000
# 4 0.0000 0.0000 0.0000 22.0532 0.0000 0.0000
# 5 0.0000 0.0000 0.0000 0.0000 14.2934 0.0000
# 6 0.0000 0.0000 0.0000 0.0000 0.0000 17.4212
#
#
#
# Elastic Compliance Matrix: (Units=1/GPa)
#
#
# Indices 1 2 3 4 5 6 
#
# 1 0.015446 -0.000766 -0.003839 0.000000 0.000000 0.000000
# 2 -0.000766 0.014122 -0.004958 0.000000 0.000000 0.000000
# 3 -0.003839 -0.004958 0.012755 0.000000 0.000000 0.000000
# 4 0.000000 0.000000 0.000000 0.045345 0.000000 0.000000
# 5 0.000000 0.000000 0.000000 0.000000 0.069962 0.000000
# 6 0.000000 0.000000 0.000000 0.000000 0.000000 0.057401
#
#
# Mechanical properties :
#
#
# Convention : Reuss Voigt Hill
#
# Bulk Modulus (GPa) = 43.10863 45.72827 44.41845
# Shear Modulus (GPa) = 20.67057 22.77300 21.72179
#
# Velocity S-wave (km/s) = 3.19938 3.35815 3.27972
# Velocity P-wave (km/s) = 5.91569 6.13846 6.02810
#
# Compressibility (1/GPa) = 0.02319721
#
# Stress axis : x y z
#
# Youngs Moduli (GPa) = 64.74032 70.81354 78.40000
#
# Poissons Ratio (x) = 0.05423 0.30096
# Poissons Ratio (y) = 0.04958 0.38873
# Poissons Ratio (z) = 0.24852 0.35111
#
# Static dielectric constant tensor:
#      x y z
#    x 1.702650 0.000000 0.000000 
#    y 0.000000 1.701620 0.000000 
#    z 0.000000 0.000000 1.742090 
# 
# From -- ./inp_files/15002.got.cif
#   From: 2010.05.17/outbox.cif.g08.bks.cpg/sg64_8_cif.got.tgz:15002.got - 2010.06.03 16:29:19.
