data_PCOD9481713
_publ_section_title
;
Structure prediction by ZEFSAII (Michael W. Deem and Ramdas Pophale) SiO2 
 PCOD9481713
Probable space group: C M C A
;
_chemical_formula_sum "Si O2"
_cell_formula_units_Z 72
_cell_length_a 21.394151
_cell_length_b 12.832544
_cell_length_c 11.323992
_cell_angle_alpha 90.000000
_cell_angle_beta 90.000000
_cell_angle_gamma 90.000000
_cell_volume 3108.904437
_symmetry_space_group_name_H-M "C M C A"
_symmetry_group_IT_number 64
_symmetry_cell_setting 'orthorhombic'
loop_
_space_group_symop_operation_xyz
x,y,z
-x,1/2-y,1/2+z
x,-y,-z
-x,1/2+y,1/2-z
-x,-y,-z
x,1/2+y,1/2-z
-x,y,z
x,1/2-y,1/2+z
1/2+x,1/2+y,z
1/2-x,-y,1/2+z
1/2+x,1/2-y,-z
1/2-x,y,1/2-z
1/2-x,1/2-y,-z
1/2+x,y,1/2-z
1/2-x,1/2+y,z
1/2+x,-y,1/2+z
loop_
_atom_site_type_symbol
_atom_site_label
_atom_site_fract_x
_atom_site_fract_y
_atom_site_fract_z
Si Si1 0.500000 0.418873 0.803445
Si Si2 0.000000 0.268582 0.337110
Si Si3 0.750000 0.482901 0.750000
Si Si4 0.000000 0.086344 0.652667
Si Si5 0.608113 0.309311 0.496082
Si Si6 0.361912 0.087128 0.400863
Si Si7 0.695505 0.000000 0.000000
O O1 0.500000 0.293682 0.785201
O O2 0.500000 0.462139 0.667717
O O3 0.566676 0.436207 0.863341
O O4 0.000000 0.386624 0.292792
O O5 0.061897 0.239021 0.406323
O O6 0.688148 0.424262 0.796433
O O7 0.728770 0.534333 0.624254
O O8 0.937935 0.128838 0.593138
O O9 0.640520 0.206723 0.443299
O O10 0.655836 0.397982 0.535305
O O11 0.347538 0.000000 0.500000
#
# Coordination Sequence:
#
# PCOD9481713 Si02
#       7
#     8   8   8   8  16  16   8
#     4  12  22  42  74 102 153 188 249 310 374 455
#     4  11  20  39  64 113 144 183 244 299 379 452
#     4  12  28  54  74 112 152 200 270 304 394 448
#     4  11  21  38  64 110 143 193 237 312 368 450
#     4  11  24  42  72 105 149 195 253 308 384 450
#     4  12  25  48  72 112 149 203 250 319 382 459
#     4  12  28  51  74 105 146 204 254 320 370 462
#
# _framework density 23.159282999999999
#
# number of rings (size 3 to 8) (size 9 to 14) (size 15 to 20)
#    0.000    0.444    3.333    6.333    0.000    3.556 
#    0.000    0.000    0.000    0.000    0.000    0.000 
#    0.000    0.000    0.000    0.000    0.000    0.000 
#
# Total GULP energy -200885.661269 kJ/mol
# GULP energy per Si atom -5580.157257 kJ/mol
# Density = 2.310657 g / cm^3
# Si number density = 23.159283 Si / 1000 Ang^3
#
#
#
# Elastic Constant Matrix: (Units=GPa)
#
#
# Indices 1 2 3 4 5 6 
#
# 1 113.7394 25.7415 55.3387 0.0000 0.0000 0.0000
# 2 25.7415 68.6640 24.1210 0.0000 0.0000 0.0000
# 3 55.3387 24.1210 110.9987 0.0000 0.0000 0.0000
# 4 0.0000 0.0000 0.0000 42.1657 0.0000 0.0000
# 5 0.0000 0.0000 0.0000 0.0000 12.0024 0.0000
# 6 0.0000 0.0000 0.0000 0.0000 0.0000 39.8189
#
#
#
# Elastic Compliance Matrix: (Units=1/GPa)
#
#
# Indices 1 2 3 4 5 6 
#
# 1 0.012022 -0.002600 -0.005428 0.000000 0.000000 0.000000
# 2 -0.002600 0.016330 -0.002252 0.000000 0.000000 0.000000
# 3 -0.005428 -0.002252 0.012205 0.000000 0.000000 0.000000
# 4 0.000000 0.000000 0.000000 0.023716 0.000000 0.000000
# 5 0.000000 0.000000 0.000000 0.000000 0.083317 0.000000
# 6 0.000000 0.000000 0.000000 0.000000 0.000000 0.025114
#
#
# Mechanical properties :
#
#
# Convention : Reuss Voigt Hill
#
# Bulk Modulus (GPa) = 50.01311 55.97830 52.99571
# Shear Modulus (GPa) = 25.00893 31.34412 28.17653
#
# Velocity S-wave (km/s) = 3.28970 3.68287 3.49182
# Velocity P-wave (km/s) = 6.00597 6.50447 6.26018
#
# Compressibility (1/GPa) = 0.01999476
#
# Stress axis : x y z
#
# Youngs Moduli (GPa) = 83.18381 61.23859 81.93402
#
# Poissons Ratio (x) = 0.15921 0.44477
# Poissons Ratio (y) = 0.21626 0.18455
# Poissons Ratio (z) = 0.45156 0.13793
#
# Static dielectric constant tensor:
#      x y z
#    x 1.905450 0.000000 0.000000 
#    y 0.000000 1.816630 0.000000 
#    z 0.000000 0.000000 1.927380 
# 
# From -- ./inp_files/18030.got.cif
#   From: 2010.05.17/outbox.cif.g08.bks.cpg/sg64_10_cif.got.tgz:18030.got - 2010.06.03 16:29:19.
