data_PCOD9481749
_publ_section_title
;
Structure prediction by ZEFSAII (Michael W. Deem and Ramdas Pophale) SiO2 
 PCOD9481749
Probable space group: C M C A
;
_chemical_formula_sum "Si O2"
_cell_formula_units_Z 64
_cell_length_a 15.333842
_cell_length_b 17.053498
_cell_length_c 10.905166
_cell_angle_alpha 90.000000
_cell_angle_beta 90.000000
_cell_angle_gamma 90.000000
_cell_volume 2851.653405
_symmetry_space_group_name_H-M "C M C A"
_symmetry_group_IT_number 64
_symmetry_cell_setting 'orthorhombic'
loop_
_space_group_symop_operation_xyz
x,y,z
-x,1/2-y,1/2+z
x,-y,-z
-x,1/2+y,1/2-z
-x,-y,-z
x,1/2+y,1/2-z
-x,y,z
x,1/2-y,1/2+z
1/2+x,1/2+y,z
1/2-x,-y,1/2+z
1/2+x,1/2-y,-z
1/2-x,y,1/2-z
1/2-x,1/2-y,-z
1/2+x,y,1/2-z
1/2-x,1/2+y,z
1/2+x,-y,1/2+z
loop_
_atom_site_type_symbol
_atom_site_label
_atom_site_fract_x
_atom_site_fract_y
_atom_site_fract_z
Si Si1 0.847754 0.823588 0.297958
Si Si2 0.278182 0.090955 0.030918
Si Si3 0.596641 0.319555 0.681863
Si Si4 0.596521 0.657910 0.954789
O O1 0.750000 0.806356 0.250000
O O2 0.665017 0.870906 0.079264
O O3 0.893129 0.871835 0.188011
O O4 0.892251 0.737837 0.299469
O O5 0.329468 0.117779 0.152481
O O6 0.180849 0.126110 0.024009
O O7 0.273534 0.000000 0.000000
O O8 0.500000 0.353649 0.680119
O O9 0.602469 0.250891 0.577090
O O10 0.500000 0.637688 0.000275
#
# Coordination Sequence:
#
# PCOD9481749 Si02
#       4
#    16  16  16  16
#     4   8  17  34  57  79 112 158 197 237 279 344
#     4  11  21  34  62  94 120 151 193 251 306 343
#     4   9  19  36  59  83 114 157 198 234 285 354
#     4   8  17  36  60  83 117 161 199 234 284 357
#
# _framework density 22.44312
#
# number of rings (size 3 to 8) (size 9 to 14) (size 15 to 20)
#    1.500    1.500    0.000    0.750    0.000    3.000 
#    0.000    3.750    0.000    0.000    0.000    0.000 
#    0.000    0.000    0.000    0.000    0.000    0.000 
#
# Total GULP energy -178230.441715 kJ/mol
# GULP energy per Si atom -5569.701304 kJ/mol
# Density = 2.239204 g / cm^3
# Si number density = 22.443120 Si / 1000 Ang^3
#
#
#
# Elastic Constant Matrix: (Units=GPa)
#
#
# Indices 1 2 3 4 5 6 
#
# 1 158.4863 51.1969 28.1390 0.0000 0.0000 0.0000
# 2 51.1969 82.3587 23.1543 0.0000 0.0000 0.0000
# 3 28.1390 23.1543 53.9978 0.0000 0.0000 0.0000
# 4 0.0000 0.0000 0.0000 19.9513 0.0000 0.0000
# 5 0.0000 0.0000 0.0000 0.0000 20.8286 0.0000
# 6 0.0000 0.0000 0.0000 0.0000 0.0000 3.6044
#
#
#
# Elastic Compliance Matrix: (Units=1/GPa)
#
#
# Indices 1 2 3 4 5 6 
#
# 1 0.008151 -0.004404 -0.002359 0.000000 0.000000 0.000000
# 2 -0.004404 0.016186 -0.004646 0.000000 0.000000 0.000000
# 3 -0.002359 -0.004646 0.021741 0.000000 0.000000 0.000000
# 4 0.000000 0.000000 0.000000 0.050122 0.000000 0.000000
# 5 0.000000 0.000000 0.000000 0.000000 0.048011 0.000000
# 6 0.000000 0.000000 0.000000 0.000000 0.000000 0.277439
#
#
# Mechanical properties :
#
#
# Convention : Reuss Voigt Hill
#
# Bulk Modulus (GPa) = 42.99181 55.53593 49.26387
# Shear Modulus (GPa) = 11.05655 21.70036 16.37846
#
# Velocity S-wave (km/s) = 2.22198 3.11288 2.70437
# Velocity P-wave (km/s) = 5.07744 6.14158 5.63468
#
# Compressibility (1/GPa) = 0.02326024
#
# Stress axis : x y z
#
# Youngs Moduli (GPa) = 122.68194 61.78351 45.99645
#
# Poissons Ratio (x) = 0.27208 0.10852
# Poissons Ratio (y) = 0.54026 0.21368
# Poissons Ratio (z) = 0.28945 0.28702
#
# Static dielectric constant tensor:
#      x y z
#    x 1.818450 0.000000 0.000000 
#    y 0.000000 1.783120 0.000000 
#    z 0.000000 0.000000 2.047380 
# 
# From -- ./inp_files/23381.got.cif
#   From: 2010.05.17/outbox.cif.g08.bks.cpg/sg64_12_cif.got.tgz:23381.got - 2010.06.03 16:29:19.
