data_PCOD9481838
_publ_section_title
;
Structure prediction by ZEFSAII (Michael W. Deem and Ramdas Pophale) SiO2 
 PCOD9481838
Probable space group: C M C A
;
_chemical_formula_sum "Si O2"
_cell_formula_units_Z 96
_cell_length_a 23.945592
_cell_length_b 8.485322
_cell_length_c 23.340782
_cell_angle_alpha 90.000000
_cell_angle_beta 90.000000
_cell_angle_gamma 90.000000
_cell_volume 4742.521499
_symmetry_space_group_name_H-M "C M C A"
_symmetry_group_IT_number 64
_symmetry_cell_setting 'orthorhombic'
loop_
_space_group_symop_operation_xyz
x,y,z
-x,1/2-y,1/2+z
x,-y,-z
-x,1/2+y,1/2-z
-x,-y,-z
x,1/2+y,1/2-z
-x,y,z
x,1/2-y,1/2+z
1/2+x,1/2+y,z
1/2-x,-y,1/2+z
1/2+x,1/2-y,-z
1/2-x,y,1/2-z
1/2-x,1/2-y,-z
1/2+x,y,1/2-z
1/2-x,1/2+y,z
1/2+x,-y,1/2+z
loop_
_atom_site_type_symbol
_atom_site_label
_atom_site_fract_x
_atom_site_fract_y
_atom_site_fract_z
Si Si1 0.803546 0.349367 0.874162
Si Si2 0.387143 0.578901 0.130488
Si Si3 0.891708 0.576936 0.830264
Si Si4 0.209274 0.032135 0.936353
Si Si5 0.500000 0.947299 0.335016
Si Si6 0.500000 0.598931 0.283085
Si Si7 0.309883 0.094617 0.723868
O O1 0.858590 0.454165 0.869992
O O2 0.801644 0.214093 0.922149
O O3 0.753459 0.466367 0.890001
O O4 0.799827 0.251364 0.814601
O O5 0.403737 0.759127 0.139045
O O6 0.348695 0.557299 0.075065
O O7 0.442467 0.472442 0.131272
O O8 0.346226 0.519508 0.182288
O O9 0.945629 0.490424 0.805945
O O10 0.850246 0.619511 0.777859
O O11 0.229884 0.000000 0.000000
O O12 0.500000 0.080053 0.285212
O O13 0.500000 0.778599 0.303779
O O14 0.250000 0.044399 0.750000
#
# Coordination Sequence:
#
# PCOD9481838 Si02
#       7
#    16  16  16  16   8   8  16
#     4  11  24  39  60  93 127 166 214 260 321 376
#     4  11  23  39  61  87 121 160 211 257 317 371
#     4  12  23  38  60  92 128 169 205 251 308 386
#     4  11  23  43  66  91 122 165 218 279 328 372
#     4  12  24  42  59  91 126 171 213 259 302 380
#     4  12  24  38  60  89 128 171 211 239 304 376
#     4  11  22  36  56  87 127 168 200 248 304 385
#
# _framework density 20.242397
#
# number of rings (size 3 to 8) (size 9 to 14) (size 15 to 20)
#    0.000    0.667    1.667    9.000    0.000    2.667 
#    0.000    0.417    0.000    0.000    0.000    4.083 
#    0.000    0.000    0.000    0.000    0.000    0.000 
#
# Total GULP energy -268418.679505 kJ/mol
# GULP energy per Si atom -5592.055823 kJ/mol
# Density = 2.019632 g / cm^3
# Si number density = 20.242397 Si / 1000 Ang^3
#
#
#
# Elastic Constant Matrix: (Units=GPa)
#
#
# Indices 1 2 3 4 5 6 
#
# 1 132.4184 19.0543 18.7302 0.0000 0.0000 0.0000
# 2 19.0543 97.0153 14.7622 0.0000 0.0000 0.0000
# 3 18.7302 14.7622 28.8017 0.0000 0.0000 0.0000
# 4 0.0000 0.0000 0.0000 17.8121 0.0000 0.0000
# 5 0.0000 0.0000 0.0000 0.0000 18.6154 0.0000
# 6 0.0000 0.0000 0.0000 0.0000 0.0000 -16.6837
#
#
#
# Elastic Compliance Matrix: (Units=1/GPa)
#
#
# Indices 1 2 3 4 5 6 
#
# 1 0.008387 -0.000886 -0.005000 0.000000 0.000000 0.000000
# 2 -0.000886 0.011273 -0.005202 0.000000 0.000000 0.000000
# 3 -0.005000 -0.005202 0.040638 0.000000 0.000000 0.000000
# 4 0.000000 0.000000 0.000000 0.056142 0.000000 0.000000
# 5 0.000000 0.000000 0.000000 0.000000 0.053719 0.000000
# 6 0.000000 0.000000 0.000000 0.000000 0.000000 -0.059939
#
#
# Mechanical properties :
#
#
# Convention : Reuss Voigt Hill
#
# Bulk Modulus (GPa) = 26.23145 40.36986 33.30066
# Shear Modulus (GPa) = 34.45848 17.66132 26.05990
#
# Velocity S-wave (km/s) = 4.13036 2.95700 3.59192
# Velocity P-wave (km/s) = 5.97773 5.62539 5.80424
#
# Compressibility (1/GPa) = 0.03812218
#
# Stress axis : x y z
#
# Youngs Moduli (GPa) = 119.23859 88.70566 24.60776
#
# Poissons Ratio (x) = 0.07863 0.12303
# Poissons Ratio (y) = 0.10569 0.12800
# Poissons Ratio (z) = 0.59614 0.46141
#
# Static dielectric constant tensor:
#      x y z
#    x 1.729880 0.000000 0.000000 
#    y 0.000000 1.742250 0.000000 
#    z 0.000000 0.000000 1.715780 
# 
# From -- ./inp_files/46632.got.cif
#   From: 2010.05.17/outbox.cif.g08.bks.cpg/sg64_24_cif.got.tgz:46632.got - 2010.06.03 16:29:19.
