data_PCOD9481393
_publ_section_title
;
Structure prediction by ZEFSAII (Michael W. Deem and Ramdas Pophale) SiO2 
 PCOD9481393
Probable space group: C M C A
;
_chemical_formula_sum "Si O2"
_cell_formula_units_Z 88
_cell_length_a 21.243237
_cell_length_b 8.291000
_cell_length_c 23.906580
_cell_angle_alpha 90.000000
_cell_angle_beta 90.000000
_cell_angle_gamma 90.000000
_cell_volume 4210.610424
_symmetry_space_group_name_H-M "C M C A"
_symmetry_group_IT_number 64
_symmetry_cell_setting 'orthorhombic'
loop_
_space_group_symop_operation_xyz
x,y,z
-x,1/2-y,1/2+z
x,-y,-z
-x,1/2+y,1/2-z
-x,-y,-z
x,1/2+y,1/2-z
-x,y,z
x,1/2-y,1/2+z
1/2+x,1/2+y,z
1/2-x,-y,1/2+z
1/2+x,1/2-y,-z
1/2-x,y,1/2-z
1/2-x,1/2-y,-z
1/2+x,y,1/2-z
1/2-x,1/2+y,z
1/2+x,-y,1/2+z
loop_
_atom_site_type_symbol
_atom_site_label
_atom_site_fract_x
_atom_site_fract_y
_atom_site_fract_z
Si Si1 0.573823 0.461876 0.116004
Si Si2 0.573431 0.868536 0.810977
Si Si3 0.841786 0.120360 0.201952
Si Si4 0.750000 0.138633 0.750000
Si Si5 0.575326 0.760001 0.485711
Si Si6 0.075479 0.933124 0.412672
O O1 0.500000 0.509622 0.113325
O O2 0.616531 0.590725 0.147606
O O3 0.596433 0.405457 0.054491
O O4 0.576155 0.299183 0.154498
O O5 0.500000 0.899480 0.798477
O O6 0.611731 0.856081 0.754376
O O7 0.597934 0.013875 0.851094
O O8 0.800236 0.963972 0.215853
O O9 0.789586 0.258091 0.205604
O O10 0.500000 0.783723 0.490823
O O11 0.583701 0.597275 0.448917
O O12 0.599433 0.710617 0.547213
O O13 0.000000 0.910596 0.407148
#
# Coordination Sequence:
#
# PCOD9481393 Si02
#       6
#    16  16  16   8  16  16
#     4   9  16  26  45  72  99 121 144 186 236 278
#     4   9  16  26  45  72  99 121 144 186 236 278
#     4  11  19  36  46  68  87 123 158 200 226 275
#     4  10  24  34  50  58  86 126 172 192 228 260
#     4   7  10  18  34  61  95 123 144 169 213 274
#     4   7  10  18  34  61  95 123 144 169 213 274
#
# _framework density 20.899584000000001
#
# number of rings (size 3 to 8) (size 9 to 14) (size 15 to 20)
#    0.000    3.273    1.818    3.818    0.000    0.000 
#    0.000    0.000    0.000    0.000    0.000    8.909 
#    0.000    5.818    0.000    0.000    0.000    0.000 
#
# Total GULP energy -245381.675504 kJ/mol
# GULP energy per Si atom -5576.856261 kJ/mol
# Density = 2.085202 g / cm^3
# Si number density = 20.899584 Si / 1000 Ang^3
#
#
#
# Elastic Constant Matrix: (Units=GPa)
#
#
# Indices 1 2 3 4 5 6 
#
# 1 59.3852 29.3723 31.9682 0.0000 0.0000 0.0000
# 2 29.3723 67.0992 31.2613 0.0000 0.0000 0.0000
# 3 31.9682 31.2613 114.8645 0.0000 0.0000 0.0000
# 4 0.0000 0.0000 0.0000 29.1523 0.0000 0.0000
# 5 0.0000 0.0000 0.0000 0.0000 -9.4319 0.0000
# 6 0.0000 0.0000 0.0000 0.0000 0.000025651.4504
#
#
#
# Elastic Compliance Matrix: (Units=1/GPa)
#
#
# Indices 1 2 3 4 5 6 
#
# 1 0.023151 -0.008168 -0.004220 0.000000 0.000000 0.000000
# 2 -0.008168 0.019949 -0.003156 0.000000 0.000000 0.000000
# 3 -0.004220 -0.003156 0.010739 0.000000 0.000000 0.000000
# 4 0.000000 0.000000 0.000000 0.034303 0.000000 0.000000
# 5 0.000000 0.000000 0.000000 0.000000 -0.106023 0.000000
# 6 0.000000 0.000000 0.000000 0.000000 0.000000 0.000039
#
#
# Mechanical properties :
#
#
# Convention : Reuss Voigt Hill
#
# Bulk Modulus (GPa) = 43.95417 47.39473 45.67445
# Shear Modulus (GPa) = 240.03381 5144.15062 2692.09222
#
# Velocity S-wave (km/s) = 10.72848 49.66597 35.92916
# Velocity P-wave (km/s) = 13.21151 57.54712 41.75054
#
# Compressibility (1/GPa) = 0.02275097
#
# Stress axis : x y z
#
# Youngs Moduli (GPa) = 43.19467 50.12726 93.11508
#
# Poissons Ratio (x) = 0.40944 0.39297
# Poissons Ratio (y) = 0.35282 0.29388
# Poissons Ratio (z) = 0.18229 0.15821
#
# Static dielectric constant tensor:
#      x y z
#    x 1.698570 0.000000 0.000000 
#    y 0.000000 1.872060 0.000000 
#    z 0.000000 0.000000 1.801160 
# 
# From -- ./inp_files/50690.got.cif
#   From: 2010.05.17/outbox.cif.g08.bks.cpg/sg64_26_cif.got.tgz:50690.got - 2010.06.03 16:29:19.
