data_PCOD9481345
_publ_section_title
;
Structure prediction by ZEFSAII (Michael W. Deem and Ramdas Pophale) SiO2 
 PCOD9481345
Probable space group: C M C A
;
_chemical_formula_sum "Si O2"
_cell_formula_units_Z 48
_cell_length_a 8.275989
_cell_length_b 29.098418
_cell_length_c 8.958707
_cell_angle_alpha 90.000000
_cell_angle_beta 90.000000
_cell_angle_gamma 90.000000
_cell_volume 2157.419580
_symmetry_space_group_name_H-M "C M C A"
_symmetry_group_IT_number 64
_symmetry_cell_setting 'orthorhombic'
loop_
_space_group_symop_operation_xyz
x,y,z
-x,1/2-y,1/2+z
x,-y,-z
-x,1/2+y,1/2-z
-x,-y,-z
x,1/2+y,1/2-z
-x,y,z
x,1/2-y,1/2+z
1/2+x,1/2+y,z
1/2-x,-y,1/2+z
1/2+x,1/2-y,-z
1/2-x,y,1/2-z
1/2-x,1/2-y,-z
1/2+x,y,1/2-z
1/2-x,1/2+y,z
1/2+x,-y,1/2+z
loop_
_atom_site_type_symbol
_atom_site_label
_atom_site_fract_x
_atom_site_fract_y
_atom_site_fract_z
Si Si1 0.000000 0.202442 0.290051
Si Si2 0.500000 0.697016 0.931265
Si Si3 0.306919 0.454682 0.419770
Si Si4 0.681434 0.647113 0.523274
O O1 0.145488 0.175371 0.372673
O O2 0.000000 0.254298 0.349979
O O3 0.000000 0.202726 0.112276
O O4 0.666565 0.670531 0.898566
O O5 0.238502 0.500000 0.500000
O O6 0.500000 0.459253 0.417288
O O7 0.250000 0.451249 0.250000
O O8 0.273141 0.406174 0.499873
O O9 0.500000 0.647886 0.596489
#
# Coordination Sequence:
#
# PCOD9481345 Si02
#       4
#     8   8  16  16
#     4  10  24  40  63  94 129 166 221 268 322 388
#     4  12  22  42  65  92 127 174 211 268 332 380
#     4  10  23  44  67  99 132 167 216 270 325 392
#     4   9  23  41  61  93 128 167 213 261 313 389
#
# _framework density 22.248799999999999
#
# number of rings (size 3 to 8) (size 9 to 14) (size 15 to 20)
#    1.000    1.000    0.000    2.000    2.333    6.000 
#    0.000    0.000    0.000    0.000    0.000    0.000 
#    0.000    0.000    0.000    0.000    0.000    0.000 
#
# Total GULP energy -133879.777103 kJ/mol
# GULP energy per Si atom -5578.324046 kJ/mol
# Density = 2.219816 g / cm^3
# Si number density = 22.248800 Si / 1000 Ang^3
#
#
#
# Elastic Constant Matrix: (Units=GPa)
#
#
# Indices 1 2 3 4 5 6 
#
# 1 95.8635 81.8419 48.7319 0.0000 0.0000 0.0000
# 2 81.8419 203.7647 35.7152 0.0000 0.0000 0.0000
# 3 48.7319 35.7152 56.0295 0.0000 0.0000 0.0000
# 4 0.0000 0.0000 0.0000 -95.7107 0.0000 0.0000
# 5 0.0000 0.0000 0.0000 0.0000 38.1406 0.0000
# 6 0.0000 0.0000 0.0000 0.0000 0.0000 -268.1666
#
#
#
# Elastic Compliance Matrix: (Units=1/GPa)
#
#
# Indices 1 2 3 4 5 6 
#
# 1 0.025489 -0.007151 -0.017611 0.000000 0.000000 0.000000
# 2 -0.007151 0.007531 0.001419 0.000000 0.000000 0.000000
# 3 -0.017611 0.001419 0.032260 0.000000 0.000000 0.000000
# 4 0.000000 0.000000 0.000000 -0.010448 0.000000 0.000000
# 5 0.000000 0.000000 0.000000 0.000000 0.026219 0.000000
# 6 0.000000 0.000000 0.000000 0.000000 0.000000 -0.003729
#
#
# Mechanical properties :
#
#
# Convention : Reuss Voigt Hill
#
# Bulk Modulus (GPa) = 53.77857 76.47061 65.12459
# Shear Modulus (GPa) = 38.40086 -52.52276 -7.06095
#
# Velocity S-wave (km/s) = 4.15899 -4.86398 -1.78340
# Velocity P-wave (km/s) = 6.87655 1.70322 5.00938
#
# Compressibility (1/GPa) = 0.01859477
#
# Stress axis : x y z
#
# Youngs Moduli (GPa) = 39.23300 132.78395 30.99777
#
# Poissons Ratio (x) = 0.94951 0.54590
# Poissons Ratio (y) = 0.28055 -0.04398
# Poissons Ratio (z) = 0.69092 -0.18840
#
# Static dielectric constant tensor:
#      x y z
#    x 1.898760 0.000000 0.000000 
#    y 0.000000 1.803280 0.000000 
#    z 0.000000 0.000000 1.812820 
# 
# From -- ./inp_files/3954.got.cif
#   From: 2010.05.17/outbox.cif.g08.bks.cpg/sg64_2_cif.got.tgz:3954.got - 2010.06.03 16:29:19.
