data_PCOD9481712
_publ_section_title
;
Structure prediction by ZEFSAII (Michael W. Deem and Ramdas Pophale) SiO2 
 PCOD9481712
Probable space group: C M C A
;
_chemical_formula_sum "Si O2"
_cell_formula_units_Z 88
_cell_length_a 15.711130
_cell_length_b 19.669838
_cell_length_c 14.092130
_cell_angle_alpha 90.000000
_cell_angle_beta 90.000000
_cell_angle_gamma 90.000000
_cell_volume 4354.966776
_symmetry_space_group_name_H-M "C M C A"
_symmetry_group_IT_number 64
_symmetry_cell_setting 'orthorhombic'
loop_
_space_group_symop_operation_xyz
x,y,z
-x,1/2-y,1/2+z
x,-y,-z
-x,1/2+y,1/2-z
-x,-y,-z
x,1/2+y,1/2-z
-x,y,z
x,1/2-y,1/2+z
1/2+x,1/2+y,z
1/2-x,-y,1/2+z
1/2+x,1/2-y,-z
1/2-x,y,1/2-z
1/2-x,1/2-y,-z
1/2+x,y,1/2-z
1/2-x,1/2+y,z
1/2+x,-y,1/2+z
loop_
_atom_site_type_symbol
_atom_site_label
_atom_site_fract_x
_atom_site_fract_y
_atom_site_fract_z
Si Si1 0.500000 0.874564 0.285849
Si Si2 0.328211 0.846133 0.024583
Si Si3 0.000000 0.722344 0.885937
Si Si4 0.000000 0.511873 0.172931
Si Si5 0.170723 0.189567 0.306490
Si Si6 0.314545 0.155751 0.674314
Si Si7 0.126598 0.000000 0.500000
Si Si8 0.500000 0.640533 0.212776
O O1 0.500000 0.807444 0.220433
O O2 0.408382 0.876305 0.338960
O O3 0.500000 0.935615 0.210951
O O4 0.414324 0.809726 0.065659
O O5 0.243048 0.830716 0.082855
O O6 0.319953 0.822663 0.917150
O O7 0.332121 0.928271 0.027172
O O8 0.000000 0.805523 0.876724
O O9 0.076298 0.520155 0.096917
O O10 0.000000 0.558664 0.267835
O O11 0.250000 0.159164 0.250000
O O12 0.167754 0.269479 0.284860
O O13 0.084017 0.159589 0.269421
O O14 0.250000 0.120169 0.750000
#
# Coordination Sequence:
#
# PCOD9481712 Si02
#       8
#     8  16   8   8  16  16   8   8
#     4  12  21  40  64  94 126 172 221 263 331 395
#     4  12  23  40  66 100 131 173 221 274 329 402
#     4  12  20  38  71  97 125 167 224 276 331 394
#     4  11  21  38  63  95 129 169 217 282 328 384
#     4  11  23  41  64  97 129 167 220 279 334 392
#     4  11  21  39  64  92 131 167 215 271 329 399
#     4  11  20  38  66  97 128 164 228 277 320 391
#     4  12  22  41  64  93 133 168 212 286 339 379
#
# _framework density 20.206811999999999
#
# number of rings (size 3 to 8) (size 9 to 14) (size 15 to 20)
#    0.000    0.545    7.273    2.727    0.000    0.000 
#    3.273    0.909    0.000    0.545    0.000    0.000 
#    0.000    0.000    0.000    0.000    0.000    0.000 
#
# Total GULP energy -244968.439494 kJ/mol
# GULP energy per Si atom -5567.464534 kJ/mol
# Density = 2.016082 g / cm^3
# Si number density = 20.206812 Si / 1000 Ang^3
#
#
#
# Elastic Constant Matrix: (Units=GPa)
#
#
# Indices 1 2 3 4 5 6 
#
# 1 177.5328 5.8680 61.3940 0.0000 0.0000 0.0000
# 2 5.8680 69.1074 -7.0380 0.0000 0.0000 0.0000
# 3 61.3940 -7.0380 73.3390 0.0000 0.0000 0.0000
# 4 0.0000 0.0000 0.0000 31.5482 0.0000 0.0000
# 5 0.0000 0.0000 0.0000 0.0000 38.0406 0.0000
# 6 0.0000 0.0000 0.0000 0.0000 0.0000 -20.5200
#
#
#
# Elastic Compliance Matrix: (Units=1/GPa)
#
#
# Indices 1 2 3 4 5 6 
#
# 1 0.008057 -0.001385 -0.006877 0.000000 0.000000 0.000000
# 2 -0.001385 0.014851 0.002584 0.000000 0.000000 0.000000
# 3 -0.006877 0.002584 0.019641 0.000000 0.000000 0.000000
# 4 0.000000 0.000000 0.000000 0.031698 0.000000 0.000000
# 5 0.000000 0.000000 0.000000 0.000000 0.026288 0.000000
# 6 0.000000 0.000000 0.000000 0.000000 0.000000 -0.048733
#
#
# Mechanical properties :
#
#
# Convention : Reuss Voigt Hill
#
# Bulk Modulus (GPa) = 32.05864 48.93637 40.49751
# Shear Modulus (GPa) = 67.97721 27.13077 47.55399
#
# Velocity S-wave (km/s) = 5.80636 3.66820 4.85641
# Velocity P-wave (km/s) = 7.80073 6.49702 7.17853
#
# Compressibility (1/GPa) = 0.03119284
#
# Stress axis : x y z
#
# Youngs Moduli (GPa) = 124.11748 67.33564 50.91487
#
# Poissons Ratio (x) = 0.09323 0.35017
# Poissons Ratio (y) = 0.17185 -0.13157
# Poissons Ratio (z) = 0.85362 -0.17401
#
# Static dielectric constant tensor:
#      x y z
#    x 1.781300 0.000000 0.000000 
#    y 0.000000 1.761060 0.000000 
#    z 0.000000 0.000000 1.727510 
# 
# From -- ./inp_files/23841.got.cif
#   From: 2010.05.17/outbox.cif.g08.bks.cpg/sg64_12_cif.got.tgz:23841.got - 2010.06.03 16:29:19.
