data_PCOD9481314
_publ_section_title
;
Structure prediction by ZEFSAII (Michael W. Deem and Ramdas Pophale) SiO2 
 PCOD9481314
Probable space group: C M C A
;
_chemical_formula_sum "Si O2"
_cell_formula_units_Z 80
_cell_length_a 20.269370
_cell_length_b 21.970645
_cell_length_c 8.650353
_cell_angle_alpha 90.000000
_cell_angle_beta 90.000000
_cell_angle_gamma 90.000000
_cell_volume 3852.271499
_symmetry_space_group_name_H-M "C M C A"
_symmetry_group_IT_number 64
_symmetry_cell_setting 'orthorhombic'
loop_
_space_group_symop_operation_xyz
x,y,z
-x,1/2-y,1/2+z
x,-y,-z
-x,1/2+y,1/2-z
-x,-y,-z
x,1/2+y,1/2-z
-x,y,z
x,1/2-y,1/2+z
1/2+x,1/2+y,z
1/2-x,-y,1/2+z
1/2+x,1/2-y,-z
1/2-x,y,1/2-z
1/2-x,1/2-y,-z
1/2+x,y,1/2-z
1/2-x,1/2+y,z
1/2+x,-y,1/2+z
loop_
_atom_site_type_symbol
_atom_site_label
_atom_site_fract_x
_atom_site_fract_y
_atom_site_fract_z
Si Si1 0.735210 0.063726 0.567215
Si Si2 0.000000 0.157208 0.371828
Si Si3 0.126457 0.843880 0.152461
Si Si4 0.373635 0.880871 0.007564
Si Si5 0.000000 0.289611 0.524169
Si Si6 0.297601 0.726135 0.369409
O O1 0.750000 0.059413 0.750000
O O2 0.678306 0.114966 0.556051
O O3 0.806375 0.080345 0.492406
O O4 0.711842 0.000000 0.500000
O O5 0.061908 0.112600 0.403803
O O6 0.000000 0.216161 0.491132
O O7 0.000000 0.190203 0.204320
O O8 0.108087 0.878434 0.310853
O O9 0.064537 0.819576 0.055988
O O10 0.167594 0.784373 0.205241
O O11 0.350975 0.815143 0.947591
O O12 0.250000 0.692519 0.250000
O O13 0.250000 0.750000 0.500000
#
# Coordination Sequence:
#
# PCOD9481314 Si02
#       6
#    16   8  16  16   8  16
#     4  10  23  43  67  92 119 157 207 262 311 360
#     4  12  26  38  57  92 129 170 205 245 307 377
#     4  11  22  41  60  89 126 163 203 254 308 365
#     4  11  23  40  61  88 128 163 203 253 309 364
#     4  12  26  38  59  90 131 168 207 247 305 377
#     4  12  21  33  57  91 123 157 199 247 305 367
#
# _framework density 20.766967999999999
#
# number of rings (size 3 to 8) (size 9 to 14) (size 15 to 20)
#    0.000    0.800    6.000    2.400    2.800    2.400 
#    0.000    1.000    0.000    0.000    0.000    0.000 
#    0.000    0.000    0.000    0.000    0.000    0.000 
#
# Total GULP energy -223177.238103 kJ/mol
# GULP energy per Si atom -5579.430953 kJ/mol
# Density = 2.071970 g / cm^3
# Si number density = 20.766968 Si / 1000 Ang^3
#
#
#
# Elastic Constant Matrix: (Units=GPa)
#
#
# Indices 1 2 3 4 5 6 
#
# 1 127.5179 22.8184 28.5632 0.0000 0.0000 0.0000
# 2 22.8184 64.0386 -4.2990 0.0000 0.0000 0.0000
# 3 28.5632 -4.2990 64.4867 0.0000 0.0000 0.0000
# 4 0.0000 0.0000 0.0000 17.1941 0.0000 0.0000
# 5 0.0000 0.0000 0.0000 0.0000 27.0671 0.0000
# 6 0.0000 0.0000 0.0000 0.0000 0.0000 7.4653
#
#
#
# Elastic Compliance Matrix: (Units=1/GPa)
#
#
# Indices 1 2 3 4 5 6 
#
# 1 0.009499 -0.003683 -0.004453 0.000000 0.000000 0.000000
# 2 -0.003683 0.017114 0.002772 0.000000 0.000000 0.000000
# 3 -0.004453 0.002772 0.017664 0.000000 0.000000 0.000000
# 4 0.000000 0.000000 0.000000 0.058159 0.000000 0.000000
# 5 0.000000 0.000000 0.000000 0.000000 0.036945 0.000000
# 6 0.000000 0.000000 0.000000 0.000000 0.000000 0.133953
#
#
# Mechanical properties :
#
#
# Convention : Reuss Voigt Hill
#
# Bulk Modulus (GPa) = 29.80686 38.91205 34.35946
# Shear Modulus (GPa) = 16.93506 24.27601 20.60554
#
# Velocity S-wave (km/s) = 2.85876 3.42273 3.15338
# Velocity P-wave (km/s) = 5.02801 5.86501 5.46256
#
# Compressibility (1/GPa) = 0.03354932
#
# Stress axis : x y z
#
# Youngs Moduli (GPa) = 105.27919 58.43097 56.61182
#
# Poissons Ratio (x) = 0.21523 0.25208
# Poissons Ratio (y) = 0.38779 -0.15695
# Poissons Ratio (z) = 0.46878 -0.16200
#
# Static dielectric constant tensor:
#      x y z
#    x 1.867660 0.000000 0.000000 
#    y 0.000000 1.758580 0.000000 
#    z 0.000000 0.000000 1.841030 
# 
# From -- ./inp_files/8140.got.cif
#   From: 2010.05.17/outbox.cif.g08.bks.cpg/sg64_5_cif.got.tgz:8140.got - 2010.06.03 16:29:19.
