data_PCOD9481122
_publ_section_title
;
Structure prediction by ZEFSAII (Michael W. Deem and Ramdas Pophale) SiO2 
 PCOD9481122
Probable space group: C M C A
;
_chemical_formula_sum "Si O2"
_cell_formula_units_Z 88
_cell_length_a 24.995182
_cell_length_b 11.565925
_cell_length_c 12.570697
_cell_angle_alpha 90.000000
_cell_angle_beta 90.000000
_cell_angle_gamma 90.000000
_cell_volume 3634.092970
_symmetry_space_group_name_H-M "C M C A"
_symmetry_group_IT_number 64
_symmetry_cell_setting 'orthorhombic'
loop_
_space_group_symop_operation_xyz
x,y,z
-x,1/2-y,1/2+z
x,-y,-z
-x,1/2+y,1/2-z
-x,-y,-z
x,1/2+y,1/2-z
-x,y,z
x,1/2-y,1/2+z
1/2+x,1/2+y,z
1/2-x,-y,1/2+z
1/2+x,1/2-y,-z
1/2-x,y,1/2-z
1/2-x,1/2-y,-z
1/2+x,y,1/2-z
1/2-x,1/2+y,z
1/2+x,-y,1/2+z
loop_
_atom_site_type_symbol
_atom_site_label
_atom_site_fract_x
_atom_site_fract_y
_atom_site_fract_z
Si Si1 0.500000 0.143516 0.103351
Si Si2 0.500000 0.614848 0.646003
Si Si3 0.639150 0.949906 0.611754
Si Si4 0.316243 0.500000 0.500000
Si Si5 0.179489 0.621493 0.792960
Si Si6 0.758244 0.678169 0.370035
Si Si7 0.586295 0.775777 0.750005
O O1 0.554702 0.202728 0.142110
O O2 0.500000 0.020888 0.162659
O O3 0.500000 0.131926 0.979269
O O4 0.551295 0.677996 0.693811
O O5 0.684965 0.857836 0.580455
O O6 0.591957 0.888494 0.676647
O O7 0.620131 0.000000 0.500000
O O8 0.670244 0.033411 0.694982
O O9 0.344967 0.440919 0.398549
O O10 0.283510 0.395176 0.559253
O O11 0.232814 0.683018 0.846674
O O12 0.146374 0.729398 0.745077
O O13 0.750000 0.632886 0.250000
#
# Coordination Sequence:
#
# PCOD9481122 Si02
#       7
#     8   8  16   8  16  16  16
#     4  10  22  44  71  97 139 165 220 273 332 427
#     4  10  22  44  73  97 131 175 214 273 342 406
#     4  11  24  43  65  96 137 179 229 282 332 403
#     4  12  24  44  68 101 134 183 234 286 334 402
#     4  11  26  42  69  98 139 180 230 282 340 397
#     4  11  24  42  66  97 135 184 231 283 338 392
#     4  10  24  43  66 105 128 176 219 274 342 400
#
# _framework density 24.215122000000001
#
# number of rings (size 3 to 8) (size 9 to 14) (size 15 to 20)
#    0.000    1.273    2.727    1.636    5.091    5.818 
#    0.000    0.909    0.000    0.000    0.000    0.000 
#    0.000    0.000    0.000    0.000    0.000    0.000 
#
# Total GULP energy -245091.967725 kJ/mol
# GULP energy per Si atom -5570.271994 kJ/mol
# Density = 2.416001 g / cm^3
# Si number density = 24.215122 Si / 1000 Ang^3
#
#
#
# Elastic Constant Matrix: (Units=GPa)
#
#
# Indices 1 2 3 4 5 6 
#
# 1 32.2421 -7.6453 -20.2532 0.0000 0.0000 0.0000
# 2 -7.6453 70.9163 12.8509 0.0000 0.0000 0.0000
# 3 -20.2532 12.8509 101.9889 0.0000 0.0000 0.0000
# 4 0.0000 0.0000 0.0000 30.6305 0.0000 0.0000
# 5 0.0000 0.0000 0.0000 0.0000 13.9749 0.0000
# 6 0.0000 0.0000 0.0000 0.0000 0.0000 43.6445
#
#
#
# Elastic Compliance Matrix: (Units=1/GPa)
#
#
# Indices 1 2 3 4 5 6 
#
# 1 0.035912 0.002640 0.006799 0.000000 0.000000 0.000000
# 2 0.002640 0.014625 -0.001319 0.000000 0.000000 0.000000
# 3 0.006799 -0.001319 0.011321 0.000000 0.000000 0.000000
# 4 0.000000 0.000000 0.000000 0.032647 0.000000 0.000000
# 5 0.000000 0.000000 0.000000 0.000000 0.071557 0.000000
# 6 0.000000 0.000000 0.000000 0.000000 0.000000 0.022912
#
#
# Mechanical properties :
#
#
# Convention : Reuss Voigt Hill
#
# Bulk Modulus (GPa) = 12.80447 19.45023 16.12735
# Shear Modulus (GPa) = 25.15506 32.32965 28.74236
#
# Velocity S-wave (km/s) = 3.22656 3.65787 3.44896
# Velocity P-wave (km/s) = 4.37952 5.08819 4.74710
#
# Compressibility (1/GPa) = 0.07809776
#
# Stress axis : x y z
#
# Youngs Moduli (GPa) = 27.84579 68.37781 88.32929
#
# Poissons Ratio (x) = -0.18049 -0.60054
# Poissons Ratio (y) = -0.07350 0.11647
# Poissons Ratio (z) = -0.18932 0.09016
#
# Static dielectric constant tensor:
#      x y z
#    x 1.996500 0.000000 0.000000 
#    y 0.000000 2.082580 0.000000 
#    z 0.000000 0.000000 1.938340 
# 
# From -- ./inp_files/19734.got.cif
#   From: 2010.05.17/outbox.cif.g08.bks.cpg/sg64_10_cif.got.tgz:19734.got - 2010.06.03 16:29:19.
