data_PCOD9481882
_publ_section_title
;
Structure prediction by ZEFSAII (Michael W. Deem and Ramdas Pophale) SiO2 
 PCOD9481882
Probable space group: C M C A
;
_chemical_formula_sum "Si O2"
_cell_formula_units_Z 104
_cell_length_a 15.103007
_cell_length_b 21.129850
_cell_length_c 16.788311
_cell_angle_alpha 90.000000
_cell_angle_beta 90.000000
_cell_angle_gamma 90.000000
_cell_volume 5357.557534
_symmetry_space_group_name_H-M "C M C A"
_symmetry_group_IT_number 64
_symmetry_cell_setting 'orthorhombic'
loop_
_space_group_symop_operation_xyz
x,y,z
-x,1/2-y,1/2+z
x,-y,-z
-x,1/2+y,1/2-z
-x,-y,-z
x,1/2+y,1/2-z
-x,y,z
x,1/2-y,1/2+z
1/2+x,1/2+y,z
1/2-x,-y,1/2+z
1/2+x,1/2-y,-z
1/2-x,y,1/2-z
1/2-x,1/2-y,-z
1/2+x,y,1/2-z
1/2-x,1/2+y,z
1/2+x,-y,1/2+z
loop_
_atom_site_type_symbol
_atom_site_label
_atom_site_fract_x
_atom_site_fract_y
_atom_site_fract_z
Si Si1 0.000000 0.105694 0.999914
Si Si2 0.849370 0.809316 0.936535
Si Si3 0.646238 0.975127 0.763879
Si Si4 0.895043 0.045224 0.572036
Si Si5 0.855086 0.325571 0.746536
Si Si6 0.342881 0.831402 0.994635
Si Si7 0.000000 0.310971 0.869460
Si Si8 0.000000 0.003117 0.865400
O O1 0.084905 0.150528 0.008464
O O2 0.000000 0.055960 0.073360
O O3 0.000000 0.065359 0.919578
O O4 0.879705 0.816767 0.845729
O O5 0.750000 0.834866 0.948010
O O6 0.849337 0.736558 0.962909
O O7 0.750000 0.984401 0.750000
O O8 0.621376 0.010458 0.844902
O O9 0.585398 0.999050 0.691561
O O10 0.630174 0.899626 0.768876
O O11 0.849064 0.112418 0.558449
O O12 0.000000 0.054864 0.564136
O O13 0.864956 0.000000 0.500000
O O14 0.750000 0.310763 0.750000
O O15 0.920924 0.289912 0.805658
O O16 0.422808 0.834765 0.932518
#
# Coordination Sequence:
#
# PCOD9481882 Si02
#       8
#     8  16  16  16  16  16   8   8
#     4  11  24  41  68  92 135 181 220 271 339 392
#     4  11  24  47  66  96 134 178 228 269 329 401
#     4  11  24  41  64  96 134 172 219 280 331 392
#     4  11  24  40  67  98 133 171 215 277 344 394
#     4  11  22  39  68  99 127 173 222 278 326 389
#     4  11  25  43  69  98 134 174 224 275 328 412
#     4  12  21  39  68  98 129 163 225 270 328 383
#     4  11  23  42  62 100 132 173 227 270 328 414
#
# _framework density 19.411829999999998
#
# number of rings (size 3 to 8) (size 9 to 14) (size 15 to 20)
#    0.000    0.923    4.615    2.308    6.462    0.000 
#    0.000    3.846    0.000    0.000    0.000    0.000 
#    0.000    0.000    0.000    0.000    0.000    0.000 
#
# Total GULP energy -289611.620640 kJ/mol
# GULP energy per Si atom -5569.454243 kJ/mol
# Density = 1.936765 g / cm^3
# Si number density = 19.411830 Si / 1000 Ang^3
#
#
#
# Elastic Constant Matrix: (Units=GPa)
#
#
# Indices 1 2 3 4 5 6 
#
# 1 109.2140 21.0390 19.4615 0.0000 0.0000 0.0000
# 2 21.0390 64.8441 19.2969 0.0000 0.0000 0.0000
# 3 19.4615 19.2969 89.1899 0.0000 0.0000 0.0000
# 4 0.0000 0.0000 0.0000 11.0718 0.0000 0.0000
# 5 0.0000 0.0000 0.0000 0.0000 2.9900 0.0000
# 6 0.0000 0.0000 0.0000 0.0000 0.0000 -2.0523
#
#
#
# Elastic Compliance Matrix: (Units=1/GPa)
#
#
# Indices 1 2 3 4 5 6 
#
# 1 0.009970 -0.002766 -0.001577 0.000000 0.000000 0.000000
# 2 -0.002766 0.017250 -0.003129 0.000000 0.000000 0.000000
# 3 -0.001577 -0.003129 0.012233 0.000000 0.000000 0.000000
# 4 0.000000 0.000000 0.000000 0.090320 0.000000 0.000000
# 5 0.000000 0.000000 0.000000 0.000000 0.334452 0.000000
# 6 0.000000 0.000000 0.000000 0.000000 0.000000 -0.487251
#
#
# Mechanical properties :
#
#
# Convention : Reuss Voigt Hill
#
# Bulk Modulus (GPa) = 40.79900 42.53807 41.66854
# Shear Modulus (GPa) = 57663.38487 15.96525 28839.67506
#
# Velocity S-wave (km/s) = 172.53918 2.87095 122.02051
# Velocity P-wave (km/s) = 199.28394 5.74028 140.97347
#
# Compressibility (1/GPa) = 0.02451040
#
# Stress axis : x y z
#
# Youngs Moduli (GPa) = 100.29960 57.97112 81.74543
#
# Poissons Ratio (x) = 0.16032 0.12893
# Poissons Ratio (y) = 0.27738 0.25576
# Poissons Ratio (z) = 0.15819 0.18138
#
# Static dielectric constant tensor:
#      x y z
#    x 1.695370 0.000000 0.000000 
#    y 0.000000 1.685620 0.000000 
#    z 0.000000 0.000000 1.253900 
# 
# From -- ./inp_files/32415.got.cif
#   From: 2010.05.17/outbox.cif.g08.bks.cpg/sg64_17_cif.got.tgz:32415.got - 2010.06.03 16:29:19.
