data_PCOD9481805
_publ_section_title
;
Structure prediction by ZEFSAII (Michael W. Deem and Ramdas Pophale) SiO2 
 PCOD9481805
Probable space group: C M C A
;
_chemical_formula_sum "Si O2"
_cell_formula_units_Z 80
_cell_length_a 15.380688
_cell_length_b 24.561900
_cell_length_c 9.868621
_cell_angle_alpha 90.000000
_cell_angle_beta 90.000000
_cell_angle_gamma 90.000000
_cell_volume 3728.156989
_symmetry_space_group_name_H-M "C M C A"
_symmetry_group_IT_number 64
_symmetry_cell_setting 'orthorhombic'
loop_
_space_group_symop_operation_xyz
x,y,z
-x,1/2-y,1/2+z
x,-y,-z
-x,1/2+y,1/2-z
-x,-y,-z
x,1/2+y,1/2-z
-x,y,z
x,1/2-y,1/2+z
1/2+x,1/2+y,z
1/2-x,-y,1/2+z
1/2+x,1/2-y,-z
1/2-x,y,1/2-z
1/2-x,1/2-y,-z
1/2+x,y,1/2-z
1/2-x,1/2+y,z
1/2+x,-y,1/2+z
loop_
_atom_site_type_symbol
_atom_site_label
_atom_site_fract_x
_atom_site_fract_y
_atom_site_fract_z
Si Si1 0.601478 0.961100 0.751984
Si Si2 0.139242 0.136248 0.457298
Si Si3 0.167321 0.613107 0.465928
Si Si4 0.500000 0.277687 0.641196
Si Si5 0.000000 0.186442 0.069009
Si Si6 0.897211 0.585280 0.757829
O O1 0.500000 0.960805 0.708860
O O2 0.611926 0.917043 0.870809
O O3 0.659246 0.940801 0.626221
O O4 0.622127 0.022446 0.795105
O O5 0.242039 0.142418 0.438098
O O6 0.120955 0.123135 0.614045
O O7 0.082862 0.186740 0.406149
O O8 0.085437 0.649566 0.423227
O O9 0.156311 0.599997 0.623999
O O10 0.500000 0.273797 0.802553
O O11 0.500000 0.220221 0.568373
O O12 0.000000 0.588873 0.723743
#
# Coordination Sequence:
#
# PCOD9481805 Si02
#       6
#    16  16  16   8   8  16
#     4  11  21  41  67  99 139 186 221 262 322 392
#     4  12  24  43  69  99 137 176 221 272 329 394
#     4  12  24  43  69  99 137 176 221 272 329 394
#     4  12  28  50  73  97 128 170 221 283 343 390
#     4  12  28  50  73  97 128 170 221 283 343 390
#     4  11  23  39  67 101 143 182 221 262 318 392
#
# _framework density 21.458321999999999
#
# number of rings (size 3 to 8) (size 9 to 14) (size 15 to 20)
#    0.000    0.400    6.000    2.400    2.800    8.800 
#    0.000    0.000    0.000    0.000    0.000    0.000 
#    0.000    0.000    0.000    0.000    0.000    0.000 
#
# Total GULP energy -224007.973249 kJ/mol
# GULP energy per Si atom -5600.199331 kJ/mol
# Density = 2.140948 g / cm^3
# Si number density = 21.458322 Si / 1000 Ang^3
#
#
#
# Elastic Constant Matrix: (Units=GPa)
#
#
# Indices 1 2 3 4 5 6 
#
# 1 128.0135 4.9592 -28.3662 0.0000 0.0000 0.0000
# 2 4.9592 31.1280 -19.1789 0.0000 0.0000 0.0000
# 3 -28.3662 -19.1789 74.3527 0.0000 0.0000 0.0000
# 4 0.0000 0.0000 0.0000 37.6641 0.0000 0.0000
# 5 0.0000 0.0000 0.0000 0.0000 9.8356 0.0000
# 6 0.0000 0.0000 0.0000 0.0000 0.0000 -1.0085
#
#
#
# Elastic Compliance Matrix: (Units=1/GPa)
#
#
# Indices 1 2 3 4 5 6 
#
# 1 0.008549 0.000770 0.003460 0.000000 0.000000 0.000000
# 2 0.000770 0.038265 0.010164 0.000000 0.000000 0.000000
# 3 0.003460 0.010164 0.017391 0.000000 0.000000 0.000000
# 4 0.000000 0.000000 0.000000 0.026550 0.000000 0.000000
# 5 0.000000 0.000000 0.000000 0.000000 0.101671 0.000000
# 6 0.000000 0.000000 0.000000 0.000000 0.000000 -0.991543
#
#
# Mechanical properties :
#
#
# Convention : Reuss Voigt Hill
#
# Bulk Modulus (GPa) = 10.75359 16.48028 13.61694
# Shear Modulus (GPa) = -6.27426 27.70358 10.71466
#
# Velocity S-wave (km/s) = -1.71181 3.59700 2.23698
# Velocity P-wave (km/s) = 1.05604 4.99480 3.60994
#
# Compressibility (1/GPa) = 0.09299216
#
# Stress axis : x y z
#
# Youngs Moduli (GPa) = 116.97920 26.13347 57.50055
#
# Poissons Ratio (x) = -0.02012 -0.19895
# Poissons Ratio (y) = -0.09005 -0.58443
# Poissons Ratio (z) = -0.40474 -0.26562
#
# Static dielectric constant tensor:
#      x y z
#    x 1.778880 0.000000 0.000000 
#    y 0.000000 1.728750 0.000000 
#    z 0.000000 0.000000 1.766650 
# 
# From -- ./inp_files/7186.got.cif
#   From: 2010.05.17/outbox.cif.g08.bks.cpg/sg64_4_cif.got.tgz:7186.got - 2010.06.03 16:29:19.
