data_PCOD9481433
_publ_section_title
;
Structure prediction by ZEFSAII (Michael W. Deem and Ramdas Pophale) SiO2 
 PCOD9481433
Probable space group: C M C A
;
_chemical_formula_sum "Si O2"
_cell_formula_units_Z 68
_cell_length_a 24.554868
_cell_length_b 14.279547
_cell_length_c 9.242791
_cell_angle_alpha 90.000000
_cell_angle_beta 90.000000
_cell_angle_gamma 90.000000
_cell_volume 3240.821914
_symmetry_space_group_name_H-M "C M C A"
_symmetry_group_IT_number 64
_symmetry_cell_setting 'orthorhombic'
loop_
_space_group_symop_operation_xyz
x,y,z
-x,1/2-y,1/2+z
x,-y,-z
-x,1/2+y,1/2-z
-x,-y,-z
x,1/2+y,1/2-z
-x,y,z
x,1/2-y,1/2+z
1/2+x,1/2+y,z
1/2-x,-y,1/2+z
1/2+x,1/2-y,-z
1/2-x,y,1/2-z
1/2-x,1/2-y,-z
1/2+x,y,1/2-z
1/2-x,1/2+y,z
1/2+x,-y,1/2+z
loop_
_atom_site_type_symbol
_atom_site_label
_atom_site_fract_x
_atom_site_fract_y
_atom_site_fract_z
Si Si1 0.438573 0.731899 0.961004
Si Si2 0.608688 0.861578 0.722830
Si Si3 0.193518 0.998853 0.671972
Si Si4 0.419280 0.939427 0.251095
Si Si5 0.000000 0.000000 0.500000
O O1 0.500000 0.744500 0.017393
O O2 0.420841 0.818139 0.861616
O O3 0.437583 0.642954 0.853869
O O4 0.397732 0.710247 0.091990
O O5 0.667602 0.900308 0.770262
O O6 0.577394 0.956962 0.677025
O O7 0.250000 0.018247 0.750000
O O8 0.199876 0.000000 0.500000
O O9 0.144921 0.069860 0.714834
O O10 0.453025 0.952479 0.105375
#
# Coordination Sequence:
#
# PCOD9481433 Si02
#       5
#    16  16  16  16   4
#     4  12  25  40  66 101 143 188 223 285 346 429
#     4  10  27  42  64 101 140 177 238 280 346 415
#     4  10  24  47  74  99 132 182 238 293 350 412
#     4  10  24  41  68  96 141 178 235 284 354 412
#     4  12  20  40  70 100 136 182 230 282 368 416
#
# _framework density 20.982330999999999
#
# number of rings (size 3 to 8) (size 9 to 14) (size 15 to 20)
#    1.412    0.000    2.353    1.412   13.176    0.941 
#    0.000    2.353    0.000    0.000    0.000    0.000 
#    0.000    0.000    0.000    0.000    0.000    0.000 
#
# Total GULP energy -189269.123717 kJ/mol
# GULP energy per Si atom -5566.738933 kJ/mol
# Density = 2.093457 g / cm^3
# Si number density = 20.982331 Si / 1000 Ang^3
#
#
#
# Elastic Constant Matrix: (Units=GPa)
#
#
# Indices 1 2 3 4 5 6 
#
# 1 156.9003 11.1565 41.1605 0.0000 0.0000 0.0000
# 2 11.1565 64.5911 12.5357 0.0000 0.0000 0.0000
# 3 41.1605 12.5357 103.6513 0.0000 0.0000 0.0000
# 4 0.0000 0.0000 0.0000 43.3158 0.0000 0.0000
# 5 0.0000 0.0000 0.0000 0.0000 62.9747 0.0000
# 6 0.0000 0.0000 0.0000 0.0000 0.0000 26.9895
#
#
#
# Elastic Compliance Matrix: (Units=1/GPa)
#
#
# Indices 1 2 3 4 5 6 
#
# 1 0.007145 -0.000700 -0.002753 0.000000 0.000000 0.000000
# 2 -0.000700 0.015923 -0.001648 0.000000 0.000000 0.000000
# 3 -0.002753 -0.001648 0.010940 0.000000 0.000000 0.000000
# 4 0.000000 0.000000 0.000000 0.023086 0.000000 0.000000
# 5 0.000000 0.000000 0.000000 0.000000 0.015879 0.000000
# 6 0.000000 0.000000 0.000000 0.000000 0.000000 0.037051
#
#
# Mechanical properties :
#
#
# Convention : Reuss Voigt Hill
#
# Bulk Modulus (GPa) = 42.00401 50.53866 46.27134
# Shear Modulus (GPa) = 39.01307 44.00866 41.51086
#
# Velocity S-wave (km/s) = 4.31667 4.58472 4.45272
# Velocity P-wave (km/s) = 6.70128 7.22252 6.96678
#
# Compressibility (1/GPa) = 0.02380725
#
# Stress axis : x y z
#
# Youngs Moduli (GPa) = 139.95003 62.80338 91.40616
#
# Poissons Ratio (x) = 0.04396 0.25163
# Poissons Ratio (y) = 0.09795 0.15062
# Poissons Ratio (z) = 0.38526 0.10349
#
# Static dielectric constant tensor:
#      x y z
#    x 1.710340 0.000000 0.000000 
#    y 0.000000 1.819150 0.000000 
#    z 0.000000 0.000000 1.746400 
# 
# From -- ./inp_files/7858.got.cif
#   From: 2010.05.17/outbox.cif.g08.bks.cpg/sg64_4_cif.got.tgz:7858.got - 2010.06.03 16:29:19.
