data_PCOD9481747
_publ_section_title
;
Structure prediction by ZEFSAII (Michael W. Deem and Ramdas Pophale) SiO2 
 PCOD9481747
Probable space group: C M C A
;
_chemical_formula_sum "Si O2"
_cell_formula_units_Z 112
_cell_length_a 15.286688
_cell_length_b 33.203592
_cell_length_c 10.638491
_cell_angle_alpha 90.000000
_cell_angle_beta 90.000000
_cell_angle_gamma 90.000000
_cell_volume 5399.810275
_symmetry_space_group_name_H-M "C M C A"
_symmetry_group_IT_number 64
_symmetry_cell_setting 'orthorhombic'
loop_
_space_group_symop_operation_xyz
x,y,z
-x,1/2-y,1/2+z
x,-y,-z
-x,1/2+y,1/2-z
-x,-y,-z
x,1/2+y,1/2-z
-x,y,z
x,1/2-y,1/2+z
1/2+x,1/2+y,z
1/2-x,-y,1/2+z
1/2+x,1/2-y,-z
1/2-x,y,1/2-z
1/2-x,1/2-y,-z
1/2+x,y,1/2-z
1/2-x,1/2+y,z
1/2+x,-y,1/2+z
loop_
_atom_site_type_symbol
_atom_site_label
_atom_site_fract_x
_atom_site_fract_y
_atom_site_fract_z
Si Si1 0.841111 0.057333 0.546073
Si Si2 0.348001 0.040436 0.451630
Si Si3 0.900357 0.011490 0.299381
Si Si4 0.396774 0.124609 0.360692
Si Si5 0.606399 0.225794 0.123171
Si Si6 0.892780 0.286505 0.591278
Si Si7 0.394190 0.633929 0.422562
O O1 0.741080 0.044509 0.528854
O O2 0.879705 0.034743 0.666555
O O3 0.853769 0.104675 0.526930
O O4 0.889646 0.037053 0.426561
O O5 0.385697 0.085262 0.445045
O O6 0.395579 0.000000 0.500000
O O7 0.337849 0.029044 0.305916
O O8 0.000000 0.016527 0.256209
O O9 0.500000 0.130598 0.343588
O O10 0.363198 0.166852 0.415624
O O11 0.363824 0.119660 0.217040
O O12 0.500000 0.227437 0.125744
O O13 0.633871 0.228926 0.269428
O O14 0.628485 0.181042 0.073425
O O15 0.637455 0.259360 0.025022
O O16 0.000000 0.285650 0.588556
O O17 0.500000 0.630207 0.431483
#
# Coordination Sequence:
#
# PCOD9481747 Si02
#       7
#    16  16  16  16  16  16  16
#     4  11  21  34  56  77 105 140 182 229 275 320
#     4  12  24  36  54  78 110 144 186 229 279 335
#     4  11  22  37  56  78 105 142 184 232 276 321
#     4   9  18  31  49  72 103 139 176 220 267 323
#     4   8  14  25  46  74 101 131 169 220 271 322
#     4   8  14  27  46  71 100 131 170 216 271 322
#     4   9  16  29  51  77 102 133 180 226 264 316
#
# _framework density 20.741468000000001
#
# number of rings (size 3 to 8) (size 9 to 14) (size 15 to 20)
#    0.000    2.286    2.857    4.286    0.000    1.143 
#    0.000    1.429    0.000    4.286    0.000    0.000 
#    0.000    0.000    0.000    0.000    0.000    0.000 
#
# Total GULP energy -312203.955706 kJ/mol
# GULP energy per Si atom -5575.070638 kJ/mol
# Density = 2.069426 g / cm^3
# Si number density = 20.741468 Si / 1000 Ang^3
#
#
#
# Elastic Constant Matrix: (Units=GPa)
#
#
# Indices 1 2 3 4 5 6 
#
# 1 31.1056 -6.4157 -0.5982 0.0000 0.0000 0.0000
# 2 -6.4157 155.1231 58.4917 0.0000 0.0000 0.0000
# 3 -0.5982 58.4917 50.3502 0.0000 0.0000 0.0000
# 4 0.0000 0.0000 0.0000 41.2237 0.0000 0.0000
# 5 0.0000 0.0000 0.0000 0.0000 10.7146 0.0000
# 6 0.0000 0.0000 0.0000 0.0000 0.0000 -25.6177
#
#
#
# Elastic Compliance Matrix: (Units=1/GPa)
#
#
# Indices 1 2 3 4 5 6 
#
# 1 0.032549 0.002136 -0.002095 0.000000 0.000000 0.000000
# 2 0.002136 0.011612 -0.013464 0.000000 0.000000 0.000000
# 3 -0.002095 -0.013464 0.035477 0.000000 0.000000 0.000000
# 4 0.000000 0.000000 0.000000 0.024258 0.000000 0.000000
# 5 0.000000 0.000000 0.000000 0.000000 0.093331 0.000000
# 6 0.000000 0.000000 0.000000 0.000000 0.000000 -0.039036
#
#
# Mechanical properties :
#
#
# Convention : Reuss Voigt Hill
#
# Bulk Modulus (GPa) = 18.94216 37.72606 28.33411
# Shear Modulus (GPa) = 24.67521 17.60420 21.13971
#
# Velocity S-wave (km/s) = 3.45288 2.91648 3.19595
# Velocity P-wave (km/s) = 5.00488 5.43777 5.22581
#
# Compressibility (1/GPa) = 0.05279230
#
# Stress axis : x y z
#
# Youngs Moduli (GPa) = 30.72311 86.12121 28.18748
#
# Poissons Ratio (x) = -0.18396 0.05904
# Poissons Ratio (y) = -0.06562 0.37951
# Poissons Ratio (z) = 0.06436 1.15951
#
# Static dielectric constant tensor:
#      x y z
#    x 1.780750 0.000000 0.000000 
#    y 0.000000 1.790510 0.000000 
#    z 0.000000 0.000000 1.753080 
# 
# From -- ./inp_files/14996.got.cif
#   From: 2010.05.17/outbox.cif.g08.bks.cpg/sg64_8_cif.got.tgz:14996.got - 2010.06.03 16:29:19.
