data_PCOD9481296
_publ_section_title
;
Structure prediction by ZEFSAII (Michael W. Deem and Ramdas Pophale) SiO2 
 PCOD9481296
Probable space group: C M C A
;
_chemical_formula_sum "Si O2"
_cell_formula_units_Z 72
_cell_length_a 17.680230
_cell_length_b 8.385266
_cell_length_c 21.070021
_cell_angle_alpha 90.000000
_cell_angle_beta 90.000000
_cell_angle_gamma 90.000000
_cell_volume 3123.702915
_symmetry_space_group_name_H-M "C M C A"
_symmetry_group_IT_number 64
_symmetry_cell_setting 'orthorhombic'
loop_
_space_group_symop_operation_xyz
x,y,z
-x,1/2-y,1/2+z
x,-y,-z
-x,1/2+y,1/2-z
-x,-y,-z
x,1/2+y,1/2-z
-x,y,z
x,1/2-y,1/2+z
1/2+x,1/2+y,z
1/2-x,-y,1/2+z
1/2+x,1/2-y,-z
1/2-x,y,1/2-z
1/2-x,1/2-y,-z
1/2+x,y,1/2-z
1/2-x,1/2+y,z
1/2+x,-y,1/2+z
loop_
_atom_site_type_symbol
_atom_site_label
_atom_site_fract_x
_atom_site_fract_y
_atom_site_fract_z
Si Si1 0.086301 0.692299 0.185942
Si Si2 0.500000 0.700437 0.572797
Si Si3 0.331577 0.770929 0.586306
Si Si4 0.737880 0.000000 0.000000
Si Si5 0.178648 0.612186 0.788158
Si Si6 0.000000 0.687814 0.074540
O O1 0.133128 0.531684 0.181526
O O2 0.125843 0.804635 0.236100
O O3 0.071955 0.752459 0.114164
O O4 0.000000 0.659675 0.207984
O O5 0.421868 0.774639 0.597708
O O6 0.500000 0.506736 0.581049
O O7 0.500000 0.731128 0.497644
O O8 0.313989 0.628102 0.536443
O O9 0.297480 0.729681 0.655115
O O10 0.291307 0.919415 0.553081
O O11 0.250000 0.549536 0.750000
#
# Coordination Sequence:
#
# PCOD9481296 Si02
#       6
#    16   8  16   8  16   8
#     4  10  23  43  64  94 130 172 218 265 323 389
#     4  11  20  40  73  97 125 172 226 274 318 395
#     4  11  25  45  69  98 131 174 224 271 332 395
#     4  10  26  46  66  96 138 174 214 280 334 396
#     4  12  26  41  66  98 133 172 218 272 328 391
#     4   9  20  37  71  93 127 170 220 258 330 390
#
# _framework density 23.049567
#
# number of rings (size 3 to 8) (size 9 to 14) (size 15 to 20)
#    0.667    0.667    2.222    2.667    7.778    2.222 
#    0.000    0.000    0.000    0.000    0.000    0.000 
#    0.000    0.000    0.000    0.000    0.000    0.000 
#
# Total GULP energy -201344.389312 kJ/mol
# GULP energy per Si atom -5592.899703 kJ/mol
# Density = 2.299711 g / cm^3
# Si number density = 23.049567 Si / 1000 Ang^3
#
#
#
# Elastic Constant Matrix: (Units=GPa)
#
#
# Indices 1 2 3 4 5 6 
#
# 1 100.3455 11.0438 -2.4133 0.0000 0.0000 0.0000
# 2 11.0438 20.9666 -9.7899 0.0000 0.0000 0.0000
# 3 -2.4133 -9.7899 81.2766 0.0000 0.0000 0.0000
# 4 0.0000 0.0000 0.0000 16.8860 0.0000 0.0000
# 5 0.0000 0.0000 0.0000 0.0000 -53.9195 0.0000
# 6 0.0000 0.0000 0.0000 0.0000 0.0000 28.1037
#
#
#
# Elastic Compliance Matrix: (Units=1/GPa)
#
#
# Indices 1 2 3 4 5 6 
#
# 1 0.010590 -0.005755 -0.000379 0.000000 0.000000 0.000000
# 2 -0.005755 0.053664 0.006293 0.000000 0.000000 0.000000
# 3 -0.000379 0.006293 0.013050 0.000000 0.000000 0.000000
# 4 0.000000 0.000000 0.000000 0.059221 0.000000 0.000000
# 5 0.000000 0.000000 0.000000 0.000000 -0.018546 0.000000
# 6 0.000000 0.000000 0.000000 0.000000 0.000000 0.035582
#
#
# Mechanical properties :
#
#
# Convention : Reuss Voigt Hill
#
# Bulk Modulus (GPa) = 12.88265 22.25222 17.56743
# Shear Modulus (GPa) = 27.91466 11.79725 19.85595
#
# Velocity S-wave (km/s) = 3.48382 2.26480 2.93822
# Velocity P-wave (km/s) = 4.66732 4.06376 4.37596
#
# Compressibility (1/GPa) = 0.07762380
#
# Stress axis : x y z
#
# Youngs Moduli (GPa) = 94.43028 18.63430 76.62578
#
# Poissons Ratio (x) = 0.10724 0.02902
# Poissons Ratio (y) = 0.54343 -0.48221
# Poissons Ratio (z) = 0.03577 -0.11727
#
# Static dielectric constant tensor:
#      x y z
#    x 1.863110 0.000000 0.000000 
#    y 0.000000 1.877100 0.000000 
#    z 0.000000 0.000000 1.896640 
# 
# From -- ./inp_files/40727.got.cif
#   From: 2010.05.17/outbox.cif.g08.bks.cpg/sg64_21_cif.got.tgz:40727.got - 2010.06.03 16:29:19.
