data_PCOD9481946
_publ_section_title
;
Structure prediction by ZEFSAII (Michael W. Deem and Ramdas Pophale) SiO2 
 PCOD9481946
Probable space group: C M C A
;
_chemical_formula_sum "Si O2"
_cell_formula_units_Z 68
_cell_length_a 14.177014
_cell_length_b 9.650077
_cell_length_c 19.809618
_cell_angle_alpha 90.000000
_cell_angle_beta 90.000000
_cell_angle_gamma 90.000000
_cell_volume 2710.139511
_symmetry_space_group_name_H-M "C M C A"
_symmetry_group_IT_number 64
_symmetry_cell_setting 'orthorhombic'
loop_
_space_group_symop_operation_xyz
x,y,z
-x,1/2-y,1/2+z
x,-y,-z
-x,1/2+y,1/2-z
-x,-y,-z
x,1/2+y,1/2-z
-x,y,z
x,1/2-y,1/2+z
1/2+x,1/2+y,z
1/2-x,-y,1/2+z
1/2+x,1/2-y,-z
1/2-x,y,1/2-z
1/2-x,1/2-y,-z
1/2+x,y,1/2-z
1/2-x,1/2+y,z
1/2+x,-y,1/2+z
loop_
_atom_site_type_symbol
_atom_site_label
_atom_site_fract_x
_atom_site_fract_y
_atom_site_fract_z
Si Si1 0.500000 0.806939 0.066183
Si Si2 0.000000 0.000000 0.000000
Si Si3 0.000000 0.378939 0.211444
Si Si4 0.342057 0.500000 0.500000
Si Si5 0.291294 0.202831 0.107699
Si Si6 0.293646 0.946186 0.182177
Si Si7 0.500000 0.811117 0.370918
O O1 0.500000 0.664484 0.024777
O O2 0.500000 0.774730 0.146694
O O3 0.412585 0.905857 0.045056
O O4 0.000000 0.945683 0.080468
O O5 0.096055 0.459456 0.196752
O O6 0.000000 0.335048 0.289628
O O7 0.279106 0.611117 0.459348
O O8 0.239753 0.345218 0.122517
O O9 0.403200 0.230686 0.112366
O O10 0.256560 0.097748 0.165287
O O11 0.250000 0.887645 0.250000
#
# Coordination Sequence:
#
# PCOD9481946 Si02
#       7
#     8   4   8   8  16  16   8
#     4  11  23  47  80 119 156 217 276 327 413 496
#     4  12  26  46  84 134 160 206 296 348 384 516
#     4  12  26  51  79 117 158 223 252 344 420 489
#     4  11  22  50  79 100 166 220 260 329 421 488
#     4  12  26  50  79 117 158 216 270 333 406 501
#     4  12  27  49  79 120 161 205 280 336 414 499
#     4  12  26  50  84 117 168 211 268 343 424 480
#
# _framework density 25.090959000000002
#
# number of rings (size 3 to 8) (size 9 to 14) (size 15 to 20)
#    0.000    0.235    7.059    2.118    0.000    4.706 
#    0.000    1.176    0.000    0.000    0.000    0.000 
#    0.000    0.000    0.000    0.000    0.000    0.000 
#
# Total GULP energy -189595.205291 kJ/mol
# GULP energy per Si atom -5576.329567 kJ/mol
# Density = 2.503385 g / cm^3
# Si number density = 25.090959 Si / 1000 Ang^3
#
#
#
# Elastic Constant Matrix: (Units=GPa)
#
#
# Indices 1 2 3 4 5 6 
#
# 1 85.0752 26.9607 12.8086 0.0000 0.0000 0.0000
# 2 26.9607 162.9125 42.4504 0.0000 0.0000 0.0000
# 3 12.8086 42.4504 172.5392 0.0000 0.0000 0.0000
# 4 0.0000 0.0000 0.0000 43.1124 0.0000 0.0000
# 5 0.0000 0.0000 0.0000 0.0000 25.1101 0.0000
# 6 0.0000 0.0000 0.0000 0.0000 0.0000 7.5278
#
#
#
# Elastic Compliance Matrix: (Units=1/GPa)
#
#
# Indices 1 2 3 4 5 6 
#
# 1 0.012437 -0.001942 -0.000445 0.000000 0.000000 0.000000
# 2 -0.001942 0.006862 -0.001544 0.000000 0.000000 0.000000
# 3 -0.000445 -0.001544 0.006209 0.000000 0.000000 0.000000
# 4 0.000000 0.000000 0.000000 0.023195 0.000000 0.000000
# 5 0.000000 0.000000 0.000000 0.000000 0.039825 0.000000
# 6 0.000000 0.000000 0.000000 0.000000 0.000000 0.132840
#
#
# Mechanical properties :
#
#
# Convention : Reuss Voigt Hill
#
# Bulk Modulus (GPa) = 56.67563 64.99627 60.83595
# Shear Modulus (GPa) = 21.26641 37.70387 29.48514
#
# Velocity S-wave (km/s) = 2.91447 3.88066 3.43174
# Velocity P-wave (km/s) = 5.82774 6.78527 6.32465
#
# Compressibility (1/GPa) = 0.01764427
#
# Stress axis : x y z
#
# Youngs Moduli (GPa) = 80.40632 145.72963 161.06287
#
# Poissons Ratio (x) = 0.28303 0.07174
# Poissons Ratio (y) = 0.15616 0.24870
# Poissons Ratio (z) = 0.03582 0.22502
#
# Static dielectric constant tensor:
#      x y z
#    x 1.957520 0.000000 0.000000 
#    y 0.000000 1.892950 0.000000 
#    z 0.000000 0.000000 2.086170 
# 
# From -- ./inp_files/39893.got.cif
#   From: 2010.05.17/outbox.cif.g08.bks.cpg/sg64_20_cif.got.tgz:39893.got - 2010.06.03 16:29:19.
