data_PCOD9481755
_publ_section_title
;
Structure prediction by ZEFSAII (Michael W. Deem and Ramdas Pophale) SiO2 
 PCOD9481755
Probable space group: C M C A
;
_chemical_formula_sum "Si O2"
_cell_formula_units_Z 88
_cell_length_a 12.643854
_cell_length_b 13.821545
_cell_length_c 21.705075
_cell_angle_alpha 90.000000
_cell_angle_beta 90.000000
_cell_angle_gamma 90.000000
_cell_volume 3793.126750
_symmetry_space_group_name_H-M "C M C A"
_symmetry_group_IT_number 64
_symmetry_cell_setting 'orthorhombic'
loop_
_space_group_symop_operation_xyz
x,y,z
-x,1/2-y,1/2+z
x,-y,-z
-x,1/2+y,1/2-z
-x,-y,-z
x,1/2+y,1/2-z
-x,y,z
x,1/2-y,1/2+z
1/2+x,1/2+y,z
1/2-x,-y,1/2+z
1/2+x,1/2-y,-z
1/2-x,y,1/2-z
1/2-x,1/2-y,-z
1/2+x,y,1/2-z
1/2-x,1/2+y,z
1/2+x,-y,1/2+z
loop_
_atom_site_type_symbol
_atom_site_label
_atom_site_fract_x
_atom_site_fract_y
_atom_site_fract_z
Si Si1 0.679346 0.602573 0.611101
Si Si2 0.000000 0.630044 0.795325
Si Si3 0.000000 0.511740 0.681588
Si Si4 0.500000 0.676103 0.264238
Si Si5 0.213096 0.762557 0.681398
Si Si6 0.379076 0.238606 0.482570
Si Si7 0.318511 0.929304 0.602733
O O1 0.601959 0.589728 0.669566
O O2 0.772916 0.672150 0.636515
O O3 0.617016 0.669759 0.563389
O O4 0.723241 0.501692 0.585690
O O5 0.000000 0.606139 0.723140
O O6 0.000000 0.746864 0.792930
O O7 0.900765 0.495503 0.638503
O O8 0.000000 0.427771 0.733206
O O9 0.599480 0.693880 0.307139
O O10 0.250000 0.734685 0.750000
O O11 0.281078 0.848289 0.651542
O O12 0.500000 0.240493 0.513803
O O13 0.250000 0.250000 0.500000
O O14 0.371730 0.132918 0.451035
#
# Coordination Sequence:
#
# PCOD9481755 Si02
#       7
#    16   8   8   8  16  16  16
#     4  11  24  42  64 100 140 182 235 299 353 441
#     4  12  22  34  64  92 141 193 231 277 354 431
#     4  12  22  34  64  92 141 193 231 277 354 431
#     4  12  20  34  52  86 128 196 236 278 318 420
#     4  11  21  35  58  86 138 185 236 270 345 424
#     4  11  25  54  80 102 136 187 245 317 379 425
#     4  11  24  42  64 100 140 182 235 299 353 441
#
# _framework density 23.199859
#
# number of rings (size 3 to 8) (size 9 to 14) (size 15 to 20)
#    0.000    0.727    5.455    3.273    0.000    0.727 
#    9.818    1.818    0.000    0.000    0.000    0.000 
#    0.000    0.000    0.000    0.000    0.000    0.000 
#
# Total GULP energy -245329.619593 kJ/mol
# GULP energy per Si atom -5575.673173 kJ/mol
# Density = 2.314705 g / cm^3
# Si number density = 23.199859 Si / 1000 Ang^3
#
#
#
# Elastic Constant Matrix: (Units=GPa)
#
#
# Indices 1 2 3 4 5 6 
#
# 1 108.2437 -1.3341 3.8946 0.0000 0.0000 0.0000
# 2 -1.3341 100.2495 -3.6104 0.0000 0.0000 0.0000
# 3 3.8946 -3.6104 11.0400 0.0000 0.0000 0.0000
# 4 0.0000 0.0000 0.0000 20.6535 0.0000 0.0000
# 5 0.0000 0.0000 0.0000 0.0000 33.3288 0.0000
# 6 0.0000 0.0000 0.0000 0.0000 0.0000 171.8192
#
#
#
# Elastic Compliance Matrix: (Units=1/GPa)
#
#
# Indices 1 2 3 4 5 6 
#
# 1 0.009357 0.000006 -0.003299 0.000000 0.000000 0.000000
# 2 0.000006 0.010094 0.003299 0.000000 0.000000 0.000000
# 3 -0.003299 0.003299 0.092823 0.000000 0.000000 0.000000
# 4 0.000000 0.000000 0.000000 0.048418 0.000000 0.000000
# 5 0.000000 0.000000 0.000000 0.000000 0.030004 0.000000
# 6 0.000000 0.000000 0.000000 0.000000 0.000000 0.005820
#
#
# Mechanical properties :
#
#
# Convention : Reuss Voigt Hill
#
# Bulk Modulus (GPa) = 8.90590 24.15926 16.53258
# Shear Modulus (GPa) = 21.37363 59.86583 40.61973
#
# Velocity S-wave (km/s) = 3.03856 5.08531 4.18887
# Velocity P-wave (km/s) = 4.01964 6.70199 5.52604
#
# Compressibility (1/GPa) = 0.11228513
#
# Stress axis : x y z
#
# Youngs Moduli (GPa) = 106.86970 99.06873 10.77323
#
# Poissons Ratio (x) = -0.00057 0.03554
# Poissons Ratio (y) = -0.00061 -0.03554
# Poissons Ratio (z) = 0.35258 -0.32683
#
# Static dielectric constant tensor:
#      x y z
#    x 1.859660 0.000000 0.000000 
#    y 0.000000 1.820040 0.000000 
#    z 0.000000 0.000000 1.900940 
# 
# From -- ./inp_files/44121.got.cif
#   From: 2010.05.17/outbox.cif.g08.bks.cpg/sg64_23_cif.got.tgz:44121.got - 2010.06.03 16:29:19.
