data_PCOD9481899
_publ_section_title
;
Structure prediction by ZEFSAII (Michael W. Deem and Ramdas Pophale) SiO2 
 PCOD9481899
Probable space group: C M C A
;
_chemical_formula_sum "Si O2"
_cell_formula_units_Z 88
_cell_length_a 17.251302
_cell_length_b 20.227259
_cell_length_c 13.123665
_cell_angle_alpha 90.000000
_cell_angle_beta 90.000000
_cell_angle_gamma 90.000000
_cell_volume 4579.457673
_symmetry_space_group_name_H-M "C M C A"
_symmetry_group_IT_number 64
_symmetry_cell_setting 'orthorhombic'
loop_
_space_group_symop_operation_xyz
x,y,z
-x,1/2-y,1/2+z
x,-y,-z
-x,1/2+y,1/2-z
-x,-y,-z
x,1/2+y,1/2-z
-x,y,z
x,1/2-y,1/2+z
1/2+x,1/2+y,z
1/2-x,-y,1/2+z
1/2+x,1/2-y,-z
1/2-x,y,1/2-z
1/2-x,1/2-y,-z
1/2+x,y,1/2-z
1/2-x,1/2+y,z
1/2+x,-y,1/2+z
loop_
_atom_site_type_symbol
_atom_site_label
_atom_site_fract_x
_atom_site_fract_y
_atom_site_fract_z
Si Si1 0.792366 0.728554 0.145546
Si Si2 0.669221 0.162627 0.501244
Si Si3 0.915553 0.112396 0.358421
Si Si4 0.731746 0.547036 0.865732
Si Si5 0.587596 0.554048 0.132590
Si Si6 0.133981 0.000000 0.500000
O O1 0.750000 0.749470 0.250000
O O2 0.845448 0.784419 0.091377
O O3 0.846416 0.664248 0.151740
O O4 0.720272 0.704586 0.077023
O O5 0.719889 0.108499 0.560297
O O6 0.608067 0.118520 0.437077
O O7 0.912804 0.072790 0.251870
O O8 0.910096 0.064105 0.456988
O O9 0.000000 0.145835 0.362716
O O10 0.750000 0.565514 0.750000
O O11 0.656359 0.499818 0.878073
O O12 0.808434 0.512322 0.906245
O O13 0.500000 0.530885 0.108027
#
# Coordination Sequence:
#
# PCOD9481899 Si02
#       6
#    16  16  16  16  16   8
#     4  11  22  41  64  88 119 158 215 251 292 363
#     4  11  23  38  63  90 118 162 201 255 302 358
#     4  11  23  40  64  91 124 163 202 252 308 367
#     4  12  22  37  63  93 122 158 204 256 306 366
#     4  11  23  39  62  92 125 161 201 251 316 374
#     4  12  21  38  65  90 118 158 204 252 305 358
#
# _framework density 19.216249999999999
#
# number of rings (size 3 to 8) (size 9 to 14) (size 15 to 20)
#    0.000    0.727    7.273    0.818    0.000    2.182 
#    0.000    0.000    0.000    0.000    0.000    0.000 
#    0.000    0.000    0.000    0.000    0.000    0.000 
#
# Total GULP energy -245081.017875 kJ/mol
# GULP energy per Si atom -5570.023134 kJ/mol
# Density = 1.917251 g / cm^3
# Si number density = 19.216250 Si / 1000 Ang^3
#
#
#
# Elastic Constant Matrix: (Units=GPa)
#
#
# Indices 1 2 3 4 5 6 
#
# 1 60.1843 4.9126 23.4668 0.0000 0.0000 0.0000
# 2 4.9126 50.3402 9.5842 0.0000 0.0000 0.0000
# 3 23.4668 9.5842 93.6377 0.0000 0.0000 0.0000
# 4 0.0000 0.0000 0.0000 20.0222 0.0000 0.0000
# 5 0.0000 0.0000 0.0000 0.0000 5.0620 0.0000
# 6 0.0000 0.0000 0.0000 0.0000 0.0000 7.8866
#
#
#
# Elastic Compliance Matrix: (Units=1/GPa)
#
#
# Indices 1 2 3 4 5 6 
#
# 1 0.018459 -0.000939 -0.004530 0.000000 0.000000 0.000000
# 2 -0.000939 0.020307 -0.001843 0.000000 0.000000 0.000000
# 3 -0.004530 -0.001843 0.012003 0.000000 0.000000 0.000000
# 4 0.000000 0.000000 0.000000 0.049945 0.000000 0.000000
# 5 0.000000 0.000000 0.000000 0.000000 0.197549 0.000000
# 6 0.000000 0.000000 0.000000 0.000000 0.000000 0.126798
#
#
# Mechanical properties :
#
#
# Convention : Reuss Voigt Hill
#
# Bulk Modulus (GPa) = 27.66610 31.12105 29.39357
# Shear Modulus (GPa) = 11.06849 17.67406 14.37127
#
# Velocity S-wave (km/s) = 2.40260 3.03602 2.73769
# Velocity P-wave (km/s) = 4.70373 5.34043 5.03216
#
# Compressibility (1/GPa) = 0.03614532
#
# Stress axis : x y z
#
# Youngs Moduli (GPa) = 54.17546 49.24314 83.31003
#
# Poissons Ratio (x) = 0.04623 0.37738
# Poissons Ratio (y) = 0.05087 0.15356
# Poissons Ratio (z) = 0.24541 0.09077
#
# Static dielectric constant tensor:
#      x y z
#    x 1.686020 0.000000 0.000000 
#    y 0.000000 1.720930 0.000000 
#    z 0.000000 0.000000 2.069960 
# 
# From -- ./inp_files/16026.got.cif
#   From: 2010.05.17/outbox.cif.g08.bks.cpg/sg64_9_cif.got.tgz:16026.got - 2010.06.03 16:29:19.
