data_PCOD9481626
_publ_section_title
;
Structure prediction by ZEFSAII (Michael W. Deem and Ramdas Pophale) SiO2 
 PCOD9481626
Probable space group: C M C A
;
_chemical_formula_sum "Si O2"
_cell_formula_units_Z 88
_cell_length_a 23.344416
_cell_length_b 9.067003
_cell_length_c 16.483366
_cell_angle_alpha 90.000000
_cell_angle_beta 90.000000
_cell_angle_gamma 90.000000
_cell_volume 3488.933366
_symmetry_space_group_name_H-M "C M C A"
_symmetry_group_IT_number 64
_symmetry_cell_setting 'orthorhombic'
loop_
_space_group_symop_operation_xyz
x,y,z
-x,1/2-y,1/2+z
x,-y,-z
-x,1/2+y,1/2-z
-x,-y,-z
x,1/2+y,1/2-z
-x,y,z
x,1/2-y,1/2+z
1/2+x,1/2+y,z
1/2-x,-y,1/2+z
1/2+x,1/2-y,-z
1/2-x,y,1/2-z
1/2-x,1/2-y,-z
1/2+x,y,1/2-z
1/2-x,1/2+y,z
1/2+x,-y,1/2+z
loop_
_atom_site_type_symbol
_atom_site_label
_atom_site_fract_x
_atom_site_fract_y
_atom_site_fract_z
Si Si1 0.412671 0.414072 0.225670
Si Si2 0.725422 0.368586 0.059982
Si Si3 0.000000 0.714811 0.028830
Si Si4 0.500000 0.102484 0.868607
Si Si5 0.500000 0.554866 0.109791
Si Si6 0.701564 0.503550 0.306881
Si Si7 0.117629 0.787657 0.596902
O O1 0.446222 0.398783 0.309660
O O2 0.444912 0.532933 0.168231
O O3 0.347389 0.444417 0.247534
O O4 0.417349 0.260308 0.177088
O O5 0.762632 0.385897 0.141024
O O6 0.658660 0.348483 0.076981
O O7 0.732188 0.500000 0.000000
O O8 0.750000 0.250000 0.000000
O O9 0.000000 0.546965 0.080467
O O10 0.072103 0.695698 0.026026
O O11 0.000000 0.897416 0.058864
O O12 0.500000 0.263717 0.920171
O O13 0.750000 0.580151 0.250000
O O14 0.664538 0.594118 0.373428
#
# Coordination Sequence:
#
# PCOD9481626 Si02
#       7
#    16  16   8   8   8  16  16
#     4  11  23  42  74 105 144 200 250 318 378 463
#     4  12  28  50  74 111 156 206 257 320 392 468
#     4  10  26  46  72 111 151 198 248 321 386 477
#     4   9  22  42  70 103 147 189 246 307 378 458
#     4   9  22  44  67 106 148 191 250 306 384 469
#     4  12  28  48  75 112 152 202 265 320 382 467
#     4  12  27  47  78 108 153 201 261 316 395 452
#
# _framework density 25.222608000000001
#
# number of rings (size 3 to 8) (size 9 to 14) (size 15 to 20)
#    0.545    0.364    3.636    2.182    7.636    2.182 
#    0.000    0.909    0.000    0.000    0.000    0.000 
#    0.000    0.000    0.000    0.000    0.000    0.000 
#
# Total GULP energy -245003.916438 kJ/mol
# GULP energy per Si atom -5568.270828 kJ/mol
# Density = 2.516520 g / cm^3
# Si number density = 25.222608 Si / 1000 Ang^3
#
#
#
# Elastic Constant Matrix: (Units=GPa)
#
#
# Indices 1 2 3 4 5 6 
#
# 1 194.8172 40.6006 67.2408 0.0000 0.0000 0.0000
# 2 40.6006 125.9216 59.5598 0.0000 0.0000 0.0000
# 3 67.2408 59.5598 125.5376 0.0000 0.0000 0.0000
# 4 0.0000 0.0000 0.0000 39.6114 0.0000 0.0000
# 5 0.0000 0.0000 0.0000 0.0000 45.6317 0.0000
# 6 0.0000 0.0000 0.0000 0.0000 0.0000 33.6853
#
#
#
# Elastic Compliance Matrix: (Units=1/GPa)
#
#
# Indices 1 2 3 4 5 6 
#
# 1 0.006328 -0.000564 -0.003122 0.000000 0.000000 0.000000
# 2 -0.000564 0.010289 -0.004580 0.000000 0.000000 0.000000
# 3 -0.003122 -0.004580 0.011811 0.000000 0.000000 0.000000
# 4 0.000000 0.000000 0.000000 0.025245 0.000000 0.000000
# 5 0.000000 0.000000 0.000000 0.000000 0.021915 0.000000
# 6 0.000000 0.000000 0.000000 0.000000 0.000000 0.029687
#
#
# Mechanical properties :
#
#
# Convention : Reuss Voigt Hill
#
# Bulk Modulus (GPa) = 84.05254 86.78652 85.41953
# Shear Modulus (GPa) = 39.75471 42.37736 41.06604
#
# Velocity S-wave (km/s) = 3.97439 4.10339 4.03940
# Velocity P-wave (km/s) = 7.37954 7.54542 7.46294
#
# Compressibility (1/GPa) = 0.01189732
#
# Stress axis : x y z
#
# Youngs Moduli (GPa) = 158.02673 97.18763 84.66833
#
# Poissons Ratio (x) = 0.05478 0.26434
# Poissons Ratio (y) = 0.08907 0.38776
# Poissons Ratio (z) = 0.49336 0.44510
#
# Static dielectric constant tensor:
#      x y z
#    x 1.969500 0.000000 0.000000 
#    y 0.000000 2.105290 0.000000 
#    z 0.000000 0.000000 1.736630 
# 
# From -- ./inp_files/41393.got.cif
#   From: 2010.05.17/outbox.cif.g08.bks.cpg/sg64_21_cif.got.tgz:41393.got - 2010.06.03 16:29:19.
