data_PCOD9481570
_publ_section_title
;
Structure prediction by ZEFSAII (Michael W. Deem and Ramdas Pophale) SiO2 
 PCOD9481570
Probable space group: C M C A
;
_chemical_formula_sum "Si O2"
_cell_formula_units_Z 48
_cell_length_a 10.650243
_cell_length_b 22.199290
_cell_length_c 8.732787
_cell_angle_alpha 90.000000
_cell_angle_beta 90.000000
_cell_angle_gamma 90.000000
_cell_volume 2064.673906
_symmetry_space_group_name_H-M "C M C A"
_symmetry_group_IT_number 64
_symmetry_cell_setting 'orthorhombic'
loop_
_space_group_symop_operation_xyz
x,y,z
-x,1/2-y,1/2+z
x,-y,-z
-x,1/2+y,1/2-z
-x,-y,-z
x,1/2+y,1/2-z
-x,y,z
x,1/2-y,1/2+z
1/2+x,1/2+y,z
1/2-x,-y,1/2+z
1/2+x,1/2-y,-z
1/2-x,y,1/2-z
1/2-x,1/2-y,-z
1/2+x,y,1/2-z
1/2-x,1/2+y,z
1/2+x,-y,1/2+z
loop_
_atom_site_type_symbol
_atom_site_label
_atom_site_fract_x
_atom_site_fract_y
_atom_site_fract_z
Si Si1 0.000000 0.660561 0.093356
Si Si2 0.706480 0.442389 0.580624
Si Si3 0.500000 0.220387 0.425976
Si Si4 0.361366 0.366478 0.130886
O O1 0.117996 0.615929 0.089018
O O2 0.000000 0.699065 0.251276
O O3 0.000000 0.709238 0.957812
O O4 0.646212 0.500000 0.500000
O O5 0.750000 0.458104 0.750000
O O6 0.822752 0.422353 0.475040
O O7 0.616680 0.189782 0.516272
O O8 0.500000 0.377835 0.199783
O O9 0.250000 0.356407 0.250000
#
# Coordination Sequence:
#
# PCOD9481570 Si02
#       4
#     8  16   8  16
#     4  12  27  50  78 120 158 208 257 320 401 467
#     4  12  26  50  77 112 159 211 262 323 385 470
#     4  10  26  48  76 114 159 205 259 329 378 480
#     4  10  24  48  74 117 152 206 258 320 389 462
#
# _framework density 23.248225000000001
#
# number of rings (size 3 to 8) (size 9 to 14) (size 15 to 20)
#    1.000    0.000    3.333    1.500    7.000    3.333 
#    6.000    0.000    0.000    0.000    0.000    0.000 
#    0.000    0.000    0.000    0.000    0.000    0.000 
#
# Total GULP energy -134280.231573 kJ/mol
# GULP energy per Si atom -5595.009649 kJ/mol
# Density = 2.319531 g / cm^3
# Si number density = 23.248225 Si / 1000 Ang^3
#
#
#
# Elastic Constant Matrix: (Units=GPa)
#
#
# Indices 1 2 3 4 5 6 
#
# 1 139.2433 43.6313 70.8690 0.0000 0.0000 0.0000
# 2 43.6313 154.1978 97.9517 0.0000 0.0000 0.0000
# 3 70.8690 97.9517 148.6700 0.0000 0.0000 0.0000
# 4 0.0000 0.0000 0.0000 57.3205 0.0000 0.0000
# 5 0.0000 0.0000 0.0000 0.0000 1.4891 0.0000
# 6 0.0000 0.0000 0.0000 0.0000 0.0000 8.0164
#
#
#
# Elastic Compliance Matrix: (Units=1/GPa)
#
#
# Indices 1 2 3 4 5 6 
#
# 1 0.009492 0.000324 -0.004738 0.000000 0.000000 0.000000
# 2 0.000324 0.011164 -0.007510 0.000000 0.000000 0.000000
# 3 -0.004738 -0.007510 0.013933 0.000000 0.000000 0.000000
# 4 0.000000 0.000000 0.000000 0.017446 0.000000 0.000000
# 5 0.000000 0.000000 0.000000 0.000000 0.671558 0.000000
# 6 0.000000 0.000000 0.000000 0.000000 0.000000 0.124744
#
#
# Mechanical properties :
#
#
# Convention : Reuss Voigt Hill
#
# Bulk Modulus (GPa) = 93.10446 96.33501 94.71973
# Shear Modulus (GPa) = 5.70930 28.67582 17.19256
#
# Velocity S-wave (km/s) = 1.56880 3.51588 2.72236
# Velocity P-wave (km/s) = 6.58911 7.61639 7.12130
#
# Compressibility (1/GPa) = 0.01074062
#
# Stress axis : x y z
#
# Youngs Moduli (GPa) = 105.35654 89.57314 71.77311
#
# Poissons Ratio (x) = -0.02902 0.34006
# Poissons Ratio (y) = -0.03414 0.53901
# Poissons Ratio (z) = 0.49918 0.67269
#
# Static dielectric constant tensor:
#      x y z
#    x 1.896730 0.000000 0.000000 
#    y 0.000000 1.868790 0.000000 
#    z 0.000000 0.000000 1.867300 
# 
# From -- ./inp_files/4353.got.cif
#   From: 2010.05.17/outbox.cif.g08.bks.cpg/sg64_3_cif.got.tgz:4353.got - 2010.06.03 16:29:19.
