data_PCOD9481352
_publ_section_title
;
Structure prediction by ZEFSAII (Michael W. Deem and Ramdas Pophale) SiO2 
 PCOD9481352
Probable space group: C M C A
;
_chemical_formula_sum "Si O2"
_cell_formula_units_Z 92
_cell_length_a 22.726246
_cell_length_b 23.468379
_cell_length_c 8.270123
_cell_angle_alpha 90.000000
_cell_angle_beta 90.000000
_cell_angle_gamma 90.000000
_cell_volume 4410.854839
_symmetry_space_group_name_H-M "C M C A"
_symmetry_group_IT_number 64
_symmetry_cell_setting 'orthorhombic'
loop_
_space_group_symop_operation_xyz
x,y,z
-x,1/2-y,1/2+z
x,-y,-z
-x,1/2+y,1/2-z
-x,-y,-z
x,1/2+y,1/2-z
-x,y,z
x,1/2-y,1/2+z
1/2+x,1/2+y,z
1/2-x,-y,1/2+z
1/2+x,1/2-y,-z
1/2-x,y,1/2-z
1/2-x,1/2-y,-z
1/2+x,y,1/2-z
1/2-x,1/2+y,z
1/2+x,-y,1/2+z
loop_
_atom_site_type_symbol
_atom_site_label
_atom_site_fract_x
_atom_site_fract_y
_atom_site_fract_z
Si Si1 0.730146 0.592413 0.435922
Si Si2 0.432003 0.830013 0.707270
Si Si3 0.801380 0.703999 0.866536
Si Si4 0.886652 0.048575 0.305657
Si Si5 0.879948 0.775688 0.094795
Si Si6 0.500000 0.000000 0.000000
Si Si7 0.324928 0.500000 0.000000
O O1 0.750000 0.602848 0.250000
O O2 0.720045 0.650582 0.531219
O O3 0.668333 0.558692 0.426371
O O4 0.781209 0.554048 0.514120
O O5 0.500000 0.839204 0.741853
O O6 0.397481 0.888110 0.734899
O O7 0.408388 0.780361 0.825249
O O8 0.422805 0.808865 0.523998
O O9 0.750000 0.725594 0.750000
O O10 0.853956 0.688008 0.742301
O O11 0.827648 0.752996 0.979426
O O12 0.864039 0.009050 0.159238
O O13 0.946885 0.027301 0.384839
#
# Coordination Sequence:
#
# PCOD9481352 Si02
#       7
#    16  16  16  16  16   4   8
#     4  10  23  44  70  98 131 180 230 285 341 411
#     4  11  22  46  70  97 134 180 224 287 339 415
#     4  11  23  37  64  97 135 174 218 273 341 413
#     4  11  24  47  70  99 139 176 237 283 354 398
#     4  10  24  42  64  98 138 176 222 277 340 415
#     4  12  26  46  72 100 134 182 220 302 332 406
#     4  10  25  47  70  93 139 182 226 296 338 420
#
# _framework density 20.857634999999998
#
# number of rings (size 3 to 8) (size 9 to 14) (size 15 to 20)
#    0.000    1.391    2.609    1.565    4.870    4.522 
#    0.000    0.000    0.000    0.000    0.000    0.000 
#    0.000    0.000    0.000    0.000    0.000    0.000 
#
# Total GULP energy -256654.628350 kJ/mol
# GULP energy per Si atom -5579.448442 kJ/mol
# Density = 2.081016 g / cm^3
# Si number density = 20.857635 Si / 1000 Ang^3
#
#
#
# Elastic Constant Matrix: (Units=GPa)
#
#
# Indices 1 2 3 4 5 6 
#
# 1 134.3453 34.0843 38.2391 0.0000 0.0000 0.0000
# 2 34.0843 83.2743 46.1189 0.0000 0.0000 0.0000
# 3 38.2391 46.1189 71.7722 0.0000 0.0000 0.0000
# 4 0.0000 0.0000 0.0000 28.8787 0.0000 0.0000
# 5 0.0000 0.0000 0.0000 0.0000 37.3835 0.0000
# 6 0.0000 0.0000 0.0000 0.0000 0.0000 22.9058
#
#
#
# Elastic Compliance Matrix: (Units=1/GPa)
#
#
# Indices 1 2 3 4 5 6 
#
# 1 0.008906 -0.001579 -0.003730 0.000000 0.000000 0.000000
# 2 -0.001579 0.018923 -0.011318 0.000000 0.000000 0.000000
# 3 -0.003730 -0.011318 0.023193 0.000000 0.000000 0.000000
# 4 0.000000 0.000000 0.000000 0.034628 0.000000 0.000000
# 5 0.000000 0.000000 0.000000 0.000000 0.026750 0.000000
# 6 0.000000 0.000000 0.000000 0.000000 0.000000 0.043657
#
#
# Mechanical properties :
#
#
# Convention : Reuss Voigt Hill
#
# Bulk Modulus (GPa) = 56.28406 58.47517 57.37962
# Shear Modulus (GPa) = 25.61037 29.23024 27.42031
#
# Velocity S-wave (km/s) = 3.50789 3.74761 3.62973
# Velocity P-wave (km/s) = 6.59170 6.84269 6.71837
#
# Compressibility (1/GPa) = 0.01776702
#
# Stress axis : x y z
#
# Youngs Moduli (GPa) = 112.28497 52.84554 43.11671
#
# Poissons Ratio (x) = 0.08347 0.16083
# Poissons Ratio (y) = 0.17735 0.48799
# Poissons Ratio (z) = 0.41882 0.59810
#
# Static dielectric constant tensor:
#      x y z
#    x 1.765900 0.000000 0.000000 
#    y 0.000000 1.736230 0.000000 
#    z 0.000000 0.000000 1.761420 
# 
# From -- ./inp_files/8298.got.cif
#   From: 2010.05.17/outbox.cif.g08.bks.cpg/sg64_5_cif.got.tgz:8298.got - 2010.06.03 16:29:19.
