data_PCOD9481102
_publ_section_title
;
Structure prediction by ZEFSAII (Michael W. Deem and Ramdas Pophale) SiO2 
 PCOD9481102
Probable space group: C M C A
;
_chemical_formula_sum "Si O2"
_cell_formula_units_Z 96
_cell_length_a 26.418190
_cell_length_b 10.064010
_cell_length_c 20.849960
_cell_angle_alpha 90.000000
_cell_angle_beta 90.000000
_cell_angle_gamma 90.000000
_cell_volume 5543.439921
_symmetry_space_group_name_H-M "C M C A"
_symmetry_group_IT_number 64
_symmetry_cell_setting 'orthorhombic'
loop_
_space_group_symop_operation_xyz
x,y,z
-x,1/2-y,1/2+z
x,-y,-z
-x,1/2+y,1/2-z
-x,-y,-z
x,1/2+y,1/2-z
-x,y,z
x,1/2-y,1/2+z
1/2+x,1/2+y,z
1/2-x,-y,1/2+z
1/2+x,1/2-y,-z
1/2-x,y,1/2-z
1/2-x,1/2-y,-z
1/2+x,y,1/2-z
1/2-x,1/2+y,z
1/2+x,-y,1/2+z
loop_
_atom_site_type_symbol
_atom_site_label
_atom_site_fract_x
_atom_site_fract_y
_atom_site_fract_z
Si Si1 0.119468 0.353760 0.012426
Si Si2 0.355756 0.532975 0.156671
Si Si3 0.298050 0.296468 0.384974
Si Si4 0.303192 0.029827 0.214187
Si Si5 0.559995 0.899097 0.558617
Si Si6 0.684281 0.252896 0.106085
O O1 0.163139 0.364001 0.066130
O O2 0.079309 0.245645 0.036600
O O3 0.098020 0.500000 0.000000
O O4 0.148283 0.298060 0.950126
O O5 0.319736 0.651201 0.131000
O O6 0.347826 0.531262 0.233171
O O7 0.409446 0.560999 0.122833
O O8 0.336726 0.391189 0.132450
O O9 0.297192 0.388900 0.321919
O O10 0.242240 0.281132 0.413896
O O11 0.250000 0.055730 0.250000
O O12 0.312514 0.143227 0.161868
O O13 0.500000 0.902383 0.568345
O O14 0.572841 0.000000 0.500000
#
# Coordination Sequence:
#
# PCOD9481102 Si02
#       6
#    16  16  16  16  16  16
#     4  11  23  39  58  91 118 155 202 254 305 351
#     4  11  23  35  60  88 117 155 207 238 292 355
#     4  11  22  36  55  83 127 167 199 232 286 355
#     4  12  22  36  56  83 127 171 197 230 283 363
#     4  10  22  44  68  86 108 149 203 260 307 348
#     4  12  21  37  55  86 127 166 194 242 287 358
#
# _framework density 17.317765999999999
#
# number of rings (size 3 to 8) (size 9 to 14) (size 15 to 20)
#    0.000    0.833    6.667    1.500    0.000    0.333 
#    0.000    0.000    0.000   10.000    0.000    0.000 
#    0.000    0.000    0.000    0.000    0.000    0.000 
#
# Total GULP energy -268096.209677 kJ/mol
# GULP energy per Si atom -5585.337702 kJ/mol
# Density = 1.727835 g / cm^3
# Si number density = 17.317766 Si / 1000 Ang^3
#
#
#
# Elastic Constant Matrix: (Units=GPa)
#
#
# Indices 1 2 3 4 5 6 
#
# 1 79.5052 24.7407 28.8170 0.0000 0.0000 0.0000
# 2 24.7407 98.9132 12.0934 0.0000 0.0000 0.0000
# 3 28.8170 12.0934 73.5425 0.0000 0.0000 0.0000
# 4 0.0000 0.0000 0.0000 28.7493 0.0000 0.0000
# 5 0.0000 0.0000 0.0000 0.0000 24.1691 0.0000
# 6 0.0000 0.0000 0.0000 0.0000 0.0000 15.2118
#
#
#
# Elastic Compliance Matrix: (Units=1/GPa)
#
#
# Indices 1 2 3 4 5 6 
#
# 1 0.015604 -0.003220 -0.005585 0.000000 0.000000 0.000000
# 2 -0.003220 0.010982 -0.000544 0.000000 0.000000 0.000000
# 3 -0.005585 -0.000544 0.015875 0.000000 0.000000 0.000000
# 4 0.000000 0.000000 0.000000 0.034784 0.000000 0.000000
# 5 0.000000 0.000000 0.000000 0.000000 0.041375 0.000000
# 6 0.000000 0.000000 0.000000 0.000000 0.000000 0.065739
#
#
# Mechanical properties :
#
#
# Convention : Reuss Voigt Hill
#
# Bulk Modulus (GPa) = 42.08176 42.58478 42.33327
# Shear Modulus (GPa) = 23.69919 26.04669 24.87294
#
# Velocity S-wave (km/s) = 3.70332 3.88241 3.79392
# Velocity P-wave (km/s) = 6.52983 6.68888 6.60983
#
# Compressibility (1/GPa) = 0.02376326
#
# Stress axis : x y z
#
# Youngs Moduli (GPa) = 64.08576 91.05946 62.99054
#
# Poissons Ratio (x) = 0.29323 0.35179
# Poissons Ratio (y) = 0.20637 0.03427
# Poissons Ratio (z) = 0.35791 0.04954
#
# Static dielectric constant tensor:
#      x y z
#    x 1.558630 0.000000 0.000000 
#    y 0.000000 1.589790 0.000000 
#    z 0.000000 0.000000 1.601840 
# 
# From -- ./inp_files/41782.got.cif
#   From: 2010.05.17/outbox.cif.g08.bks.cpg/sg64_21_cif.got.tgz:41782.got - 2010.06.03 16:29:19.
