data_PCOD9481601
_publ_section_title
;
Structure prediction by ZEFSAII (Michael W. Deem and Ramdas Pophale) SiO2 
 PCOD9481601
Probable space group: C M C A
;
_chemical_formula_sum "Si O2"
_cell_formula_units_Z 64
_cell_length_a 17.035469
_cell_length_b 14.709407
_cell_length_c 11.396408
_cell_angle_alpha 90.000000
_cell_angle_beta 90.000000
_cell_angle_gamma 90.000000
_cell_volume 2855.730686
_symmetry_space_group_name_H-M "C M C A"
_symmetry_group_IT_number 64
_symmetry_cell_setting 'orthorhombic'
loop_
_space_group_symop_operation_xyz
x,y,z
-x,1/2-y,1/2+z
x,-y,-z
-x,1/2+y,1/2-z
-x,-y,-z
x,1/2+y,1/2-z
-x,y,z
x,1/2-y,1/2+z
1/2+x,1/2+y,z
1/2-x,-y,1/2+z
1/2+x,1/2-y,-z
1/2-x,y,1/2-z
1/2-x,1/2-y,-z
1/2+x,y,1/2-z
1/2-x,1/2+y,z
1/2+x,-y,1/2+z
loop_
_atom_site_type_symbol
_atom_site_label
_atom_site_fract_x
_atom_site_fract_y
_atom_site_fract_z
Si Si1 0.311912 0.102772 0.389146
Si Si2 0.000000 0.142860 0.449432
Si Si3 0.146754 0.090825 0.860281
Si Si4 0.159811 0.705424 0.152062
Si Si5 0.500000 0.546338 0.695294
O O1 0.369194 0.104562 0.500373
O O2 0.231059 0.155722 0.415484
O O3 0.345605 0.151956 0.275033
O O4 0.296481 0.996711 0.362023
O O5 0.921351 0.196059 0.416286
O O6 0.000000 0.115452 0.585642
O O7 0.000000 0.051741 0.368241
O O8 0.176491 0.189367 0.823222
O O9 0.074880 0.062326 0.778204
#
# Coordination Sequence:
#
# PCOD9481601 Si02
#       5
#    16   8  16  16   8
#     4  10  25  45  71 106 137 182 239 297 350 431
#     4  11  25  47  68 101 147 182 237 293 358 435
#     4  11  24  46  71 103 139 188 233 296 356 423
#     4  11  24  46  71 103 140 186 234 295 358 429
#     4  11  25  44  71 103 139 193 229 295 365 420
#
# _framework density 22.411076999999999
#
# number of rings (size 3 to 8) (size 9 to 14) (size 15 to 20)
#    0.000    1.250    2.500    1.500    3.500   11.000 
#    0.000    0.000    0.000    0.000    0.000    0.000 
#    0.000    0.000    0.000    0.000    0.000    0.000 
#
# Total GULP energy -178788.416655 kJ/mol
# GULP energy per Si atom -5587.138020 kJ/mol
# Density = 2.236007 g / cm^3
# Si number density = 22.411077 Si / 1000 Ang^3
#
#
#
# Elastic Constant Matrix: (Units=GPa)
#
#
# Indices 1 2 3 4 5 6 
#
# 1 113.5463 35.8798 28.5321 0.0000 0.0000 0.0000
# 2 35.8798 196.4870 25.0653 0.0000 0.0000 0.0000
# 3 28.5321 25.0653 141.0054 0.0000 0.0000 0.0000
# 4 0.0000 0.0000 0.0000 24.2078 0.0000 0.0000
# 5 0.0000 0.0000 0.0000 0.0000 15.6863 0.0000
# 6 0.0000 0.0000 0.0000 0.0000 0.0000 -26.0215
#
#
#
# Elastic Compliance Matrix: (Units=1/GPa)
#
#
# Indices 1 2 3 4 5 6 
#
# 1 0.009725 -0.001560 -0.001690 0.000000 0.000000 0.000000
# 2 -0.001560 0.005458 -0.000654 0.000000 0.000000 0.000000
# 3 -0.001690 -0.000654 0.007550 0.000000 0.000000 0.000000
# 4 0.000000 0.000000 0.000000 0.041309 0.000000 0.000000
# 5 0.000000 0.000000 0.000000 0.000000 0.063750 0.000000
# 6 0.000000 0.000000 0.000000 0.000000 0.000000 -0.038430
#
#
# Mechanical properties :
#
#
# Convention : Reuss Voigt Hill
#
# Bulk Modulus (GPa) = 67.01207 69.99922 68.50565
# Shear Modulus (GPa) = 48.94934 26.87862 37.91398
#
# Velocity S-wave (km/s) = 4.67857 3.46691 4.11755
# Velocity P-wave (km/s) = 7.69101 6.87954 7.29656
#
# Compressibility (1/GPa) = 0.01492269
#
# Stress axis : x y z
#
# Youngs Moduli (GPa) = 102.83030 183.22462 132.44466
#
# Poissons Ratio (x) = 0.28586 0.22389
# Poissons Ratio (y) = 0.16043 0.08668
# Poissons Ratio (z) = 0.17383 0.11992
#
# Static dielectric constant tensor:
#      x y z
#    x 1.815490 0.000000 0.000000 
#    y 0.000000 1.849950 0.000000 
#    z 0.000000 0.000000 1.852900 
# 
# From -- ./inp_files/15546.got.cif
#   From: 2010.05.17/outbox.cif.g08.bks.cpg/sg64_8_cif.got.tgz:15546.got - 2010.06.03 16:29:19.
