data_PCOD9481084
_publ_section_title
;
Structure prediction by ZEFSAII (Michael W. Deem and Ramdas Pophale) SiO2 
 PCOD9481084
Probable space group: C M C A
;
_chemical_formula_sum "Si O2"
_cell_formula_units_Z 88
_cell_length_a 29.736162
_cell_length_b 23.832204
_cell_length_c 5.015448
_cell_angle_alpha 90.000000
_cell_angle_beta 90.000000
_cell_angle_gamma 90.000000
_cell_volume 3554.339057
_symmetry_space_group_name_H-M "C M C A"
_symmetry_group_IT_number 64
_symmetry_cell_setting 'orthorhombic'
loop_
_space_group_symop_operation_xyz
x,y,z
-x,1/2-y,1/2+z
x,-y,-z
-x,1/2+y,1/2-z
-x,-y,-z
x,1/2+y,1/2-z
-x,y,z
x,1/2-y,1/2+z
1/2+x,1/2+y,z
1/2-x,-y,1/2+z
1/2+x,1/2-y,-z
1/2-x,y,1/2-z
1/2-x,1/2-y,-z
1/2+x,y,1/2-z
1/2-x,1/2+y,z
1/2+x,-y,1/2+z
loop_
_atom_site_type_symbol
_atom_site_label
_atom_site_fract_x
_atom_site_fract_y
_atom_site_fract_z
Si Si1 0.382452 0.374027 0.993176
Si Si2 0.202072 0.937642 0.098857
Si Si3 0.250000 0.845631 0.750000
Si Si4 0.947375 0.211495 0.735534
Si Si5 0.450034 0.039841 0.245757
Si Si6 0.335594 0.785961 0.903225
O O1 0.412003 0.416583 0.819714
O O2 0.361303 0.333069 0.767244
O O3 0.345409 0.407853 0.174014
O O4 0.416877 0.340290 0.180808
O O5 0.250000 0.946906 0.250000
O O6 0.218675 0.889189 0.902206
O O7 0.190234 0.000000 0.000000
O O8 0.283768 0.806305 0.909829
O O9 0.939215 0.237934 0.446142
O O10 0.000000 0.196330 0.757104
O O11 0.500000 0.065352 0.194980
O O12 0.453721 0.000000 0.500000
O O13 0.438454 0.000000 0.000000
O O14 0.343239 0.732222 0.708263
#
# Coordination Sequence:
#
# PCOD9481084 Si02
#       6
#    16  16   8  16  16  16
#     4  11  24  43  69 104 133 188 232 286 354 427
#     4  11  24  47  67  95 139 180 240 300 354 420
#     4  10  24  42  68  90 118 184 216 284 348 414
#     4  10  22  43  70 103 144 183 227 285 347 423
#     4  10  23  45  70 104 145 181 230 292 354 428
#     4  11  25  42  63  94 131 168 222 284 336 407
#
# _framework density 24.758472000000001
#
# number of rings (size 3 to 8) (size 9 to 14) (size 15 to 20)
#    0.000    1.455    0.909    2.727    5.091    2.909 
#   13.091    5.455    0.000    0.000    0.000    0.000 
#    0.000    0.000    0.000    0.000    0.000    0.000 
#
# Total GULP energy -245905.153596 kJ/mol
# GULP energy per Si atom -5588.753491 kJ/mol
# Density = 2.470212 g / cm^3
# Si number density = 24.758472 Si / 1000 Ang^3
#
#
#
# Elastic Constant Matrix: (Units=GPa)
#
#
# Indices 1 2 3 4 5 6 
#
# 1 148.4677 86.4504 23.0921 0.0000 0.0000 0.0000
# 2 86.4504 105.9930 30.1994 0.0000 0.0000 0.0000
# 3 23.0921 30.1994 94.8379 0.0000 0.0000 0.0000
# 4 0.0000 0.0000 0.0000 28.2790 0.0000 0.0000
# 5 0.0000 0.0000 0.0000 0.0000 40.6511 0.0000
# 6 0.0000 0.0000 0.0000 0.0000 0.0000 60.5889
#
#
#
# Elastic Compliance Matrix: (Units=1/GPa)
#
#
# Indices 1 2 3 4 5 6 
#
# 1 0.012832 -0.010531 0.000229 0.000000 0.000000 0.000000
# 2 -0.010531 0.019019 -0.003492 0.000000 0.000000 0.000000
# 3 0.000229 -0.003492 0.011600 0.000000 0.000000 0.000000
# 4 0.000000 0.000000 0.000000 0.035362 0.000000 0.000000
# 5 0.000000 0.000000 0.000000 0.000000 0.024600 0.000000
# 6 0.000000 0.000000 0.000000 0.000000 0.000000 0.016505
#
#
# Mechanical properties :
#
#
# Convention : Reuss Voigt Hill
#
# Bulk Modulus (GPa) = 63.03967 69.86470 66.45219
# Shear Modulus (GPa) = 32.72365 39.87425 36.29895
#
# Velocity S-wave (km/s) = 3.63948 4.01749 3.83315
# Velocity P-wave (km/s) = 6.57102 7.05692 6.81830
#
# Compressibility (1/GPa) = 0.01586303
#
# Stress axis : x y z
#
# Youngs Moduli (GPa) = 77.92916 52.57827 86.20320
#
# Poissons Ratio (x) = 0.55373 -0.01975
# Poissons Ratio (y) = 0.82071 0.30102
# Poissons Ratio (z) = -0.01785 0.18360
#
# Static dielectric constant tensor:
#      x y z
#    x 2.119570 0.000000 0.000000 
#    y 0.000000 1.835170 0.000000 
#    z 0.000000 0.000000 1.926550 
# 
# From -- ./inp_files/3309.got.cif
#   From: 2010.05.17/outbox.cif.g08.bks.cpg/sg64_2_cif.got.tgz:3309.got - 2010.06.03 16:29:19.
