data_PCOD9481908
_publ_section_title
;
Structure prediction by ZEFSAII (Michael W. Deem and Ramdas Pophale) SiO2 
 PCOD9481908
Probable space group: C M C A
;
_chemical_formula_sum "Si O2"
_cell_formula_units_Z 88
_cell_length_a 25.787822
_cell_length_b 32.220526
_cell_length_c 5.286245
_cell_angle_alpha 90.000000
_cell_angle_beta 90.000000
_cell_angle_gamma 90.000000
_cell_volume 4392.326112
_symmetry_space_group_name_H-M "C M C A"
_symmetry_group_IT_number 64
_symmetry_cell_setting 'orthorhombic'
loop_
_space_group_symop_operation_xyz
x,y,z
-x,1/2-y,1/2+z
x,-y,-z
-x,1/2+y,1/2-z
-x,-y,-z
x,1/2+y,1/2-z
-x,y,z
x,1/2-y,1/2+z
1/2+x,1/2+y,z
1/2-x,-y,1/2+z
1/2+x,1/2-y,-z
1/2-x,y,1/2-z
1/2-x,1/2-y,-z
1/2+x,y,1/2-z
1/2-x,1/2+y,z
1/2+x,-y,1/2+z
loop_
_atom_site_type_symbol
_atom_site_label
_atom_site_fract_x
_atom_site_fract_y
_atom_site_fract_z
Si Si1 0.125814 0.222367 0.791183
Si Si2 0.805023 0.454853 0.901333
Si Si3 0.061567 0.639397 0.727137
Si Si4 0.794680 0.326119 0.586824
Si Si5 0.750000 0.896725 0.250000
Si Si6 0.380625 0.885675 0.767917
O O1 0.121923 0.246212 0.527396
O O2 0.082503 0.186655 0.792376
O O3 0.180179 0.199490 0.857760
O O4 0.750000 0.458291 0.750000
O O5 0.847576 0.428060 0.754258
O O6 0.820357 0.500000 0.000000
O O7 0.794169 0.426179 0.144689
O O8 0.082058 0.617920 0.472261
O O9 0.000000 0.638244 0.747470
O O10 0.088434 0.618926 0.971502
O O11 0.750000 0.304172 0.750000
O O12 0.768245 0.366753 0.470321
O O13 0.841633 0.345674 0.750507
#
# Coordination Sequence:
#
# PCOD9481908 Si02
#       6
#    16  16  16  16   8  16
#     4  11  25  41  59  92 126 158 209 266 322 379
#     4  12  23  35  61 100 138 173 204 251 308 370
#     4  11  25  45  72  92 114 164 221 275 331 379
#     4  11  23  36  63  86 130 182 209 250 303 381
#     4  12  20  38  58  88 132 176 224 242 282 366
#     4  11  22  42  66  95 130 164 215 263 311 382
#
# _framework density 20.034941
#
# number of rings (size 3 to 8) (size 9 to 14) (size 15 to 20)
#    0.000    0.727    4.545    4.909    2.545    1.455 
#    0.000    0.000    0.000    3.273    0.000    0.000 
#    0.000    0.000    0.000    0.000    0.000    0.000 
#
# Total GULP energy -246019.014537 kJ/mol
# GULP energy per Si atom -5591.341239 kJ/mol
# Density = 1.998934 g / cm^3
# Si number density = 20.034941 Si / 1000 Ang^3
#
#
#
# Elastic Constant Matrix: (Units=GPa)
#
#
# Indices 1 2 3 4 5 6 
#
# 1 110.8381 29.0882 39.4058 0.0000 0.0000 0.0000
# 2 29.0882 104.6741 30.5406 0.0000 0.0000 0.0000
# 3 39.4058 30.5406 103.1451 0.0000 0.0000 0.0000
# 4 0.0000 0.0000 0.0000 -90.1840 0.0000 0.0000
# 5 0.0000 0.0000 0.0000 0.0000 29.0978 0.0000
# 6 0.0000 0.0000 0.0000 0.0000 0.0000 19.6237
#
#
#
# Elastic Compliance Matrix: (Units=1/GPa)
#
#
# Indices 1 2 3 4 5 6 
#
# 1 0.010798 -0.001967 -0.003543 0.000000 0.000000 0.000000
# 2 -0.001967 0.010815 -0.002451 0.000000 0.000000 0.000000
# 3 -0.003543 -0.002451 0.011774 0.000000 0.000000 0.000000
# 4 0.000000 0.000000 0.000000 -0.011088 0.000000 0.000000
# 5 0.000000 0.000000 0.000000 0.000000 0.034367 0.000000
# 6 0.000000 0.000000 0.000000 0.000000 0.000000 0.050959
#
#
# Mechanical properties :
#
#
# Convention : Reuss Voigt Hill
#
# Bulk Modulus (GPa) = 57.25398 57.41407 57.33403
# Shear Modulus (GPa) = 38.64947 6.34902 22.49924
#
# Velocity S-wave (km/s) = 4.39692 1.78209 3.35476
# Velocity P-wave (km/s) = 7.37674 5.74053 6.60946
#
# Compressibility (1/GPa) = 0.01746603
#
# Stress axis : x y z
#
# Youngs Moduli (GPa) = 92.61007 92.46298 84.93088
#
# Poissons Ratio (x) = 0.18187 0.30090
# Poissons Ratio (y) = 0.18216 0.20815
# Poissons Ratio (z) = 0.32811 0.22661
#
# Static dielectric constant tensor:
#      x y z
#    x 1.712960 0.000000 0.000000 
#    y 0.000000 1.707070 0.000000 
#    z 0.000000 0.000000 1.754930 
# 
# From -- ./inp_files/2441.got.cif
#   From: 2010.05.17/outbox.cif.g08.bks.cpg/sg64_2_cif.got.tgz:2441.got - 2010.06.03 16:29:19.
