data_PCOD9481905
_publ_section_title
;
Structure prediction by ZEFSAII (Michael W. Deem and Ramdas Pophale) SiO2 
 PCOD9481905
Probable space group: C M C A
;
_chemical_formula_sum "Si O2"
_cell_formula_units_Z 112
_cell_length_a 25.942933
_cell_length_b 13.586517
_cell_length_c 14.109523
_cell_angle_alpha 90.000000
_cell_angle_beta 90.000000
_cell_angle_gamma 90.000000
_cell_volume 4973.241424
_symmetry_space_group_name_H-M "C M C A"
_symmetry_group_IT_number 64
_symmetry_cell_setting 'orthorhombic'
loop_
_space_group_symop_operation_xyz
x,y,z
-x,1/2-y,1/2+z
x,-y,-z
-x,1/2+y,1/2-z
-x,-y,-z
x,1/2+y,1/2-z
-x,y,z
x,1/2-y,1/2+z
1/2+x,1/2+y,z
1/2-x,-y,1/2+z
1/2+x,1/2-y,-z
1/2-x,y,1/2-z
1/2-x,1/2-y,-z
1/2+x,y,1/2-z
1/2-x,1/2+y,z
1/2+x,-y,1/2+z
loop_
_atom_site_type_symbol
_atom_site_label
_atom_site_fract_x
_atom_site_fract_y
_atom_site_fract_z
Si Si1 0.249565 0.757142 0.886526
Si Si2 0.500000 0.986283 0.838590
Si Si3 0.000000 0.164702 0.512512
Si Si4 0.674350 0.064880 0.408218
Si Si5 0.363184 0.742638 0.799244
Si Si6 0.113910 0.967429 0.729577
Si Si7 0.395392 0.270612 0.000028
Si Si8 0.159337 0.123210 0.620573
O O1 0.218460 0.859743 0.869685
O O2 0.303873 0.751415 0.834689
O O3 0.217131 0.659042 0.861207
O O4 0.250000 0.750000 0.000000
O O5 0.446833 0.990505 0.779052
O O6 0.500000 0.078361 0.910269
O O7 0.500000 0.890387 0.909382
O O8 0.048905 0.233744 0.526485
O O9 0.648138 0.004645 0.322424
O O10 0.629921 0.138424 0.446263
O O11 0.691007 0.000000 0.500000
O O12 0.381814 0.850740 0.774465
O O13 0.370297 0.676845 0.707071
O O14 0.393975 0.705964 0.889692
O O15 0.143418 0.012222 0.637631
O O16 0.359637 0.175586 0.974686
#
# Coordination Sequence:
#
# PCOD9481905 Si02
#       8
#    16   8   8  16  16  16  16  16
#     4  11  23  44  68  95 136 183 227 280 344 402
#     4  11  24  41  68 105 135 166 228 289 337 414
#     4  11  22  41  70 101 131 172 224 287 351 392
#     4  11  25  47  66  98 144 179 222 280 341 419
#     4  12  23  45  68  96 140 175 227 281 342 409
#     4  12  25  43  71 102 134 178 228 284 345 408
#     4  11  22  44  70  96 134 178 220 286 342 398
#     4  11  24  43  65  98 137 178 225 286 335 412
#
# _framework density 22.520523000000001
#
# number of rings (size 3 to 8) (size 9 to 14) (size 15 to 20)
#    0.000    0.714    8.571    1.286    0.000    2.286 
#    2.571    5.000    0.000    0.000    0.000    0.000 
#    0.000    0.000    0.000    0.000    0.000    0.000 
#
# Total GULP energy -312879.394568 kJ/mol
# GULP energy per Si atom -5587.132046 kJ/mol
# Density = 2.246926 g / cm^3
# Si number density = 22.520523 Si / 1000 Ang^3
#
#
#
# Elastic Constant Matrix: (Units=GPa)
#
#
# Indices 1 2 3 4 5 6 
#
# 1 95.9076 -8.3045 -15.5247 0.0000 0.0000 0.0000
# 2 -8.3045 51.3184 -9.5689 0.0000 0.0000 0.0000
# 3 -15.5247 -9.5689 65.0147 0.0000 0.0000 0.0000
# 4 0.0000 0.0000 0.0000 35.0257 0.0000 0.0000
# 5 0.0000 0.0000 0.0000 0.0000 26.2993 0.0000
# 6 0.0000 0.0000 0.0000 0.0000 0.0000 -28.7526
#
#
#
# Elastic Compliance Matrix: (Units=1/GPa)
#
#
# Indices 1 2 3 4 5 6 
#
# 1 0.011117 0.002359 0.003002 0.000000 0.000000 0.000000
# 2 0.002359 0.020536 0.003586 0.000000 0.000000 0.000000
# 3 0.003002 0.003586 0.016626 0.000000 0.000000 0.000000
# 4 0.000000 0.000000 0.000000 0.028550 0.000000 0.000000
# 5 0.000000 0.000000 0.000000 0.000000 0.038024 0.000000
# 6 0.000000 0.000000 0.000000 0.000000 0.000000 -0.034779
#
#
# Mechanical properties :
#
#
# Convention : Reuss Voigt Hill
#
# Bulk Modulus (GPa) = 15.11229 16.16050 15.63640
# Shear Modulus (GPa) = 59.35525 22.89041 41.12283
#
# Velocity S-wave (km/s) = 5.13939 3.19160 4.27783
# Velocity P-wave (km/s) = 6.47632 4.55777 5.59982
#
# Compressibility (1/GPa) = 0.06617130
#
# Stress axis : x y z
#
# Youngs Moduli (GPa) = 89.95377 48.69385 60.14797
#
# Poissons Ratio (x) = -0.11485 -0.18055
# Poissons Ratio (y) = -0.21217 -0.21568
# Poissons Ratio (z) = -0.27001 -0.17461
#
# Static dielectric constant tensor:
#      x y z
#    x 1.858290 0.000000 0.000000 
#    y 0.000000 1.844670 0.000000 
#    z 0.000000 0.000000 1.880330 
# 
# From -- ./inp_files/28122.got.cif
#   From: 2010.05.17/outbox.cif.g08.bks.cpg/sg64_15_cif.got.tgz:28122.got - 2010.06.03 16:29:19.
