data_PCOD9481105
_publ_section_title
;
Structure prediction by ZEFSAII (Michael W. Deem and Ramdas Pophale) SiO2 
 PCOD9481105
Probable space group: C M C A
;
_chemical_formula_sum "Si O2"
_cell_formula_units_Z 96
_cell_length_a 18.088812
_cell_length_b 20.327804
_cell_length_c 11.876066
_cell_angle_alpha 90.000000
_cell_angle_beta 90.000000
_cell_angle_gamma 90.000000
_cell_volume 4366.898645
_symmetry_space_group_name_H-M "C M C A"
_symmetry_group_IT_number 64
_symmetry_cell_setting 'orthorhombic'
loop_
_space_group_symop_operation_xyz
x,y,z
-x,1/2-y,1/2+z
x,-y,-z
-x,1/2+y,1/2-z
-x,-y,-z
x,1/2+y,1/2-z
-x,y,z
x,1/2-y,1/2+z
1/2+x,1/2+y,z
1/2-x,-y,1/2+z
1/2+x,1/2-y,-z
1/2-x,y,1/2-z
1/2-x,1/2-y,-z
1/2+x,y,1/2-z
1/2-x,1/2+y,z
1/2+x,-y,1/2+z
loop_
_atom_site_type_symbol
_atom_site_label
_atom_site_fract_x
_atom_site_fract_y
_atom_site_fract_z
Si Si1 0.086707 0.620429 0.067820
Si Si2 0.085225 0.730259 0.529563
Si Si3 0.344418 0.901626 0.489524
Si Si4 0.330879 0.063157 0.262908
Si Si5 0.918886 0.863114 0.218979
Si Si6 0.315159 0.429364 0.381108
O O1 0.110144 0.605833 0.195274
O O2 0.000000 0.611744 0.054806
O O3 0.106471 0.694099 0.027532
O O4 0.132239 0.571650 0.988931
O O5 0.140323 0.675598 0.478402
O O6 0.082787 0.708072 0.661149
O O7 0.000000 0.722727 0.487513
O O8 0.348002 0.941962 0.604746
O O9 0.405810 0.909259 0.391452
O O10 0.266165 0.914645 0.428635
O O11 0.250000 0.095526 0.250000
O O12 0.322103 0.994505 0.195055
O O13 0.851231 0.874165 0.301224
O O14 0.000000 0.875649 0.269246
#
# Coordination Sequence:
#
# PCOD9481105 Si02
#       6
#    16  16  16  16  16  16
#     4  11  25  45  69 101 141 181 224 280 343 409
#     4   8  20  44  69 101 138 174 225 283 342 404
#     4  10  22  44  68  97 133 178 229 278 342 399
#     4  12  26  44  64  96 140 181 226 282 338 400
#     4   9  20  41  65  98 132 174 226 277 337 398
#     4  12  24  41  67  99 139 182 229 281 338 401
#
# _framework density 21.983564999999999
#
# number of rings (size 3 to 8) (size 9 to 14) (size 15 to 20)
#    1.000    0.667    1.667    2.500    0.000    7.333 
#    3.000    4.167    0.000    0.000    0.000    0.000 
#    0.000    0.000    0.000    0.000    0.000    0.000 
#
# Total GULP energy -267570.476585 kJ/mol
# GULP energy per Si atom -5574.384929 kJ/mol
# Density = 2.193353 g / cm^3
# Si number density = 21.983565 Si / 1000 Ang^3
#
#
#
# Elastic Constant Matrix: (Units=GPa)
#
#
# Indices 1 2 3 4 5 6 
#
# 1 88.0847 59.9079 36.7592 0.0000 0.0000 0.0000
# 2 59.9079 114.9226 31.6641 0.0000 0.0000 0.0000
# 3 36.7592 31.6641 121.8482 0.0000 0.0000 0.0000
# 4 0.0000 0.0000 0.0000 19.5805 0.0000 0.0000
# 5 0.0000 0.0000 0.0000 0.0000 -14.1940 0.0000
# 6 0.0000 0.0000 0.0000 0.0000 0.0000 20.2250
#
#
#
# Elastic Compliance Matrix: (Units=1/GPa)
#
#
# Indices 1 2 3 4 5 6 
#
# 1 0.018787 -0.008867 -0.003363 0.000000 0.000000 0.000000
# 2 -0.008867 0.013557 -0.000848 0.000000 0.000000 0.000000
# 3 -0.003363 -0.000848 0.009442 0.000000 0.000000 0.000000
# 4 0.000000 0.000000 0.000000 0.051071 0.000000 0.000000
# 5 0.000000 0.000000 0.000000 0.000000 -0.070452 0.000000
# 6 0.000000 0.000000 0.000000 0.000000 0.000000 0.049444
#
#
# Mechanical properties :
#
#
# Convention : Reuss Voigt Hill
#
# Bulk Modulus (GPa) = 63.98146 64.61309 64.29728
# Shear Modulus (GPa) = 48.44275 18.22393 33.33334
#
# Velocity S-wave (km/s) = 4.69933 2.88232 3.89817
# Velocity P-wave (km/s) = 7.65587 6.36651 7.04077
#
# Compressibility (1/GPa) = 0.01562953
#
# Stress axis : x y z
#
# Youngs Moduli (GPa) = 53.22931 73.76124 105.90940
#
# Poissons Ratio (x) = 0.65401 0.35622
# Poissons Ratio (y) = 0.47196 0.08983
# Poissons Ratio (z) = 0.17903 0.06256
#
# Static dielectric constant tensor:
#      x y z
#    x 1.783770 0.000000 0.000000 
#    y 0.000000 1.857670 0.000000 
#    z 0.000000 0.000000 1.872280 
# 
# From -- ./inp_files/17383.got.cif
#   From: 2010.05.17/outbox.cif.g08.bks.cpg/sg64_9_cif.got.tgz:17383.got - 2010.06.03 16:29:19.
