data_PCOD9481541
_publ_section_title
;
Structure prediction by ZEFSAII (Michael W. Deem and Ramdas Pophale) SiO2 
 PCOD9481541
Probable space group: C M C A
;
_chemical_formula_sum "Si O2"
_cell_formula_units_Z 88
_cell_length_a 19.950729
_cell_length_b 9.385999
_cell_length_c 24.134983
_cell_angle_alpha 90.000000
_cell_angle_beta 90.000000
_cell_angle_gamma 90.000000
_cell_volume 4519.457121
_symmetry_space_group_name_H-M "C M C A"
_symmetry_group_IT_number 64
_symmetry_cell_setting 'orthorhombic'
loop_
_space_group_symop_operation_xyz
x,y,z
-x,1/2-y,1/2+z
x,-y,-z
-x,1/2+y,1/2-z
-x,-y,-z
x,1/2+y,1/2-z
-x,y,z
x,1/2-y,1/2+z
1/2+x,1/2+y,z
1/2-x,-y,1/2+z
1/2+x,1/2-y,-z
1/2-x,y,1/2-z
1/2-x,1/2-y,-z
1/2+x,y,1/2-z
1/2-x,1/2+y,z
1/2+x,-y,1/2+z
loop_
_atom_site_type_symbol
_atom_site_label
_atom_site_fract_x
_atom_site_fract_y
_atom_site_fract_z
Si Si1 0.668189 0.559077 0.351932
Si Si2 0.079101 0.127727 0.455479
Si Si3 0.000000 0.870124 0.232130
Si Si4 0.680789 0.833750 0.512354
Si Si5 0.198119 0.269024 0.635642
Si Si6 0.604637 0.379122 0.766613
O O1 0.608617 0.581006 0.396235
O O2 0.726837 0.670850 0.364022
O O3 0.696862 0.400920 0.359583
O O4 0.641989 0.579010 0.290097
O O5 0.122036 0.261358 0.476834
O O6 0.000000 0.157225 0.451609
O O7 0.089190 0.000000 0.500000
O O8 0.942052 0.755109 0.251932
O O9 0.941574 0.988231 0.216666
O O10 0.750000 0.750000 0.500000
O O11 0.665830 0.811787 0.577081
O O12 0.689589 0.000000 0.500000
O O13 0.156674 0.336363 0.685908
#
# Coordination Sequence:
#
# PCOD9481541 Si02
#       6
#    16  16   8  16  16  16
#     4  12  26  44  71 102 137 180 233 292 351 424
#     4  11  25  46  72 100 138 184 232 285 352 423
#     4  10  24  46  66  98 142 187 228 285 345 437
#     4  12  24  46  73 105 142 182 238 291 355 416
#     4  12  26  44  72 101 141 182 233 301 345 418
#     4  11  25  45  70 101 140 183 237 281 358 420
#
# _framework density 19.471364999999999
#
# number of rings (size 3 to 8) (size 9 to 14) (size 15 to 20)
#    0.000    0.545    5.455    2.182    5.091    1.818 
#    3.273    0.000    0.000    0.000    0.000    0.000 
#    0.000    0.000    0.000    0.000    0.000    0.000 
#
# Total GULP energy -245059.089534 kJ/mol
# GULP energy per Si atom -5569.524762 kJ/mol
# Density = 1.942705 g / cm^3
# Si number density = 19.471365 Si / 1000 Ang^3
#
#
#
# Elastic Constant Matrix: (Units=GPa)
#
#
# Indices 1 2 3 4 5 6 
#
# 1 110.1827 73.2383 32.0870 0.0000 0.0000 0.0000
# 2 73.2383 125.7700 46.8865 0.0000 0.0000 0.0000
# 3 32.0870 46.8865 122.6428 0.0000 0.0000 0.0000
# 4 0.0000 0.0000 0.0000 13.3457 0.0000 0.0000
# 5 0.0000 0.0000 0.0000 0.0000 7.7977 0.0000
# 6 0.0000 0.0000 0.0000 0.0000 0.0000 37.2970
#
#
#
# Elastic Compliance Matrix: (Units=1/GPa)
#
#
# Indices 1 2 3 4 5 6 
#
# 1 0.014855 -0.008398 -0.000676 0.000000 0.000000 0.000000
# 2 -0.008398 0.014021 -0.003163 0.000000 0.000000 0.000000
# 3 -0.000676 -0.003163 0.009540 0.000000 0.000000 0.000000
# 4 0.000000 0.000000 0.000000 0.074930 0.000000 0.000000
# 5 0.000000 0.000000 0.000000 0.000000 0.128243 0.000000
# 6 0.000000 0.000000 0.000000 0.000000 0.000000 0.026812
#
#
# Mechanical properties :
#
#
# Convention : Reuss Voigt Hill
#
# Bulk Modulus (GPa) = 71.72925 73.66879 72.69902
# Shear Modulus (GPa) = 16.80547 25.44700 21.12623
#
# Velocity S-wave (km/s) = 2.94102 3.61902 3.29749
# Velocity P-wave (km/s) = 6.96068 7.44175 7.20523
#
# Compressibility (1/GPa) = 0.01394131
#
# Stress axis : x y z
#
# Youngs Moduli (GPa) = 67.31703 71.32303 104.82479
#
# Poissons Ratio (x) = 0.59900 0.07084
# Poissons Ratio (y) = 0.56536 0.33155
# Poissons Ratio (z) = 0.04549 0.22558
#
# Static dielectric constant tensor:
#      x y z
#    x 1.650630 0.000000 0.000000 
#    y 0.000000 1.688890 0.000000 
#    z 0.000000 0.000000 1.691320 
# 
# From -- ./inp_files/46207.got.cif
#   From: 2010.05.17/outbox.cif.g08.bks.cpg/sg64_24_cif.got.tgz:46207.got - 2010.06.03 16:29:19.
