data_PCOD9481837
_publ_section_title
;
Structure prediction by ZEFSAII (Michael W. Deem and Ramdas Pophale) SiO2 
 PCOD9481837
Probable space group: C M C A
;
_chemical_formula_sum "Si O2"
_cell_formula_units_Z 96
_cell_length_a 15.502310
_cell_length_b 22.311168
_cell_length_c 14.940500
_cell_angle_alpha 90.000000
_cell_angle_beta 90.000000
_cell_angle_gamma 90.000000
_cell_volume 5167.540101
_symmetry_space_group_name_H-M "C M C A"
_symmetry_group_IT_number 64
_symmetry_cell_setting 'orthorhombic'
loop_
_space_group_symop_operation_xyz
x,y,z
-x,1/2-y,1/2+z
x,-y,-z
-x,1/2+y,1/2-z
-x,-y,-z
x,1/2+y,1/2-z
-x,y,z
x,1/2-y,1/2+z
1/2+x,1/2+y,z
1/2-x,-y,1/2+z
1/2+x,1/2-y,-z
1/2-x,y,1/2-z
1/2-x,1/2-y,-z
1/2+x,y,1/2-z
1/2-x,1/2+y,z
1/2+x,-y,1/2+z
loop_
_atom_site_type_symbol
_atom_site_label
_atom_site_fract_x
_atom_site_fract_y
_atom_site_fract_z
Si Si1 0.229412 0.156848 0.152109
Si Si2 0.897471 0.940613 0.888361
Si Si3 0.102412 0.079193 0.901816
Si Si4 0.153432 0.806460 0.212248
Si Si5 0.098444 0.193055 0.411045
Si Si6 0.906180 0.754839 0.393277
O O1 0.250000 0.180638 0.250000
O O2 0.167964 0.100153 0.165744
O O3 0.322288 0.148016 0.106856
O O4 0.170915 0.207010 0.104709
O O5 0.000000 0.931818 0.872150
O O6 0.878231 0.010750 0.874196
O O7 0.879309 0.921066 0.991665
O O8 0.142266 0.131745 0.842499
O O9 0.000000 0.087387 0.893742
O O10 0.250000 0.805706 0.250000
O O11 0.125059 0.753251 0.144081
O O12 0.100208 0.794622 0.303657
O O13 0.098211 0.207672 0.516049
O O14 0.000000 0.176010 0.384883
O O15 0.000000 0.723370 0.392194
#
# Coordination Sequence:
#
# PCOD9481837 Si02
#       6
#    16  16  16  16  16  16
#     4  12  22  35  56  82 116 150 188 229 283 340
#     4   9  20  38  62  87 111 148 189 236 290 341
#     4   9  19  38  61  86 114 143 187 241 293 338
#     4  12  22  35  57  88 118 154 189 240 288 342
#     4  11  23  38  55  81 120 156 190 236 286 339
#     4  11  22  36  56  83 115 153 191 233 288 344
#
# _framework density 18.577504999999999
#
# number of rings (size 3 to 8) (size 9 to 14) (size 15 to 20)
#    0.000    1.333    3.333    4.500    2.333    4.000 
#    0.000    0.000    0.000    0.000    0.000    2.333 
#    0.000    0.000    0.000    0.000    0.000    0.000 
#
# Total GULP energy -267569.047828 kJ/mol
# GULP energy per Si atom -5574.355163 kJ/mol
# Density = 1.853522 g / cm^3
# Si number density = 18.577505 Si / 1000 Ang^3
#
#
#
# Elastic Constant Matrix: (Units=GPa)
#
#
# Indices 1 2 3 4 5 6 
#
# 1 102.3266 21.9777 5.1573 0.0000 0.0000 0.0000
# 2 21.9777 69.7402 15.9968 0.0000 0.0000 0.0000
# 3 5.1573 15.9968 66.8657 0.0000 0.0000 0.0000
# 4 0.0000 0.0000 0.0000 22.5019 0.0000 0.0000
# 5 0.0000 0.0000 0.0000 0.0000 18.9297 0.0000
# 6 0.0000 0.0000 0.0000 0.0000 0.0000 15.1565
#
#
#
# Elastic Compliance Matrix: (Units=1/GPa)
#
#
# Indices 1 2 3 4 5 6 
#
# 1 0.010482 -0.003299 -0.000019 0.000000 0.000000 0.000000
# 2 -0.003299 0.016210 -0.003624 0.000000 0.000000 0.000000
# 3 -0.000019 -0.003624 0.015824 0.000000 0.000000 0.000000
# 4 0.000000 0.000000 0.000000 0.044441 0.000000 0.000000
# 5 0.000000 0.000000 0.000000 0.000000 0.052827 0.000000
# 6 0.000000 0.000000 0.000000 0.000000 0.000000 0.065978
#
#
# Mechanical properties :
#
#
# Convention : Reuss Voigt Hill
#
# Bulk Modulus (GPa) = 34.92574 36.13291 35.52932
# Shear Modulus (GPa) = 21.81607 24.37100 23.09354
#
# Velocity S-wave (km/s) = 3.43056 3.62588 3.52958
# Velocity P-wave (km/s) = 5.87644 6.08452 5.98139
#
# Compressibility (1/GPa) = 0.02863218
#
# Stress axis : x y z
#
# Youngs Moduli (GPa) = 95.40041 61.69145 63.19622
#
# Poissons Ratio (x) = 0.20351 0.00122
# Poissons Ratio (y) = 0.31472 0.22899
# Poissons Ratio (z) = 0.00184 0.22354
#
# Static dielectric constant tensor:
#      x y z
#    x 1.734400 0.000000 0.000000 
#    y 0.000000 1.681620 0.000000 
#    z 0.000000 0.000000 1.663100 
# 
# From -- ./inp_files/23902.got.cif
#   From: 2010.05.17/outbox.cif.g08.bks.cpg/sg64_12_cif.got.tgz:23902.got - 2010.06.03 16:29:19.
