data_PCOD9481333
_publ_section_title
;
Structure prediction by ZEFSAII (Michael W. Deem and Ramdas Pophale) SiO2 
 PCOD9481333
Probable space group: C M C A
;
_chemical_formula_sum "Si O2"
_cell_formula_units_Z 56
_cell_length_a 20.671019
_cell_length_b 8.745947
_cell_length_c 13.448385
_cell_angle_alpha 90.000000
_cell_angle_beta 90.000000
_cell_angle_gamma 90.000000
_cell_volume 2431.301740
_symmetry_space_group_name_H-M "C M C A"
_symmetry_group_IT_number 64
_symmetry_cell_setting 'orthorhombic'
loop_
_space_group_symop_operation_xyz
x,y,z
-x,1/2-y,1/2+z
x,-y,-z
-x,1/2+y,1/2-z
-x,-y,-z
x,1/2+y,1/2-z
-x,y,z
x,1/2-y,1/2+z
1/2+x,1/2+y,z
1/2-x,-y,1/2+z
1/2+x,1/2-y,-z
1/2-x,y,1/2-z
1/2-x,1/2-y,-z
1/2+x,y,1/2-z
1/2-x,1/2+y,z
1/2+x,-y,1/2+z
loop_
_atom_site_type_symbol
_atom_site_label
_atom_site_fract_x
_atom_site_fract_y
_atom_site_fract_z
Si Si1 0.426601 0.406809 0.623575
Si Si2 0.303336 0.015519 0.387230
Si Si3 0.135478 0.800691 0.278770
Si Si4 0.824053 0.500000 0.000000
O O1 0.500000 0.399055 0.589774
O O2 0.415595 0.300851 0.717894
O O3 0.404092 0.575202 0.658225
O O4 0.373314 0.370501 0.539069
O O5 0.325989 0.892659 0.306706
O O6 0.227012 0.990006 0.409242
O O7 0.331422 0.000000 0.500000
O O8 0.321397 0.180561 0.341544
#
# Coordination Sequence:
#
# PCOD9481333 Si02
#       4
#    16  16  16   8
#     4  11  24  42  64  95 133 178 224 265 328 405
#     4   9  23  44  66 105 133 164 225 281 336 393
#     4  10  23  43  72  96 129 179 218 280 338 383
#     4  10  25  40  64  98 135 174 216 280 334 392
#
# _framework density 23.032928999999999
#
# number of rings (size 3 to 8) (size 9 to 14) (size 15 to 20)
#    0.857    1.143    0.000    1.286    4.000   11.429 
#    0.000    0.000    0.000    5.143    0.000    0.000 
#    0.000    0.000    0.000    0.000    0.000    0.000 
#
# Total GULP energy -156245.422019 kJ/mol
# GULP energy per Si atom -5580.193644 kJ/mol
# Density = 2.298050 g / cm^3
# Si number density = 23.032929 Si / 1000 Ang^3
#
#
#
# Elastic Constant Matrix: (Units=GPa)
#
#
# Indices 1 2 3 4 5 6 
#
# 1 126.5930 31.5300 27.9865 0.0000 0.0000 0.0000
# 2 31.5300 138.2678 54.0327 0.0000 0.0000 0.0000
# 3 27.9865 54.0327 141.1212 0.0000 0.0000 0.0000
# 4 0.0000 0.0000 0.0000 32.8263 0.0000 0.0000
# 5 0.0000 0.0000 0.0000 0.0000 25.2144 0.0000
# 6 0.0000 0.0000 0.0000 0.0000 0.0000 13.5424
#
#
#
# Elastic Compliance Matrix: (Units=1/GPa)
#
#
# Indices 1 2 3 4 5 6 
#
# 1 0.008521 -0.001508 -0.001112 0.000000 0.000000 0.000000
# 2 -0.001508 0.008772 -0.003059 0.000000 0.000000 0.000000
# 3 -0.001112 -0.003059 0.008478 0.000000 0.000000 0.000000
# 4 0.000000 0.000000 0.000000 0.030463 0.000000 0.000000
# 5 0.000000 0.000000 0.000000 0.000000 0.039660 0.000000
# 6 0.000000 0.000000 0.000000 0.000000 0.000000 0.073842
#
#
# Mechanical properties :
#
#
# Convention : Reuss Voigt Hill
#
# Bulk Modulus (GPa) = 69.39331 70.34227 69.86779
# Shear Modulus (GPa) = 26.89616 33.81214 30.35415
#
# Velocity S-wave (km/s) = 3.42091 3.83559 3.63417
# Velocity P-wave (km/s) = 6.76733 7.08674 6.92888
#
# Compressibility (1/GPa) = 0.01441061
#
# Stress axis : x y z
#
# Youngs Moduli (GPa) = 117.35812 114.00047 117.95095
#
# Poissons Ratio (x) = 0.17196 0.13120
# Poissons Ratio (y) = 0.17702 0.36087
# Poissons Ratio (z) = 0.13054 0.34878
#
# Static dielectric constant tensor:
#      x y z
#    x 1.853810 0.000000 0.000000 
#    y 0.000000 1.883890 0.000000 
#    z 0.000000 0.000000 2.023230 
# 
# From -- ./inp_files/25890.got.cif
#   From: 2010.05.17/outbox.cif.g08.bks.cpg/sg64_13_cif.got.tgz:25890.got - 2010.06.03 16:29:19.
