data_PCOD9481390
_publ_section_title
;
Structure prediction by ZEFSAII (Michael W. Deem and Ramdas Pophale) SiO2 
 PCOD9481390
Probable space group: C M C A
;
_chemical_formula_sum "Si O2"
_cell_formula_units_Z 56
_cell_length_a 21.482227
_cell_length_b 10.497462
_cell_length_c 9.802866
_cell_angle_alpha 90.000000
_cell_angle_beta 90.000000
_cell_angle_gamma 90.000000
_cell_volume 2210.633152
_symmetry_space_group_name_H-M "C M C A"
_symmetry_group_IT_number 64
_symmetry_cell_setting 'orthorhombic'
loop_
_space_group_symop_operation_xyz
x,y,z
-x,1/2-y,1/2+z
x,-y,-z
-x,1/2+y,1/2-z
-x,-y,-z
x,1/2+y,1/2-z
-x,y,z
x,1/2-y,1/2+z
1/2+x,1/2+y,z
1/2-x,-y,1/2+z
1/2+x,1/2-y,-z
1/2-x,y,1/2-z
1/2-x,1/2-y,-z
1/2+x,y,1/2-z
1/2-x,1/2+y,z
1/2+x,-y,1/2+z
loop_
_atom_site_type_symbol
_atom_site_label
_atom_site_fract_x
_atom_site_fract_y
_atom_site_fract_z
Si Si1 0.655846 0.766606 0.899843
Si Si2 0.931374 0.960487 0.702824
Si Si3 0.806216 0.120186 0.662708
Si Si4 0.891477 0.000000 0.000000
O O1 0.588733 0.831060 0.873878
O O2 0.698478 0.846588 0.003468
O O3 0.683234 0.749530 0.749402
O O4 0.647526 0.624241 0.956535
O O5 0.872296 0.048964 0.669594
O O6 0.929309 0.955216 0.867003
O O7 0.000000 0.003733 0.661690
O O8 0.750000 0.058042 0.750000
#
# Coordination Sequence:
#
# PCOD9481390 Si02
#       4
#    16  16  16   8
#     4  11  23  47  72 108 146 197 249 310 376 450
#     4  11  25  46  75 107 147 196 250 316 384 451
#     4  11  25  46  73 106 147 192 249 307 374 450
#     4  10  23  48  72 110 152 194 255 316 381 454
#
# _framework density 25.332108000000002
#
# number of rings (size 3 to 8) (size 9 to 14) (size 15 to 20)
#    0.000    1.143    2.857    2.143    0.000    9.143 
#   20.571    0.000    0.000    0.000    0.000    0.000 
#    0.000    0.000    0.000    0.000    0.000    0.000 
#
# Total GULP energy -156330.690826 kJ/mol
# GULP energy per Si atom -5583.238958 kJ/mol
# Density = 2.527445 g / cm^3
# Si number density = 25.332108 Si / 1000 Ang^3
#
#
#
# Elastic Constant Matrix: (Units=GPa)
#
#
# Indices 1 2 3 4 5 6 
#
# 1 192.1033 49.6067 19.0427 0.0000 0.0000 0.0000
# 2 49.6067 92.7886 26.7214 0.0000 0.0000 0.0000
# 3 19.0427 26.7214 139.5116 0.0000 0.0000 0.0000
# 4 0.0000 0.0000 0.0000 42.2445 0.0000 0.0000
# 5 0.0000 0.0000 0.0000 0.0000 15.8510 0.0000
# 6 0.0000 0.0000 0.0000 0.0000 0.0000 -5.7385
#
#
#
# Elastic Compliance Matrix: (Units=1/GPa)
#
#
# Indices 1 2 3 4 5 6 
#
# 1 0.006046 -0.003169 -0.000218 0.000000 0.000000 0.000000
# 2 -0.003169 0.013068 -0.002070 0.000000 0.000000 0.000000
# 3 -0.000218 -0.002070 0.007594 0.000000 0.000000 0.000000
# 4 0.000000 0.000000 0.000000 0.023672 0.000000 0.000000
# 5 0.000000 0.000000 0.000000 0.000000 0.063087 0.000000
# 6 0.000000 0.000000 0.000000 0.000000 0.000000 -0.174263
#
#
# Mechanical properties :
#
#
# Convention : Reuss Voigt Hill
#
# Bulk Modulus (GPa) = 63.32335 68.34944 65.83639
# Shear Modulus (GPa) = -112.06587 32.40693 -39.82947
#
# Velocity S-wave (km/s) = -6.65843 3.58059 -3.96952
# Velocity P-wave (km/s) = 5.83622 6.64335 2.24418
#
# Compressibility (1/GPa) = 0.01579196
#
# Stress axis : x y z
#
# Youngs Moduli (GPa) = 165.41090 76.52431 131.67966
#
# Poissons Ratio (x) = 0.24252 0.02873
# Poissons Ratio (y) = 0.52423 0.27262
# Poissons Ratio (z) = 0.03609 0.15843
#
# Static dielectric constant tensor:
#      x y z
#    x 2.004640 0.000000 0.000000 
#    y 0.000000 2.094100 0.000000 
#    z 0.000000 0.000000 2.038730 
# 
# From -- ./inp_files/26867.got.cif
#   From: 2010.05.17/outbox.cif.g08.bks.cpg/sg64_14_cif.got.tgz:26867.got - 2010.06.03 16:29:19.
