data_PCOD9481986
_publ_section_title
;
Structure prediction by ZEFSAII (Michael W. Deem and Ramdas Pophale) SiO2 
 PCOD9481986
Probable space group: C M C A
;
_chemical_formula_sum "Si O2"
_cell_formula_units_Z 80
_cell_length_a 28.357008
_cell_length_b 14.009236
_cell_length_c 8.878580
_cell_angle_alpha 90.000000
_cell_angle_beta 90.000000
_cell_angle_gamma 90.000000
_cell_volume 3527.104845
_symmetry_space_group_name_H-M "C M C A"
_symmetry_group_IT_number 64
_symmetry_cell_setting 'orthorhombic'
loop_
_space_group_symop_operation_xyz
x,y,z
-x,1/2-y,1/2+z
x,-y,-z
-x,1/2+y,1/2-z
-x,-y,-z
x,1/2+y,1/2-z
-x,y,z
x,1/2-y,1/2+z
1/2+x,1/2+y,z
1/2-x,-y,1/2+z
1/2+x,1/2-y,-z
1/2-x,y,1/2-z
1/2-x,1/2-y,-z
1/2+x,y,1/2-z
1/2-x,1/2+y,z
1/2+x,-y,1/2+z
loop_
_atom_site_type_symbol
_atom_site_label
_atom_site_fract_x
_atom_site_fract_y
_atom_site_fract_z
Si Si1 0.385653 0.316590 0.296457
Si Si2 0.055855 0.526289 0.671942
Si Si3 0.721725 0.619170 0.403297
Si Si4 0.880761 0.383865 0.860568
Si Si5 0.209379 0.668381 0.632692
O O1 0.428486 0.365873 0.208106
O O2 0.381222 0.204308 0.258604
O O3 0.391499 0.342992 0.472123
O O4 0.338051 0.359049 0.218001
O O5 0.069382 0.500000 0.500000
O O6 0.083324 0.460677 0.792836
O O7 0.000000 0.513425 0.686903
O O8 0.750000 0.614495 0.250000
O O9 0.671577 0.570372 0.375609
O O10 0.762417 0.598503 0.523737
O O11 0.703096 0.727545 0.444360
O O12 0.250000 0.689137 0.750000
#
# Coordination Sequence:
#
# PCOD9481986 Si02
#       5
#    16  16  16  16  16
#     4  11  23  40  70 100 134 176 222 274 334 405
#     4  11  27  49  70  94 129 172 225 292 351 401
#     4   9  18  29  56  92 131 173 212 257 316 384
#     4  11  23  41  68 102 133 176 225 272 335 406
#     4   9  16  31  54  92 132 170 211 256 312 385
#
# _framework density 22.681493
#
# number of rings (size 3 to 8) (size 9 to 14) (size 15 to 20)
#    0.000    1.800    2.000    1.800   11.200    2.400 
#    0.000    1.000    0.000    0.000    0.000    0.000 
#    0.000    0.000    0.000    0.000    0.000    0.000 
#
# Total GULP energy -223160.740642 kJ/mol
# GULP energy per Si atom -5579.018516 kJ/mol
# Density = 2.262987 g / cm^3
# Si number density = 22.681493 Si / 1000 Ang^3
#
#
#
# Elastic Constant Matrix: (Units=GPa)
#
#
# Indices 1 2 3 4 5 6 
#
# 1 103.3711 25.2392 42.4036 0.0000 0.0000 0.0000
# 2 25.2392 83.2737 16.7181 0.0000 0.0000 0.0000
# 3 42.4036 16.7181 113.5261 0.0000 0.0000 0.0000
# 4 0.0000 0.0000 0.0000 33.4085 0.0000 0.0000
# 5 0.0000 0.0000 0.0000 0.0000 40.7089 0.0000
# 6 0.0000 0.0000 0.0000 0.0000 0.0000 113.5484
#
#
#
# Elastic Compliance Matrix: (Units=1/GPa)
#
#
# Indices 1 2 3 4 5 6 
#
# 1 0.012038 -0.002830 -0.004080 0.000000 0.000000 0.000000
# 2 -0.002830 0.013040 -0.000863 0.000000 0.000000 0.000000
# 3 -0.004080 -0.000863 0.010460 0.000000 0.000000 0.000000
# 4 0.000000 0.000000 0.000000 0.029933 0.000000 0.000000
# 5 0.000000 0.000000 0.000000 0.000000 0.024565 0.000000
# 6 0.000000 0.000000 0.000000 0.000000 0.000000 0.008807
#
#
# Mechanical properties :
#
#
# Convention : Reuss Voigt Hill
#
# Bulk Modulus (GPa) = 50.02014 52.09919 51.05966
# Shear Modulus (GPa) = 41.30497 51.92049 46.61273
#
# Velocity S-wave (km/s) = 4.27205 4.78966 4.53824
# Velocity P-wave (km/s) = 6.81433 7.32172 7.07257
#
# Compressibility (1/GPa) = 0.01999195
#
# Stress axis : x y z
#
# Youngs Moduli (GPa) = 83.06809 76.68985 95.60652
#
# Poissons Ratio (x) = 0.21700 0.39005
# Poissons Ratio (y) = 0.23505 0.08254
# Poissons Ratio (z) = 0.33890 0.06621
#
# Static dielectric constant tensor:
#      x y z
#    x 1.821080 0.000000 0.000000 
#    y 0.000000 1.954610 0.000000 
#    z 0.000000 0.000000 1.994730 
# 
# From -- ./inp_files/10181.got.cif
#   From: 2010.05.17/outbox.cif.g08.bks.cpg/sg64_6_cif.got.tgz:10181.got - 2010.06.03 16:29:19.
