data_PCOD9481302
_publ_section_title
;
Structure prediction by ZEFSAII (Michael W. Deem and Ramdas Pophale) SiO2 
 PCOD9481302
Probable space group: C M C A
;
_chemical_formula_sum "Si O2"
_cell_formula_units_Z 88
_cell_length_a 16.880213
_cell_length_b 12.494699
_cell_length_c 20.138920
_cell_angle_alpha 90.000000
_cell_angle_beta 90.000000
_cell_angle_gamma 90.000000
_cell_volume 4247.563669
_symmetry_space_group_name_H-M "C M C A"
_symmetry_group_IT_number 64
_symmetry_cell_setting 'orthorhombic'
loop_
_space_group_symop_operation_xyz
x,y,z
-x,1/2-y,1/2+z
x,-y,-z
-x,1/2+y,1/2-z
-x,-y,-z
x,1/2+y,1/2-z
-x,y,z
x,1/2-y,1/2+z
1/2+x,1/2+y,z
1/2-x,-y,1/2+z
1/2+x,1/2-y,-z
1/2-x,y,1/2-z
1/2-x,1/2-y,-z
1/2+x,y,1/2-z
1/2-x,1/2+y,z
1/2+x,-y,1/2+z
loop_
_atom_site_type_symbol
_atom_site_label
_atom_site_fract_x
_atom_site_fract_y
_atom_site_fract_z
Si Si1 0.832884 0.251862 0.542509
Si Si2 0.373230 0.983659 0.072204
Si Si3 0.796089 0.033983 0.107577
Si Si4 0.588743 0.148923 0.184321
Si Si5 0.411708 0.341196 0.080845
Si Si6 0.750000 0.419148 0.750000
O O1 0.750000 0.250000 0.500000
O O2 0.854347 0.141795 0.578953
O O3 0.831477 0.349482 0.594114
O O4 0.897929 0.277255 0.486909
O O5 0.286417 0.036563 0.068819
O O6 0.411023 0.046862 0.133654
O O7 0.411582 0.000000 0.000000
O O8 0.850319 0.937983 0.083305
O O9 0.774684 0.016567 0.184440
O O10 0.500000 0.152073 0.215643
O O11 0.598337 0.255179 0.139544
O O12 0.668218 0.140603 0.228754
O O13 0.500000 0.385456 0.084475
#
# Coordination Sequence:
#
# PCOD9481302 Si02
#       6
#    16  16  16  16  16   8
#     4  12  20  36  61  94 128 160 206 258 321 391
#     4  11  19  35  63  93 123 161 202 260 320 381
#     4  11  23  38  59  89 124 167 216 260 310 387
#     4  10  23  43  65  93 125 166 219 266 316 381
#     4  11  23  39  63  93 128 162 201 266 334 388
#     4  10  24  44  64  88 122 176 220 268 310 368
#
# _framework density 20.717759000000001
#
# number of rings (size 3 to 8) (size 9 to 14) (size 15 to 20)
#    0.000    1.091    5.455    1.636    0.000    4.000 
#    3.273    0.000    0.000    0.000    0.000    0.000 
#    0.000    0.000    0.000    0.000    0.000    0.000 
#
# Total GULP energy -245471.029033 kJ/mol
# GULP energy per Si atom -5578.887023 kJ/mol
# Density = 2.067060 g / cm^3
# Si number density = 20.717759 Si / 1000 Ang^3
#
#
#
# Elastic Constant Matrix: (Units=GPa)
#
#
# Indices 1 2 3 4 5 6 
#
# 1 132.2461 16.3690 13.5998 0.0000 0.0000 0.0000
# 2 16.3690 103.5541 -9.7010 0.0000 0.0000 0.0000
# 3 13.5998 -9.7010 59.7107 0.0000 0.0000 0.0000
# 4 0.0000 0.0000 0.0000 14.5522 0.0000 0.0000
# 5 0.0000 0.0000 0.0000 0.0000 15.0222 0.0000
# 6 0.0000 0.0000 0.0000 0.0000 0.0000 -2.4253
#
#
#
# Elastic Compliance Matrix: (Units=1/GPa)
#
#
# Indices 1 2 3 4 5 6 
#
# 1 0.007951 -0.001449 -0.002046 0.000000 0.000000 0.000000
# 2 -0.001449 0.010070 0.001966 0.000000 0.000000 0.000000
# 3 -0.002046 0.001966 0.017533 0.000000 0.000000 0.000000
# 4 0.000000 0.000000 0.000000 0.068718 0.000000 0.000000
# 5 0.000000 0.000000 0.000000 0.000000 0.066568 0.000000
# 6 0.000000 0.000000 0.000000 0.000000 0.000000 -0.412317
#
#
# Mechanical properties :
#
#
# Convention : Reuss Voigt Hill
#
# Bulk Modulus (GPa) = 30.77281 37.33851 34.05566
# Shear Modulus (GPa) = -21.96968 23.77936 0.90484
#
# Velocity S-wave (km/s) = -3.25995 3.39156 0.66158
# Velocity P-wave (km/s) = 0.84609 5.77914 4.13003
#
# Compressibility (1/GPa) = 0.03249622
#
# Stress axis : x y z
#
# Youngs Moduli (GPa) = 125.76398 99.30547 57.03567
#
# Poissons Ratio (x) = 0.14385 0.11672
# Poissons Ratio (y) = 0.18218 -0.11213
# Poissons Ratio (z) = 0.25736 -0.19523
#
# Static dielectric constant tensor:
#      x y z
#    x 1.795740 0.000000 0.000000 
#    y 0.000000 1.754680 0.000000 
#    z 0.000000 0.000000 1.846230 
# 
# From -- ./inp_files/40035.got.cif
#   From: 2010.05.17/outbox.cif.g08.bks.cpg/sg64_21_cif.got.tgz:40035.got - 2010.06.03 16:29:19.
