data_PCOD9481305
_publ_section_title
;
Structure prediction by ZEFSAII (Michael W. Deem and Ramdas Pophale) SiO2 
 PCOD9481305
Probable space group: C M C A
;
_chemical_formula_sum "Si O2"
_cell_formula_units_Z 80
_cell_length_a 25.603170
_cell_length_b 17.127611
_cell_length_c 8.544661
_cell_angle_alpha 90.000000
_cell_angle_beta 90.000000
_cell_angle_gamma 90.000000
_cell_volume 3747.014450
_symmetry_space_group_name_H-M "C M C A"
_symmetry_group_IT_number 64
_symmetry_cell_setting 'orthorhombic'
loop_
_space_group_symop_operation_xyz
x,y,z
-x,1/2-y,1/2+z
x,-y,-z
-x,1/2+y,1/2-z
-x,-y,-z
x,1/2+y,1/2-z
-x,y,z
x,1/2-y,1/2+z
1/2+x,1/2+y,z
1/2-x,-y,1/2+z
1/2+x,1/2-y,-z
1/2-x,y,1/2-z
1/2-x,1/2-y,-z
1/2+x,y,1/2-z
1/2-x,1/2+y,z
1/2+x,-y,1/2+z
loop_
_atom_site_type_symbol
_atom_site_label
_atom_site_fract_x
_atom_site_fract_y
_atom_site_fract_z
Si Si1 0.086187 0.557900 0.635454
Si Si2 0.879260 0.276027 0.459894
Si Si3 0.154590 0.458307 0.846395
Si Si4 0.307556 0.797800 0.721495
Si Si5 0.440970 0.377971 0.473936
O O1 0.064660 0.500000 0.500000
O O2 0.095063 0.639853 0.549949
O O3 0.138462 0.516236 0.706149
O O4 0.059370 0.583501 0.800241
O O5 0.823598 0.289062 0.543530
O O6 0.857656 0.245380 0.295669
O O7 0.918306 0.210112 0.525362
O O8 0.188064 0.385929 0.785676
O O9 0.178359 0.500000 0.000000
O O10 0.099919 0.423111 0.914846
O O11 0.250000 0.766642 0.750000
O O12 0.500000 0.380437 0.534167
#
# Coordination Sequence:
#
# PCOD9481305 Si02
#       5
#    16  16  16  16  16
#     4  11  21  39  65  89 127 160 200 257 310 353
#     4  11  22  42  64  92 127 163 204 262 301 363
#     4   9  21  41  63  87 130 161 199 256 309 360
#     4  11  22  41  65  93 121 166 212 249 307 368
#     4  10  23  43  66  89 122 168 209 248 312 373
#
# _framework density 21.350332000000002
#
# number of rings (size 3 to 8) (size 9 to 14) (size 15 to 20)
#    0.000    1.600    4.000    0.600    0.000    4.800 
#    3.600    0.000    0.000    0.000    0.000    0.000 
#    0.000    0.000    0.000    0.000    0.000    0.000 
#
# Total GULP energy -222760.575655 kJ/mol
# GULP energy per Si atom -5569.014391 kJ/mol
# Density = 2.130174 g / cm^3
# Si number density = 21.350332 Si / 1000 Ang^3
#
#
#
# Elastic Constant Matrix: (Units=GPa)
#
#
# Indices 1 2 3 4 5 6 
#
# 1 53.7228 0.6790 -4.2055 0.0000 0.0000 0.0000
# 2 0.6790 124.2457 6.6163 0.0000 0.0000 0.0000
# 3 -4.2055 6.6163 42.0073 0.0000 0.0000 0.0000
# 4 0.0000 0.0000 0.0000 -29.5003 0.0000 0.0000
# 5 0.0000 0.0000 0.0000 0.0000 43.5829 0.0000
# 6 0.0000 0.0000 0.0000 0.0000 0.0000 80.0996
#
#
#
# Elastic Compliance Matrix: (Units=1/GPa)
#
#
# Indices 1 2 3 4 5 6 
#
# 1 0.018766 -0.000204 0.001911 0.000000 0.000000 0.000000
# 2 -0.000204 0.008119 -0.001299 0.000000 0.000000 0.000000
# 3 0.001911 -0.001299 0.024201 0.000000 0.000000 0.000000
# 4 0.000000 0.000000 0.000000 -0.033898 0.000000 0.000000
# 5 0.000000 0.000000 0.000000 0.000000 0.022945 0.000000
# 6 0.000000 0.000000 0.000000 0.000000 0.000000 0.012484
#
#
# Mechanical properties :
#
#
# Convention : Reuss Voigt Hill
#
# Bulk Modulus (GPa) = 19.26734 25.12835 22.19785
# Shear Modulus (GPa) = 72.35535 33.29549 52.82542
#
# Velocity S-wave (km/s) = 5.82779 3.95331 4.97955
# Velocity P-wave (km/s) = 7.37076 5.71256 6.59399
#
# Compressibility (1/GPa) = 0.05190131
#
# Stress axis : x y z
#
# Youngs Moduli (GPa) = 53.28713 123.16985 41.32003
#
# Poissons Ratio (x) = 0.02517 -0.07896
# Poissons Ratio (y) = 0.01089 0.05368
# Poissons Ratio (z) = -0.10183 0.16002
#
# Static dielectric constant tensor:
#      x y z
#    x 1.697370 0.000000 0.000000 
#    y 0.000000 1.795550 0.000000 
#    z 0.000000 0.000000 1.834430 
# 
# From -- ./inp_files/10166.got.cif
#   From: 2010.05.17/outbox.cif.g08.bks.cpg/sg64_6_cif.got.tgz:10166.got - 2010.06.03 16:29:19.
