data_PCOD9481954
_publ_section_title
;
Structure prediction by ZEFSAII (Michael W. Deem and Ramdas Pophale) SiO2 
 PCOD9481954
Probable space group: C M C A
;
_chemical_formula_sum "Si O2"
_cell_formula_units_Z 96
_cell_length_a 9.636224
_cell_length_b 23.109593
_cell_length_c 20.304573
_cell_angle_alpha 90.000000
_cell_angle_beta 90.000000
_cell_angle_gamma 90.000000
_cell_volume 4521.609416
_symmetry_space_group_name_H-M "C M C A"
_symmetry_group_IT_number 64
_symmetry_cell_setting 'orthorhombic'
loop_
_space_group_symop_operation_xyz
x,y,z
-x,1/2-y,1/2+z
x,-y,-z
-x,1/2+y,1/2-z
-x,-y,-z
x,1/2+y,1/2-z
-x,y,z
x,1/2-y,1/2+z
1/2+x,1/2+y,z
1/2-x,-y,1/2+z
1/2+x,1/2-y,-z
1/2-x,y,1/2-z
1/2-x,1/2-y,-z
1/2+x,y,1/2-z
1/2-x,1/2+y,z
1/2+x,-y,1/2+z
loop_
_atom_site_type_symbol
_atom_site_label
_atom_site_fract_x
_atom_site_fract_y
_atom_site_fract_z
Si Si1 0.150451 0.612248 0.995988
Si Si2 0.156304 0.654415 0.617403
Si Si3 0.837847 0.353586 0.684951
Si Si4 0.661798 0.429040 0.309860
Si Si5 0.839510 0.454982 0.880135
Si Si6 0.719463 0.721821 0.427695
O O1 0.277432 0.628098 0.949306
O O2 0.000000 0.609185 0.960870
O O3 0.173541 0.558029 0.042628
O O4 0.140282 0.664833 0.048636
O O5 0.263046 0.630362 0.670876
O O6 0.155917 0.723555 0.610094
O O7 0.000000 0.633915 0.628771
O O8 0.750000 0.335841 0.750000
O O9 0.765833 0.412927 0.658531
O O10 0.825765 0.306554 0.625105
O O11 0.000000 0.362017 0.700526
O O12 0.500000 0.421679 0.295132
O O13 0.750000 0.454052 0.250000
O O14 0.679268 0.477505 0.365884
O O15 0.000000 0.441266 0.860877
O O16 0.750000 0.750000 0.500000
#
# Coordination Sequence:
#
# PCOD9481954 Si02
#       6
#    16  16  16  16  16  16
#     4   9  18  36  62  90 118 149 188 239 296 352
#     4  11  23  38  58  86 119 156 197 241 289 347
#     4  11  23  38  61  92 124 157 197 248 305 362
#     4  11  24  42  61  82 113 156 201 244 293 350
#     4   9  20  39  63  89 118 153 194 242 298 355
#     4   9  21  39  61  87 119 157 200 247 299 354
#
# _framework density 21.231377999999999
#
# number of rings (size 3 to 8) (size 9 to 14) (size 15 to 20)
#    0.000    2.000    0.000    2.500    0.000   15.333 
#    0.000    3.333    0.000    0.000    0.000    0.000 
#    0.000    0.000    0.000    0.000    0.000    0.000 
#
# Total GULP energy -267385.315723 kJ/mol
# GULP energy per Si atom -5570.527411 kJ/mol
# Density = 2.118305 g / cm^3
# Si number density = 21.231378 Si / 1000 Ang^3
#
#
#
# Elastic Constant Matrix: (Units=GPa)
#
#
# Indices 1 2 3 4 5 6 
#
# 1 151.3147 38.9710 33.9164 0.0000 0.0000 0.0000
# 2 38.9710 89.2261 29.9209 0.0000 0.0000 0.0000
# 3 33.9164 29.9209 49.1044 0.0000 0.0000 0.0000
# 4 0.0000 0.0000 0.0000 32.7284 0.0000 0.0000
# 5 0.0000 0.0000 0.0000 0.0000 27.1153 0.0000
# 6 0.0000 0.0000 0.0000 0.0000 0.0000 12.7006
#
#
#
# Elastic Compliance Matrix: (Units=1/GPa)
#
#
# Indices 1 2 3 4 5 6 
#
# 1 0.008119 -0.002093 -0.004332 0.000000 0.000000 0.000000
# 2 -0.002093 0.014625 -0.007466 0.000000 0.000000 0.000000
# 3 -0.004332 -0.007466 0.027906 0.000000 0.000000 0.000000
# 4 0.000000 0.000000 0.000000 0.030555 0.000000 0.000000
# 5 0.000000 0.000000 0.000000 0.000000 0.036879 0.000000
# 6 0.000000 0.000000 0.000000 0.000000 0.000000 0.078737
#
#
# Mechanical properties :
#
#
# Convention : Reuss Voigt Hill
#
# Bulk Modulus (GPa) = 43.72974 55.02908 49.37941
# Shear Modulus (GPa) = 21.53073 26.96467 24.24770
#
# Velocity S-wave (km/s) = 3.18795 3.56763 3.38312
# Velocity P-wave (km/s) = 5.84741 6.55329 6.21039
#
# Compressibility (1/GPa) = 0.02286773
#
# Stress axis : x y z
#
# Youngs Moduli (GPa) = 123.16919 68.37444 35.83437
#
# Poissons Ratio (x) = 0.14313 0.15524
# Poissons Ratio (y) = 0.25783 0.26753
# Poissons Ratio (z) = 0.53359 0.51047
#
# Static dielectric constant tensor:
#      x y z
#    x 1.772550 0.000000 0.000000 
#    y 0.000000 1.795780 0.000000 
#    z 0.000000 0.000000 1.906990 
# 
# From -- ./inp_files/37026.got.cif
#   From: 2010.05.17/outbox.cif.g08.bks.cpg/sg64_19_cif.got.tgz:37026.got - 2010.06.03 16:29:19.
