data_PCOD9481815
_publ_section_title
;
Structure prediction by ZEFSAII (Michael W. Deem and Ramdas Pophale) SiO2 
 PCOD9481815
Probable space group: C M C A
;
_chemical_formula_sum "Si O2"
_cell_formula_units_Z 52
_cell_length_a 14.968486
_cell_length_b 27.722386
_cell_length_c 4.984558
_cell_angle_alpha 90.000000
_cell_angle_beta 90.000000
_cell_angle_gamma 90.000000
_cell_volume 2068.402888
_symmetry_space_group_name_H-M "C M C A"
_symmetry_group_IT_number 64
_symmetry_cell_setting 'orthorhombic'
loop_
_space_group_symop_operation_xyz
x,y,z
-x,1/2-y,1/2+z
x,-y,-z
-x,1/2+y,1/2-z
-x,-y,-z
x,1/2+y,1/2-z
-x,y,z
x,1/2-y,1/2+z
1/2+x,1/2+y,z
1/2-x,-y,1/2+z
1/2+x,1/2-y,-z
1/2-x,y,1/2-z
1/2-x,1/2-y,-z
1/2+x,y,1/2-z
1/2-x,1/2+y,z
1/2+x,-y,1/2+z
loop_
_atom_site_type_symbol
_atom_site_label
_atom_site_fract_x
_atom_site_fract_y
_atom_site_fract_z
Si Si1 0.891008 0.221363 0.057002
Si Si2 0.891786 0.619737 0.196295
Si Si3 0.847411 0.439906 0.293271
Si Si4 0.500000 0.000000 0.000000
O O1 0.863714 0.264037 0.259481
O O2 0.862656 0.170631 0.180746
O O3 0.000000 0.219566 0.053880
O O4 0.864571 0.578701 0.407614
O O5 0.000000 0.618965 0.173910
O O6 0.854191 0.606560 0.906351
O O7 0.750000 0.461061 0.250000
O O8 0.922962 0.475031 0.188695
#
# Coordination Sequence:
#
# PCOD9481815 Si02
#       4
#    16  16  16   4
#     4   9  17  30  58  99 136 182 239 286 335 410
#     4  11  21  43  70 101 147 190 235 294 357 421
#     4  12  27  46  74 106 143 188 234 299 367 436
#     4  12  28  54  76 108 140 182 240 302 364 448
#
# _framework density 25.140167999999999
#
# number of rings (size 3 to 8) (size 9 to 14) (size 15 to 20)
#    0.000    1.231    3.077    2.769    0.000    9.846 
#    0.000    0.000    0.000   18.462    0.000    0.000 
#    0.000    0.000    0.000    0.000    0.000    0.000 
#
# Total GULP energy -145283.274926 kJ/mol
# GULP energy per Si atom -5587.818266 kJ/mol
# Density = 2.508295 g / cm^3
# Si number density = 25.140168 Si / 1000 Ang^3
#
#
#
# Elastic Constant Matrix: (Units=GPa)
#
#
# Indices 1 2 3 4 5 6 
#
# 1 157.6407 10.9989 -20.1140 0.0000 0.0000 0.0000
# 2 10.9989 73.2414 0.4539 0.0000 0.0000 0.0000
# 3 -20.1140 0.4539 55.2653 0.0000 0.0000 0.0000
# 4 0.0000 0.0000 0.0000 47.8306 0.0000 0.0000
# 5 0.0000 0.0000 0.0000 0.0000 9.0524 0.0000
# 6 0.0000 0.0000 0.0000 0.0000 0.0000 58.6568
#
#
#
# Elastic Compliance Matrix: (Units=1/GPa)
#
#
# Indices 1 2 3 4 5 6 
#
# 1 0.006729 -0.001026 0.002457 0.000000 0.000000 0.000000
# 2 -0.001026 0.013811 -0.000487 0.000000 0.000000 0.000000
# 3 0.002457 -0.000487 0.018993 0.000000 0.000000 0.000000
# 4 0.000000 0.000000 0.000000 0.020907 0.000000 0.000000
# 5 0.000000 0.000000 0.000000 0.000000 0.110468 0.000000
# 6 0.000000 0.000000 0.000000 0.000000 0.000000 0.017048
#
#
# Mechanical properties :
#
#
# Convention : Reuss Voigt Hill
#
# Bulk Modulus (GPa) = 24.14181 29.86943 27.00562
# Shear Modulus (GPa) = 25.01594 42.76186 33.88890
#
# Velocity S-wave (km/s) = 3.15788 4.12872 3.67549
# Velocity P-wave (km/s) = 4.78748 5.88518 5.36448
#
# Compressibility (1/GPa) = 0.04142192
#
# Stress axis : x y z
#
# Youngs Moduli (GPa) = 148.61830 72.40849 52.65125
#
# Poissons Ratio (x) = 0.07427 -0.12938
# Poissons Ratio (y) = 0.15244 0.02563
# Poissons Ratio (z) = -0.36521 0.03524
#
# Static dielectric constant tensor:
#      x y z
#    x 1.961480 0.000000 0.000000 
#    y 0.000000 2.037130 0.000000 
#    z 0.000000 0.000000 1.909660 
# 
# From -- ./inp_files/1173.got.cif
#   From: 2010.05.17/outbox.cif.g08.bks.cpg/sg64_1_cif.got.tgz:1173.got - 2010.06.03 16:29:19.
