data_PCOD9481901
_publ_section_title
;
Structure prediction by ZEFSAII (Michael W. Deem and Ramdas Pophale) SiO2 
 PCOD9481901
Probable space group: C M C A
;
_chemical_formula_sum "Si O2"
_cell_formula_units_Z 64
_cell_length_a 15.830899
_cell_length_b 15.681140
_cell_length_c 12.232798
_cell_angle_alpha 90.000000
_cell_angle_beta 90.000000
_cell_angle_gamma 90.000000
_cell_volume 3036.749821
_symmetry_space_group_name_H-M "C M C A"
_symmetry_group_IT_number 64
_symmetry_cell_setting 'orthorhombic'
loop_
_space_group_symop_operation_xyz
x,y,z
-x,1/2-y,1/2+z
x,-y,-z
-x,1/2+y,1/2-z
-x,-y,-z
x,1/2+y,1/2-z
-x,y,z
x,1/2-y,1/2+z
1/2+x,1/2+y,z
1/2-x,-y,1/2+z
1/2+x,1/2-y,-z
1/2-x,y,1/2-z
1/2-x,1/2-y,-z
1/2+x,y,1/2-z
1/2-x,1/2+y,z
1/2+x,-y,1/2+z
loop_
_atom_site_type_symbol
_atom_site_label
_atom_site_fract_x
_atom_site_fract_y
_atom_site_fract_z
Si Si1 0.838924 0.241568 0.436571
Si Si2 0.500000 0.008916 0.169701
Si Si3 0.601062 0.097399 0.493827
Si Si4 0.500000 0.646436 0.527720
Si Si5 0.341968 0.603415 0.242361
O O1 0.750000 0.250000 0.500000
O O2 0.866762 0.338738 0.413428
O O3 0.837818 0.180740 0.330033
O O4 0.915416 0.201244 0.509180
O O5 0.584102 0.036696 0.232062
O O6 0.500000 0.910682 0.136046
O O7 0.500000 0.073914 0.066715
O O8 0.500000 0.097399 0.492597
O O9 0.636636 0.133305 0.379404
O O10 0.630916 0.000000 0.500000
O O11 0.250000 0.561989 0.250000
#
# Coordination Sequence:
#
# PCOD9481901 Si02
#       5
#    16   8  16   8  16
#     4  11  22  41  69  97 131 177 223 277 338 408
#     4   9  20  39  64  95 131 171 219 273 336 397
#     4  11  24  44  65  92 133 176 225 285 343 404
#     4   9  20  39  64  95 131 173 218 276 329 395
#     4  11  22  41  67  95 133 174 220 275 337 410
#
# _framework density 21.075164000000001
#
# number of rings (size 3 to 8) (size 9 to 14) (size 15 to 20)
#    0.000    1.500    5.000    0.000    0.000    2.000 
#    4.500    1.250    0.000    0.000    0.000    0.000 
#    0.000    0.000    0.000    0.000    0.000    0.000 
#
# Total GULP energy -178520.866421 kJ/mol
# GULP energy per Si atom -5578.777076 kJ/mol
# Density = 2.102720 g / cm^3
# Si number density = 21.075164 Si / 1000 Ang^3
#
#
#
# Elastic Constant Matrix: (Units=GPa)
#
#
# Indices 1 2 3 4 5 6 
#
# 1 154.2206 51.5544 23.9657 0.0000 0.0000 0.0000
# 2 51.5544 124.1885 29.3248 0.0000 0.0000 0.0000
# 3 23.9657 29.3248 55.8707 0.0000 0.0000 0.0000
# 4 0.0000 0.0000 0.0000 13.8655 0.0000 0.0000
# 5 0.0000 0.0000 0.0000 0.0000 28.1321 0.0000
# 6 0.0000 0.0000 0.0000 0.0000 0.0000 7.5200
#
#
#
# Elastic Compliance Matrix: (Units=1/GPa)
#
#
# Indices 1 2 3 4 5 6 
#
# 1 0.007694 -0.002756 -0.001854 0.000000 0.000000 0.000000
# 2 -0.002756 0.010179 -0.004160 0.000000 0.000000 0.000000
# 3 -0.001854 -0.004160 0.020877 0.000000 0.000000 0.000000
# 4 0.000000 0.000000 0.000000 0.072121 0.000000 0.000000
# 5 0.000000 0.000000 0.000000 0.000000 0.035547 0.000000
# 6 0.000000 0.000000 0.000000 0.000000 0.000000 0.132979
#
#
# Mechanical properties :
#
#
# Convention : Reuss Voigt Hill
#
# Bulk Modulus (GPa) = 47.14850 60.44105 53.79477
# Shear Modulus (GPa) = 16.44701 25.19918 20.82309
#
# Velocity S-wave (km/s) = 2.79659 3.46161 3.14672
# Velocity P-wave (km/s) = 5.73132 6.68716 6.22761
#
# Compressibility (1/GPa) = 0.02120958
#
# Stress axis : x y z
#
# Youngs Moduli (GPa) = 129.97791 98.24326 47.89929
#
# Poissons Ratio (x) = 0.27078 0.08878
# Poissons Ratio (y) = 0.35824 0.19927
# Poissons Ratio (z) = 0.24092 0.40872
#
# Static dielectric constant tensor:
#      x y z
#    x 1.797910 0.000000 0.000000 
#    y 0.000000 1.798150 0.000000 
#    z 0.000000 0.000000 1.812070 
# 
# From -- ./inp_files/14060.got.cif
#   From: 2010.05.17/outbox.cif.g08.bks.cpg/sg64_8_cif.got.tgz:14060.got - 2010.06.03 16:29:19.
