data_PCOD9481487
_publ_section_title
;
Structure prediction by ZEFSAII (Michael W. Deem and Ramdas Pophale) SiO2 
 PCOD9481487
Probable space group: C M C A
;
_chemical_formula_sum "Si O2"
_cell_formula_units_Z 52
_cell_length_a 19.852544
_cell_length_b 13.305597
_cell_length_c 7.223156
_cell_angle_alpha 90.000000
_cell_angle_beta 90.000000
_cell_angle_gamma 90.000000
_cell_volume 1907.996295
_symmetry_space_group_name_H-M "C M C A"
_symmetry_group_IT_number 64
_symmetry_cell_setting 'orthorhombic'
loop_
_space_group_symop_operation_xyz
x,y,z
-x,1/2-y,1/2+z
x,-y,-z
-x,1/2+y,1/2-z
-x,-y,-z
x,1/2+y,1/2-z
-x,y,z
x,1/2-y,1/2+z
1/2+x,1/2+y,z
1/2-x,-y,1/2+z
1/2+x,1/2-y,-z
1/2-x,y,1/2-z
1/2-x,1/2-y,-z
1/2+x,y,1/2-z
1/2-x,1/2+y,z
1/2+x,-y,1/2+z
loop_
_atom_site_type_symbol
_atom_site_label
_atom_site_fract_x
_atom_site_fract_y
_atom_site_fract_z
Si Si1 0.740876 0.112072 0.467915
Si Si2 0.107001 0.612449 0.023479
Si Si3 0.000000 0.500000 0.500000
Si Si4 0.102245 0.328382 0.547151
O O1 0.750000 0.130421 0.250000
O O2 0.815671 0.110651 0.551217
O O3 0.678655 0.179685 0.532490
O O4 0.714511 0.000000 0.500000
O O5 0.075392 0.714610 0.945728
O O6 0.078745 0.500000 0.000000
O O7 0.105585 0.631877 0.243064
O O8 0.941967 0.586346 0.548290
#
# Coordination Sequence:
#
# PCOD9481487 Si02
#       4
#    16  16   4  16
#     4   9  18  36  66 102 135 172 223 290 348 409
#     4  10  24  43  72 106 133 176 233 292 352 403
#     4  12  28  44  72  96 134 202 228 264 342 416
#     4  11  24  44  68  99 143 182 232 281 344 411
#
# _framework density 27.253720999999999
#
# number of rings (size 3 to 8) (size 9 to 14) (size 15 to 20)
#    0.000    1.846    1.538    0.923    4.308    3.692 
#    0.000    6.154    0.000    0.000    0.000    0.000 
#    0.000    0.000    0.000    0.000    0.000    0.000 
#
# Total GULP energy -144856.711268 kJ/mol
# GULP energy per Si atom -5571.411972 kJ/mol
# Density = 2.719169 g / cm^3
# Si number density = 27.253721 Si / 1000 Ang^3
#
#
#
# Elastic Constant Matrix: (Units=GPa)
#
#
# Indices 1 2 3 4 5 6 
#
# 1 159.5802 42.0597 -5.9100 0.0000 0.0000 0.0000
# 2 42.0597 280.5421 7.5218 0.0000 0.0000 0.0000
# 3 -5.9100 7.5218 85.5065 0.0000 0.0000 0.0000
# 4 0.0000 0.0000 0.0000 45.1681 0.0000 0.0000
# 5 0.0000 0.0000 0.0000 0.0000 74.9291 0.0000
# 6 0.0000 0.0000 0.0000 0.0000 0.0000 -22.5543
#
#
#
# Elastic Compliance Matrix: (Units=1/GPa)
#
#
# Indices 1 2 3 4 5 6 
#
# 1 0.006549 -0.000996 0.000540 0.000000 0.000000 0.000000
# 2 -0.000996 0.003725 -0.000397 0.000000 0.000000 0.000000
# 3 0.000540 -0.000397 0.011767 0.000000 0.000000 0.000000
# 4 0.000000 0.000000 0.000000 0.022139 0.000000 0.000000
# 5 0.000000 0.000000 0.000000 0.000000 0.013346 0.000000
# 6 0.000000 0.000000 0.000000 0.000000 0.000000 -0.044337
#
#
# Mechanical properties :
#
#
# Convention : Reuss Voigt Hill
#
# Bulk Modulus (GPa) = 49.17450 68.10797 58.64124
# Shear Modulus (GPa) = 230.70746 51.63908 141.17327
#
# Velocity S-wave (km/s) = 9.21062 4.35760 7.20500
# Velocity P-wave (km/s) = 11.45410 7.09668 9.52783
#
# Compressibility (1/GPa) = 0.02033574
#
# Stress axis : x y z
#
# Youngs Moduli (GPa) = 152.69390 268.49011 84.98172
#
# Poissons Ratio (x) = 0.26751 -0.04592
# Poissons Ratio (y) = 0.15213 0.03370
# Poissons Ratio (z) = -0.08250 0.10646
#
# Static dielectric constant tensor:
#      x y z
#    x 2.140650 0.000000 0.000000 
#    y 0.000000 2.083260 0.000000 
#    z 0.000000 0.000000 2.122970 
# 
# From -- ./inp_files/7559.got.cif
#   From: 2010.05.17/outbox.cif.g08.bks.cpg/sg64_4_cif.got.tgz:7559.got - 2010.06.03 16:29:19.
