data_PCOD9481609
_publ_section_title
;
Structure prediction by ZEFSAII (Michael W. Deem and Ramdas Pophale) SiO2 
 PCOD9481609
Probable space group: C M C A
;
_chemical_formula_sum "Si O2"
_cell_formula_units_Z 116
_cell_length_a 19.431735
_cell_length_b 23.184141
_cell_length_c 11.989384
_cell_angle_alpha 90.000000
_cell_angle_beta 90.000000
_cell_angle_gamma 90.000000
_cell_volume 5401.314416
_symmetry_space_group_name_H-M "C M C A"
_symmetry_group_IT_number 64
_symmetry_cell_setting 'orthorhombic'
loop_
_space_group_symop_operation_xyz
x,y,z
-x,1/2-y,1/2+z
x,-y,-z
-x,1/2+y,1/2-z
-x,-y,-z
x,1/2+y,1/2-z
-x,y,z
x,1/2-y,1/2+z
1/2+x,1/2+y,z
1/2-x,-y,1/2+z
1/2+x,1/2-y,-z
1/2-x,y,1/2-z
1/2-x,1/2-y,-z
1/2+x,y,1/2-z
1/2-x,1/2+y,z
1/2+x,-y,1/2+z
loop_
_atom_site_type_symbol
_atom_site_label
_atom_site_fract_x
_atom_site_fract_y
_atom_site_fract_z
Si Si1 0.417762 0.823740 0.133695
Si Si2 0.148314 0.872952 0.593353
Si Si3 0.500000 0.500000 0.500000
Si Si4 0.674668 0.216158 0.295490
Si Si5 0.109841 0.000248 0.672251
Si Si6 0.693912 0.118723 0.464816
Si Si7 0.927374 0.457041 0.602532
Si Si8 0.323511 0.901280 0.275759
O O1 0.500000 0.818699 0.132897
O O2 0.379576 0.765808 0.176918
O O3 0.388394 0.869799 0.221919
O O4 0.390158 0.843136 0.011054
O O5 0.151340 0.828513 0.697733
O O6 0.117714 0.933766 0.634165
O O7 0.225321 0.890384 0.554226
O O8 0.560417 0.527011 0.580592
O O9 0.750000 0.236027 0.250000
O O10 0.683568 0.182190 0.412915
O O11 0.071946 0.996001 0.789107
O O12 0.175799 0.038055 0.706385
O O13 0.641936 0.079569 0.393858
O O14 0.673236 0.103115 0.590975
O O15 0.924144 0.500000 0.500000
O O16 0.000000 0.423207 0.596888
O O17 0.250000 0.872836 0.250000
#
# Coordination Sequence:
#
# PCOD9481609 Si02
#       8
#    16  16   4  16  16  16  16  16
#     4  12  29  49  73 106 145 194 247 305 374 440
#     4  11  26  47  75 111 146 192 247 305 369 448
#     4  12  28  44  66 104 148 208 230 298 372 440
#     4  10  25  47  79 106 144 192 248 311 377 437
#     4  12  26  44  72 104 152 194 240 293 373 447
#     4  11  24  46  74 105 143 187 243 302 362 433
#     4  11  23  41  65 101 143 193 239 297 356 434
#     4  12  27  46  73 107 148 191 242 299 361 445
#
# _framework density 21.476254999999998
#
# number of rings (size 3 to 8) (size 9 to 14) (size 15 to 20)
#    0.000    0.690    4.828    1.241    7.724    2.759 
#    0.000    0.000    0.000    0.000    0.000    0.000 
#    0.000    0.000    0.000    0.000    0.000    0.000 
#
# Total GULP energy -322952.957859 kJ/mol
# GULP energy per Si atom -5568.154446 kJ/mol
# Density = 2.142737 g / cm^3
# Si number density = 21.476255 Si / 1000 Ang^3
#
#
#
# Elastic Constant Matrix: (Units=GPa)
#
#
# Indices 1 2 3 4 5 6 
#
# 1 124.9224 24.0600 27.6492 0.0000 0.0000 0.0000
# 2 24.0600 70.4900 26.7905 0.0000 0.0000 0.0000
# 3 27.6492 26.7905 150.1371 0.0000 0.0000 0.0000
# 4 0.0000 0.0000 0.0000 20.1255 0.0000 0.0000
# 5 0.0000 0.0000 0.0000 0.0000 84.2640 0.0000
# 6 0.0000 0.0000 0.0000 0.0000 0.0000 71.1718
#
#
#
# Elastic Compliance Matrix: (Units=1/GPa)
#
#
# Indices 1 2 3 4 5 6 
#
# 1 0.008752 -0.002547 -0.001157 0.000000 0.000000 0.000000
# 2 -0.002547 0.015960 -0.002379 0.000000 0.000000 0.000000
# 3 -0.001157 -0.002379 0.007298 0.000000 0.000000 0.000000
# 4 0.000000 0.000000 0.000000 0.049688 0.000000 0.000000
# 5 0.000000 0.000000 0.000000 0.000000 0.011867 0.000000
# 6 0.000000 0.000000 0.000000 0.000000 0.000000 0.014051
#
#
# Mechanical properties :
#
#
# Convention : Reuss Voigt Hill
#
# Bulk Modulus (GPa) = 50.39510 55.83875 53.11693
# Shear Modulus (GPa) = 39.55791 52.91558 46.23674
#
# Velocity S-wave (km/s) = 4.29644 4.96916 4.64499
# Velocity P-wave (km/s) = 6.93750 7.67985 7.31810
#
# Compressibility (1/GPa) = 0.01984320
#
# Stress axis : x y z
#
# Youngs Moduli (GPa) = 114.26336 62.65671 137.02101
#
# Poissons Ratio (x) = 0.15961 0.15855
# Poissons Ratio (y) = 0.29107 0.32594
# Poissons Ratio (z) = 0.13222 0.14905
#
# Static dielectric constant tensor:
#      x y z
#    x 1.837520 0.000000 0.000000 
#    y 0.000000 1.866500 0.000000 
#    z 0.000000 0.000000 1.792700 
# 
# From -- ./inp_files/16495.got.cif
#   From: 2010.05.17/outbox.cif.g08.bks.cpg/sg64_9_cif.got.tgz:16495.got - 2010.06.03 16:29:19.
