data_PCOD9481573
_publ_section_title
;
Structure prediction by ZEFSAII (Michael W. Deem and Ramdas Pophale) SiO2 
 PCOD9481573
Probable space group: C M C A
;
_chemical_formula_sum "Si O2"
_cell_formula_units_Z 72
_cell_length_a 14.183052
_cell_length_b 8.479124
_cell_length_c 23.664730
_cell_angle_alpha 90.000000
_cell_angle_beta 90.000000
_cell_angle_gamma 90.000000
_cell_volume 2845.917036
_symmetry_space_group_name_H-M "C M C A"
_symmetry_group_IT_number 64
_symmetry_cell_setting 'orthorhombic'
loop_
_space_group_symop_operation_xyz
x,y,z
-x,1/2-y,1/2+z
x,-y,-z
-x,1/2+y,1/2-z
-x,-y,-z
x,1/2+y,1/2-z
-x,y,z
x,1/2-y,1/2+z
1/2+x,1/2+y,z
1/2-x,-y,1/2+z
1/2+x,1/2-y,-z
1/2-x,y,1/2-z
1/2-x,1/2-y,-z
1/2+x,y,1/2-z
1/2-x,1/2+y,z
1/2+x,-y,1/2+z
loop_
_atom_site_type_symbol
_atom_site_label
_atom_site_fract_x
_atom_site_fract_y
_atom_site_fract_z
Si Si1 0.147219 0.965165 0.267338
Si Si2 0.500000 0.938408 0.591788
Si Si3 0.673347 0.247021 0.372324
Si Si4 0.000000 0.745271 0.527800
Si Si5 0.318912 0.447003 0.556443
Si Si6 0.000000 0.757999 0.707898
O O1 0.250000 0.027441 0.250000
O O2 0.172868 0.827788 0.312151
O O3 0.082533 0.101659 0.294514
O O4 0.082926 0.876831 0.220902
O O5 0.590755 0.879381 0.624260
O O6 0.500000 0.851101 0.530576
O O7 0.500000 0.123386 0.580232
O O8 0.650959 0.393777 0.413220
O O9 0.762255 0.160097 0.399724
O O10 0.092269 0.850166 0.534358
O O11 0.260855 0.500000 0.500000
#
# Coordination Sequence:
#
# PCOD9481573 Si02
#       6
#    16   8  16   8  16   8
#     4  11  26  50  76 108 146 191 245 310 374 442
#     4  11  23  44  70  99 147 186 239 295 356 430
#     4  12  27  44  73 106 142 185 246 294 366 435
#     4  11  24  43  68 101 145 197 232 298 353 422
#     4  12  25  46  69 105 146 194 239 297 354 438
#     4  10  24  48  77 103 145 186 238 309 369 433
#
# _framework density 25.299401
#
# number of rings (size 3 to 8) (size 9 to 14) (size 15 to 20)
#    0.000    0.667    2.222    5.000    9.333    0.000 
#    4.000    0.000    0.000    0.000    0.000    0.000 
#    0.000    0.000    0.000    0.000    0.000    0.000 
#
# Total GULP energy -200817.119485 kJ/mol
# GULP energy per Si atom -5578.253319 kJ/mol
# Density = 2.524182 g / cm^3
# Si number density = 25.299401 Si / 1000 Ang^3
#
#
#
# Elastic Constant Matrix: (Units=GPa)
#
#
# Indices 1 2 3 4 5 6 
#
# 1 175.3725 36.8110 28.0403 0.0000 0.0000 0.0000
# 2 36.8110 145.0689 32.7387 0.0000 0.0000 0.0000
# 3 28.0403 32.7387 70.9677 0.0000 0.0000 0.0000
# 4 0.0000 0.0000 0.0000 31.4124 0.0000 0.0000
# 5 0.0000 0.0000 0.0000 0.0000 17.4274 0.0000
# 6 0.0000 0.0000 0.0000 0.0000 0.0000 38.3344
#
#
#
# Elastic Compliance Matrix: (Units=1/GPa)
#
#
# Indices 1 2 3 4 5 6 
#
# 1 0.006254 -0.001149 -0.001941 0.000000 0.000000 0.000000
# 2 -0.001149 0.007905 -0.003193 0.000000 0.000000 0.000000
# 3 -0.001941 -0.003193 0.016331 0.000000 0.000000 0.000000
# 4 0.000000 0.000000 0.000000 0.031835 0.000000 0.000000
# 5 0.000000 0.000000 0.000000 0.000000 0.057381 0.000000
# 6 0.000000 0.000000 0.000000 0.000000 0.000000 0.026086
#
#
# Mechanical properties :
#
#
# Convention : Reuss Voigt Hill
#
# Bulk Modulus (GPa) = 55.79006 65.17656 60.48331
# Shear Modulus (GPa) = 30.42628 37.02277 33.72452
#
# Velocity S-wave (km/s) = 3.47168 3.82957 3.65501
# Velocity P-wave (km/s) = 6.17818 6.73589 6.46305
#
# Compressibility (1/GPa) = 0.01792434
#
# Stress axis : x y z
#
# Youngs Moduli (GPa) = 159.90728 126.49630 61.23402
#
# Poissons Ratio (x) = 0.14532 0.11885
# Poissons Ratio (y) = 0.18371 0.19552
# Poissons Ratio (z) = 0.31037 0.40390
#
# Static dielectric constant tensor:
#      x y z
#    x 1.934860 0.000000 0.000000 
#    y 0.000000 1.940400 0.000000 
#    z 0.000000 0.000000 2.165010 
# 
# From -- ./inp_files/49848.got.cif
#   From: 2010.05.17/outbox.cif.g08.bks.cpg/sg64_25_cif.got.tgz:49848.got - 2010.06.03 16:29:19.
