data_PCOD9481625
_publ_section_title
;
Structure prediction by ZEFSAII (Michael W. Deem and Ramdas Pophale) SiO2 
 PCOD9481625
Probable space group: C M C A
;
_chemical_formula_sum "Si O2"
_cell_formula_units_Z 52
_cell_length_a 21.600440
_cell_length_b 14.030882
_cell_length_c 7.509454
_cell_angle_alpha 90.000000
_cell_angle_beta 90.000000
_cell_angle_gamma 90.000000
_cell_volume 2275.914440
_symmetry_space_group_name_H-M "C M C A"
_symmetry_group_IT_number 64
_symmetry_cell_setting 'orthorhombic'
loop_
_space_group_symop_operation_xyz
x,y,z
-x,1/2-y,1/2+z
x,-y,-z
-x,1/2+y,1/2-z
-x,-y,-z
x,1/2+y,1/2-z
-x,y,z
x,1/2-y,1/2+z
1/2+x,1/2+y,z
1/2-x,-y,1/2+z
1/2+x,1/2-y,-z
1/2-x,y,1/2-z
1/2-x,1/2-y,-z
1/2+x,y,1/2-z
1/2-x,1/2+y,z
1/2+x,-y,1/2+z
loop_
_atom_site_type_symbol
_atom_site_label
_atom_site_fract_x
_atom_site_fract_y
_atom_site_fract_z
Si Si1 0.929092 0.851285 0.132723
Si Si2 0.904421 0.131476 0.286252
Si Si3 0.000000 0.500000 0.000000
Si Si4 0.818123 0.018733 0.791290
O O1 0.924972 0.874883 0.922303
O O2 0.000000 0.872960 0.196625
O O3 0.913472 0.740522 0.158163
O O4 0.875765 0.909746 0.232951
O O5 0.947559 0.067626 0.405928
O O6 0.836768 0.082146 0.298243
O O7 0.750000 0.055299 0.750000
O O8 0.816778 0.000000 0.000000
#
# Coordination Sequence:
#
# PCOD9481625 Si02
#       4
#    16  16   4  16
#     4  11  23  44  69 106 140 176 234 291 350 407
#     4  11  26  41  72 103 141 181 228 290 348 418
#     4  12  24  40  70 104 136 178 218 288 346 412
#     4  10  26  46  67  99 143 191 236 285 347 417
#
# _framework density 22.847957999999998
#
# number of rings (size 3 to 8) (size 9 to 14) (size 15 to 20)
#    0.000    1.231    3.077    0.000    8.615    3.077 
#    0.000    6.154    0.000    0.000    0.000    0.000 
#    0.000    0.000    0.000    0.000    0.000    0.000 
#
# Total GULP energy -144976.300762 kJ/mol
# GULP energy per Si atom -5576.011568 kJ/mol
# Density = 2.279596 g / cm^3
# Si number density = 22.847958 Si / 1000 Ang^3
#
#
#
# Elastic Constant Matrix: (Units=GPa)
#
#
# Indices 1 2 3 4 5 6 
#
# 1 188.4078 113.4456 53.3521 0.0000 0.0000 0.0000
# 2 113.4456 125.4011 25.4974 0.0000 0.0000 0.0000
# 3 53.3521 25.4974 66.8806 0.0000 0.0000 0.0000
# 4 0.0000 0.0000 0.0000 44.5696 0.0000 0.0000
# 5 0.0000 0.0000 0.0000 0.0000 23.1021 0.0000
# 6 0.0000 0.0000 0.0000 0.0000 0.0000 23.3615
#
#
#
# Elastic Compliance Matrix: (Units=1/GPa)
#
#
# Indices 1 2 3 4 5 6 
#
# 1 0.014102 -0.011350 -0.006922 0.000000 0.000000 0.000000
# 2 -0.011350 0.017780 0.002276 0.000000 0.000000 0.000000
# 3 -0.006922 0.002276 0.019607 0.000000 0.000000 0.000000
# 4 0.000000 0.000000 0.000000 0.022437 0.000000 0.000000
# 5 0.000000 0.000000 0.000000 0.000000 0.043286 0.000000
# 6 0.000000 0.000000 0.000000 0.000000 0.000000 0.042805
#
#
# Mechanical properties :
#
#
# Convention : Reuss Voigt Hill
#
# Bulk Modulus (GPa) = 51.29501 85.03106 68.16303
# Shear Modulus (GPa) = 25.18784 30.76626 27.97705
#
# Velocity S-wave (km/s) = 3.32386 3.67354 3.50306
# Velocity P-wave (km/s) = 6.10164 7.43573 6.80147
#
# Compressibility (1/GPa) = 0.01949507
#
# Stress axis : x y z
#
# Youngs Moduli (GPa) = 70.91123 56.24395 51.00336
#
# Poissons Ratio (x) = 0.63838 0.35307
# Poissons Ratio (y) = 0.80485 -0.11608
# Poissons Ratio (z) = 0.49088 -0.12801
#
# Static dielectric constant tensor:
#      x y z
#    x 1.862050 0.000000 0.000000 
#    y 0.000000 1.855270 0.000000 
#    z 0.000000 0.000000 2.293500 
# 
# From -- ./inp_files/7536.got.cif
#   From: 2010.05.17/outbox.cif.g08.bks.cpg/sg64_4_cif.got.tgz:7536.got - 2010.06.03 16:29:19.
