data_PCOD9481687
_publ_section_title
;
Structure prediction by ZEFSAII (Michael W. Deem and Ramdas Pophale) SiO2 
 PCOD9481687
Probable space group: C M C A
;
_chemical_formula_sum "Si O2"
_cell_formula_units_Z 64
_cell_length_a 21.414383
_cell_length_b 31.239258
_cell_length_c 5.083574
_cell_angle_alpha 90.000000
_cell_angle_beta 90.000000
_cell_angle_gamma 90.000000
_cell_volume 3400.755629
_symmetry_space_group_name_H-M "C M C A"
_symmetry_group_IT_number 64
_symmetry_cell_setting 'orthorhombic'
loop_
_space_group_symop_operation_xyz
x,y,z
-x,1/2-y,1/2+z
x,-y,-z
-x,1/2+y,1/2-z
-x,-y,-z
x,1/2+y,1/2-z
-x,y,z
x,1/2-y,1/2+z
1/2+x,1/2+y,z
1/2-x,-y,1/2+z
1/2+x,1/2-y,-z
1/2-x,y,1/2-z
1/2-x,1/2-y,-z
1/2+x,y,1/2-z
1/2-x,1/2+y,z
1/2+x,-y,1/2+z
loop_
_atom_site_type_symbol
_atom_site_label
_atom_site_fract_x
_atom_site_fract_y
_atom_site_fract_z
Si Si1 0.076461 0.130438 0.051733
Si Si2 0.615682 0.918506 0.079768
Si Si3 0.424262 0.225234 0.246056
Si Si4 0.293779 0.000000 0.000000
Si Si5 0.500000 0.970830 0.251220
O O1 0.093235 0.098956 0.296348
O O2 0.091686 0.177967 0.156307
O O3 0.000000 0.129503 0.002978
O O4 0.119203 0.119943 0.794454
O O5 0.560599 0.942854 0.230737
O O6 0.666599 0.956028 0.040000
O O7 0.500000 0.226121 0.238135
O O8 0.403134 0.260413 0.458570
O O9 0.250000 0.006042 0.250000
O O10 0.500000 0.000000 0.500000
O O11 0.500000 0.000000 0.000000
#
# Coordination Sequence:
#
# PCOD9481687 Si02
#       5
#    16  16  16   8   8
#     4  11  20  33  54  87 117 146 186 227 274 329
#     4  12  23  37  58  81 112 144 192 237 276 329
#     4   9  17  29  46  72 116 160 180 201 255 335
#     4  12  28  45  58  75 108 152 194 236 282 334
#     4  12  22  34  56  84 108 142 180 232 286 332
#
# _framework density 18.819347
#
# number of rings (size 3 to 8) (size 9 to 14) (size 15 to 20)
#    0.000    1.000    3.750    4.500    1.750    4.000 
#    0.000    0.000    0.000    0.000    0.000    0.000 
#    0.000   70.000    0.000    0.000    0.000    0.000 
#
# Total GULP energy -178313.865037 kJ/mol
# GULP energy per Si atom -5572.308282 kJ/mol
# Density = 1.877651 g / cm^3
# Si number density = 18.819347 Si / 1000 Ang^3
#
#
#
# Elastic Constant Matrix: (Units=GPa)
#
#
# Indices 1 2 3 4 5 6 
#
# 1 54.4627 22.4524 13.8671 0.0000 0.0000 0.0000
# 2 22.4524 66.7812 2.2150 0.0000 0.0000 0.0000
# 3 13.8671 2.2150 98.6674 0.0000 0.0000 0.0000
# 4 0.0000 0.0000 0.0000 41.5374 0.0000 0.0000
# 5 0.0000 0.0000 0.0000 0.0000 -37.6226 0.0000
# 6 0.0000 0.0000 0.0000 0.0000 0.0000 -10.8185
#
#
#
# Elastic Compliance Matrix: (Units=1/GPa)
#
#
# Indices 1 2 3 4 5 6 
#
# 1 0.022140 -0.007346 -0.002947 0.000000 0.000000 0.000000
# 2 -0.007346 0.017423 0.000641 0.000000 0.000000 0.000000
# 3 -0.002947 0.000641 0.010535 0.000000 0.000000 0.000000
# 4 0.000000 0.000000 0.000000 0.024075 0.000000 0.000000
# 5 0.000000 0.000000 0.000000 0.000000 -0.026580 0.000000
# 6 0.000000 0.000000 0.000000 0.000000 0.000000 -0.092435
#
#
# Mechanical properties :
#
#
# Convention : Reuss Voigt Hill
#
# Bulk Modulus (GPa) = 32.47297 32.99779 32.73538
# Shear Modulus (GPa) = -327.33659 10.71107 -158.31276
#
# Velocity S-wave (km/s) = -13.20280 2.38828 -9.18177
# Velocity P-wave (km/s) = 14.66717 5.01769 9.74548
#
# Compressibility (1/GPa) = 0.03079484
#
# Stress axis : x y z
#
# Youngs Moduli (GPa) = 45.16746 57.39623 94.92340
#
# Poissons Ratio (x) = 0.42162 0.27971
# Poissons Ratio (y) = 0.33179 -0.06087
# Poissons Ratio (z) = 0.13310 -0.03681
#
# Static dielectric constant tensor:
#      x y z
#    x 1.621150 0.000000 0.000000 
#    y 0.000000 1.804950 0.000000 
#    z 0.000000 0.000000 1.709430 
# 
# From -- ./inp_files/1369.got.cif
#   From: 2010.05.17/outbox.cif.g08.bks.cpg/sg64_1_cif.got.tgz:1369.got - 2010.06.03 16:29:19.
