data_PCOD9481504
_publ_section_title
;
Structure prediction by ZEFSAII (Michael W. Deem and Ramdas Pophale) SiO2 
 PCOD9481504
Probable space group: C M C A
;
_chemical_formula_sum "Si O2"
_cell_formula_units_Z 56
_cell_length_a 15.132375
_cell_length_b 12.328129
_cell_length_c 13.223068
_cell_angle_alpha 90.000000
_cell_angle_beta 90.000000
_cell_angle_gamma 90.000000
_cell_volume 2466.814523
_symmetry_space_group_name_H-M "C M C A"
_symmetry_group_IT_number 64
_symmetry_cell_setting 'orthorhombic'
loop_
_space_group_symop_operation_xyz
x,y,z
-x,1/2-y,1/2+z
x,-y,-z
-x,1/2+y,1/2-z
-x,-y,-z
x,1/2+y,1/2-z
-x,y,z
x,1/2-y,1/2+z
1/2+x,1/2+y,z
1/2-x,-y,1/2+z
1/2+x,1/2-y,-z
1/2-x,y,1/2-z
1/2-x,1/2-y,-z
1/2+x,y,1/2-z
1/2-x,1/2+y,z
1/2+x,-y,1/2+z
loop_
_atom_site_type_symbol
_atom_site_label
_atom_site_fract_x
_atom_site_fract_y
_atom_site_fract_z
Si Si1 0.000000 0.274919 0.306956
Si Si2 0.500000 0.419775 0.392222
Si Si3 0.500000 0.801551 0.523939
Si Si4 0.330430 0.923831 0.599012
Si Si5 0.360373 0.085756 0.173687
O O1 0.000000 0.344389 0.409506
O O2 0.083896 0.194941 0.310160
O O3 0.000000 0.348343 0.209362
O O4 0.500000 0.328635 0.477918
O O5 0.584669 0.496886 0.387593
O O6 0.410630 0.841540 0.576847
O O7 0.349092 0.966181 0.713400
O O8 0.230391 0.883438 0.617638
O O9 0.329367 0.000000 0.500000
#
# Coordination Sequence:
#
# PCOD9481504 Si02
#       5
#     8   8   8  16  16
#     4  11  23  44  70 100 138 168 235 283 333 407
#     4  11  22  45  68  97 128 183 221 272 346 397
#     4  12  24  40  72  97 129 182 226 277 339 404
#     4  11  23  45  67  97 135 179 228 274 336 399
#     4  10  24  44  67  99 141 174 217 292 335 392
#
# _framework density 22.701343999999999
#
# number of rings (size 3 to 8) (size 9 to 14) (size 15 to 20)
#    0.000    1.143    2.857    3.000    4.000    2.286 
#   10.286    0.000    0.000    0.000    0.000    0.000 
#    0.000    0.000    0.000    0.000    0.000    0.000 
#
# Total GULP energy -156412.925281 kJ/mol
# GULP energy per Si atom -5586.175903 kJ/mol
# Density = 2.264967 g / cm^3
# Si number density = 22.701344 Si / 1000 Ang^3
#
#
#
# Elastic Constant Matrix: (Units=GPa)
#
#
# Indices 1 2 3 4 5 6 
#
# 1 186.5968 66.6527 42.8726 0.0000 0.0000 0.0000
# 2 66.6527 71.3907 30.4619 0.0000 0.0000 0.0000
# 3 42.8726 30.4619 158.8481 0.0000 0.0000 0.0000
# 4 0.0000 0.0000 0.0000 47.5142 0.0000 0.0000
# 5 0.0000 0.0000 0.0000 0.0000 102.1869 0.0000
# 6 0.0000 0.0000 0.0000 0.0000 0.0000 -157.8716
#
#
#
# Elastic Compliance Matrix: (Units=1/GPa)
#
#
# Indices 1 2 3 4 5 6 
#
# 1 0.008134 -0.007251 -0.000805 0.000000 0.000000 0.000000
# 2 -0.007251 0.021719 -0.002208 0.000000 0.000000 0.000000
# 3 -0.000805 -0.002208 0.006936 0.000000 0.000000 0.000000
# 4 0.000000 0.000000 0.000000 0.021046 0.000000 0.000000
# 5 0.000000 0.000000 0.000000 0.000000 0.009786 0.000000
# 6 0.000000 0.000000 0.000000 0.000000 0.000000 -0.006334
#
#
# Mechanical properties :
#
#
# Convention : Reuss Voigt Hill
#
# Bulk Modulus (GPa) = 61.49409 77.42335 69.45872
# Shear Modulus (GPa) = 57.31616 16.82246 37.06931
#
# Velocity S-wave (km/s) = 5.03018 2.72515 4.04532
# Velocity P-wave (km/s) = 7.80282 6.63936 7.24449
#
# Compressibility (1/GPa) = 0.01626173
#
# Stress axis : x y z
#
# Youngs Moduli (GPa) = 122.93954 46.04227 144.17538
#
# Poissons Ratio (x) = 0.33384 0.11605
# Poissons Ratio (y) = 0.89141 0.31835
# Poissons Ratio (z) = 0.09895 0.10166
#
# Static dielectric constant tensor:
#      x y z
#    x 1.848790 0.000000 0.000000 
#    y 0.000000 1.819060 0.000000 
#    z 0.000000 0.000000 1.888160 
# 
# From -- ./inp_files/23059.got.cif
#   From: 2010.05.17/outbox.cif.g08.bks.cpg/sg64_12_cif.got.tgz:23059.got - 2010.06.03 16:29:19.
