data_PCOD9481522
_publ_section_title
;
Structure prediction by ZEFSAII (Michael W. Deem and Ramdas Pophale) SiO2 
 PCOD9481522
Probable space group: C M C A
;
_chemical_formula_sum "Si O2"
_cell_formula_units_Z 56
_cell_length_a 15.800289
_cell_length_b 8.593572
_cell_length_c 16.569724
_cell_angle_alpha 90.000000
_cell_angle_beta 90.000000
_cell_angle_gamma 90.000000
_cell_volume 2249.852388
_symmetry_space_group_name_H-M "C M C A"
_symmetry_group_IT_number 64
_symmetry_cell_setting 'orthorhombic'
loop_
_space_group_symop_operation_xyz
x,y,z
-x,1/2-y,1/2+z
x,-y,-z
-x,1/2+y,1/2-z
-x,-y,-z
x,1/2+y,1/2-z
-x,y,z
x,1/2-y,1/2+z
1/2+x,1/2+y,z
1/2-x,-y,1/2+z
1/2+x,1/2-y,-z
1/2-x,y,1/2-z
1/2-x,1/2-y,-z
1/2+x,y,1/2-z
1/2-x,1/2+y,z
1/2+x,-y,1/2+z
loop_
_atom_site_type_symbol
_atom_site_label
_atom_site_fract_x
_atom_site_fract_y
_atom_site_fract_z
Si Si1 0.350262 0.688308 0.667939
Si Si2 0.153047 0.813552 0.002373
Si Si3 0.750000 0.545688 0.250000
Si Si4 0.000000 0.993786 0.743230
Si Si5 0.500000 0.206736 0.624259
O O1 0.379756 0.739809 0.580913
O O2 0.322306 0.838819 0.718417
O O3 0.271165 0.568400 0.675150
O O4 0.419978 0.587619 0.710965
O O5 0.086085 0.768813 0.072482
O O6 0.250000 0.750000 0.000000
O O7 0.155112 0.000000 0.000000
O O8 0.000000 0.030925 0.838879
O O9 0.000000 0.829347 0.698056
#
# Coordination Sequence:
#
# PCOD9481522 Si02
#       5
#    16  16   8   8   8
#     4  11  25  47  76 111 156 206 264 328 400 480
#     4  12  30  52  82 120 167 217 267 343 418 494
#     4  10  24  44  80 114 154 204 266 324 386 492
#     4  12  29  49  83 111 156 209 271 337 401 482
#     4  12  32  55  82 118 168 214 283 335 420 482
#
# _framework density 24.890521
#
# number of rings (size 3 to 8) (size 9 to 14) (size 15 to 20)
#    0.000    0.571    0.000    4.714   24.000    1.143 
#    0.000    0.000    0.000    0.000    0.000    0.000 
#    0.000    0.000    0.000    0.000    0.000    0.000 
#
# Total GULP energy -156674.368788 kJ/mol
# GULP energy per Si atom -5595.513171 kJ/mol
# Density = 2.483387 g / cm^3
# Si number density = 24.890521 Si / 1000 Ang^3
#
#
#
# Elastic Constant Matrix: (Units=GPa)
#
#
# Indices 1 2 3 4 5 6 
#
# 1 118.8961 55.9632 42.6229 0.0000 0.0000 0.0000
# 2 55.9632 165.3115 49.2866 0.0000 0.0000 0.0000
# 3 42.6229 49.2866 113.4882 0.0000 0.0000 0.0000
# 4 0.0000 0.0000 0.0000 35.4113 0.0000 0.0000
# 5 0.0000 0.0000 0.0000 0.0000 42.9583 0.0000
# 6 0.0000 0.0000 0.0000 0.0000 0.0000 1793.3381
#
#
#
# Elastic Compliance Matrix: (Units=1/GPa)
#
#
# Indices 1 2 3 4 5 6 
#
# 1 0.010736 -0.002794 -0.002819 0.000000 0.000000 0.000000
# 2 -0.002794 0.007676 -0.002284 0.000000 0.000000 0.000000
# 3 -0.002819 -0.002284 0.010862 0.000000 0.000000 0.000000
# 4 0.000000 0.000000 0.000000 0.028240 0.000000 0.000000
# 5 0.000000 0.000000 0.000000 0.000000 0.023278 0.000000
# 6 0.000000 0.000000 0.000000 0.000000 0.000000 0.000558
#
#
# Mechanical properties :
#
#
# Convention : Reuss Voigt Hill
#
# Bulk Modulus (GPa) = 74.18262 77.04900 75.61581
# Shear Modulus (GPa) = 49.19407 390.99640 220.09524
#
# Velocity S-wave (km/s) = 4.45052 12.54701 9.41368
# Velocity P-wave (km/s) = 7.50185 15.52178 12.19023
#
# Compressibility (1/GPa) = 0.01348025
#
# Stress axis : x y z
#
# Youngs Moduli (GPa) = 93.14088 130.27372 92.06269
#
# Poissons Ratio (x) = 0.36401 0.25951
# Poissons Ratio (y) = 0.26026 0.21029
# Poissons Ratio (z) = 0.26255 0.29758
#
# Static dielectric constant tensor:
#      x y z
#    x -3.902820 0.000000 0.000000 
#    y 0.000000 1.941150 0.000000 
#    z 0.000000 0.000000 1.970610 
# 
# From -- ./inp_files/32695.got.cif
#   From: 2010.05.17/outbox.cif.g08.bks.cpg/sg64_17_cif.got.tgz:32695.got - 2010.06.03 16:29:19.
