data_PCOD9481974
_publ_section_title
;
Structure prediction by ZEFSAII (Michael W. Deem and Ramdas Pophale) SiO2 
 PCOD9481974
Probable space group: C M C A
;
_chemical_formula_sum "Si O2"
_cell_formula_units_Z 80
_cell_length_a 15.781232
_cell_length_b 29.492828
_cell_length_c 8.421838
_cell_angle_alpha 90.000000
_cell_angle_beta 90.000000
_cell_angle_gamma 90.000000
_cell_volume 3919.802682
_symmetry_space_group_name_H-M "C M C A"
_symmetry_group_IT_number 64
_symmetry_cell_setting 'orthorhombic'
loop_
_space_group_symop_operation_xyz
x,y,z
-x,1/2-y,1/2+z
x,-y,-z
-x,1/2+y,1/2-z
-x,-y,-z
x,1/2+y,1/2-z
-x,y,z
x,1/2-y,1/2+z
1/2+x,1/2+y,z
1/2-x,-y,1/2+z
1/2+x,1/2-y,-z
1/2-x,y,1/2-z
1/2-x,1/2-y,-z
1/2+x,y,1/2-z
1/2-x,1/2+y,z
1/2+x,-y,1/2+z
loop_
_atom_site_type_symbol
_atom_site_label
_atom_site_fract_x
_atom_site_fract_y
_atom_site_fract_z
Si Si1 0.903403 0.592751 0.545799
Si Si2 0.833749 0.125749 0.640120
Si Si3 0.759981 0.452079 0.938024
Si Si4 0.399325 0.281615 0.320567
Si Si5 0.899415 0.689863 0.454719
O O1 0.901309 0.607228 0.731319
O O2 0.833357 0.555120 0.514665
O O3 0.871172 0.637762 0.449877
O O4 0.000000 0.581876 0.501302
O O5 0.750000 0.128916 0.750000
O O6 0.816102 0.089439 0.504097
O O7 0.857656 0.176364 0.586627
O O8 0.750000 0.451922 0.750000
O O9 0.794385 0.500000 0.000000
O O10 0.500000 0.281505 0.357632
O O11 0.364262 0.231481 0.353238
O O12 0.389243 0.293894 0.136302
O O13 0.000000 0.686963 0.421389
#
# Coordination Sequence:
#
# PCOD9481974 Si02
#       5
#    16  16  16  16  16
#     4   9  18  36  59  81 108 142 182 223 263 311
#     4   9  18  34  54  76 104 141 179 218 267 316
#     4  11  23  40  59  79 106 140 174 217 277 331
#     4   9  16  29  49  73 104 140 176 211 254 308
#     4   8  15  27  46  73 105 140 173 213 261 304
#
# _framework density 20.409189000000001
#
# number of rings (size 3 to 8) (size 9 to 14) (size 15 to 20)
#    0.000    2.800    0.000    3.600    0.000    2.000 
#    0.000   14.000    0.000    4.200    0.000    0.000 
#    0.000    0.000    0.000    0.000    0.000    0.000 
#
# Total GULP energy -222930.419300 kJ/mol
# GULP energy per Si atom -5573.260482 kJ/mol
# Density = 2.036274 g / cm^3
# Si number density = 20.409189 Si / 1000 Ang^3
#
#
#
# Elastic Constant Matrix: (Units=GPa)
#
#
# Indices 1 2 3 4 5 6 
#
# 1 28.9741 -9.4276 -8.4482 0.0000 0.0000 0.0000
# 2 -9.4276 44.6804 -1.0227 0.0000 0.0000 0.0000
# 3 -8.4482 -1.0227 30.2438 0.0000 0.0000 0.0000
# 4 0.0000 0.0000 0.0000 32.8011 0.0000 0.0000
# 5 0.0000 0.0000 0.0000 0.0000 9.6272 0.0000
# 6 0.0000 0.0000 0.0000 0.0000 0.0000 30.1298
#
#
#
# Elastic Compliance Matrix: (Units=1/GPa)
#
#
# Indices 1 2 3 4 5 6 
#
# 1 0.040815 0.008880 0.011701 0.000000 0.000000 0.000000
# 2 0.008880 0.024330 0.003303 0.000000 0.000000 0.000000
# 3 0.011701 0.003303 0.036445 0.000000 0.000000 0.000000
# 4 0.000000 0.000000 0.000000 0.030487 0.000000 0.000000
# 5 0.000000 0.000000 0.000000 0.000000 0.103872 0.000000
# 6 0.000000 0.000000 0.000000 0.000000 0.000000 0.033190
#
#
# Mechanical properties :
#
#
# Convention : Reuss Voigt Hill
#
# Bulk Modulus (GPa) = 6.69528 7.34458 7.01993
# Shear Modulus (GPa) = 18.43956 22.69809 20.56883
#
# Velocity S-wave (km/s) = 3.00908 3.33851 3.17807
# Velocity P-wave (km/s) = 3.91923 4.29736 4.11265
#
# Compressibility (1/GPa) = 0.14935891
#
# Stress axis : x y z
#
# Youngs Moduli (GPa) = 24.50092 41.10081 27.43864
#
# Poissons Ratio (x) = -0.36497 -0.32107
# Poissons Ratio (y) = -0.21756 -0.09064
# Poissons Ratio (z) = -0.28669 -0.13577
#
# Static dielectric constant tensor:
#      x y z
#    x 1.755160 0.000000 0.000000 
#    y 0.000000 1.768770 0.000000 
#    z 0.000000 0.000000 1.732180 
# 
# From -- ./inp_files/7024.got.cif
#   From: 2010.05.17/outbox.cif.g08.bks.cpg/sg64_4_cif.got.tgz:7024.got - 2010.06.03 16:29:19.
