data_PCOD9481552
_publ_section_title
;
Structure prediction by ZEFSAII (Michael W. Deem and Ramdas Pophale) SiO2 
 PCOD9481552
Probable space group: C M C A
;
_chemical_formula_sum "Si O2"
_cell_formula_units_Z 60
_cell_length_a 22.046585
_cell_length_b 5.065465
_cell_length_c 20.869757
_cell_angle_alpha 90.000000
_cell_angle_beta 90.000000
_cell_angle_gamma 90.000000
_cell_volume 2330.655255
_symmetry_space_group_name_H-M "C M C A"
_symmetry_group_IT_number 64
_symmetry_cell_setting 'orthorhombic'
loop_
_space_group_symop_operation_xyz
x,y,z
-x,1/2-y,1/2+z
x,-y,-z
-x,1/2+y,1/2-z
-x,-y,-z
x,1/2+y,1/2-z
-x,y,z
x,1/2-y,1/2+z
1/2+x,1/2+y,z
1/2-x,-y,1/2+z
1/2+x,1/2-y,-z
1/2-x,y,1/2-z
1/2-x,1/2-y,-z
1/2+x,y,1/2-z
1/2-x,1/2+y,z
1/2+x,-y,1/2+z
loop_
_atom_site_type_symbol
_atom_site_label
_atom_site_fract_x
_atom_site_fract_y
_atom_site_fract_z
Si Si1 0.000000 0.000000 0.500000
Si Si2 0.426833 0.065915 0.289068
Si Si3 0.219452 0.747011 0.130891
Si Si4 0.886713 0.126235 0.588530
Si Si5 0.305853 0.000000 0.500000
O O1 0.946493 0.991617 0.444140
O O2 0.407191 0.284745 0.237385
O O3 0.500000 0.063923 0.291149
O O4 0.404994 0.161606 0.357698
O O5 0.266559 0.534388 0.160732
O O6 0.156801 0.590052 0.121722
O O7 0.228668 0.845674 0.056744
O O8 0.850307 0.290699 0.535059
#
# Coordination Sequence:
#
# PCOD9481552 Si02
#       5
#     4  16  16  16   8
#     4  12  24  44  60 116 152 172 214 274 382 420
#     4  10  24  46  71  97 134 190 243 284 329 414
#     4  12  25  43  68 101 142 186 237 277 345 428
#     4  12  26  44  70 106 148 187 219 297 356 426
#     4  12  24  40  66 106 139 191 218 288 364 408
#
# _framework density 25.743834
#
# number of rings (size 3 to 8) (size 9 to 14) (size 15 to 20)
#    0.000    0.533    6.667    0.800    3.733    0.533 
#    4.800    0.000    0.000    4.800    0.000    0.000 
#    0.000    0.000    0.000    0.000    0.000    0.000 
#
# Total GULP energy -167281.811230 kJ/mol
# GULP energy per Si atom -5576.060374 kJ/mol
# Density = 2.568524 g / cm^3
# Si number density = 25.743834 Si / 1000 Ang^3
#
#
#
# Elastic Constant Matrix: (Units=GPa)
#
#
# Indices 1 2 3 4 5 6 
#
# 1 152.2925 62.8779 26.5361 0.0000 0.0000 0.0000
# 2 62.8779 173.0191 11.9272 0.0000 0.0000 0.0000
# 3 26.5361 11.9272 55.3844 0.0000 0.0000 0.0000
# 4 0.0000 0.0000 0.0000 40.8722 0.0000 0.0000
# 5 0.0000 0.0000 0.0000 0.0000 26.6038 0.0000
# 6 0.0000 0.0000 0.0000 0.0000 0.0000 21.4510
#
#
#
# Elastic Compliance Matrix: (Units=1/GPa)
#
#
# Indices 1 2 3 4 5 6 
#
# 1 0.008305 -0.002785 -0.003379 0.000000 0.000000 0.000000
# 2 -0.002785 0.006801 -0.000130 0.000000 0.000000 0.000000
# 3 -0.003379 -0.000130 0.019703 0.000000 0.000000 0.000000
# 4 0.000000 0.000000 0.000000 0.024466 0.000000 0.000000
# 5 0.000000 0.000000 0.000000 0.000000 0.037589 0.000000
# 6 0.000000 0.000000 0.000000 0.000000 0.000000 0.046618
#
#
# Mechanical properties :
#
#
# Convention : Reuss Voigt Hill
#
# Bulk Modulus (GPa) = 45.00589 64.81982 54.91286
# Shear Modulus (GPa) = 30.58521 36.40905 33.49713
#
# Velocity S-wave (km/s) = 3.45056 3.76477 3.61109
# Velocity P-wave (km/s) = 5.77887 6.64315 6.22603
#
# Compressibility (1/GPa) = 0.02221931
#
# Stress axis : x y z
#
# Youngs Moduli (GPa) = 120.40769 147.03968 50.75422
#
# Poissons Ratio (x) = 0.40954 0.17152
# Poissons Ratio (y) = 0.33537 0.00660
# Poissons Ratio (z) = 0.40690 0.01913
#
# Static dielectric constant tensor:
#      x y z
#    x 2.007380 0.000000 0.000000 
#    y 0.000000 2.161540 0.000000 
#    z 0.000000 0.000000 2.064660 
# 
# From -- ./inp_files/41258.got.cif
#   From: 2010.05.17/outbox.cif.g08.bks.cpg/sg64_21_cif.got.tgz:41258.got - 2010.06.03 16:29:19.
