data_PCOD9481155
_publ_section_title
;
Structure prediction by ZEFSAII (Michael W. Deem and Ramdas Pophale) SiO2 
 PCOD9481155
Probable space group: C M C A
;
_chemical_formula_sum "Si O2"
_cell_formula_units_Z 72
_cell_length_a 22.963589
_cell_length_b 15.482433
_cell_length_c 8.969122
_cell_angle_alpha 90.000000
_cell_angle_beta 90.000000
_cell_angle_gamma 90.000000
_cell_volume 3188.811929
_symmetry_space_group_name_H-M "C M C A"
_symmetry_group_IT_number 64
_symmetry_cell_setting 'orthorhombic'
loop_
_space_group_symop_operation_xyz
x,y,z
-x,1/2-y,1/2+z
x,-y,-z
-x,1/2+y,1/2-z
-x,-y,-z
x,1/2+y,1/2-z
-x,y,z
x,1/2-y,1/2+z
1/2+x,1/2+y,z
1/2-x,-y,1/2+z
1/2+x,1/2-y,-z
1/2-x,y,1/2-z
1/2-x,1/2-y,-z
1/2+x,y,1/2-z
1/2-x,1/2+y,z
1/2+x,-y,1/2+z
loop_
_atom_site_type_symbol
_atom_site_label
_atom_site_fract_x
_atom_site_fract_y
_atom_site_fract_z
Si Si1 0.611636 0.625002 0.609128
Si Si2 0.706481 0.000000 0.000000
Si Si3 0.345168 0.256169 0.655386
Si Si4 0.000000 0.954632 0.265960
Si Si5 0.195156 0.869638 0.924113
Si Si6 0.408152 0.500000 0.000000
O O1 0.664331 0.555488 0.607027
O O2 0.615754 0.690663 0.748116
O O3 0.620505 0.683760 0.461562
O O4 0.551095 0.576987 0.617730
O O5 0.750350 0.066965 0.075979
O O6 0.301076 0.197240 0.561372
O O7 0.314650 0.315953 0.775754
O O8 0.051193 0.978324 0.140760
O O9 0.135746 0.922977 0.954845
#
# Coordination Sequence:
#
# PCOD9481155 Si02
#       6
#    16   8  16   8  16   8
#     4  11  26  46  69 109 142 198 238 300 362 433
#     4  11  28  44  76 106 148 189 254 304 372 437
#     4  10  24  46  71 107 148 185 242 297 380 427
#     4  11  24  47  74 102 149 184 250 288 351 438
#     4  10  23  47  74 108 142 190 242 304 370 438
#     4  10  22  47  78 107 140 200 236 304 362 430
#
# _framework density 22.578941
#
# number of rings (size 3 to 8) (size 9 to 14) (size 15 to 20)
#    0.000    1.556    2.222    0.000    3.111   10.222 
#    0.000    0.000    0.000    0.000    0.000    0.000 
#    0.000    0.000    0.000    0.000    0.000    0.000 
#
# Total GULP energy -200568.788730 kJ/mol
# GULP energy per Si atom -5571.355243 kJ/mol
# Density = 2.252755 g / cm^3
# Si number density = 22.578941 Si / 1000 Ang^3
#
#
#
# Elastic Constant Matrix: (Units=GPa)
#
#
# Indices 1 2 3 4 5 6 
#
# 1 198.3722 80.8550 48.6100 0.0000 0.0000 0.0000
# 2 80.8550 133.8714 76.9445 0.0000 0.0000 0.0000
# 3 48.6100 76.9445 129.4575 0.0000 0.0000 0.0000
# 4 0.0000 0.0000 0.0000 41.4002 0.0000 0.0000
# 5 0.0000 0.0000 0.0000 0.0000 22.1884 0.0000
# 6 0.0000 0.0000 0.0000 0.0000 0.0000 6.4325
#
#
#
# Elastic Compliance Matrix: (Units=1/GPa)
#
#
# Indices 1 2 3 4 5 6 
#
# 1 0.006690 -0.003944 -0.000168 0.000000 0.000000 0.000000
# 2 -0.003944 0.013671 -0.006645 0.000000 0.000000 0.000000
# 3 -0.000168 -0.006645 0.011737 0.000000 0.000000 0.000000
# 4 0.000000 0.000000 0.000000 0.024154 0.000000 0.000000
# 5 0.000000 0.000000 0.000000 0.000000 0.045069 0.000000
# 6 0.000000 0.000000 0.000000 0.000000 0.000000 0.155461
#
#
# Mechanical properties :
#
#
# Convention : Reuss Voigt Hill
#
# Bulk Modulus (GPa) = 94.47469 97.16890 95.82180
# Shear Modulus (GPa) = 17.74170 31.02367 24.38268
#
# Velocity S-wave (km/s) = 2.80619 3.71078 3.28973
# Velocity P-wave (km/s) = 7.24102 7.84146 7.54721
#
# Compressibility (1/GPa) = 0.01058485
#
# Stress axis : x y z
#
# Youngs Moduli (GPa) = 149.48423 73.14770 85.20204
#
# Poissons Ratio (x) = 0.28849 0.01429
# Poissons Ratio (y) = 0.58956 0.56613
# Poissons Ratio (z) = 0.02508 0.48604
#
# Static dielectric constant tensor:
#      x y z
#    x 1.776410 0.000000 0.000000 
#    y 0.000000 1.895500 0.000000 
#    z 0.000000 0.000000 1.872420 
# 
# From -- ./inp_files/9184.got.cif
#   From: 2010.05.17/outbox.cif.g08.bks.cpg/sg64_5_cif.got.tgz:9184.got - 2010.06.03 16:29:19.
