data_PCOD9481978
_publ_section_title
;
Structure prediction by ZEFSAII (Michael W. Deem and Ramdas Pophale) SiO2 
 PCOD9481978
Probable space group: C M C A
;
_chemical_formula_sum "Si O2"
_cell_formula_units_Z 88
_cell_length_a 15.381407
_cell_length_b 7.134701
_cell_length_c 30.944184
_cell_angle_alpha 90.000000
_cell_angle_beta 90.000000
_cell_angle_gamma 90.000000
_cell_volume 3395.868592
_symmetry_space_group_name_H-M "C M C A"
_symmetry_group_IT_number 64
_symmetry_cell_setting 'orthorhombic'
loop_
_space_group_symop_operation_xyz
x,y,z
-x,1/2-y,1/2+z
x,-y,-z
-x,1/2+y,1/2-z
-x,-y,-z
x,1/2+y,1/2-z
-x,y,z
x,1/2-y,1/2+z
1/2+x,1/2+y,z
1/2-x,-y,1/2+z
1/2+x,1/2-y,-z
1/2-x,y,1/2-z
1/2-x,1/2-y,-z
1/2+x,y,1/2-z
1/2-x,1/2+y,z
1/2+x,-y,1/2+z
loop_
_atom_site_type_symbol
_atom_site_label
_atom_site_fract_x
_atom_site_fract_y
_atom_site_fract_z
Si Si1 0.000000 0.362407 0.940806
Si Si2 0.645790 0.254061 0.122225
Si Si3 0.659761 0.190802 0.396289
Si Si4 0.600518 0.856078 0.286017
Si Si5 0.901375 0.794182 0.307197
Si Si6 0.354084 0.720289 0.007587
O O1 0.073086 0.357395 0.902141
O O2 0.078265 0.324170 0.976875
O O3 0.630176 0.475138 0.110416
O O4 0.736724 0.191214 0.102689
O O5 0.644430 0.244248 0.174649
O O6 0.639820 0.313859 0.354024
O O7 0.624686 0.260240 0.442108
O O8 0.500000 0.788590 0.281903
O O9 0.639991 0.859933 0.237889
O O10 0.596678 0.070171 0.300610
O O11 0.000000 0.865555 0.309128
O O12 0.368966 0.500000 0.000000
O O13 0.250000 0.750000 0.000000
#
# Coordination Sequence:
#
# PCOD9481978 Si02
#       6
#     8  16  16  16  16  16
#     4  12  23  40  69  94 117 176 209 252 310 379
#     4  11  23  40  67  88 128 160 211 253 315 371
#     4  11  23  40  61  94 124 161 204 264 306 365
#     4   9  18  36  59  89 118 161 201 254 302 378
#     4   9  20  35  60  87 124 157 207 250 312 369
#     4  12  24  41  68  94 130 163 213 261 308 369
#
# _framework density 25.913841999999999
#
# number of rings (size 3 to 8) (size 9 to 14) (size 15 to 20)
#    0.000    1.455    4.545    0.273    2.545    2.182 
#    0.000    4.091    2.000    0.000    0.000    0.000 
#    0.000    0.000    0.000    0.000    0.000    0.000 
#
# Total GULP energy -245408.043973 kJ/mol
# GULP energy per Si atom -5577.455545 kJ/mol
# Density = 2.585486 g / cm^3
# Si number density = 25.913842 Si / 1000 Ang^3
#
#
#
# Elastic Constant Matrix: (Units=GPa)
#
#
# Indices 1 2 3 4 5 6 
#
# 1 88.6263 5.1235 49.6539 0.0000 0.0000 0.0000
# 2 5.1235 90.0564 26.7819 0.0000 0.0000 0.0000
# 3 49.6539 26.7819 250.2660 0.0000 0.0000 0.0000
# 4 0.0000 0.0000 0.0000 40.2894 0.0000 0.0000
# 5 0.0000 0.0000 0.0000 0.0000 49.5885 0.0000
# 6 0.0000 0.0000 0.0000 0.0000 0.0000 -0.9578
#
#
#
# Elastic Compliance Matrix: (Units=1/GPa)
#
#
# Indices 1 2 3 4 5 6 
#
# 1 0.012694 0.000028 -0.002522 0.000000 0.000000 0.000000
# 2 0.000028 0.011469 -0.001233 0.000000 0.000000 0.000000
# 3 -0.002522 -0.001233 0.004628 0.000000 0.000000 0.000000
# 4 0.000000 0.000000 0.000000 0.024820 0.000000 0.000000
# 5 0.000000 0.000000 0.000000 0.000000 0.020166 0.000000
# 6 0.000000 0.000000 0.000000 0.000000 0.000000 -1.044047
#
#
# Mechanical properties :
#
#
# Convention : Reuss Voigt Hill
#
# Bulk Modulus (GPa) = 46.86444 65.78526 56.32485
# Shear Modulus (GPa) = -5.23175 40.94330 17.85577
#
# Velocity S-wave (km/s) = -1.42242 3.97921 2.62781
# Velocity P-wave (km/s) = 3.92763 6.82300 5.56685
#
# Compressibility (1/GPa) = 0.02133814
#
# Stress axis : x y z
#
# Youngs Moduli (GPa) = 78.77433 87.18985 216.07695
#
# Poissons Ratio (x) = -0.00241 0.54486
# Poissons Ratio (y) = -0.00218 0.26639
# Poissons Ratio (z) = 0.19864 0.10749
#
# Static dielectric constant tensor:
#      x y z
#    x 1.931810 0.000000 0.000000 
#    y 0.000000 2.132370 0.000000 
#    z 0.000000 0.000000 2.089710 
# 
# From -- ./inp_files/53570.got.cif
#   From: 2010.05.17/outbox.cif.g08.bks.cpg/sg64_27_cif.got.tgz:53570.got - 2010.06.03 16:29:19.
