data_PCOD9481544
_publ_section_title
;
Structure prediction by ZEFSAII (Michael W. Deem and Ramdas Pophale) SiO2 
 PCOD9481544
Probable space group: C M C A
;
_chemical_formula_sum "Si O2"
_cell_formula_units_Z 72
_cell_length_a 7.571040
_cell_length_b 15.369088
_cell_length_c 25.948401
_cell_angle_alpha 90.000000
_cell_angle_beta 90.000000
_cell_angle_gamma 90.000000
_cell_volume 3019.355422
_symmetry_space_group_name_H-M "C M C A"
_symmetry_group_IT_number 64
_symmetry_cell_setting 'orthorhombic'
loop_
_space_group_symop_operation_xyz
x,y,z
-x,1/2-y,1/2+z
x,-y,-z
-x,1/2+y,1/2-z
-x,-y,-z
x,1/2+y,1/2-z
-x,y,z
x,1/2-y,1/2+z
1/2+x,1/2+y,z
1/2-x,-y,1/2+z
1/2+x,1/2-y,-z
1/2-x,y,1/2-z
1/2-x,1/2-y,-z
1/2+x,y,1/2-z
1/2-x,1/2+y,z
1/2+x,-y,1/2+z
loop_
_atom_site_type_symbol
_atom_site_label
_atom_site_fract_x
_atom_site_fract_y
_atom_site_fract_z
Si Si1 0.296587 0.232066 0.649681
Si Si2 0.707996 0.545366 0.609768
Si Si3 0.248780 0.000000 0.000000
Si Si4 0.288167 0.678318 0.042548
Si Si5 0.288411 0.904442 0.806918
O O1 0.500000 0.216876 0.663570
O O2 0.218141 0.137323 0.639411
O O3 0.280579 0.283114 0.595654
O O4 0.218201 0.305512 0.687571
O O5 0.500000 0.533889 0.596666
O O6 0.810145 0.543727 0.555204
O O7 0.772723 0.469497 0.648074
O O8 0.307575 0.089882 0.026319
O O9 0.500000 0.661002 0.045358
O O10 0.250000 0.750000 0.000000
O O11 0.500000 0.900094 0.813144
O O12 0.250000 0.938679 0.750000
#
# Coordination Sequence:
#
# PCOD9481544 Si02
#       5
#    16  16   8  16  16
#     4  11  24  43  65  94 130 168 218 270 324 389
#     4  11  24  42  67  99 134 174 219 267 329 395
#     4  12  24  40  66  98 140 172 220 260 334 386
#     4  12  25  40  62  95 133 172 215 260 318 384
#     4  10  24  46  68  95 128 169 219 274 333 393
#
# _framework density 23.846147999999999
#
# number of rings (size 3 to 8) (size 9 to 14) (size 15 to 20)
#    0.000    0.889    4.444    2.000    0.000    6.222 
#    0.000    4.444    0.000    0.000    0.000    0.000 
#    0.000    0.000    0.000    0.000    0.000    0.000 
#
# Total GULP energy -200713.482269 kJ/mol
# GULP energy per Si atom -5575.374507 kJ/mol
# Density = 2.379187 g / cm^3
# Si number density = 23.846148 Si / 1000 Ang^3
#
#
#
# Elastic Constant Matrix: (Units=GPa)
#
#
# Indices 1 2 3 4 5 6 
#
# 1 106.6905 12.7437 -4.4423 0.0000 0.0000 0.0000
# 2 12.7437 167.5199 10.8887 0.0000 0.0000 0.0000
# 3 -4.4423 10.8887 109.3617 0.0000 0.0000 0.0000
# 4 0.0000 0.0000 0.0000 40.2528 0.0000 0.0000
# 5 0.0000 0.0000 0.0000 0.0000 -6.2753 0.0000
# 6 0.0000 0.0000 0.0000 0.0000 0.0000 -61.0018
#
#
#
# Elastic Compliance Matrix: (Units=1/GPa)
#
#
# Indices 1 2 3 4 5 6 
#
# 1 0.009482 -0.000751 0.000460 0.000000 0.000000 0.000000
# 2 -0.000751 0.006068 -0.000635 0.000000 0.000000 0.000000
# 3 0.000460 -0.000635 0.009226 0.000000 0.000000 0.000000
# 4 0.000000 0.000000 0.000000 0.024843 0.000000 0.000000
# 5 0.000000 0.000000 0.000000 0.000000 -0.159354 0.000000
# 6 0.000000 0.000000 0.000000 0.000000 0.000000 -0.016393
#
#
# Mechanical properties :
#
#
# Convention : Reuss Voigt Hill
#
# Bulk Modulus (GPa) = 43.62308 46.88356 45.25332
# Shear Modulus (GPa) = -42.86863 18.88725 -11.99069
#
# Velocity S-wave (km/s) = -4.24455 2.81738 -2.24483
# Velocity P-wave (km/s) = 2.38502 5.50337 3.50705
#
# Compressibility (1/GPa) = 0.02292364
#
# Stress axis : x y z
#
# Youngs Moduli (GPa) = 105.46534 164.80329 108.39116
#
# Poissons Ratio (x) = 0.12380 -0.04985
# Poissons Ratio (y) = 0.07923 0.06879
# Poissons Ratio (z) = -0.04851 0.10459
#
# Static dielectric constant tensor:
#      x y z
#    x 2.021550 0.000000 0.000000 
#    y 0.000000 1.901580 0.000000 
#    z 0.000000 0.000000 1.915300 
# 
# From -- ./inp_files/47622.got.cif
#   From: 2010.05.17/outbox.cif.g08.bks.cpg/sg64_24_cif.got.tgz:47622.got - 2010.06.03 16:29:19.
