data_PCOD9481103
_publ_section_title
;
Structure prediction by ZEFSAII (Michael W. Deem and Ramdas Pophale) SiO2 
 PCOD9481103
Probable space group: C M C A
;
_chemical_formula_sum "Si O2"
_cell_formula_units_Z 92
_cell_length_a 15.091145
_cell_length_b 21.612073
_cell_length_c 14.343441
_cell_angle_alpha 90.000000
_cell_angle_beta 90.000000
_cell_angle_gamma 90.000000
_cell_volume 4678.126584
_symmetry_space_group_name_H-M "C M C A"
_symmetry_group_IT_number 64
_symmetry_cell_setting 'orthorhombic'
loop_
_space_group_symop_operation_xyz
x,y,z
-x,1/2-y,1/2+z
x,-y,-z
-x,1/2+y,1/2-z
-x,-y,-z
x,1/2+y,1/2-z
-x,y,z
x,1/2-y,1/2+z
1/2+x,1/2+y,z
1/2-x,-y,1/2+z
1/2+x,1/2-y,-z
1/2-x,y,1/2-z
1/2-x,1/2-y,-z
1/2+x,y,1/2-z
1/2-x,1/2+y,z
1/2+x,-y,1/2+z
loop_
_atom_site_type_symbol
_atom_site_label
_atom_site_fract_x
_atom_site_fract_y
_atom_site_fract_z
Si Si1 0.500000 0.000000 0.000000
Si Si2 0.394631 0.471452 0.862176
Si Si3 0.347150 0.370947 0.715625
Si Si4 0.500000 0.773620 0.766884
Si Si5 0.500000 0.312741 0.059294
Si Si6 0.162242 0.405660 0.445671
Si Si7 0.137617 0.613957 0.993202
Si Si8 0.500000 0.289304 0.417699
O O1 0.577912 0.947156 0.021842
O O2 0.500000 0.477865 0.871133
O O3 0.372557 0.434289 0.768795
O O4 0.352410 0.538861 0.872512
O O5 0.360548 0.432838 0.951419
O O6 0.250000 0.353760 0.750000
O O7 0.415855 0.318071 0.743958
O O8 0.352226 0.379799 0.605009
O O9 0.500000 0.743392 0.868249
O O10 0.500000 0.718832 0.692568
O O11 0.411370 0.353302 0.071697
O O12 0.500000 0.279981 0.958889
O O13 0.264874 0.387757 0.448748
O O14 0.084133 0.672568 0.954078
#
# Coordination Sequence:
#
# PCOD9481103 Si02
#       8
#     4  16  16   8   8  16  16   8
#     4  10  22  44  68  86 136 176 208 274 332 428
#     4  11  20  39  67  98 133 165 219 269 343 404
#     4  12  24  42  70 102 127 173 229 278 325 418
#     4  12  26  47  66  96 134 179 235 277 333 395
#     4  12  23  43  69  96 135 175 230 274 338 397
#     4  11  22  40  67 101 133 173 212 284 341 402
#     4  11  24  45  67  99 135 177 228 270 350 401
#     4  11  26  46  69  92 134 191 224 282 326 394
#
# _framework density 19.665991000000002
#
# number of rings (size 3 to 8) (size 9 to 14) (size 15 to 20)
#    0.000    0.696    6.087    3.130    0.000    2.087 
#    6.261    0.000    0.000    0.000    0.000    0.000 
#    0.000    0.000    0.000    0.000    0.000    0.000 
#
# Total GULP energy -256648.806119 kJ/mol
# GULP energy per Si atom -5579.321872 kJ/mol
# Density = 1.962123 g / cm^3
# Si number density = 19.665991 Si / 1000 Ang^3
#
#
#
# Elastic Constant Matrix: (Units=GPa)
#
#
# Indices 1 2 3 4 5 6 
#
# 1 209.9318 64.9721 20.4804 0.0000 0.0000 0.0000
# 2 64.9721 90.7286 -0.3682 0.0000 0.0000 0.0000
# 3 20.4804 -0.3682 30.5845 0.0000 0.0000 0.0000
# 4 0.0000 0.0000 0.0000 28.9642 0.0000 0.0000
# 5 0.0000 0.0000 0.0000 0.0000 3.0509 0.0000
# 6 0.0000 0.0000 0.0000 0.0000 0.0000 7.1532
#
#
#
# Elastic Compliance Matrix: (Units=1/GPa)
#
#
# Indices 1 2 3 4 5 6 
#
# 1 0.006696 -0.004814 -0.004542 0.000000 0.000000 0.000000
# 2 -0.004814 0.014483 0.003398 0.000000 0.000000 0.000000
# 3 -0.004542 0.003398 0.035779 0.000000 0.000000 0.000000
# 4 0.000000 0.000000 0.000000 0.034525 0.000000 0.000000
# 5 0.000000 0.000000 0.000000 0.000000 0.327776 0.000000
# 6 0.000000 0.000000 0.000000 0.000000 0.000000 0.139797
#
#
# Mechanical properties :
#
#
# Convention : Reuss Voigt Hill
#
# Bulk Modulus (GPa) = 22.20152 55.71262 38.95707
# Shear Modulus (GPa) = 8.53262 24.24436 16.38849
#
# Velocity S-wave (km/s) = 2.08523 3.51494 2.88990
# Velocity P-wave (km/s) = 4.13659 6.69806 5.56666
#
# Compressibility (1/GPa) = 0.04504197
#
# Stress axis : x y z
#
# Youngs Moduli (GPa) = 149.33383 69.04679 27.94953
#
# Poissons Ratio (x) = 0.33238 0.12695
# Poissons Ratio (y) = 0.71887 -0.09497
# Poissons Ratio (z) = 0.67829 -0.23461
#
# Static dielectric constant tensor:
#      x y z
#    x 1.731820 0.000000 0.000000 
#    y 0.000000 1.676980 0.000000 
#    z 0.000000 0.000000 1.682060 
# 
# From -- ./inp_files/24023.got.cif
#   From: 2010.05.17/outbox.cif.g08.bks.cpg/sg64_13_cif.got.tgz:24023.got - 2010.06.03 16:29:19.
