data_PCOD9481037
_publ_section_title
;
Structure prediction by ZEFSAII (Michael W. Deem and Ramdas Pophale) SiO2 
 PCOD9481037
Probable space group: C M C A
;
_chemical_formula_sum "Si O2"
_cell_formula_units_Z 64
_cell_length_a 28.235544
_cell_length_b 19.450758
_cell_length_c 5.227952
_cell_angle_alpha 90.000000
_cell_angle_beta 90.000000
_cell_angle_gamma 90.000000
_cell_volume 2871.205528
_symmetry_space_group_name_H-M "C M C A"
_symmetry_group_IT_number 64
_symmetry_cell_setting 'orthorhombic'
loop_
_space_group_symop_operation_xyz
x,y,z
-x,1/2-y,1/2+z
x,-y,-z
-x,1/2+y,1/2-z
-x,-y,-z
x,1/2+y,1/2-z
-x,y,z
x,1/2-y,1/2+z
1/2+x,1/2+y,z
1/2-x,-y,1/2+z
1/2+x,1/2-y,-z
1/2-x,y,1/2-z
1/2-x,1/2-y,-z
1/2+x,y,1/2-z
1/2-x,1/2+y,z
1/2+x,-y,1/2+z
loop_
_atom_site_type_symbol
_atom_site_label
_atom_site_fract_x
_atom_site_fract_y
_atom_site_fract_z
Si Si1 0.250000 0.924101 0.250000
Si Si2 0.329192 0.500000 0.500000
Si Si3 0.000000 0.452056 0.749631
Si Si4 0.145876 0.713621 0.369603
Si Si5 0.396047 0.427345 0.844976
Si Si6 0.750000 0.829458 0.750000
O O1 0.204579 0.973228 0.274656
O O2 0.244425 0.877849 0.501533
O O3 0.363538 0.441104 0.599173
O O4 0.000000 0.500000 0.500000
O O5 0.049783 0.412745 0.733170
O O6 0.000000 0.500000 0.000000
O O7 0.129274 0.766792 0.585256
O O8 0.128053 0.639378 0.465768
O O9 0.202793 0.712069 0.323771
O O10 0.395275 0.500000 0.000000
#
# Coordination Sequence:
#
# PCOD9481037 Si02
#       6
#     8   8   8  16  16   8
#     4  12  25  37  62 102 134 182 224 292 332 414
#     4  12  24  39  66 100 144 175 228 288 354 402
#     4  10  22  42  72 108 134 168 231 291 350 406
#     4  12  27  45  66  98 139 185 230 281 346 413
#     4  11  25  45  75 102 138 181 234 293 349 416
#     4  12  23  45  62  88 140 186 240 268 338 408
#
# _framework density 22.290289999999999
#
# number of rings (size 3 to 8) (size 9 to 14) (size 15 to 20)
#    0.000    0.500    3.750    4.500    5.250    0.000 
#    0.000    1.250    0.000    0.000    0.000    0.000 
#    0.000    0.000    0.000    0.000    0.000    0.000 
#
# Total GULP energy -178820.114166 kJ/mol
# GULP energy per Si atom -5588.128568 kJ/mol
# Density = 2.223956 g / cm^3
# Si number density = 22.290290 Si / 1000 Ang^3
#
#
#
# Elastic Constant Matrix: (Units=GPa)
#
#
# Indices 1 2 3 4 5 6 
#
# 1 131.5583 11.4827 16.0592 0.0000 0.0000 0.0000
# 2 11.4827 80.1175 29.8147 0.0000 0.0000 0.0000
# 3 16.0592 29.8147 133.8002 0.0000 0.0000 0.0000
# 4 0.0000 0.0000 0.0000 43.9213 0.0000 0.0000
# 5 0.0000 0.0000 0.0000 0.0000 15.6971 0.0000
# 6 0.0000 0.0000 0.0000 0.0000 0.0000 1.7724
#
#
#
# Elastic Compliance Matrix: (Units=1/GPa)
#
#
# Indices 1 2 3 4 5 6 
#
# 1 0.007765 -0.000835 -0.000746 0.000000 0.000000 0.000000
# 2 -0.000835 0.013700 -0.002953 0.000000 0.000000 0.000000
# 3 -0.000746 -0.002953 0.008221 0.000000 0.000000 0.000000
# 4 0.000000 0.000000 0.000000 0.022768 0.000000 0.000000
# 5 0.000000 0.000000 0.000000 0.000000 0.063706 0.000000
# 6 0.000000 0.000000 0.000000 0.000000 0.000000 0.564195
#
#
# Mechanical properties :
#
#
# Convention : Reuss Voigt Hill
#
# Bulk Modulus (GPa) = 48.49887 51.13213 49.81550
# Shear Modulus (GPa) = 7.18086 31.48612 19.33349
#
# Velocity S-wave (km/s) = 1.79681 3.76247 2.94828
# Velocity P-wave (km/s) = 5.10977 6.47023 5.82982
#
# Compressibility (1/GPa) = 0.02061904
#
# Stress axis : x y z
#
# Youngs Moduli (GPa) = 128.78050 72.99189 121.63570
#
# Poissons Ratio (x) = 0.06097 0.09072
# Poissons Ratio (y) = 0.10758 0.35914
# Poissons Ratio (z) = 0.09605 0.21551
#
# Static dielectric constant tensor:
#      x y z
#    x 1.846160 0.000000 0.000000 
#    y 0.000000 1.867250 0.000000 
#    z 0.000000 0.000000 2.341860 
# 
# From -- ./inp_files/3176.got.cif
#   From: 2010.05.17/outbox.cif.g08.bks.cpg/sg64_2_cif.got.tgz:3176.got - 2010.06.03 16:29:19.
