data_PCOD9481699
_publ_section_title
;
Structure prediction by ZEFSAII (Michael W. Deem and Ramdas Pophale) SiO2 
 PCOD9481699
Probable space group: C M C A
;
_chemical_formula_sum "Si O2"
_cell_formula_units_Z 88
_cell_length_a 14.899571
_cell_length_b 13.546303
_cell_length_c 20.916563
_cell_angle_alpha 90.000000
_cell_angle_beta 90.000000
_cell_angle_gamma 90.000000
_cell_volume 4221.675738
_symmetry_space_group_name_H-M "C M C A"
_symmetry_group_IT_number 64
_symmetry_cell_setting 'orthorhombic'
loop_
_space_group_symop_operation_xyz
x,y,z
-x,1/2-y,1/2+z
x,-y,-z
-x,1/2+y,1/2-z
-x,-y,-z
x,1/2+y,1/2-z
-x,y,z
x,1/2-y,1/2+z
1/2+x,1/2+y,z
1/2-x,-y,1/2+z
1/2+x,1/2-y,-z
1/2-x,y,1/2-z
1/2-x,1/2-y,-z
1/2+x,y,1/2-z
1/2-x,1/2+y,z
1/2+x,-y,1/2+z
loop_
_atom_site_type_symbol
_atom_site_label
_atom_site_fract_x
_atom_site_fract_y
_atom_site_fract_z
Si Si1 0.000000 0.797882 0.287066
Si Si2 0.000000 0.516290 0.227929
Si Si3 0.902547 0.889191 0.972321
Si Si4 0.000000 0.720669 0.150078
Si Si5 0.352970 0.473251 0.838408
Si Si6 0.824646 0.316217 0.406884
Si Si7 0.198641 0.220695 0.186875
O O1 0.906921 0.744416 0.305259
O O2 0.000000 0.795426 0.210151
O O3 0.000000 0.911710 0.308406
O O4 0.916342 0.517617 0.277016
O O5 0.000000 0.611584 0.181765
O O6 0.891957 0.909007 0.897672
O O7 0.000000 0.842217 0.983904
O O8 0.830557 0.835838 0.017395
O O9 0.905170 0.000000 0.000000
O O10 0.090440 0.747606 0.112129
O O11 0.333926 0.579170 0.869026
O O12 0.277121 0.395815 0.817467
O O13 0.736344 0.269473 0.377078
O O14 0.250000 0.260706 0.250000
#
# Coordination Sequence:
#
# PCOD9481699 Si02
#       7
#     8   8  16   8  16  16  16
#     4  12  24  40  57  86 124 156 189 241 295 342
#     4  12  20  35  60  86 120 155 190 233 298 357
#     4   9  18  33  60  90 114 149 195 245 299 334
#     4  12  20  37  59  87 116 151 188 236 296 350
#     4  11  20  35  61  87 116 153 196 248 290 345
#     4  11  22  38  59  87 122 151 194 250 290 343
#     4  12  24  39  57  87 120 157 199 232 296 364
#
# _framework density 20.844802999999999
#
# number of rings (size 3 to 8) (size 9 to 14) (size 15 to 20)
#    0.000    0.909    7.273    0.000    0.000    4.364 
#    0.000    0.000    0.000    0.000    0.000    7.000 
#    0.000    0.000    0.000    0.000    0.000    0.000 
#
# Total GULP energy -245263.899864 kJ/mol
# GULP energy per Si atom -5574.179542 kJ/mol
# Density = 2.079736 g / cm^3
# Si number density = 20.844803 Si / 1000 Ang^3
#
#
#
# Elastic Constant Matrix: (Units=GPa)
#
#
# Indices 1 2 3 4 5 6 
#
# 1 73.2818 7.6350 11.4914 0.0000 0.0000 0.0000
# 2 7.6350 111.2455 10.6464 0.0000 0.0000 0.0000
# 3 11.4914 10.6464 74.3018 0.0000 0.0000 0.0000
# 4 0.0000 0.0000 0.0000 32.0324 0.0000 0.0000
# 5 0.0000 0.0000 0.0000 0.0000 22.0249 0.0000
# 6 0.0000 0.0000 0.0000 0.0000 0.0000 22.1039
#
#
#
# Elastic Compliance Matrix: (Units=1/GPa)
#
#
# Indices 1 2 3 4 5 6 
#
# 1 0.014049 -0.000767 -0.002063 0.000000 0.000000 0.000000
# 2 -0.000767 0.009156 -0.001193 0.000000 0.000000 0.000000
# 3 -0.002063 -0.001193 0.013949 0.000000 0.000000 0.000000
# 4 0.000000 0.000000 0.000000 0.031218 0.000000 0.000000
# 5 0.000000 0.000000 0.000000 0.000000 0.045403 0.000000
# 6 0.000000 0.000000 0.000000 0.000000 0.000000 0.045241
#
#
# Mechanical properties :
#
#
# Convention : Reuss Voigt Hill
#
# Bulk Modulus (GPa) = 34.35510 35.37496 34.86503
# Shear Modulus (GPa) = 28.28609 30.50264 29.39437
#
# Velocity S-wave (km/s) = 3.68772 3.82949 3.75927
# Velocity P-wave (km/s) = 5.88639 6.04655 5.96701
#
# Compressibility (1/GPa) = 0.02910776
#
# Stress axis : x y z
#
# Youngs Moduli (GPa) = 71.17767 109.21851 71.69139
#
# Poissons Ratio (x) = 0.08375 0.14790
# Poissons Ratio (y) = 0.05458 0.08555
# Poissons Ratio (z) = 0.14684 0.13033
#
# Static dielectric constant tensor:
#      x y z
#    x 1.796020 0.000000 0.000000 
#    y 0.000000 1.795140 0.000000 
#    z 0.000000 0.000000 1.793460 
# 
# From -- ./inp_files/39105.got.cif
#   From: 2010.05.17/outbox.cif.g08.bks.cpg/sg64_20_cif.got.tgz:39105.got - 2010.06.03 16:29:19.
