data_PCOD9481193
_publ_section_title
;
Structure prediction by ZEFSAII (Michael W. Deem and Ramdas Pophale) SiO2 
 PCOD9481193
Probable space group: C M C A
;
_chemical_formula_sum "Si O2"
_cell_formula_units_Z 56
_cell_length_a 23.024973
_cell_length_b 23.767840
_cell_length_c 4.928905
_cell_angle_alpha 90.000000
_cell_angle_beta 90.000000
_cell_angle_gamma 90.000000
_cell_volume 2697.362357
_symmetry_space_group_name_H-M "C M C A"
_symmetry_group_IT_number 64
_symmetry_cell_setting 'orthorhombic'
loop_
_space_group_symop_operation_xyz
x,y,z
-x,1/2-y,1/2+z
x,-y,-z
-x,1/2+y,1/2-z
-x,-y,-z
x,1/2+y,1/2-z
-x,y,z
x,1/2-y,1/2+z
1/2+x,1/2+y,z
1/2-x,-y,1/2+z
1/2+x,1/2-y,-z
1/2-x,y,1/2-z
1/2-x,1/2-y,-z
1/2+x,y,1/2-z
1/2-x,1/2+y,z
1/2+x,-y,1/2+z
loop_
_atom_site_type_symbol
_atom_site_label
_atom_site_fract_x
_atom_site_fract_y
_atom_site_fract_z
Si Si1 0.750000 0.460927 0.250000
Si Si2 0.863693 0.393603 0.078997
Si Si3 0.680337 0.714899 0.263210
Si Si4 0.567734 0.065410 0.420922
O O1 0.769574 0.500000 0.500000
O O2 0.802681 0.422957 0.147170
O O3 0.899844 0.395578 0.357913
O O4 0.849849 0.336608 0.914677
O O5 0.901194 0.428961 0.866326
O O6 0.666463 0.768683 0.454888
O O7 0.750000 0.704954 0.250000
O O8 0.500000 0.080711 0.404047
O O9 0.572036 0.000000 0.500000
#
# Coordination Sequence:
#
# PCOD9481193 Si02
#       4
#     8  16  16  16
#     4  12  26  38  58  96 138 164 196 256 334 394
#     4  12  24  40  66  92 127 167 207 262 320 378
#     4  10  23  40  62  91 126 163 208 255 310 381
#     4  11  24  43  65  91 125 171 219 256 302 377
#
# _framework density 20.761022000000001
#
# number of rings (size 3 to 8) (size 9 to 14) (size 15 to 20)
#    0.000    0.857    0.000    7.714   12.000    2.286 
#    0.000    0.000    0.000   17.143    0.000    0.000 
#    0.000    0.000    0.000    0.000    0.000    0.000 
#
# Total GULP energy -156589.444295 kJ/mol
# GULP energy per Si atom -5592.480153 kJ/mol
# Density = 2.071377 g / cm^3
# Si number density = 20.761022 Si / 1000 Ang^3
#
#
#
# Elastic Constant Matrix: (Units=GPa)
#
#
# Indices 1 2 3 4 5 6 
#
# 1 119.3382 38.1053 36.1167 0.0000 0.0000 0.0000
# 2 38.1053 62.0577 10.3415 0.0000 0.0000 0.0000
# 3 36.1167 10.3415 123.7758 0.0000 0.0000 0.0000
# 4 0.0000 0.0000 0.0000 39.5168 0.0000 0.0000
# 5 0.0000 0.0000 0.0000 0.0000 -45.2364 0.0000
# 6 0.0000 0.0000 0.0000 0.0000 0.0000 6.4287
#
#
#
# Elastic Compliance Matrix: (Units=1/GPa)
#
#
# Indices 1 2 3 4 5 6 
#
# 1 0.011276 -0.006466 -0.002750 0.000000 0.000000 0.000000
# 2 -0.006466 0.020049 0.000212 0.000000 0.000000 0.000000
# 3 -0.002750 0.000212 0.008864 0.000000 0.000000 0.000000
# 4 0.000000 0.000000 0.000000 0.025306 0.000000 0.000000
# 5 0.000000 0.000000 0.000000 0.000000 -0.022106 0.000000
# 6 0.000000 0.000000 0.000000 0.000000 0.000000 0.155553
#
#
# Mechanical properties :
#
#
# Convention : Reuss Voigt Hill
#
# Bulk Modulus (GPa) = 45.08449 52.69987 48.89218
# Shear Modulus (GPa) = 22.28715 14.84903 18.56809
#
# Velocity S-wave (km/s) = 3.28000 2.67729 2.99385
# Velocity P-wave (km/s) = 6.00896 5.91577 5.96255
#
# Compressibility (1/GPa) = 0.02218058
#
# Stress axis : x y z
#
# Youngs Moduli (GPa) = 88.68077 49.87792 112.81694
#
# Poissons Ratio (x) = 0.32250 0.31026
# Poissons Ratio (y) = 0.57339 -0.02387
# Poissons Ratio (z) = 0.24388 -0.01055
#
# Static dielectric constant tensor:
#      x y z
#    x 1.704540 0.000000 0.000000 
#    y 0.000000 1.779990 0.000000 
#    z 0.000000 0.000000 1.719300 
# 
# From -- ./inp_files/2690.got.cif
#   From: 2010.05.17/outbox.cif.g08.bks.cpg/sg64_2_cif.got.tgz:2690.got - 2010.06.03 16:29:19.
