data_PCOD9481561
_publ_section_title
;
Structure prediction by ZEFSAII (Michael W. Deem and Ramdas Pophale) SiO2 
 PCOD9481561
Probable space group: C M C A
;
_chemical_formula_sum "Si O2"
_cell_formula_units_Z 88
_cell_length_a 15.080286
_cell_length_b 22.118322
_cell_length_c 10.866633
_cell_angle_alpha 90.000000
_cell_angle_beta 90.000000
_cell_angle_gamma 90.000000
_cell_volume 3624.572192
_symmetry_space_group_name_H-M "C M C A"
_symmetry_group_IT_number 64
_symmetry_cell_setting 'orthorhombic'
loop_
_space_group_symop_operation_xyz
x,y,z
-x,1/2-y,1/2+z
x,-y,-z
-x,1/2+y,1/2-z
-x,-y,-z
x,1/2+y,1/2-z
-x,y,z
x,1/2-y,1/2+z
1/2+x,1/2+y,z
1/2-x,-y,1/2+z
1/2+x,1/2-y,-z
1/2-x,y,1/2-z
1/2-x,1/2-y,-z
1/2+x,y,1/2-z
1/2-x,1/2+y,z
1/2+x,-y,1/2+z
loop_
_atom_site_type_symbol
_atom_site_label
_atom_site_fract_x
_atom_site_fract_y
_atom_site_fract_z
Si Si1 0.142625 0.358187 0.000912
Si Si2 0.398142 0.224488 0.511178
Si Si3 0.856092 0.498984 0.275711
Si Si4 0.189397 0.120436 0.128575
Si Si5 0.354919 0.633381 0.776398
Si Si6 0.500000 0.059228 0.124371
O O1 0.107503 0.365029 0.138664
O O2 0.154246 0.286945 0.978497
O O3 0.238738 0.388092 0.979919
O O4 0.076551 0.390501 0.908651
O O5 0.500000 0.241093 0.491677
O O6 0.365709 0.179863 0.403389
O O7 0.387979 0.185376 0.634791
O O8 0.750000 0.498461 0.250000
O O9 0.868997 0.560179 0.354443
O O10 0.876170 0.433178 0.328751
O O11 0.921011 0.509865 0.160286
O O12 0.250000 0.129333 0.250000
O O13 0.250000 0.641150 0.750000
#
# Coordination Sequence:
#
# PCOD9481561 Si02
#       6
#    16  16  16  16  16   8
#     4  12  26  47  75 107 146 199 246 300 368 444
#     4  12  29  46  72 111 151 192 245 312 373 443
#     4  10  24  47  73 110 147 189 248 307 366 443
#     4  11  24  48  73 103 142 197 244 294 374 439
#     4  11  27  50  74 109 147 194 250 306 372 443
#     4  12  24  47  74 111 146 200 244 306 363 432
#
# _framework density 24.278728000000001
#
# number of rings (size 3 to 8) (size 9 to 14) (size 15 to 20)
#    0.000    0.727    6.364    0.545    6.364    2.182 
#    3.273    0.909    0.000    0.000    0.000    0.000 
#    0.000    0.000    0.000    0.000    0.000    0.000 
#
# Total GULP energy -245186.887377 kJ/mol
# GULP energy per Si atom -5572.429259 kJ/mol
# Density = 2.422347 g / cm^3
# Si number density = 24.278728 Si / 1000 Ang^3
#
#
#
# Elastic Constant Matrix: (Units=GPa)
#
#
# Indices 1 2 3 4 5 6 
#
# 1 77.9323 3.1635 -8.3819 0.0000 0.0000 0.0000
# 2 3.1635 163.2099 33.8927 0.0000 0.0000 0.0000
# 3 -8.3819 33.8927 86.2606 0.0000 0.0000 0.0000
# 4 0.0000 0.0000 0.0000 64.7951 0.0000 0.0000
# 5 0.0000 0.0000 0.0000 0.0000 2.4831 0.0000
# 6 0.0000 0.0000 0.0000 0.0000 0.0000 -9.6806
#
#
#
# Elastic Compliance Matrix: (Units=1/GPa)
#
#
# Indices 1 2 3 4 5 6 
#
# 1 0.013014 -0.000561 0.001485 0.000000 0.000000 0.000000
# 2 -0.000561 0.006696 -0.002685 0.000000 0.000000 0.000000
# 3 0.001485 -0.002685 0.012792 0.000000 0.000000 0.000000
# 4 0.000000 0.000000 0.000000 0.015433 0.000000 0.000000
# 5 0.000000 0.000000 0.000000 0.000000 0.402725 0.000000
# 6 0.000000 0.000000 0.000000 0.000000 0.000000 -0.103299
#
#
# Mechanical properties :
#
#
# Convention : Reuss Voigt Hill
#
# Bulk Modulus (GPa) = 34.50676 42.75015 38.62846
# Shear Modulus (GPa) = 13.86798 31.43473 22.65135
#
# Velocity S-wave (km/s) = 2.39257 3.60216 3.05777
# Velocity P-wave (km/s) = 4.67719 5.91160 5.33025
#
# Compressibility (1/GPa) = 0.02897983
#
# Stress axis : x y z
#
# Youngs Moduli (GPa) = 76.83965 149.35241 78.17310
#
# Poissons Ratio (x) = 0.08373 -0.11608
# Poissons Ratio (y) = 0.04308 0.20991
# Poissons Ratio (z) = -0.11410 0.40105
#
# Static dielectric constant tensor:
#      x y z
#    x 1.966570 0.000000 0.000000 
#    y 0.000000 1.877380 0.000000 
#    z 0.000000 0.000000 2.066180 
# 
# From -- ./inp_files/14577.got.cif
#   From: 2010.05.17/outbox.cif.g08.bks.cpg/sg64_8_cif.got.tgz:14577.got - 2010.06.03 16:29:19.
