data_PCOD9481458
_publ_section_title
;
Structure prediction by ZEFSAII (Michael W. Deem and Ramdas Pophale) SiO2 
 PCOD9481458
Probable space group: C M C A
;
_chemical_formula_sum "Si O2"
_cell_formula_units_Z 104
_cell_length_a 19.527984
_cell_length_b 17.332543
_cell_length_c 15.292439
_cell_angle_alpha 90.000000
_cell_angle_beta 90.000000
_cell_angle_gamma 90.000000
_cell_volume 5176.026054
_symmetry_space_group_name_H-M "C M C A"
_symmetry_group_IT_number 64
_symmetry_cell_setting 'orthorhombic'
loop_
_space_group_symop_operation_xyz
x,y,z
-x,1/2-y,1/2+z
x,-y,-z
-x,1/2+y,1/2-z
-x,-y,-z
x,1/2+y,1/2-z
-x,y,z
x,1/2-y,1/2+z
1/2+x,1/2+y,z
1/2-x,-y,1/2+z
1/2+x,1/2-y,-z
1/2-x,y,1/2-z
1/2-x,1/2-y,-z
1/2+x,y,1/2-z
1/2-x,1/2+y,z
1/2+x,-y,1/2+z
loop_
_atom_site_type_symbol
_atom_site_label
_atom_site_fract_x
_atom_site_fract_y
_atom_site_fract_z
Si Si1 0.118560 0.430695 0.061783
Si Si2 0.644663 0.953388 0.592146
Si Si3 0.000000 0.269003 0.789196
Si Si4 0.500000 0.067398 0.316782
Si Si5 0.762412 0.921868 0.154059
Si Si6 0.693577 0.816330 0.497823
Si Si7 0.000000 0.405299 0.202699
Si Si8 0.576877 0.712815 0.460616
O O1 0.192650 0.445413 0.104161
O O2 0.066244 0.412371 0.139899
O O3 0.094741 0.500000 0.000000
O O4 0.119716 0.359438 0.994442
O O5 0.569556 0.934604 0.626830
O O6 0.693145 0.880249 0.572858
O O7 0.639769 0.000000 0.500000
O O8 0.684939 0.007725 0.658924
O O9 0.000000 0.348890 0.733425
O O10 0.935753 0.277033 0.857077
O O11 0.000000 0.181721 0.747394
O O12 0.500000 0.984740 0.262085
O O13 0.750000 0.891326 0.250000
O O14 0.796056 0.857938 0.093848
O O15 0.750000 0.750000 0.500000
O O16 0.616836 0.784345 0.498844
O O17 0.500000 0.704776 0.496771
#
# Coordination Sequence:
#
# PCOD9481458 Si02
#       8
#    16  16   8   8  16  16   8  16
#     4  12  23  42  73  94 133 183 234 276 336 423
#     4  10  25  43  67  96 131 180 228 272 338 421
#     4  10  27  42  66 106 147 167 231 296 344 409
#     4  12  25  45  67 100 142 178 231 290 347 404
#     4  11  25  44  65  98 133 171 222 283 344 402
#     4  11  23  44  69  97 130 179 225 270 342 414
#     4  12  26  41  72 105 140 184 228 294 361 388
#     4  10  24  42  66  96 133 174 222 276 329 408
#
# _framework density 20.092635000000001
#
# number of rings (size 3 to 8) (size 9 to 14) (size 15 to 20)
#    0.462    0.615    2.308    3.692    9.692    0.000 
#    0.000    0.000    0.000    0.000    0.000    0.000 
#    0.000    0.000    0.000    0.000    0.000    0.000 
#
# Total GULP energy -289843.927262 kJ/mol
# GULP energy per Si atom -5573.921678 kJ/mol
# Density = 2.004690 g / cm^3
# Si number density = 20.092635 Si / 1000 Ang^3
#
#
#
# Elastic Constant Matrix: (Units=GPa)
#
#
# Indices 1 2 3 4 5 6 
#
# 1 78.9660 21.7795 1.8944 0.0000 0.0000 0.0000
# 2 21.7795 119.5026 42.3786 0.0000 0.0000 0.0000
# 3 1.8944 42.3786 53.7435 0.0000 0.0000 0.0000
# 4 0.0000 0.0000 0.0000 21.1052 0.0000 0.0000
# 5 0.0000 0.0000 0.0000 0.0000 14.4259 0.0000
# 6 0.0000 0.0000 0.0000 0.0000 0.0000 34.5038
#
#
#
# Elastic Compliance Matrix: (Units=1/GPa)
#
#
# Indices 1 2 3 4 5 6 
#
# 1 0.013492 -0.003179 0.002031 0.000000 0.000000 0.000000
# 2 -0.003179 0.012366 -0.009639 0.000000 0.000000 0.000000
# 3 0.002031 -0.009639 0.026136 0.000000 0.000000 0.000000
# 4 0.000000 0.000000 0.000000 0.047382 0.000000 0.000000
# 5 0.000000 0.000000 0.000000 0.000000 0.069320 0.000000
# 6 0.000000 0.000000 0.000000 0.000000 0.000000 0.028982
#
#
# Mechanical properties :
#
#
# Convention : Reuss Voigt Hill
#
# Bulk Modulus (GPa) = 32.87306 42.70191 37.78748
# Shear Modulus (GPa) = 21.79701 26.41765 24.10733
#
# Velocity S-wave (km/s) = 3.29724 3.62994 3.46758
# Velocity P-wave (km/s) = 5.55806 6.23436 5.90590
#
# Compressibility (1/GPa) = 0.03042004
#
# Stress axis : x y z
#
# Youngs Moduli (GPa) = 74.11900 80.87014 38.26201
#
# Poissons Ratio (x) = 0.25711 -0.07772
# Poissons Ratio (y) = 0.23565 0.36879
# Poissons Ratio (z) = -0.15056 0.77947
#
# Static dielectric constant tensor:
#      x y z
#    x 1.812300 0.000000 0.000000 
#    y 0.000000 1.782120 0.000000 
#    z 0.000000 0.000000 1.714430 
# 
# From -- ./inp_files/26592.got.cif
#   From: 2010.05.17/outbox.cif.g08.bks.cpg/sg64_14_cif.got.tgz:26592.got - 2010.06.03 16:29:19.
