data_PCOD9481107
_publ_section_title
;
Structure prediction by ZEFSAII (Michael W. Deem and Ramdas Pophale) SiO2 
 PCOD9481107
Probable space group: C M C A
;
_chemical_formula_sum "Si O2"
_cell_formula_units_Z 96
_cell_length_a 16.200320
_cell_length_b 14.681061
_cell_length_c 17.130185
_cell_angle_alpha 90.000000
_cell_angle_beta 90.000000
_cell_angle_gamma 90.000000
_cell_volume 4074.206990
_symmetry_space_group_name_H-M "C M C A"
_symmetry_group_IT_number 64
_symmetry_cell_setting 'orthorhombic'
loop_
_space_group_symop_operation_xyz
x,y,z
-x,1/2-y,1/2+z
x,-y,-z
-x,1/2+y,1/2-z
-x,-y,-z
x,1/2+y,1/2-z
-x,y,z
x,1/2-y,1/2+z
1/2+x,1/2+y,z
1/2-x,-y,1/2+z
1/2+x,1/2-y,-z
1/2-x,y,1/2-z
1/2-x,1/2-y,-z
1/2+x,y,1/2-z
1/2-x,1/2+y,z
1/2+x,-y,1/2+z
loop_
_atom_site_type_symbol
_atom_site_label
_atom_site_fract_x
_atom_site_fract_y
_atom_site_fract_z
Si Si1 0.644144 0.161986 0.708684
Si Si2 0.678341 0.327021 0.929709
Si Si3 0.407399 0.969070 0.149267
Si Si4 0.500000 0.604497 0.088011
Si Si5 0.817059 0.635707 0.195588
Si Si6 0.768785 0.124947 0.576179
Si Si7 0.000000 0.390682 0.401202
O O1 0.611819 0.100147 0.779208
O O2 0.657602 0.267193 0.731402
O O3 0.725431 0.130635 0.661345
O O4 0.576581 0.156110 0.640651
O O5 0.590850 0.355226 0.891687
O O6 0.760637 0.344557 0.879359
O O7 0.681769 0.218444 0.941905
O O8 0.698705 0.380798 0.009931
O O9 0.500000 0.954053 0.121765
O O10 0.337447 0.951640 0.084782
O O11 0.393088 0.070999 0.179643
O O12 0.500000 0.499410 0.114107
O O13 0.500000 0.616797 0.994038
O O14 0.750000 0.585998 0.250000
#
# Coordination Sequence:
#
# PCOD9481107 Si02
#       7
#    16  16  16   8  16  16   8
#     4  11  22  47  68  94 138 177 220 284 341 404
#     4  10  23  43  71  99 134 179 224 280 339 407
#     4  12  27  42  67 102 134 179 229 284 340 408
#     4  11  24  40  69 110 130 167 236 285 338 399
#     4  11  26  46  69  96 132 184 226 275 354 417
#     4  10  22  44  68  98 135 180 222 275 347 401
#     4  11  24  38  67 104 136 170 221 293 345 379
#
# _framework density 23.562868000000002
#
# number of rings (size 3 to 8) (size 9 to 14) (size 15 to 20)
#    0.000    1.167    2.500    3.500    7.000    0.667 
#    0.000    1.667    0.000    0.000    0.000    0.000 
#    0.000    0.000    0.000    0.000    0.000    0.000 
#
# Total GULP energy -268328.880041 kJ/mol
# GULP energy per Si atom -5590.185001 kJ/mol
# Density = 2.350924 g / cm^3
# Si number density = 23.562868 Si / 1000 Ang^3
#
#
#
# Elastic Constant Matrix: (Units=GPa)
#
#
# Indices 1 2 3 4 5 6 
#
# 1 130.3902 30.4039 -1.3155 0.0000 0.0000 0.0000
# 2 30.4039 80.0625 2.4400 0.0000 0.0000 0.0000
# 3 -1.3155 2.4400 57.1644 0.0000 0.0000 0.0000
# 4 0.0000 0.0000 0.0000 23.2763 0.0000 0.0000
# 5 0.0000 0.0000 0.0000 0.0000 10.1143 0.0000
# 6 0.0000 0.0000 0.0000 0.0000 0.0000 18.9007
#
#
#
# Elastic Compliance Matrix: (Units=1/GPa)
#
#
# Indices 1 2 3 4 5 6 
#
# 1 0.008421 -0.003208 0.000331 0.000000 0.000000 0.000000
# 2 -0.003208 0.013729 -0.000660 0.000000 0.000000 0.000000
# 3 0.000331 -0.000660 0.017529 0.000000 0.000000 0.000000
# 4 0.000000 0.000000 0.000000 0.042962 0.000000 0.000000
# 5 0.000000 0.000000 0.000000 0.000000 0.098870 0.000000
# 6 0.000000 0.000000 0.000000 0.000000 0.000000 0.052908
#
#
# Mechanical properties :
#
#
# Convention : Reuss Voigt Hill
#
# Bulk Modulus (GPa) = 30.67065 36.74156 33.70611
# Shear Modulus (GPa) = 19.81293 26.19751 23.00522
#
# Velocity S-wave (km/s) = 2.90289 3.33800 3.12802
# Velocity P-wave (km/s) = 4.92753 5.52116 5.23277
#
# Compressibility (1/GPa) = 0.03260446
#
# Stress axis : x y z
#
# Youngs Moduli (GPa) = 118.75621 72.84105 57.04772
#
# Poissons Ratio (x) = 0.23366 -0.01887
# Poissons Ratio (y) = 0.38095 0.03764
# Poissons Ratio (z) = -0.03927 0.04806
#
# Static dielectric constant tensor:
#      x y z
#    x 1.878410 0.000000 0.000000 
#    y 0.000000 1.872310 0.000000 
#    z 0.000000 0.000000 1.970030 
# 
# From -- ./inp_files/39269.got.cif
#   From: 2010.05.17/outbox.cif.g08.bks.cpg/sg64_20_cif.got.tgz:39269.got - 2010.06.03 16:29:19.
