data_PCOD9481576
_publ_section_title
;
Structure prediction by ZEFSAII (Michael W. Deem and Ramdas Pophale) SiO2 
 PCOD9481576
Probable space group: C M C A
;
_chemical_formula_sum "Si O2"
_cell_formula_units_Z 112
_cell_length_a 15.130485
_cell_length_b 21.797744
_cell_length_c 15.867037
_cell_angle_alpha 90.000000
_cell_angle_beta 90.000000
_cell_angle_gamma 90.000000
_cell_volume 5233.114433
_symmetry_space_group_name_H-M "C M C A"
_symmetry_group_IT_number 64
_symmetry_cell_setting 'orthorhombic'
loop_
_space_group_symop_operation_xyz
x,y,z
-x,1/2-y,1/2+z
x,-y,-z
-x,1/2+y,1/2-z
-x,-y,-z
x,1/2+y,1/2-z
-x,y,z
x,1/2-y,1/2+z
1/2+x,1/2+y,z
1/2-x,-y,1/2+z
1/2+x,1/2-y,-z
1/2-x,y,1/2-z
1/2-x,1/2-y,-z
1/2+x,y,1/2-z
1/2-x,1/2+y,z
1/2+x,-y,1/2+z
loop_
_atom_site_type_symbol
_atom_site_label
_atom_site_fract_x
_atom_site_fract_y
_atom_site_fract_z
Si Si1 0.895149 0.008738 0.100409
Si Si2 0.095241 0.303232 0.407207
Si Si3 0.896798 0.133811 0.563499
Si Si4 0.400731 0.876973 0.718047
Si Si5 0.859514 0.773368 0.902876
Si Si6 0.268237 0.402777 0.153609
Si Si7 0.662290 0.825079 0.881877
O O1 0.876414 0.074446 0.144433
O O2 0.000000 0.996911 0.112472
O O3 0.831405 0.960983 0.145297
O O4 0.879076 0.000000 0.000000
O O5 0.100392 0.292296 0.507349
O O6 0.175682 0.346720 0.384259
O O7 0.104473 0.236087 0.366491
O O8 0.000000 0.330940 0.385317
O O9 0.875231 0.200923 0.603570
O O10 0.824375 0.089639 0.604949
O O11 0.874988 0.141627 0.464538
O O12 0.000000 0.119242 0.575928
O O13 0.500000 0.892830 0.746928
O O14 0.401243 0.811554 0.672105
O O15 0.340808 0.868654 0.800713
O O16 0.757755 0.795732 0.902245
O O17 0.250000 0.388955 0.250000
#
# Coordination Sequence:
#
# PCOD9481576 Si02
#       7
#    16  16  16  16  16  16  16
#     4  10  24  49  76 100 129 171 226 285 343 401
#     4  11  21  39  64  93 133 183 224 272 333 394
#     4  11  23  42  64  96 142 186 221 265 337 414
#     4  11  23  38  66 104 133 169 223 285 340 396
#     4  11  20  38  63  97 140 177 223 271 327 397
#     4  12  26  43  66  97 133 173 227 276 328 394
#     4  11  21  38  62  98 143 176 218 275 337 411
#
# _framework density 21.402170000000002
#
# number of rings (size 3 to 8) (size 9 to 14) (size 15 to 20)
#    0.000    1.000    2.857    6.000    2.000    3.429 
#    0.000    0.000    0.000    0.429    0.000    0.000 
#    0.000    0.000    0.000    0.000    0.000    0.000 
#
# Total GULP energy -313006.621987 kJ/mol
# GULP energy per Si atom -5589.403964 kJ/mol
# Density = 2.135346 g / cm^3
# Si number density = 21.402170 Si / 1000 Ang^3
#
#
#
# Elastic Constant Matrix: (Units=GPa)
#
#
# Indices 1 2 3 4 5 6 
#
# 1 124.9837 -1.9255 20.7585 0.0000 0.0000 0.0000
# 2 -1.9255 29.2856 29.2880 0.0000 0.0000 0.0000
# 3 20.7585 29.2880 73.4968 0.0000 0.0000 0.0000
# 4 0.0000 0.0000 0.0000 22.1709 0.0000 0.0000
# 5 0.0000 0.0000 0.0000 0.0000 35.4827 0.0000
# 6 0.0000 0.0000 0.0000 0.0000 0.0000 277.8979
#
#
#
# Elastic Compliance Matrix: (Units=1/GPa)
#
#
# Indices 1 2 3 4 5 6 
#
# 1 0.008833 0.005113 -0.004532 0.000000 0.000000 0.000000
# 2 0.005113 0.059732 -0.025247 0.000000 0.000000 0.000000
# 3 -0.004532 -0.025247 0.024947 0.000000 0.000000 0.000000
# 4 0.000000 0.000000 0.000000 0.045104 0.000000 0.000000
# 5 0.000000 0.000000 0.000000 0.000000 0.028183 0.000000
# 6 0.000000 0.000000 0.000000 0.000000 0.000000 0.003598
#
#
# Mechanical properties :
#
#
# Convention : Reuss Voigt Hill
#
# Bulk Modulus (GPa) = 22.63494 36.00091 29.31793
# Shear Modulus (GPa) = 21.32609 79.08664 50.20637
#
# Velocity S-wave (km/s) = 3.16008 6.08546 4.84866
# Velocity P-wave (km/s) = 4.89017 8.13848 6.71374
#
# Compressibility (1/GPa) = 0.04417949
#
# Stress axis : x y z
#
# Youngs Moduli (GPa) = 113.21687 16.74156 40.08517
#
# Poissons Ratio (x) = -0.08561 0.18168
# Poissons Ratio (y) = -0.57893 1.01203
# Poissons Ratio (z) = 0.51314 0.42267
#
# Static dielectric constant tensor:
#      x y z
#    x 1.691820 0.000000 0.000000 
#    y 0.000000 1.768650 0.000000 
#    z 0.000000 0.000000 1.755450 
# 
# From -- ./inp_files/24232.got.cif
#   From: 2010.05.17/outbox.cif.g08.bks.cpg/sg64_13_cif.got.tgz:24232.got - 2010.06.03 16:29:19.
