data_PCOD9481336
_publ_section_title
;
Structure prediction by ZEFSAII (Michael W. Deem and Ramdas Pophale) SiO2 
 PCOD9481336
Probable space group: C M C A
;
_chemical_formula_sum "Si O2"
_cell_formula_units_Z 88
_cell_length_a 11.920633
_cell_length_b 14.086007
_cell_length_c 25.866977
_cell_angle_alpha 90.000000
_cell_angle_beta 90.000000
_cell_angle_gamma 90.000000
_cell_volume 4343.430677
_symmetry_space_group_name_H-M "C M C A"
_symmetry_group_IT_number 64
_symmetry_cell_setting 'orthorhombic'
loop_
_space_group_symop_operation_xyz
x,y,z
-x,1/2-y,1/2+z
x,-y,-z
-x,1/2+y,1/2-z
-x,-y,-z
x,1/2+y,1/2-z
-x,y,z
x,1/2-y,1/2+z
1/2+x,1/2+y,z
1/2-x,-y,1/2+z
1/2+x,1/2-y,-z
1/2-x,y,1/2-z
1/2-x,1/2-y,-z
1/2+x,y,1/2-z
1/2-x,1/2+y,z
1/2+x,-y,1/2+z
loop_
_atom_site_type_symbol
_atom_site_label
_atom_site_fract_x
_atom_site_fract_y
_atom_site_fract_z
Si Si1 0.625989 0.534596 0.645860
Si Si2 0.239034 0.149247 0.122496
Si Si3 0.690931 0.652301 0.902568
Si Si4 0.500000 0.852966 0.228236
Si Si5 0.000000 0.560106 0.662992
Si Si6 0.871545 0.889508 0.984642
Si Si7 0.000000 0.343172 0.676309
O O1 0.500000 0.510505 0.628073
O O2 0.698287 0.438827 0.649300
O O3 0.688331 0.604599 0.606290
O O4 0.604261 0.594222 0.698813
O O5 0.310221 0.245446 0.124201
O O6 0.212233 0.126381 0.062558
O O7 0.116635 0.169129 0.146032
O O8 0.605111 0.581294 0.874024
O O9 0.660931 0.662717 0.962478
O O10 0.500000 0.871329 0.288402
O O11 0.500000 0.741084 0.217612
O O12 0.000000 0.455472 0.687696
O O13 0.000000 0.865506 0.969582
O O14 0.869703 0.000000 0.000000
#
# Coordination Sequence:
#
# PCOD9481336 Si02
#       7
#    16  16  16   8   8  16   8
#     4  10  23  44  63  95 140 170 219 282 338 399
#     4  12  23  42  70  97 139 181 220 279 345 400
#     4  12  24  43  66 101 137 174 229 288 330 404
#     4  10  26  48  68 100 138 176 226 278 353 401
#     4  12  26  45  74 101 130 176 238 285 330 393
#     4  11  21  38  67 101 134 177 235 277 330 404
#     4  12  22  45  72  98 126 183 221 271 336 408
#
# _framework density 20.260483000000001
#
# number of rings (size 3 to 8) (size 9 to 14) (size 15 to 20)
#    0.545    0.182    7.273    0.545    1.273    2.182 
#    0.000    3.636    0.000    0.000    0.000    0.000 
#    0.000    0.000    0.000    0.000    0.000    0.000 
#
# Total GULP energy -245544.398928 kJ/mol
# GULP energy per Si atom -5580.554521 kJ/mol
# Density = 2.021437 g / cm^3
# Si number density = 20.260483 Si / 1000 Ang^3
#
#
#
# Elastic Constant Matrix: (Units=GPa)
#
#
# Indices 1 2 3 4 5 6 
#
# 1 79.1740 7.6208 12.5528 0.0000 0.0000 0.0000
# 2 7.6208 88.8125 2.8945 0.0000 0.0000 0.0000
# 3 12.5528 2.8945 65.9001 0.0000 0.0000 0.0000
# 4 0.0000 0.0000 0.0000 25.6356 0.0000 0.0000
# 5 0.0000 0.0000 0.0000 0.0000 3.4664 0.0000
# 6 0.0000 0.0000 0.0000 0.0000 0.0000 6.0526
#
#
#
# Elastic Compliance Matrix: (Units=1/GPa)
#
#
# Indices 1 2 3 4 5 6 
#
# 1 0.013120 -0.001046 -0.002453 0.000000 0.000000 0.000000
# 2 -0.001046 0.011359 -0.000300 0.000000 0.000000 0.000000
# 3 -0.002453 -0.000300 0.015655 0.000000 0.000000 0.000000
# 4 0.000000 0.000000 0.000000 0.039008 0.000000 0.000000
# 5 0.000000 0.000000 0.000000 0.000000 0.288482 0.000000
# 6 0.000000 0.000000 0.000000 0.000000 0.000000 0.165219
#
#
# Mechanical properties :
#
#
# Convention : Reuss Voigt Hill
#
# Bulk Modulus (GPa) = 30.73458 31.11365 30.92412
# Shear Modulus (GPa) = 9.06970 21.08548 15.07759
#
# Velocity S-wave (km/s) = 2.11808 3.22952 2.73094
# Velocity P-wave (km/s) = 4.60264 5.41263 5.02399
#
# Compressibility (1/GPa) = 0.03253664
#
# Stress axis : x y z
#
# Youngs Moduli (GPa) = 76.21942 88.03443 63.87760
#
# Poissons Ratio (x) = 0.09207 0.15670
# Poissons Ratio (y) = 0.07971 0.01915
# Poissons Ratio (z) = 0.18698 0.02639
#
# Static dielectric constant tensor:
#      x y z
#    x 1.735880 0.000000 0.000000 
#    y 0.000000 1.740390 0.000000 
#    z 0.000000 0.000000 1.688620 
# 
# From -- ./inp_files/49252.got.cif
#   From: 2010.05.17/outbox.cif.g08.bks.cpg/sg64_25_cif.got.tgz:49252.got - 2010.06.03 16:29:19.
