data_PCOD9481993
_publ_section_title
;
Structure prediction by ZEFSAII (Michael W. Deem and Ramdas Pophale) SiO2 
 PCOD9481993
Probable space group: C M C A
;
_chemical_formula_sum "Si O2"
_cell_formula_units_Z 80
_cell_length_a 7.848622
_cell_length_b 20.065088
_cell_length_c 26.016847
_cell_angle_alpha 90.000000
_cell_angle_beta 90.000000
_cell_angle_gamma 90.000000
_cell_volume 4097.218690
_symmetry_space_group_name_H-M "C M C A"
_symmetry_group_IT_number 64
_symmetry_cell_setting 'orthorhombic'
loop_
_space_group_symop_operation_xyz
x,y,z
-x,1/2-y,1/2+z
x,-y,-z
-x,1/2+y,1/2-z
-x,-y,-z
x,1/2+y,1/2-z
-x,y,z
x,1/2-y,1/2+z
1/2+x,1/2+y,z
1/2-x,-y,1/2+z
1/2+x,1/2-y,-z
1/2-x,y,1/2-z
1/2-x,1/2-y,-z
1/2+x,y,1/2-z
1/2-x,1/2+y,z
1/2+x,-y,1/2+z
loop_
_atom_site_type_symbol
_atom_site_label
_atom_site_fract_x
_atom_site_fract_y
_atom_site_fract_z
Si Si1 0.296432 0.968647 0.194164
Si Si2 0.000000 0.562582 0.071407
Si Si3 0.811428 0.361046 0.387466
Si Si4 0.801783 0.397509 0.647554
Si Si5 0.201730 0.751196 0.809360
Si Si6 0.000000 0.595645 0.953146
O O1 0.500000 0.968906 0.188192
O O2 0.250000 0.941233 0.250000
O O3 0.214329 0.924114 0.150037
O O4 0.224214 0.042784 0.187972
O O5 0.832864 0.585728 0.102734
O O6 0.000000 0.482017 0.065432
O O7 0.000000 0.592923 0.014501
O O8 0.788700 0.298139 0.349828
O O9 0.664802 0.367952 0.429732
O O10 0.000000 0.361387 0.410129
O O11 0.761608 0.327031 0.673943
O O12 0.000000 0.396592 0.630739
O O13 0.250000 0.740147 0.750000
O O14 0.000000 0.739430 0.813952
#
# Coordination Sequence:
#
# PCOD9481993 Si02
#       6
#    16   8  16  16  16   8
#     4  12  22  37  60  92 130 165 208 256 309 377
#     4  11  24  44  73  90 128 165 210 279 325 371
#     4  12  23  41  65  91 130 167 210 264 313 379
#     4  11  23  41  64  94 129 166 212 262 313 382
#     4  11  24  40  63  96 135 173 212 253 316 388
#     4  11  24  46  67  98 122 165 216 273 327 371
#
# _framework density 19.52544
#
# number of rings (size 3 to 8) (size 9 to 14) (size 15 to 20)
#    0.000    0.600    5.000    3.600    2.800    2.400 
#    0.000    3.000    0.000    0.000    0.000    0.000 
#    0.000    0.000    0.000    0.000    0.000    0.000 
#
# Total GULP energy -223727.810641 kJ/mol
# GULP energy per Si atom -5593.195266 kJ/mol
# Density = 1.948100 g / cm^3
# Si number density = 19.525440 Si / 1000 Ang^3
#
#
#
# Elastic Constant Matrix: (Units=GPa)
#
#
# Indices 1 2 3 4 5 6 
#
# 1 134.7617 19.2229 33.8270 0.0000 0.0000 0.0000
# 2 19.2229 66.4757 -11.3840 0.0000 0.0000 0.0000
# 3 33.8270 -11.3840 88.6308 0.0000 0.0000 0.0000
# 4 0.0000 0.0000 0.0000 22.6630 0.0000 0.0000
# 5 0.0000 0.0000 0.0000 0.0000 18.3139 0.0000
# 6 0.0000 0.0000 0.0000 0.0000 0.0000 25.8448
#
#
#
# Elastic Compliance Matrix: (Units=1/GPa)
#
#
# Indices 1 2 3 4 5 6 
#
# 1 0.008826 -0.003199 -0.003779 0.000000 0.000000 0.000000
# 2 -0.003199 0.016541 0.003346 0.000000 0.000000 0.000000
# 3 -0.003779 0.003346 0.013155 0.000000 0.000000 0.000000
# 4 0.000000 0.000000 0.000000 0.044125 0.000000 0.000000
# 5 0.000000 0.000000 0.000000 0.000000 0.054603 0.000000
# 6 0.000000 0.000000 0.000000 0.000000 0.000000 0.038692
#
#
# Mechanical properties :
#
#
# Convention : Reuss Voigt Hill
#
# Bulk Modulus (GPa) = 31.99413 41.46666 36.73040
# Shear Modulus (GPa) = 25.82290 29.91116 27.86703
#
# Velocity S-wave (km/s) = 3.64060 3.91820 3.78195
# Velocity P-wave (km/s) = 5.83896 6.46167 6.15819
#
# Compressibility (1/GPa) = 0.03125573
#
# Stress axis : x y z
#
# Youngs Moduli (GPa) = 113.30777 60.45513 76.01727
#
# Poissons Ratio (x) = 0.19341 0.28729
# Poissons Ratio (y) = 0.36251 -0.25433
# Poissons Ratio (z) = 0.42822 -0.20226
#
# Static dielectric constant tensor:
#      x y z
#    x 1.687560 0.000000 0.000000 
#    y 0.000000 1.690880 0.000000 
#    z 0.000000 0.000000 1.658440 
# 
# From -- ./inp_files/47934.got.cif
#   From: 2010.05.17/outbox.cif.g08.bks.cpg/sg64_24_cif.got.tgz:47934.got - 2010.06.03 16:29:19.
