data_PCOD9481824
_publ_section_title
;
Structure prediction by ZEFSAII (Michael W. Deem and Ramdas Pophale) SiO2 
 PCOD9481824
Probable space group: C M C A
;
_chemical_formula_sum "Si O2"
_cell_formula_units_Z 64
_cell_length_a 14.851551
_cell_length_b 11.985820
_cell_length_c 15.317087
_cell_angle_alpha 90.000000
_cell_angle_beta 90.000000
_cell_angle_gamma 90.000000
_cell_volume 2726.564283
_symmetry_space_group_name_H-M "C M C A"
_symmetry_group_IT_number 64
_symmetry_cell_setting 'orthorhombic'
loop_
_space_group_symop_operation_xyz
x,y,z
-x,1/2-y,1/2+z
x,-y,-z
-x,1/2+y,1/2-z
-x,-y,-z
x,1/2+y,1/2-z
-x,y,z
x,1/2-y,1/2+z
1/2+x,1/2+y,z
1/2-x,-y,1/2+z
1/2+x,1/2-y,-z
1/2-x,y,1/2-z
1/2-x,1/2-y,-z
1/2+x,y,1/2-z
1/2-x,1/2+y,z
1/2+x,-y,1/2+z
loop_
_atom_site_type_symbol
_atom_site_label
_atom_site_fract_x
_atom_site_fract_y
_atom_site_fract_z
Si Si1 0.500000 0.662127 0.420530
Si Si2 0.895806 0.916383 0.873369
Si Si3 0.350934 0.842549 0.428729
Si Si4 0.500000 0.089832 0.874946
Si Si5 0.685109 0.798317 0.172822
O O1 0.412652 0.738137 0.401711
O O2 0.500000 0.544005 0.372393
O O3 0.500000 0.631187 0.523877
O O4 0.836629 0.832603 0.817114
O O5 0.000000 0.899061 0.852907
O O6 0.875036 0.046585 0.874055
O O7 0.877961 0.873908 0.972635
O O8 0.245845 0.819391 0.413246
O O9 0.590953 0.138256 0.833612
O O10 0.750000 0.834807 0.250000
#
# Coordination Sequence:
#
# PCOD9481824 Si02
#       5
#     8  16  16   8  16
#     4  11  22  43  77 108 141 175 233 303 354 413
#     4  11  21  45  72 102 144 176 236 302 347 412
#     4  11  22  41  74 106 134 186 235 287 355 418
#     4  11  26  46  68 107 148 183 235 294 353 426
#     4  12  27  45  67  99 146 190 234 290 357 430
#
# _framework density 23.472764999999999
#
# number of rings (size 3 to 8) (size 9 to 14) (size 15 to 20)
#    0.000    0.750    6.250    1.500    3.500    4.000 
#    0.000    0.000    0.000    0.000    0.000    0.000 
#    0.000    0.000    0.000    0.000    0.000    0.000 
#
# Total GULP energy -179217.210127 kJ/mol
# GULP energy per Si atom -5600.537816 kJ/mol
# Density = 2.341934 g / cm^3
# Si number density = 23.472765 Si / 1000 Ang^3
#
#
#
# Elastic Constant Matrix: (Units=GPa)
#
#
# Indices 1 2 3 4 5 6 
#
# 1 197.0232 82.3140 33.5474 0.0000 0.0000 0.0000
# 2 82.3140 190.2306 19.7448 0.0000 0.0000 0.0000
# 3 33.5474 19.7448 57.7573 0.0000 0.0000 0.0000
# 4 0.0000 0.0000 0.0000 14.0736 0.0000 0.0000
# 5 0.0000 0.0000 0.0000 0.0000 25.8383 0.0000
# 6 0.0000 0.0000 0.0000 0.0000 0.0000 40.4212
#
#
#
# Elastic Compliance Matrix: (Units=1/GPa)
#
#
# Indices 1 2 3 4 5 6 
#
# 1 0.006659 -0.002571 -0.002989 0.000000 0.000000 0.000000
# 2 -0.002571 0.006443 -0.000709 0.000000 0.000000 0.000000
# 3 -0.002989 -0.000709 0.019292 0.000000 0.000000 0.000000
# 4 0.000000 0.000000 0.000000 0.071055 0.000000 0.000000
# 5 0.000000 0.000000 0.000000 0.000000 0.038702 0.000000
# 6 0.000000 0.000000 0.000000 0.000000 0.000000 0.024739
#
#
# Mechanical properties :
#
#
# Convention : Reuss Voigt Hill
#
# Bulk Modulus (GPa) = 50.36275 79.58039 64.97157
# Shear Modulus (GPa) = 26.87496 36.69361 31.78429
#
# Velocity S-wave (km/s) = 3.38737 3.95807 3.68379
# Velocity P-wave (km/s) = 6.06642 7.40712 6.77004
#
# Compressibility (1/GPa) = 0.01985595
#
# Stress axis : x y z
#
# Youngs Moduli (GPa) = 150.18292 155.21017 51.83454
#
# Poissons Ratio (x) = 0.39904 0.15491
# Poissons Ratio (y) = 0.38612 0.03676
# Poissons Ratio (z) = 0.44884 0.11008
#
# Static dielectric constant tensor:
#      x y z
#    x 1.823830 0.000000 0.000000 
#    y 0.000000 1.873210 0.000000 
#    z 0.000000 0.000000 1.981440 
# 
# From -- ./inp_files/31691.got.cif
#   From: 2010.05.17/outbox.cif.g08.bks.cpg/sg64_16_cif.got.tgz:31691.got - 2010.06.03 16:29:19.
