data_PCOD9481207
_publ_section_title
;
Structure prediction by ZEFSAII (Michael W. Deem and Ramdas Pophale) SiO2 
 PCOD9481207
Probable space group: C M C A
;
_chemical_formula_sum "Si O2"
_cell_formula_units_Z 72
_cell_length_a 31.952816
_cell_length_b 12.403907
_cell_length_c 7.636658
_cell_angle_alpha 90.000000
_cell_angle_beta 90.000000
_cell_angle_gamma 90.000000
_cell_volume 3026.711184
_symmetry_space_group_name_H-M "C M C A"
_symmetry_group_IT_number 64
_symmetry_cell_setting 'orthorhombic'
loop_
_space_group_symop_operation_xyz
x,y,z
-x,1/2-y,1/2+z
x,-y,-z
-x,1/2+y,1/2-z
-x,-y,-z
x,1/2+y,1/2-z
-x,y,z
x,1/2-y,1/2+z
1/2+x,1/2+y,z
1/2-x,-y,1/2+z
1/2+x,1/2-y,-z
1/2-x,y,1/2-z
1/2-x,1/2-y,-z
1/2+x,y,1/2-z
1/2-x,1/2+y,z
1/2+x,-y,1/2+z
loop_
_atom_site_type_symbol
_atom_site_label
_atom_site_fract_x
_atom_site_fract_y
_atom_site_fract_z
Si Si1 0.548364 0.431722 0.675051
Si Si2 0.405846 0.000000 0.500000
Si Si3 0.181722 0.174997 0.530978
Si Si4 0.875020 0.182975 0.220897
Si Si5 0.265455 0.390358 0.952529
O O1 0.554001 0.500000 0.500000
O O2 0.500000 0.401712 0.694378
O O3 0.564296 0.508616 0.831703
O O4 0.579621 0.329073 0.689198
O O5 0.379982 0.106279 0.448412
O O6 0.144816 0.203581 0.665191
O O7 0.158222 0.134510 0.358148
O O8 0.222786 0.106733 0.570100
O O9 0.205382 0.289717 0.501414
O O10 0.250000 0.379602 0.750000
O O11 0.288108 0.500000 0.000000
#
# Coordination Sequence:
#
# PCOD9481207 Si02
#       5
#    16   8  16  16  16
#     4   9  19  40  71 107 143 186 239 288 351 428
#     4   8  21  40  68 104 136 190 234 284 356 414
#     4  11  24  45  60 100 138 177 228 297 348 425
#     4  10  23  40  67  97 141 183 230 293 352 419
#     4  11  26  43  68  93 130 186 235 293 358 430
#
# _framework density 23.788195999999999
#
# number of rings (size 3 to 8) (size 9 to 14) (size 15 to 20)
#    1.333    0.667    2.222    0.333    4.667    2.667 
#    0.000    1.111    0.000    0.000    0.000    0.000 
#    0.000    0.000    0.000    0.000    0.000    0.000 
#
# Total GULP energy -200692.853865 kJ/mol
# GULP energy per Si atom -5574.801496 kJ/mol
# Density = 2.373405 g / cm^3
# Si number density = 23.788196 Si / 1000 Ang^3
#
#
#
# Elastic Constant Matrix: (Units=GPa)
#
#
# Indices 1 2 3 4 5 6 
#
# 1 177.8933 27.9193 59.6416 0.0000 0.0000 0.0000
# 2 27.9193 64.0280 6.2309 0.0000 0.0000 0.0000
# 3 59.6416 6.2309 113.7550 0.0000 0.0000 0.0000
# 4 0.0000 0.0000 0.0000 16.8588 0.0000 0.0000
# 5 0.0000 0.0000 0.0000 0.0000 43.9579 0.0000
# 6 0.0000 0.0000 0.0000 0.0000 0.0000 52.3104
#
#
#
# Elastic Compliance Matrix: (Units=1/GPa)
#
#
# Indices 1 2 3 4 5 6 
#
# 1 0.007295 -0.002824 -0.003670 0.000000 0.000000 0.000000
# 2 -0.002824 0.016795 0.000561 0.000000 0.000000 0.000000
# 3 -0.003670 0.000561 0.010684 0.000000 0.000000 0.000000
# 4 0.000000 0.000000 0.000000 0.059316 0.000000 0.000000
# 5 0.000000 0.000000 0.000000 0.000000 0.022749 0.000000
# 6 0.000000 0.000000 0.000000 0.000000 0.000000 0.019117
#
#
# Mechanical properties :
#
#
# Convention : Reuss Voigt Hill
#
# Bulk Modulus (GPa) = 43.65358 60.36221 52.00789
# Shear Modulus (GPa) = 32.16288 40.08437 36.12363
#
# Velocity S-wave (km/s) = 3.68102 4.10939 3.90109
# Velocity P-wave (km/s) = 6.03799 6.92431 6.49628
#
# Compressibility (1/GPa) = 0.02290763
#
# Stress axis : x y z
#
# Youngs Moduli (GPa) = 137.08056 59.54176 93.59499
#
# Poissons Ratio (x) = 0.16813 0.34350
# Poissons Ratio (y) = 0.38709 -0.05247
# Poissons Ratio (z) = 0.50310 -0.03338
#
# Static dielectric constant tensor:
#      x y z
#    x 1.903380 0.000000 0.000000 
#    y 0.000000 1.934270 0.000000 
#    z 0.000000 0.000000 2.011020 
# 
# From -- ./inp_files/10966.got.cif
#   From: 2010.05.17/outbox.cif.g08.bks.cpg/sg64_6_cif.got.tgz:10966.got - 2010.06.03 16:29:19.
