data_PCOD9481179
_publ_section_title
;
Structure prediction by ZEFSAII (Michael W. Deem and Ramdas Pophale) SiO2 
 PCOD9481179
Probable space group: C M C A
;
_chemical_formula_sum "Si O2"
_cell_formula_units_Z 80
_cell_length_a 11.208136
_cell_length_b 17.721556
_cell_length_c 17.432262
_cell_angle_alpha 90.000000
_cell_angle_beta 90.000000
_cell_angle_gamma 90.000000
_cell_volume 3462.493670
_symmetry_space_group_name_H-M "C M C A"
_symmetry_group_IT_number 64
_symmetry_cell_setting 'orthorhombic'
loop_
_space_group_symop_operation_xyz
x,y,z
-x,1/2-y,1/2+z
x,-y,-z
-x,1/2+y,1/2-z
-x,-y,-z
x,1/2+y,1/2-z
-x,y,z
x,1/2-y,1/2+z
1/2+x,1/2+y,z
1/2-x,-y,1/2+z
1/2+x,1/2-y,-z
1/2-x,y,1/2-z
1/2-x,1/2-y,-z
1/2+x,y,1/2-z
1/2-x,1/2+y,z
1/2+x,-y,1/2+z
loop_
_atom_site_type_symbol
_atom_site_label
_atom_site_fract_x
_atom_site_fract_y
_atom_site_fract_z
Si Si1 0.757481 0.664763 0.031417
Si Si2 0.218567 0.254412 0.832073
Si Si3 0.500000 0.021193 0.312195
Si Si4 0.750000 0.500217 0.250000
Si Si5 0.000000 0.143056 0.853778
Si Si6 0.000000 0.606388 0.465019
Si Si7 0.358945 0.611906 0.622090
O O1 0.821608 0.678473 0.111519
O O2 0.624252 0.644464 0.053989
O O3 0.750000 0.750000 0.000000
O O4 0.809457 0.611104 0.965920
O O5 0.250000 0.285224 0.750000
O O6 0.329959 0.198435 0.852892
O O7 0.113263 0.193677 0.836135
O O8 0.371721 0.043540 0.275802
O O9 0.500000 0.930787 0.302637
O O10 0.500000 0.038037 0.403905
O O11 0.710088 0.446363 0.322118
O O12 0.000000 0.115168 0.942115
O O13 0.500000 0.598063 0.622407
#
# Coordination Sequence:
#
# PCOD9481179 Si02
#       7
#    16  16   8   8   8   8  16
#     4  10  23  39  65  94 137 181 230 290 358 429
#     4  11  23  35  62  99 139 174 238 293 362 428
#     4  12  25  42  75  95 145 175 250 302 361 417
#     4  12  22  44  68 108 134 190 244 316 346 438
#     4  12  21  39  66 105 126 180 235 295 354 432
#     4  12  23  45  67  96 132 188 240 287 356 437
#     4  11  21  35  64  98 136 174 240 296 354 414
#
# _framework density 23.104734000000001
#
# number of rings (size 3 to 8) (size 9 to 14) (size 15 to 20)
#    0.000    0.800    8.000    0.300    8.400    0.000 
#    1.800    0.000    2.200    1.200    0.000    0.000 
#    0.000    0.000    0.000    0.000    0.000    0.000 
#
# Total GULP energy -223013.416108 kJ/mol
# GULP energy per Si atom -5575.335403 kJ/mol
# Density = 2.305215 g / cm^3
# Si number density = 23.104734 Si / 1000 Ang^3
#
#
#
# Elastic Constant Matrix: (Units=GPa)
#
#
# Indices 1 2 3 4 5 6 
#
# 1 153.9982 34.3548 27.0206 0.0000 0.0000 0.0000
# 2 34.3548 41.2630 25.3961 0.0000 0.0000 0.0000
# 3 27.0206 25.3961 156.6669 0.0000 0.0000 0.0000
# 4 0.0000 0.0000 0.0000 -5.5608 0.0000 0.0000
# 5 0.0000 0.0000 0.0000 0.0000 61.0380 0.0000
# 6 0.0000 0.0000 0.0000 0.0000 0.0000 27.8819
#
#
#
# Elastic Compliance Matrix: (Units=1/GPa)
#
#
# Indices 1 2 3 4 5 6 
#
# 1 0.007990 -0.006448 -0.000333 0.000000 0.000000 0.000000
# 2 -0.006448 0.032124 -0.004095 0.000000 0.000000 0.000000
# 3 -0.000333 -0.004095 0.007104 0.000000 0.000000 0.000000
# 4 0.000000 0.000000 0.000000 -0.179831 0.000000 0.000000
# 5 0.000000 0.000000 0.000000 0.000000 0.016383 0.000000
# 6 0.000000 0.000000 0.000000 0.000000 0.000000 0.035866
#
#
# Mechanical properties :
#
#
# Convention : Reuss Voigt Hill
#
# Bulk Modulus (GPa) = 39.26754 58.38569 48.82662
# Shear Modulus (GPa) = -99.75462 34.34893 -32.70284
#
# Velocity S-wave (km/s) = -6.57789 3.85991 -3.76628
# Velocity P-wave (km/s) = 6.37646 6.72236 1.50513
#
# Compressibility (1/GPa) = 0.02546632
#
# Stress axis : x y z
#
# Youngs Moduli (GPa) = 125.15019 31.12982 140.76100
#
# Poissons Ratio (x) = 0.20072 0.04686
# Poissons Ratio (y) = 0.80694 0.57645
# Poissons Ratio (z) = 0.04167 0.12748
#
# Static dielectric constant tensor:
#      x y z
#    x 1.836640 0.000000 0.000000 
#    y 0.000000 1.866190 0.000000 
#    z 0.000000 0.000000 2.020900 
# 
# From -- ./inp_files/30896.got.cif
#   From: 2010.05.17/outbox.cif.g08.bks.cpg/sg64_16_cif.got.tgz:30896.got - 2010.06.03 16:29:19.
