data_PCOD9481183
_publ_section_title
;
Structure prediction by ZEFSAII (Michael W. Deem and Ramdas Pophale) SiO2 
 PCOD9481183
Probable space group: C M C A
;
_chemical_formula_sum "Si O2"
_cell_formula_units_Z 80
_cell_length_a 16.275192
_cell_length_b 18.945687
_cell_length_c 10.367853
_cell_angle_alpha 90.000000
_cell_angle_beta 90.000000
_cell_angle_gamma 90.000000
_cell_volume 3196.872456
_symmetry_space_group_name_H-M "C M C A"
_symmetry_group_IT_number 64
_symmetry_cell_setting 'orthorhombic'
loop_
_space_group_symop_operation_xyz
x,y,z
-x,1/2-y,1/2+z
x,-y,-z
-x,1/2+y,1/2-z
-x,-y,-z
x,1/2+y,1/2-z
-x,y,z
x,1/2-y,1/2+z
1/2+x,1/2+y,z
1/2-x,-y,1/2+z
1/2+x,1/2-y,-z
1/2-x,y,1/2-z
1/2-x,1/2-y,-z
1/2+x,y,1/2-z
1/2-x,1/2+y,z
1/2+x,-y,1/2+z
loop_
_atom_site_type_symbol
_atom_site_label
_atom_site_fract_x
_atom_site_fract_y
_atom_site_fract_z
Si Si1 0.500000 0.360392 0.059143
Si Si2 0.663955 0.576749 0.055074
Si Si3 0.750000 0.210583 0.750000
Si Si4 0.500000 0.250814 0.873544
Si Si5 0.363145 0.328765 0.703952
Si Si6 0.000000 0.582950 0.832953
Si Si7 0.843502 0.891229 0.442869
O O1 0.500000 0.411649 0.181110
O O2 0.589367 0.378080 0.002044
O O3 0.500000 0.277020 0.022158
O O4 0.664062 0.605460 0.203130
O O5 0.641484 0.500000 0.000000
O O6 0.755629 0.585737 0.999234
O O7 0.702889 0.268189 0.662720
O O8 0.812873 0.162033 0.670180
O O9 0.425017 0.284653 0.792861
O O10 0.500000 0.167433 0.861628
O O11 0.389171 0.360045 0.568073
O O12 0.911726 0.556337 0.882440
#
# Coordination Sequence:
#
# PCOD9481183 Si02
#       7
#     8  16   8   8  16   8  16
#     4  10  25  46  67 104 129 184 241 284 356 425
#     4  11  25  49  75  95 134 186 248 292 342 414
#     4  12  22  38  68 100 148 178 226 286 354 434
#     4  10  23  39  70  99 144 184 224 288 365 429
#     4  11  23  42  68 105 136 184 232 293 350 422
#     4  12  25  39  62 106 148 176 217 283 358 441
#     4  12  25  42  67 105 143 187 228 291 358 415
#
# _framework density 25.024457999999999
#
# number of rings (size 3 to 8) (size 9 to 14) (size 15 to 20)
#    0.000    0.800    4.000    2.700    2.800    0.000 
#   10.800    0.500    0.000    0.000    0.000    0.000 
#    0.000    0.000    0.000    0.000    0.000    0.000 
#
# Total GULP energy -222676.059846 kJ/mol
# GULP energy per Si atom -5566.901496 kJ/mol
# Density = 2.496750 g / cm^3
# Si number density = 25.024458 Si / 1000 Ang^3
#
#
#
# Elastic Constant Matrix: (Units=GPa)
#
#
# Indices 1 2 3 4 5 6 
#
# 1 129.9030 -7.0865 24.7118 0.0000 0.0000 0.0000
# 2 -7.0865 58.7863 -12.5044 0.0000 0.0000 0.0000
# 3 24.7118 -12.5044 106.6501 0.0000 0.0000 0.0000
# 4 0.0000 0.0000 0.0000 16.3908 0.0000 0.0000
# 5 0.0000 0.0000 0.0000 0.0000 2309.1178 0.0000
# 6 0.0000 0.0000 0.0000 0.0000 0.0000 16.5824
#
#
#
# Elastic Compliance Matrix: (Units=1/GPa)
#
#
# Indices 1 2 3 4 5 6 
#
# 1 0.008073 0.000590 -0.001801 0.000000 0.000000 0.000000
# 2 0.000590 0.017489 0.001914 0.000000 0.000000 0.000000
# 3 -0.001801 0.001914 0.010018 0.000000 0.000000 0.000000
# 4 0.000000 0.000000 0.000000 0.061010 0.000000 0.000000
# 5 0.000000 0.000000 0.000000 0.000000 0.000433 0.000000
# 6 0.000000 0.000000 0.000000 0.000000 0.000000 0.060305
#
#
# Mechanical properties :
#
#
# Convention : Reuss Voigt Hill
#
# Bulk Modulus (GPa) = 27.03799 33.95345 30.49572
# Shear Modulus (GPa) = 29.71741 487.76610 258.74175
#
# Velocity S-wave (km/s) = 3.44980 13.97637 10.17939
# Velocity P-wave (km/s) = 5.16684 16.55444 12.26266
#
# Compressibility (1/GPa) = 0.03698499
#
# Stress axis : x y z
#
# Youngs Moduli (GPa) = 123.87088 57.17891 99.81789
#
# Poissons Ratio (x) = -0.03374 0.17981
# Poissons Ratio (y) = -0.07308 -0.19103
# Poissons Ratio (z) = 0.22314 -0.10943
#
# Static dielectric constant tensor:
#      x y z
#    x 1.864570 0.000000 0.000000 
#    y 0.000000 2.018870 0.000000 
#    z 0.000000 0.000000 1.949740 
# 
# From -- ./inp_files/16162.got.cif
#   From: 2010.05.17/outbox.cif.g08.bks.cpg/sg64_9_cif.got.tgz:16162.got - 2010.06.03 16:29:19.
