data_PCOD9481736
_publ_section_title
;
Structure prediction by ZEFSAII (Michael W. Deem and Ramdas Pophale) SiO2 
 PCOD9481736
Probable space group: C M C A
;
_chemical_formula_sum "Si O2"
_cell_formula_units_Z 80
_cell_length_a 7.892239
_cell_length_b 29.683370
_cell_length_c 19.923429
_cell_angle_alpha 90.000000
_cell_angle_beta 90.000000
_cell_angle_gamma 90.000000
_cell_volume 4667.426853
_symmetry_space_group_name_H-M "C M C A"
_symmetry_group_IT_number 64
_symmetry_cell_setting 'orthorhombic'
loop_
_space_group_symop_operation_xyz
x,y,z
-x,1/2-y,1/2+z
x,-y,-z
-x,1/2+y,1/2-z
-x,-y,-z
x,1/2+y,1/2-z
-x,y,z
x,1/2-y,1/2+z
1/2+x,1/2+y,z
1/2-x,-y,1/2+z
1/2+x,1/2-y,-z
1/2-x,y,1/2-z
1/2-x,1/2-y,-z
1/2+x,y,1/2-z
1/2-x,1/2+y,z
1/2+x,-y,1/2+z
loop_
_atom_site_type_symbol
_atom_site_label
_atom_site_fract_x
_atom_site_fract_y
_atom_site_fract_z
Si Si1 0.197505 0.776060 0.567189
Si Si2 0.698263 0.123442 0.058011
Si Si3 0.701621 0.297939 0.327408
Si Si4 0.500000 0.044132 0.590967
Si Si5 0.697045 0.390984 0.396978
Si Si6 0.000000 0.558270 0.428940
O O1 0.250000 0.750000 0.500000
O O2 0.268038 0.826492 0.574187
O O3 0.229108 0.743510 0.629537
O O4 0.000000 0.784311 0.559391
O O5 0.500000 0.117432 0.079008
O O6 0.829822 0.086665 0.085698
O O7 0.699539 0.119261 0.976786
O O8 0.500000 0.296584 0.334432
O O9 0.750000 0.295137 0.250000
O O10 0.755538 0.345715 0.359075
O O11 0.330874 0.069378 0.616227
O O12 0.500000 0.050653 0.509875
O O13 0.500000 0.990955 0.603886
O O14 0.500000 0.401001 0.379200
#
# Coordination Sequence:
#
# PCOD9481736 Si02
#       6
#    16  16  16   8  16   8
#     4  11  21  32  53  79 107 148 186 224 269 328
#     4   9  18  31  48  75 107 139 176 216 264 317
#     4  11  23  36  51  77 112 146 182 226 276 327
#     4   9  18  30  50  73 100 138 172 206 270 321
#     4   9  18  32  49  72 105 139 174 215 264 323
#     4   9  18  30  48  75 104 134 170 220 265 310
#
# _framework density 17.140066000000001
#
# number of rings (size 3 to 8) (size 9 to 14) (size 15 to 20)
#    0.000    2.200    2.000    1.200    5.600    0.800 
#    0.000    4.000    0.000    0.000    0.000    1.400 
#    0.000    0.000    0.000    0.000    0.000    0.000 
#
# Total GULP energy -222973.315353 kJ/mol
# GULP energy per Si atom -5574.332884 kJ/mol
# Density = 1.710105 g / cm^3
# Si number density = 17.140066 Si / 1000 Ang^3
#
#
#
# Elastic Constant Matrix: (Units=GPa)
#
#
# Indices 1 2 3 4 5 6 
#
# 1 78.4240 70.0607 9.0209 0.0000 0.0000 0.0000
# 2 70.0607 170.0993 23.0072 0.0000 0.0000 0.0000
# 3 9.0209 23.0072 28.4331 0.0000 0.0000 0.0000
# 4 0.0000 0.0000 0.0000 11.9468 0.0000 0.0000
# 5 0.0000 0.0000 0.0000 0.0000 15.8922 0.0000
# 6 0.0000 0.0000 0.0000 0.0000 0.0000 31.6778
#
#
#
# Elastic Compliance Matrix: (Units=1/GPa)
#
#
# Indices 1 2 3 4 5 6 
#
# 1 0.020178 -0.008360 0.000363 0.000000 0.000000 0.000000
# 2 -0.008360 0.010065 -0.005492 0.000000 0.000000 0.000000
# 3 0.000363 -0.005492 0.039499 0.000000 0.000000 0.000000
# 4 0.000000 0.000000 0.000000 0.083704 0.000000 0.000000
# 5 0.000000 0.000000 0.000000 0.000000 0.062924 0.000000
# 6 0.000000 0.000000 0.000000 0.000000 0.000000 0.031568
#
#
# Mechanical properties :
#
#
# Convention : Reuss Voigt Hill
#
# Bulk Modulus (GPa) = 23.38423 53.45934 38.42179
# Shear Modulus (GPa) = 17.29080 23.56120 20.42600
#
# Velocity S-wave (km/s) = 3.17960 3.71162 3.45586
# Velocity P-wave (km/s) = 5.21080 7.04454 6.19589
#
# Compressibility (1/GPa) = 0.04276385
#
# Stress axis : x y z
#
# Youngs Moduli (GPa) = 49.55907 99.35339 25.31698
#
# Poissons Ratio (x) = 0.83059 -0.00919
# Poissons Ratio (y) = 0.41431 0.13904
# Poissons Ratio (z) = -0.01798 0.54565
#
# Static dielectric constant tensor:
#      x y z
#    x 1.585400 0.000000 0.000000 
#    y 0.000000 1.591800 0.000000 
#    z 0.000000 0.000000 1.542550 
# 
# From -- ./inp_files/36691.got.cif
#   From: 2010.05.17/outbox.cif.g08.bks.cpg/sg64_19_cif.got.tgz:36691.got - 2010.06.03 16:29:19.
