data_PCOD9481261
_publ_section_title
;
Structure prediction by ZEFSAII (Michael W. Deem and Ramdas Pophale) SiO2 
 PCOD9481261
Probable space group: C M C A
;
_chemical_formula_sum "Si O2"
_cell_formula_units_Z 96
_cell_length_a 16.159980
_cell_length_b 12.083178
_cell_length_c 23.748415
_cell_angle_alpha 90.000000
_cell_angle_beta 90.000000
_cell_angle_gamma 90.000000
_cell_volume 4637.208484
_symmetry_space_group_name_H-M "C M C A"
_symmetry_group_IT_number 64
_symmetry_cell_setting 'orthorhombic'
loop_
_space_group_symop_operation_xyz
x,y,z
-x,1/2-y,1/2+z
x,-y,-z
-x,1/2+y,1/2-z
-x,-y,-z
x,1/2+y,1/2-z
-x,y,z
x,1/2-y,1/2+z
1/2+x,1/2+y,z
1/2-x,-y,1/2+z
1/2+x,1/2-y,-z
1/2-x,y,1/2-z
1/2-x,1/2-y,-z
1/2+x,y,1/2-z
1/2-x,1/2+y,z
1/2+x,-y,1/2+z
loop_
_atom_site_type_symbol
_atom_site_label
_atom_site_fract_x
_atom_site_fract_y
_atom_site_fract_z
Si Si1 0.094886 0.097532 0.658339
Si Si2 0.333002 0.725245 0.074714
Si Si3 0.905736 0.348836 0.841599
Si Si4 0.640902 0.227106 0.551875
Si Si5 0.400001 0.007748 0.618243
Si Si6 0.340898 0.144620 0.724324
O O1 0.143806 0.177545 0.617310
O O2 0.099715 0.140398 0.721952
O O3 0.000000 0.092891 0.639182
O O4 0.128235 0.972503 0.659070
O O5 0.235647 0.736119 0.062562
O O6 0.359955 0.608728 0.101471
O O7 0.376988 0.737739 0.014015
O O8 0.908726 0.304067 0.905219
O O9 0.851369 0.262156 0.806702
O O10 0.000000 0.349310 0.818844
O O11 0.625254 0.101737 0.572764
O O12 0.500000 0.999699 0.620346
O O13 0.366558 0.053699 0.677984
O O14 0.250000 0.129027 0.750000
#
# Coordination Sequence:
#
# PCOD9481261 Si02
#       6
#    16  16  16  16  16  16
#     4  11  24  40  62  97 133 171 219 271 330 398
#     4  11  25  41  67 101 131 174 223 276 330 399
#     4  10  23  42  65  91 131 174 215 270 333 396
#     4  10  23  43  67  96 135 172 221 278 333 391
#     4  11  24  45  71  99 134 179 230 280 334 399
#     4  11  24  42  67  94 129 174 219 277 332 397
#
# _framework density 20.702110000000001
#
# number of rings (size 3 to 8) (size 9 to 14) (size 15 to 20)
#    0.000    1.333    0.000    6.000    7.000    4.667 
#    0.000    1.667    0.000    0.000    0.000    0.000 
#    0.000    0.000    0.000    0.000    0.000    0.000 
#
# Total GULP energy -268389.800752 kJ/mol
# GULP energy per Si atom -5591.454182 kJ/mol
# Density = 2.065499 g / cm^3
# Si number density = 20.702110 Si / 1000 Ang^3
#
#
#
# Elastic Constant Matrix: (Units=GPa)
#
#
# Indices 1 2 3 4 5 6 
#
# 1 84.8095 36.6994 25.0376 0.0000 0.0000 0.0000
# 2 36.6994 144.3824 82.7554 0.0000 0.0000 0.0000
# 3 25.0376 82.7554 149.3480 0.0000 0.0000 0.0000
# 4 0.0000 0.0000 0.0000 11.2314 0.0000 0.0000
# 5 0.0000 0.0000 0.0000 0.0000 27.4608 0.0000
# 6 0.0000 0.0000 0.0000 0.0000 0.0000 15.8824
#
#
#
# Elastic Compliance Matrix: (Units=1/GPa)
#
#
# Indices 1 2 3 4 5 6 
#
# 1 0.013276 -0.003076 -0.000521 0.000000 0.000000 0.000000
# 2 -0.003076 0.010862 -0.005503 0.000000 0.000000 0.000000
# 3 -0.000521 -0.005503 0.009833 0.000000 0.000000 0.000000
# 4 0.000000 0.000000 0.000000 0.089036 0.000000 0.000000
# 5 0.000000 0.000000 0.000000 0.000000 0.036416 0.000000
# 6 0.000000 0.000000 0.000000 0.000000 0.000000 0.062963
#
#
# Mechanical properties :
#
#
# Convention : Reuss Voigt Hill
#
# Bulk Modulus (GPa) = 63.41103 74.16942 68.79022
# Shear Modulus (GPa) = 20.33824 26.51807 23.42816
#
# Velocity S-wave (km/s) = 3.13776 3.58290 3.36769
# Velocity P-wave (km/s) = 6.61998 7.28155 6.95863
#
# Compressibility (1/GPa) = 0.01577013
#
# Stress axis : x y z
#
# Youngs Moduli (GPa) = 75.32394 92.06339 101.70292
#
# Poissons Ratio (x) = 0.28316 0.05303
# Poissons Ratio (y) = 0.23167 0.55969
# Poissons Ratio (z) = 0.03927 0.50664
#
# Static dielectric constant tensor:
#      x y z
#    x 1.784360 0.000000 0.000000 
#    y 0.000000 1.711020 0.000000 
#    z 0.000000 0.000000 1.721970 
# 
# From -- ./inp_files/45744.got.cif
#   From: 2010.05.17/outbox.cif.g08.bks.cpg/sg64_23_cif.got.tgz:45744.got - 2010.06.03 16:29:19.
