data_PCOD9481783
_publ_section_title
;
Structure prediction by ZEFSAII (Michael W. Deem and Ramdas Pophale) SiO2 
 PCOD9481783
Probable space group: C M C A
;
_chemical_formula_sum "Si O2"
_cell_formula_units_Z 80
_cell_length_a 21.355271
_cell_length_b 11.749480
_cell_length_c 16.664087
_cell_angle_alpha 90.000000
_cell_angle_beta 90.000000
_cell_angle_gamma 90.000000
_cell_volume 4181.241552
_symmetry_space_group_name_H-M "C M C A"
_symmetry_group_IT_number 64
_symmetry_cell_setting 'orthorhombic'
loop_
_space_group_symop_operation_xyz
x,y,z
-x,1/2-y,1/2+z
x,-y,-z
-x,1/2+y,1/2-z
-x,-y,-z
x,1/2+y,1/2-z
-x,y,z
x,1/2-y,1/2+z
1/2+x,1/2+y,z
1/2-x,-y,1/2+z
1/2+x,1/2-y,-z
1/2-x,y,1/2-z
1/2-x,1/2-y,-z
1/2+x,y,1/2-z
1/2-x,1/2+y,z
1/2+x,-y,1/2+z
loop_
_atom_site_type_symbol
_atom_site_label
_atom_site_fract_x
_atom_site_fract_y
_atom_site_fract_z
Si Si1 0.135000 0.879629 0.333245
Si Si2 0.313509 0.500000 0.000000
Si Si3 0.368631 0.253703 0.997604
Si Si4 0.250000 0.262015 0.250000
Si Si5 0.789408 0.093317 0.391285
Si Si6 0.500000 0.056285 0.858517
Si Si7 0.000000 0.663243 0.040337
O O1 0.131702 0.787446 0.405340
O O2 0.188325 0.835906 0.272218
O O3 0.062405 0.903422 0.312521
O O4 0.159254 0.001335 0.365400
O O5 0.351715 0.615394 0.992614
O O6 0.268348 0.520314 0.075739
O O7 0.317558 0.172143 0.039001
O O8 0.435215 0.230635 0.038917
O O9 0.232147 0.178875 0.322704
O O10 0.500000 0.923847 0.884795
O O11 0.500000 0.107210 0.950128
#
# Coordination Sequence:
#
# PCOD9481783 Si02
#       7
#    16   8  16   8  16   8   8
#     4  11  21  41  64  93 125 164 215 271 319 388
#     4  12  22  35  60  91 134 168 212 272 324 366
#     4  11  21  38  65  93 124 165 217 267 322 372
#     4  12  26  38  58  98 132 164 208 266 340 388
#     4  12  22  39  63  90 127 168 215 268 322 386
#     4   9  18  36  67  91 121 161 209 262 317 378
#     4   9  18  35  63  97 117 157 213 261 314 381
#
# _framework density 19.133071999999999
#
# number of rings (size 3 to 8) (size 9 to 14) (size 15 to 20)
#    0.000    1.000    6.000    2.400    0.000    0.400 
#    0.000    2.000    0.000    0.000    0.000    0.000 
#    0.000    0.000    0.000    0.000    0.000    0.000 
#
# Total GULP energy -223256.269850 kJ/mol
# GULP energy per Si atom -5581.406746 kJ/mol
# Density = 1.908952 g / cm^3
# Si number density = 19.133072 Si / 1000 Ang^3
#
#
#
# Elastic Constant Matrix: (Units=GPa)
#
#
# Indices 1 2 3 4 5 6 
#
# 1 163.6736 68.6577 35.0698 0.0000 0.0000 0.0000
# 2 68.6577 111.9793 4.7479 0.0000 0.0000 0.0000
# 3 35.0698 4.7479 32.9892 0.0000 0.0000 0.0000
# 4 0.0000 0.0000 0.0000 20.8605 0.0000 0.0000
# 5 0.0000 0.0000 0.0000 0.0000 -79.2291 0.0000
# 6 0.0000 0.0000 0.0000 0.0000 0.0000 58.7627
#
#
#
# Elastic Compliance Matrix: (Units=1/GPa)
#
#
# Indices 1 2 3 4 5 6 
#
# 1 0.011107 -0.006348 -0.010894 0.000000 0.000000 0.000000
# 2 -0.006348 0.012613 0.004933 0.000000 0.000000 0.000000
# 3 -0.010894 0.004933 0.041184 0.000000 0.000000 0.000000
# 4 0.000000 0.000000 0.000000 0.047937 0.000000 0.000000
# 5 0.000000 0.000000 0.000000 0.000000 -0.012622 0.000000
# 6 0.000000 0.000000 0.000000 0.000000 0.000000 0.017018
#
#
# Mechanical properties :
#
#
# Convention : Reuss Voigt Hill
#
# Bulk Modulus (GPa) = 24.82223 58.39921 41.61072
# Shear Modulus (GPa) = 32.19931 13.42327 22.81129
#
# Velocity S-wave (km/s) = 4.10678 2.65160 3.45663
# Velocity P-wave (km/s) = 5.95728 6.32167 6.14218
#
# Compressibility (1/GPa) = 0.04028647
#
# Stress axis : x y z
#
# Youngs Moduli (GPa) = 90.03579 79.28219 24.28146
#
# Poissons Ratio (x) = 0.50328 0.26451
# Poissons Ratio (y) = 0.57154 -0.11978
# Poissons Ratio (z) = 0.98081 -0.39110
#
# Static dielectric constant tensor:
#      x y z
#    x 1.683810 0.000000 0.000000 
#    y 0.000000 1.649280 0.000000 
#    z 0.000000 0.000000 1.679150 
# 
# From -- ./inp_files/34908.got.cif
#   From: 2010.05.17/outbox.cif.g08.bks.cpg/sg64_18_cif.got.tgz:34908.got - 2010.06.03 16:29:19.
