data_PCOD9481465
_publ_section_title
;
Structure prediction by ZEFSAII (Michael W. Deem and Ramdas Pophale) SiO2 
 PCOD9481465
Probable space group: C M C A
;
_chemical_formula_sum "Si O2"
_cell_formula_units_Z 52
_cell_length_a 20.984281
_cell_length_b 5.412034
_cell_length_c 17.003070
_cell_angle_alpha 90.000000
_cell_angle_beta 90.000000
_cell_angle_gamma 90.000000
_cell_volume 1930.998571
_symmetry_space_group_name_H-M "C M C A"
_symmetry_group_IT_number 64
_symmetry_cell_setting 'orthorhombic'
loop_
_space_group_symop_operation_xyz
x,y,z
-x,1/2-y,1/2+z
x,-y,-z
-x,1/2+y,1/2-z
-x,-y,-z
x,1/2+y,1/2-z
-x,y,z
x,1/2-y,1/2+z
1/2+x,1/2+y,z
1/2-x,-y,1/2+z
1/2+x,1/2-y,-z
1/2-x,y,1/2-z
1/2-x,1/2-y,-z
1/2+x,y,1/2-z
1/2-x,1/2+y,z
1/2+x,-y,1/2+z
loop_
_atom_site_type_symbol
_atom_site_label
_atom_site_fract_x
_atom_site_fract_y
_atom_site_fract_z
Si Si1 0.926354 0.846596 0.782403
Si Si2 0.725633 0.902740 0.841762
Si Si3 0.608791 0.356465 0.073959
Si Si4 0.000000 0.500000 0.000000
O O1 0.897762 0.079954 0.735542
O O2 0.923513 0.932043 0.871676
O O3 0.000000 0.819166 0.756817
O O4 0.750000 0.926851 0.750000
O O5 0.773109 0.684540 0.871843
O O6 0.661191 0.776986 0.872949
O O7 0.555623 0.166242 0.044869
O O8 0.637220 0.500000 0.000000
#
# Coordination Sequence:
#
# PCOD9481465 Si02
#       4
#    16  16  16   4
#     4  10  24  42  70 107 152 216 274 324 400 498
#     4  10  26  51  82 118 157 221 297 357 416 497
#     4  12  29  48  83 119 177 220 281 357 437 519
#     4  12  30  52  76 126 176 224 268 344 450 534
#
# _framework density 26.929069999999999
#
# number of rings (size 3 to 8) (size 9 to 14) (size 15 to 20)
#    0.000    1.231    1.538    0.462   17.231    1.231 
#    0.000    0.000    0.000    0.000    0.000    0.000 
#    0.000    0.000    0.000    0.000    0.000    0.000 
#
# Total GULP energy -144846.787036 kJ/mol
# GULP energy per Si atom -5571.030271 kJ/mol
# Density = 2.686778 g / cm^3
# Si number density = 26.929070 Si / 1000 Ang^3
#
#
#
# Elastic Constant Matrix: (Units=GPa)
#
#
# Indices 1 2 3 4 5 6 
#
# 1 114.9208 9.7109 50.7720 0.0000 0.0000 0.0000
# 2 9.7109 160.8290 73.8627 0.0000 0.0000 0.0000
# 3 50.7720 73.8627 127.8409 0.0000 0.0000 0.0000
# 4 0.0000 0.0000 0.0000 83.3556 0.0000 0.0000
# 5 0.0000 0.0000 0.0000 0.0000 25.3251 0.0000
# 6 0.0000 0.0000 0.0000 0.0000 0.0000 -7.8254
#
#
#
# Elastic Compliance Matrix: (Units=1/GPa)
#
#
# Indices 1 2 3 4 5 6 
#
# 1 0.010929 0.001815 -0.005389 0.000000 0.000000 0.000000
# 2 0.001815 0.008765 -0.005785 0.000000 0.000000 0.000000
# 3 -0.005389 -0.005785 0.013305 0.000000 0.000000 0.000000
# 4 0.000000 0.000000 0.000000 0.011997 0.000000 0.000000
# 5 0.000000 0.000000 0.000000 0.000000 0.039487 0.000000
# 6 0.000000 0.000000 0.000000 0.000000 0.000000 -0.127789
#
#
# Mechanical properties :
#
#
# Convention : Reuss Voigt Hill
#
# Bulk Modulus (GPa) = 70.02345 74.69799 72.36072
# Shear Modulus (GPa) = -252.17744 38.12071 -107.02837
#
# Velocity S-wave (km/s) = -9.68754 3.76652 -6.31117
# Velocity P-wave (km/s) = 9.95348 6.83481 5.11650
#
# Compressibility (1/GPa) = 0.01428093
#
# Stress axis : x y z
#
# Youngs Moduli (GPa) = 91.49741 114.08932 75.15940
#
# Poissons Ratio (x) = -0.20710 0.40506
# Poissons Ratio (y) = -0.16609 0.43480
# Poissons Ratio (z) = 0.49311 0.66002
#
# Static dielectric constant tensor:
#      x y z
#    x 2.083730 0.000000 0.000000 
#    y 0.000000 2.140420 0.000000 
#    z 0.000000 0.000000 2.125270 
# 
# From -- ./inp_files/35213.got.cif
#   From: 2010.05.17/outbox.cif.g08.bks.cpg/sg64_18_cif.got.tgz:35213.got - 2010.06.03 16:29:19.
