data_PCOD9481639
_publ_section_title
;
Structure prediction by ZEFSAII (Michael W. Deem and Ramdas Pophale) SiO2 
 PCOD9481639
Probable space group: C M C A
;
_chemical_formula_sum "Si O2"
_cell_formula_units_Z 96
_cell_length_a 15.780337
_cell_length_b 17.600165
_cell_length_c 19.728214
_cell_angle_alpha 90.000000
_cell_angle_beta 90.000000
_cell_angle_gamma 90.000000
_cell_volume 5479.245797
_symmetry_space_group_name_H-M "C M C A"
_symmetry_group_IT_number 64
_symmetry_cell_setting 'orthorhombic'
loop_
_space_group_symop_operation_xyz
x,y,z
-x,1/2-y,1/2+z
x,-y,-z
-x,1/2+y,1/2-z
-x,-y,-z
x,1/2+y,1/2-z
-x,y,z
x,1/2-y,1/2+z
1/2+x,1/2+y,z
1/2-x,-y,1/2+z
1/2+x,1/2-y,-z
1/2-x,y,1/2-z
1/2-x,1/2-y,-z
1/2+x,y,1/2-z
1/2-x,1/2+y,z
1/2+x,-y,1/2+z
loop_
_atom_site_type_symbol
_atom_site_label
_atom_site_fract_x
_atom_site_fract_y
_atom_site_fract_z
Si Si1 0.273949 0.030926 0.576636
Si Si2 0.160891 0.263126 0.590372
Si Si3 0.407600 0.344392 0.594609
Si Si4 0.262047 0.392100 0.829304
Si Si5 0.094330 0.607790 0.936431
Si Si6 0.344474 0.189289 0.557989
O O1 0.175236 0.057694 0.583938
O O2 0.334857 0.103925 0.583531
O O3 0.281916 0.000000 0.500000
O O4 0.293077 0.966513 0.631127
O O5 0.177529 0.321118 0.651032
O O6 0.101454 0.190244 0.599623
O O7 0.251101 0.224872 0.570929
O O8 0.136445 0.309004 0.522362
O O9 0.500000 0.369364 0.618343
O O10 0.329368 0.373220 0.637856
O O11 0.396055 0.373158 0.516867
O O12 0.403571 0.252528 0.591531
O O13 0.250000 0.402520 0.750000
O O14 0.000000 0.575040 0.926146
#
# Coordination Sequence:
#
# PCOD9481639 Si02
#       6
#    16  16  16  16  16  16
#     4  11  17  29  49  75 107 137 166 209 254 299
#     4   8  14  29  47  69  95 124 164 206 243 291
#     4   9  17  32  54  78  98 122 164 219 261 294
#     4  11  21  32  48  74 104 137 171 203 252 315
#     4   9  17  29  52  81 102 123 164 218 264 293
#     4   8  14  27  50  72  93 123 162 206 247 288
#
# _framework density 17.520658999999998
#
# number of rings (size 3 to 8) (size 9 to 14) (size 15 to 20)
#    0.000    2.667    3.333    2.000    0.000    1.000 
#    0.000    8.333    0.000    2.500    0.000    0.000 
#    0.000    0.000    0.000    0.000    0.000    0.000 
#
# Total GULP energy -267322.327527 kJ/mol
# GULP energy per Si atom -5569.215157 kJ/mol
# Density = 1.748078 g / cm^3
# Si number density = 17.520659 Si / 1000 Ang^3
#
#
#
# Elastic Constant Matrix: (Units=GPa)
#
#
# Indices 1 2 3 4 5 6 
#
# 1 24.9758 -15.4335 -19.4884 0.0000 0.0000 0.0000
# 2 -15.4335 75.2597 30.2142 0.0000 0.0000 0.0000
# 3 -19.4884 30.2142 66.6729 0.0000 0.0000 0.0000
# 4 0.0000 0.0000 0.0000 15.8856 0.0000 0.0000
# 5 0.0000 0.0000 0.0000 0.0000 6.6617 0.0000
# 6 0.0000 0.0000 0.0000 0.0000 0.0000 14.6506
#
#
#
# Elastic Compliance Matrix: (Units=1/GPa)
#
#
# Indices 1 2 3 4 5 6 
#
# 1 0.053846 0.005774 0.013123 0.000000 0.000000 0.000000
# 2 0.005774 0.016861 -0.005953 0.000000 0.000000 0.000000
# 3 0.013123 -0.005953 0.021532 0.000000 0.000000 0.000000
# 4 0.000000 0.000000 0.000000 0.062950 0.000000 0.000000
# 5 0.000000 0.000000 0.000000 0.000000 0.150112 0.000000
# 6 0.000000 0.000000 0.000000 0.000000 0.000000 0.068256
#
#
# Mechanical properties :
#
#
# Convention : Reuss Voigt Hill
#
# Bulk Modulus (GPa) = 8.46553 17.49921 12.98237
# Shear Modulus (GPa) = 12.91832 18.88067 15.89949
#
# Velocity S-wave (km/s) = 2.71831 3.28628 3.01569
# Velocity P-wave (km/s) = 3.83334 4.94054 4.42173
#
# Compressibility (1/GPa) = 0.11812615
#
# Stress axis : x y z
#
# Youngs Moduli (GPa) = 18.57144 59.30676 46.44204
#
# Poissons Ratio (x) = -0.34244 -0.60944
# Poissons Ratio (y) = -0.10723 0.27649
# Poissons Ratio (z) = -0.24371 0.35308
#
# Static dielectric constant tensor:
#      x y z
#    x 1.622080 0.000000 0.000000 
#    y 0.000000 1.648690 0.000000 
#    z 0.000000 0.000000 1.562300 
# 
# From -- ./inp_files/33309.got.cif
#   From: 2010.05.17/outbox.cif.g08.bks.cpg/sg64_17_cif.got.tgz:33309.got - 2010.06.03 16:29:19.
