data_PCOD9481457
_publ_section_title
;
Structure prediction by ZEFSAII (Michael W. Deem and Ramdas Pophale) SiO2 
 PCOD9481457
Probable space group: C M C A
;
_chemical_formula_sum "Si O2"
_cell_formula_units_Z 56
_cell_length_a 21.013972
_cell_length_b 13.379681
_cell_length_c 8.468316
_cell_angle_alpha 90.000000
_cell_angle_beta 90.000000
_cell_angle_gamma 90.000000
_cell_volume 2380.953775
_symmetry_space_group_name_H-M "C M C A"
_symmetry_group_IT_number 64
_symmetry_cell_setting 'orthorhombic'
loop_
_space_group_symop_operation_xyz
x,y,z
-x,1/2-y,1/2+z
x,-y,-z
-x,1/2+y,1/2-z
-x,-y,-z
x,1/2+y,1/2-z
-x,y,z
x,1/2-y,1/2+z
1/2+x,1/2+y,z
1/2-x,-y,1/2+z
1/2+x,1/2-y,-z
1/2-x,y,1/2-z
1/2-x,1/2-y,-z
1/2+x,y,1/2-z
1/2-x,1/2+y,z
1/2+x,-y,1/2+z
loop_
_atom_site_type_symbol
_atom_site_label
_atom_site_fract_x
_atom_site_fract_y
_atom_site_fract_z
Si Si1 0.638390 0.151656 0.285864
Si Si2 0.851354 0.444110 0.159298
Si Si3 0.750000 0.800432 0.250000
Si Si4 0.572767 0.197203 0.613803
O O1 0.693797 0.222637 0.216436
O O2 0.617494 0.176370 0.463636
O O3 0.580587 0.189245 0.175240
O O4 0.658527 0.037433 0.276034
O O5 0.787544 0.377556 0.135976
O O6 0.903206 0.372944 0.241869
O O7 0.869889 0.500000 0.000000
O O8 0.500000 0.175424 0.573433
#
# Coordination Sequence:
#
# PCOD9481457 Si02
#       4
#    16  16   8  16
#     4  11  23  42  68  97 134 178 224 281 347 409
#     4  11  25  42  66  99 134 177 226 282 348 413
#     4  10  24  42  66  96 132 170 220 278 340 404
#     4  11  25  44  68  99 135 179 230 283 341 409
#
# _framework density 23.519987
#
# number of rings (size 3 to 8) (size 9 to 14) (size 15 to 20)
#    0.000    1.143    0.000    6.000    0.000   18.857 
#    0.000    0.000    0.000    0.000    0.000    0.000 
#    0.000    0.000    0.000    0.000    0.000    0.000 
#
# Total GULP energy -156167.109074 kJ/mol
# GULP energy per Si atom -5577.396753 kJ/mol
# Density = 2.346645 g / cm^3
# Si number density = 23.519987 Si / 1000 Ang^3
#
#
#
# Elastic Constant Matrix: (Units=GPa)
#
#
# Indices 1 2 3 4 5 6 
#
# 1 115.0718 37.9171 31.7424 0.0000 0.0000 0.0000
# 2 37.9171 117.3214 3.6383 0.0000 0.0000 0.0000
# 3 31.7424 3.6383 100.0281 0.0000 0.0000 0.0000
# 4 0.0000 0.0000 0.0000 39.0698 0.0000 0.0000
# 5 0.0000 0.0000 0.0000 0.0000 5.8313 0.0000
# 6 0.0000 0.0000 0.0000 0.0000 0.0000 22.0883
#
#
#
# Elastic Compliance Matrix: (Units=1/GPa)
#
#
# Indices 1 2 3 4 5 6 
#
# 1 0.010699 -0.003356 -0.003273 0.000000 0.000000 0.000000
# 2 -0.003356 0.009586 0.000716 0.000000 0.000000 0.000000
# 3 -0.003273 0.000716 0.011010 0.000000 0.000000 0.000000
# 4 0.000000 0.000000 0.000000 0.025595 0.000000 0.000000
# 5 0.000000 0.000000 0.000000 0.000000 0.171490 0.000000
# 6 0.000000 0.000000 0.000000 0.000000 0.000000 0.045273
#
#
# Mechanical properties :
#
#
# Convention : Reuss Voigt Hill
#
# Bulk Modulus (GPa) = 51.36391 53.22408 52.29399
# Shear Modulus (GPa) = 17.12514 30.67277 23.89896
#
# Velocity S-wave (km/s) = 2.70128 3.61517 3.19111
# Velocity P-wave (km/s) = 5.62272 6.33280 5.98830
#
# Compressibility (1/GPa) = 0.01946892
#
# Stress axis : x y z
#
# Youngs Moduli (GPa) = 93.46630 104.31762 90.82815
#
# Poissons Ratio (x) = 0.35012 0.29729
# Poissons Ratio (y) = 0.31370 -0.06507
# Poissons Ratio (z) = 0.30592 -0.07473
#
# Static dielectric constant tensor:
#      x y z
#    x 1.949770 0.000000 0.000000 
#    y 0.000000 1.900280 0.000000 
#    z 0.000000 0.000000 1.981550 
# 
# From -- ./inp_files/7601.got.cif
#   From: 2010.05.17/outbox.cif.g08.bks.cpg/sg64_4_cif.got.tgz:7601.got - 2010.06.03 16:29:19.
