data_PCOD9481742
_publ_section_title
;
Structure prediction by ZEFSAII (Michael W. Deem and Ramdas Pophale) SiO2 
 PCOD9481742
Probable space group: C M C A
;
_chemical_formula_sum "Si O2"
_cell_formula_units_Z 80
_cell_length_a 8.966096
_cell_length_b 27.879654
_cell_length_c 18.491302
_cell_angle_alpha 90.000000
_cell_angle_beta 90.000000
_cell_angle_gamma 90.000000
_cell_volume 4622.301349
_symmetry_space_group_name_H-M "C M C A"
_symmetry_group_IT_number 64
_symmetry_cell_setting 'orthorhombic'
loop_
_space_group_symop_operation_xyz
x,y,z
-x,1/2-y,1/2+z
x,-y,-z
-x,1/2+y,1/2-z
-x,-y,-z
x,1/2+y,1/2-z
-x,y,z
x,1/2-y,1/2+z
1/2+x,1/2+y,z
1/2-x,-y,1/2+z
1/2+x,1/2-y,-z
1/2-x,y,1/2-z
1/2-x,1/2-y,-z
1/2+x,y,1/2-z
1/2-x,1/2+y,z
1/2+x,-y,1/2+z
loop_
_atom_site_type_symbol
_atom_site_label
_atom_site_fract_x
_atom_site_fract_y
_atom_site_fract_z
Si Si1 0.821699 0.551180 0.034699
Si Si2 0.677395 0.906795 0.674878
Si Si3 0.822489 0.150442 0.541653
Si Si4 0.678120 0.294775 0.172078
Si Si5 0.678913 0.311107 0.615078
O O1 0.734517 0.561036 0.108484
O O2 0.000000 0.553375 0.049407
O O3 0.787176 0.500000 0.000000
O O4 0.788437 0.595737 0.981337
O O5 0.500000 0.906799 0.679583
O O6 0.750000 0.922548 0.750000
O O7 0.736807 0.853248 0.657048
O O8 0.736281 0.168995 0.611128
O O9 0.786787 0.182000 0.470073
O O10 0.000000 0.154246 0.554425
O O11 0.500000 0.297281 0.177485
O O12 0.750000 0.303632 0.250000
O O13 0.718241 0.241039 0.144936
O O14 0.500000 0.318413 0.623100
#
# Coordination Sequence:
#
# PCOD9481742 Si02
#       5
#    16  16  16  16  16
#     4   9  19  38  61  81 104 135 171 215 268 319
#     4  11  21  33  53  81 111 139 172 216 263 311
#     4   9  18  34  55  78 104 133 168 211 260 314
#     4  11  22  34  50  74 106 143 180 215 253 302
#     4   9  19  35  54  77 105 138 175 214 259 309
#
# _framework density 17.307396000000001
#
# number of rings (size 3 to 8) (size 9 to 14) (size 15 to 20)
#    0.000    2.200    0.000    4.800    0.000    6.800 
#    0.000    1.000    0.000    0.000    0.000    0.000 
#    0.000    0.000    0.000    0.000    0.000    0.000 
#
# Total GULP energy -223351.729004 kJ/mol
# GULP energy per Si atom -5583.793225 kJ/mol
# Density = 1.726800 g / cm^3
# Si number density = 17.307396 Si / 1000 Ang^3
#
#
#
# Elastic Constant Matrix: (Units=GPa)
#
#
# Indices 1 2 3 4 5 6 
#
# 1 66.1918 50.7444 74.7638 0.0000 0.0000 0.0000
# 2 50.7444 82.1783 74.4617 0.0000 0.0000 0.0000
# 3 74.7638 74.4617 147.5989 0.0000 0.0000 0.0000
# 4 0.0000 0.0000 0.0000 13.2997 0.0000 0.0000
# 5 0.0000 0.0000 0.0000 0.0000 31.1891 0.0000
# 6 0.0000 0.0000 0.0000 0.0000 0.0000 22.5976
#
#
#
# Elastic Compliance Matrix: (Units=1/GPa)
#
#
# Indices 1 2 3 4 5 6 
#
# 1 0.040787 -0.011910 -0.014652 0.000000 0.000000 0.000000
# 2 -0.011910 0.025892 -0.007030 0.000000 0.000000 0.000000
# 3 -0.014652 -0.007030 0.017743 0.000000 0.000000 0.000000
# 4 0.000000 0.000000 0.000000 0.075189 0.000000 0.000000
# 5 0.000000 0.000000 0.000000 0.000000 0.032062 0.000000
# 6 0.000000 0.000000 0.000000 0.000000 0.000000 0.044253
#
#
# Mechanical properties :
#
#
# Convention : Reuss Voigt Hill
#
# Bulk Modulus (GPa) = 58.00374 77.32319 67.66347
# Shear Modulus (GPa) = 16.18877 19.81723 18.00300
#
# Velocity S-wave (km/s) = 3.06170 3.38748 3.22870
# Velocity P-wave (km/s) = 6.78861 7.75070 7.28556
#
# Compressibility (1/GPa) = 0.01724027
#
# Stress axis : x y z
#
# Youngs Moduli (GPa) = 24.51758 38.62132 56.36004
#
# Poissons Ratio (x) = 0.45997 0.82577
# Poissons Ratio (y) = 0.29200 0.39619
# Poissons Ratio (z) = 0.35922 0.27150
#
# Static dielectric constant tensor:
#      x y z
#    x 1.572460 0.000000 0.000000 
#    y 0.000000 1.571560 0.000000 
#    z 0.000000 0.000000 1.571820 
# 
# From -- ./inp_files/29756.got.cif
#   From: 2010.05.17/outbox.cif.g08.bks.cpg/sg64_15_cif.got.tgz:29756.got - 2010.06.03 16:29:19.
