data_PCOD9481503
_publ_section_title
;
Structure prediction by ZEFSAII (Michael W. Deem and Ramdas Pophale) SiO2 
 PCOD9481503
Probable space group: C M C A
;
_chemical_formula_sum "Si O2"
_cell_formula_units_Z 88
_cell_length_a 29.715343
_cell_length_b 10.382612
_cell_length_c 12.699568
_cell_angle_alpha 90.000000
_cell_angle_beta 90.000000
_cell_angle_gamma 90.000000
_cell_volume 3918.107254
_symmetry_space_group_name_H-M "C M C A"
_symmetry_group_IT_number 64
_symmetry_cell_setting 'orthorhombic'
loop_
_space_group_symop_operation_xyz
x,y,z
-x,1/2-y,1/2+z
x,-y,-z
-x,1/2+y,1/2-z
-x,-y,-z
x,1/2+y,1/2-z
-x,y,z
x,1/2-y,1/2+z
1/2+x,1/2+y,z
1/2-x,-y,1/2+z
1/2+x,1/2-y,-z
1/2-x,y,1/2-z
1/2-x,1/2-y,-z
1/2+x,y,1/2-z
1/2-x,1/2+y,z
1/2+x,-y,1/2+z
loop_
_atom_site_type_symbol
_atom_site_label
_atom_site_fract_x
_atom_site_fract_y
_atom_site_fract_z
Si Si1 0.448875 0.725756 0.876175
Si Si2 0.705121 0.198882 0.557508
Si Si3 0.382823 0.637643 0.046625
Si Si4 0.750000 0.950262 0.250000
Si Si5 0.917231 0.528421 0.244009
Si Si6 0.668242 0.549045 0.381704
O O1 0.500000 0.702807 0.912246
O O2 0.446667 0.866193 0.819576
O O3 0.436576 0.602308 0.798851
O O4 0.414902 0.728841 0.976527
O O5 0.750000 0.250000 0.500000
O O6 0.671161 0.144941 0.469197
O O7 0.724214 0.121870 0.655929
O O8 0.670028 0.298446 0.609379
O O9 0.395252 0.621812 0.167391
O O10 0.395822 0.500000 0.000000
O O11 0.711117 0.023403 0.189684
O O12 0.876241 0.489248 0.167278
O O13 0.675714 0.500000 0.500000
#
# Coordination Sequence:
#
# PCOD9481503 Si02
#       6
#    16  16  16   8  16  16
#     4  11  24  46  73 105 135 177 233 290 352 424
#     4  12  26  42  66  96 135 184 236 283 340 410
#     4  10  24  44  67  95 136 180 229 281 339 414
#     4  12  26  42  64  94 134 184 236 284 340 414
#     4  11  26  44  72 100 139 182 225 286 357 416
#     4  12  27  43  65  99 140 179 230 292 344 409
#
# _framework density 22.459824000000001
#
# number of rings (size 3 to 8) (size 9 to 14) (size 15 to 20)
#    0.000    0.727    3.636    3.273   10.182    4.000 
#    0.000    0.000    0.000    3.273    0.000    0.000 
#    0.000    0.000    0.000    0.000    0.000    0.000 
#
# Total GULP energy -245261.786520 kJ/mol
# GULP energy per Si atom -5574.131512 kJ/mol
# Density = 2.240870 g / cm^3
# Si number density = 22.459824 Si / 1000 Ang^3
#
#
#
# Elastic Constant Matrix: (Units=GPa)
#
#
# Indices 1 2 3 4 5 6 
#
# 1 133.9950 0.5606 38.5459 0.0000 0.0000 0.0000
# 2 0.5606 19.8171 -12.6313 0.0000 0.0000 0.0000
# 3 38.5459 -12.6313 94.8310 0.0000 0.0000 0.0000
# 4 0.0000 0.0000 0.0000 20.8595 0.0000 0.0000
# 5 0.0000 0.0000 0.0000 0.0000 44.6819 0.0000
# 6 0.0000 0.0000 0.0000 0.0000 0.0000 62.2646
#
#
#
# Elastic Compliance Matrix: (Units=1/GPa)
#
#
# Indices 1 2 3 4 5 6 
#
# 1 0.008581 -0.002695 -0.003847 0.000000 0.000000 0.000000
# 2 -0.002695 0.055989 0.008553 0.000000 0.000000 0.000000
# 3 -0.003847 0.008553 0.013248 0.000000 0.000000 0.000000
# 4 0.000000 0.000000 0.000000 0.047940 0.000000 0.000000
# 5 0.000000 0.000000 0.000000 0.000000 0.022380 0.000000
# 6 0.000000 0.000000 0.000000 0.000000 0.000000 0.016061
#
#
# Mechanical properties :
#
#
# Convention : Reuss Voigt Hill
#
# Bulk Modulus (GPa) = 12.21880 33.51038 22.86459
# Shear Modulus (GPa) = 26.67293 40.37240 33.52267
#
# Velocity S-wave (km/s) = 3.44987 4.24434 3.86756
# Velocity P-wave (km/s) = 4.61746 6.24274 5.49057
#
# Compressibility (1/GPa) = 0.08184107
#
# Stress axis : x y z
#
# Youngs Moduli (GPa) = 116.53900 17.86057 75.48370
#
# Poissons Ratio (x) = 0.04813 0.29037
# Poissons Ratio (y) = 0.31403 -0.64561
# Poissons Ratio (z) = 0.44830 -0.15276
#
# Static dielectric constant tensor:
#      x y z
#    x 1.853710 0.000000 0.000000 
#    y 0.000000 2.086690 0.000000 
#    z 0.000000 0.000000 0.013950 
# 
# From -- ./inp_files/19662.got.cif
#   From: 2010.05.17/outbox.cif.g08.bks.cpg/sg64_10_cif.got.tgz:19662.got - 2010.06.03 16:29:19.
