data_PCOD9481091
_publ_section_title
;
Structure prediction by ZEFSAII (Michael W. Deem and Ramdas Pophale) SiO2 
 PCOD9481091
Probable space group: C M C A
;
_chemical_formula_sum "Si O2"
_cell_formula_units_Z 60
_cell_length_a 10.397475
_cell_length_b 20.127134
_cell_length_c 11.183378
_cell_angle_alpha 90.000000
_cell_angle_beta 90.000000
_cell_angle_gamma 90.000000
_cell_volume 2340.360864
_symmetry_space_group_name_H-M "C M C A"
_symmetry_group_IT_number 64
_symmetry_cell_setting 'orthorhombic'
loop_
_space_group_symop_operation_xyz
x,y,z
-x,1/2-y,1/2+z
x,-y,-z
-x,1/2+y,1/2-z
-x,-y,-z
x,1/2+y,1/2-z
-x,y,z
x,1/2-y,1/2+z
1/2+x,1/2+y,z
1/2-x,-y,1/2+z
1/2+x,1/2-y,-z
1/2-x,y,1/2-z
1/2-x,1/2-y,-z
1/2+x,y,1/2-z
1/2-x,1/2+y,z
1/2+x,-y,1/2+z
loop_
_atom_site_type_symbol
_atom_site_label
_atom_site_fract_x
_atom_site_fract_y
_atom_site_fract_z
Si Si1 0.000000 0.981318 0.719817
Si Si2 0.315198 0.000000 0.000000
Si Si3 0.000000 0.690255 0.812269
Si Si4 0.500000 0.500000 0.000000
Si Si5 0.719667 0.345949 0.497887
Si Si6 0.000000 0.172584 0.311340
Si Si7 0.000000 0.653578 0.539886
O O1 0.885723 0.000622 0.628503
O O2 0.000000 0.902210 0.733345
O O3 0.000000 0.009200 0.851437
O O4 0.256622 0.926325 0.997781
O O5 0.872912 0.668883 0.885332
O O6 0.000000 0.768320 0.781924
O O7 0.000000 0.655970 0.683537
O O8 0.500000 0.419598 0.987205
O O9 0.629536 0.325033 0.608441
O O10 0.861439 0.314938 0.494580
#
# Coordination Sequence:
#
# PCOD9481091 Si02
#       7
#     8   8   8   4  16   8   8
#     4   9  19  38  68 102 141 188 242 300 362 433
#     4   9  17  41  73 100 139 194 243 286 361 448
#     4  11  23  42  70  98 135 190 247 299 357 431
#     4  12  24  38  64 114 156 176 228 314 380 428
#     4  10  22  43  71  99 136 187 238 294 362 438
#     4   9  22  45  69  96 131 188 250 297 351 427
#     4  12  25  41  64 104 144 179 230 300 371 432
#
# _framework density 25.637073000000001
#
# number of rings (size 3 to 8) (size 9 to 14) (size 15 to 20)
#    0.000    1.867    0.000    5.600    0.000    3.200 
#    0.000   14.667    0.000    0.000    0.000    0.000 
#    0.000    0.000    0.000    0.000    0.000    0.000 
#
# Total GULP energy -167165.221300 kJ/mol
# GULP energy per Si atom -5572.174043 kJ/mol
# Density = 2.557872 g / cm^3
# Si number density = 25.637073 Si / 1000 Ang^3
#
#
#
# Elastic Constant Matrix: (Units=GPa)
#
#
# Indices 1 2 3 4 5 6 
#
# 1 241.6461 39.3758 91.2151 0.0000 0.0000 0.0000
# 2 39.3758 148.1950 25.0668 0.0000 0.0000 0.0000
# 3 91.2151 25.0668 215.2595 0.0000 0.0000 0.0000
# 4 0.0000 0.0000 0.0000 22.5765 0.0000 0.0000
# 5 0.0000 0.0000 0.0000 0.0000 -12.9299 0.0000
# 6 0.0000 0.0000 0.0000 0.0000 0.0000 -3.9089
#
#
#
# Elastic Compliance Matrix: (Units=1/GPa)
#
#
# Indices 1 2 3 4 5 6 
#
# 1 0.005068 -0.001003 -0.002031 0.000000 0.000000 0.000000
# 2 -0.001003 0.007082 -0.000400 0.000000 0.000000 0.000000
# 3 -0.002031 -0.000400 0.005553 0.000000 0.000000 0.000000
# 4 0.000000 0.000000 0.000000 0.044294 0.000000 0.000000
# 5 0.000000 0.000000 0.000000 0.000000 -0.077340 0.000000
# 6 0.000000 0.000000 0.000000 0.000000 0.000000 -0.255824
#
#
# Mechanical properties :
#
#
# Convention : Reuss Voigt Hill
#
# Bulk Modulus (GPa) = 92.28724 101.82401 97.05562
# Shear Modulus (GPa) = -19.18001 31.11039 5.96519
#
# Velocity S-wave (km/s) = -2.73817 3.48730 1.52703
# Velocity P-wave (km/s) = 5.10675 7.48457 6.40694
#
# Compressibility (1/GPa) = 0.01083573
#
# Stress axis : x y z
#
# Youngs Moduli (GPa) = 197.30302 141.20300 180.09384
#
# Poissons Ratio (x) = 0.14165 0.36575
# Poissons Ratio (y) = 0.19793 0.07197
# Poissons Ratio (z) = 0.40070 0.05643
#
# Static dielectric constant tensor:
#      x y z
#    x 2.159030 0.000000 0.000000 
#    y 0.000000 1.993220 0.000000 
#    z 0.000000 0.000000 1.930940 
# 
# From -- ./inp_files/12875.got.cif
#   From: 2010.05.17/outbox.cif.g08.bks.cpg/sg64_7_cif.got.tgz:12875.got - 2010.06.03 16:29:19.
