data_PCOD9481353
_publ_section_title
;
Structure prediction by ZEFSAII (Michael W. Deem and Ramdas Pophale) SiO2 
 PCOD9481353
Probable space group: C M C A
;
_chemical_formula_sum "Si O2"
_cell_formula_units_Z 64
_cell_length_a 14.793761
_cell_length_b 21.158606
_cell_length_c 8.741935
_cell_angle_alpha 90.000000
_cell_angle_beta 90.000000
_cell_angle_gamma 90.000000
_cell_volume 2736.359933
_symmetry_space_group_name_H-M "C M C A"
_symmetry_group_IT_number 64
_symmetry_cell_setting 'orthorhombic'
loop_
_space_group_symop_operation_xyz
x,y,z
-x,1/2-y,1/2+z
x,-y,-z
-x,1/2+y,1/2-z
-x,-y,-z
x,1/2+y,1/2-z
-x,y,z
x,1/2-y,1/2+z
1/2+x,1/2+y,z
1/2-x,-y,1/2+z
1/2+x,1/2-y,-z
1/2-x,y,1/2-z
1/2-x,1/2-y,-z
1/2+x,y,1/2-z
1/2-x,1/2+y,z
1/2+x,-y,1/2+z
loop_
_atom_site_type_symbol
_atom_site_label
_atom_site_fract_x
_atom_site_fract_y
_atom_site_fract_z
Si Si1 0.348229 0.432655 0.069904
Si Si2 0.688828 0.301385 0.898464
Si Si3 0.132522 0.562614 0.917466
Si Si4 0.000000 0.747639 0.260080
Si Si5 0.000000 0.338330 0.019156
O O1 0.239805 0.438947 0.078704
O O2 0.388978 0.431973 0.239124
O O3 0.380644 0.500000 0.000000
O O4 0.349180 0.364334 0.985306
O O5 0.750000 0.318125 0.750000
O O6 0.596117 0.272160 0.833042
O O7 0.750000 0.250000 0.000000
O O8 0.088801 0.620575 0.007635
O O9 0.099326 0.500000 0.000000
O O10 0.000000 0.820409 0.302885
O O11 0.000000 0.721349 0.090608
#
# Coordination Sequence:
#
# PCOD9481353 Si02
#       5
#    16  16  16   8   8
#     4  10  24  43  73 103 140 189 248 304 371 447
#     4  12  28  48  76 109 154 200 251 314 382 447
#     4  10  23  44  71 100 138 188 244 304 372 447
#     4  12  28  46  72 106 147 197 250 305 375 462
#     4  12  27  46  68 101 149 186 250 306 383 436
#
# _framework density 23.388736000000002
#
# number of rings (size 3 to 8) (size 9 to 14) (size 15 to 20)
#    0.000    1.000    0.000    4.875   21.000    0.000 
#    0.000    1.250    0.000    0.000    0.000    0.000 
#    0.000    0.000    0.000    0.000    0.000    0.000 
#
# Total GULP energy -178351.379956 kJ/mol
# GULP energy per Si atom -5573.480624 kJ/mol
# Density = 2.333550 g / cm^3
# Si number density = 23.388736 Si / 1000 Ang^3
#
#
#
# Elastic Constant Matrix: (Units=GPa)
#
#
# Indices 1 2 3 4 5 6 
#
# 1 112.2246 10.6919 27.8093 0.0000 0.0000 0.0000
# 2 10.6919 121.7261 47.4050 0.0000 0.0000 0.0000
# 3 27.8093 47.4050 98.9439 0.0000 0.0000 0.0000
# 4 0.0000 0.0000 0.0000 43.3158 0.0000 0.0000
# 5 0.0000 0.0000 0.0000 0.0000 -55.8168 0.0000
# 6 0.0000 0.0000 0.0000 0.0000 0.0000 21.6137
#
#
#
# Elastic Compliance Matrix: (Units=1/GPa)
#
#
# Indices 1 2 3 4 5 6 
#
# 1 0.009584 0.000255 -0.002816 0.000000 0.000000 0.000000
# 2 0.000255 0.010106 -0.004914 0.000000 0.000000 0.000000
# 3 -0.002816 -0.004914 0.013252 0.000000 0.000000 0.000000
# 4 0.000000 0.000000 0.000000 0.023086 0.000000 0.000000
# 5 0.000000 0.000000 0.000000 0.000000 -0.017916 0.000000
# 6 0.000000 0.000000 0.000000 0.000000 0.000000 0.046267
#
#
# Mechanical properties :
#
#
# Convention : Reuss Voigt Hill
#
# Bulk Modulus (GPa) = 55.57572 56.07855 55.82713
# Shear Modulus (GPa) = 47.47093 18.28843 32.87968
#
# Velocity S-wave (km/s) = 4.51005 2.79934 3.75346
# Velocity P-wave (km/s) = 7.13681 5.87173 6.53495
#
# Compressibility (1/GPa) = 0.01799347
#
# Stress axis : x y z
#
# Youngs Moduli (GPa) = 104.33851 98.94759 75.45840
#
# Poissons Ratio (x) = -0.02521 0.21248
# Poissons Ratio (y) = -0.02658 0.37078
# Poissons Ratio (z) = 0.29380 0.48619
#
# Static dielectric constant tensor:
#      x y z
#    x 1.868310 0.000000 0.000000 
#    y 0.000000 1.946670 0.000000 
#    z 0.000000 0.000000 1.904330 
# 
# From -- ./inp_files/6639.got.cif
#   From: 2010.05.17/outbox.cif.g08.bks.cpg/sg64_4_cif.got.tgz:6639.got - 2010.06.03 16:29:19.
