data_PCOD9481514
_publ_section_title
;
Structure prediction by ZEFSAII (Michael W. Deem and Ramdas Pophale) SiO2 
 PCOD9481514
Probable space group: C M C A
;
_chemical_formula_sum "Si O2"
_cell_formula_units_Z 60
_cell_length_a 25.191887
_cell_length_b 18.260039
_cell_length_c 5.092544
_cell_angle_alpha 90.000000
_cell_angle_beta 90.000000
_cell_angle_gamma 90.000000
_cell_volume 2342.594883
_symmetry_space_group_name_H-M "C M C A"
_symmetry_group_IT_number 64
_symmetry_cell_setting 'orthorhombic'
loop_
_space_group_symop_operation_xyz
x,y,z
-x,1/2-y,1/2+z
x,-y,-z
-x,1/2+y,1/2-z
-x,-y,-z
x,1/2+y,1/2-z
-x,y,z
x,1/2-y,1/2+z
1/2+x,1/2+y,z
1/2-x,-y,1/2+z
1/2+x,1/2-y,-z
1/2-x,y,1/2-z
1/2-x,1/2-y,-z
1/2+x,y,1/2-z
1/2-x,1/2+y,z
1/2+x,-y,1/2+z
loop_
_atom_site_type_symbol
_atom_site_label
_atom_site_fract_x
_atom_site_fract_y
_atom_site_fract_z
Si Si1 0.800964 0.913797 0.563416
Si Si2 0.750000 0.697291 0.750000
Si Si3 0.906614 0.426741 0.647079
Si Si4 0.936271 0.791051 0.197679
Si Si5 0.000000 0.000000 0.500000
O O1 0.750000 0.899627 0.750000
O O2 0.796688 0.861022 0.310666
O O3 0.855587 0.897353 0.705355
O O4 0.799803 0.000000 0.500000
O O5 0.750000 0.750000 0.500000
O O6 0.889047 0.500000 0.500000
O O7 0.925785 0.369721 0.427539
O O8 0.953629 0.452003 0.841952
O O9 0.916562 0.732074 0.983140
O O10 0.000000 0.785520 0.218372
#
# Coordination Sequence:
#
# PCOD9481514 Si02
#       5
#    16   8  16  16   4
#     4  12  26  49  82 115 159 217 276 335 419 507
#     4  12  28  52  82 122 166 210 272 348 418 504
#     4  12  28  45  80 116 160 213 281 350 417 498
#     4  10  24  44  70 102 150 206 259 320 400 485
#     4  12  26  48  72 118 164 212 284 352 422 482
#
# _framework density 25.612624
#
# number of rings (size 3 to 8) (size 9 to 14) (size 15 to 20)
#    0.000    0.533    5.333    1.200    3.733    2.133 
#    0.000    0.000    0.000    0.000    0.000    0.000 
#    0.000    0.000    0.000    0.000    0.000    0.000 
#
# Total GULP energy -167686.952228 kJ/mol
# GULP energy per Si atom -5589.565074 kJ/mol
# Density = 2.555433 g / cm^3
# Si number density = 25.612624 Si / 1000 Ang^3
#
#
#
# Elastic Constant Matrix: (Units=GPa)
#
#
# Indices 1 2 3 4 5 6 
#
# 1 117.9512 5.3118 61.3775 0.0000 0.0000 0.0000
# 2 5.3118 153.5633 47.4158 0.0000 0.0000 0.0000
# 3 61.3775 47.4158 116.2928 0.0000 0.0000 0.0000
# 4 0.0000 0.0000 0.0000 67.6229 0.0000 0.0000
# 5 0.0000 0.0000 0.0000 0.0000 8.4279 0.0000
# 6 0.0000 0.0000 0.0000 0.0000 0.0000 10.5540
#
#
#
# Elastic Compliance Matrix: (Units=1/GPa)
#
#
# Indices 1 2 3 4 5 6 
#
# 1 0.012097 0.001777 -0.007109 0.000000 0.000000 0.000000
# 2 0.001777 0.007711 -0.004082 0.000000 0.000000 0.000000
# 3 -0.007109 -0.004082 0.014015 0.000000 0.000000 0.000000
# 4 0.000000 0.000000 0.000000 0.014788 0.000000 0.000000
# 5 0.000000 0.000000 0.000000 0.000000 0.118654 0.000000
# 6 0.000000 0.000000 0.000000 0.000000 0.000000 0.094751
#
#
# Mechanical properties :
#
#
# Convention : Reuss Voigt Hill
#
# Bulk Modulus (GPa) = 66.68795 68.44639 67.56717
# Shear Modulus (GPa) = 17.49214 35.56777 26.52996
#
# Velocity S-wave (km/s) = 2.61617 3.73054 3.22190
# Velocity P-wave (km/s) = 5.93460 6.73332 6.34654
#
# Compressibility (1/GPa) = 0.01499521
#
# Stress axis : x y z
#
# Youngs Moduli (GPa) = 82.66187 129.68831 71.35048
#
# Poissons Ratio (x) = -0.23041 0.50725
# Poissons Ratio (y) = -0.14686 0.29122
# Poissons Ratio (z) = 0.58766 0.52934
#
# Static dielectric constant tensor:
#      x y z
#    x 2.007280 0.000000 0.000000 
#    y 0.000000 2.036640 0.000000 
#    z 0.000000 0.000000 2.128140 
# 
# From -- ./inp_files/2654.got.cif
#   From: 2010.05.17/outbox.cif.g08.bks.cpg/sg64_2_cif.got.tgz:2654.got - 2010.06.03 16:29:19.
