data_PCOD9481508
_publ_section_title
;
Structure prediction by ZEFSAII (Michael W. Deem and Ramdas Pophale) SiO2 
 PCOD9481508
Probable space group: C M C A
;
_chemical_formula_sum "Si O2"
_cell_formula_units_Z 88
_cell_length_a 9.309527
_cell_length_b 18.905872
_cell_length_c 22.825055
_cell_angle_alpha 90.000000
_cell_angle_beta 90.000000
_cell_angle_gamma 90.000000
_cell_volume 4017.317548
_symmetry_space_group_name_H-M "C M C A"
_symmetry_group_IT_number 64
_symmetry_cell_setting 'orthorhombic'
loop_
_space_group_symop_operation_xyz
x,y,z
-x,1/2-y,1/2+z
x,-y,-z
-x,1/2+y,1/2-z
-x,-y,-z
x,1/2+y,1/2-z
-x,y,z
x,1/2-y,1/2+z
1/2+x,1/2+y,z
1/2-x,-y,1/2+z
1/2+x,1/2-y,-z
1/2-x,y,1/2-z
1/2-x,1/2-y,-z
1/2+x,y,1/2-z
1/2-x,1/2+y,z
1/2+x,-y,1/2+z
loop_
_atom_site_type_symbol
_atom_site_label
_atom_site_fract_x
_atom_site_fract_y
_atom_site_fract_z
Si Si1 0.000000 0.978246 0.231138
Si Si2 0.213660 0.990767 0.667718
Si Si3 0.329038 0.697458 0.692041
Si Si4 0.672785 0.822829 0.519787
Si Si5 0.663803 0.400570 0.422792
Si Si6 0.831274 0.667784 0.142407
O O1 0.119323 0.971128 0.283591
O O2 0.124276 0.993396 0.182675
O O3 0.175968 0.021265 0.603938
O O4 0.177337 0.908072 0.673408
O O5 0.500000 0.705401 0.702706
O O6 0.250000 0.669411 0.750000
O O7 0.310632 0.650330 0.633689
O O8 0.250072 0.771458 0.678272
O O9 0.500000 0.815532 0.522876
O O10 0.750000 0.750000 0.500000
O O11 0.723195 0.880434 0.472291
O O12 0.743079 0.839654 0.582263
O O13 0.500000 0.387952 0.443518
O O14 0.000000 0.685956 0.133271
#
# Coordination Sequence:
#
# PCOD9481508 Si02
#       6
#     8  16  16  16  16  16
#     4  10  24  44  68  98 144 186 222 274 344 414
#     4  11  25  43  71 102 136 184 230 278 343 399
#     4  11  26  40  65  98 138 175 224 281 337 405
#     4  12  26  46  72  99 136 182 228 281 345 406
#     4  11  24  46  69 100 136 178 229 280 339 404
#     4  12  25  45  70 100 135 179 229 283 342 406
#
# _framework density 21.905165
#
# number of rings (size 3 to 8) (size 9 to 14) (size 15 to 20)
#    0.000    0.727    3.636    2.727    8.909    1.455 
#    0.000    2.727    0.000    0.000    0.000    0.000 
#    0.000    0.000    0.000    0.000    0.000    0.000 
#
# Total GULP energy -245132.278452 kJ/mol
# GULP energy per Si atom -5571.188147 kJ/mol
# Density = 2.185531 g / cm^3
# Si number density = 21.905165 Si / 1000 Ang^3
#
#
#
# Elastic Constant Matrix: (Units=GPa)
#
#
# Indices 1 2 3 4 5 6 
#
# 1 243.3342 16.5751 52.1174 0.0000 0.0000 0.0000
# 2 16.5751 75.1221 -1.1523 0.0000 0.0000 0.0000
# 3 52.1174 -1.1523 78.9718 0.0000 0.0000 0.0000
# 4 0.0000 0.0000 0.0000 16.0336 0.0000 0.0000
# 5 0.0000 0.0000 0.0000 0.0000 49.0196 0.0000
# 6 0.0000 0.0000 0.0000 0.0000 0.0000 0.9277
#
#
#
# Elastic Compliance Matrix: (Units=1/GPa)
#
#
# Indices 1 2 3 4 5 6 
#
# 1 0.004880 -0.001126 -0.003237 0.000000 0.000000 0.000000
# 2 -0.001126 0.013575 0.000941 0.000000 0.000000 0.000000
# 3 -0.003237 0.000941 0.014813 0.000000 0.000000 0.000000
# 4 0.000000 0.000000 0.000000 0.062369 0.000000 0.000000
# 5 0.000000 0.000000 0.000000 0.000000 0.020400 0.000000
# 6 0.000000 0.000000 0.000000 0.000000 0.000000 1.077937
#
#
# Mechanical properties :
#
#
# Convention : Reuss Voigt Hill
#
# Bulk Modulus (GPa) = 37.84513 59.16762 48.50638
# Shear Modulus (GPa) = 4.13352 35.18871 19.66111
#
# Velocity S-wave (km/s) = 1.37517 4.01235 2.99917
# Velocity P-wave (km/s) = 4.45374 6.96669 5.84682
#
# Compressibility (1/GPa) = 0.02642348
#
# Stress axis : x y z
#
# Youngs Moduli (GPa) = 204.93803 73.66693 67.51045
#
# Poissons Ratio (x) = 0.08297 0.21851
# Poissons Ratio (y) = 0.23082 -0.06355
# Poissons Ratio (z) = 0.66332 -0.06935
#
# Static dielectric constant tensor:
#      x y z
#    x 5.398370 0.000000 0.000000 
#    y 0.000000 1.907520 0.000000 
#    z 0.000000 0.000000 1.834260 
# 
# From -- ./inp_files/42863.got.cif
#   From: 2010.05.17/outbox.cif.g08.bks.cpg/sg64_22_cif.got.tgz:42863.got - 2010.06.03 16:29:19.
