data_PCOD9481964
_publ_section_title
;
Structure prediction by ZEFSAII (Michael W. Deem and Ramdas Pophale) SiO2 
 PCOD9481964
Probable space group: C M C A
;
_chemical_formula_sum "Si O2"
_cell_formula_units_Z 80
_cell_length_a 8.137774
_cell_length_b 15.334035
_cell_length_c 31.348384
_cell_angle_alpha 90.000000
_cell_angle_beta 90.000000
_cell_angle_gamma 90.000000
_cell_volume 3911.805318
_symmetry_space_group_name_H-M "C M C A"
_symmetry_group_IT_number 64
_symmetry_cell_setting 'orthorhombic'
loop_
_space_group_symop_operation_xyz
x,y,z
-x,1/2-y,1/2+z
x,-y,-z
-x,1/2+y,1/2-z
-x,-y,-z
x,1/2+y,1/2-z
-x,y,z
x,1/2-y,1/2+z
1/2+x,1/2+y,z
1/2-x,-y,1/2+z
1/2+x,1/2-y,-z
1/2-x,y,1/2-z
1/2-x,1/2-y,-z
1/2+x,y,1/2-z
1/2-x,1/2+y,z
1/2+x,-y,1/2+z
loop_
_atom_site_type_symbol
_atom_site_label
_atom_site_fract_x
_atom_site_fract_y
_atom_site_fract_z
Si Si1 0.297843 0.275965 0.361803
Si Si2 0.312182 0.481224 0.454187
Si Si3 0.804004 0.125831 0.201198
Si Si4 0.198485 0.476651 0.137894
Si Si5 0.183322 0.771738 0.453711
O O1 0.500000 0.275740 0.363394
O O2 0.243461 0.210446 0.325057
O O3 0.248060 0.376512 0.354709
O O4 0.236457 0.245252 0.408709
O O5 0.231800 0.500000 0.500000
O O6 0.500000 0.517475 0.456550
O O7 0.238277 0.508869 0.408739
O O8 0.322829 0.376696 0.450792
O O9 0.750000 0.125614 0.250000
O O10 0.000000 0.127975 0.200183
O O11 0.747384 0.040786 0.175406
O O12 0.000000 0.475156 0.134485
O O13 0.250000 0.750000 0.500000
O O14 0.000000 0.735081 0.453145
#
# Coordination Sequence:
#
# PCOD9481964 Si02
#       5
#    16  16  16  16  16
#     4   8  18  37  56  76 111 150 179 218 274 328
#     4   8  15  28  48  75 106 141 178 212 254 313
#     4  11  23  39  58  81 108 140 182 229 282 332
#     4   9  18  36  59  81 109 145 185 225 269 322
#     4   9  17  30  49  75 106 141 177 215 261 312
#
# _framework density 20.450914999999998
#
# number of rings (size 3 to 8) (size 9 to 14) (size 15 to 20)
#    0.000    3.000    0.000    3.000    2.800    0.800 
#    0.000    9.000    0.000    1.200    0.000    0.000 
#    0.000    0.000    0.000    0.000    0.000    0.000 
#
# Total GULP energy -222862.503925 kJ/mol
# GULP energy per Si atom -5571.562598 kJ/mol
# Density = 2.040437 g / cm^3
# Si number density = 20.450915 Si / 1000 Ang^3
#
#
#
# Elastic Constant Matrix: (Units=GPa)
#
#
# Indices 1 2 3 4 5 6 
#
# 1 12.9564 9.2111 21.3392 0.0000 0.0000 0.0000
# 2 9.2111 88.4294 93.4550 0.0000 0.0000 0.0000
# 3 21.3392 93.4550 250.4540 0.0000 0.0000 0.0000
# 4 0.0000 0.0000 0.0000 38.8965 0.0000 0.0000
# 5 0.0000 0.0000 0.0000 0.0000 11.0618 0.0000
# 6 0.0000 0.0000 0.0000 0.0000 0.0000 10.8607
#
#
#
# Elastic Compliance Matrix: (Units=1/GPa)
#
#
# Indices 1 2 3 4 5 6 
#
# 1 0.090016 -0.002099 -0.006886 0.000000 0.000000 0.000000
# 2 -0.002099 0.018720 -0.006807 0.000000 0.000000 0.000000
# 3 -0.006886 -0.006807 0.007119 0.000000 0.000000 0.000000
# 4 0.000000 0.000000 0.000000 0.025709 0.000000 0.000000
# 5 0.000000 0.000000 0.000000 0.000000 0.090401 0.000000
# 6 0.000000 0.000000 0.000000 0.000000 0.000000 0.092075
#
#
# Mechanical properties :
#
#
# Convention : Reuss Voigt Hill
#
# Bulk Modulus (GPa) = 11.86625 66.65003 39.25814
# Shear Modulus (GPa) = 13.03049 27.35278 20.19164
#
# Velocity S-wave (km/s) = 2.52694 3.66113 3.14558
# Velocity P-wave (km/s) = 3.78534 7.10865 5.69481
#
# Compressibility (1/GPa) = 0.08427260
#
# Stress axis : x y z
#
# Youngs Moduli (GPa) = 11.10913 53.41748 140.46286
#
# Poissons Ratio (x) = 0.11210 0.96730
# Poissons Ratio (y) = 0.02331 0.95607
# Poissons Ratio (z) = 0.07650 0.36359
#
# Static dielectric constant tensor:
#      x y z
#    x 1.754920 0.000000 0.000000 
#    y 0.000000 1.720810 0.000000 
#    z 0.000000 0.000000 1.790510 
# 
# From -- ./inp_files/47810.got.cif
#   From: 2010.05.17/outbox.cif.g08.bks.cpg/sg64_24_cif.got.tgz:47810.got - 2010.06.03 16:29:19.
