data_PCOD9481010
_publ_section_title
;
Structure prediction by ZEFSAII (Michael W. Deem and Ramdas Pophale) SiO2 
 PCOD9481010
Probable space group: C M C A
;
_chemical_formula_sum "Si O2"
_cell_formula_units_Z 64
_cell_length_a 20.069601
_cell_length_b 11.599764
_cell_length_c 11.414671
_cell_angle_alpha 90.000000
_cell_angle_beta 90.000000
_cell_angle_gamma 90.000000
_cell_volume 2657.365488
_symmetry_space_group_name_H-M "C M C A"
_symmetry_group_IT_number 64
_symmetry_cell_setting 'orthorhombic'
loop_
_space_group_symop_operation_xyz
x,y,z
-x,1/2-y,1/2+z
x,-y,-z
-x,1/2+y,1/2-z
-x,-y,-z
x,1/2+y,1/2-z
-x,y,z
x,1/2-y,1/2+z
1/2+x,1/2+y,z
1/2-x,-y,1/2+z
1/2+x,1/2-y,-z
1/2-x,y,1/2-z
1/2-x,1/2-y,-z
1/2+x,y,1/2-z
1/2-x,1/2+y,z
1/2+x,-y,1/2+z
loop_
_atom_site_type_symbol
_atom_site_label
_atom_site_fract_x
_atom_site_fract_y
_atom_site_fract_z
Si Si1 0.927020 0.237965 0.089227
Si Si2 0.924521 0.513236 0.662529
Si Si3 0.822049 0.698216 0.713396
Si Si4 0.125568 0.095546 0.405156
O O1 0.867495 0.275735 0.173623
O O2 0.921553 0.314414 0.973452
O O3 0.000000 0.260128 0.142684
O O4 0.922208 0.100196 0.081686
O O5 0.864801 0.602765 0.645968
O O6 0.910964 0.463283 0.795047
O O7 0.000000 0.559969 0.656268
O O8 0.750000 0.655455 0.750000
O O9 0.817356 0.819265 0.643845
O O10 0.146358 0.000000 0.500000
#
# Coordination Sequence:
#
# PCOD9481010 Si02
#       4
#    16  16  16  16
#     4  10  22  42  68 100 132 174 231 285 338 397
#     4  10  22  42  68  98 136 177 225 290 344 399
#     4  11  25  43  67  97 141 179 221 282 344 410
#     4  11  23  43  69 100 127 180 232 280 338 404
#
# _framework density 24.084005999999999
#
# number of rings (size 3 to 8) (size 9 to 14) (size 15 to 20)
#    0.000    1.500    2.500    1.500    0.000   10.000 
#    0.000    2.500    0.000    0.000    0.000    0.000 
#    0.000    0.000    0.000    0.000    0.000    0.000 
#
# Total GULP energy -178983.801069 kJ/mol
# GULP energy per Si atom -5593.243783 kJ/mol
# Density = 2.402919 g / cm^3
# Si number density = 24.084006 Si / 1000 Ang^3
#
#
#
# Elastic Constant Matrix: (Units=GPa)
#
#
# Indices 1 2 3 4 5 6 
#
# 1 151.8371 49.5370 34.4726 0.0000 0.0000 0.0000
# 2 49.5370 142.8745 37.2721 0.0000 0.0000 0.0000
# 3 34.4726 37.2721 97.8159 0.0000 0.0000 0.0000
# 4 0.0000 0.0000 0.0000 60.5597 0.0000 0.0000
# 5 0.0000 0.0000 0.0000 0.0000 16.2447 0.0000
# 6 0.0000 0.0000 0.0000 0.0000 0.0000 22.6506
#
#
#
# Elastic Compliance Matrix: (Units=1/GPa)
#
#
# Indices 1 2 3 4 5 6 
#
# 1 0.007729 -0.002186 -0.001891 0.000000 0.000000 0.000000
# 2 -0.002186 0.008390 -0.002426 0.000000 0.000000 0.000000
# 3 -0.001891 -0.002426 0.011814 0.000000 0.000000 0.000000
# 4 0.000000 0.000000 0.000000 0.016513 0.000000 0.000000
# 5 0.000000 0.000000 0.000000 0.000000 0.061559 0.000000
# 6 0.000000 0.000000 0.000000 0.000000 0.000000 0.044149
#
#
# Mechanical properties :
#
#
# Convention : Reuss Voigt Hill
#
# Bulk Modulus (GPa) = 66.99748 70.56565 68.78157
# Shear Modulus (GPa) = 29.73789 37.97402 33.85596
#
# Velocity S-wave (km/s) = 3.51772 3.97512 3.75339
# Velocity P-wave (km/s) = 6.66167 7.10156 6.88513
#
# Compressibility (1/GPa) = 0.01492593
#
# Stress axis : x y z
#
# Youngs Moduli (GPa) = 129.39007 119.18630 84.64407
#
# Poissons Ratio (x) = 0.26059 0.16003
# Poissons Ratio (y) = 0.28290 0.20539
# Poissons Ratio (z) = 0.24463 0.28920
#
# Static dielectric constant tensor:
#      x y z
#    x 1.813340 0.000000 0.000000 
#    y 0.000000 1.968630 0.000000 
#    z 0.000000 0.000000 2.021800 
# 
# From -- ./inp_files/25991.got.cif
#   From: 2010.05.17/outbox.cif.g08.bks.cpg/sg64_13_cif.got.tgz:25991.got - 2010.06.03 16:29:19.
