data_PCOD9481634
_publ_section_title
;
Structure prediction by ZEFSAII (Michael W. Deem and Ramdas Pophale) SiO2 
 PCOD9481634
Probable space group: C M C A
;
_chemical_formula_sum "Si O2"
_cell_formula_units_Z 68
_cell_length_a 15.086067
_cell_length_b 12.329474
_cell_length_c 13.804641
_cell_angle_alpha 90.000000
_cell_angle_beta 90.000000
_cell_angle_gamma 90.000000
_cell_volume 2567.708379
_symmetry_space_group_name_H-M "C M C A"
_symmetry_group_IT_number 64
_symmetry_cell_setting 'orthorhombic'
loop_
_space_group_symop_operation_xyz
x,y,z
-x,1/2-y,1/2+z
x,-y,-z
-x,1/2+y,1/2-z
-x,-y,-z
x,1/2+y,1/2-z
-x,y,z
x,1/2-y,1/2+z
1/2+x,1/2+y,z
1/2-x,-y,1/2+z
1/2+x,1/2-y,-z
1/2-x,y,1/2-z
1/2-x,1/2-y,-z
1/2+x,y,1/2-z
1/2-x,1/2+y,z
1/2+x,-y,1/2+z
loop_
_atom_site_type_symbol
_atom_site_label
_atom_site_fract_x
_atom_site_fract_y
_atom_site_fract_z
Si Si1 0.373542 0.874376 0.384013
Si Si2 0.500000 0.500000 0.000000
Si Si3 0.681888 0.532608 0.611154
Si Si4 0.840677 0.242997 0.065240
Si Si5 0.896063 0.160034 0.257420
O O1 0.275548 0.915825 0.357233
O O2 0.399196 0.814548 0.485723
O O3 0.393068 0.778033 0.309872
O O4 0.425176 0.981949 0.412272
O O5 0.698149 0.500000 0.500000
O O6 0.622940 0.640737 0.598098
O O7 0.640472 0.436781 0.674042
O O8 0.834122 0.174999 0.162972
O O9 0.750000 0.250000 0.000000
O O10 0.000000 0.142315 0.235860
#
# Coordination Sequence:
#
# PCOD9481634 Si02
#       5
#    16   4  16  16  16
#     4  11  25  50  79 118 170 230 289 362 432 526
#     4  12  24  44  80 114 170 238 288 356 448 510
#     4  11  24  51  83 119 168 229 289 356 448 523
#     4  10  26  53  80 117 169 227 290 362 431 532
#     4  12  28  51  85 129 171 221 295 367 442 527
#
# _framework density 26.482759000000001
#
# number of rings (size 3 to 8) (size 9 to 14) (size 15 to 20)
#    0.000    0.941    4.706    0.000    1.647    7.059 
#    8.471    0.000    0.000    0.000    3.059    0.000 
#    0.000    0.000    0.000    0.000    0.000    0.000 
#
# Total GULP energy -189397.898714 kJ/mol
# GULP energy per Si atom -5570.526433 kJ/mol
# Density = 2.642248 g / cm^3
# Si number density = 26.482759 Si / 1000 Ang^3
#
#
#
# Elastic Constant Matrix: (Units=GPa)
#
#
# Indices 1 2 3 4 5 6 
#
# 1 109.1643 44.3250 55.6055 0.0000 0.0000 0.0000
# 2 44.3250 167.9725 87.2192 0.0000 0.0000 0.0000
# 3 55.6055 87.2192 210.5096 0.0000 0.0000 0.0000
# 4 0.0000 0.0000 0.0000 62.5894 0.0000 0.0000
# 5 0.0000 0.0000 0.0000 0.0000 26.6030 0.0000
# 6 0.0000 0.0000 0.0000 0.0000 0.0000 254.8952
#
#
#
# Elastic Compliance Matrix: (Units=1/GPa)
#
#
# Indices 1 2 3 4 5 6 
#
# 1 0.010984 -0.001774 -0.002167 0.000000 0.000000 0.000000
# 2 -0.001774 0.007872 -0.002793 0.000000 0.000000 0.000000
# 3 -0.002167 -0.002793 0.006480 0.000000 0.000000 0.000000
# 4 0.000000 0.000000 0.000000 0.015977 0.000000 0.000000
# 5 0.000000 0.000000 0.000000 0.000000 0.037590 0.000000
# 6 0.000000 0.000000 0.000000 0.000000 0.000000 0.003923
#
#
# Mechanical properties :
#
#
# Convention : Reuss Voigt Hill
#
# Bulk Modulus (GPa) = 84.24940 95.77177 90.01058
# Shear Modulus (GPa) = 49.87613 88.85066 69.36339
#
# Velocity S-wave (km/s) = 4.34446 5.79855 5.12335
# Velocity P-wave (km/s) = 7.55300 9.00407 8.31027
#
# Compressibility (1/GPa) = 0.01186952
#
# Stress axis : x y z
#
# Youngs Moduli (GPa) = 91.03938 127.03953 154.32442
#
# Poissons Ratio (x) = 0.22531 0.33437
# Poissons Ratio (y) = 0.16146 0.43101
# Poissons Ratio (z) = 0.19725 0.35481
#
# Static dielectric constant tensor:
#      x y z
#    x 2.223180 0.000000 0.000000 
#    y 0.000000 2.738280 0.000000 
#    z 0.000000 0.000000 2.168810 
# 
# From -- ./inp_files/25206.got.cif
#   From: 2010.05.17/outbox.cif.g08.bks.cpg/sg64_13_cif.got.tgz:25206.got - 2010.06.03 16:29:19.
