data_PCOD9481323
_publ_section_title
;
Structure prediction by ZEFSAII (Michael W. Deem and Ramdas Pophale) SiO2 
 PCOD9481323
Probable space group: C M C A
;
_chemical_formula_sum "Si O2"
_cell_formula_units_Z 72
_cell_length_a 13.646284
_cell_length_b 8.965684
_cell_length_c 25.456472
_cell_angle_alpha 90.000000
_cell_angle_beta 90.000000
_cell_angle_gamma 90.000000
_cell_volume 3114.555313
_symmetry_space_group_name_H-M "C M C A"
_symmetry_group_IT_number 64
_symmetry_cell_setting 'orthorhombic'
loop_
_space_group_symop_operation_xyz
x,y,z
-x,1/2-y,1/2+z
x,-y,-z
-x,1/2+y,1/2-z
-x,-y,-z
x,1/2+y,1/2-z
-x,y,z
x,1/2-y,1/2+z
1/2+x,1/2+y,z
1/2-x,-y,1/2+z
1/2+x,1/2-y,-z
1/2-x,y,1/2-z
1/2-x,1/2-y,-z
1/2+x,y,1/2-z
1/2-x,1/2+y,z
1/2+x,-y,1/2+z
loop_
_atom_site_type_symbol
_atom_site_label
_atom_site_fract_x
_atom_site_fract_y
_atom_site_fract_z
Si Si1 0.113991 0.084808 0.346755
Si Si2 0.805146 0.586260 0.948665
Si Si3 0.250000 0.508174 0.250000
Si Si4 0.607746 0.410908 0.166402
Si Si5 0.115382 0.083442 0.066712
O O1 0.175577 0.081222 0.292511
O O2 0.117055 0.256994 0.365248
O O3 0.000000 0.044468 0.337791
O O4 0.157154 0.984234 0.393644
O O5 0.836601 0.758611 0.948147
O O6 0.688833 0.549210 0.950558
O O7 0.846898 0.500000 0.000000
O O8 0.315747 0.412378 0.211900
O O9 0.500000 0.410620 0.189963
O O10 0.616919 0.555415 0.129648
O O11 0.000000 0.075165 0.051866
#
# Coordination Sequence:
#
# PCOD9481323 Si02
#       5
#    16  16   8  16  16
#     4  11  25  44  70 103 143 192 242 302 371 441
#     4  12  26  48  76 107 149 196 247 305 367 439
#     4  12  22  40  74 102 144 186 238 308 370 438
#     4  10  23  43  68 103 144 187 237 299 373 440
#     4  11  25  46  74 107 145 191 244 302 364 436
#
# _framework density 23.117265
#
# number of rings (size 3 to 8) (size 9 to 14) (size 15 to 20)
#    0.000    0.889    2.222    4.000    0.000    4.000 
#    0.000    5.556    0.000    0.000    0.000    0.000 
#    0.000    0.000    0.000    0.000    0.000    0.000 
#
# Total GULP energy -200906.325531 kJ/mol
# GULP energy per Si atom -5580.731265 kJ/mol
# Density = 2.306465 g / cm^3
# Si number density = 23.117265 Si / 1000 Ang^3
#
#
#
# Elastic Constant Matrix: (Units=GPa)
#
#
# Indices 1 2 3 4 5 6 
#
# 1 187.6465 79.6846 63.9127 0.0000 0.0000 0.0000
# 2 79.6846 129.2953 49.5135 0.0000 0.0000 0.0000
# 3 63.9127 49.5135 113.9315 0.0000 0.0000 0.0000
# 4 0.0000 0.0000 0.0000 23.8261 0.0000 0.0000
# 5 0.0000 0.0000 0.0000 0.0000 0.5331 0.0000
# 6 0.0000 0.0000 0.0000 0.0000 0.0000 30.6647
#
#
#
# Elastic Compliance Matrix: (Units=1/GPa)
#
#
# Indices 1 2 3 4 5 6 
#
# 1 0.007887 -0.003799 -0.002774 0.000000 0.000000 0.000000
# 2 -0.003799 0.011108 -0.002696 0.000000 0.000000 0.000000
# 3 -0.002774 -0.002696 0.011505 0.000000 0.000000 0.000000
# 4 0.000000 0.000000 0.000000 0.041971 0.000000 0.000000
# 5 0.000000 0.000000 0.000000 0.000000 1.875830 0.000000
# 6 0.000000 0.000000 0.000000 0.000000 0.000000 0.032611
#
#
# Mechanical properties :
#
#
# Convention : Reuss Voigt Hill
#
# Bulk Modulus (GPa) = 83.59396 90.78832 87.19114
# Shear Modulus (GPa) = 2.49571 26.85561 14.67566
#
# Velocity S-wave (km/s) = 1.04016 3.41209 2.52233
# Velocity P-wave (km/s) = 6.13856 7.40819 6.80306
#
# Compressibility (1/GPa) = 0.01196259
#
# Stress axis : x y z
#
# Youngs Moduli (GPa) = 126.79231 90.02595 86.91911
#
# Poissons Ratio (x) = 0.34197 0.24107
# Poissons Ratio (y) = 0.48163 0.23438
# Poissons Ratio (z) = 0.35166 0.24275
#
# Static dielectric constant tensor:
#      x y z
#    x 1.891600 0.000000 0.000000 
#    y 0.000000 1.874530 0.000000 
#    z 0.000000 0.000000 1.915030 
# 
# From -- ./inp_files/49808.got.cif
#   From: 2010.05.17/outbox.cif.g08.bks.cpg/sg64_25_cif.got.tgz:49808.got - 2010.06.03 16:29:19.
