data_PCOD9481844
_publ_section_title
;
Structure prediction by ZEFSAII (Michael W. Deem and Ramdas Pophale) SiO2 
 PCOD9481844
Probable space group: C M C A
;
_chemical_formula_sum "Si O2"
_cell_formula_units_Z 96
_cell_length_a 15.700524
_cell_length_b 14.958523
_cell_length_c 19.626229
_cell_angle_alpha 90.000000
_cell_angle_beta 90.000000
_cell_angle_gamma 90.000000
_cell_volume 4609.350383
_symmetry_space_group_name_H-M "C M C A"
_symmetry_group_IT_number 64
_symmetry_cell_setting 'orthorhombic'
loop_
_space_group_symop_operation_xyz
x,y,z
-x,1/2-y,1/2+z
x,-y,-z
-x,1/2+y,1/2-z
-x,-y,-z
x,1/2+y,1/2-z
-x,y,z
x,1/2-y,1/2+z
1/2+x,1/2+y,z
1/2-x,-y,1/2+z
1/2+x,1/2-y,-z
1/2-x,y,1/2-z
1/2-x,1/2-y,-z
1/2+x,y,1/2-z
1/2-x,1/2+y,z
1/2+x,-y,1/2+z
loop_
_atom_site_type_symbol
_atom_site_label
_atom_site_fract_x
_atom_site_fract_y
_atom_site_fract_z
Si Si1 0.699489 0.755416 0.689551
Si Si2 0.500000 0.659690 0.970095
Si Si3 0.900908 0.419769 0.186781
Si Si4 0.500000 0.537312 0.098341
Si Si5 0.692449 0.285232 0.062571
Si Si6 0.838004 0.953692 0.807578
Si Si7 0.781922 0.526167 0.921209
O O1 0.750000 0.708933 0.750000
O O2 0.624399 0.684671 0.677941
O O3 0.767013 0.764850 0.627852
O O4 0.668586 0.851219 0.716049
O O5 0.500000 0.561763 0.934466
O O6 0.589849 0.710513 0.951803
O O7 0.500000 0.623004 0.047801
O O8 0.850643 0.474584 0.246685
O O9 0.873007 0.457661 0.113229
O O10 0.000000 0.429807 0.201349
O O11 0.419601 0.541326 0.145656
O O12 0.722364 0.386179 0.076900
O O13 0.750000 0.250000 0.000000
O O14 0.763956 0.967490 0.863466
O O15 0.787439 0.500000 0.000000
#
# Coordination Sequence:
#
# PCOD9481844 Si02
#       7
#    16   8  16   8  16  16  16
#     4  11  25  43  67  97 134 178 229 282 360 414
#     4  11  22  40  67 105 138 175 238 289 346 412
#     4  11  25  43  65  99 137 178 230 287 350 424
#     4  11  22  36  69 105 128 177 232 286 342 404
#     4  11  23  42  65 100 138 179 227 289 347 410
#     4  12  23  44  72  97 135 180 233 291 350 416
#     4  11  22  41  69  93 132 181 226 279 348 418
#
# _framework density 20.827228999999999
#
# number of rings (size 3 to 8) (size 9 to 14) (size 15 to 20)
#    0.000    0.833    2.500    6.500    1.167    0.333 
#    6.000    0.000    9.167    0.000    0.000    0.000 
#    0.000    0.000    0.000    0.000    0.000    0.000 
#
# Total GULP energy -267332.184975 kJ/mol
# GULP energy per Si atom -5569.420520 kJ/mol
# Density = 2.077983 g / cm^3
# Si number density = 20.827229 Si / 1000 Ang^3
#
#
#
# Elastic Constant Matrix: (Units=GPa)
#
#
# Indices 1 2 3 4 5 6 
#
# 1 123.8508 43.7947 55.2778 0.0000 0.0000 0.0000
# 2 43.7947 100.8792 17.7144 0.0000 0.0000 0.0000
# 3 55.2778 17.7144 110.2088 0.0000 0.0000 0.0000
# 4 0.0000 0.0000 0.0000 28.4630 0.0000 0.0000
# 5 0.0000 0.0000 0.0000 0.0000 37.1845 0.0000
# 6 0.0000 0.0000 0.0000 0.0000 0.0000 11.6482
#
#
#
# Elastic Compliance Matrix: (Units=1/GPa)
#
#
# Indices 1 2 3 4 5 6 
#
# 1 0.011948 -0.004255 -0.005309 0.000000 0.000000 0.000000
# 2 -0.004255 0.011716 0.000251 0.000000 0.000000 0.000000
# 3 -0.005309 0.000251 0.011696 0.000000 0.000000 0.000000
# 4 0.000000 0.000000 0.000000 0.035133 0.000000 0.000000
# 5 0.000000 0.000000 0.000000 0.000000 0.026893 0.000000
# 6 0.000000 0.000000 0.000000 0.000000 0.000000 0.085850
#
#
# Mechanical properties :
#
#
# Convention : Reuss Voigt Hill
#
# Bulk Modulus (GPa) = 59.75647 63.16807 61.46227
# Shear Modulus (GPa) = 24.10321 30.00259 27.05290
#
# Velocity S-wave (km/s) = 3.40559 3.79957 3.60796
# Velocity P-wave (km/s) = 6.64965 7.04588 6.85063
#
# Compressibility (1/GPa) = 0.01673459
#
# Stress axis : x y z
#
# Youngs Moduli (GPa) = 83.69347 85.35378 85.49758
#
# Poissons Ratio (x) = 0.36317 0.45391
# Poissons Ratio (y) = 0.35610 -0.02146
# Poissons Ratio (z) = 0.44433 -0.02142
#
# Static dielectric constant tensor:
#      x y z
#    x 1.791370 0.000000 0.000000 
#    y 0.000000 1.809480 0.000000 
#    z 0.000000 0.000000 1.797920 
# 
# From -- ./inp_files/39275.got.cif
#   From: 2010.05.17/outbox.cif.g08.bks.cpg/sg64_20_cif.got.tgz:39275.got - 2010.06.03 16:29:19.
