data_PCOD9481422
_publ_section_title
;
Structure prediction by ZEFSAII (Michael W. Deem and Ramdas Pophale) SiO2 
 PCOD9481422
Probable space group: C M C A
;
_chemical_formula_sum "Si O2"
_cell_formula_units_Z 88
_cell_length_a 24.092209
_cell_length_b 30.876296
_cell_length_c 4.855021
_cell_angle_alpha 90.000000
_cell_angle_beta 90.000000
_cell_angle_gamma 90.000000
_cell_volume 3611.544168
_symmetry_space_group_name_H-M "C M C A"
_symmetry_group_IT_number 64
_symmetry_cell_setting 'orthorhombic'
loop_
_space_group_symop_operation_xyz
x,y,z
-x,1/2-y,1/2+z
x,-y,-z
-x,1/2+y,1/2-z
-x,-y,-z
x,1/2+y,1/2-z
-x,y,z
x,1/2-y,1/2+z
1/2+x,1/2+y,z
1/2-x,-y,1/2+z
1/2+x,1/2-y,-z
1/2-x,y,1/2-z
1/2-x,1/2-y,-z
1/2+x,y,1/2-z
1/2-x,1/2+y,z
1/2+x,-y,1/2+z
loop_
_atom_site_type_symbol
_atom_site_label
_atom_site_fract_x
_atom_site_fract_y
_atom_site_fract_z
Si Si1 0.000000 0.303264 0.735015
Si Si2 0.000000 0.856740 0.284628
Si Si3 0.250000 0.084249 0.250000
Si Si4 0.390978 0.596749 0.704732
Si Si5 0.629075 0.722992 0.180085
Si Si6 0.198070 0.662017 0.915220
Si Si7 0.636553 0.043484 0.325101
O O1 0.000000 0.345293 0.536079
O O2 0.062457 0.284639 0.688268
O O3 0.000000 0.311010 0.061519
O O4 0.947427 0.882474 0.390020
O O5 0.224975 0.117918 0.464073
O O6 0.298744 0.054917 0.369258
O O7 0.350953 0.638236 0.749785
O O8 0.373305 0.557560 0.494836
O O9 0.399100 0.577672 0.005524
O O10 0.641775 0.766041 0.363583
O O11 0.668254 0.687974 0.333986
O O12 0.250000 0.683046 0.750000
O O13 0.625697 0.000000 0.500000
#
# Coordination Sequence:
#
# PCOD9481422 Si02
#       7
#     8   8   8  16  16  16  16
#     4  12  24  45  74 100 137 178 239 301 343 419
#     4  12  24  43  77 104 130 182 243 291 340 422
#     4  10  24  40  70  96 136 182 242 288 328 428
#     4  11  24  44  68 105 136 183 234 294 345 428
#     4  12  28  45  68 102 143 180 229 294 364 422
#     4  11  24  43  71  96 140 182 238 286 357 418
#     4  11  24  43  68 103 145 182 228 290 363 415
#
# _framework density 24.366308
#
# number of rings (size 3 to 8) (size 9 to 14) (size 15 to 20)
#    0.000    0.727    3.636    3.273    5.091    3.636 
#    0.000    2.727    0.000    0.000    0.000    0.000 
#    0.000    0.000    0.000    0.000    0.000    0.000 
#
# Total GULP energy -245293.837473 kJ/mol
# GULP energy per Si atom -5574.859943 kJ/mol
# Density = 2.431085 g / cm^3
# Si number density = 24.366308 Si / 1000 Ang^3
#
#
#
# Elastic Constant Matrix: (Units=GPa)
#
#
# Indices 1 2 3 4 5 6 
#
# 1 116.9151 36.6413 4.1366 0.0000 0.0000 0.0000
# 2 36.6413 65.0991 25.8892 0.0000 0.0000 0.0000
# 3 4.1366 25.8892 98.0109 0.0000 0.0000 0.0000
# 4 0.0000 0.0000 0.0000 29.7216 0.0000 0.0000
# 5 0.0000 0.0000 0.0000 0.0000 34.9120 0.0000
# 6 0.0000 0.0000 0.0000 0.0000 0.0000 32.3330
#
#
#
# Elastic Compliance Matrix: (Units=1/GPa)
#
#
# Indices 1 2 3 4 5 6 
#
# 1 0.010521 -0.006419 0.001252 0.000000 0.000000 0.000000
# 2 -0.006419 0.021081 -0.005298 0.000000 0.000000 0.000000
# 3 0.001252 -0.005298 0.011549 0.000000 0.000000 0.000000
# 4 0.000000 0.000000 0.000000 0.033646 0.000000 0.000000
# 5 0.000000 0.000000 0.000000 0.000000 0.028643 0.000000
# 6 0.000000 0.000000 0.000000 0.000000 0.000000 0.030928
#
#
# Mechanical properties :
#
#
# Convention : Reuss Voigt Hill
#
# Bulk Modulus (GPa) = 45.00314 45.92882 45.46598
# Shear Modulus (GPa) = 30.35708 33.61719 31.98714
#
# Velocity S-wave (km/s) = 3.53351 3.71841 3.62713
# Velocity P-wave (km/s) = 5.92934 6.10947 6.02008
#
# Compressibility (1/GPa) = 0.02222067
#
# Stress axis : x y z
#
# Youngs Moduli (GPa) = 95.04989 47.43566 86.58411
#
# Poissons Ratio (x) = 0.30451 -0.10837
# Poissons Ratio (y) = 0.61017 0.45869
# Poissons Ratio (z) = -0.11897 0.25129
#
# Static dielectric constant tensor:
#      x y z
#    x 2.123640 0.000000 0.000000 
#    y 0.000000 1.985800 0.000000 
#    z 0.000000 0.000000 1.696940 
# 
# From -- ./inp_files/2460.got.cif
#   From: 2010.05.17/outbox.cif.g08.bks.cpg/sg64_2_cif.got.tgz:2460.got - 2010.06.03 16:29:19.
