data_PCOD9481688
_publ_section_title
;
Structure prediction by ZEFSAII (Michael W. Deem and Ramdas Pophale) SiO2 
 PCOD9481688
Probable space group: C M C A
;
_chemical_formula_sum "Si O2"
_cell_formula_units_Z 64
_cell_length_a 21.312560
_cell_length_b 5.072510
_cell_length_c 31.291661
_cell_angle_alpha 90.000000
_cell_angle_beta 90.000000
_cell_angle_gamma 90.000000
_cell_volume 3382.884324
_symmetry_space_group_name_H-M "C M C A"
_symmetry_group_IT_number 64
_symmetry_cell_setting 'orthorhombic'
loop_
_space_group_symop_operation_xyz
x,y,z
-x,1/2-y,1/2+z
x,-y,-z
-x,1/2+y,1/2-z
-x,-y,-z
x,1/2+y,1/2-z
-x,y,z
x,1/2-y,1/2+z
1/2+x,1/2+y,z
1/2-x,-y,1/2+z
1/2+x,1/2-y,-z
1/2-x,y,1/2-z
1/2-x,1/2-y,-z
1/2+x,y,1/2-z
1/2-x,1/2+y,z
1/2+x,-y,1/2+z
loop_
_atom_site_type_symbol
_atom_site_label
_atom_site_fract_x
_atom_site_fract_y
_atom_site_fract_z
Si Si1 0.885436 0.438395 0.581649
Si Si2 0.076126 0.238764 0.274832
Si Si3 0.576458 0.032512 0.130958
Si Si4 0.000000 0.249250 0.529306
Si Si5 0.705257 0.500000 0.000000
O O1 0.909232 0.719493 0.599471
O O2 0.834835 0.488828 0.544188
O O3 0.939129 0.275612 0.557279
O O4 0.880272 0.223796 0.620061
O O5 0.097102 0.027363 0.239387
O O6 0.000000 0.246189 0.274295
O O7 0.092661 0.138943 0.321826
O O8 0.500000 0.977414 0.130856
O O9 0.000000 0.500000 0.500000
O O10 0.000000 0.000000 0.500000
O O11 0.750000 0.750000 0.000000
#
# Coordination Sequence:
#
# PCOD9481688 Si02
#       5
#    16  16  16   8   8
#     4  12  23  37  58  81 112 144 192 237 277 330
#     4   9  17  29  46  72 116 160 180 201 255 335
#     4  11  20  33  54  87 117 146 186 227 274 330
#     4  12  22  34  56  84 108 142 180 232 290 334
#     4  12  28  45  58  75 108 152 194 236 282 334
#
# _framework density 18.918766000000002
#
# number of rings (size 3 to 8) (size 9 to 14) (size 15 to 20)
#    0.000    1.000    3.750    4.500    1.750    4.000 
#    0.000    0.000    0.000    0.000    0.000    0.000 
#    0.000   70.000    0.000    0.000    0.000    0.000 
#
# Total GULP energy -178300.993315 kJ/mol
# GULP energy per Si atom -5571.906041 kJ/mol
# Density = 1.887571 g / cm^3
# Si number density = 18.918766 Si / 1000 Ang^3
#
#
#
# Elastic Constant Matrix: (Units=GPa)
#
#
# Indices 1 2 3 4 5 6 
#
# 1 49.5994 11.8028 21.4012 0.0000 0.0000 0.0000
# 2 11.8028 104.1381 3.1149 0.0000 0.0000 0.0000
# 3 21.4012 3.1149 68.4279 0.0000 0.0000 0.0000
# 4 0.0000 0.0000 0.0000 41.7073 0.0000 0.0000
# 5 0.0000 0.0000 0.0000 0.0000 4.4961 0.0000
# 6 0.0000 0.0000 0.0000 0.0000 0.0000 15.2190
#
#
#
# Elastic Compliance Matrix: (Units=1/GPa)
#
#
# Indices 1 2 3 4 5 6 
#
# 1 0.023936 -0.002492 -0.007373 0.000000 0.000000 0.000000
# 2 -0.002492 0.009875 0.000330 0.000000 0.000000 0.000000
# 3 -0.007373 0.000330 0.016905 0.000000 0.000000 0.000000
# 4 0.000000 0.000000 0.000000 0.023977 0.000000 0.000000
# 5 0.000000 0.000000 0.000000 0.000000 0.222415 0.000000
# 6 0.000000 0.000000 0.000000 0.000000 0.000000 0.065707
#
#
# Mechanical properties :
#
#
# Convention : Reuss Voigt Hill
#
# Bulk Modulus (GPa) = 31.59974 32.75591 32.17782
# Shear Modulus (GPa) = 12.74102 24.67425 18.70763
#
# Velocity S-wave (km/s) = 2.59792 3.61532 3.14799
# Velocity P-wave (km/s) = 5.07327 5.89737 5.50077
#
# Compressibility (1/GPa) = 0.03164583
#
# Stress axis : x y z
#
# Youngs Moduli (GPa) = 41.77847 101.26337 59.15510
#
# Poissons Ratio (x) = 0.25238 0.43613
# Poissons Ratio (y) = 0.10412 -0.01952
# Poissons Ratio (z) = 0.30802 -0.03341
#
# Static dielectric constant tensor:
#      x y z
#    x 1.623730 0.000000 0.000000 
#    y 0.000000 1.709280 0.000000 
#    z 0.000000 0.000000 1.821070 
# 
# From -- ./inp_files/50913.got.cif
#   From: 2010.05.17/outbox.cif.g08.bks.cpg/sg64_26_cif.got.tgz:50913.got - 2010.06.03 16:29:19.
