data_PCOD9481873
_publ_section_title
;
Structure prediction by ZEFSAII (Michael W. Deem and Ramdas Pophale) SiO2 
 PCOD9481873
Probable space group: C M C A
;
_chemical_formula_sum "Si O2"
_cell_formula_units_Z 88
_cell_length_a 14.577539
_cell_length_b 11.646846
_cell_length_c 22.420900
_cell_angle_alpha 90.000000
_cell_angle_beta 90.000000
_cell_angle_gamma 90.000000
_cell_volume 3806.673131
_symmetry_space_group_name_H-M "C M C A"
_symmetry_group_IT_number 64
_symmetry_cell_setting 'orthorhombic'
loop_
_space_group_symop_operation_xyz
x,y,z
-x,1/2-y,1/2+z
x,-y,-z
-x,1/2+y,1/2-z
-x,-y,-z
x,1/2+y,1/2-z
-x,y,z
x,1/2-y,1/2+z
1/2+x,1/2+y,z
1/2-x,-y,1/2+z
1/2+x,1/2-y,-z
1/2-x,y,1/2-z
1/2-x,1/2-y,-z
1/2+x,y,1/2-z
1/2-x,1/2+y,z
1/2+x,-y,1/2+z
loop_
_atom_site_type_symbol
_atom_site_label
_atom_site_fract_x
_atom_site_fract_y
_atom_site_fract_z
Si Si1 0.000000 0.202668 0.378740
Si Si2 0.180935 0.580417 0.095096
Si Si3 0.000000 0.608347 0.254590
Si Si4 0.500000 0.027664 0.640565
Si Si5 0.896367 0.330616 0.094149
Si Si6 0.627855 0.594229 0.047979
Si Si7 0.696190 0.689570 0.193388
O O1 0.000000 0.339036 0.372905
O O2 0.095132 0.165138 0.408401
O O3 0.000000 0.133505 0.315337
O O4 0.140111 0.455896 0.080816
O O5 0.263116 0.600916 0.049798
O O6 0.233950 0.599726 0.159524
O O7 0.096044 0.656108 0.280689
O O8 0.000000 0.484885 0.287718
O O9 0.415241 0.960497 0.608758
O O10 0.826512 0.281582 0.143022
O O11 0.000000 0.341776 0.117923
O O12 0.901110 0.227184 0.045933
O O13 0.599508 0.500000 0.000000
O O14 0.750000 0.736674 0.250000
#
# Coordination Sequence:
#
# PCOD9481873 Si02
#       7
#     8  16   8   8  16  16  16
#     4  12  28  44  66 106 148 180 225 286 355 413
#     4  11  25  43  64 101 143 177 225 290 348 412
#     4  12  22  43  65 103 134 183 228 275 338 405
#     4  12  25  47  72 102 142 175 238 295 329 417
#     4  11  22  43  69  94 141 176 230 291 344 413
#     4  11  25  47  75 101 131 185 243 288 348 411
#     4  11  22  39  63  98 135 183 235 272 336 409
#
# _framework density 23.117298999999999
#
# number of rings (size 3 to 8) (size 9 to 14) (size 15 to 20)
#    0.000    0.727    8.182    0.273    5.091    2.909 
#    0.000    0.455    0.000    0.000    0.000    0.000 
#    0.000    0.000    0.000    0.000    0.000    0.000 
#
# Total GULP energy -245361.251354 kJ/mol
# GULP energy per Si atom -5576.392076 kJ/mol
# Density = 2.306468 g / cm^3
# Si number density = 23.117299 Si / 1000 Ang^3
#
#
#
# Elastic Constant Matrix: (Units=GPa)
#
#
# Indices 1 2 3 4 5 6 
#
# 1 168.7256 50.7430 8.2467 0.0000 0.0000 0.0000
# 2 50.7430 138.6582 -6.6733 0.0000 0.0000 0.0000
# 3 8.2467 -6.6733 57.2629 0.0000 0.0000 0.0000
# 4 0.0000 0.0000 0.0000 18.2925 0.0000 0.0000
# 5 0.0000 0.0000 0.0000 0.0000 -3.4025 0.0000
# 6 0.0000 0.0000 0.0000 0.0000 0.0000 24.7852
#
#
#
# Elastic Compliance Matrix: (Units=1/GPa)
#
#
# Indices 1 2 3 4 5 6 
#
# 1 0.006750 -0.002531 -0.001267 0.000000 0.000000 0.000000
# 2 -0.002531 0.008202 0.001320 0.000000 0.000000 0.000000
# 3 -0.001267 0.001320 0.017800 0.000000 0.000000 0.000000
# 4 0.000000 0.000000 0.000000 0.054667 0.000000 0.000000
# 5 0.000000 0.000000 0.000000 0.000000 -0.293899 0.000000
# 6 0.000000 0.000000 0.000000 0.000000 0.000000 0.040347
#
#
# Mechanical properties :
#
#
# Convention : Reuss Voigt Hill
#
# Bulk Modulus (GPa) = 35.97685 52.14216 44.05951
# Shear Modulus (GPa) = -32.91375 28.75705 -2.07835
#
# Velocity S-wave (km/s) = -3.77738 3.53081 -0.94921
# Velocity P-wave (km/s) = 1.85157 6.26312 4.23074
#
# Compressibility (1/GPa) = 0.02779565
#
# Stress axis : x y z
#
# Youngs Moduli (GPa) = 148.14933 121.92400 56.18085
#
# Poissons Ratio (x) = 0.30861 0.07118
# Poissons Ratio (y) = 0.37499 -0.07418
# Poissons Ratio (z) = 0.18772 -0.16098
#
# Static dielectric constant tensor:
#      x y z
#    x 1.858490 0.000000 0.000000 
#    y 0.000000 1.831960 0.000000 
#    z 0.000000 0.000000 1.948860 
# 
# From -- ./inp_files/45108.got.cif
#   From: 2010.05.17/outbox.cif.g08.bks.cpg/sg64_23_cif.got.tgz:45108.got - 2010.06.03 16:29:19.
