data_PCOD9481812
_publ_section_title
;
Structure prediction by ZEFSAII (Michael W. Deem and Ramdas Pophale) SiO2 
 PCOD9481812
Probable space group: C M C A
;
_chemical_formula_sum "Si O2"
_cell_formula_units_Z 72
_cell_length_a 16.744247
_cell_length_b 16.540452
_cell_length_c 12.840884
_cell_angle_alpha 90.000000
_cell_angle_beta 90.000000
_cell_angle_gamma 90.000000
_cell_volume 3556.378023
_symmetry_space_group_name_H-M "C M C A"
_symmetry_group_IT_number 64
_symmetry_cell_setting 'orthorhombic'
loop_
_space_group_symop_operation_xyz
x,y,z
-x,1/2-y,1/2+z
x,-y,-z
-x,1/2+y,1/2-z
-x,-y,-z
x,1/2+y,1/2-z
-x,y,z
x,1/2-y,1/2+z
1/2+x,1/2+y,z
1/2-x,-y,1/2+z
1/2+x,1/2-y,-z
1/2-x,y,1/2-z
1/2-x,1/2-y,-z
1/2+x,y,1/2-z
1/2-x,1/2+y,z
1/2+x,-y,1/2+z
loop_
_atom_site_type_symbol
_atom_site_label
_atom_site_fract_x
_atom_site_fract_y
_atom_site_fract_z
Si Si1 0.343089 0.604591 0.720439
Si Si2 0.313629 0.067384 0.172466
Si Si3 0.092615 0.150557 0.933442
Si Si4 0.095945 0.330900 0.999024
Si Si5 0.802217 0.500000 0.500000
O O1 0.250000 0.617519 0.750000
O O2 0.359810 0.507483 0.726650
O O3 0.392933 0.650237 0.809200
O O4 0.365311 0.635300 0.605255
O O5 0.250000 0.109613 0.250000
O O6 0.368928 0.123059 0.101896
O O7 0.255776 0.019320 0.094580
O O8 0.145296 0.078309 0.977985
O O9 0.000000 0.135700 0.955211
O O10 0.114712 0.236433 0.983320
O O11 0.000000 0.341222 0.003706
#
# Coordination Sequence:
#
# PCOD9481812 Si02
#       5
#    16  16  16  16   8
#     4  11  21  43  68  94 132 170 217 272 324 391
#     4  11  22  42  65  98 126 167 221 269 322 388
#     4  11  25  42  64  96 132 173 215 265 329 392
#     4  11  25  43  67 101 134 169 219 274 330 388
#     4  12  21  44  65  90 130 170 218 258 319 390
#
# _framework density 20.245317
#
# number of rings (size 3 to 8) (size 9 to 14) (size 15 to 20)
#    0.000    0.889    6.667    1.000    0.000    8.889 
#    0.000    2.222    0.000    0.000    0.000    0.000 
#    0.000    0.000    0.000    0.000    0.000    0.000 
#
# Total GULP energy -201110.406694 kJ/mol
# GULP energy per Si atom -5586.400186 kJ/mol
# Density = 2.019924 g / cm^3
# Si number density = 20.245317 Si / 1000 Ang^3
#
#
#
# Elastic Constant Matrix: (Units=GPa)
#
#
# Indices 1 2 3 4 5 6 
#
# 1 75.9316 62.4883 22.7092 0.0000 0.0000 0.0000
# 2 62.4883 103.6157 23.9281 0.0000 0.0000 0.0000
# 3 22.7092 23.9281 80.1525 0.0000 0.0000 0.0000
# 4 0.0000 0.0000 0.0000 34.5038 0.0000 0.0000
# 5 0.0000 0.0000 0.0000 0.0000 24.0661 0.0000
# 6 0.0000 0.0000 0.0000 0.0000 0.0000 32.7092
#
#
#
# Elastic Compliance Matrix: (Units=1/GPa)
#
#
# Indices 1 2 3 4 5 6 
#
# 1 0.026790 -0.015470 -0.002972 0.000000 0.000000 0.000000
# 2 -0.015470 0.019299 -0.001378 0.000000 0.000000 0.000000
# 3 -0.002972 -0.001378 0.013730 0.000000 0.000000 0.000000
# 4 0.000000 0.000000 0.000000 0.028982 0.000000 0.000000
# 5 0.000000 0.000000 0.000000 0.000000 0.041552 0.000000
# 6 0.000000 0.000000 0.000000 0.000000 0.000000 0.030572
#
#
# Mechanical properties :
#
#
# Convention : Reuss Voigt Hill
#
# Bulk Modulus (GPa) = 49.55907 53.10566 51.33237
# Shear Modulus (GPa) = 24.12064 28.29410 26.20737
#
# Velocity S-wave (km/s) = 3.45544 3.74245 3.60181
# Velocity P-wave (km/s) = 6.36023 6.70542 6.53510
#
# Compressibility (1/GPa) = 0.02017794
#
# Stress axis : x y z
#
# Youngs Moduli (GPa) = 37.32798 51.81648 72.83477
#
# Poissons Ratio (x) = 0.80159 0.21646
# Poissons Ratio (y) = 0.57746 0.10039
# Poissons Ratio (z) = 0.11093 0.07142
#
# Static dielectric constant tensor:
#      x y z
#    x 1.710760 0.000000 0.000000 
#    y 0.000000 1.739170 0.000000 
#    z 0.000000 0.000000 1.757410 
# 
# From -- ./inp_files/15750.got.cif
#   From: 2010.05.17/outbox.cif.g08.bks.cpg/sg64_8_cif.got.tgz:15750.got - 2010.06.03 16:29:19.
