data_PCOD9481756
_publ_section_title
;
Structure prediction by ZEFSAII (Michael W. Deem and Ramdas Pophale) SiO2 
 PCOD9481756
Probable space group: C M C A
;
_chemical_formula_sum "Si O2"
_cell_formula_units_Z 64
_cell_length_a 8.624847
_cell_length_b 20.666715
_cell_length_c 19.644908
_cell_angle_alpha 90.000000
_cell_angle_beta 90.000000
_cell_angle_gamma 90.000000
_cell_volume 3501.650923
_symmetry_space_group_name_H-M "C M C A"
_symmetry_group_IT_number 64
_symmetry_cell_setting 'orthorhombic'
loop_
_space_group_symop_operation_xyz
x,y,z
-x,1/2-y,1/2+z
x,-y,-z
-x,1/2+y,1/2-z
-x,-y,-z
x,1/2+y,1/2-z
-x,y,z
x,1/2-y,1/2+z
1/2+x,1/2+y,z
1/2-x,-y,1/2+z
1/2+x,1/2-y,-z
1/2-x,y,1/2-z
1/2-x,1/2-y,-z
1/2+x,y,1/2-z
1/2-x,1/2+y,z
1/2+x,-y,1/2+z
loop_
_atom_site_type_symbol
_atom_site_label
_atom_site_fract_x
_atom_site_fract_y
_atom_site_fract_z
Si Si1 0.314319 0.009391 0.823700
Si Si2 0.315763 0.933467 0.458522
Si Si3 0.685528 0.636132 0.176455
Si Si4 0.315507 0.188264 0.039581
O O1 0.500000 0.007905 0.823255
O O2 0.250000 0.029383 0.750000
O O3 0.251297 0.936405 0.835636
O O4 0.251067 0.054362 0.883599
O O5 0.500000 0.921072 0.456121
O O6 0.232628 0.875338 0.497247
O O7 0.291268 0.000000 0.500000
O O8 0.500000 0.632753 0.178201
O O9 0.750000 0.657103 0.250000
O O10 0.741998 0.680145 0.114432
O O11 0.500000 0.192267 0.045451
O O12 0.250000 0.250000 0.000000
#
# Coordination Sequence:
#
# PCOD9481756 Si02
#       4
#    16  16  16  16
#     4  11  21  35  58  89 123 159 201 251 306 360
#     4  11  22  38  62  90 122 157 200 250 302 356
#     4  11  21  37  60  89 121 158 202 250 301 358
#     4  12  25  42  63  90 124 163 205 250 304 363
#
# _framework density 18.277092
#
# number of rings (size 3 to 8) (size 9 to 14) (size 15 to 20)
#    0.000    0.750    2.500    9.000    0.000    1.000 
#    0.000    1.250    0.000    0.000    0.000    0.000 
#    0.000    0.000    0.000    0.000    0.000    0.000 
#
# Total GULP energy -179022.491184 kJ/mol
# GULP energy per Si atom -5594.452850 kJ/mol
# Density = 1.823549 g / cm^3
# Si number density = 18.277092 Si / 1000 Ang^3
#
#
#
# Elastic Constant Matrix: (Units=GPa)
#
#
# Indices 1 2 3 4 5 6 
#
# 1 142.9470 31.2544 44.9193 0.0000 0.0000 0.0000
# 2 31.2544 53.3776 43.6489 0.0000 0.0000 0.0000
# 3 44.9193 43.6489 156.9064 0.0000 0.0000 0.0000
# 4 0.0000 0.0000 0.0000 31.2978 0.0000 0.0000
# 5 0.0000 0.0000 0.0000 0.0000 36.5348 0.0000
# 6 0.0000 0.0000 0.0000 0.0000 0.0000 29.4847
#
#
#
# Elastic Compliance Matrix: (Units=1/GPa)
#
#
# Indices 1 2 3 4 5 6 
#
# 1 0.008227 -0.003743 -0.001314 0.000000 0.000000 0.000000
# 2 -0.003743 0.025954 -0.006148 0.000000 0.000000 0.000000
# 3 -0.001314 -0.006148 0.008460 0.000000 0.000000 0.000000
# 4 0.000000 0.000000 0.000000 0.031951 0.000000 0.000000
# 5 0.000000 0.000000 0.000000 0.000000 0.027371 0.000000
# 6 0.000000 0.000000 0.000000 0.000000 0.000000 0.033916
#
#
# Mechanical properties :
#
#
# Convention : Reuss Voigt Hill
#
# Bulk Modulus (GPa) = 49.43111 65.87513 57.65312
# Shear Modulus (GPa) = 30.29716 35.02404 32.66060
#
# Velocity S-wave (km/s) = 4.07585 4.38228 4.23184
# Velocity P-wave (km/s) = 7.01813 7.85663 7.44919
#
# Compressibility (1/GPa) = 0.02023017
#
# Stress axis : x y z
#
# Youngs Moduli (GPa) = 121.55385 38.53018 118.20566
#
# Poissons Ratio (x) = 0.14420 0.15533
# Poissons Ratio (y) = 0.45492 0.72679
# Poissons Ratio (z) = 0.15973 0.23690
#
# Static dielectric constant tensor:
#      x y z
#    x 1.605140 0.000000 0.000000 
#    y 0.000000 1.599050 0.000000 
#    z 0.000000 0.000000 1.632170 
# 
# From -- ./inp_files/29243.got.cif
#   From: 2010.05.17/outbox.cif.g08.bks.cpg/sg64_15_cif.got.tgz:29243.got - 2010.06.03 16:29:19.
