data_PCOD9481829
_publ_section_title
;
Structure prediction by ZEFSAII (Michael W. Deem and Ramdas Pophale) SiO2 
 PCOD9481829
Probable space group: C M C A
;
_chemical_formula_sum "Si O2"
_cell_formula_units_Z 80
_cell_length_a 13.326447
_cell_length_b 17.841819
_cell_length_c 18.857795
_cell_angle_alpha 90.000000
_cell_angle_beta 90.000000
_cell_angle_gamma 90.000000
_cell_volume 4483.781244
_symmetry_space_group_name_H-M "C M C A"
_symmetry_group_IT_number 64
_symmetry_cell_setting 'orthorhombic'
loop_
_space_group_symop_operation_xyz
x,y,z
-x,1/2-y,1/2+z
x,-y,-z
-x,1/2+y,1/2-z
-x,-y,-z
x,1/2+y,1/2-z
-x,y,z
x,1/2-y,1/2+z
1/2+x,1/2+y,z
1/2-x,-y,1/2+z
1/2+x,1/2-y,-z
1/2-x,y,1/2-z
1/2-x,1/2-y,-z
1/2+x,y,1/2-z
1/2-x,1/2+y,z
1/2+x,-y,1/2+z
loop_
_atom_site_type_symbol
_atom_site_label
_atom_site_fract_x
_atom_site_fract_y
_atom_site_fract_z
Si Si1 0.111608 0.320452 0.338607
Si Si2 0.218978 0.711101 0.072930
Si Si3 0.118741 0.449173 0.929439
Si Si4 0.115778 0.276157 0.178567
Si Si5 0.284326 0.569823 0.669084
O O1 0.124628 0.256790 0.396440
O O2 0.137730 0.280650 0.263188
O O3 0.185592 0.387635 0.359630
O O4 0.000000 0.349376 0.330981
O O5 0.182728 0.626620 0.062304
O O6 0.307921 0.727234 0.130916
O O7 0.250000 0.750000 0.000000
O O8 0.172097 0.497504 0.868110
O O9 0.000000 0.434848 0.914921
O O10 0.123797 0.500000 0.000000
O O11 0.133441 0.363959 0.160359
O O12 0.000000 0.254495 0.167829
O O13 0.250000 0.555409 0.750000
#
# Coordination Sequence:
#
# PCOD9481829 Si02
#       5
#    16  16  16  16  16
#     4   9  18  35  58  81 107 141 179 218 264 320
#     4  11  22  35  54  79 108 140 182 229 270 317
#     4  11  23  38  56  79 109 145 184 226 274 326
#     4   9  18  35  58  81 107 142 180 219 266 320
#     4   9  18  33  56  84 113 142 176 217 264 320
#
# _framework density 17.842084
#
# number of rings (size 3 to 8) (size 9 to 14) (size 15 to 20)
#    0.000    2.200    0.000    5.400    0.000    5.600 
#    0.000    1.000    0.000    2.400    0.000    0.000 
#    0.000    0.000    0.000    0.000    0.000    0.000 
#
# Total GULP energy -222703.937973 kJ/mol
# GULP energy per Si atom -5567.598449 kJ/mol
# Density = 1.780147 g / cm^3
# Si number density = 17.842084 Si / 1000 Ang^3
#
#
#
# Elastic Constant Matrix: (Units=GPa)
#
#
# Indices 1 2 3 4 5 6 
#
# 1 123.4425 47.2837 37.7063 0.0000 0.0000 0.0000
# 2 47.2837 132.6037 52.4735 0.0000 0.0000 0.0000
# 3 37.7063 52.4735 63.8159 0.0000 0.0000 0.0000
# 4 0.0000 0.0000 0.0000 28.5326 0.0000 0.0000
# 5 0.0000 0.0000 0.0000 0.0000 16.8850 0.0000
# 6 0.0000 0.0000 0.0000 0.0000 0.0000 5.3157
#
#
#
# Elastic Compliance Matrix: (Units=1/GPa)
#
#
# Indices 1 2 3 4 5 6 
#
# 1 0.010183 -0.001853 -0.004493 0.000000 0.000000 0.000000
# 2 -0.001853 0.011516 -0.008374 0.000000 0.000000 0.000000
# 3 -0.004493 -0.008374 0.025211 0.000000 0.000000 0.000000
# 4 0.000000 0.000000 0.000000 0.035048 0.000000 0.000000
# 5 0.000000 0.000000 0.000000 0.000000 0.059224 0.000000
# 6 0.000000 0.000000 0.000000 0.000000 0.000000 0.188123
#
#
# Mechanical properties :
#
#
# Convention : Reuss Voigt Hill
#
# Bulk Modulus (GPa) = 57.24438 66.08769 61.66604
# Shear Modulus (GPa) = 13.71486 22.30656 18.01071
#
# Velocity S-wave (km/s) = 2.77552 3.53968 3.18063
# Velocity P-wave (km/s) = 6.51344 7.33666 6.93727
#
# Compressibility (1/GPa) = 0.01746896
#
# Stress axis : x y z
#
# Youngs Moduli (GPa) = 98.20082 86.83692 39.66582
#
# Poissons Ratio (x) = 0.16092 0.17822
# Poissons Ratio (y) = 0.18198 0.33217
# Poissons Ratio (z) = 0.44123 0.72718
#
# Static dielectric constant tensor:
#      x y z
#    x 1.635350 0.000000 0.000000 
#    y 0.000000 1.590500 0.000000 
#    z 0.000000 0.000000 1.646950 
# 
# From -- ./inp_files/32016.got.cif
#   From: 2010.05.17/outbox.cif.g08.bks.cpg/sg64_17_cif.got.tgz:32016.got - 2010.06.03 16:29:19.
