data_PCOD9481490
_publ_section_title
;
Structure prediction by ZEFSAII (Michael W. Deem and Ramdas Pophale) SiO2 
 PCOD9481490
Probable space group: C M C A
;
_chemical_formula_sum "Si O2"
_cell_formula_units_Z 56
_cell_length_a 14.491341
_cell_length_b 29.113229
_cell_length_c 4.992427
_cell_angle_alpha 90.000000
_cell_angle_beta 90.000000
_cell_angle_gamma 90.000000
_cell_volume 2106.253674
_symmetry_space_group_name_H-M "C M C A"
_symmetry_group_IT_number 64
_symmetry_cell_setting 'orthorhombic'
loop_
_space_group_symop_operation_xyz
x,y,z
-x,1/2-y,1/2+z
x,-y,-z
-x,1/2+y,1/2-z
-x,-y,-z
x,1/2+y,1/2-z
-x,y,z
x,1/2-y,1/2+z
1/2+x,1/2+y,z
1/2-x,-y,1/2+z
1/2+x,1/2-y,-z
1/2-x,y,1/2-z
1/2-x,1/2-y,-z
1/2+x,y,1/2-z
1/2-x,1/2+y,z
1/2+x,-y,1/2+z
loop_
_atom_site_type_symbol
_atom_site_label
_atom_site_fract_x
_atom_site_fract_y
_atom_site_fract_z
Si Si1 0.148435 0.869701 0.845598
Si Si2 0.000000 0.409921 0.976299
Si Si3 0.611528 0.222392 0.648676
Si Si4 0.359475 0.957338 0.308992
O O1 0.250000 0.880780 0.750000
O O2 0.148490 0.824191 0.021706
O O3 0.079610 0.871063 0.597752
O O4 0.111730 0.911656 0.026314
O O5 0.081276 0.448284 0.045401
O O6 0.500000 0.218964 0.639054
O O7 0.639372 0.236483 0.946239
O O8 0.250000 0.958052 0.250000
O O9 0.381411 0.000000 0.500000
#
# Coordination Sequence:
#
# PCOD9481490 Si02
#       4
#    16   8  16  16
#     4  12  26  47  76 112 152 204 260 328 397 480
#     4  12  27  49  79 107 153 204 253 323 395 472
#     4  10  24  43  73 109 154 206 264 327 402 481
#     4  12  28  49  77 113 158 202 263 327 398 480
#
# _framework density 26.587491
#
# number of rings (size 3 to 8) (size 9 to 14) (size 15 to 20)
#    0.000    0.571    4.286    2.143    4.000    2.286 
#    0.000    0.000    0.000    0.000    0.000    0.000 
#    0.000    0.000    0.000    0.000    0.000    0.000 
#
# Total GULP energy -156124.116644 kJ/mol
# GULP energy per Si atom -5575.861309 kJ/mol
# Density = 2.652698 g / cm^3
# Si number density = 26.587491 Si / 1000 Ang^3
#
#
#
# Elastic Constant Matrix: (Units=GPa)
#
#
# Indices 1 2 3 4 5 6 
#
# 1 175.6295 -5.5519 7.8297 0.0000 0.0000 0.0000
# 2 -5.5519 126.1385 -2.7752 0.0000 0.0000 0.0000
# 3 7.8297 -2.7752 69.0791 0.0000 0.0000 0.0000
# 4 0.0000 0.0000 0.0000 47.1319 0.0000 0.0000
# 5 0.0000 0.0000 0.0000 0.0000 -335.0614 0.0000
# 6 0.0000 0.0000 0.0000 0.0000 0.0000 -9.5049
#
#
#
# Elastic Compliance Matrix: (Units=1/GPa)
#
#
# Indices 1 2 3 4 5 6 
#
# 1 0.005730 0.000238 -0.000640 0.000000 0.000000 0.000000
# 2 0.000238 0.007945 0.000292 0.000000 0.000000 0.000000
# 3 -0.000640 0.000292 0.014560 0.000000 0.000000 0.000000
# 4 0.000000 0.000000 0.000000 0.021217 0.000000 0.000000
# 5 0.000000 0.000000 0.000000 0.000000 -0.002985 0.000000
# 6 0.000000 0.000000 0.000000 0.000000 0.000000 -0.105208
#
#
# Mechanical properties :
#
#
# Convention : Reuss Voigt Hill
#
# Bulk Modulus (GPa) = 35.69411 41.09472 38.39442
# Shear Modulus (GPa) = -101.66081 -34.73060 -68.19570
#
# Velocity S-wave (km/s) = -6.19026 -3.61816 -5.07003
# Velocity P-wave (km/s) = 6.13499 1.40173 4.44989
#
# Compressibility (1/GPa) = 0.02801582
#
# Stress axis : x y z
#
# Youngs Moduli (GPa) = 174.52444 125.87000 68.67930
#
# Poissons Ratio (x) = -0.02997 0.04395
# Poissons Ratio (y) = -0.04156 -0.02007
# Poissons Ratio (z) = 0.11168 -0.03678
#
# Static dielectric constant tensor:
#      x y z
#    x 2.058110 0.000000 0.000000 
#    y 0.000000 2.051540 0.000000 
#    z 0.000000 0.000000 2.333360 
# 
# From -- ./inp_files/849.got.cif
#   From: 2010.05.17/outbox.cif.g08.bks.cpg/sg64_1_cif.got.tgz:849.got - 2010.06.03 16:29:19.
