data_PCOD9481650
_publ_section_title
;
Structure prediction by ZEFSAII (Michael W. Deem and Ramdas Pophale) SiO2 
 PCOD9481650
Probable space group: C M C A
;
_chemical_formula_sum "Si O2"
_cell_formula_units_Z 80
_cell_length_a 11.183163
_cell_length_b 20.308802
_cell_length_c 19.435182
_cell_angle_alpha 90.000000
_cell_angle_beta 90.000000
_cell_angle_gamma 90.000000
_cell_volume 4414.053294
_symmetry_space_group_name_H-M "C M C A"
_symmetry_group_IT_number 64
_symmetry_cell_setting 'orthorhombic'
loop_
_space_group_symop_operation_xyz
x,y,z
-x,1/2-y,1/2+z
x,-y,-z
-x,1/2+y,1/2-z
-x,-y,-z
x,1/2+y,1/2-z
-x,y,z
x,1/2-y,1/2+z
1/2+x,1/2+y,z
1/2-x,-y,1/2+z
1/2+x,1/2-y,-z
1/2-x,y,1/2-z
1/2-x,1/2-y,-z
1/2+x,y,1/2-z
1/2-x,1/2+y,z
1/2+x,-y,1/2+z
loop_
_atom_site_type_symbol
_atom_site_label
_atom_site_fract_x
_atom_site_fract_y
_atom_site_fract_z
Si Si1 0.752110 0.831445 0.444349
Si Si2 0.000000 0.473715 0.889762
Si Si3 0.143547 0.298739 0.590534
Si Si4 0.640404 0.968347 0.427375
Si Si5 0.500000 0.896691 0.031385
Si Si6 0.248780 0.574746 0.331789
O O1 0.781145 0.768389 0.397541
O O2 0.668841 0.813827 0.509594
O O3 0.699354 0.898043 0.412792
O O4 0.883007 0.852279 0.470399
O O5 0.000000 0.552372 0.904193
O O6 0.881381 0.447521 0.853612
O O7 0.000000 0.440361 0.963987
O O8 0.201493 0.357682 0.634272
O O9 0.000000 0.293342 0.602198
O O10 0.500000 0.958677 0.437044
O O11 0.688154 0.000000 0.500000
O O12 0.665814 0.018784 0.366232
O O13 0.250000 0.578561 0.250000
#
# Coordination Sequence:
#
# PCOD9481650 Si02
#       6
#    16   8  16  16   8  16
#     4  11  21  37  62  95 119 157 206 256 314 363
#     4  11  22  38  63  90 123 161 203 271 306 364
#     4  11  23  39  60  89 128 165 204 255 309 371
#     4  11  21  40  66  94 126 160 208 265 311 366
#     4  11  18  38  63  92 122 146 210 272 312 352
#     4  12  26  41  62  91 128 169 210 251 314 380
#
# _framework density 18.123932
#
# number of rings (size 3 to 8) (size 9 to 14) (size 15 to 20)
#    0.000    0.800    7.000    1.200    2.800    0.000 
#    1.800    1.000    0.000    2.400    0.000    0.000 
#    0.000    0.000    0.000    0.000    0.000    0.000 
#
# Total GULP energy -223208.242918 kJ/mol
# GULP energy per Si atom -5580.206073 kJ/mol
# Density = 1.808268 g / cm^3
# Si number density = 18.123932 Si / 1000 Ang^3
#
#
#
# Elastic Constant Matrix: (Units=GPa)
#
#
# Indices 1 2 3 4 5 6 
#
# 1 85.0065 19.9176 13.5489 0.0000 0.0000 0.0000
# 2 19.9176 138.7890 35.4872 0.0000 0.0000 0.0000
# 3 13.5489 35.4872 71.0449 0.0000 0.0000 0.0000
# 4 0.0000 0.0000 0.0000 14.3629 0.0000 0.0000
# 5 0.0000 0.0000 0.0000 0.0000 -55.8821 0.0000
# 6 0.0000 0.0000 0.0000 0.0000 0.0000 34.9703
#
#
#
# Elastic Compliance Matrix: (Units=1/GPa)
#
#
# Indices 1 2 3 4 5 6 
#
# 1 0.012347 -0.001341 -0.001685 0.000000 0.000000 0.000000
# 2 -0.001341 0.008406 -0.003943 0.000000 0.000000 0.000000
# 3 -0.001685 -0.003943 0.016366 0.000000 0.000000 0.000000
# 4 0.000000 0.000000 0.000000 0.069624 0.000000 0.000000
# 5 0.000000 0.000000 0.000000 0.000000 -0.017895 0.000000
# 6 0.000000 0.000000 0.000000 0.000000 0.000000 0.028596
#
#
# Mechanical properties :
#
#
# Convention : Reuss Voigt Hill
#
# Bulk Modulus (GPa) = 43.13834 48.08307 45.61071
# Shear Modulus (GPa) = 35.94323 13.74933 24.84628
#
# Velocity S-wave (km/s) = 4.45814 2.75731 3.70660
# Velocity P-wave (km/s) = 7.09602 6.06009 6.59842
#
# Compressibility (1/GPa) = 0.02318123
#
# Stress axis : x y z
#
# Youngs Moduli (GPa) = 80.99424 118.96510 61.10070
#
# Poissons Ratio (x) = 0.15954 0.10294
# Poissons Ratio (y) = 0.10862 0.24092
# Poissons Ratio (z) = 0.13645 0.46908
#
# Static dielectric constant tensor:
#      x y z
#    x 1.633850 0.000000 0.000000 
#    y 0.000000 1.674160 0.000000 
#    z 0.000000 0.000000 1.597700 
# 
# From -- ./inp_files/30860.got.cif
#   From: 2010.05.17/outbox.cif.g08.bks.cpg/sg64_16_cif.got.tgz:30860.got - 2010.06.03 16:29:19.
