data_PCOD9481415
_publ_section_title
;
Structure prediction by ZEFSAII (Michael W. Deem and Ramdas Pophale) SiO2 
 PCOD9481415
Probable space group: C M C A
;
_chemical_formula_sum "Si O2"
_cell_formula_units_Z 56
_cell_length_a 9.595266
_cell_length_b 9.167229
_cell_length_c 27.348625
_cell_angle_alpha 90.000000
_cell_angle_beta 90.000000
_cell_angle_gamma 90.000000
_cell_volume 2405.639772
_symmetry_space_group_name_H-M "C M C A"
_symmetry_group_IT_number 64
_symmetry_cell_setting 'orthorhombic'
loop_
_space_group_symop_operation_xyz
x,y,z
-x,1/2-y,1/2+z
x,-y,-z
-x,1/2+y,1/2-z
-x,-y,-z
x,1/2+y,1/2-z
-x,y,z
x,1/2-y,1/2+z
1/2+x,1/2+y,z
1/2-x,-y,1/2+z
1/2+x,1/2-y,-z
1/2-x,y,1/2-z
1/2-x,1/2-y,-z
1/2+x,y,1/2-z
1/2-x,1/2+y,z
1/2+x,-y,1/2+z
loop_
_atom_site_type_symbol
_atom_site_label
_atom_site_fract_x
_atom_site_fract_y
_atom_site_fract_z
Si Si1 0.715219 0.600038 0.455077
Si Si2 0.657011 0.925724 0.143687
Si Si3 0.659599 0.783612 0.798364
Si Si4 0.000000 0.689022 0.503368
O O1 0.661467 0.500000 0.500000
O O2 0.688916 0.510653 0.406186
O O3 0.876695 0.630707 0.465838
O O4 0.622887 0.744895 0.460267
O O5 0.500000 0.864530 0.140529
O O6 0.660251 0.047664 0.186027
O O7 0.768035 0.804794 0.157885
O O8 0.500000 0.736818 0.791121
O O9 0.750000 0.761667 0.750000
#
# Coordination Sequence:
#
# PCOD9481415 Si02
#       4
#    16  16  16   8
#     4  11  24  40  64  95 136 180 224 270 325 389
#     4  11  26  43  70 102 136 176 226 275 334 404
#     4  11  26  47  70  98 131 169 220 281 341 401
#     4  10  24  40  62  90 138 178 224 268 322 380
#
# _framework density 23.278632000000002
#
# number of rings (size 3 to 8) (size 9 to 14) (size 15 to 20)
#    0.000    1.143    1.429    2.571   10.000    4.571 
#    0.000    0.000    0.000    0.000    0.000    0.000 
#    0.000    0.000    0.000    0.000    0.000    0.000 
#
# Total GULP energy -155875.051906 kJ/mol
# GULP energy per Si atom -5566.966139 kJ/mol
# Density = 2.322565 g / cm^3
# Si number density = 23.278632 Si / 1000 Ang^3
#
#
#
# Elastic Constant Matrix: (Units=GPa)
#
#
# Indices 1 2 3 4 5 6 
#
# 1 224.3801 22.6041 29.3900 0.0000 0.0000 0.0000
# 2 22.6041 43.4795 5.0002 0.0000 0.0000 0.0000
# 3 29.3900 5.0002 96.0753 0.0000 0.0000 0.0000
# 4 0.0000 0.0000 0.0000 34.1613 0.0000 0.0000
# 5 0.0000 0.0000 0.0000 0.0000 33.4029 0.0000
# 6 0.0000 0.0000 0.0000 0.0000 0.0000 -1.5451
#
#
#
# Elastic Compliance Matrix: (Units=1/GPa)
#
#
# Indices 1 2 3 4 5 6 
#
# 1 0.004875 -0.002377 -0.001368 0.000000 0.000000 0.000000
# 2 -0.002377 0.024297 -0.000537 0.000000 0.000000 0.000000
# 3 -0.001368 -0.000537 0.010855 0.000000 0.000000 0.000000
# 4 0.000000 0.000000 0.000000 0.029273 0.000000 0.000000
# 5 0.000000 0.000000 0.000000 0.000000 0.029938 0.000000
# 6 0.000000 0.000000 0.000000 0.000000 0.000000 -0.647194
#
#
# Mechanical properties :
#
#
# Convention : Reuss Voigt Hill
#
# Bulk Modulus (GPa) = 31.78366 53.10258 42.44312
# Shear Modulus (GPa) = -9.45350 33.66652 12.10651
#
# Velocity S-wave (km/s) = -2.01738 3.80707 2.28298
# Velocity P-wave (km/s) = 2.87346 6.49510 5.02211
#
# Compressibility (1/GPa) = 0.03146271
#
# Stress axis : x y z
#
# Youngs Moduli (GPa) = 205.11331 41.15726 92.12476
#
# Poissons Ratio (x) = 0.09784 0.12600
# Poissons Ratio (y) = 0.48762 0.04950
# Poissons Ratio (z) = 0.28053 0.02211
#
# Static dielectric constant tensor:
#      x y z
#    x 1.841780 0.000000 0.000000 
#    y 0.000000 2.014760 0.000000 
#    z 0.000000 0.000000 1.865320 
# 
# From -- ./inp_files/47425.got.cif
#   From: 2010.05.17/outbox.cif.g08.bks.cpg/sg64_24_cif.got.tgz:47425.got - 2010.06.03 16:29:19.
