data_PCOD9481702
_publ_section_title
;
Structure prediction by ZEFSAII (Michael W. Deem and Ramdas Pophale) SiO2 
 PCOD9481702
Probable space group: C M C A
;
_chemical_formula_sum "Si O2"
_cell_formula_units_Z 96
_cell_length_a 17.476915
_cell_length_b 23.866160
_cell_length_c 11.474037
_cell_angle_alpha 90.000000
_cell_angle_beta 90.000000
_cell_angle_gamma 90.000000
_cell_volume 4785.899426
_symmetry_space_group_name_H-M "C M C A"
_symmetry_group_IT_number 64
_symmetry_cell_setting 'orthorhombic'
loop_
_space_group_symop_operation_xyz
x,y,z
-x,1/2-y,1/2+z
x,-y,-z
-x,1/2+y,1/2-z
-x,-y,-z
x,1/2+y,1/2-z
-x,y,z
x,1/2-y,1/2+z
1/2+x,1/2+y,z
1/2-x,-y,1/2+z
1/2+x,1/2-y,-z
1/2-x,y,1/2-z
1/2-x,1/2-y,-z
1/2+x,y,1/2-z
1/2-x,1/2+y,z
1/2+x,-y,1/2+z
loop_
_atom_site_type_symbol
_atom_site_label
_atom_site_fract_x
_atom_site_fract_y
_atom_site_fract_z
Si Si1 0.085321 0.928111 0.303755
Si Si2 0.334360 0.047561 0.191819
Si Si3 0.730058 0.710156 0.111855
Si Si4 0.289633 0.897348 0.027243
Si Si5 0.880748 0.563820 0.548188
Si Si6 0.414178 0.356257 0.838308
O O1 0.148793 0.890468 0.370038
O O2 0.081372 0.916613 0.167062
O O3 0.000000 0.924423 0.355810
O O4 0.116507 0.991854 0.295264
O O5 0.250000 0.041654 0.250000
O O6 0.325795 0.056925 0.056188
O O7 0.374338 0.102820 0.244317
O O8 0.750000 0.724106 0.250000
O O9 0.769963 0.653438 0.061727
O O10 0.640506 0.695029 0.126204
O O11 0.750000 0.750000 0.000000
O O12 0.208904 0.922159 0.068091
O O13 0.888732 0.500000 0.500000
O O14 0.913457 0.602994 0.448595
O O15 0.500000 0.340296 0.804722
#
# Coordination Sequence:
#
# PCOD9481702 Si02
#       6
#    16  16  16  16  16  16
#     4  12  25  34  53  96 139 178 223 270 324 388
#     4  12  19  38  63  89 128 176 224 255 314 408
#     4  11  24  48  74  98 123 170 231 280 343 419
#     4  11  22  40  62  89 126 171 220 271 333 400
#     4  11  20  36  59  85 129 180 224 260 317 400
#     4  11  22  38  66  97 127 165 213 275 331 389
#
# _framework density 20.058926
#
# number of rings (size 3 to 8) (size 9 to 14) (size 15 to 20)
#    0.000    0.667    6.667    4.000    0.000    5.333 
#    0.000    1.667    0.000    0.000    0.000    0.000 
#    0.000    0.000    0.000    0.000    0.000    0.000 
#
# Total GULP energy -267371.824582 kJ/mol
# GULP energy per Si atom -5570.246345 kJ/mol
# Density = 2.001327 g / cm^3
# Si number density = 20.058926 Si / 1000 Ang^3
#
#
#
# Elastic Constant Matrix: (Units=GPa)
#
#
# Indices 1 2 3 4 5 6 
#
# 1 145.4688 16.4178 37.9826 0.0000 0.0000 0.0000
# 2 16.4178 43.9590 22.3754 0.0000 0.0000 0.0000
# 3 37.9826 22.3754 104.9817 0.0000 0.0000 0.0000
# 4 0.0000 0.0000 0.0000 29.3418 0.0000 0.0000
# 5 0.0000 0.0000 0.0000 0.0000 575.0420 0.0000
# 6 0.0000 0.0000 0.0000 0.0000 0.0000 14.5186
#
#
#
# Elastic Compliance Matrix: (Units=1/GPa)
#
#
# Indices 1 2 3 4 5 6 
#
# 1 0.007695 -0.001634 -0.002436 0.000000 0.000000 0.000000
# 2 -0.001634 0.025864 -0.004921 0.000000 0.000000 0.000000
# 3 -0.002436 -0.004921 0.011456 0.000000 0.000000 0.000000
# 4 0.000000 0.000000 0.000000 0.034081 0.000000 0.000000
# 5 0.000000 0.000000 0.000000 0.000000 0.001739 0.000000
# 6 0.000000 0.000000 0.000000 0.000000 0.000000 0.068877
#
#
# Mechanical properties :
#
#
# Convention : Reuss Voigt Hill
#
# Bulk Modulus (GPa) = 36.99319 49.77347 43.38333
# Shear Modulus (GPa) = 28.29586 138.28938 83.29262
#
# Velocity S-wave (km/s) = 3.75992 8.31211 6.45090
# Velocity P-wave (km/s) = 6.10996 10.81615 8.78410
#
# Compressibility (1/GPa) = 0.02703200
#
# Stress axis : x y z
#
# Youngs Moduli (GPa) = 129.95925 38.66414 87.29342
#
# Poissons Ratio (x) = 0.06318 0.21262
# Poissons Ratio (y) = 0.21236 0.42960
# Poissons Ratio (z) = 0.31654 0.19028
#
# Static dielectric constant tensor:
#      x y z
#    x 1.060420 0.000000 0.000000 
#    y 0.000000 1.744220 0.000000 
#    z 0.000000 0.000000 1.522030 
# 
# From -- ./inp_files/16183.got.cif
#   From: 2010.05.17/outbox.cif.g08.bks.cpg/sg64_9_cif.got.tgz:16183.got - 2010.06.03 16:29:19.
