data_PCOD9481985
_publ_section_title
;
Structure prediction by ZEFSAII (Michael W. Deem and Ramdas Pophale) SiO2 
 PCOD9481985
Probable space group: C M C A
;
_chemical_formula_sum "Si O2"
_cell_formula_units_Z 72
_cell_length_a 17.791457
_cell_length_b 18.992757
_cell_length_c 11.639109
_cell_angle_alpha 90.000000
_cell_angle_beta 90.000000
_cell_angle_gamma 90.000000
_cell_volume 3932.957582
_symmetry_space_group_name_H-M "C M C A"
_symmetry_group_IT_number 64
_symmetry_cell_setting 'orthorhombic'
loop_
_space_group_symop_operation_xyz
x,y,z
-x,1/2-y,1/2+z
x,-y,-z
-x,1/2+y,1/2-z
-x,-y,-z
x,1/2+y,1/2-z
-x,y,z
x,1/2-y,1/2+z
1/2+x,1/2+y,z
1/2-x,-y,1/2+z
1/2+x,1/2-y,-z
1/2-x,y,1/2-z
1/2-x,1/2-y,-z
1/2+x,y,1/2-z
1/2-x,1/2+y,z
1/2+x,-y,1/2+z
loop_
_atom_site_type_symbol
_atom_site_label
_atom_site_fract_x
_atom_site_fract_y
_atom_site_fract_z
Si Si1 0.000000 0.984675 0.195175
Si Si2 0.500000 0.384778 0.981332
Si Si3 0.159380 0.181999 0.069685
Si Si4 0.283536 0.167979 0.874877
Si Si5 0.250000 0.589896 0.250000
Si Si6 0.861946 0.516806 0.871040
O O1 0.072574 0.985942 0.276777
O O2 0.000000 0.051768 0.110978
O O3 0.000000 0.918310 0.108743
O O4 0.575629 0.341326 0.959880
O O5 0.165756 0.265304 0.091307
O O6 0.193206 0.138773 0.177575
O O7 0.215304 0.164319 0.964923
O O8 0.250000 0.181930 0.750000
O O9 0.326878 0.094569 0.872532
O O10 0.201950 0.539337 0.166250
O O11 0.888754 0.500000 0.000000
#
# Coordination Sequence:
#
# PCOD9481985 Si02
#       6
#     8   8  16  16   8  16
#     4  11  25  41  63  97 130 166 220 273 331 387
#     4  11  24  43  67  91 130 173 211 273 328 400
#     4  11  24  43  65  96 129 175 214 269 329 389
#     4  11  23  40  68  95 129 167 221 269 319 394
#     4  12  22  40  70  96 126 170 220 260 326 396
#     4  12  24  40  67  98 130 172 216 274 327 388
#
# _framework density 18.306833999999998
#
# number of rings (size 3 to 8) (size 9 to 14) (size 15 to 20)
#    0.000    0.667    6.667    1.667    0.000    0.889 
#    0.000    1.111    0.000    0.000    0.000    0.000 
#    0.000    0.000    0.000    0.000    0.000    0.000 
#
# Total GULP energy -201267.370355 kJ/mol
# GULP energy per Si atom -5590.760288 kJ/mol
# Density = 1.826517 g / cm^3
# Si number density = 18.306834 Si / 1000 Ang^3
#
#
#
# Elastic Constant Matrix: (Units=GPa)
#
#
# Indices 1 2 3 4 5 6 
#
# 1 116.9467 64.7057 39.3464 0.0000 0.0000 0.0000
# 2 64.7057 90.5680 23.3336 0.0000 0.0000 0.0000
# 3 39.3464 23.3336 113.7243 0.0000 0.0000 0.0000
# 4 0.0000 0.0000 0.0000 33.6573 0.0000 0.0000
# 5 0.0000 0.0000 0.0000 0.0000 23.3660 0.0000
# 6 0.0000 0.0000 0.0000 0.0000 0.0000 26.4676
#
#
#
# Elastic Compliance Matrix: (Units=1/GPa)
#
#
# Indices 1 2 3 4 5 6 
#
# 1 0.015164 -0.010012 -0.003192 0.000000 0.000000 0.000000
# 2 -0.010012 0.018267 -0.000284 0.000000 0.000000 0.000000
# 3 -0.003192 -0.000284 0.009956 0.000000 0.000000 0.000000
# 4 0.000000 0.000000 0.000000 0.029711 0.000000 0.000000
# 5 0.000000 0.000000 0.000000 0.000000 0.042797 0.000000
# 6 0.000000 0.000000 0.000000 0.000000 0.000000 0.037782
#
#
# Mechanical properties :
#
#
# Convention : Reuss Voigt Hill
#
# Bulk Modulus (GPa) = 60.93374 64.00115 62.46744
# Shear Modulus (GPa) = 26.86366 29.62173 28.24269
#
# Velocity S-wave (km/s) = 3.83484 4.02689 3.93203
# Velocity P-wave (km/s) = 7.27770 7.52710 7.40345
#
# Compressibility (1/GPa) = 0.01641127
#
# Stress axis : x y z
#
# Youngs Moduli (GPa) = 65.94438 54.74251 100.44173
#
# Poissons Ratio (x) = 0.54806 0.32065
# Poissons Ratio (y) = 0.66021 0.02855
# Poissons Ratio (z) = 0.21052 0.01556
#
# Static dielectric constant tensor:
#      x y z
#    x 1.586930 0.000000 0.000000 
#    y 0.000000 1.623350 0.000000 
#    z 0.000000 0.000000 1.623030 
# 
# From -- ./inp_files/15804.got.cif
#   From: 2010.05.17/outbox.cif.g08.bks.cpg/sg64_8_cif.got.tgz:15804.got - 2010.06.03 16:29:19.
