data_PCOD9481965
_publ_section_title
;
Structure prediction by ZEFSAII (Michael W. Deem and Ramdas Pophale) SiO2 
 PCOD9481965
Probable space group: C M C A
;
_chemical_formula_sum "Si O2"
_cell_formula_units_Z 104
_cell_length_a 21.744496
_cell_length_b 9.403780
_cell_length_c 24.826207
_cell_angle_alpha 90.000000
_cell_angle_beta 90.000000
_cell_angle_gamma 90.000000
_cell_volume 5076.474143
_symmetry_space_group_name_H-M "C M C A"
_symmetry_group_IT_number 64
_symmetry_cell_setting 'orthorhombic'
loop_
_space_group_symop_operation_xyz
x,y,z
-x,1/2-y,1/2+z
x,-y,-z
-x,1/2+y,1/2-z
-x,-y,-z
x,1/2+y,1/2-z
-x,y,z
x,1/2-y,1/2+z
1/2+x,1/2+y,z
1/2-x,-y,1/2+z
1/2+x,1/2-y,-z
1/2-x,y,1/2-z
1/2-x,1/2-y,-z
1/2+x,y,1/2-z
1/2-x,1/2+y,z
1/2+x,-y,1/2+z
loop_
_atom_site_type_symbol
_atom_site_label
_atom_site_fract_x
_atom_site_fract_y
_atom_site_fract_z
Si Si1 0.000000 0.444237 0.262080
Si Si2 0.794014 0.328188 0.858235
Si Si3 0.622444 0.679374 0.094635
Si Si4 0.171389 0.500000 0.500000
Si Si5 0.625731 0.708336 0.782741
Si Si6 0.226755 0.398442 0.076735
Si Si7 0.814603 0.578467 0.297994
Si Si8 0.500000 0.264914 0.834726
O O1 0.060723 0.366801 0.283073
O O2 0.000000 0.605196 0.288630
O O3 0.000000 0.386367 0.198783
O O4 0.861516 0.293731 0.837519
O O5 0.788278 0.441406 0.905595
O O6 0.760903 0.184253 0.875360
O O7 0.756838 0.384834 0.806145
O O8 0.662403 0.814566 0.073773
O O9 0.660934 0.597539 0.140808
O O10 0.559095 0.718453 0.125290
O O11 0.627600 0.575331 0.043472
O O12 0.221572 0.601380 0.530198
O O13 0.673502 0.579100 0.777970
O O14 0.641720 0.814080 0.734642
#
# Coordination Sequence:
#
# PCOD9481965 Si02
#       8
#     8  16  16   8  16  16  16   8
#     4  12  24  42  70  90 137 193 215 281 312 420
#     4  11  23  40  64  97 140 169 215 283 337 414
#     4  11  24  42  70  97 135 174 230 288 325 415
#     4  12  22  45  74 101 130 174 230 284 362 394
#     4  12  23  38  61  93 129 179 221 263 341 402
#     4  11  23  41  68 103 131 173 218 284 349 399
#     4  11  23  39  59  95 131 169 220 277 332 406
#     4  12  26  49  68  99 141 180 243 260 340 398
#
# _framework density 20.486661000000002
#
# number of rings (size 3 to 8) (size 9 to 14) (size 15 to 20)
#    0.000    0.615    7.692    0.923    4.308    2.769 
#    0.000    0.000    0.000    0.462    0.000    0.000 
#    0.000    0.000    0.000    0.000    0.000    0.000 
#
# Total GULP energy -289824.996135 kJ/mol
# GULP energy per Si atom -5573.557618 kJ/mol
# Density = 2.044003 g / cm^3
# Si number density = 20.486661 Si / 1000 Ang^3
#
#
#
# Elastic Constant Matrix: (Units=GPa)
#
#
# Indices 1 2 3 4 5 6 
#
# 1 91.6351 8.6724 21.2991 0.0000 0.0000 0.0000
# 2 8.6724 73.9753 23.6779 0.0000 0.0000 0.0000
# 3 21.2991 23.6779 68.8633 0.0000 0.0000 0.0000
# 4 0.0000 0.0000 0.0000 28.1321 0.0000 0.0000
# 5 0.0000 0.0000 0.0000 0.0000 34.3317 0.0000
# 6 0.0000 0.0000 0.0000 0.0000 0.0000 15.7990
#
#
#
# Elastic Compliance Matrix: (Units=1/GPa)
#
#
# Indices 1 2 3 4 5 6 
#
# 1 0.011762 -0.000241 -0.003555 0.000000 0.000000 0.000000
# 2 -0.000241 0.015195 -0.005150 0.000000 0.000000 0.000000
# 3 -0.003555 -0.005150 0.017392 0.000000 0.000000 0.000000
# 4 0.000000 0.000000 0.000000 0.035547 0.000000 0.000000
# 5 0.000000 0.000000 0.000000 0.000000 0.029128 0.000000
# 6 0.000000 0.000000 0.000000 0.000000 0.000000 0.063295
#
#
# Mechanical properties :
#
#
# Convention : Reuss Voigt Hill
#
# Bulk Modulus (GPa) = 37.79799 37.97470 37.88635
# Shear Modulus (GPa) = 25.12197 27.70749 26.41473
#
# Velocity S-wave (km/s) = 3.50560 3.68158 3.59466
# Velocity P-wave (km/s) = 5.90557 6.05381 5.98015
#
# Compressibility (1/GPa) = 0.02645643
#
# Stress axis : x y z
#
# Youngs Moduli (GPa) = 85.01974 65.81252 57.49818
#
# Poissons Ratio (x) = 0.01586 0.20441
# Poissons Ratio (y) = 0.02049 0.29611
# Poissons Ratio (z) = 0.30225 0.33893
#
# Static dielectric constant tensor:
#      x y z
#    x 1.777520 0.000000 0.000000 
#    y 0.000000 1.765460 0.000000 
#    z 0.000000 0.000000 1.794520 
# 
# From -- ./inp_files/51069.got.cif
#   From: 2010.05.17/outbox.cif.g08.bks.cpg/sg64_26_cif.got.tgz:51069.got - 2010.06.03 16:29:19.
