data_PCOD9481715
_publ_section_title
;
Structure prediction by ZEFSAII (Michael W. Deem and Ramdas Pophale) SiO2 
 PCOD9481715
Probable space group: C M C A
;
_chemical_formula_sum "Si O2"
_cell_formula_units_Z 96
_cell_length_a 14.387948
_cell_length_b 22.528379
_cell_length_c 15.006760
_cell_angle_alpha 90.000000
_cell_angle_beta 90.000000
_cell_angle_gamma 90.000000
_cell_volume 4864.248351
_symmetry_space_group_name_H-M "C M C A"
_symmetry_group_IT_number 64
_symmetry_cell_setting 'orthorhombic'
loop_
_space_group_symop_operation_xyz
x,y,z
-x,1/2-y,1/2+z
x,-y,-z
-x,1/2+y,1/2-z
-x,-y,-z
x,1/2+y,1/2-z
-x,y,z
x,1/2-y,1/2+z
1/2+x,1/2+y,z
1/2-x,-y,1/2+z
1/2+x,1/2-y,-z
1/2-x,y,1/2-z
1/2-x,1/2-y,-z
1/2+x,y,1/2-z
1/2-x,1/2+y,z
1/2+x,-y,1/2+z
loop_
_atom_site_type_symbol
_atom_site_label
_atom_site_fract_x
_atom_site_fract_y
_atom_site_fract_z
Si Si1 0.800382 0.877303 0.340283
Si Si2 0.000000 0.647171 0.912633
Si Si3 0.293170 0.489189 0.600964
Si Si4 0.000000 0.246606 0.427346
Si Si5 0.314281 0.373252 0.827110
Si Si6 0.000000 0.847378 0.722104
Si Si7 0.687149 0.192570 0.514096
Si Si8 0.000000 0.940641 0.568924
O O1 0.750000 0.857641 0.250000
O O2 0.741927 0.851975 0.422443
O O3 0.905786 0.854098 0.354779
O O4 0.795028 0.948681 0.347387
O O5 0.000000 0.585952 0.969619
O O6 0.000000 0.699209 0.988341
O O7 0.257166 0.500000 0.500000
O O8 0.232905 0.436990 0.647653
O O9 0.401282 0.470663 0.589249
O O10 0.000000 0.217095 0.327584
O O11 0.908849 0.286142 0.442732
O O12 0.250000 0.345425 0.750000
O O13 0.413314 0.368243 0.780519
O O14 0.322199 0.337606 0.918267
O O15 0.000000 0.885741 0.633907
O O16 0.750000 0.250000 0.500000
#
# Coordination Sequence:
#
# PCOD9481715 Si02
#       8
#    16   8  16   8  16   8  16   8
#     4  12  27  44  70 106 142 185 233 286 362 425
#     4  11  21  46  70  96 135 182 236 283 332 419
#     4  12  22  43  72 105 144 184 227 293 355 423
#     4  11  25  47  73  98 139 182 247 301 346 410
#     4  12  24  44  70 104 143 179 239 292 359 430
#     4  11  25  43  72 105 130 185 239 287 347 418
#     4  12  25  46  69  99 141 187 237 300 356 416
#     4  11  20  39  73 107 131 175 235 283 336 403
#
# _framework density 19.735833
#
# number of rings (size 3 to 8) (size 9 to 14) (size 15 to 20)
#    0.000    0.333    6.667    2.750    0.000    2.667 
#    3.000    1.250    0.000    0.000    0.000    0.000 
#    0.000    0.000    0.000    0.000    0.000    0.000 
#
# Total GULP energy -267954.582374 kJ/mol
# GULP energy per Si atom -5582.387133 kJ/mol
# Density = 1.969091 g / cm^3
# Si number density = 19.735833 Si / 1000 Ang^3
#
#
#
# Elastic Constant Matrix: (Units=GPa)
#
#
# Indices 1 2 3 4 5 6 
#
# 1 183.0278 40.1927 51.7091 0.0000 0.0000 0.0000
# 2 40.1927 64.6096 6.6393 0.0000 0.0000 0.0000
# 3 51.7091 6.6393 114.9408 0.0000 0.0000 0.0000
# 4 0.0000 0.0000 0.0000 26.3347 0.0000 0.0000
# 5 0.0000 0.0000 0.0000 0.0000 119.1124 0.0000
# 6 0.0000 0.0000 0.0000 0.0000 0.0000 -4.6385
#
#
#
# Elastic Compliance Matrix: (Units=1/GPa)
#
#
# Indices 1 2 3 4 5 6 
#
# 1 0.007235 -0.004191 -0.003013 0.000000 0.000000 0.000000
# 2 -0.004191 0.017998 0.000846 0.000000 0.000000 0.000000
# 3 -0.003013 0.000846 0.010007 0.000000 0.000000 0.000000
# 4 0.000000 0.000000 0.000000 0.037973 0.000000 0.000000
# 5 0.000000 0.000000 0.000000 0.000000 0.008395 0.000000
# 6 0.000000 0.000000 0.000000 0.000000 0.000000 -0.215585
#
#
# Mechanical properties :
#
#
# Convention : Reuss Voigt Hill
#
# Bulk Modulus (GPa) = 44.39809 62.18449 53.29129
# Shear Modulus (GPa) = -43.95504 45.76419 0.90457
#
# Velocity S-wave (km/s) = -4.72441 4.82065 0.67774
# Velocity P-wave (km/s) = 2.68608 7.90960 5.26055
#
# Compressibility (1/GPa) = 0.02252349
#
# Stress axis : x y z
#
# Youngs Moduli (GPa) = 138.21195 55.56162 99.93323
#
# Poissons Ratio (x) = 0.23288 0.30109
# Poissons Ratio (y) = 0.57930 -0.08454
# Poissons Ratio (z) = 0.41641 -0.04700
#
# Static dielectric constant tensor:
#      x y z
#    x 1.822010 0.000000 0.000000 
#    y 0.000000 1.743620 0.000000 
#    z 0.000000 0.000000 1.650110 
# 
# From -- ./inp_files/24026.got.cif
#   From: 2010.05.17/outbox.cif.g08.bks.cpg/sg64_13_cif.got.tgz:24026.got - 2010.06.03 16:29:19.
