data_PCOD9481098
_publ_section_title
;
Structure prediction by ZEFSAII (Michael W. Deem and Ramdas Pophale) SiO2 
 PCOD9481098
Probable space group: C M C A
;
_chemical_formula_sum "Si O2"
_cell_formula_units_Z 88
_cell_length_a 10.524343
_cell_length_b 15.719464
_cell_length_c 22.916692
_cell_angle_alpha 90.000000
_cell_angle_beta 90.000000
_cell_angle_gamma 90.000000
_cell_volume 3791.269483
_symmetry_space_group_name_H-M "C M C A"
_symmetry_group_IT_number 64
_symmetry_cell_setting 'orthorhombic'
loop_
_space_group_symop_operation_xyz
x,y,z
-x,1/2-y,1/2+z
x,-y,-z
-x,1/2+y,1/2-z
-x,-y,-z
x,1/2+y,1/2-z
-x,y,z
x,1/2-y,1/2+z
1/2+x,1/2+y,z
1/2-x,-y,1/2+z
1/2+x,1/2-y,-z
1/2-x,y,1/2-z
1/2-x,1/2-y,-z
1/2+x,y,1/2-z
1/2-x,1/2+y,z
1/2+x,-y,1/2+z
loop_
_atom_site_type_symbol
_atom_site_label
_atom_site_fract_x
_atom_site_fract_y
_atom_site_fract_z
Si Si1 0.729238 0.181134 0.635948
Si Si2 0.227925 0.359964 0.818901
Si Si3 0.000000 0.923536 0.184246
Si Si4 0.145763 0.043477 0.419146
Si Si5 0.846789 0.139307 0.528091
Si Si6 0.000000 0.686776 0.799582
Si Si7 0.500000 0.876882 0.679804
O O1 0.676427 0.267014 0.666600
O O2 0.626321 0.108022 0.649987
O O3 0.759079 0.198801 0.567907
O O4 0.869477 0.168932 0.665138
O O5 0.250000 0.372614 0.750000
O O6 0.153680 0.433329 0.851589
O O7 0.365504 0.366393 0.850497
O O8 0.000000 0.872531 0.244180
O O9 0.000000 0.024343 0.198399
O O10 0.197400 0.115496 0.463047
O O11 0.000000 0.044935 0.436243
O O12 0.182785 0.949239 0.436971
O O13 0.000000 0.159348 0.531400
O O14 0.000000 0.788214 0.782828
#
# Coordination Sequence:
#
# PCOD9481098 Si02
#       7
#    16  16   8  16  16   8   8
#     4  11  22  39  64  90 128 170 213 271 320 397
#     4  11  24  40  62  89 131 172 215 259 325 394
#     4  12  24  38  63  98 133 164 225 275 337 380
#     4   9  20  37  65  92 120 157 216 275 309 377
#     4   9  18  39  64  91 118 162 219 263 318 384
#     4  10  22  44  62  84 132 184 219 258 326 402
#     4  10  24  42  59  87 129 174 208 264 325 403
#
# _framework density 23.211223
#
# number of rings (size 3 to 8) (size 9 to 14) (size 15 to 20)
#    0.000    1.818    0.909    4.909    2.545    3.636 
#    0.000    1.818    0.000    3.273    0.000    0.000 
#    0.000    0.000    0.000    0.000    0.000    0.000 
#
# Total GULP energy -245077.297313 kJ/mol
# GULP energy per Si atom -5569.938575 kJ/mol
# Density = 2.315839 g / cm^3
# Si number density = 23.211223 Si / 1000 Ang^3
#
#
#
# Elastic Constant Matrix: (Units=GPa)
#
#
# Indices 1 2 3 4 5 6 
#
# 1 83.5238 15.4986 -5.2955 0.0000 0.0000 0.0000
# 2 15.4986 132.2192 33.9099 0.0000 0.0000 0.0000
# 3 -5.2955 33.9099 82.3622 0.0000 0.0000 0.0000
# 4 0.0000 0.0000 0.0000 24.6859 0.0000 0.0000
# 5 0.0000 0.0000 0.0000 0.0000 16.4874 0.0000
# 6 0.0000 0.0000 0.0000 0.0000 0.0000 22.8006
#
#
#
# Elastic Compliance Matrix: (Units=1/GPa)
#
#
# Indices 1 2 3 4 5 6 
#
# 1 0.012416 -0.001856 0.001563 0.000000 0.000000 0.000000
# 2 -0.001856 0.008734 -0.003715 0.000000 0.000000 0.000000
# 3 0.001563 -0.003715 0.013772 0.000000 0.000000 0.000000
# 4 0.000000 0.000000 0.000000 0.040509 0.000000 0.000000
# 5 0.000000 0.000000 0.000000 0.000000 0.060652 0.000000
# 6 0.000000 0.000000 0.000000 0.000000 0.000000 0.043858
#
#
# Mechanical properties :
#
#
# Convention : Reuss Voigt Hill
#
# Bulk Modulus (GPa) = 37.16955 42.92570 40.04762
# Shear Modulus (GPa) = 25.39020 29.72760 27.55890
#
# Velocity S-wave (km/s) = 3.31097 3.58263 3.44947
# Velocity P-wave (km/s) = 5.53760 5.97054 5.75814
#
# Compressibility (1/GPa) = 0.02690375
#
# Stress axis : x y z
#
# Youngs Moduli (GPa) = 80.54047 114.50067 72.61360
#
# Poissons Ratio (x) = 0.21253 -0.11346
# Poissons Ratio (y) = 0.14949 0.26977
# Poissons Ratio (z) = -0.12584 0.42538
#
# Static dielectric constant tensor:
#      x y z
#    x 1.898250 0.000000 0.000000 
#    y 0.000000 1.998970 0.000000 
#    z 0.000000 0.000000 2.001080 
# 
# From -- ./inp_files/44111.got.cif
#   From: 2010.05.17/outbox.cif.g08.bks.cpg/sg64_23_cif.got.tgz:44111.got - 2010.06.03 16:29:19.
