data_PCOD9481170
_publ_section_title
;
Structure prediction by ZEFSAII (Michael W. Deem and Ramdas Pophale) SiO2 
 PCOD9481170
Probable space group: C M C A
;
_chemical_formula_sum "Si O2"
_cell_formula_units_Z 40
_cell_length_a 18.225620
_cell_length_b 5.352531
_cell_length_c 15.955929
_cell_angle_alpha 90.000000
_cell_angle_beta 90.000000
_cell_angle_gamma 90.000000
_cell_volume 1556.551870
_symmetry_space_group_name_H-M "C M C A"
_symmetry_group_IT_number 64
_symmetry_cell_setting 'orthorhombic'
loop_
_space_group_symop_operation_xyz
x,y,z
-x,1/2-y,1/2+z
x,-y,-z
-x,1/2+y,1/2-z
-x,-y,-z
x,1/2+y,1/2-z
-x,y,z
x,1/2-y,1/2+z
1/2+x,1/2+y,z
1/2-x,-y,1/2+z
1/2+x,1/2-y,-z
1/2-x,y,1/2-z
1/2-x,1/2-y,-z
1/2+x,y,1/2-z
1/2-x,1/2+y,z
1/2+x,-y,1/2+z
loop_
_atom_site_type_symbol
_atom_site_label
_atom_site_fract_x
_atom_site_fract_y
_atom_site_fract_z
Si Si1 0.279937 0.310711 0.654460
Si Si2 0.500000 0.792321 0.196274
Si Si3 0.916123 0.958363 0.093047
O O1 0.250000 0.338272 0.750000
O O2 0.265620 0.580502 0.615410
O O3 0.362709 0.212936 0.646923
O O4 0.500000 0.055972 0.239862
O O5 0.430161 0.723329 0.138824
O O6 0.000000 0.855706 0.084442
O O7 0.887370 0.000000 0.000000
#
# Coordination Sequence:
#
# PCOD9481170 Si02
#       3
#    16   8  16
#     4  10  23  39  63  93 129 169 213 263 320 385
#     4  10  23  38  69  94 126 168 216 264 313 380
#     4   9  22  44  67  97 133 170 217 271 324 379
#
# _framework density 25.697825000000002
#
# number of rings (size 3 to 8) (size 9 to 14) (size 15 to 20)
#    1.200    1.200    0.000    0.000   11.200    1.600 
#    0.000    8.000    0.000    0.000    0.000    0.000 
#    0.000    0.000    0.000    0.000    0.000    0.000 
#
# Total GULP energy -111706.267979 kJ/mol
# GULP energy per Si atom -5585.313399 kJ/mol
# Density = 2.563934 g / cm^3
# Si number density = 25.697825 Si / 1000 Ang^3
#
#
#
# Elastic Constant Matrix: (Units=GPa)
#
#
# Indices 1 2 3 4 5 6 
#
# 1 132.5294 18.5081 17.8418 0.0000 0.0000 0.0000
# 2 18.5081 113.3803 15.8318 0.0000 0.0000 0.0000
# 3 17.8418 15.8318 125.2606 0.0000 0.0000 0.0000
# 4 0.0000 0.0000 0.0000 1.2746 0.0000 0.0000
# 5 0.0000 0.0000 0.0000 0.0000 37.6440 0.0000
# 6 0.0000 0.0000 0.0000 0.0000 0.0000 37.0415
#
#
#
# Elastic Compliance Matrix: (Units=1/GPa)
#
#
# Indices 1 2 3 4 5 6 
#
# 1 0.007836 -0.001143 -0.000972 0.000000 0.000000 0.000000
# 2 -0.001143 0.009145 -0.000993 0.000000 0.000000 0.000000
# 3 -0.000972 -0.000993 0.008247 0.000000 0.000000 0.000000
# 4 0.000000 0.000000 0.000000 0.784540 0.000000 0.000000
# 5 0.000000 0.000000 0.000000 0.000000 0.026565 0.000000
# 6 0.000000 0.000000 0.000000 0.000000 0.000000 0.026997
#
#
# Mechanical properties :
#
#
# Convention : Reuss Voigt Hill
#
# Bulk Modulus (GPa) = 52.59760 52.83708 52.71734
# Shear Modulus (GPa) = 5.70852 36.45792 21.08322
#
# Velocity S-wave (km/s) = 1.49205 3.77067 2.86742
# Velocity P-wave (km/s) = 4.84566 6.28990 5.61441
#
# Compressibility (1/GPa) = 0.01901228
#
# Stress axis : x y z
#
# Youngs Moduli (GPa) = 127.61631 109.34714 121.25244
#
# Poissons Ratio (x) = 0.12504 0.11781
# Poissons Ratio (y) = 0.14593 0.12040
# Poissons Ratio (z) = 0.12399 0.10858
#
# Static dielectric constant tensor:
#      x y z
#    x 2.131470 0.000000 0.000000 
#    y 0.000000 2.057780 0.000000 
#    z 0.000000 0.000000 2.173010 
# 
# From -- ./inp_files/1016.got.cif
#   From: 2010.05.17/outbox.cif.g08.bks.cpg/sg64_1_cif.got.tgz:1016.got - 2010.06.03 16:29:19.
