data_PCOD9481364
_publ_section_title
;
Structure prediction by ZEFSAII (Michael W. Deem and Ramdas Pophale) SiO2 
 PCOD9481364
Probable space group: C M C A
;
_chemical_formula_sum "Si O2"
_cell_formula_units_Z 96
_cell_length_a 17.482021
_cell_length_b 7.667528
_cell_length_c 29.812329
_cell_angle_alpha 90.000000
_cell_angle_beta 90.000000
_cell_angle_gamma 90.000000
_cell_volume 3996.160415
_symmetry_space_group_name_H-M "C M C A"
_symmetry_group_IT_number 64
_symmetry_cell_setting 'orthorhombic'
loop_
_space_group_symop_operation_xyz
x,y,z
-x,1/2-y,1/2+z
x,-y,-z
-x,1/2+y,1/2-z
-x,-y,-z
x,1/2+y,1/2-z
-x,y,z
x,1/2-y,1/2+z
1/2+x,1/2+y,z
1/2-x,-y,1/2+z
1/2+x,1/2-y,-z
1/2-x,y,1/2-z
1/2-x,1/2-y,-z
1/2+x,y,1/2-z
1/2-x,1/2+y,z
1/2+x,-y,1/2+z
loop_
_atom_site_type_symbol
_atom_site_label
_atom_site_fract_x
_atom_site_fract_y
_atom_site_fract_z
Si Si1 0.413844 0.672945 0.409290
Si Si2 0.300472 0.135566 0.883237
Si Si3 0.089197 0.321373 0.278063
Si Si4 0.188839 0.840893 0.030852
Si Si5 0.810823 0.005744 0.710328
Si Si6 0.586764 0.448515 0.860585
O O1 0.500000 0.610717 0.406901
O O2 0.358197 0.523008 0.392357
O O3 0.382768 0.720232 0.458281
O O4 0.411096 0.861801 0.384748
O O5 0.236890 0.134314 0.922373
O O6 0.349706 0.313931 0.878685
O O7 0.271603 0.088265 0.833292
O O8 0.124552 0.365528 0.229906
O O9 0.142203 0.170286 0.298202
O O10 0.094908 0.494430 0.308690
O O11 0.000000 0.269897 0.276800
O O12 0.250000 0.750000 0.000000
O O13 0.162615 0.000000 0.000000
O O14 0.750000 0.978804 0.750000
O O15 0.500000 0.378356 0.867153
#
# Coordination Sequence:
#
# PCOD9481364 Si02
#       6
#    16  16  16  16  16  16
#     4  11  25  47  78 112 148 192 248 311 376 446
#     4  12  26  47  79 106 153 199 248 311 382 449
#     4  11  24  44  69 100 149 200 247 297 363 442
#     4  12  26  50  77 109 147 197 251 308 380 458
#     4  12  27  44  68 106 149 193 248 306 365 438
#     4  10  23  44  73 112 147 192 250 304 367 445
#
# _framework density 24.023060000000001
#
# number of rings (size 3 to 8) (size 9 to 14) (size 15 to 20)
#    0.000    0.667    3.333    3.500    2.333    5.000 
#    0.000    3.333    0.000    0.000    0.000    0.000 
#    0.000    0.000    0.000    0.000    0.000    0.000 
#
# Total GULP energy -268662.348720 kJ/mol
# GULP energy per Si atom -5597.132265 kJ/mol
# Density = 2.396838 g / cm^3
# Si number density = 24.023060 Si / 1000 Ang^3
#
#
#
# Elastic Constant Matrix: (Units=GPa)
#
#
# Indices 1 2 3 4 5 6 
#
# 1 138.0910 33.1802 42.8947 0.0000 0.0000 0.0000
# 2 33.1802 92.4251 10.1730 0.0000 0.0000 0.0000
# 3 42.8947 10.1730 107.1160 0.0000 0.0000 0.0000
# 4 0.0000 0.0000 0.0000 41.5683 0.0000 0.0000
# 5 0.0000 0.0000 0.0000 0.0000 5.5443 0.0000
# 6 0.0000 0.0000 0.0000 0.0000 0.0000 -15.1261
#
#
#
# Elastic Compliance Matrix: (Units=1/GPa)
#
#
# Indices 1 2 3 4 5 6 
#
# 1 0.008957 -0.002850 -0.003316 0.000000 0.000000 0.000000
# 2 -0.002850 0.011841 0.000017 0.000000 0.000000 0.000000
# 3 -0.003316 0.000017 0.010662 0.000000 0.000000 0.000000
# 4 0.000000 0.000000 0.000000 0.024057 0.000000 0.000000
# 5 0.000000 0.000000 0.000000 0.000000 0.180364 0.000000
# 6 0.000000 0.000000 0.000000 0.000000 0.000000 -0.066111
#
#
# Mechanical properties :
#
#
# Convention : Reuss Voigt Hill
#
# Bulk Modulus (GPa) = 52.19052 56.68088 54.43570
# Shear Modulus (GPa) = 26.53145 23.15625 24.84385
#
# Velocity S-wave (km/s) = 3.32688 3.10807 3.21933
# Velocity P-wave (km/s) = 6.04399 6.04365 6.04382
#
# Compressibility (1/GPa) = 0.01916057
#
# Stress axis : x y z
#
# Youngs Moduli (GPa) = 111.65072 84.45239 93.79159
#
# Poissons Ratio (x) = 0.24072 0.31101
# Poissons Ratio (y) = 0.31825 -0.00158
# Poissons Ratio (z) = 0.37023 -0.00143
#
# Static dielectric constant tensor:
#      x y z
#    x 1.893820 0.000000 0.000000 
#    y 0.000000 2.005060 0.000000 
#    z 0.000000 0.000000 2.036820 
# 
# From -- ./inp_files/50669.got.cif
#   From: 2010.05.17/outbox.cif.g08.bks.cpg/sg64_26_cif.got.tgz:50669.got - 2010.06.03 16:29:19.
