data_PCOD9481317
_publ_section_title
;
Structure prediction by ZEFSAII (Michael W. Deem and Ramdas Pophale) SiO2 
 PCOD9481317
Probable space group: C M C A
;
_chemical_formula_sum "Si O2"
_cell_formula_units_Z 112
_cell_length_a 14.650055
_cell_length_b 29.060205
_cell_length_c 12.474819
_cell_angle_alpha 90.000000
_cell_angle_beta 90.000000
_cell_angle_gamma 90.000000
_cell_volume 5310.949622
_symmetry_space_group_name_H-M "C M C A"
_symmetry_group_IT_number 64
_symmetry_cell_setting 'orthorhombic'
loop_
_space_group_symop_operation_xyz
x,y,z
-x,1/2-y,1/2+z
x,-y,-z
-x,1/2+y,1/2-z
-x,-y,-z
x,1/2+y,1/2-z
-x,y,z
x,1/2-y,1/2+z
1/2+x,1/2+y,z
1/2-x,-y,1/2+z
1/2+x,1/2-y,-z
1/2-x,y,1/2-z
1/2-x,1/2-y,-z
1/2+x,y,1/2-z
1/2-x,1/2+y,z
1/2+x,-y,1/2+z
loop_
_atom_site_type_symbol
_atom_site_label
_atom_site_fract_x
_atom_site_fract_y
_atom_site_fract_z
Si Si1 0.100703 0.822886 0.197835
Si Si2 0.235082 0.099732 0.134789
Si Si3 0.641355 0.424938 0.260041
Si Si4 0.107601 0.723736 0.930268
Si Si5 0.711016 0.687723 0.009642
Si Si6 0.104799 0.053948 0.494889
Si Si7 0.104399 0.485080 0.620962
O O1 0.104081 0.877915 0.211100
O O2 0.112993 0.800421 0.314261
O O3 0.176337 0.808778 0.112468
O O4 0.000000 0.809472 0.157352
O O5 0.250000 0.122517 0.250000
O O6 0.327446 0.080675 0.082301
O O7 0.170464 0.055936 0.153449
O O8 0.194080 0.136954 0.053942
O O9 0.750000 0.422886 0.250000
O O10 0.613830 0.427644 0.384161
O O11 0.611329 0.470783 0.197860
O O12 0.180212 0.697931 0.008310
O O13 0.000000 0.723410 0.961420
O O14 0.151656 0.774649 0.926872
O O15 0.000000 0.057396 0.459089
O O16 0.129784 0.000000 0.500000
O O17 0.129095 0.500000 0.500000
O O18 0.000000 0.468970 0.620057
#
# Coordination Sequence:
#
# PCOD9481317 Si02
#       7
#    16  16  16  16  16  16  16
#     4  11  22  39  66  97 127 162 209 264 324 390
#     4  12  26  42  61  90 128 171 216 266 330 401
#     4  12  22  37  64  95 129 170 218 268 321 385
#     4  10  23  43  67  95 125 161 210 269 330 390
#     4  11  24  42  66  93 128 167 209 262 327 399
#     4  11  23  40  62  89 125 172 224 275 326 382
#     4  11  23  39  61  91 130 173 217 267 322 384
#
# _framework density 21.088505999999999
#
# number of rings (size 3 to 8) (size 9 to 14) (size 15 to 20)
#    0.000    0.857    0.000    9.000    0.000    8.000 
#    0.000    0.000    0.000    0.000    0.000    0.000 
#    0.000    0.000    0.000    0.000    0.000    0.000 
#
# Total GULP energy -313322.931784 kJ/mol
# GULP energy per Si atom -5595.052353 kJ/mol
# Density = 2.104051 g / cm^3
# Si number density = 21.088506 Si / 1000 Ang^3
#
#
#
# Elastic Constant Matrix: (Units=GPa)
#
#
# Indices 1 2 3 4 5 6 
#
# 1 114.5351 28.5164 17.8239 0.0000 0.0000 0.0000
# 2 28.5164 100.0037 17.9206 0.0000 0.0000 0.0000
# 3 17.8239 17.9206 66.6349 0.0000 0.0000 0.0000
# 4 0.0000 0.0000 0.0000 38.2880 0.0000 0.0000
# 5 0.0000 0.0000 0.0000 0.0000-1439.0909 0.0000
# 6 0.0000 0.0000 0.0000 0.0000 0.0000 44.6139
#
#
#
# Elastic Compliance Matrix: (Units=1/GPa)
#
#
# Indices 1 2 3 4 5 6 
#
# 1 0.009629 -0.002400 -0.001930 0.000000 0.000000 0.000000
# 2 -0.002400 0.011104 -0.002344 0.000000 0.000000 0.000000
# 3 -0.001930 -0.002344 0.016154 0.000000 0.000000 0.000000
# 4 0.000000 0.000000 0.000000 0.026118 0.000000 0.000000
# 5 0.000000 0.000000 0.000000 0.000000 -0.000695 0.000000
# 6 0.000000 0.000000 0.000000 0.000000 0.000000 0.022415
#
#
# Mechanical properties :
#
#
# Convention : Reuss Voigt Hill
#
# Bulk Modulus (GPa) = 42.48433 45.52172 44.00302
# Shear Modulus (GPa) = 47.20587 -256.77695 -104.78554
#
# Velocity S-wave (km/s) = 4.73637 -11.04653 -7.05665
# Velocity P-wave (km/s) = 7.07817 11.87722 6.74418
#
# Compressibility (1/GPa) = 0.02353809
#
# Stress axis : x y z
#
# Youngs Moduli (GPa) = 103.85494 90.05720 61.90440
#
# Poissons Ratio (x) = 0.21612 0.11949
# Poissons Ratio (y) = 0.24923 0.14513
# Poissons Ratio (z) = 0.20046 0.21113
#
# Static dielectric constant tensor:
#      x y z
#    x 1.771730 0.000000 0.000000 
#    y 0.000000 1.753580 0.000000 
#    z 0.000000 0.000000 1.769150 
# 
# From -- ./inp_files/14957.got.cif
#   From: 2010.05.17/outbox.cif.g08.bks.cpg/sg64_8_cif.got.tgz:14957.got - 2010.06.03 16:29:19.
