data_PCOD9481707
_publ_section_title
;
Structure prediction by ZEFSAII (Michael W. Deem and Ramdas Pophale) SiO2 
 PCOD9481707
Probable space group: C M C A
;
_chemical_formula_sum "Si O2"
_cell_formula_units_Z 96
_cell_length_a 18.232305
_cell_length_b 23.405004
_cell_length_c 13.068480
_cell_angle_alpha 90.000000
_cell_angle_beta 90.000000
_cell_angle_gamma 90.000000
_cell_volume 5576.675506
_symmetry_space_group_name_H-M "C M C A"
_symmetry_group_IT_number 64
_symmetry_cell_setting 'orthorhombic'
loop_
_space_group_symop_operation_xyz
x,y,z
-x,1/2-y,1/2+z
x,-y,-z
-x,1/2+y,1/2-z
-x,-y,-z
x,1/2+y,1/2-z
-x,y,z
x,1/2-y,1/2+z
1/2+x,1/2+y,z
1/2-x,-y,1/2+z
1/2+x,1/2-y,-z
1/2-x,y,1/2-z
1/2-x,1/2-y,-z
1/2+x,y,1/2-z
1/2-x,1/2+y,z
1/2+x,-y,1/2+z
loop_
_atom_site_type_symbol
_atom_site_label
_atom_site_fract_x
_atom_site_fract_y
_atom_site_fract_z
Si Si1 0.087685 0.928650 0.092630
Si Si2 0.086706 0.752499 0.364318
Si Si3 0.588284 0.061054 0.361193
Si Si4 0.168041 0.837236 0.228241
Si Si5 0.836671 0.153600 0.269990
Si Si6 0.673530 0.260773 0.559820
O O1 0.122617 0.885078 0.170830
O O2 0.000000 0.923577 0.092255
O O3 0.104047 0.993479 0.128121
O O4 0.111031 0.916659 0.974785
O O5 0.125681 0.810458 0.324642
O O6 0.122498 0.700184 0.301791
O O7 0.108403 0.746481 0.482272
O O8 0.000000 0.753796 0.347513
O O9 0.500000 0.068269 0.350942
O O10 0.628225 0.094212 0.269209
O O11 0.250000 0.857887 0.250000
O O12 0.176010 0.783880 0.151810
O O13 0.750000 0.152948 0.250000
O O14 0.840831 0.177877 0.386164
O O15 0.750000 0.250000 0.500000
#
# Coordination Sequence:
#
# PCOD9481707 Si02
#       6
#    16  16  16  16  16  16
#     4   9  19  36  58  80 108 142 182 234 283 326
#     4  11  22  35  53  81 110 142 184 224 274 340
#     4   9  19  36  56  82 109 139 185 236 278 327
#     4  11  21  34  57  77 108 145 178 225 275 332
#     4  11  21  33  56  79 111 147 181 231 281 334
#     4  11  20  37  53  78 113 148 181 225 284 333
#
# _framework density 17.214558
#
# number of rings (size 3 to 8) (size 9 to 14) (size 15 to 20)
#    0.000    1.667    3.333    4.000    0.000    6.000 
#    0.000    0.000    0.000    1.000    0.000    3.500 
#    0.000    0.000    0.000    0.000    0.000    0.000 
#
# Total GULP energy -267576.457494 kJ/mol
# GULP energy per Si atom -5574.509531 kJ/mol
# Density = 1.717538 g / cm^3
# Si number density = 17.214558 Si / 1000 Ang^3
#
#
#
# Elastic Constant Matrix: (Units=GPa)
#
#
# Indices 1 2 3 4 5 6 
#
# 1 73.2894 14.3759 8.6454 0.0000 0.0000 0.0000
# 2 14.3759 44.7944 10.2813 0.0000 0.0000 0.0000
# 3 8.6454 10.2813 52.2058 0.0000 0.0000 0.0000
# 4 0.0000 0.0000 0.0000 29.7201 0.0000 0.0000
# 5 0.0000 0.0000 0.0000 0.0000 25.3882 0.0000
# 6 0.0000 0.0000 0.0000 0.0000 0.0000 208.7924
#
#
#
# Elastic Compliance Matrix: (Units=1/GPa)
#
#
# Indices 1 2 3 4 5 6 
#
# 1 0.014684 -0.004351 -0.001575 0.000000 0.000000 0.000000
# 2 -0.004351 0.024670 -0.004138 0.000000 0.000000 0.000000
# 3 -0.001575 -0.004138 0.020231 0.000000 0.000000 0.000000
# 4 0.000000 0.000000 0.000000 0.033647 0.000000 0.000000
# 5 0.000000 0.000000 0.000000 0.000000 0.039388 0.000000
# 6 0.000000 0.000000 0.000000 0.000000 0.000000 0.004789
#
#
# Mechanical properties :
#
#
# Convention : Reuss Voigt Hill
#
# Bulk Modulus (GPa) = 25.34390 26.32163 25.83276
# Shear Modulus (GPa) = 29.29289 61.91261 45.60275
#
# Velocity S-wave (km/s) = 4.12956 6.00361 5.15251
# Velocity P-wave (km/s) = 6.12307 7.96124 7.10188
#
# Compressibility (1/GPa) = 0.03945723
#
# Stress axis : x y z
#
# Youngs Moduli (GPa) = 68.10243 40.53443 49.42986
#
# Poissons Ratio (x) = 0.17637 0.07784
# Poissons Ratio (y) = 0.29632 0.20454
# Poissons Ratio (z) = 0.10725 0.16773
#
# Static dielectric constant tensor:
#      x y z
#    x 1.578770 0.000000 0.000000 
#    y 0.000000 1.609410 0.000000 
#    z 0.000000 0.000000 1.604120 
# 
# From -- ./inp_files/16220.got.cif
#   From: 2010.05.17/outbox.cif.g08.bks.cpg/sg64_9_cif.got.tgz:16220.got - 2010.06.03 16:29:19.
