data_PCOD9481764
_publ_section_title
;
Structure prediction by ZEFSAII (Michael W. Deem and Ramdas Pophale) SiO2 
 PCOD9481764
Probable space group: C M C A
;
_chemical_formula_sum "Si O2"
_cell_formula_units_Z 96
_cell_length_a 25.314562
_cell_length_b 11.044173
_cell_length_c 17.801548
_cell_angle_alpha 90.000000
_cell_angle_beta 90.000000
_cell_angle_gamma 90.000000
_cell_volume 4976.928346
_symmetry_space_group_name_H-M "C M C A"
_symmetry_group_IT_number 64
_symmetry_cell_setting 'orthorhombic'
loop_
_space_group_symop_operation_xyz
x,y,z
-x,1/2-y,1/2+z
x,-y,-z
-x,1/2+y,1/2-z
-x,-y,-z
x,1/2+y,1/2-z
-x,y,z
x,1/2-y,1/2+z
1/2+x,1/2+y,z
1/2-x,-y,1/2+z
1/2+x,1/2-y,-z
1/2-x,y,1/2-z
1/2-x,1/2-y,-z
1/2+x,y,1/2-z
1/2-x,1/2+y,z
1/2+x,-y,1/2+z
loop_
_atom_site_type_symbol
_atom_site_label
_atom_site_fract_x
_atom_site_fract_y
_atom_site_fract_z
Si Si1 0.159531 0.934706 0.714279
Si Si2 0.222053 0.597068 0.062095
Si Si3 0.940959 0.554197 0.118554
Si Si4 0.439549 0.298428 0.463675
Si Si5 0.175379 0.778291 0.950671
Si Si6 0.193272 0.306845 0.210680
O O1 0.201551 0.924049 0.645665
O O2 0.102758 0.916094 0.678198
O O3 0.169871 0.824529 0.769741
O O4 0.164057 0.073323 0.741074
O O5 0.285470 0.608939 0.061020
O O6 0.204696 0.500000 0.000000
O O7 0.195179 0.718651 0.028716
O O8 0.933852 0.415791 0.090344
O O9 0.000000 0.566546 0.148061
O O10 0.935805 0.641263 0.046295
O O11 0.500000 0.250832 0.454689
O O12 0.388214 0.214424 0.451389
O O13 0.191841 0.692578 0.879999
O O14 0.250000 0.310893 0.250000
#
# Coordination Sequence:
#
# PCOD9481764 Si02
#       6
#    16  16  16  16  16  16
#     4  12  23  40  60  87 125 160 203 240 303 354
#     4  11  21  36  61  84 116 151 199 257 288 353
#     4   9  17  32  58  88 115 149 197 252 297 341
#     4   9  16  31  59  89 113 141 196 259 300 334
#     4  11  21  36  58  91 113 150 201 249 301 344
#     4  12  25  39  57  85 127 167 189 240 304 372
#
# _framework density 19.289006000000001
#
# number of rings (size 3 to 8) (size 9 to 14) (size 15 to 20)
#    0.000    1.333    6.667    1.500    0.000    0.000 
#    0.000    1.667    0.000    0.500    0.000    0.000 
#    0.000    0.000    0.000    0.000    0.000    0.000 
#
# Total GULP energy -267602.406864 kJ/mol
# GULP energy per Si atom -5575.050143 kJ/mol
# Density = 1.924510 g / cm^3
# Si number density = 19.289006 Si / 1000 Ang^3
#
#
#
# Elastic Constant Matrix: (Units=GPa)
#
#
# Indices 1 2 3 4 5 6 
#
# 1 127.0766 -7.3961 13.6703 0.0000 0.0000 0.0000
# 2 -7.3961 48.6823 16.4674 0.0000 0.0000 0.0000
# 3 13.6703 16.4674 37.2451 0.0000 0.0000 0.0000
# 4 0.0000 0.0000 0.0000 22.7631 0.0000 0.0000
# 5 0.0000 0.0000 0.0000 0.0000 6.0300 0.0000
# 6 0.0000 0.0000 0.0000 0.0000 0.0000 24.1206
#
#
#
# Elastic Compliance Matrix: (Units=1/GPa)
#
#
# Indices 1 2 3 4 5 6 
#
# 1 0.008496 0.002758 -0.004338 0.000000 0.000000 0.000000
# 2 0.002758 0.025049 -0.012087 0.000000 0.000000 0.000000
# 3 -0.004338 -0.012087 0.033786 0.000000 0.000000 0.000000
# 4 0.000000 0.000000 0.000000 0.043931 0.000000 0.000000
# 5 0.000000 0.000000 0.000000 0.000000 0.165839 0.000000
# 6 0.000000 0.000000 0.000000 0.000000 0.000000 0.041458
#
#
# Mechanical properties :
#
#
# Convention : Reuss Voigt Hill
#
# Bulk Modulus (GPa) = 25.00203 28.72078 26.86140
# Shear Modulus (GPa) = 13.91883 23.26690 18.59286
#
# Velocity S-wave (km/s) = 2.68916 3.47684 3.10806
# Velocity P-wave (km/s) = 4.75732 5.57135 5.18035
#
# Compressibility (1/GPa) = 0.03999675
#
# Stress axis : x y z
#
# Youngs Moduli (GPa) = 117.69600 39.92158 29.59838
#
# Poissons Ratio (x) = -0.11011 0.12840
# Poissons Ratio (y) = -0.32463 0.35777
# Poissons Ratio (z) = 0.51057 0.48255
#
# Static dielectric constant tensor:
#      x y z
#    x 1.696740 0.000000 0.000000 
#    y 0.000000 1.735460 0.000000 
#    z 0.000000 0.000000 1.672940 
# 
# From -- ./inp_files/41457.got.cif
#   From: 2010.05.17/outbox.cif.g08.bks.cpg/sg64_21_cif.got.tgz:41457.got - 2010.06.03 16:29:19.
