data_PCOD9481279
_publ_section_title
;
Structure prediction by ZEFSAII (Michael W. Deem and Ramdas Pophale) SiO2 
 PCOD9481279
Probable space group: C M C A
;
_chemical_formula_sum "Si O2"
_cell_formula_units_Z 88
_cell_length_a 22.122749
_cell_length_b 28.483941
_cell_length_c 5.229684
_cell_angle_alpha 90.000000
_cell_angle_beta 90.000000
_cell_angle_gamma 90.000000
_cell_volume 3295.449169
_symmetry_space_group_name_H-M "C M C A"
_symmetry_group_IT_number 64
_symmetry_cell_setting 'orthorhombic'
loop_
_space_group_symop_operation_xyz
x,y,z
-x,1/2-y,1/2+z
x,-y,-z
-x,1/2+y,1/2-z
-x,-y,-z
x,1/2+y,1/2-z
-x,y,z
x,1/2-y,1/2+z
1/2+x,1/2+y,z
1/2-x,-y,1/2+z
1/2+x,1/2-y,-z
1/2-x,y,1/2-z
1/2-x,1/2-y,-z
1/2+x,y,1/2-z
1/2-x,1/2+y,z
1/2+x,-y,1/2+z
loop_
_atom_site_type_symbol
_atom_site_label
_atom_site_fract_x
_atom_site_fract_y
_atom_site_fract_z
Si Si1 0.364055 0.282976 0.266273
Si Si2 0.304546 0.050666 0.915833
Si Si3 0.811400 0.350222 0.880488
Si Si4 0.435093 0.870375 0.730246
Si Si5 0.000000 0.781565 0.264066
Si Si6 0.935051 0.564673 0.765393
O O1 0.354990 0.248104 0.512510
O O2 0.321134 0.326698 0.341417
O O3 0.432962 0.303629 0.263653
O O4 0.250000 0.070806 0.750000
O O5 0.369777 0.040557 0.786600
O O6 0.312587 0.092847 0.115725
O O7 0.282536 0.000000 0.000000
O O8 0.750000 0.333973 0.750000
O O9 0.874748 0.339845 0.737013
O O10 0.500000 0.844758 0.717299
O O11 0.433263 0.905185 0.491471
O O12 0.436796 0.901384 0.988200
O O13 0.000000 0.751384 0.519668
O O14 0.000000 0.538043 0.764862
#
# Coordination Sequence:
#
# PCOD9481279 Si02
#       6
#    16  16  16  16   8  16
#     4  10  23  42  67  98 134 175 223 278 340 408
#     4  11  24  43  69  99 139 185 236 287 341 413
#     4  11  24  41  67  98 136 180 228 284 344 410
#     4   9  19  37  62  93 128 169 218 270 331 400
#     4   8  16  36  62  92 127 166 215 268 324 396
#     4   9  19  38  63  93 128 168 217 277 337 394
#
# _framework density 26.703493999999999
#
# number of rings (size 3 to 8) (size 9 to 14) (size 15 to 20)
#    0.000    2.182    0.000    1.636    1.273    6.909 
#    0.000    0.000    0.000   10.364    0.000    0.000 
#    0.000    0.000    0.000    0.000    0.000    0.000 
#
# Total GULP energy -246156.447422 kJ/mol
# GULP energy per Si atom -5594.464714 kJ/mol
# Density = 2.664272 g / cm^3
# Si number density = 26.703494 Si / 1000 Ang^3
#
#
#
# Elastic Constant Matrix: (Units=GPa)
#
#
# Indices 1 2 3 4 5 6 
#
# 1 206.9110 -14.6161 15.4477 0.0000 0.0000 0.0000
# 2 -14.6161 88.7722 25.3675 0.0000 0.0000 0.0000
# 3 15.4477 25.3675 139.2133 0.0000 0.0000 0.0000
# 4 0.0000 0.0000 0.0000 31.1241 0.0000 0.0000
# 5 0.0000 0.0000 0.0000 0.0000 43.9390 0.0000
# 6 0.0000 0.0000 0.0000 0.0000 0.0000 194.3498
#
#
#
# Elastic Compliance Matrix: (Units=1/GPa)
#
#
# Indices 1 2 3 4 5 6 
#
# 1 0.004961 0.001028 -0.000738 0.000000 0.000000 0.000000
# 2 0.001028 0.012096 -0.002318 0.000000 0.000000 0.000000
# 3 -0.000738 -0.002318 0.007688 0.000000 0.000000 0.000000
# 4 0.000000 0.000000 0.000000 0.032129 0.000000 0.000000
# 5 0.000000 0.000000 0.000000 0.000000 0.022759 0.000000
# 6 0.000000 0.000000 0.000000 0.000000 0.000000 0.005145
#
#
# Mechanical properties :
#
#
# Convention : Reuss Voigt Hill
#
# Bulk Modulus (GPa) = 48.33753 54.14385 51.24069
# Shear Modulus (GPa) = 52.22975 81.12909 66.67942
#
# Velocity S-wave (km/s) = 4.42737 5.51792 5.00245
# Velocity P-wave (km/s) = 6.65405 7.80490 7.25234
#
# Compressibility (1/GPa) = 0.02068786
#
# Stress axis : x y z
#
# Youngs Moduli (GPa) = 201.58612 82.66896 130.08114
#
# Poissons Ratio (x) = -0.08495 0.09596
# Poissons Ratio (y) = -0.20714 0.30156
# Poissons Ratio (z) = 0.14871 0.19165
#
# Static dielectric constant tensor:
#      x y z
#    x 2.129520 0.000000 0.000000 
#    y 0.000000 2.033300 0.000000 
#    z 0.000000 0.000000 2.168310 
# 
# From -- ./inp_files/2420.got.cif
#   From: 2010.05.17/outbox.cif.g08.bks.cpg/sg64_2_cif.got.tgz:2420.got - 2010.06.03 16:29:19.
