data_PCOD9481820
_publ_section_title
;
Structure prediction by ZEFSAII (Michael W. Deem and Ramdas Pophale) SiO2 
 PCOD9481820
Probable space group: C M C A
;
_chemical_formula_sum "Si O2"
_cell_formula_units_Z 64
_cell_length_a 10.346401
_cell_length_b 20.423648
_cell_length_c 14.524236
_cell_angle_alpha 90.000000
_cell_angle_beta 90.000000
_cell_angle_gamma 90.000000
_cell_volume 3069.134495
_symmetry_space_group_name_H-M "C M C A"
_symmetry_group_IT_number 64
_symmetry_cell_setting 'orthorhombic'
loop_
_space_group_symop_operation_xyz
x,y,z
-x,1/2-y,1/2+z
x,-y,-z
-x,1/2+y,1/2-z
-x,-y,-z
x,1/2+y,1/2-z
-x,y,z
x,1/2-y,1/2+z
1/2+x,1/2+y,z
1/2-x,-y,1/2+z
1/2+x,1/2-y,-z
1/2-x,y,1/2-z
1/2-x,1/2-y,-z
1/2+x,y,1/2-z
1/2-x,1/2+y,z
1/2+x,-y,1/2+z
loop_
_atom_site_type_symbol
_atom_site_label
_atom_site_fract_x
_atom_site_fract_y
_atom_site_fract_z
Si Si1 0.000000 0.706104 0.000752
Si Si2 0.000000 0.951008 0.204931
Si Si3 0.255050 0.641680 0.403837
Si Si4 0.000000 0.179449 0.712718
Si Si5 0.750000 0.251198 0.750000
Si Si6 0.250000 0.463867 0.750000
Si Si7 0.000000 0.639367 0.522646
O O1 0.126016 0.667548 0.036039
O O2 0.000000 0.781425 0.035284
O O3 0.000000 0.705292 0.890857
O O4 0.000000 0.898334 0.287094
O O5 0.000000 0.906254 0.112905
O O6 0.871260 0.993962 0.215122
O O7 0.222709 0.701983 0.335983
O O8 0.291158 0.582632 0.335235
O O9 0.129679 0.624968 0.464093
O O10 0.873776 0.206266 0.763375
#
# Coordination Sequence:
#
# PCOD9481820 Si02
#       7
#     8   8  16   8   8   8   8
#     4  12  25  42  70 114 137 168 226 286 359 407
#     4  12  28  45  69  99 138 187 234 285 331 398
#     4  11  24  44  73  99 138 182 226 280 337 415
#     4  12  26  40  69 101 145 174 218 287 354 403
#     4  11  21  44  68 102 137 179 218 276 356 417
#     4  11  27  50  68  96 137 195 238 264 338 407
#     4  12  25  45  73 108 137 173 229 291 347 403
#
# _framework density 20.852785999999998
#
# number of rings (size 3 to 8) (size 9 to 14) (size 15 to 20)
#    0.000    0.500    2.500    5.250    7.000    6.000 
#    0.000    1.250    0.000    0.000    0.000    0.000 
#    0.000    0.000    0.000    0.000    0.000    0.000 
#
# Total GULP energy -179057.346748 kJ/mol
# GULP energy per Si atom -5595.542086 kJ/mol
# Density = 2.080532 g / cm^3
# Si number density = 20.852786 Si / 1000 Ang^3
#
#
#
# Elastic Constant Matrix: (Units=GPa)
#
#
# Indices 1 2 3 4 5 6 
#
# 1 124.8374 45.4613 52.5957 0.0000 0.0000 0.0000
# 2 45.4613 120.3409 46.8441 0.0000 0.0000 0.0000
# 3 52.5957 46.8441 110.4861 0.0000 0.0000 0.0000
# 4 0.0000 0.0000 0.0000 41.0954 0.0000 0.0000
# 5 0.0000 0.0000 0.0000 0.0000 8.4111 0.0000
# 6 0.0000 0.0000 0.0000 0.0000 0.0000 9.3082
#
#
#
# Elastic Compliance Matrix: (Units=1/GPa)
#
#
# Indices 1 2 3 4 5 6 
#
# 1 0.010586 -0.002440 -0.004005 0.000000 0.000000 0.000000
# 2 -0.002440 0.010515 -0.003296 0.000000 0.000000 0.000000
# 3 -0.004005 -0.003296 0.012355 0.000000 0.000000 0.000000
# 4 0.000000 0.000000 0.000000 0.024334 0.000000 0.000000
# 5 0.000000 0.000000 0.000000 0.000000 0.118891 0.000000
# 6 0.000000 0.000000 0.000000 0.000000 0.000000 0.107432
#
#
# Mechanical properties :
#
#
# Convention : Reuss Voigt Hill
#
# Bulk Modulus (GPa) = 71.56655 71.71851 71.64253
# Shear Modulus (GPa) = 16.22042 25.81383 21.01712
#
# Velocity S-wave (km/s) = 2.79203 3.52221 3.17816
# Velocity P-wave (km/s) = 6.69241 7.14204 6.92087
#
# Compressibility (1/GPa) = 0.01397301
#
# Stress axis : x y z
#
# Youngs Moduli (GPa) = 94.46074 95.10444 80.93877
#
# Poissons Ratio (x) = 0.23208 0.32415
# Poissons Ratio (y) = 0.23051 0.26681
# Poissons Ratio (z) = 0.37831 0.31350
#
# Static dielectric constant tensor:
#      x y z
#    x 1.884000 0.000000 0.000000 
#    y 0.000000 1.724130 0.000000 
#    z 0.000000 0.000000 1.750190 
# 
# From -- ./inp_files/20984.got.cif
#   From: 2010.05.17/outbox.cif.g08.bks.cpg/sg64_11_cif.got.tgz:20984.got - 2010.06.03 16:29:19.
