data_PCOD9481734
_publ_section_title
;
Structure prediction by ZEFSAII (Michael W. Deem and Ramdas Pophale) SiO2 
 PCOD9481734
Probable space group: C M C A
;
_chemical_formula_sum "Si O2"
_cell_formula_units_Z 128
_cell_length_a 14.172498
_cell_length_b 23.204066
_cell_length_c 17.676213
_cell_angle_alpha 90.000000
_cell_angle_beta 90.000000
_cell_angle_gamma 90.000000
_cell_volume 5812.991965
_symmetry_space_group_name_H-M "C M C A"
_symmetry_group_IT_number 64
_symmetry_cell_setting 'orthorhombic'
loop_
_space_group_symop_operation_xyz
x,y,z
-x,1/2-y,1/2+z
x,-y,-z
-x,1/2+y,1/2-z
-x,-y,-z
x,1/2+y,1/2-z
-x,y,z
x,1/2-y,1/2+z
1/2+x,1/2+y,z
1/2-x,-y,1/2+z
1/2+x,1/2-y,-z
1/2-x,y,1/2-z
1/2-x,1/2-y,-z
1/2+x,y,1/2-z
1/2-x,1/2+y,z
1/2+x,-y,1/2+z
loop_
_atom_site_type_symbol
_atom_site_label
_atom_site_fract_x
_atom_site_fract_y
_atom_site_fract_z
Si Si1 0.884806 0.935421 0.909471
Si Si2 0.883726 0.838453 0.791389
Si Si3 0.612242 0.934360 0.421495
Si Si4 0.359566 0.383478 0.235755
Si Si5 0.384680 0.893218 0.862968
Si Si6 0.883818 0.125109 0.534393
Si Si7 0.892984 0.716807 0.847612
Si Si8 0.108568 0.476459 0.140304
O O1 0.854175 0.890163 0.846772
O O2 0.000000 0.934924 0.906008
O O3 0.853553 0.001629 0.898521
O O4 0.854322 0.918413 0.994576
O O5 0.853893 0.853538 0.706342
O O6 0.849574 0.776929 0.822185
O O7 0.000000 0.836769 0.790851
O O8 0.500000 0.940828 0.430256
O O9 0.625516 0.890837 0.352842
O O10 0.250000 0.380684 0.250000
O O11 0.398717 0.327004 0.276713
O O12 0.392676 0.440177 0.281871
O O13 0.500000 0.893188 0.860498
O O14 0.352372 0.959517 0.851902
O O15 0.358040 0.873700 0.947005
O O16 0.849709 0.179082 0.584480
O O17 0.850040 0.066948 0.577361
O O18 0.000000 0.124545 0.539303
O O19 0.000000 0.730151 0.872333
O O20 0.000000 0.485166 0.116415
#
# Coordination Sequence:
#
# PCOD9481734 Si02
#       8
#    16  16  16  16  16  16  16  16
#     4   8  15  28  51  80 104 126 154 204 259 297
#     4   9  16  27  44  73 104 126 156 205 253 282
#     4   9  16  30  53  79 102 126 164 202 247 308
#     4  11  21  32  49  70  99 131 169 205 245 286
#     4   9  15  24  45  77 103 121 151 197 247 298
#     4   8  14  25  42  67  98 128 156 189 235 291
#     4   9  18  33  49  67  97 132 166 203 244 286
#     4   9  16  28  49  74 100 127 154 195 251 302
#
# _framework density 22.019641
#
# number of rings (size 3 to 8) (size 9 to 14) (size 15 to 20)
#    0.000    3.000    0.000    3.750    0.000    3.500 
#    2.250    0.000   11.000    3.750    0.000    0.000 
#    0.000    0.000    0.000    0.000    0.000    0.000 
#
# Total GULP energy -357294.943142 kJ/mol
# GULP energy per Si atom -5582.733487 kJ/mol
# Density = 2.196952 g / cm^3
# Si number density = 22.019641 Si / 1000 Ang^3
#
#
#
# Elastic Constant Matrix: (Units=GPa)
#
#
# Indices 1 2 3 4 5 6 
#
# 1 49.0862 12.8392 1.6334 0.0000 0.0000 0.0000
# 2 12.8392 120.2946 62.1377 0.0000 0.0000 0.0000
# 3 1.6334 62.1377 121.9045 0.0000 0.0000 0.0000
# 4 0.0000 0.0000 0.0000 9.6389 0.0000 0.0000
# 5 0.0000 0.0000 0.0000 0.0000 0.4077 0.0000
# 6 0.0000 0.0000 0.0000 0.0000 0.0000 1.9936
#
#
#
# Elastic Compliance Matrix: (Units=1/GPa)
#
#
# Indices 1 2 3 4 5 6 
#
# 1 0.021080 -0.002856 0.001173 0.000000 0.000000 0.000000
# 2 -0.002856 0.011671 -0.005911 0.000000 0.000000 0.000000
# 3 0.001173 -0.005911 0.011200 0.000000 0.000000 0.000000
# 4 0.000000 0.000000 0.000000 0.103746 0.000000 0.000000
# 5 0.000000 0.000000 0.000000 0.000000 2.452853 0.000000
# 6 0.000000 0.000000 0.000000 0.000000 0.000000 0.501606
#
#
# Mechanical properties :
#
#
# Convention : Reuss Voigt Hill
#
# Bulk Modulus (GPa) = 34.76482 49.38953 42.07717
# Shear Modulus (GPa) = 1.59901 16.71971 9.15936
#
# Velocity S-wave (km/s) = 0.85308 2.75855 2.04173
# Velocity P-wave (km/s) = 4.09789 5.71179 4.97078
#
# Compressibility (1/GPa) = 0.02876471
#
# Stress axis : x y z
#
# Youngs Moduli (GPa) = 47.43767 85.68335 89.28386
#
# Poissons Ratio (x) = 0.24471 -0.10476
# Poissons Ratio (y) = 0.13548 0.52773
# Poissons Ratio (z) = -0.05566 0.50645
#
# Static dielectric constant tensor:
#      x y z
#    x 3.046030 0.000000 0.000000 
#    y 0.000000 1.780740 0.000000 
#    z 0.000000 0.000000 1.809770 
# 
# From -- ./inp_files/34716.got.cif
#   From: 2010.05.17/outbox.cif.g08.bks.cpg/sg64_18_cif.got.tgz:34716.got - 2010.06.03 16:29:19.
