data_PCOD9481012
_publ_section_title
;
Structure prediction by ZEFSAII (Michael W. Deem and Ramdas Pophale) SiO2 
 PCOD9481012
Probable space group: C M C A
;
_chemical_formula_sum "Si O2"
_cell_formula_units_Z 88
_cell_length_a 23.773317
_cell_length_b 14.590834
_cell_length_c 11.948658
_cell_angle_alpha 90.000000
_cell_angle_beta 90.000000
_cell_angle_gamma 90.000000
_cell_volume 4144.661135
_symmetry_space_group_name_H-M "C M C A"
_symmetry_group_IT_number 64
_symmetry_cell_setting 'orthorhombic'
loop_
_space_group_symop_operation_xyz
x,y,z
-x,1/2-y,1/2+z
x,-y,-z
-x,1/2+y,1/2-z
-x,-y,-z
x,1/2+y,1/2-z
-x,y,z
x,1/2-y,1/2+z
1/2+x,1/2+y,z
1/2-x,-y,1/2+z
1/2+x,1/2-y,-z
1/2-x,y,1/2-z
1/2-x,1/2-y,-z
1/2+x,y,1/2-z
1/2-x,1/2+y,z
1/2+x,-y,1/2+z
loop_
_atom_site_type_symbol
_atom_site_label
_atom_site_fract_x
_atom_site_fract_y
_atom_site_fract_z
Si Si1 0.624210 0.322865 0.400377
Si Si2 0.500000 0.793062 0.015763
Si Si3 0.172533 0.365763 0.678863
Si Si4 0.217998 0.669434 0.073862
Si Si5 0.097040 0.462571 0.271666
Si Si6 0.000000 0.953392 0.621659
Si Si7 0.000000 0.406411 0.432122
O O1 0.557916 0.324798 0.427599
O O2 0.640008 0.217578 0.379676
O O3 0.665653 0.359363 0.497113
O O4 0.632824 0.386929 0.293476
O O5 0.500000 0.844224 0.895941
O O6 0.500000 0.684415 0.005150
O O7 0.190236 0.323212 0.801014
O O8 0.228260 0.390801 0.608032
O O9 0.135334 0.456129 0.683637
O O10 0.250000 0.750000 0.000000
O O11 0.054430 0.513305 0.187044
O O12 0.056443 0.410875 0.358280
O O13 0.000000 0.000000 0.500000
O O14 0.000000 0.500000 0.500000
#
# Coordination Sequence:
#
# PCOD9481012 Si02
#       7
#    16   8  16  16  16   8   8
#     4  11  23  41  67 101 133 179 226 276 346 412
#     4  12  23  40  73  94 134 186 212 271 361 400
#     4  10  22  42  68  92 136 178 223 289 338 395
#     4   9  21  43  68  95 130 177 227 281 339 405
#     4  11  24  41  65  99 134 172 230 281 333 417
#     4  11  21  39  59 103 132 166 218 275 332 412
#     4  11  26  45  62 101 141 178 228 280 340 418
#
# _framework density 21.232135
#
# number of rings (size 3 to 8) (size 9 to 14) (size 15 to 20)
#    0.000    1.455    1.818    2.727    5.091    0.727 
#    0.000    9.091    4.000    0.000    0.000    0.000 
#    0.000    0.000    0.000    0.000    0.000    0.000 
#
# Total GULP energy -245342.847864 kJ/mol
# GULP energy per Si atom -5575.973815 kJ/mol
# Density = 2.118381 g / cm^3
# Si number density = 21.232135 Si / 1000 Ang^3
#
#
#
# Elastic Constant Matrix: (Units=GPa)
#
#
# Indices 1 2 3 4 5 6 
#
# 1 141.0406 26.2450 31.7608 0.0000 0.0000 0.0000
# 2 26.2450 89.2662 -0.3742 0.0000 0.0000 0.0000
# 3 31.7608 -0.3742 45.6862 0.0000 0.0000 0.0000
# 4 0.0000 0.0000 0.0000 30.7683 0.0000 0.0000
# 5 0.0000 0.0000 0.0000 0.0000 -13.7358 0.0000
# 6 0.0000 0.0000 0.0000 0.0000 0.0000 12.1151
#
#
#
# Elastic Compliance Matrix: (Units=1/GPa)
#
#
# Indices 1 2 3 4 5 6 
#
# 1 0.009002 -0.002673 -0.006280 0.000000 0.000000 0.000000
# 2 -0.002673 0.011997 0.001956 0.000000 0.000000 0.000000
# 3 -0.006280 0.001956 0.026270 0.000000 0.000000 0.000000
# 4 0.000000 0.000000 0.000000 0.032501 0.000000 0.000000
# 5 0.000000 0.000000 0.000000 0.000000 -0.072802 0.000000
# 6 0.000000 0.000000 0.000000 0.000000 0.000000 0.082541
#
#
# Mechanical properties :
#
#
# Convention : Reuss Voigt Hill
#
# Bulk Modulus (GPa) = 30.05187 43.47291 36.76239
# Shear Modulus (GPa) = 43.63274 20.38696 32.00985
#
# Velocity S-wave (km/s) = 4.53817 3.10206 3.88701
# Velocity P-wave (km/s) = 6.45326 5.77494 6.12350
#
# Compressibility (1/GPa) = 0.03327580
#
# Stress axis : x y z
#
# Youngs Moduli (GPa) = 111.09049 83.35762 38.06605
#
# Poissons Ratio (x) = 0.22281 0.23905
# Poissons Ratio (y) = 0.29693 -0.07447
# Poissons Ratio (z) = 0.69763 -0.16308
#
# Static dielectric constant tensor:
#      x y z
#    x 1.657930 0.000000 0.000000 
#    y 0.000000 1.752700 0.000000 
#    z 0.000000 0.000000 1.742650 
# 
# From -- ./inp_files/18272.got.cif
#   From: 2010.05.17/outbox.cif.g08.bks.cpg/sg64_10_cif.got.tgz:18272.got - 2010.06.03 16:29:19.
