data_PCOD9481847
_publ_section_title
;
Structure prediction by ZEFSAII (Michael W. Deem and Ramdas Pophale) SiO2 
 PCOD9481847
Probable space group: C M C A
;
_chemical_formula_sum "Si O2"
_cell_formula_units_Z 96
_cell_length_a 15.009243
_cell_length_b 13.662890
_cell_length_c 19.821159
_cell_angle_alpha 90.000000
_cell_angle_beta 90.000000
_cell_angle_gamma 90.000000
_cell_volume 4064.717863
_symmetry_space_group_name_H-M "C M C A"
_symmetry_group_IT_number 64
_symmetry_cell_setting 'orthorhombic'
loop_
_space_group_symop_operation_xyz
x,y,z
-x,1/2-y,1/2+z
x,-y,-z
-x,1/2+y,1/2-z
-x,-y,-z
x,1/2+y,1/2-z
-x,y,z
x,1/2-y,1/2+z
1/2+x,1/2+y,z
1/2-x,-y,1/2+z
1/2+x,1/2-y,-z
1/2-x,y,1/2-z
1/2-x,1/2-y,-z
1/2+x,y,1/2-z
1/2-x,1/2+y,z
1/2+x,-y,1/2+z
loop_
_atom_site_type_symbol
_atom_site_label
_atom_site_fract_x
_atom_site_fract_y
_atom_site_fract_z
Si Si1 0.150868 0.047763 0.397232
Si Si2 0.900499 0.822623 0.151897
Si Si3 0.601388 0.146137 0.972231
Si Si4 0.731652 0.266880 0.896562
Si Si5 0.857204 0.493499 0.745374
Si Si6 0.902197 0.784367 0.784875
O O1 0.096226 0.115358 0.449490
O O2 0.237699 0.119215 0.392900
O O3 0.114738 0.019080 0.323533
O O4 0.152591 0.943501 0.435161
O O5 0.818304 0.802871 0.103077
O O6 0.893131 0.733751 0.205373
O O7 0.000000 0.826161 0.122532
O O8 0.886965 0.913299 0.202774
O O9 0.500000 0.154462 0.947805
O O10 0.661746 0.239651 0.954899
O O11 0.677315 0.240220 0.828191
O O12 0.750000 0.492202 0.750000
O O13 0.894510 0.399839 0.706561
O O14 0.000000 0.747868 0.804483
#
# Coordination Sequence:
#
# PCOD9481847 Si02
#       6
#    16  16  16  16  16  16
#     4  11  23  42  70  96 134 177 226 280 332 396
#     4  11  24  38  61  98 135 173 218 271 338 410
#     4  11  26  45  70 102 132 178 237 287 335 393
#     4  12  23  44  67  98 136 178 219 281 342 402
#     4  12  21  39  64  94 132 174 213 268 338 405
#     4  11  22  37  60  95 132 170 213 262 333 406
#
# _framework density 23.617877
#
# number of rings (size 3 to 8) (size 9 to 14) (size 15 to 20)
#    0.000    0.667    3.333    6.000    0.000    5.333 
#    0.000    0.000    0.000    0.000    0.000    5.833 
#    0.000    0.000    0.000    0.000    0.000    0.000 
#
# Total GULP energy -268061.234410 kJ/mol
# GULP energy per Si atom -5584.609050 kJ/mol
# Density = 2.356412 g / cm^3
# Si number density = 23.617877 Si / 1000 Ang^3
#
#
#
# Elastic Constant Matrix: (Units=GPa)
#
#
# Indices 1 2 3 4 5 6 
#
# 1 168.4430 22.9676 31.9029 0.0000 0.0000 0.0000
# 2 22.9676 86.2095 7.1958 0.0000 0.0000 0.0000
# 3 31.9029 7.1958 90.9076 0.0000 0.0000 0.0000
# 4 0.0000 0.0000 0.0000 30.9781 0.0000 0.0000
# 5 0.0000 0.0000 0.0000 0.0000 23.8804 0.0000
# 6 0.0000 0.0000 0.0000 0.0000 0.0000 6.8267
#
#
#
# Elastic Compliance Matrix: (Units=1/GPa)
#
#
# Indices 1 2 3 4 5 6 
#
# 1 0.006563 -0.001567 -0.002179 0.000000 0.000000 0.000000
# 2 -0.001567 0.012051 -0.000404 0.000000 0.000000 0.000000
# 3 -0.002179 -0.000404 0.011797 0.000000 0.000000 0.000000
# 4 0.000000 0.000000 0.000000 0.032281 0.000000 0.000000
# 5 0.000000 0.000000 0.000000 0.000000 0.041875 0.000000
# 6 0.000000 0.000000 0.000000 0.000000 0.000000 0.146484
#
#
# Mechanical properties :
#
#
# Convention : Reuss Voigt Hill
#
# Bulk Modulus (GPa) = 45.22656 52.18807 48.70732
# Shear Modulus (GPa) = 18.74615 31.23662 24.99139
#
# Velocity S-wave (km/s) = 2.82037 3.64068 3.25646
# Velocity P-wave (km/s) = 5.45865 6.31012 5.89976
#
# Compressibility (1/GPa) = 0.02211090
#
# Stress axis : x y z
#
# Youngs Moduli (GPa) = 152.36746 82.98241 84.76772
#
# Poissons Ratio (x) = 0.13000 0.18473
# Poissons Ratio (y) = 0.23870 0.03425
# Poissons Ratio (z) = 0.33204 0.03353
#
# Static dielectric constant tensor:
#      x y z
#    x 1.927410 0.000000 0.000000 
#    y 0.000000 1.902110 0.000000 
#    z 0.000000 0.000000 1.953190 
# 
# From -- ./inp_files/39237.got.cif
#   From: 2010.05.17/outbox.cif.g08.bks.cpg/sg64_20_cif.got.tgz:39237.got - 2010.06.03 16:29:19.
