data_PCOD9481516
_publ_section_title
;
Structure prediction by ZEFSAII (Michael W. Deem and Ramdas Pophale) SiO2 
 PCOD9481516
Probable space group: C M C A
;
_chemical_formula_sum "Si O2"
_cell_formula_units_Z 72
_cell_length_a 25.912788
_cell_length_b 14.562894
_cell_length_c 9.480006
_cell_angle_alpha 90.000000
_cell_angle_beta 90.000000
_cell_angle_gamma 90.000000
_cell_volume 3577.424217
_symmetry_space_group_name_H-M "C M C A"
_symmetry_group_IT_number 64
_symmetry_cell_setting 'orthorhombic'
loop_
_space_group_symop_operation_xyz
x,y,z
-x,1/2-y,1/2+z
x,-y,-z
-x,1/2+y,1/2-z
-x,-y,-z
x,1/2+y,1/2-z
-x,y,z
x,1/2-y,1/2+z
1/2+x,1/2+y,z
1/2-x,-y,1/2+z
1/2+x,1/2-y,-z
1/2-x,y,1/2-z
1/2-x,1/2-y,-z
1/2+x,y,1/2-z
1/2-x,1/2+y,z
1/2+x,-y,1/2+z
loop_
_atom_site_type_symbol
_atom_site_label
_atom_site_fract_x
_atom_site_fract_y
_atom_site_fract_z
Si Si1 0.856902 0.340541 0.662912
Si Si2 0.500000 0.310316 0.419237
Si Si3 0.611230 0.664318 0.484532
Si Si4 0.312489 0.500000 0.500000
Si Si5 0.087992 0.000000 0.000000
Si Si6 0.750000 0.591032 0.250000
Si Si7 0.500000 0.368621 0.102842
O O1 0.881585 0.326107 0.816871
O O2 0.873278 0.258453 0.561181
O O3 0.877586 0.435983 0.599305
O O4 0.795462 0.348321 0.682476
O O5 0.552159 0.355794 0.476980
O O6 0.500000 0.316242 0.250741
O O7 0.500000 0.205983 0.477516
O O8 0.650003 0.584955 0.534335
O O9 0.277333 0.470180 0.630925
O O10 0.050035 0.932988 0.087259
#
# Coordination Sequence:
#
# PCOD9481516 Si02
#       7
#    16   8  16   8   8   8   8
#     4  11  25  45  70  98 138 180 228 289 336 405
#     4  12  24  44  69 103 139 181 216 279 329 418
#     4  11  26  42  70 101 139 178 230 273 347 402
#     4  10  25  45  65 104 129 179 231 280 344 408
#     4  11  25  44  67 102 139 180 227 277 346 400
#     4  10  24  44  70  98 134 180 230 284 348 392
#     4  11  26  41  72  97 138 187 227 270 345 406
#
# _framework density 20.126211999999999
#
# number of rings (size 3 to 8) (size 9 to 14) (size 15 to 20)
#    0.000    1.111    2.222    2.000    6.222    7.556 
#    0.000    0.000    0.000    0.000    0.000    0.000 
#    0.000    0.000    0.000    0.000    0.000    0.000 
#
# Total GULP energy -201432.940918 kJ/mol
# GULP energy per Si atom -5595.359470 kJ/mol
# Density = 2.008040 g / cm^3
# Si number density = 20.126212 Si / 1000 Ang^3
#
#
#
# Elastic Constant Matrix: (Units=GPa)
#
#
# Indices 1 2 3 4 5 6 
#
# 1 173.5191 46.6657 66.3125 0.0000 0.0000 0.0000
# 2 46.6657 63.0083 62.2705 0.0000 0.0000 0.0000
# 3 66.3125 62.2705 129.5148 0.0000 0.0000 0.0000
# 4 0.0000 0.0000 0.0000 29.3210 0.0000 0.0000
# 5 0.0000 0.0000 0.0000 0.0000 10.6127 0.0000
# 6 0.0000 0.0000 0.0000 0.0000 0.0000 28.3400
#
#
#
# Elastic Compliance Matrix: (Units=1/GPa)
#
#
# Indices 1 2 3 4 5 6 
#
# 1 0.007521 -0.003362 -0.002234 0.000000 0.000000 0.000000
# 2 -0.003362 0.031743 -0.013541 0.000000 0.000000 0.000000
# 3 -0.002234 -0.013541 0.015375 0.000000 0.000000 0.000000
# 4 0.000000 0.000000 0.000000 0.034105 0.000000 0.000000
# 5 0.000000 0.000000 0.000000 0.000000 0.094227 0.000000
# 6 0.000000 0.000000 0.000000 0.000000 0.000000 0.035286
#
#
# Mechanical properties :
#
#
# Convention : Reuss Voigt Hill
#
# Bulk Modulus (GPa) = 61.10434 79.61551 70.35992
# Shear Modulus (GPa) = 19.08494 26.37431 22.72963
#
# Velocity S-wave (km/s) = 3.08273 3.62394 3.36423
# Velocity P-wave (km/s) = 6.56486 7.56006 7.07997
#
# Compressibility (1/GPa) = 0.01636545
#
# Stress axis : x y z
#
# Youngs Moduli (GPa) = 132.95826 31.50291 65.03890
#
# Poissons Ratio (x) = 0.10592 0.14532
# Poissons Ratio (y) = 0.44703 0.88066
# Poissons Ratio (z) = 0.29708 0.42657
#
# Static dielectric constant tensor:
#      x y z
#    x 1.713450 0.000000 0.000000 
#    y 0.000000 1.685490 0.000000 
#    z 0.000000 0.000000 1.683340 
# 
# From -- ./inp_files/10079.got.cif
#   From: 2010.05.17/outbox.cif.g08.bks.cpg/sg64_6_cif.got.tgz:10079.got - 2010.06.03 16:29:19.
