data_PCOD9481763
_publ_section_title
;
Structure prediction by ZEFSAII (Michael W. Deem and Ramdas Pophale) SiO2 
 PCOD9481763
Probable space group: C M C A
;
_chemical_formula_sum "Si O2"
_cell_formula_units_Z 48
_cell_length_a 8.274999
_cell_length_b 20.287524
_cell_length_c 11.926889
_cell_angle_alpha 90.000000
_cell_angle_beta 90.000000
_cell_angle_gamma 90.000000
_cell_volume 2002.277071
_symmetry_space_group_name_H-M "C M C A"
_symmetry_group_IT_number 64
_symmetry_cell_setting 'orthorhombic'
loop_
_space_group_symop_operation_xyz
x,y,z
-x,1/2-y,1/2+z
x,-y,-z
-x,1/2+y,1/2-z
-x,-y,-z
x,1/2+y,1/2-z
-x,y,z
x,1/2-y,1/2+z
1/2+x,1/2+y,z
1/2-x,-y,1/2+z
1/2+x,1/2-y,-z
1/2-x,y,1/2-z
1/2-x,1/2-y,-z
1/2+x,y,1/2-z
1/2-x,1/2+y,z
1/2+x,-y,1/2+z
loop_
_atom_site_type_symbol
_atom_site_label
_atom_site_fract_x
_atom_site_fract_y
_atom_site_fract_z
Si Si1 0.187413 0.442256 0.867475
Si Si2 0.186693 0.413785 0.401110
Si Si3 0.189684 0.768667 0.372550
O O1 0.250000 0.417060 0.750000
O O2 0.212428 0.521487 0.867974
O O3 0.000000 0.426784 0.888394
O O4 0.300806 0.415086 0.964423
O O5 0.265729 0.345989 0.365718
O O6 0.000000 0.419610 0.365644
O O7 0.250000 0.741012 0.250000
O O8 0.250000 0.750000 0.500000
O O9 0.000000 0.757631 0.374343
#
# Coordination Sequence:
#
# PCOD9481763 Si02
#       3
#    16  16  16
#     4  11  21  36  58  89 125 165 208 259 316 380
#     4  11  22  39  61  90 124 164 209 260 317 382
#     4  12  26  47  71  99 131 172 220 273 329 390
#
# _framework density 23.972708000000001
#
# number of rings (size 3 to 8) (size 9 to 14) (size 15 to 20)
#    0.000    0.667    0.000   12.000    0.000    1.333 
#    0.000    6.667    0.000    0.000    0.000    0.000 
#    0.000    0.000    0.000    0.000    0.000    0.000 
#
# Total GULP energy -134162.149737 kJ/mol
# GULP energy per Si atom -5590.089572 kJ/mol
# Density = 2.391814 g / cm^3
# Si number density = 23.972708 Si / 1000 Ang^3
#
#
#
# Elastic Constant Matrix: (Units=GPa)
#
#
# Indices 1 2 3 4 5 6 
#
# 1 179.6062 4.1202 41.7136 0.0000 0.0000 0.0000
# 2 4.1202 72.8249 33.7147 0.0000 0.0000 0.0000
# 3 41.7136 33.7147 209.1507 0.0000 0.0000 0.0000
# 4 0.0000 0.0000 0.0000 -21.7493 0.0000 0.0000
# 5 0.0000 0.0000 0.0000 0.0000 46.5835 0.0000
# 6 0.0000 0.0000 0.0000 0.0000 0.0000 22.9928
#
#
#
# Elastic Compliance Matrix: (Units=1/GPa)
#
#
# Indices 1 2 3 4 5 6 
#
# 1 0.005842 0.000226 -0.001201 0.000000 0.000000 0.000000
# 2 0.000226 0.014848 -0.002438 0.000000 0.000000 0.000000
# 3 -0.001201 -0.002438 0.005414 0.000000 0.000000 0.000000
# 4 0.000000 0.000000 0.000000 -0.045978 0.000000 0.000000
# 5 0.000000 0.000000 0.000000 0.000000 0.021467 0.000000
# 6 0.000000 0.000000 0.000000 0.000000 0.000000 0.043492
#
#
# Mechanical properties :
#
#
# Convention : Reuss Voigt Hill
#
# Bulk Modulus (GPa) = 51.88100 68.96433 60.42266
# Shear Modulus (GPa) = 85.70930 35.03430 60.37180
#
# Velocity S-wave (km/s) = 5.98586 3.82701 5.02377
# Velocity P-wave (km/s) = 8.33443 6.95401 7.67531
#
# Compressibility (1/GPa) = 0.01927488
#
# Stress axis : x y z
#
# Youngs Moduli (GPa) = 171.18612 67.35055 184.70858
#
# Poissons Ratio (x) = -0.01520 0.22192
# Poissons Ratio (y) = -0.03864 0.45040
# Poissons Ratio (z) = 0.20567 0.16423
#
# Static dielectric constant tensor:
#      x y z
#    x 1.784250 0.000000 0.000000 
#    y 0.000000 1.940240 0.000000 
#    z 0.000000 0.000000 2.140910 
# 
# From -- ./inp_files/11793.got.cif
#   From: 2010.05.17/outbox.cif.g08.bks.cpg/sg64_6_cif.got.tgz:11793.got - 2010.06.03 16:29:19.
