data_PCOD9481484
_publ_section_title
;
Structure prediction by ZEFSAII (Michael W. Deem and Ramdas Pophale) SiO2 
 PCOD9481484
Probable space group: C M C A
;
_chemical_formula_sum "Si O2"
_cell_formula_units_Z 48
_cell_length_a 16.690954
_cell_length_b 23.191974
_cell_length_c 5.350738
_cell_angle_alpha 90.000000
_cell_angle_beta 90.000000
_cell_angle_gamma 90.000000
_cell_volume 2071.250193
_symmetry_space_group_name_H-M "C M C A"
_symmetry_group_IT_number 64
_symmetry_cell_setting 'orthorhombic'
loop_
_space_group_symop_operation_xyz
x,y,z
-x,1/2-y,1/2+z
x,-y,-z
-x,1/2+y,1/2-z
-x,-y,-z
x,1/2+y,1/2-z
-x,y,z
x,1/2-y,1/2+z
1/2+x,1/2+y,z
1/2-x,-y,1/2+z
1/2+x,1/2-y,-z
1/2-x,y,1/2-z
1/2-x,1/2-y,-z
1/2+x,y,1/2-z
1/2-x,1/2+y,z
1/2+x,-y,1/2+z
loop_
_atom_site_type_symbol
_atom_site_label
_atom_site_fract_x
_atom_site_fract_y
_atom_site_fract_z
Si Si1 0.250000 0.789025 0.750000
Si Si2 0.000000 0.449101 0.720139
Si Si3 0.864094 0.500000 0.000000
Si Si4 0.500000 0.373793 0.272544
Si Si5 0.172498 0.868777 0.418449
O O1 0.250000 0.750000 0.500000
O O2 0.179438 0.834348 0.680060
O O3 0.922160 0.488044 0.764759
O O4 0.000000 0.410917 0.478061
O O5 0.000000 0.409096 0.966516
O O6 0.823521 0.561821 0.960284
O O7 0.589700 0.347827 0.289077
O O8 0.250000 0.856373 0.250000
#
# Coordination Sequence:
#
# PCOD9481484 Si02
#       5
#     8   8   8   8  16
#     4  12  28  54  74  96 144 198 258 318 374 426
#     4   9  20  40  62 105 164 203 224 304 369 468
#     4   9  22  38  68 117 158 196 246 301 392 471
#     4  10  24  43  70 107 156 199 248 294 390 460
#     4  11  26  44  76 112 150 199 244 319 380 468
#
# _framework density 23.174406999999999
#
# number of rings (size 3 to 8) (size 9 to 14) (size 15 to 20)
#    0.000    1.667    1.667    1.000   11.667   10.667 
#    0.000    1.667    0.000    0.000    0.000    0.000 
#    0.000    0.000    0.000    0.000    0.000    0.000 
#
# Total GULP energy -133607.916954 kJ/mol
# GULP energy per Si atom -5566.996540 kJ/mol
# Density = 2.312166 g / cm^3
# Si number density = 23.174407 Si / 1000 Ang^3
#
#
#
# Elastic Constant Matrix: (Units=GPa)
#
#
# Indices 1 2 3 4 5 6 
#
# 1 145.2510 33.4853 54.4798 0.0000 0.0000 0.0000
# 2 33.4853 117.6143 43.2185 0.0000 0.0000 0.0000
# 3 54.4798 43.2185 174.3109 0.0000 0.0000 0.0000
# 4 0.0000 0.0000 0.0000 58.8152 0.0000 0.0000
# 5 0.0000 0.0000 0.0000 0.0000 7.6896 0.0000
# 6 0.0000 0.0000 0.0000 0.0000 0.0000 -89.1441
#
#
#
# Elastic Compliance Matrix: (Units=1/GPa)
#
#
# Indices 1 2 3 4 5 6 
#
# 1 0.008033 -0.001501 -0.002138 0.000000 0.000000 0.000000
# 2 -0.001501 0.009635 -0.001920 0.000000 0.000000 0.000000
# 3 -0.002138 -0.001920 0.006881 0.000000 0.000000 0.000000
# 4 0.000000 0.000000 0.000000 0.017002 0.000000 0.000000
# 5 0.000000 0.000000 0.000000 0.000000 0.130045 0.000000
# 6 0.000000 0.000000 0.000000 0.000000 0.000000 -0.011218
#
#
# Mechanical properties :
#
#
# Convention : Reuss Voigt Hill
#
# Bulk Modulus (GPa) = 74.45743 77.72703 76.09223
# Shear Modulus (GPa) = 28.41319 15.87164 22.14242
#
# Velocity S-wave (km/s) = 3.50531 2.61986 3.09442
# Velocity P-wave (km/s) = 6.97007 6.53945 6.75819
#
# Compressibility (1/GPa) = 0.01343049
#
# Stress axis : x y z
#
# Youngs Moduli (GPa) = 124.49022 103.78619 145.32360
#
# Poissons Ratio (x) = 0.15580 0.31076
# Poissons Ratio (y) = 0.18688 0.27899
# Poissons Ratio (z) = 0.26621 0.19924
#
# Static dielectric constant tensor:
#      x y z
#    x 2.017150 0.000000 0.000000 
#    y 0.000000 1.975450 0.000000 
#    z 0.000000 0.000000 1.917230 
# 
# From -- ./inp_files/1621.got.cif
#   From: 2010.05.17/outbox.cif.g08.bks.cpg/sg64_1_cif.got.tgz:1621.got - 2010.06.03 16:29:19.
