data_PCOD9481739
_publ_section_title
;
Structure prediction by ZEFSAII (Michael W. Deem and Ramdas Pophale) SiO2 
 PCOD9481739
Probable space group: C M C A
;
_chemical_formula_sum "Si O2"
_cell_formula_units_Z 96
_cell_length_a 8.445741
_cell_length_b 30.933250
_cell_length_c 21.296644
_cell_angle_alpha 90.000000
_cell_angle_beta 90.000000
_cell_angle_gamma 90.000000
_cell_volume 5563.838070
_symmetry_space_group_name_H-M "C M C A"
_symmetry_group_IT_number 64
_symmetry_cell_setting 'orthorhombic'
loop_
_space_group_symop_operation_xyz
x,y,z
-x,1/2-y,1/2+z
x,-y,-z
-x,1/2+y,1/2-z
-x,-y,-z
x,1/2+y,1/2-z
-x,y,z
x,1/2-y,1/2+z
1/2+x,1/2+y,z
1/2-x,-y,1/2+z
1/2+x,1/2-y,-z
1/2-x,y,1/2-z
1/2-x,1/2-y,-z
1/2+x,y,1/2-z
1/2-x,1/2+y,z
1/2+x,-y,1/2+z
loop_
_atom_site_type_symbol
_atom_site_label
_atom_site_fract_x
_atom_site_fract_y
_atom_site_fract_z
Si Si1 0.311093 0.497406 0.685355
Si Si2 0.810583 0.096616 0.344428
Si Si3 0.191587 0.307610 0.816130
Si Si4 0.311672 0.114897 0.010261
Si Si5 0.691341 0.711107 0.457061
Si Si6 0.812216 0.467347 0.444993
O O1 0.500000 0.495340 0.687230
O O2 0.250000 0.517501 0.750000
O O3 0.244373 0.448157 0.681220
O O4 0.261492 0.520848 0.621748
O O5 0.748985 0.142436 0.319593
O O6 0.788333 0.097130 0.419210
O O7 0.000000 0.097064 0.333108
O O8 0.250000 0.288597 0.750000
O O9 0.240696 0.287074 0.883291
O O10 0.000000 0.307829 0.815649
O O11 0.500000 0.114442 0.997341
O O12 0.257762 0.164746 0.014011
O O13 0.227278 0.081590 0.964524
O O14 0.500000 0.710651 0.456703
O O15 0.750000 0.750000 0.500000
O O16 0.752479 0.500000 0.500000
O O17 0.000000 0.473205 0.440695
#
# Coordination Sequence:
#
# PCOD9481739 Si02
#       6
#    16  16  16  16  16  16
#     4  11  21  33  50  71 101 141 178 216 261 309
#     4   8  15  28  47  70  99 133 167 200 246 304
#     4   9  17  30  47  72 103 134 165 203 248 305
#     4   9  17  33  54  75  99 135 175 210 256 312
#     4   9  19  34  54  78 106 134 170 214 261 314
#     4  11  22  34  50  76 106 135 176 221 256 302
#
# _framework density 17.254277999999999
#
# number of rings (size 3 to 8) (size 9 to 14) (size 15 to 20)
#    0.000    2.500    1.667    3.500    0.000    2.000 
#    0.000    3.333    0.000    1.000    0.000    2.333 
#    0.000    0.000    0.000    0.000    0.000    0.000 
#
# Total GULP energy -267498.879997 kJ/mol
# GULP energy per Si atom -5572.893333 kJ/mol
# Density = 1.721501 g / cm^3
# Si number density = 17.254278 Si / 1000 Ang^3
#
#
#
# Elastic Constant Matrix: (Units=GPa)
#
#
# Indices 1 2 3 4 5 6 
#
# 1 24.1360 14.2863 31.2632 0.0000 0.0000 0.0000
# 2 14.2863 77.7467 60.0159 0.0000 0.0000 0.0000
# 3 31.2632 60.0159 129.6891 0.0000 0.0000 0.0000
# 4 0.0000 0.0000 0.0000 11.9399 0.0000 0.0000
# 5 0.0000 0.0000 0.0000 0.0000 25.0459 0.0000
# 6 0.0000 0.0000 0.0000 0.0000 0.0000 4.3145
#
#
#
# Elastic Compliance Matrix: (Units=1/GPa)
#
#
# Indices 1 2 3 4 5 6 
#
# 1 0.060245 0.000219 -0.014624 0.000000 0.000000 0.000000
# 2 0.000219 0.020011 -0.009313 0.000000 0.000000 0.000000
# 3 -0.014624 -0.009313 0.015546 0.000000 0.000000 0.000000
# 4 0.000000 0.000000 0.000000 0.083753 0.000000 0.000000
# 5 0.000000 0.000000 0.000000 0.000000 0.039927 0.000000
# 6 0.000000 0.000000 0.000000 0.000000 0.000000 0.231778
#
#
# Mechanical properties :
#
#
# Convention : Reuss Voigt Hill
#
# Bulk Modulus (GPa) = 20.67623 49.18917 34.93270
# Shear Modulus (GPa) = 9.71216 16.66047 13.18632
#
# Velocity S-wave (km/s) = 2.37509 3.11076 2.76748
# Velocity P-wave (km/s) = 4.41935 6.43993 5.52283
#
# Compressibility (1/GPa) = 0.04836472
#
# Stress axis : x y z
#
# Youngs Moduli (GPa) = 16.59900 49.97133 64.32549
#
# Poissons Ratio (x) = -0.01092 0.94069
# Poissons Ratio (y) = -0.00363 0.59909
# Poissons Ratio (z) = 0.24274 0.46540
#
# Static dielectric constant tensor:
#      x y z
#    x 1.593200 0.000000 0.000000 
#    y 0.000000 1.586350 0.000000 
#    z 0.000000 0.000000 1.598410 
# 
# From -- ./inp_files/37125.got.cif
#   From: 2010.05.17/outbox.cif.g08.bks.cpg/sg64_19_cif.got.tgz:37125.got - 2010.06.03 16:29:19.
