data_PCOD9481079
_publ_section_title
;
Structure prediction by ZEFSAII (Michael W. Deem and Ramdas Pophale) SiO2 
 PCOD9481079
Probable space group: C M C A
;
_chemical_formula_sum "Si O2"
_cell_formula_units_Z 96
_cell_length_a 23.633652
_cell_length_b 11.603987
_cell_length_c 17.437503
_cell_angle_alpha 90.000000
_cell_angle_beta 90.000000
_cell_angle_gamma 90.000000
_cell_volume 4782.140871
_symmetry_space_group_name_H-M "C M C A"
_symmetry_group_IT_number 64
_symmetry_cell_setting 'orthorhombic'
loop_
_space_group_symop_operation_xyz
x,y,z
-x,1/2-y,1/2+z
x,-y,-z
-x,1/2+y,1/2-z
-x,-y,-z
x,1/2+y,1/2-z
-x,y,z
x,1/2-y,1/2+z
1/2+x,1/2+y,z
1/2-x,-y,1/2+z
1/2+x,1/2-y,-z
1/2-x,y,1/2-z
1/2-x,1/2-y,-z
1/2+x,y,1/2-z
1/2-x,1/2+y,z
1/2+x,-y,1/2+z
loop_
_atom_site_type_symbol
_atom_site_label
_atom_site_fract_x
_atom_site_fract_y
_atom_site_fract_z
Si Si1 0.378923 0.741602 0.111392
Si Si2 0.500000 0.775545 0.187086
Si Si3 0.626021 0.507903 0.832021
Si Si4 0.298505 0.915771 0.193419
Si Si5 0.830681 0.320223 0.461233
Si Si6 0.500000 0.991977 0.712013
Si Si7 0.774192 0.414465 0.938158
O O1 0.441302 0.773437 0.140138
O O2 0.360374 0.624007 0.152165
O O3 0.329931 0.830414 0.135283
O O4 0.378647 0.716976 0.021047
O O5 0.500000 0.648113 0.231555
O O6 0.500000 0.899980 0.229023
O O7 0.652314 0.541177 0.750360
O O8 0.649871 0.590557 0.897728
O O9 0.558147 0.512173 0.832860
O O10 0.250000 0.866933 0.250000
O O11 0.270203 0.014904 0.140789
O O12 0.807076 0.203810 0.423828
O O13 0.781741 0.375260 0.515083
O O14 0.803750 0.500000 0.000000
#
# Coordination Sequence:
#
# PCOD9481079 Si02
#       7
#    16   8  16  16  16   8  16
#     4  11  23  42  67  93 129 173 225 270 338 400
#     4  10  22  43  69  96 133 178 221 291 342 399
#     4  11  25  43  67  99 131 175 227 284 334 407
#     4  12  25  39  65 100 134 173 220 271 335 406
#     4  11  24  42  67  94 136 178 222 274 339 402
#     4  10  22  43  69  97 132 175 228 287 353 392
#     4  11  23  43  63  93 136 180 213 267 336 404
#
# _framework density 20.07469
#
# number of rings (size 3 to 8) (size 9 to 14) (size 15 to 20)
#    0.000    1.000    3.333    3.500    4.667    1.333 
#    0.000    2.500    0.000    3.000    0.000    0.000 
#    0.000    0.000    0.000    0.000    0.000    0.000 
#
# Total GULP energy -267901.105194 kJ/mol
# GULP energy per Si atom -5581.273025 kJ/mol
# Density = 2.002900 g / cm^3
# Si number density = 20.074690 Si / 1000 Ang^3
#
#
#
# Elastic Constant Matrix: (Units=GPa)
#
#
# Indices 1 2 3 4 5 6 
#
# 1 90.3545 51.4544 25.1735 0.0000 0.0000 0.0000
# 2 51.4544 105.8699 35.2375 0.0000 0.0000 0.0000
# 3 25.1735 35.2375 84.7144 0.0000 0.0000 0.0000
# 4 0.0000 0.0000 0.0000 26.2486 0.0000 0.0000
# 5 0.0000 0.0000 0.0000 0.0000 23.8360 0.0000
# 6 0.0000 0.0000 0.0000 0.0000 0.0000 20.3403
#
#
#
# Elastic Compliance Matrix: (Units=1/GPa)
#
#
# Indices 1 2 3 4 5 6 
#
# 1 0.015514 -0.006971 -0.001711 0.000000 0.000000 0.000000
# 2 -0.006971 0.014095 -0.003792 0.000000 0.000000 0.000000
# 3 -0.001711 -0.003792 0.013890 0.000000 0.000000 0.000000
# 4 0.000000 0.000000 0.000000 0.038097 0.000000 0.000000
# 5 0.000000 0.000000 0.000000 0.000000 0.041953 0.000000
# 6 0.000000 0.000000 0.000000 0.000000 0.000000 0.049163
#
#
# Mechanical properties :
#
#
# Convention : Reuss Voigt Hill
#
# Bulk Modulus (GPa) = 53.89885 56.07438 54.98661
# Shear Modulus (GPa) = 24.52872 25.35656 24.94264
#
# Velocity S-wave (km/s) = 3.49932 3.55788 3.52872
# Velocity P-wave (km/s) = 6.57529 6.69862 6.63724
#
# Compressibility (1/GPa) = 0.01855327
#
# Stress axis : x y z
#
# Youngs Moduli (GPa) = 64.45956 70.94537 71.99495
#
# Poissons Ratio (x) = 0.49453 0.12315
# Poissons Ratio (y) = 0.44932 0.27298
# Poissons Ratio (z) = 0.11026 0.26900
#
# Static dielectric constant tensor:
#      x y z
#    x 1.730690 0.000000 0.000000 
#    y 0.000000 1.749900 0.000000 
#    z 0.000000 0.000000 1.712610 
# 
# From -- ./inp_files/34986.got.cif
#   From: 2010.05.17/outbox.cif.g08.bks.cpg/sg64_18_cif.got.tgz:34986.got - 2010.06.03 16:29:19.
