data_PCOD9481919
_publ_section_title
;
Structure prediction by ZEFSAII (Michael W. Deem and Ramdas Pophale) SiO2 
 PCOD9481919
Probable space group: C M C A
;
_chemical_formula_sum "Si O2"
_cell_formula_units_Z 56
_cell_length_a 22.439038
_cell_length_b 7.784215
_cell_length_c 16.838535
_cell_angle_alpha 90.000000
_cell_angle_beta 90.000000
_cell_angle_gamma 90.000000
_cell_volume 2941.191896
_symmetry_space_group_name_H-M "C M C A"
_symmetry_group_IT_number 64
_symmetry_cell_setting 'orthorhombic'
loop_
_space_group_symop_operation_xyz
x,y,z
-x,1/2-y,1/2+z
x,-y,-z
-x,1/2+y,1/2-z
-x,-y,-z
x,1/2+y,1/2-z
-x,y,z
x,1/2-y,1/2+z
1/2+x,1/2+y,z
1/2-x,-y,1/2+z
1/2+x,1/2-y,-z
1/2-x,y,1/2-z
1/2-x,1/2-y,-z
1/2+x,y,1/2-z
1/2-x,1/2+y,z
1/2+x,-y,1/2+z
loop_
_atom_site_type_symbol
_atom_site_label
_atom_site_fract_x
_atom_site_fract_y
_atom_site_fract_z
Si Si1 0.195399 0.144709 0.147023
Si Si2 0.068887 0.846785 0.563775
Si Si3 0.123063 0.500000 0.500000
Si Si4 0.327274 0.541997 0.325235
O O1 0.267019 0.132249 0.143188
O O2 0.177048 0.343140 0.151086
O O3 0.175626 0.059108 0.230177
O O4 0.164499 0.052641 0.073727
O O5 0.084074 0.664927 0.523665
O O6 0.114583 0.876651 0.635679
O O7 0.000000 0.851971 0.588944
O O8 0.078360 0.000000 0.500000
#
# Coordination Sequence:
#
# PCOD9481919 Si02
#       4
#    16  16   8  16
#     4  11  23  38  68  94 131 166 211 278 322 383
#     4  11  24  43  65  91 129 168 212 261 310 384
#     4  12  23  42  68  98 127 168 218 268 330 368
#     4  11  22  43  61  97 131 168 217 263 326 385
#
# _framework density 19.039901
#
# number of rings (size 3 to 8) (size 9 to 14) (size 15 to 20)
#    0.000    0.857    2.857    7.286    2.000    2.286 
#    0.000    7.143    0.000    0.000    0.000    0.000 
#    0.000    0.000    0.000    0.000    0.000    0.000 
#
# Total GULP energy -156669.659178 kJ/mol
# GULP energy per Si atom -5595.344971 kJ/mol
# Density = 1.899657 g / cm^3
# Si number density = 19.039901 Si / 1000 Ang^3
#
#
#
# Elastic Constant Matrix: (Units=GPa)
#
#
# Indices 1 2 3 4 5 6 
#
# 1 155.8439 45.8253 85.5160 0.0000 0.0000 0.0000
# 2 45.8253 135.9896 42.6511 0.0000 0.0000 0.0000
# 3 85.5160 42.6511 73.1618 0.0000 0.0000 0.0000
# 4 0.0000 0.0000 0.0000 35.0579 0.0000 0.0000
# 5 0.0000 0.0000 0.0000 0.0000 59.8444 0.0000
# 6 0.0000 0.0000 0.0000 0.0000 0.0000 15.1546
#
#
#
# Elastic Compliance Matrix: (Units=1/GPa)
#
#
# Indices 1 2 3 4 5 6 
#
# 1 0.017940 0.000650 -0.021348 0.000000 0.000000 0.000000
# 2 0.000650 0.009022 -0.006020 0.000000 0.000000 0.000000
# 3 -0.021348 -0.006020 0.042131 0.000000 0.000000 0.000000
# 4 0.000000 0.000000 0.000000 0.028524 0.000000 0.000000
# 5 0.000000 0.000000 0.000000 0.000000 0.016710 0.000000
# 6 0.000000 0.000000 0.000000 0.000000 0.000000 0.065987
#
#
# Mechanical properties :
#
#
# Convention : Reuss Voigt Hill
#
# Bulk Modulus (GPa) = 63.86752 79.22000 71.54376
# Shear Modulus (GPa) = 20.92320 34.74491 27.83405
#
# Velocity S-wave (km/s) = 3.31858 4.27646 3.82760
# Velocity P-wave (km/s) = 6.94988 8.12907 7.56249
#
# Compressibility (1/GPa) = 0.01565741
#
# Stress axis : x y z
#
# Youngs Moduli (GPa) = 55.74163 110.83498 23.73551
#
# Poissons Ratio (x) = -0.07207 0.50671
# Poissons Ratio (y) = -0.03625 0.14288
# Poissons Ratio (z) = 1.18999 0.66721
#
# Static dielectric constant tensor:
#      x y z
#    x 1.626430 0.000000 0.000000 
#    y 0.000000 1.669900 0.000000 
#    z 0.000000 0.000000 1.637200 
# 
# From -- ./inp_files/32688.got.cif
#   From: 2010.05.17/outbox.cif.g08.bks.cpg/sg64_17_cif.got.tgz:32688.got - 2010.06.03 16:29:19.
