data_PCOD9481215
_publ_section_title
;
Structure prediction by ZEFSAII (Michael W. Deem and Ramdas Pophale) SiO2 
 PCOD9481215
Probable space group: C M C A
;
_chemical_formula_sum "Si O2"
_cell_formula_units_Z 48
_cell_length_a 13.614426
_cell_length_b 15.209306
_cell_length_c 10.089321
_cell_angle_alpha 90.000000
_cell_angle_beta 90.000000
_cell_angle_gamma 90.000000
_cell_volume 2089.155050
_symmetry_space_group_name_H-M "C M C A"
_symmetry_group_IT_number 64
_symmetry_cell_setting 'orthorhombic'
loop_
_space_group_symop_operation_xyz
x,y,z
-x,1/2-y,1/2+z
x,-y,-z
-x,1/2+y,1/2-z
-x,-y,-z
x,1/2+y,1/2-z
-x,y,z
x,1/2-y,1/2+z
1/2+x,1/2+y,z
1/2-x,-y,1/2+z
1/2+x,1/2-y,-z
1/2-x,y,1/2-z
1/2-x,1/2-y,-z
1/2+x,y,1/2-z
1/2-x,1/2+y,z
1/2+x,-y,1/2+z
loop_
_atom_site_type_symbol
_atom_site_label
_atom_site_fract_x
_atom_site_fract_y
_atom_site_fract_z
Si Si1 0.670532 0.335122 0.344468
Si Si2 0.500000 0.422664 0.698349
Si Si3 0.000000 0.591338 0.659738
Si Si4 0.838079 0.500000 0.000000
Si Si5 0.000000 0.285620 0.587420
O O1 0.750000 0.289647 0.250000
O O2 0.593174 0.377987 0.244267
O O3 0.714344 0.418044 0.427249
O O4 0.600076 0.271033 0.427831
O O5 0.500000 0.487290 0.824718
O O6 0.592112 0.449674 0.606350
O O7 0.500000 0.326677 0.763497
O O8 0.000000 0.640642 0.522959
#
# Coordination Sequence:
#
# PCOD9481215 Si02
#       5
#    16   8   8   8   8
#     4  10  23  41  63  94 124 167 215 258 321 374
#     4   9  18  39  65  90 118 173 207 252 323 375
#     4   9  21  41  62  90 125 165 214 258 310 390
#     4   9  20  42  64  79 128 170 210 255 316 381
#     4  11  22  37  67  93 133 156 212 272 312 367
#
# _framework density 22.975797
#
# number of rings (size 3 to 8) (size 9 to 14) (size 15 to 20)
#    0.000    2.333    0.000    3.500    9.333    1.333 
#   12.000    1.667    0.000    0.000    0.000    0.000 
#    0.000    0.000    0.000    0.000    0.000    0.000 
#
# Total GULP energy -133834.026529 kJ/mol
# GULP energy per Si atom -5576.417772 kJ/mol
# Density = 2.292350 g / cm^3
# Si number density = 22.975797 Si / 1000 Ang^3
#
#
#
# Elastic Constant Matrix: (Units=GPa)
#
#
# Indices 1 2 3 4 5 6 
#
# 1 37.0533 -0.9338 0.5258 0.0000 0.0000 0.0000
# 2 -0.9338 85.4672 46.8912 0.0000 0.0000 0.0000
# 3 0.5258 46.8912 91.9182 0.0000 0.0000 0.0000
# 4 0.0000 0.0000 0.0000 52.0850 0.0000 0.0000
# 5 0.0000 0.0000 0.0000 0.0000 23.1451 0.0000
# 6 0.0000 0.0000 0.0000 0.0000 0.0000 -0.7071
#
#
#
# Elastic Compliance Matrix: (Units=1/GPa)
#
#
# Indices 1 2 3 4 5 6 
#
# 1 0.027007 0.000527 -0.000424 0.000000 0.000000 0.000000
# 2 0.000527 0.016258 -0.008297 0.000000 0.000000 0.000000
# 3 -0.000424 -0.008297 0.015114 0.000000 0.000000 0.000000
# 4 0.000000 0.000000 0.000000 0.019199 0.000000 0.000000
# 5 0.000000 0.000000 0.000000 0.000000 0.043206 0.000000
# 6 0.000000 0.000000 0.000000 0.000000 0.000000 -1.414219
#
#
# Mechanical properties :
#
#
# Convention : Reuss Voigt Hill
#
# Bulk Modulus (GPa) = 23.81306 34.15612 28.98459
# Shear Modulus (GPa) = -3.95867 26.10164 11.07148
#
# Velocity S-wave (km/s) = -1.31405 3.37419 2.19755
# Velocity P-wave (km/s) = 2.84335 5.48440 4.36825
#
# Compressibility (1/GPa) = 0.04199377
#
# Stress axis : x y z
#
# Youngs Moduli (GPa) = 37.02686 61.50711 66.16248
#
# Poissons Ratio (x) = -0.03244 0.02803
# Poissons Ratio (y) = -0.01953 0.54895
# Poissons Ratio (z) = 0.01568 0.51033
#
# Static dielectric constant tensor:
#      x y z
#    x 1.897180 0.000000 0.000000 
#    y 0.000000 1.860290 0.000000 
#    z 0.000000 0.000000 1.854300 
# 
# From -- ./inp_files/13699.got.cif
#   From: 2010.05.17/outbox.cif.g08.bks.cpg/sg64_7_cif.got.tgz:13699.got - 2010.06.03 16:29:19.
