data_PCOD9481788
_publ_section_title
;
Structure prediction by ZEFSAII (Michael W. Deem and Ramdas Pophale) SiO2 
 PCOD9481788
Probable space group: C M C A
;
_chemical_formula_sum "Si O2"
_cell_formula_units_Z 64
_cell_length_a 21.840121
_cell_length_b 7.875538
_cell_length_c 18.561525
_cell_angle_alpha 90.000000
_cell_angle_beta 90.000000
_cell_angle_gamma 90.000000
_cell_volume 3192.632469
_symmetry_space_group_name_H-M "C M C A"
_symmetry_group_IT_number 64
_symmetry_cell_setting 'orthorhombic'
loop_
_space_group_symop_operation_xyz
x,y,z
-x,1/2-y,1/2+z
x,-y,-z
-x,1/2+y,1/2-z
-x,-y,-z
x,1/2+y,1/2-z
-x,y,z
x,1/2-y,1/2+z
1/2+x,1/2+y,z
1/2-x,-y,1/2+z
1/2+x,1/2-y,-z
1/2-x,y,1/2-z
1/2-x,1/2-y,-z
1/2+x,y,1/2-z
1/2-x,1/2+y,z
1/2+x,-y,1/2+z
loop_
_atom_site_type_symbol
_atom_site_label
_atom_site_fract_x
_atom_site_fract_y
_atom_site_fract_z
Si Si1 0.072343 0.624969 0.398326
Si Si2 0.206320 0.370856 0.848767
Si Si3 0.355792 0.336261 0.032029
Si Si4 0.831106 0.755847 0.301807
O O1 0.105782 0.728731 0.463378
O O2 0.094833 0.433480 0.416909
O O3 0.103093 0.688749 0.325315
O O4 0.000000 0.638779 0.400504
O O5 0.183627 0.294522 0.923625
O O6 0.182069 0.557556 0.831828
O O7 0.180842 0.254885 0.783097
O O8 0.279404 0.362672 0.839099
O O9 0.318886 0.500000 0.000000
#
# Coordination Sequence:
#
# PCOD9481788 Si02
#       4
#    16  16  16  16
#     4   9  19  39  59  84 115 153 188 232 285 340
#     4  11  21  39  58  90 111 153 194 240 301 333
#     4   8  19  37  62  84 115 151 187 237 287 341
#     4  11  22  36  63  81 121 149 193 247 284 350
#
# _framework density 20.046153
#
# number of rings (size 3 to 8) (size 9 to 14) (size 15 to 20)
#    1.500    0.500    0.000    7.500    0.000    2.000 
#    0.000   10.000    0.000    0.000    0.000    0.000 
#    0.000    0.000    0.000    0.000    0.000    0.000 
#
# Total GULP energy -178369.227603 kJ/mol
# GULP energy per Si atom -5574.038363 kJ/mol
# Density = 2.000053 g / cm^3
# Si number density = 20.046153 Si / 1000 Ang^3
#
#
#
# Elastic Constant Matrix: (Units=GPa)
#
#
# Indices 1 2 3 4 5 6 
#
# 1 67.8790 0.7729 28.9754 0.0000 0.0000 0.0000
# 2 0.7729 49.4124 4.6891 0.0000 0.0000 0.0000
# 3 28.9754 4.6891 43.4566 0.0000 0.0000 0.0000
# 4 0.0000 0.0000 0.0000 33.8250 0.0000 0.0000
# 5 0.0000 0.0000 0.0000 0.0000 18.7396 0.0000
# 6 0.0000 0.0000 0.0000 0.0000 0.0000 14.4995
#
#
#
# Elastic Compliance Matrix: (Units=1/GPa)
#
#
# Indices 1 2 3 4 5 6 
#
# 1 0.020642 0.000993 -0.013870 0.000000 0.000000 0.000000
# 2 0.000993 0.020495 -0.002874 0.000000 0.000000 0.000000
# 3 -0.013870 -0.002874 0.032570 0.000000 0.000000 0.000000
# 4 0.000000 0.000000 0.000000 0.029564 0.000000 0.000000
# 5 0.000000 0.000000 0.000000 0.000000 0.053363 0.000000
# 6 0.000000 0.000000 0.000000 0.000000 0.000000 0.068968
#
#
# Mechanical properties :
#
#
# Convention : Reuss Voigt Hill
#
# Bulk Modulus (GPa) = 23.69392 25.51364 24.60378
# Shear Modulus (GPa) = 18.43855 21.83352 20.13604
#
# Velocity S-wave (km/s) = 3.03612 3.30383 3.17280
# Velocity P-wave (km/s) = 4.91284 5.22578 5.07173
#
# Compressibility (1/GPa) = 0.04220493
#
# Stress axis : x y z
#
# Youngs Moduli (GPa) = 48.44592 48.79235 30.70327
#
# Poissons Ratio (x) = -0.04847 0.42586
# Poissons Ratio (y) = -0.04813 0.08824
# Poissons Ratio (z) = 0.67196 0.14022
#
# Static dielectric constant tensor:
#      x y z
#    x 1.668060 0.000000 0.000000 
#    y 0.000000 1.735440 0.000000 
#    z 0.000000 0.000000 1.750730 
# 
# From -- ./inp_files/40681.got.cif
#   From: 2010.05.17/outbox.cif.g08.bks.cpg/sg64_21_cif.got.tgz:40681.got - 2010.06.03 16:29:19.
