data_PCOD9481109
_publ_section_title
;
Structure prediction by ZEFSAII (Michael W. Deem and Ramdas Pophale) SiO2 
 PCOD9481109
Probable space group: C M C A
;
_chemical_formula_sum "Si O2"
_cell_formula_units_Z 88
_cell_length_a 14.746339
_cell_length_b 11.001974
_cell_length_c 23.333512
_cell_angle_alpha 90.000000
_cell_angle_beta 90.000000
_cell_angle_gamma 90.000000
_cell_volume 3785.601880
_symmetry_space_group_name_H-M "C M C A"
_symmetry_group_IT_number 64
_symmetry_cell_setting 'orthorhombic'
loop_
_space_group_symop_operation_xyz
x,y,z
-x,1/2-y,1/2+z
x,-y,-z
-x,1/2+y,1/2-z
-x,-y,-z
x,1/2+y,1/2-z
-x,y,z
x,1/2-y,1/2+z
1/2+x,1/2+y,z
1/2-x,-y,1/2+z
1/2+x,1/2-y,-z
1/2-x,y,1/2-z
1/2-x,1/2-y,-z
1/2+x,y,1/2-z
1/2-x,1/2+y,z
1/2+x,-y,1/2+z
loop_
_atom_site_type_symbol
_atom_site_label
_atom_site_fract_x
_atom_site_fract_y
_atom_site_fract_z
Si Si1 0.603509 0.139004 0.998589
Si Si2 0.855972 0.871494 0.322160
Si Si3 0.153156 0.828769 0.909314
Si Si4 0.861985 0.853927 0.190575
Si Si5 0.000000 0.502403 0.607877
Si Si6 0.356975 0.120693 0.123141
O O1 0.500000 0.138036 0.976398
O O2 0.660796 0.228262 0.959303
O O3 0.600700 0.174397 0.065205
O O4 0.637904 0.000000 0.000000
O O5 0.882611 0.747259 0.353993
O O6 0.885665 0.877624 0.256548
O O7 0.745652 0.875559 0.319384
O O8 0.887115 0.986556 0.359335
O O9 0.250170 0.879992 0.891548
O O10 0.080002 0.927399 0.926499
O O11 0.875659 0.712771 0.174599
O O12 0.921096 0.933870 0.148158
#
# Coordination Sequence:
#
# PCOD9481109 Si02
#       6
#    16  16  16  16   8  16
#     4  11  23  42  66  98 132 172 233 285 336 399
#     4  10  22  44  69  94 130 183 220 269 333 407
#     4  11  23  43  70 100 134 179 219 284 340 399
#     4  10  25  41  67  99 134 174 221 275 339 395
#     4  12  24  44  64 100 141 165 226 275 338 397
#     4  11  23  44  71  96 134 177 231 272 339 414
#
# _framework density 23.245974
#
# number of rings (size 3 to 8) (size 9 to 14) (size 15 to 20)
#    0.000    1.273    4.545    0.545    3.818    2.182 
#    1.636    1.818    0.000    0.000    0.000    0.000 
#    0.000    0.000    0.000    0.000    0.000    0.000 
#
# Total GULP energy -245129.791231 kJ/mol
# GULP energy per Si atom -5571.131619 kJ/mol
# Density = 2.319307 g / cm^3
# Si number density = 23.245974 Si / 1000 Ang^3
#
#
#
# Elastic Constant Matrix: (Units=GPa)
#
#
# Indices 1 2 3 4 5 6 
#
# 1 82.6416 10.0711 -7.5850 0.0000 0.0000 0.0000
# 2 10.0711 27.4327 8.9969 0.0000 0.0000 0.0000
# 3 -7.5850 8.9969 60.9860 0.0000 0.0000 0.0000
# 4 0.0000 0.0000 0.0000 37.4085 0.0000 0.0000
# 5 0.0000 0.0000 0.0000 0.0000 32.6686 0.0000
# 6 0.0000 0.0000 0.0000 0.0000 0.0000 -40.6924
#
#
#
# Elastic Compliance Matrix: (Units=1/GPa)
#
#
# Indices 1 2 3 4 5 6 
#
# 1 0.013004 -0.005574 0.002440 0.000000 0.000000 0.000000
# 2 -0.005574 0.040695 -0.006697 0.000000 0.000000 0.000000
# 3 0.002440 -0.006697 0.017689 0.000000 0.000000 0.000000
# 4 0.000000 0.000000 0.000000 0.026732 0.000000 0.000000
# 5 0.000000 0.000000 0.000000 0.000000 0.030610 0.000000
# 6 0.000000 0.000000 0.000000 0.000000 0.000000 -0.024575
#
#
# Mechanical properties :
#
#
# Convention : Reuss Voigt Hill
#
# Bulk Modulus (GPa) = 19.33292 21.55847 20.44570
# Shear Modulus (GPa) = 35.44604 16.51543 25.98074
#
# Velocity S-wave (km/s) = 3.90914 2.66834 3.34675
# Velocity P-wave (km/s) = 5.35816 4.33447 4.87327
#
# Compressibility (1/GPa) = 0.05172523
#
# Stress axis : x y z
#
# Youngs Moduli (GPa) = 76.90155 24.57280 56.53369
#
# Poissons Ratio (x) = 0.13697 -0.13792
# Poissons Ratio (y) = 0.42865 0.37859
# Poissons Ratio (z) = -0.18761 0.16456
#
# Static dielectric constant tensor:
#      x y z
#    x 1.887490 0.000000 0.000000 
#    y 0.000000 1.890800 0.000000 
#    z 0.000000 0.000000 1.878170 
# 
# From -- ./inp_files/45074.got.cif
#   From: 2010.05.17/outbox.cif.g08.bks.cpg/sg64_23_cif.got.tgz:45074.got - 2010.06.03 16:29:19.
