data_PCOD9481967
_publ_section_title
;
Structure prediction by ZEFSAII (Michael W. Deem and Ramdas Pophale) SiO2 
 PCOD9481967
Probable space group: C M C A
;
_chemical_formula_sum "Si O2"
_cell_formula_units_Z 56
_cell_length_a 17.266095
_cell_length_b 18.337687
_cell_length_c 6.870301
_cell_angle_alpha 90.000000
_cell_angle_beta 90.000000
_cell_angle_gamma 90.000000
_cell_volume 2175.276391
_symmetry_space_group_name_H-M "C M C A"
_symmetry_group_IT_number 64
_symmetry_cell_setting 'orthorhombic'
loop_
_space_group_symop_operation_xyz
x,y,z
-x,1/2-y,1/2+z
x,-y,-z
-x,1/2+y,1/2-z
-x,-y,-z
x,1/2+y,1/2-z
-x,y,z
x,1/2-y,1/2+z
1/2+x,1/2+y,z
1/2-x,-y,1/2+z
1/2+x,1/2-y,-z
1/2-x,y,1/2-z
1/2-x,1/2-y,-z
1/2+x,y,1/2-z
1/2-x,1/2+y,z
1/2+x,-y,1/2+z
loop_
_atom_site_type_symbol
_atom_site_label
_atom_site_fract_x
_atom_site_fract_y
_atom_site_fract_z
Si Si1 0.409927 0.414839 0.970075
Si Si2 0.667740 0.693577 0.731919
Si Si3 0.323805 0.422418 0.606841
Si Si4 0.500000 0.748707 0.199139
O O1 0.500000 0.402673 0.024268
O O2 0.356248 0.362481 0.095552
O O3 0.391014 0.500000 0.000000
O O4 0.397749 0.405554 0.741627
O O5 0.750000 0.733578 0.750000
O O6 0.681242 0.639547 0.551919
O O7 0.593726 0.742452 0.698570
O O8 0.331956 0.500000 0.500000
O O9 0.250000 0.425775 0.750000
O O10 0.500000 0.744225 0.448432
#
# Coordination Sequence:
#
# PCOD9481967 Si02
#       4
#    16  16  16   8
#     4  11  23  39  63 107 160 201 248 293 364 462
#     4  12  26  46  78 110 147 205 254 313 396 468
#     4  12  23  37  66 108 162 205 242 296 363 466
#     4  12  34  60  84 110 148 192 268 358 414 460
#
# _framework density 25.743855
#
# number of rings (size 3 to 8) (size 9 to 14) (size 15 to 20)
#    0.000    0.286    7.143    1.714    6.000    1.714 
#    0.000    0.000    0.000    0.000    0.000    0.000 
#    0.000    0.000    0.000    0.000    0.000    0.000 
#
# Total GULP energy -155985.088152 kJ/mol
# GULP energy per Si atom -5570.896005 kJ/mol
# Density = 2.568526 g / cm^3
# Si number density = 25.743855 Si / 1000 Ang^3
#
#
#
# Elastic Constant Matrix: (Units=GPa)
#
#
# Indices 1 2 3 4 5 6 
#
# 1 213.1028 26.5232 44.7112 0.0000 0.0000 0.0000
# 2 26.5232 78.4378 36.3660 0.0000 0.0000 0.0000
# 3 44.7112 36.3660 185.1174 0.0000 0.0000 0.0000
# 4 0.0000 0.0000 0.0000 44.7315 0.0000 0.0000
# 5 0.0000 0.0000 0.0000 0.0000 53.6586 0.0000
# 6 0.0000 0.0000 0.0000 0.0000 0.0000 -2.7542
#
#
#
# Elastic Compliance Matrix: (Units=1/GPa)
#
#
# Indices 1 2 3 4 5 6 
#
# 1 0.005053 -0.001257 -0.000974 0.000000 0.000000 0.000000
# 2 -0.001257 0.014339 -0.002513 0.000000 0.000000 0.000000
# 3 -0.000974 -0.002513 0.006131 0.000000 0.000000 0.000000
# 4 0.000000 0.000000 0.000000 0.022356 0.000000 0.000000
# 5 0.000000 0.000000 0.000000 0.000000 0.018636 0.000000
# 6 0.000000 0.000000 0.000000 0.000000 0.000000 -0.363086
#
#
# Mechanical properties :
#
#
# Convention : Reuss Voigt Hill
#
# Bulk Modulus (GPa) = 62.36281 76.87319 69.61800
# Shear Modulus (GPa) = -17.74705 43.73104 12.99199
#
# Velocity S-wave (km/s) = -2.62843 4.12600 2.24891
# Velocity P-wave (km/s) = 3.88141 7.25425 5.81762
#
# Compressibility (1/GPa) = 0.01603520
#
# Stress axis : x y z
#
# Youngs Moduli (GPa) = 197.88971 69.73822 163.11010
#
# Poissons Ratio (x) = 0.08769 0.15879
# Poissons Ratio (y) = 0.24883 0.40993
# Poissons Ratio (z) = 0.19265 0.17527
#
# Static dielectric constant tensor:
#      x y z
#    x 2.003310 0.000000 0.000000 
#    y 0.000000 2.072100 0.000000 
#    z 0.000000 0.000000 2.021740 
# 
# From -- ./inp_files/1214.got.cif
#   From: 2010.05.17/outbox.cif.g08.bks.cpg/sg64_1_cif.got.tgz:1214.got - 2010.06.03 16:29:19.
