data_PCOD9481693
_publ_section_title
;
Structure prediction by ZEFSAII (Michael W. Deem and Ramdas Pophale) SiO2 
 PCOD9481693
Probable space group: C M C A
;
_chemical_formula_sum "Si O2"
_cell_formula_units_Z 96
_cell_length_a 22.891001
_cell_length_b 8.655234
_cell_length_c 25.256246
_cell_angle_alpha 90.000000
_cell_angle_beta 90.000000
_cell_angle_gamma 90.000000
_cell_volume 5003.943497
_symmetry_space_group_name_H-M "C M C A"
_symmetry_group_IT_number 64
_symmetry_cell_setting 'orthorhombic'
loop_
_space_group_symop_operation_xyz
x,y,z
-x,1/2-y,1/2+z
x,-y,-z
-x,1/2+y,1/2-z
-x,-y,-z
x,1/2+y,1/2-z
-x,y,z
x,1/2-y,1/2+z
1/2+x,1/2+y,z
1/2-x,-y,1/2+z
1/2+x,1/2-y,-z
1/2-x,y,1/2-z
1/2-x,1/2-y,-z
1/2+x,y,1/2-z
1/2-x,1/2+y,z
1/2+x,-y,1/2+z
loop_
_atom_site_type_symbol
_atom_site_label
_atom_site_fract_x
_atom_site_fract_y
_atom_site_fract_z
Si Si1 0.842787 0.370962 0.412399
Si Si2 0.621016 0.787110 0.604429
Si Si3 0.802794 0.186521 0.312939
Si Si4 0.221872 0.873700 0.461277
Si Si5 0.675190 0.675687 0.702791
Si Si6 0.063195 0.686584 0.502306
O O1 0.874038 0.527016 0.392803
O O2 0.830189 0.246983 0.367230
O O3 0.779716 0.434355 0.431762
O O4 0.881571 0.292905 0.458760
O O5 0.677957 0.705008 0.578854
O O6 0.622335 0.722827 0.663951
O O7 0.574428 0.756416 0.557653
O O8 0.733967 0.229055 0.312902
O O9 0.831909 0.278989 0.264062
O O10 0.811012 0.004906 0.304017
O O11 0.250000 0.750000 0.500000
O O12 0.194305 0.000000 0.500000
O O13 0.060681 0.500000 0.500000
O O14 0.000000 0.743071 0.521892
#
# Coordination Sequence:
#
# PCOD9481693 Si02
#       6
#    16  16  16  16  16  16
#     4  11  20  34  53  80 110 145 179 223 270 327
#     4  11  21  33  54  79 111 144 181 223 271 324
#     4  11  22  35  53  77 112 146 183 220 269 324
#     4  12  21  31  47  77 112 143 178 217 265 326
#     4  11  22  35  52  78 110 148 181 222 267 324
#     4   9  19  36  57  81 108 142 183 225 271 320
#
# _framework density 19.184868999999999
#
# number of rings (size 3 to 8) (size 9 to 14) (size 15 to 20)
#    0.000    1.167    5.000    4.500    2.333    0.000 
#    0.000    0.000    0.000    5.500    0.000    0.000 
#    0.000    0.000    0.000    0.000    0.000    0.000 
#
# Total GULP energy -267710.129569 kJ/mol
# GULP energy per Si atom -5577.294366 kJ/mol
# Density = 1.914120 g / cm^3
# Si number density = 19.184869 Si / 1000 Ang^3
#
#
#
# Elastic Constant Matrix: (Units=GPa)
#
#
# Indices 1 2 3 4 5 6 
#
# 1 62.0204 -2.4208 20.6190 0.0000 0.0000 0.0000
# 2 -2.4208 88.0954 11.8982 0.0000 0.0000 0.0000
# 3 20.6190 11.8982 89.7280 0.0000 0.0000 0.0000
# 4 0.0000 0.0000 0.0000 33.1702 0.0000 0.0000
# 5 0.0000 0.0000 0.0000 0.0000 11.6453 0.0000
# 6 0.0000 0.0000 0.0000 0.0000 0.0000 6.3206
#
#
#
# Elastic Compliance Matrix: (Units=1/GPa)
#
#
# Indices 1 2 3 4 5 6 
#
# 1 0.017552 0.001046 -0.004172 0.000000 0.000000 0.000000
# 2 0.001046 0.011621 -0.001781 0.000000 0.000000 0.000000
# 3 -0.004172 -0.001781 0.012340 0.000000 0.000000 0.000000
# 4 0.000000 0.000000 0.000000 0.030148 0.000000 0.000000
# 5 0.000000 0.000000 0.000000 0.000000 0.085872 0.000000
# 6 0.000000 0.000000 0.000000 0.000000 0.000000 0.158214
#
#
# Mechanical properties :
#
#
# Convention : Reuss Voigt Hill
#
# Bulk Modulus (GPa) = 31.54867 33.33739 32.44303
# Shear Modulus (GPa) = 14.87540 24.21036 19.54288
#
# Velocity S-wave (km/s) = 2.78757 3.55625 3.19511
# Velocity P-wave (km/s) = 5.18083 5.85467 5.52803
#
# Compressibility (1/GPa) = 0.03169706
#
# Stress axis : x y z
#
# Youngs Moduli (GPa) = 56.97510 86.05378 81.03948
#
# Poissons Ratio (x) = -0.08999 0.33809
# Poissons Ratio (y) = -0.05958 0.14435
# Poissons Ratio (z) = 0.23769 0.15328
#
# Static dielectric constant tensor:
#      x y z
#    x 1.724460 0.000000 0.000000 
#    y 0.000000 1.682420 0.000000 
#    z 0.000000 0.000000 1.744940 
# 
# From -- ./inp_files/46848.got.cif
#   From: 2010.05.17/outbox.cif.g08.bks.cpg/sg64_24_cif.got.tgz:46848.got - 2010.06.03 16:29:19.
