data_PCOD9481381
_publ_section_title
;
Structure prediction by ZEFSAII (Michael W. Deem and Ramdas Pophale) SiO2 
 PCOD9481381
Probable space group: C M C A
;
_chemical_formula_sum "Si O2"
_cell_formula_units_Z 80
_cell_length_a 22.460974
_cell_length_b 10.779951
_cell_length_c 13.829191
_cell_angle_alpha 90.000000
_cell_angle_beta 90.000000
_cell_angle_gamma 90.000000
_cell_volume 3348.437112
_symmetry_space_group_name_H-M "C M C A"
_symmetry_group_IT_number 64
_symmetry_cell_setting 'orthorhombic'
loop_
_space_group_symop_operation_xyz
x,y,z
-x,1/2-y,1/2+z
x,-y,-z
-x,1/2+y,1/2-z
-x,-y,-z
x,1/2+y,1/2-z
-x,y,z
x,1/2-y,1/2+z
1/2+x,1/2+y,z
1/2-x,-y,1/2+z
1/2+x,1/2-y,-z
1/2-x,y,1/2-z
1/2-x,1/2-y,-z
1/2+x,y,1/2-z
1/2-x,1/2+y,z
1/2+x,-y,1/2+z
loop_
_atom_site_type_symbol
_atom_site_label
_atom_site_fract_x
_atom_site_fract_y
_atom_site_fract_z
Si Si1 0.890885 0.147603 0.477586
Si Si2 0.278435 0.560573 0.395192
Si Si3 0.658505 0.529684 0.202549
Si Si4 0.563772 0.863638 0.363619
Si Si5 0.432185 0.263517 0.828476
O O1 0.826833 0.161997 0.426244
O O2 0.934000 0.227084 0.409778
O O3 0.897676 0.217512 0.578171
O O4 0.901226 0.000000 0.500000
O O5 0.267629 0.500000 0.500000
O O6 0.313956 0.488106 0.307210
O O7 0.215300 0.591833 0.349335
O O8 0.625867 0.436656 0.126915
O O9 0.606028 0.627567 0.218769
O O10 0.500000 0.920180 0.393653
O O11 0.563557 0.846441 0.248319
O O12 0.500000 0.299520 0.852347
#
# Coordination Sequence:
#
# PCOD9481381 Si02
#       5
#    16  16  16  16  16
#     4  11  24  47  69 105 139 185 239 278 353 433
#     4  10  23  46  71  99 140 192 235 286 356 421
#     4  11  24  47  68 108 143 181 245 295 355 418
#     4  11  24  43  71 103 140 184 228 295 357 416
#     4  11  25  43  72 105 141 188 233 297 359 417
#
# _framework density 23.891743000000002
#
# number of rings (size 3 to 8) (size 9 to 14) (size 15 to 20)
#    0.000    1.200    2.000    3.600    2.800    2.400 
#   10.800    2.000    0.000    1.200    0.000    0.000 
#    0.000    0.000    0.000    0.000    0.000    0.000 
#
# Total GULP energy -222706.706942 kJ/mol
# GULP energy per Si atom -5567.667674 kJ/mol
# Density = 2.383736 g / cm^3
# Si number density = 23.891743 Si / 1000 Ang^3
#
#
#
# Elastic Constant Matrix: (Units=GPa)
#
#
# Indices 1 2 3 4 5 6 
#
# 1 169.3515 32.7528 26.2142 0.0000 0.0000 0.0000
# 2 32.7528 57.9407 9.8041 0.0000 0.0000 0.0000
# 3 26.2142 9.8041 111.0094 0.0000 0.0000 0.0000
# 4 0.0000 0.0000 0.0000 34.8820 0.0000 0.0000
# 5 0.0000 0.0000 0.0000 0.0000 -26.7034 0.0000
# 6 0.0000 0.0000 0.0000 0.0000 0.0000 33.8814
#
#
#
# Elastic Compliance Matrix: (Units=1/GPa)
#
#
# Indices 1 2 3 4 5 6 
#
# 1 0.006806 -0.003630 -0.001287 0.000000 0.000000 0.000000
# 2 -0.003630 0.019456 -0.000861 0.000000 0.000000 0.000000
# 3 -0.001287 -0.000861 0.009388 0.000000 0.000000 0.000000
# 4 0.000000 0.000000 0.000000 0.028668 0.000000 0.000000
# 5 0.000000 0.000000 0.000000 0.000000 -0.037448 0.000000
# 6 0.000000 0.000000 0.000000 0.000000 0.000000 0.029515
#
#
# Mechanical properties :
#
#
# Convention : Reuss Voigt Hill
#
# Bulk Modulus (GPa) = 41.50123 52.87154 47.18638
# Shear Modulus (GPa) = 65.81389 26.38071 46.09730
#
# Velocity S-wave (km/s) = 5.25419 3.32652 4.39729
# Velocity P-wave (km/s) = 7.36321 6.07717 6.75089
#
# Compressibility (1/GPa) = 0.02409567
#
# Stress axis : x y z
#
# Youngs Moduli (GPa) = 146.92895 51.39672 106.51732
#
# Poissons Ratio (x) = 0.18655 0.13705
# Poissons Ratio (y) = 0.53329 0.09174
# Poissons Ratio (z) = 0.18905 0.04427
#
# Static dielectric constant tensor:
#      x y z
#    x 1.944680 0.000000 0.000000 
#    y 0.000000 1.966350 0.000000 
#    z 0.000000 0.000000 1.921010 
# 
# From -- ./inp_files/27069.got.cif
#   From: 2010.05.17/outbox.cif.g08.bks.cpg/sg64_14_cif.got.tgz:27069.got - 2010.06.03 16:29:19.
