data_PCOD9481053
_publ_section_title
;
Structure prediction by ZEFSAII (Michael W. Deem and Ramdas Pophale) SiO2 
 PCOD9481053
Probable space group: C M C A
;
_chemical_formula_sum "Si O2"
_cell_formula_units_Z 96
_cell_length_a 14.848068
_cell_length_b 20.305571
_cell_length_c 15.509107
_cell_angle_alpha 90.000000
_cell_angle_beta 90.000000
_cell_angle_gamma 90.000000
_cell_volume 4675.972481
_symmetry_space_group_name_H-M "C M C A"
_symmetry_group_IT_number 64
_symmetry_cell_setting 'orthorhombic'
loop_
_space_group_symop_operation_xyz
x,y,z
-x,1/2-y,1/2+z
x,-y,-z
-x,1/2+y,1/2-z
-x,-y,-z
x,1/2+y,1/2-z
-x,y,z
x,1/2-y,1/2+z
1/2+x,1/2+y,z
1/2-x,-y,1/2+z
1/2+x,1/2-y,-z
1/2-x,y,1/2-z
1/2-x,1/2-y,-z
1/2+x,y,1/2-z
1/2-x,1/2+y,z
1/2+x,-y,1/2+z
loop_
_atom_site_type_symbol
_atom_site_label
_atom_site_fract_x
_atom_site_fract_y
_atom_site_fract_z
Si Si1 0.896766 0.370837 0.601397
Si Si2 0.097833 0.463890 0.089552
Si Si3 0.642984 0.518887 0.242547
Si Si4 0.174445 0.239351 0.675017
Si Si5 0.099086 0.868360 0.202179
Si Si6 0.244940 0.142678 0.944815
O O1 0.887796 0.431420 0.668682
O O2 0.881972 0.304423 0.656316
O O3 0.813667 0.370619 0.531707
O O4 0.000000 0.372338 0.565507
O O5 0.109269 0.522528 0.159528
O O6 0.182315 0.414331 0.078574
O O7 0.000000 0.430688 0.106329
O O8 0.093147 0.500000 0.000000
O O9 0.750000 0.521704 0.250000
O O10 0.611038 0.444777 0.223524
O O11 0.250000 0.254291 0.750000
O O12 0.120612 0.179244 0.718395
O O13 0.206801 0.211850 0.581013
O O14 0.170825 0.856570 0.129274
O O15 0.000000 0.854739 0.170117
#
# Coordination Sequence:
#
# PCOD9481053 Si02
#       6
#    16  16  16  16  16  16
#     4  12  26  41  65 101 141 173 218 278 343 400
#     4  11  23  40  63  94 127 169 225 274 324 386
#     4  12  22  42  66  96 131 175 215 275 334 391
#     4  10  22  43  66  92 128 184 227 269 323 402
#     4  11  21  39  68  96 130 172 224 268 326 402
#     4  11  23  42  64  96 133 172 221 270 337 394
#
# _framework density 20.530488999999999
#
# number of rings (size 3 to 8) (size 9 to 14) (size 15 to 20)
#    0.000    0.833    3.333    5.000    0.000    0.667 
#    0.000    1.667    0.000    3.000    0.000    0.000 
#    0.000    0.000    0.000    0.000    0.000    0.000 
#
# Total GULP energy -267426.990217 kJ/mol
# GULP energy per Si atom -5571.395630 kJ/mol
# Density = 2.048376 g / cm^3
# Si number density = 20.530489 Si / 1000 Ang^3
#
#
#
# Elastic Constant Matrix: (Units=GPa)
#
#
# Indices 1 2 3 4 5 6 
#
# 1 149.6200 34.8427 18.1379 0.0000 0.0000 0.0000
# 2 34.8427 82.0307 40.4881 0.0000 0.0000 0.0000
# 3 18.1379 40.4881 95.3116 0.0000 0.0000 0.0000
# 4 0.0000 0.0000 0.0000 26.3218 0.0000 0.0000
# 5 0.0000 0.0000 0.0000 0.0000 30.9874 0.0000
# 6 0.0000 0.0000 0.0000 0.0000 0.0000 38.7383
#
#
#
# Elastic Compliance Matrix: (Units=1/GPa)
#
#
# Indices 1 2 3 4 5 6 
#
# 1 0.007418 -0.003105 -0.000093 0.000000 0.000000 0.000000
# 2 -0.003105 0.016724 -0.006514 0.000000 0.000000 0.000000
# 3 -0.000093 -0.006514 0.013276 0.000000 0.000000 0.000000
# 4 0.000000 0.000000 0.000000 0.037991 0.000000 0.000000
# 5 0.000000 0.000000 0.000000 0.000000 0.032271 0.000000
# 6 0.000000 0.000000 0.000000 0.000000 0.000000 0.025814
#
#
# Mechanical properties :
#
#
# Convention : Reuss Voigt Hill
#
# Bulk Modulus (GPa) = 55.56711 57.09997 56.33354
# Shear Modulus (GPa) = 31.46300 34.77573 33.11936
#
# Velocity S-wave (km/s) = 3.91896 4.12012 4.02080
# Velocity P-wave (km/s) = 6.89943 7.10679 7.00388
#
# Compressibility (1/GPa) = 0.01799626
#
# Stress axis : x y z
#
# Youngs Moduli (GPa) = 134.80873 59.79298 75.32117
#
# Poissons Ratio (x) = 0.18566 0.00698
# Poissons Ratio (y) = 0.41859 0.49061
# Poissons Ratio (z) = 0.01249 0.38947
#
# Static dielectric constant tensor:
#      x y z
#    x 1.807820 0.000000 0.000000 
#    y 0.000000 1.732400 0.000000 
#    z 0.000000 0.000000 1.863050 
# 
# From -- ./inp_files/23921.got.cif
#   From: 2010.05.17/outbox.cif.g08.bks.cpg/sg64_12_cif.got.tgz:23921.got - 2010.06.03 16:29:19.
