data_PCOD9481579
_publ_section_title
;
Structure prediction by ZEFSAII (Michael W. Deem and Ramdas Pophale) SiO2 
 PCOD9481579
Probable space group: C M C A
;
_chemical_formula_sum "Si O2"
_cell_formula_units_Z 96
_cell_length_a 24.249178
_cell_length_b 12.357209
_cell_length_c 14.128202
_cell_angle_alpha 90.000000
_cell_angle_beta 90.000000
_cell_angle_gamma 90.000000
_cell_volume 4233.546255
_symmetry_space_group_name_H-M "C M C A"
_symmetry_group_IT_number 64
_symmetry_cell_setting 'orthorhombic'
loop_
_space_group_symop_operation_xyz
x,y,z
-x,1/2-y,1/2+z
x,-y,-z
-x,1/2+y,1/2-z
-x,-y,-z
x,1/2+y,1/2-z
-x,y,z
x,1/2-y,1/2+z
1/2+x,1/2+y,z
1/2-x,-y,1/2+z
1/2+x,1/2-y,-z
1/2-x,y,1/2-z
1/2-x,1/2-y,-z
1/2+x,y,1/2-z
1/2-x,1/2+y,z
1/2+x,-y,1/2+z
loop_
_atom_site_type_symbol
_atom_site_label
_atom_site_fract_x
_atom_site_fract_y
_atom_site_fract_z
Si Si1 0.500000 0.631929 0.117388
Si Si2 0.777432 0.139061 0.158217
Si Si3 0.659039 0.659895 0.602880
Si Si4 0.836681 0.303372 0.903134
Si Si5 0.782279 0.429946 0.405257
Si Si6 0.914105 0.758479 0.250406
Si Si7 0.000000 0.870329 0.110534
O O1 0.550784 0.687688 0.174706
O O2 0.500000 0.500800 0.124472
O O3 0.500000 0.846513 0.503101
O O4 0.750000 0.192649 0.250000
O O5 0.822520 0.214585 0.113744
O O6 0.722537 0.137757 0.094108
O O7 0.796748 0.017827 0.174812
O O8 0.634377 0.653185 0.497770
O O9 0.718058 0.601264 0.609015
O O10 0.616912 0.649075 0.688314
O O11 0.818925 0.177081 0.905414
O O12 0.870989 0.316031 0.807782
O O13 0.793207 0.500000 0.500000
O O14 0.949221 0.815423 0.167207
#
# Coordination Sequence:
#
# PCOD9481579 Si02
#       7
#     8  16  16  16  16  16   8
#     4  10  24  50  74  92 126 158 202 282 346 400
#     4  11  21  35  54  82 130 179 215 252 299 359
#     4  11  22  38  58  89 130 171 215 256 308 371
#     4  11  22  38  58  90 131 172 215 254 310 375
#     4  11  21  36  55  87 134 184 215 253 292 356
#     4  11  24  41  69  98 124 160 211 272 334 392
#     4  10  24  50  74  98 120 156 212 272 352 414
#
# _framework density 22.676024000000002
#
# number of rings (size 3 to 8) (size 9 to 14) (size 15 to 20)
#    0.000    1.167    5.000    2.000    2.333    2.667 
#    3.000    0.000    0.000    5.000    0.000    0.000 
#    0.000    0.000    0.000    0.000    0.000    0.000 
#
# Total GULP energy -267716.052802 kJ/mol
# GULP energy per Si atom -5577.417767 kJ/mol
# Density = 2.262441 g / cm^3
# Si number density = 22.676024 Si / 1000 Ang^3
#
#
#
# Elastic Constant Matrix: (Units=GPa)
#
#
# Indices 1 2 3 4 5 6 
#
# 1 73.2325 11.0954 33.9056 0.0000 0.0000 0.0000
# 2 11.0954 99.0218 17.3109 0.0000 0.0000 0.0000
# 3 33.9056 17.3109 147.5310 0.0000 0.0000 0.0000
# 4 0.0000 0.0000 0.0000 29.6607 0.0000 0.0000
# 5 0.0000 0.0000 0.0000 0.0000 34.0179 0.0000
# 6 0.0000 0.0000 0.0000 0.0000 0.0000 0.4376
#
#
#
# Elastic Compliance Matrix: (Units=1/GPa)
#
#
# Indices 1 2 3 4 5 6 
#
# 1 0.015404 -0.001130 -0.003408 0.000000 0.000000 0.000000
# 2 -0.001130 0.010393 -0.000960 0.000000 0.000000 0.000000
# 3 -0.003408 -0.000960 0.007674 0.000000 0.000000 0.000000
# 4 0.000000 0.000000 0.000000 0.033715 0.000000 0.000000
# 5 0.000000 0.000000 0.000000 0.000000 0.029396 0.000000
# 6 0.000000 0.000000 0.000000 0.000000 0.000000 2.285039
#
#
# Mechanical properties :
#
#
# Convention : Reuss Voigt Hill
#
# Bulk Modulus (GPa) = 44.49183 49.37878 46.93531
# Shear Modulus (GPa) = 2.08324 29.98814 16.03569
#
# Velocity S-wave (km/s) = 0.95953 3.64051 2.66214
# Velocity P-wave (km/s) = 4.57065 6.28444 5.49477
#
# Compressibility (1/GPa) = 0.02247604
#
# Stress axis : x y z
#
# Youngs Moduli (GPa) = 64.91809 96.21652 130.31063
#
# Poissons Ratio (x) = 0.10876 0.44404
# Poissons Ratio (y) = 0.07338 0.12506
# Poissons Ratio (z) = 0.22121 0.09234
#
# Static dielectric constant tensor:
#      x y z
#    x 1.894530 0.000000 0.000000 
#    y 0.000000 1.867580 0.000000 
#    z 0.000000 0.000000 2.032810 
# 
# From -- ./inp_files/35455.got.cif
#   From: 2010.05.17/outbox.cif.g08.bks.cpg/sg64_18_cif.got.tgz:35455.got - 2010.06.03 16:29:19.
