data_PCOD9481349
_publ_section_title
;
Structure prediction by ZEFSAII (Michael W. Deem and Ramdas Pophale) SiO2 
 PCOD9481349
Probable space group: C M C A
;
_chemical_formula_sum "Si O2"
_cell_formula_units_Z 88
_cell_length_a 23.527717
_cell_length_b 21.690421
_cell_length_c 8.788432
_cell_angle_alpha 90.000000
_cell_angle_beta 90.000000
_cell_angle_gamma 90.000000
_cell_volume 4484.966113
_symmetry_space_group_name_H-M "C M C A"
_symmetry_group_IT_number 64
_symmetry_cell_setting 'orthorhombic'
loop_
_space_group_symop_operation_xyz
x,y,z
-x,1/2-y,1/2+z
x,-y,-z
-x,1/2+y,1/2-z
-x,-y,-z
x,1/2+y,1/2-z
-x,y,z
x,1/2-y,1/2+z
1/2+x,1/2+y,z
1/2-x,-y,1/2+z
1/2+x,1/2-y,-z
1/2-x,y,1/2-z
1/2-x,1/2-y,-z
1/2+x,y,1/2-z
1/2-x,1/2+y,z
1/2+x,-y,1/2+z
loop_
_atom_site_type_symbol
_atom_site_label
_atom_site_fract_x
_atom_site_fract_y
_atom_site_fract_z
Si Si1 0.099774 0.693172 0.499649
Si Si2 0.500000 0.119839 0.319228
Si Si3 0.585312 0.567268 0.436952
Si Si4 0.280662 0.437697 0.588054
Si Si5 0.230073 0.313316 0.575807
Si Si6 0.932819 0.318832 0.156327
O O1 0.162505 0.678786 0.438326
O O2 0.086786 0.763871 0.454032
O O3 0.097770 0.685665 0.681574
O O4 0.050400 0.652399 0.423599
O O5 0.451233 0.089510 0.205654
O O6 0.569107 0.500000 0.500000
O O7 0.651641 0.565263 0.394568
O O8 0.576746 0.617074 0.570946
O O9 0.266077 0.500000 0.500000
O O10 0.250000 0.440133 0.750000
O O11 0.259820 0.374561 0.508959
O O12 0.250000 0.309540 0.750000
O O13 0.250000 0.250000 0.500000
O O14 0.000000 0.310237 0.184748
#
# Coordination Sequence:
#
# PCOD9481349 Si02
#       6
#    16   8  16  16  16  16
#     4  12  25  40  67 101 132 175 220 289 344 407
#     4  12  21  40  63  92 131 170 216 272 332 400
#     4  11  25  44  69  95 135 185 224 275 341 409
#     4  10  23  44  68  98 131 177 228 279 340 407
#     4  11  23  42  64  95 132 169 220 277 341 403
#     4  12  23  43  64  98 135 171 227 268 340 411
#
# _framework density 19.621106999999999
#
# number of rings (size 3 to 8) (size 9 to 14) (size 15 to 20)
#    0.000    0.727    2.727    5.727    0.000    3.636 
#    0.000    1.818    0.000    0.000    0.000    0.000 
#    0.000    0.000    0.000    0.000    0.000    0.000 
#
# Total GULP energy -244955.953140 kJ/mol
# GULP energy per Si atom -5567.180753 kJ/mol
# Density = 1.957645 g / cm^3
# Si number density = 19.621107 Si / 1000 Ang^3
#
#
#
# Elastic Constant Matrix: (Units=GPa)
#
#
# Indices 1 2 3 4 5 6 
#
# 1 112.1482 2.7007 -9.8471 0.0000 0.0000 0.0000
# 2 2.7007 109.8012 20.8301 0.0000 0.0000 0.0000
# 3 -9.8471 20.8301 27.2236 0.0000 0.0000 0.0000
# 4 0.0000 0.0000 0.0000 18.7784 0.0000 0.0000
# 5 0.0000 0.0000 0.0000 0.0000 32.1154 0.0000
# 6 0.0000 0.0000 0.0000 0.0000 0.0000 15.8576
#
#
#
# Elastic Compliance Matrix: (Units=1/GPa)
#
#
# Indices 1 2 3 4 5 6 
#
# 1 0.009305 -0.001015 0.004142 0.000000 0.000000 0.000000
# 2 -0.001015 0.010764 -0.008603 0.000000 0.000000 0.000000
# 3 0.004142 -0.008603 0.044814 0.000000 0.000000 0.000000
# 4 0.000000 0.000000 0.000000 0.053253 0.000000 0.000000
# 5 0.000000 0.000000 0.000000 0.000000 0.031138 0.000000
# 6 0.000000 0.000000 0.000000 0.000000 0.000000 0.063061
#
#
# Mechanical properties :
#
#
# Convention : Reuss Voigt Hill
#
# Bulk Modulus (GPa) = 18.54212 30.72671 24.63442
# Shear Modulus (GPa) = 20.72419 29.04957 24.88688
#
# Velocity S-wave (km/s) = 3.25348 3.85194 3.56529
# Velocity P-wave (km/s) = 4.85635 5.95628 5.43421
#
# Compressibility (1/GPa) = 0.05393126
#
# Stress axis : x y z
#
# Youngs Moduli (GPa) = 107.47037 92.89836 22.31447
#
# Poissons Ratio (x) = 0.09426 -0.09243
# Poissons Ratio (y) = 0.10904 0.19198
# Poissons Ratio (z) = -0.44514 0.79924
#
# Static dielectric constant tensor:
#      x y z
#    x 1.687700 0.000000 0.000000 
#    y 0.000000 1.710490 0.000000 
#    z 0.000000 0.000000 1.611480 
# 
# From -- ./inp_files/9364.got.cif
#   From: 2010.05.17/outbox.cif.g08.bks.cpg/sg64_5_cif.got.tgz:9364.got - 2010.06.03 16:29:19.
