data_PCOD9481871
_publ_section_title
;
Structure prediction by ZEFSAII (Michael W. Deem and Ramdas Pophale) SiO2 
 PCOD9481871
Probable space group: C M C A
;
_chemical_formula_sum "Si O2"
_cell_formula_units_Z 64
_cell_length_a 16.373042
_cell_length_b 8.387259
_cell_length_c 19.720916
_cell_angle_alpha 90.000000
_cell_angle_beta 90.000000
_cell_angle_gamma 90.000000
_cell_volume 2708.173683
_symmetry_space_group_name_H-M "C M C A"
_symmetry_group_IT_number 64
_symmetry_cell_setting 'orthorhombic'
loop_
_space_group_symop_operation_xyz
x,y,z
-x,1/2-y,1/2+z
x,-y,-z
-x,1/2+y,1/2-z
-x,-y,-z
x,1/2+y,1/2-z
-x,y,z
x,1/2-y,1/2+z
1/2+x,1/2+y,z
1/2-x,-y,1/2+z
1/2+x,1/2-y,-z
1/2-x,y,1/2-z
1/2-x,1/2-y,-z
1/2+x,y,1/2-z
1/2-x,1/2+y,z
1/2+x,-y,1/2+z
loop_
_atom_site_type_symbol
_atom_site_label
_atom_site_fract_x
_atom_site_fract_y
_atom_site_fract_z
Si Si1 0.595199 0.441613 0.152757
Si Si2 0.401199 0.248582 0.529822
Si Si3 0.098278 0.914128 0.398208
Si Si4 0.343093 0.751327 0.229098
O O1 0.500000 0.480751 0.144393
O O2 0.629415 0.390590 0.079172
O O3 0.604333 0.292498 0.204336
O O4 0.635721 0.588572 0.190819
O O5 0.500000 0.230769 0.526472
O O6 0.385454 0.414715 0.568839
O O7 0.374153 0.280078 0.453002
O O8 0.139670 0.886900 0.326760
O O9 0.000000 0.900358 0.389934
O O10 0.250000 0.752538 0.250000
#
# Coordination Sequence:
#
# PCOD9481871 Si02
#       4
#    16  16  16  16
#     4  11  22  39  62  89 118 160 210 254 298 360
#     4   8  17  34  63  97 124 151 201 261 311 362
#     4   9  17  36  64  95 126 160 200 254 314 371
#     4  12  25  39  57  87 127 165 202 251 305 359
#
# _framework density 23.632162000000001
#
# number of rings (size 3 to 8) (size 9 to 14) (size 15 to 20)
#    0.000    2.000    0.000    6.000    0.000    3.000 
#    0.000    6.250    0.000    3.000    0.000    0.000 
#    0.000    0.000    0.000    0.000    0.000    0.000 
#
# Total GULP energy -179045.817255 kJ/mol
# GULP energy per Si atom -5595.181789 kJ/mol
# Density = 2.357837 g / cm^3
# Si number density = 23.632162 Si / 1000 Ang^3
#
#
#
# Elastic Constant Matrix: (Units=GPa)
#
#
# Indices 1 2 3 4 5 6 
#
# 1 49.0587 15.6699 21.4024 0.0000 0.0000 0.0000
# 2 15.6699 51.8543 -7.8863 0.0000 0.0000 0.0000
# 3 21.4024 -7.8863 95.1739 0.0000 0.0000 0.0000
# 4 0.0000 0.0000 0.0000 48.7660 0.0000 0.0000
# 5 0.0000 0.0000 0.0000 0.0000 17.5468 0.0000
# 6 0.0000 0.0000 0.0000 0.0000 0.0000 31.6301
#
#
#
# Elastic Compliance Matrix: (Units=1/GPa)
#
#
# Indices 1 2 3 4 5 6 
#
# 1 0.026108 -0.008894 -0.006608 0.000000 0.000000 0.000000
# 2 -0.008894 0.022561 0.003870 0.000000 0.000000 0.000000
# 3 -0.006608 0.003870 0.012314 0.000000 0.000000 0.000000
# 4 0.000000 0.000000 0.000000 0.020506 0.000000 0.000000
# 5 0.000000 0.000000 0.000000 0.000000 0.056990 0.000000
# 6 0.000000 0.000000 0.000000 0.000000 0.000000 0.031615
#
#
# Mechanical properties :
#
#
# Convention : Reuss Voigt Hill
#
# Bulk Modulus (GPa) = 26.51341 28.27320 27.39331
# Shear Modulus (GPa) = 24.27984 30.71532 27.49758
#
# Velocity S-wave (km/s) = 3.20880 3.60908 3.41481
# Velocity P-wave (km/s) = 4.99720 5.41822 5.21197
#
# Compressibility (1/GPa) = 0.03771676
#
# Stress axis : x y z
#
# Youngs Moduli (GPa) = 38.30311 44.32405 81.21023
#
# Poissons Ratio (x) = 0.39424 0.53664
# Poissons Ratio (y) = 0.34068 -0.31425
# Poissons Ratio (z) = 0.25311 -0.17152
#
# Static dielectric constant tensor:
#      x y z
#    x 1.831890 0.000000 0.000000 
#    y 0.000000 1.976490 0.000000 
#    z 0.000000 0.000000 1.884020 
# 
# From -- ./inp_files/39800.got.cif
#   From: 2010.05.17/outbox.cif.g08.bks.cpg/sg64_20_cif.got.tgz:39800.got - 2010.06.03 16:29:19.
