data_PCOD9481500
_publ_section_title
;
Structure prediction by ZEFSAII (Michael W. Deem and Ramdas Pophale) SiO2 
 PCOD9481500
Probable space group: C M C A
;
_chemical_formula_sum "Si O2"
_cell_formula_units_Z 56
_cell_length_a 14.346781
_cell_length_b 22.214844
_cell_length_c 8.442670
_cell_angle_alpha 90.000000
_cell_angle_beta 90.000000
_cell_angle_gamma 90.000000
_cell_volume 2690.776035
_symmetry_space_group_name_H-M "C M C A"
_symmetry_group_IT_number 64
_symmetry_cell_setting 'orthorhombic'
loop_
_space_group_symop_operation_xyz
x,y,z
-x,1/2-y,1/2+z
x,-y,-z
-x,1/2+y,1/2-z
-x,-y,-z
x,1/2+y,1/2-z
-x,y,z
x,1/2-y,1/2+z
1/2+x,1/2+y,z
1/2-x,-y,1/2+z
1/2+x,1/2-y,-z
1/2-x,y,1/2-z
1/2-x,1/2-y,-z
1/2+x,y,1/2-z
1/2-x,1/2+y,z
1/2+x,-y,1/2+z
loop_
_atom_site_type_symbol
_atom_site_label
_atom_site_fract_x
_atom_site_fract_y
_atom_site_fract_z
Si Si1 0.750000 0.231984 0.750000
Si Si2 0.500000 0.911261 0.916492
Si Si3 0.697076 0.061388 0.583828
Si Si4 0.317430 0.835817 0.972019
Si Si5 0.500000 0.967766 0.269999
O O1 0.697500 0.277176 0.633488
O O2 0.820338 0.190302 0.650690
O O3 0.406657 0.871868 0.913793
O O4 0.500000 0.961368 0.777754
O O5 0.500000 0.939331 0.093917
O O6 0.750000 0.066184 0.750000
O O7 0.729258 0.118218 0.478414
O O8 0.589825 0.052768 0.631082
O O9 0.729404 0.000000 0.500000
#
# Coordination Sequence:
#
# PCOD9481500 Si02
#       5
#     8   8  16  16   8
#     4  10  24  44  66  92 126 182 228 262 336 384
#     4  11  22  40  68  98 132 170 219 276 328 398
#     4  12  24  41  67  97 135 173 211 276 335 397
#     4  11  23  44  67  94 131 175 220 278 325 395
#     4  11  23  40  60 104 134 168 218 262 342 401
#
# _framework density 20.811838999999999
#
# number of rings (size 3 to 8) (size 9 to 14) (size 15 to 20)
#    0.000    0.857    4.286    2.143    6.000    1.143 
#    0.000    5.714    0.000    0.000    0.000    0.000 
#    0.000    0.000    0.000    0.000    0.000    0.000 
#
# Total GULP energy -156408.353011 kJ/mol
# GULP energy per Si atom -5586.012608 kJ/mol
# Density = 2.076447 g / cm^3
# Si number density = 20.811839 Si / 1000 Ang^3
#
#
#
# Elastic Constant Matrix: (Units=GPa)
#
#
# Indices 1 2 3 4 5 6 
#
# 1 142.4545 58.5689 24.4678 0.0000 0.0000 0.0000
# 2 58.5689 128.5157 23.1933 0.0000 0.0000 0.0000
# 3 24.4678 23.1933 43.0440 0.0000 0.0000 0.0000
# 4 0.0000 0.0000 0.0000 41.6522 0.0000 0.0000
# 5 0.0000 0.0000 0.0000 0.0000 12.2189 0.0000
# 6 0.0000 0.0000 0.0000 0.0000 0.0000 124.7138
#
#
#
# Elastic Compliance Matrix: (Units=1/GPa)
#
#
# Indices 1 2 3 4 5 6 
#
# 1 0.009026 -0.003531 -0.003228 0.000000 0.000000 0.000000
# 2 -0.003531 0.010001 -0.003382 0.000000 0.000000 0.000000
# 3 -0.003228 -0.003382 0.026889 0.000000 0.000000 0.000000
# 4 0.000000 0.000000 0.000000 0.024008 0.000000 0.000000
# 5 0.000000 0.000000 0.000000 0.000000 0.081840 0.000000
# 6 0.000000 0.000000 0.000000 0.000000 0.000000 0.008018
#
#
# Mechanical properties :
#
#
# Convention : Reuss Voigt Hill
#
# Bulk Modulus (GPa) = 39.00985 58.49714 48.75350
# Shear Modulus (GPa) = 26.50996 49.56925 38.03961
#
# Velocity S-wave (km/s) = 3.57289 4.88564 4.27990
# Velocity P-wave (km/s) = 5.98377 7.74562 6.92099
#
# Compressibility (1/GPa) = 0.02563455
#
# Stress axis : x y z
#
# Youngs Moduli (GPa) = 110.79203 99.99464 37.18980
#
# Poissons Ratio (x) = 0.35306 0.12005
# Poissons Ratio (y) = 0.39119 0.12576
# Poissons Ratio (z) = 0.35765 0.33813
#
# Static dielectric constant tensor:
#      x y z
#    x 1.725290 0.000000 0.000000 
#    y 0.000000 1.753670 0.000000 
#    z 0.000000 0.000000 1.794110 
# 
# From -- ./inp_files/5390.got.cif
#   From: 2010.05.17/outbox.cif.g08.bks.cpg/sg64_3_cif.got.tgz:5390.got - 2010.06.03 16:29:19.
