data_PCOD9481906
_publ_section_title
;
Structure prediction by ZEFSAII (Michael W. Deem and Ramdas Pophale) SiO2 
 PCOD9481906
Probable space group: C M C A
;
_chemical_formula_sum "Si O2"
_cell_formula_units_Z 72
_cell_length_a 23.500745
_cell_length_b 14.733581
_cell_length_c 7.306681
_cell_angle_alpha 90.000000
_cell_angle_beta 90.000000
_cell_angle_gamma 90.000000
_cell_volume 2529.939246
_symmetry_space_group_name_H-M "C M C A"
_symmetry_group_IT_number 64
_symmetry_cell_setting 'orthorhombic'
loop_
_space_group_symop_operation_xyz
x,y,z
-x,1/2-y,1/2+z
x,-y,-z
-x,1/2+y,1/2-z
-x,-y,-z
x,1/2+y,1/2-z
-x,y,z
x,1/2-y,1/2+z
1/2+x,1/2+y,z
1/2-x,-y,1/2+z
1/2+x,1/2-y,-z
1/2-x,y,1/2-z
1/2-x,1/2-y,-z
1/2+x,y,1/2-z
1/2-x,1/2+y,z
1/2+x,-y,1/2+z
loop_
_atom_site_type_symbol
_atom_site_label
_atom_site_fract_x
_atom_site_fract_y
_atom_site_fract_z
Si Si1 0.750000 0.811424 0.750000
Si Si2 0.321030 0.014752 0.277330
Si Si3 0.558701 0.940032 0.685745
Si Si4 0.156687 0.166554 0.637610
Si Si5 0.431840 0.772366 0.437592
O O1 0.793921 0.745482 0.861583
O O2 0.704575 0.891376 0.799074
O O3 0.306403 0.923355 0.172571
O O4 0.314466 0.000000 0.500000
O O5 0.386490 0.021892 0.225016
O O6 0.500000 0.949834 0.789574
O O7 0.565916 0.836719 0.618690
O O8 0.554546 0.000000 0.500000
O O9 0.114820 0.175651 0.814641
O O10 0.105562 0.185010 0.493152
O O11 0.500000 0.766484 0.387684
#
# Coordination Sequence:
#
# PCOD9481906 Si02
#       5
#     8  16  16  16  16
#     4  12  26  40  62  98 134 170 222 284 324 372
#     4  11  22  42  63  90 126 178 223 260 321 406
#     4   9  16  34  63  90 117 161 217 259 302 385
#     4  12  24  43  69  99 131 176 222 270 330 389
#     4  11  23  41  68 100 133 166 215 278 333 389
#
# _framework density 28.459181000000001
#
# number of rings (size 3 to 8) (size 9 to 14) (size 15 to 20)
#    0.000    1.111    6.667    1.333    0.000    6.222 
#    0.000    0.000    0.000    1.333    0.000    0.000 
#    0.000    0.000    0.000    0.000    0.000    0.000 
#
# Total GULP energy -200584.075741 kJ/mol
# GULP energy per Si atom -5571.779882 kJ/mol
# Density = 2.839441 g / cm^3
# Si number density = 28.459181 Si / 1000 Ang^3
#
#
#
# Elastic Constant Matrix: (Units=GPa)
#
#
# Indices 1 2 3 4 5 6 
#
# 1 255.6369 33.7376 17.4991 0.0000 0.0000 0.0000
# 2 33.7376 214.2639 23.3252 0.0000 0.0000 0.0000
# 3 17.4991 23.3252 84.3261 0.0000 0.0000 0.0000
# 4 0.0000 0.0000 0.0000 21.4831 0.0000 0.0000
# 5 0.0000 0.0000 0.0000 0.0000 40.7039 0.0000
# 6 0.0000 0.0000 0.0000 0.0000 0.0000 116.5551
#
#
#
# Elastic Compliance Matrix: (Units=1/GPa)
#
#
# Indices 1 2 3 4 5 6 
#
# 1 0.004032 -0.000561 -0.000682 0.000000 0.000000 0.000000
# 2 -0.000561 0.004890 -0.001236 0.000000 0.000000 0.000000
# 3 -0.000682 -0.001236 0.012342 0.000000 0.000000 0.000000
# 4 0.000000 0.000000 0.000000 0.046548 0.000000 0.000000
# 5 0.000000 0.000000 0.000000 0.000000 0.024568 0.000000
# 6 0.000000 0.000000 0.000000 0.000000 0.000000 0.008580
#
#
# Mechanical properties :
#
#
# Convention : Reuss Voigt Hill
#
# Bulk Modulus (GPa) = 61.32243 78.15009 69.73626
# Shear Modulus (GPa) = 44.90214 67.72607 56.31411
#
# Velocity S-wave (km/s) = 3.97643 4.88357 4.45316
# Velocity P-wave (km/s) = 6.53276 7.70189 7.14129
#
# Compressibility (1/GPa) = 0.01630725
#
# Stress axis : x y z
#
# Youngs Moduli (GPa) = 247.98720 204.49838 81.02319
#
# Poissons Ratio (x) = 0.11467 0.05523
# Poissons Ratio (y) = 0.13905 0.10017
# Poissons Ratio (z) = 0.16905 0.25281
#
# Static dielectric constant tensor:
#      x y z
#    x 2.350970 0.000000 0.000000 
#    y 0.000000 2.268090 0.000000 
#    z 0.000000 0.000000 1.751340 
# 
# From -- ./inp_files/9991.got.cif
#   From: 2010.05.17/outbox.cif.g08.bks.cpg/sg64_5_cif.got.tgz:9991.got - 2010.06.03 16:29:19.
