data_PCOD9481671
_publ_section_title
;
Structure prediction by ZEFSAII (Michael W. Deem and Ramdas Pophale) SiO2 
 PCOD9481671
Probable space group: C M C A
;
_chemical_formula_sum "Si O2"
_cell_formula_units_Z 80
_cell_length_a 9.932742
_cell_length_b 23.629817
_cell_length_c 16.772666
_cell_angle_alpha 90.000000
_cell_angle_beta 90.000000
_cell_angle_gamma 90.000000
_cell_volume 3936.693580
_symmetry_space_group_name_H-M "C M C A"
_symmetry_group_IT_number 64
_symmetry_cell_setting 'orthorhombic'
loop_
_space_group_symop_operation_xyz
x,y,z
-x,1/2-y,1/2+z
x,-y,-z
-x,1/2+y,1/2-z
-x,-y,-z
x,1/2+y,1/2-z
-x,y,z
x,1/2-y,1/2+z
1/2+x,1/2+y,z
1/2-x,-y,1/2+z
1/2+x,1/2-y,-z
1/2-x,y,1/2-z
1/2-x,1/2-y,-z
1/2+x,y,1/2-z
1/2-x,1/2+y,z
1/2+x,-y,1/2+z
loop_
_atom_site_type_symbol
_atom_site_label
_atom_site_fract_x
_atom_site_fract_y
_atom_site_fract_z
Si Si1 0.500000 0.458923 0.852249
Si Si2 0.000000 0.324761 0.667619
Si Si3 0.500000 0.850264 0.119324
Si Si4 0.720072 0.744844 0.594551
Si Si5 0.000000 0.771165 0.657075
Si Si6 0.205683 0.524128 0.087139
Si Si7 0.500000 0.383294 0.559138
Si Si8 0.000000 0.462387 0.198064
O O1 0.500000 0.392650 0.827356
O O2 0.363018 0.469465 0.899706
O O3 0.500000 0.503950 0.780381
O O4 0.131485 0.299019 0.622952
O O5 0.000000 0.298883 0.756139
O O6 0.371949 0.809074 0.114777
O O7 0.500000 0.894555 0.191653
O O8 0.500000 0.884678 0.036238
O O9 0.750000 0.750000 0.500000
O O10 0.860479 0.739587 0.641234
O O11 0.000000 0.820102 0.590105
O O12 0.132103 0.484168 0.150787
O O13 0.129642 0.584014 0.092176
O O14 0.177231 0.500000 0.000000
#
# Coordination Sequence:
#
# PCOD9481671 Si02
#       8
#     8   8   8  16   8  16   8   8
#     4  12  26  41  65 105 136 165 230 304 353 386
#     4  11  25  42  65  97 139 174 213 290 358 407
#     4  11  22  43  69  96 131 184 231 273 344 423
#     4  11  23  42  68 101 134 177 234 279 339 427
#     4  12  22  40  67  99 135 167 222 285 336 394
#     4  11  22  40  65  95 128 173 229 281 339 411
#     4  11  19  39  74  93 126 181 220 270 340 426
#     4  11  23  44  66  91 135 187 227 267 352 437
#
# _framework density 20.321622000000001
#
# number of rings (size 3 to 8) (size 9 to 14) (size 15 to 20)
#    0.000    0.800    4.000    5.100    0.000    1.600 
#    0.000    9.000    0.000    0.000    0.000    0.000 
#    0.000    0.000    0.000    0.000    0.000    0.000 
#
# Total GULP energy -223652.685866 kJ/mol
# GULP energy per Si atom -5591.317147 kJ/mol
# Density = 2.027537 g / cm^3
# Si number density = 20.321622 Si / 1000 Ang^3
#
#
#
# Elastic Constant Matrix: (Units=GPa)
#
#
# Indices 1 2 3 4 5 6 
#
# 1 161.6532 41.4483 6.8378 0.0000 0.0000 0.0000
# 2 41.4483 113.3868 14.6669 0.0000 0.0000 0.0000
# 3 6.8378 14.6669 59.3662 0.0000 0.0000 0.0000
# 4 0.0000 0.0000 0.0000 36.2562 0.0000 0.0000
# 5 0.0000 0.0000 0.0000 0.0000 36.1326 0.0000
# 6 0.0000 0.0000 0.0000 0.0000 0.0000 6.8496
#
#
#
# Elastic Compliance Matrix: (Units=1/GPa)
#
#
# Indices 1 2 3 4 5 6 
#
# 1 0.006828 -0.002473 -0.000175 0.000000 0.000000 0.000000
# 2 -0.002473 0.010006 -0.002187 0.000000 0.000000 0.000000
# 3 -0.000175 -0.002187 0.017405 0.000000 0.000000 0.000000
# 4 0.000000 0.000000 0.000000 0.027582 0.000000 0.000000
# 5 0.000000 0.000000 0.000000 0.000000 0.027676 0.000000
# 6 0.000000 0.000000 0.000000 0.000000 0.000000 0.145995
#
#
# Mechanical properties :
#
#
# Convention : Reuss Voigt Hill
#
# Bulk Modulus (GPa) = 40.70415 51.14578 45.92497
# Shear Modulus (GPa) = 19.73540 33.94456 26.83998
#
# Velocity S-wave (km/s) = 3.11971 4.09145 3.63817
# Velocity P-wave (km/s) = 5.74894 6.89512 6.34795
#
# Compressibility (1/GPa) = 0.02456752
#
# Stress axis : x y z
#
# Youngs Moduli (GPa) = 146.46398 99.93652 57.45413
#
# Poissons Ratio (x) = 0.24716 0.01008
# Poissons Ratio (y) = 0.36222 0.12567
# Poissons Ratio (z) = 0.02569 0.21859
#
# Static dielectric constant tensor:
#      x y z
#    x 1.706360 0.000000 0.000000 
#    y 0.000000 1.737420 0.000000 
#    z 0.000000 0.000000 1.717310 
# 
# From -- ./inp_files/29903.got.cif
#   From: 2010.05.17/outbox.cif.g08.bks.cpg/sg64_15_cif.got.tgz:29903.got - 2010.06.03 16:29:19.
