data_PCOD9481537
_publ_section_title
;
Structure prediction by ZEFSAII (Michael W. Deem and Ramdas Pophale) SiO2 
 PCOD9481537
Probable space group: C M C A
;
_chemical_formula_sum "Si O2"
_cell_formula_units_Z 104
_cell_length_a 26.942399
_cell_length_b 8.197024
_cell_length_c 24.635882
_cell_angle_alpha 90.000000
_cell_angle_beta 90.000000
_cell_angle_gamma 90.000000
_cell_volume 5440.772734
_symmetry_space_group_name_H-M "C M C A"
_symmetry_group_IT_number 64
_symmetry_cell_setting 'orthorhombic'
loop_
_space_group_symop_operation_xyz
x,y,z
-x,1/2-y,1/2+z
x,-y,-z
-x,1/2+y,1/2-z
-x,-y,-z
x,1/2+y,1/2-z
-x,y,z
x,1/2-y,1/2+z
1/2+x,1/2+y,z
1/2-x,-y,1/2+z
1/2+x,1/2-y,-z
1/2-x,y,1/2-z
1/2-x,1/2-y,-z
1/2+x,y,1/2-z
1/2-x,1/2+y,z
1/2+x,-y,1/2+z
loop_
_atom_site_type_symbol
_atom_site_label
_atom_site_fract_x
_atom_site_fract_y
_atom_site_fract_z
Si Si1 0.942101 0.737077 0.529537
Si Si2 0.500000 0.400143 0.281976
Si Si3 0.558628 0.598778 0.581840
Si Si4 0.601951 0.750969 0.681506
Si Si5 0.325862 0.766495 0.287861
Si Si6 0.000000 0.730698 0.673037
Si Si7 0.250000 0.483459 0.750000
Si Si8 0.600997 0.891348 0.373331
O O1 0.932462 0.770948 0.466025
O O2 0.903237 0.622719 0.561569
O O3 0.000000 0.682138 0.533186
O O4 0.938844 0.919200 0.556045
O O5 0.548821 0.293569 0.293004
O O6 0.500000 0.410901 0.217653
O O7 0.500000 0.582722 0.305987
O O8 0.500000 0.621736 0.599591
O O9 0.598104 0.627190 0.630048
O O10 0.641129 0.733826 0.731539
O O11 0.604160 0.930007 0.654277
O O12 0.288586 0.616202 0.286069
O O13 0.359106 0.784601 0.340673
O O14 0.287036 0.913513 0.286376
O O15 0.049167 0.694502 0.640753
#
# Coordination Sequence:
#
# PCOD9481537 Si02
#       8
#    16   8  16  16  16   8   8  16
#     4   9  19  35  54  79 118 163 199 231 269 323
#     4  12  24  34  49  78 123 156 192 224 270 338
#     4   9  19  35  54  79 118 163 199 231 269 323
#     4  12  23  35  56  88 117 156 189 232 280 346
#     4  11  24  41  62  84 114 145 188 237 298 350
#     4  12  24  34  49  78 123 156 192 224 270 338
#     4  10  24  46  60  80 110 146 188 246 296 350
#     4  12  23  35  56  88 117 156 189 232 280 346
#
# _framework density 19.114932
#
# number of rings (size 3 to 8) (size 9 to 14) (size 15 to 20)
#    0.000    1.231    4.615    3.231    4.308    0.615 
#    0.000    1.538    0.000    0.000    0.000    6.462 
#    0.000    0.000    0.000    0.000    0.000    0.000 
#
# Total GULP energy -289722.510061 kJ/mol
# GULP energy per Si atom -5571.586732 kJ/mol
# Density = 1.907143 g / cm^3
# Si number density = 19.114932 Si / 1000 Ang^3
#
#
#
# Elastic Constant Matrix: (Units=GPa)
#
#
# Indices 1 2 3 4 5 6 
#
# 1 91.2708 16.4557 21.8398 0.0000 0.0000 0.0000
# 2 16.4557 61.4091 3.1310 0.0000 0.0000 0.0000
# 3 21.8398 3.1310 67.2618 0.0000 0.0000 0.0000
# 4 0.0000 0.0000 0.0000 41.3067 0.0000 0.0000
# 5 0.0000 0.0000 0.0000 0.0000 -6.1212 0.0000
# 6 0.0000 0.0000 0.0000 0.0000 0.0000 90.7762
#
#
#
# Elastic Compliance Matrix: (Units=1/GPa)
#
#
# Indices 1 2 3 4 5 6 
#
# 1 0.012455 -0.003139 -0.003898 0.000000 0.000000 0.000000
# 2 -0.003139 0.017114 0.000223 0.000000 0.000000 0.000000
# 3 -0.003898 0.000223 0.016123 0.000000 0.000000 0.000000
# 4 0.000000 0.000000 0.000000 0.024209 0.000000 0.000000
# 5 0.000000 0.000000 0.000000 0.000000 -0.163366 0.000000
# 6 0.000000 0.000000 0.000000 0.000000 0.000000 0.011016
#
#
# Mechanical properties :
#
#
# Convention : Reuss Voigt Hill
#
# Bulk Modulus (GPa) = 31.18860 33.64386 32.41623
# Shear Modulus (GPa) = -86.00973 37.09334 -24.45819
#
# Velocity S-wave (km/s) = -6.71519 4.40994 -3.58094
# Velocity P-wave (km/s) = 6.61614 6.60069 0.31950
#
# Compressibility (1/GPa) = 0.03206300
#
# Stress axis : x y z
#
# Youngs Moduli (GPa) = 80.28865 58.43175 62.02472
#
# Poissons Ratio (x) = 0.18341 0.24177
# Poissons Ratio (y) = 0.25201 -0.01380
# Poissons Ratio (z) = 0.31297 -0.01300
#
# Static dielectric constant tensor:
#      x y z
#    x 1.626700 0.000000 0.000000 
#    y 0.000000 1.774270 0.000000 
#    z 0.000000 0.000000 1.773940 
# 
# From -- ./inp_files/51236.got.cif
#   From: 2010.05.17/outbox.cif.g08.bks.cpg/sg64_26_cif.got.tgz:51236.got - 2010.06.03 16:29:19.
