data_PCOD9481949
_publ_section_title
;
Structure prediction by ZEFSAII (Michael W. Deem and Ramdas Pophale) SiO2 
 PCOD9481949
Probable space group: C M C A
;
_chemical_formula_sum "Si O2"
_cell_formula_units_Z 80
_cell_length_a 16.254426
_cell_length_b 28.398893
_cell_length_c 8.640353
_cell_angle_alpha 90.000000
_cell_angle_beta 90.000000
_cell_angle_gamma 90.000000
_cell_volume 3988.453517
_symmetry_space_group_name_H-M "C M C A"
_symmetry_group_IT_number 64
_symmetry_cell_setting 'orthorhombic'
loop_
_space_group_symop_operation_xyz
x,y,z
-x,1/2-y,1/2+z
x,-y,-z
-x,1/2+y,1/2-z
-x,-y,-z
x,1/2+y,1/2-z
-x,y,z
x,1/2-y,1/2+z
1/2+x,1/2+y,z
1/2-x,-y,1/2+z
1/2+x,1/2-y,-z
1/2-x,y,1/2-z
1/2-x,1/2-y,-z
1/2+x,y,1/2-z
1/2-x,1/2+y,z
1/2+x,-y,1/2+z
loop_
_atom_site_type_symbol
_atom_site_label
_atom_site_fract_x
_atom_site_fract_y
_atom_site_fract_z
Si Si1 0.594236 0.901979 0.976194
Si Si2 0.659635 0.229612 0.534873
Si Si3 0.592893 0.807422 0.155323
Si Si4 0.759329 0.048680 0.065998
Si Si5 0.662882 0.361371 0.834686
O O1 0.500000 0.918275 0.995496
O O2 0.667826 0.939248 0.995473
O O3 0.605052 0.879998 0.803046
O O4 0.611357 0.859486 0.095084
O O5 0.750000 0.250000 0.500000
O O6 0.650033 0.212273 0.709544
O O7 0.600822 0.272684 0.490674
O O8 0.638677 0.185118 0.425876
O O9 0.500000 0.806792 0.215557
O O10 0.750000 0.043029 0.250000
O O11 0.816286 0.095010 0.050436
O O12 0.791732 0.000000 0.000000
O O13 0.750000 0.350603 0.750000
#
# Coordination Sequence:
#
# PCOD9481949 Si02
#       5
#    16  16  16  16  16
#     4   9  19  36  55  76 105 139 176 218 263 315
#     4  12  22  34  54  78 106 143 186 224 258 310
#     4  11  23  36  51  77 111 144 178 218 267 314
#     4   9  19  35  56  79 103 133 169 213 267 319
#     4   9  19  35  53  76 103 136 177 218 264 309
#
# _framework density 20.057898999999999
#
# number of rings (size 3 to 8) (size 9 to 14) (size 15 to 20)
#    0.000    2.400    0.000    6.000    0.000    5.200 
#    0.000    0.000    0.000    9.600    0.000    0.000 
#    0.000    0.000    0.000    0.000    0.000    0.000 
#
# Total GULP energy -223211.260378 kJ/mol
# GULP energy per Si atom -5580.281509 kJ/mol
# Density = 2.001225 g / cm^3
# Si number density = 20.057899 Si / 1000 Ang^3
#
#
#
# Elastic Constant Matrix: (Units=GPa)
#
#
# Indices 1 2 3 4 5 6 
#
# 1 58.8266 5.6518 14.5854 0.0000 0.0000 0.0000
# 2 5.6518 63.4279 1.2592 0.0000 0.0000 0.0000
# 3 14.5854 1.2592 37.8899 0.0000 0.0000 0.0000
# 4 0.0000 0.0000 0.0000 30.2801 0.0000 0.0000
# 5 0.0000 0.0000 0.0000 0.0000 21.1122 0.0000
# 6 0.0000 0.0000 0.0000 0.0000 0.0000 11.1668
#
#
#
# Elastic Compliance Matrix: (Units=1/GPa)
#
#
# Indices 1 2 3 4 5 6 
#
# 1 0.018943 -0.001544 -0.007241 0.000000 0.000000 0.000000
# 2 -0.001544 0.015902 0.000066 0.000000 0.000000 0.000000
# 3 -0.007241 0.000066 0.029177 0.000000 0.000000 0.000000
# 4 0.000000 0.000000 0.000000 0.033025 0.000000 0.000000
# 5 0.000000 0.000000 0.000000 0.000000 0.047366 0.000000
# 6 0.000000 0.000000 0.000000 0.000000 0.000000 0.089551
#
#
# Mechanical properties :
#
#
# Convention : Reuss Voigt Hill
#
# Bulk Modulus (GPa) = 21.46632 22.57081 22.01856
# Shear Modulus (GPa) = 18.73150 21.75501 20.24326
#
# Velocity S-wave (km/s) = 3.05925 3.29692 3.18030
# Velocity P-wave (km/s) = 4.81706 5.07643 4.94844
#
# Compressibility (1/GPa) = 0.04658461
#
# Stress axis : x y z
#
# Youngs Moduli (GPa) = 52.79085 62.88431 34.27332
#
# Poissons Ratio (x) = 0.09710 0.24816
# Poissons Ratio (y) = 0.08152 -0.00226
# Poissons Ratio (z) = 0.38223 -0.00415
#
# Static dielectric constant tensor:
#      x y z
#    x 1.756000 0.000000 0.000000 
#    y 0.000000 1.704770 0.000000 
#    z 0.000000 0.000000 1.730390 
# 
# From -- ./inp_files/7282.got.cif
#   From: 2010.05.17/outbox.cif.g08.bks.cpg/sg64_4_cif.got.tgz:7282.got - 2010.06.03 16:29:19.
