data_PCOD9481059
_publ_section_title
;
Structure prediction by ZEFSAII (Michael W. Deem and Ramdas Pophale) SiO2 
 PCOD9481059
Probable space group: C M C A
;
_chemical_formula_sum "Si O2"
_cell_formula_units_Z 112
_cell_length_a 20.033343
_cell_length_b 12.134173
_cell_length_c 22.625298
_cell_angle_alpha 90.000000
_cell_angle_beta 90.000000
_cell_angle_gamma 90.000000
_cell_volume 5499.939565
_symmetry_space_group_name_H-M "C M C A"
_symmetry_group_IT_number 64
_symmetry_cell_setting 'orthorhombic'
loop_
_space_group_symop_operation_xyz
x,y,z
-x,1/2-y,1/2+z
x,-y,-z
-x,1/2+y,1/2-z
-x,-y,-z
x,1/2+y,1/2-z
-x,y,z
x,1/2-y,1/2+z
1/2+x,1/2+y,z
1/2-x,-y,1/2+z
1/2+x,1/2-y,-z
1/2-x,y,1/2-z
1/2-x,1/2-y,-z
1/2+x,y,1/2-z
1/2-x,1/2+y,z
1/2+x,-y,1/2+z
loop_
_atom_site_type_symbol
_atom_site_label
_atom_site_fract_x
_atom_site_fract_y
_atom_site_fract_z
Si Si1 0.120303 0.501805 0.898161
Si Si2 0.881544 0.919464 0.154500
Si Si3 0.079180 0.130600 0.718950
Si Si4 0.650803 0.714771 0.541872
Si Si5 0.074880 0.663702 0.361247
Si Si6 0.072572 0.765196 0.569601
Si Si7 0.761941 0.051221 0.936792
O O1 0.104281 0.552160 0.834191
O O2 0.107008 0.603391 0.943518
O O3 0.081435 0.390125 0.908869
O O4 0.199009 0.480656 0.910997
O O5 0.876882 0.887584 0.223008
O O6 0.920227 0.820654 0.122460
O O7 0.815779 0.936388 0.114482
O O8 0.918833 0.036191 0.153120
O O9 0.084834 0.255132 0.694237
O O10 0.000000 0.109913 0.730636
O O11 0.629741 0.802513 0.590595
O O12 0.629443 0.756593 0.478526
O O13 0.724669 0.667370 0.549716
O O14 0.000000 0.687037 0.384065
O O15 0.000000 0.750557 0.541581
O O16 0.783771 0.000000 0.000000
#
# Coordination Sequence:
#
# PCOD9481059 Si02
#       7
#    16  16  16  16  16  16  16
#     4   9  20  43  68  99 122 171 226 276 329 378
#     4  12  28  39  64  99 136 182 217 265 336 411
#     4  10  22  44  70  94 128 174 226 281 336 391
#     4   9  20  42  65  95 126 172 222 268 330 383
#     4  10  22  43  67  94 131 169 214 276 344 397
#     4  12  23  37  65 103 134 166 220 280 331 391
#     4  10  22  46  67  95 136 175 225 268 326 394
#
# _framework density 20.363859999999999
#
# number of rings (size 3 to 8) (size 9 to 14) (size 15 to 20)
#    0.857    0.857    1.429    2.571    4.000    4.571 
#    0.000    1.429    3.143    0.000    0.000    0.000 
#    0.000    0.000    0.000    0.000    0.000    0.000 
#
# Total GULP energy -312410.132155 kJ/mol
# GULP energy per Si atom -5578.752360 kJ/mol
# Density = 2.031751 g / cm^3
# Si number density = 20.363860 Si / 1000 Ang^3
#
#
#
# Elastic Constant Matrix: (Units=GPa)
#
#
# Indices 1 2 3 4 5 6 
#
# 1 75.8569 -1.8142 31.9911 0.0000 0.0000 0.0000
# 2 -1.8142 86.4508 27.5446 0.0000 0.0000 0.0000
# 3 31.9911 27.5446 125.7017 0.0000 0.0000 0.0000
# 4 0.0000 0.0000 0.0000 18.5342 0.0000 0.0000
# 5 0.0000 0.0000 0.0000 0.0000 28.5111 0.0000
# 6 0.0000 0.0000 0.0000 0.0000 0.0000 20.9316
#
#
#
# Elastic Compliance Matrix: (Units=1/GPa)
#
#
# Indices 1 2 3 4 5 6 
#
# 1 0.014982 0.001644 -0.004173 0.000000 0.000000 0.000000
# 2 0.001644 0.012616 -0.003183 0.000000 0.000000 0.000000
# 3 -0.004173 -0.003183 0.009715 0.000000 0.000000 0.000000
# 4 0.000000 0.000000 0.000000 0.053954 0.000000 0.000000
# 5 0.000000 0.000000 0.000000 0.000000 0.035074 0.000000
# 6 0.000000 0.000000 0.000000 0.000000 0.000000 0.047775
#
#
# Mechanical properties :
#
#
# Convention : Reuss Voigt Hill
#
# Bulk Modulus (GPa) = 38.62686 44.82804 41.72745
# Shear Modulus (GPa) = 25.75075 28.94793 27.34934
#
# Velocity S-wave (km/s) = 3.55988 3.77441 3.66872
# Velocity P-wave (km/s) = 5.99221 6.40752 6.20334
#
# Compressibility (1/GPa) = 0.02588872
#
# Stress axis : x y z
#
# Youngs Moduli (GPa) = 66.74682 79.26506 102.93493
#
# Poissons Ratio (x) = -0.13032 0.42957
# Poissons Ratio (y) = -0.10974 0.32763
# Poissons Ratio (z) = 0.27855 0.25229
#
# Static dielectric constant tensor:
#      x y z
#    x 1.738480 0.000000 0.000000 
#    y 0.000000 1.727620 0.000000 
#    z 0.000000 0.000000 1.687010 
# 
# From -- ./inp_files/41501.got.cif
#   From: 2010.05.17/outbox.cif.g08.bks.cpg/sg64_21_cif.got.tgz:41501.got - 2010.06.03 16:29:19.
