data_PCOD9481667
_publ_section_title
;
Structure prediction by ZEFSAII (Michael W. Deem and Ramdas Pophale) SiO2 
 PCOD9481667
Probable space group: C M C A
;
_chemical_formula_sum "Si O2"
_cell_formula_units_Z 96
_cell_length_a 22.426505
_cell_length_b 14.276092
_cell_length_c 13.856913
_cell_angle_alpha 90.000000
_cell_angle_beta 90.000000
_cell_angle_gamma 90.000000
_cell_volume 4436.468739
_symmetry_space_group_name_H-M "C M C A"
_symmetry_group_IT_number 64
_symmetry_cell_setting 'orthorhombic'
loop_
_space_group_symop_operation_xyz
x,y,z
-x,1/2-y,1/2+z
x,-y,-z
-x,1/2+y,1/2-z
-x,-y,-z
x,1/2+y,1/2-z
-x,y,z
x,1/2-y,1/2+z
1/2+x,1/2+y,z
1/2-x,-y,1/2+z
1/2+x,1/2-y,-z
1/2-x,y,1/2-z
1/2-x,1/2-y,-z
1/2+x,y,1/2-z
1/2-x,1/2+y,z
1/2+x,-y,1/2+z
loop_
_atom_site_type_symbol
_atom_site_label
_atom_site_fract_x
_atom_site_fract_y
_atom_site_fract_z
Si Si1 0.122347 0.419202 0.436925
Si Si2 0.320615 0.938830 0.238670
Si Si3 0.736238 0.650575 0.047415
Si Si4 0.069911 0.235034 0.518677
Si Si5 0.345970 0.775976 0.702758
Si Si6 0.637564 0.095636 0.109941
O O1 0.092071 0.500000 0.500000
O O2 0.138973 0.457130 0.332656
O O3 0.187179 0.398743 0.482898
O O4 0.087391 0.321796 0.447493
O O5 0.250000 0.965733 0.250000
O O6 0.322399 0.826885 0.228122
O O7 0.356726 0.992087 0.154388
O O8 0.706683 0.667220 0.150859
O O9 0.799029 0.603393 0.057542
O O10 0.750000 0.750000 0.000000
O O11 0.105020 0.258784 0.618186
O O12 0.091123 0.139299 0.466084
O O13 0.000000 0.232908 0.535968
O O14 0.364656 0.834232 0.796963
#
# Coordination Sequence:
#
# PCOD9481667 Si02
#       6
#    16  16  16  16  16  16
#     4  11  22  41  66 100 134 170 220 275 339 406
#     4  12  23  37  66 106 136 168 212 268 340 419
#     4  11  19  37  64  95 138 174 202 267 345 420
#     4  11  26  47  67  88 131 185 234 284 331 389
#     4  11  22  41  65  96 132 172 221 274 339 401
#     4  12  23  42  66  99 136 176 219 273 343 404
#
# _framework density 21.638832000000001
#
# number of rings (size 3 to 8) (size 9 to 14) (size 15 to 20)
#    0.000    0.667    5.000    6.500    0.000    1.667 
#    0.000    2.500    0.000    0.000    0.000    0.000 
#    0.000    0.000    0.000    0.000    0.000    0.000 
#
# Total GULP energy -268280.397922 kJ/mol
# GULP energy per Si atom -5589.174957 kJ/mol
# Density = 2.158958 g / cm^3
# Si number density = 21.638832 Si / 1000 Ang^3
#
#
#
# Elastic Constant Matrix: (Units=GPa)
#
#
# Indices 1 2 3 4 5 6 
#
# 1 90.1115 1.4356 15.4910 0.0000 0.0000 0.0000
# 2 1.4356 72.5369 5.1483 0.0000 0.0000 0.0000
# 3 15.4910 5.1483 66.3429 0.0000 0.0000 0.0000
# 4 0.0000 0.0000 0.0000 49.9240 0.0000 0.0000
# 5 0.0000 0.0000 0.0000 0.0000 8.8268 0.0000
# 6 0.0000 0.0000 0.0000 0.0000 0.0000 0.7214
#
#
#
# Elastic Compliance Matrix: (Units=1/GPa)
#
#
# Indices 1 2 3 4 5 6 
#
# 1 0.011562 -0.000037 -0.002697 0.000000 0.000000 0.000000
# 2 -0.000037 0.013863 -0.001067 0.000000 0.000000 0.000000
# 3 -0.002697 -0.001067 0.015786 0.000000 0.000000 0.000000
# 4 0.000000 0.000000 0.000000 0.020030 0.000000 0.000000
# 5 0.000000 0.000000 0.000000 0.000000 0.113292 0.000000
# 6 0.000000 0.000000 0.000000 0.000000 0.000000 1.386237
#
#
# Mechanical properties :
#
#
# Convention : Reuss Voigt Hill
#
# Bulk Modulus (GPa) = 29.75526 30.34901 30.05213
# Shear Modulus (GPa) = 3.16541 25.68885 14.42713
#
# Velocity S-wave (km/s) = 1.21079 3.44926 2.58490
# Velocity P-wave (km/s) = 3.96679 5.46982 4.77778
#
# Compressibility (1/GPa) = 0.03360751
#
# Stress axis : x y z
#
# Youngs Moduli (GPa) = 86.49358 72.13676 63.34851
#
# Poissons Ratio (x) = 0.00270 0.17083
# Poissons Ratio (y) = 0.00324 0.06759
# Poissons Ratio (z) = 0.23325 0.07697
#
# Static dielectric constant tensor:
#      x y z
#    x 1.577740 0.000000 0.000000 
#    y 0.000000 1.796340 0.000000 
#    z 0.000000 0.000000 1.849420 
# 
# From -- ./inp_files/26290.got.cif
#   From: 2010.05.17/outbox.cif.g08.bks.cpg/sg64_14_cif.got.tgz:26290.got - 2010.06.03 16:29:19.
