data_PCOD9481276
_publ_section_title
;
Structure prediction by ZEFSAII (Michael W. Deem and Ramdas Pophale) SiO2 
 PCOD9481276
Probable space group: C M C A
;
_chemical_formula_sum "Si O2"
_cell_formula_units_Z 48
_cell_length_a 7.715648
_cell_length_b 14.723526
_cell_length_c 14.470081
_cell_angle_alpha 90.000000
_cell_angle_beta 90.000000
_cell_angle_gamma 90.000000
_cell_volume 1643.823542
_symmetry_space_group_name_H-M "C M C A"
_symmetry_group_IT_number 64
_symmetry_cell_setting 'orthorhombic'
loop_
_space_group_symop_operation_xyz
x,y,z
-x,1/2-y,1/2+z
x,-y,-z
-x,1/2+y,1/2-z
-x,-y,-z
x,1/2+y,1/2-z
-x,y,z
x,1/2-y,1/2+z
1/2+x,1/2+y,z
1/2-x,-y,1/2+z
1/2+x,1/2-y,-z
1/2-x,y,1/2-z
1/2-x,1/2-y,-z
1/2+x,y,1/2-z
1/2-x,1/2+y,z
1/2+x,-y,1/2+z
loop_
_atom_site_type_symbol
_atom_site_label
_atom_site_fract_x
_atom_site_fract_y
_atom_site_fract_z
Si Si1 0.750000 0.069304 0.750000
Si Si2 0.500000 0.703699 0.857265
Si Si3 0.000000 0.348424 0.016420
Si Si4 0.000000 0.277349 0.674524
Si Si5 0.205817 0.930315 0.901409
O O1 0.651826 0.138534 0.681264
O O2 0.698556 0.994540 0.828339
O O3 0.500000 0.751424 0.957373
O O4 0.500000 0.783214 0.782958
O O5 0.170190 0.404983 0.986721
O O6 0.000000 0.319020 0.123027
O O7 0.834081 0.331318 0.639567
O O8 0.000000 0.961831 0.913822
#
# Coordination Sequence:
#
# PCOD9481276 Si02
#       5
#     8   8   8   8  16
#     4  12  22  44  64 102 142 174 226 278 346 412
#     4  12  24  40  70 102 132 176 232 290 330 402
#     4  12  23  45  75  97 135 182 230 286 332 398
#     4  10  23  45  67 103 133 176 238 276 334 402
#     4  10  23  42  67  94 136 180 217 273 343 407
#
# _framework density 29.200215
#
# number of rings (size 3 to 8) (size 9 to 14) (size 15 to 20)
#    1.000    0.000    1.667    6.000    0.000    0.000 
#    0.000   10.000    0.000    0.000    0.000    0.000 
#    0.000    0.000    0.000    0.000    0.000    0.000 
#
# Total GULP energy -133890.835049 kJ/mol
# GULP energy per Si atom -5578.784794 kJ/mol
# Density = 2.913375 g / cm^3
# Si number density = 29.200215 Si / 1000 Ang^3
#
#
#
# Elastic Constant Matrix: (Units=GPa)
#
#
# Indices 1 2 3 4 5 6 
#
# 1 186.8410 43.5694 41.4859 0.0000 0.0000 0.0000
# 2 43.5694 137.0961 26.9481 0.0000 0.0000 0.0000
# 3 41.4859 26.9481 146.1144 0.0000 0.0000 0.0000
# 4 0.0000 0.0000 0.0000 71.6992 0.0000 0.0000
# 5 0.0000 0.0000 0.0000 0.0000 14.6210 0.0000
# 6 0.0000 0.0000 0.0000 0.0000 0.0000 5.6721
#
#
#
# Elastic Compliance Matrix: (Units=1/GPa)
#
#
# Indices 1 2 3 4 5 6 
#
# 1 0.006050 -0.001645 -0.001414 0.000000 0.000000 0.000000
# 2 -0.001645 0.008016 -0.001011 0.000000 0.000000 0.000000
# 3 -0.001414 -0.001011 0.007432 0.000000 0.000000 0.000000
# 4 0.000000 0.000000 0.000000 0.013947 0.000000 0.000000
# 5 0.000000 0.000000 0.000000 0.000000 0.068395 0.000000
# 6 0.000000 0.000000 0.000000 0.000000 0.000000 0.176301
#
#
# Mechanical properties :
#
#
# Convention : Reuss Voigt Hill
#
# Bulk Modulus (GPa) = 74.86886 77.11757 75.99322
# Shear Modulus (GPa) = 17.08038 42.26832 29.67435
#
# Velocity S-wave (km/s) = 2.42118 3.80878 3.19131
# Velocity P-wave (km/s) = 5.78892 6.76828 6.29767
#
# Compressibility (1/GPa) = 0.01335669
#
# Stress axis : x y z
#
# Youngs Moduli (GPa) = 165.29777 124.75653 134.55221
#
# Poissons Ratio (x) = 0.20517 0.19030
# Poissons Ratio (y) = 0.27185 0.13608
# Poissons Ratio (z) = 0.23379 0.12618
#
# Static dielectric constant tensor:
#      x y z
#    x 2.580890 0.000000 0.000000 
#    y 0.000000 2.243910 0.000000 
#    z 0.000000 0.000000 2.130300 
# 
# From -- ./inp_files/28972.got.cif
#   From: 2010.05.17/outbox.cif.g08.bks.cpg/sg64_15_cif.got.tgz:28972.got - 2010.06.03 16:29:19.
