data_PCOD9481464
_publ_section_title
;
Structure prediction by ZEFSAII (Michael W. Deem and Ramdas Pophale) SiO2 
 PCOD9481464
Probable space group: C M C A
;
_chemical_formula_sum "Si O2"
_cell_formula_units_Z 64
_cell_length_a 21.663306
_cell_length_b 9.521778
_cell_length_c 13.816131
_cell_angle_alpha 90.000000
_cell_angle_beta 90.000000
_cell_angle_gamma 90.000000
_cell_volume 2849.897421
_symmetry_space_group_name_H-M "C M C A"
_symmetry_group_IT_number 64
_symmetry_cell_setting 'orthorhombic'
loop_
_space_group_symop_operation_xyz
x,y,z
-x,1/2-y,1/2+z
x,-y,-z
-x,1/2+y,1/2-z
-x,-y,-z
x,1/2+y,1/2-z
-x,y,z
x,1/2-y,1/2+z
1/2+x,1/2+y,z
1/2-x,-y,1/2+z
1/2+x,1/2-y,-z
1/2-x,y,1/2-z
1/2-x,1/2-y,-z
1/2+x,y,1/2-z
1/2-x,1/2+y,z
1/2+x,-y,1/2+z
loop_
_atom_site_type_symbol
_atom_site_label
_atom_site_fract_x
_atom_site_fract_y
_atom_site_fract_z
Si Si1 0.500000 0.831277 0.612404
Si Si2 0.899771 0.500000 0.500000
Si Si3 0.635706 0.168155 0.674917
Si Si4 0.250000 0.023145 0.750000
Si Si5 0.000000 0.899776 0.248436
Si Si6 0.715727 0.632013 0.434024
O O1 0.442420 0.879106 0.546906
O O2 0.500000 0.669439 0.644447
O O3 0.500000 0.939286 0.706501
O O4 0.860985 0.439519 0.413809
O O5 0.688291 0.119801 0.750584
O O6 0.565290 0.160805 0.709272
O O7 0.656036 0.310209 0.622973
O O8 0.245361 0.925399 0.843610
O O9 0.700686 0.500000 0.500000
O O10 0.750000 0.750000 0.500000
#
# Coordination Sequence:
#
# PCOD9481464 Si02
#       6
#     8   8  16   8   8  16
#     4   9  20  42  68  97 132 186 227 287 361 425
#     4   9  20  42  70  92 138 189 232 286 360 437
#     4  11  24  45  70 104 141 188 243 295 372 429
#     4  12  26  46  74 104 144 196 242 304 362 442
#     4  10  24  42  69 103 136 182 240 299 356 439
#     4  12  26  46  70 108 148 193 245 306 368 439
#
# _framework density 22.456948000000001
#
# number of rings (size 3 to 8) (size 9 to 14) (size 15 to 20)
#    0.000    1.250    2.500    3.000    7.000    2.000 
#    0.000    0.625    0.000    0.000    0.000    0.000 
#    0.000    0.000    0.000    0.000    0.000    0.000 
#
# Total GULP energy -178428.901819 kJ/mol
# GULP energy per Si atom -5575.903182 kJ/mol
# Density = 2.240584 g / cm^3
# Si number density = 22.456948 Si / 1000 Ang^3
#
#
#
# Elastic Constant Matrix: (Units=GPa)
#
#
# Indices 1 2 3 4 5 6 
#
# 1 115.5248 46.4136 20.2576 0.0000 0.0000 0.0000
# 2 46.4136 64.1567 32.1946 0.0000 0.0000 0.0000
# 3 20.2576 32.1946 90.8641 0.0000 0.0000 0.0000
# 4 0.0000 0.0000 0.0000 60.8031 0.0000 0.0000
# 5 0.0000 0.0000 0.0000 0.0000 10.9696 0.0000
# 6 0.0000 0.0000 0.0000 0.0000 0.0000 -127.1191
#
#
#
# Elastic Compliance Matrix: (Units=1/GPa)
#
#
# Indices 1 2 3 4 5 6 
#
# 1 0.012221 -0.009090 0.000496 0.000000 0.000000 0.000000
# 2 -0.009090 0.025719 -0.007086 0.000000 0.000000 0.000000
# 3 0.000496 -0.007086 0.013406 0.000000 0.000000 0.000000
# 4 0.000000 0.000000 0.000000 0.016447 0.000000 0.000000
# 5 0.000000 0.000000 0.000000 0.000000 0.091161 0.000000
# 6 0.000000 0.000000 0.000000 0.000000 0.000000 -0.007867
#
#
# Mechanical properties :
#
#
# Convention : Reuss Voigt Hill
#
# Bulk Modulus (GPa) = 50.03642 52.03081 51.03361
# Shear Modulus (GPa) = 26.43983 0.37606 13.40794
#
# Velocity S-wave (km/s) = 3.43498 0.40966 2.44611
# Velocity P-wave (km/s) = 6.16941 4.84182 5.54548
#
# Compressibility (1/GPa) = 0.01998544
#
# Stress axis : x y z
#
# Youngs Moduli (GPa) = 81.82419 38.88173 74.59623
#
# Poissons Ratio (x) = 0.35345 -0.03701
# Poissons Ratio (y) = 0.74381 0.52859
# Poissons Ratio (z) = -0.04060 0.27552
#
# Static dielectric constant tensor:
#      x y z
#    x 2.011040 0.000000 0.000000 
#    y 0.000000 2.029340 0.000000 
#    z 0.000000 0.000000 1.852960 
# 
# From -- ./inp_files/26981.got.cif
#   From: 2010.05.17/outbox.cif.g08.bks.cpg/sg64_14_cif.got.tgz:26981.got - 2010.06.03 16:29:19.
