data_PCOD9481051
_publ_section_title
;
Structure prediction by ZEFSAII (Michael W. Deem and Ramdas Pophale) SiO2 
 PCOD9481051
Probable space group: C M C A
;
_chemical_formula_sum "Si O2"
_cell_formula_units_Z 80
_cell_length_a 26.455087
_cell_length_b 15.553490
_cell_length_c 9.064843
_cell_angle_alpha 90.000000
_cell_angle_beta 90.000000
_cell_angle_gamma 90.000000
_cell_volume 3729.901260
_symmetry_space_group_name_H-M "C M C A"
_symmetry_group_IT_number 64
_symmetry_cell_setting 'orthorhombic'
loop_
_space_group_symop_operation_xyz
x,y,z
-x,1/2-y,1/2+z
x,-y,-z
-x,1/2+y,1/2-z
-x,-y,-z
x,1/2+y,1/2-z
-x,y,z
x,1/2-y,1/2+z
1/2+x,1/2+y,z
1/2-x,-y,1/2+z
1/2+x,1/2-y,-z
1/2-x,y,1/2-z
1/2-x,1/2-y,-z
1/2+x,y,1/2-z
1/2-x,1/2+y,z
1/2+x,-y,1/2+z
loop_
_atom_site_type_symbol
_atom_site_label
_atom_site_fract_x
_atom_site_fract_y
_atom_site_fract_z
Si Si1 0.372763 0.276582 0.195713
Si Si2 0.799281 0.468038 0.669326
Si Si3 0.801638 0.275358 0.576918
Si Si4 0.102569 0.418905 0.836762
Si Si5 0.058133 0.087122 0.663419
O O1 0.324070 0.288762 0.301739
O O2 0.348018 0.283052 0.036368
O O3 0.393649 0.179265 0.219084
O O4 0.415166 0.346393 0.227579
O O5 0.808058 0.500000 0.500000
O O6 0.750000 0.506839 0.750000
O O7 0.791030 0.366855 0.647596
O O8 0.846514 0.467774 0.782130
O O9 0.750000 0.250000 0.500000
O O10 0.061247 0.488079 0.783214
O O11 0.090123 0.409218 0.010602
O O12 0.000000 0.109747 0.634311
#
# Coordination Sequence:
#
# PCOD9481051 Si02
#       5
#    16  16  16  16  16
#     4  11  22  41  67  98 138 175 228 284 341 407
#     4  11  25  40  64 100 140 179 223 274 348 414
#     4  11  22  40  62  98 133 179 219 269 337 419
#     4  10  22  43  65  96 139 172 232 286 340 416
#     4  11  24  42  72  98 129 187 234 289 354 399
#
# _framework density 21.44829
#
# number of rings (size 3 to 8) (size 9 to 14) (size 15 to 20)
#    0.000    1.200    2.000    5.400    2.800    3.200 
#    0.000    0.000    0.000    7.200    0.000    0.000 
#    0.000    0.000    0.000    0.000    0.000    0.000 
#
# Total GULP energy -223031.828864 kJ/mol
# GULP energy per Si atom -5575.795722 kJ/mol
# Density = 2.139947 g / cm^3
# Si number density = 21.448290 Si / 1000 Ang^3
#
#
#
# Elastic Constant Matrix: (Units=GPa)
#
#
# Indices 1 2 3 4 5 6 
#
# 1 101.4587 36.3946 47.5040 0.0000 0.0000 0.0000
# 2 36.3946 89.4193 7.6057 0.0000 0.0000 0.0000
# 3 47.5040 7.6057 84.7681 0.0000 0.0000 0.0000
# 4 0.0000 0.0000 0.0000 29.2738 0.0000 0.0000
# 5 0.0000 0.0000 0.0000 0.0000 10.7668 0.0000
# 6 0.0000 0.0000 0.0000 0.0000 0.0000 24.0077
#
#
#
# Elastic Compliance Matrix: (Units=1/GPa)
#
#
# Indices 1 2 3 4 5 6 
#
# 1 0.015822 -0.005729 -0.008353 0.000000 0.000000 0.000000
# 2 -0.005729 0.013344 0.002013 0.000000 0.000000 0.000000
# 3 -0.008353 0.002013 0.016297 0.000000 0.000000 0.000000
# 4 0.000000 0.000000 0.000000 0.034160 0.000000 0.000000
# 5 0.000000 0.000000 0.000000 0.000000 0.092878 0.000000
# 6 0.000000 0.000000 0.000000 0.000000 0.000000 0.041653
#
#
# Mechanical properties :
#
#
# Convention : Reuss Voigt Hill
#
# Bulk Modulus (GPa) = 46.89104 50.96163 48.92634
# Shear Modulus (GPa) = 20.37484 25.08580 22.73032
#
# Velocity S-wave (km/s) = 3.08547 3.42364 3.25895
# Velocity P-wave (km/s) = 5.88246 6.28015 6.08455
#
# Compressibility (1/GPa) = 0.02132604
#
# Stress axis : x y z
#
# Youngs Moduli (GPa) = 63.20212 74.94043 61.36062
#
# Poissons Ratio (x) = 0.42936 0.51253
# Poissons Ratio (y) = 0.36211 -0.12355
# Poissons Ratio (z) = 0.52791 -0.15089
#
# Static dielectric constant tensor:
#      x y z
#    x 1.810130 0.000000 0.000000 
#    y 0.000000 1.808970 0.000000 
#    z 0.000000 0.000000 1.814120 
# 
# From -- ./inp_files/10215.got.cif
#   From: 2010.05.17/outbox.cif.g08.bks.cpg/sg64_6_cif.got.tgz:10215.got - 2010.06.03 16:29:19.
