data_PCOD9481374
_publ_section_title
;
Structure prediction by ZEFSAII (Michael W. Deem and Ramdas Pophale) SiO2 
 PCOD9481374
Probable space group: C M C A
;
_chemical_formula_sum "Si O2"
_cell_formula_units_Z 80
_cell_length_a 23.536643
_cell_length_b 12.289958
_cell_length_c 11.661537
_cell_angle_alpha 90.000000
_cell_angle_beta 90.000000
_cell_angle_gamma 90.000000
_cell_volume 3373.266966
_symmetry_space_group_name_H-M "C M C A"
_symmetry_group_IT_number 64
_symmetry_cell_setting 'orthorhombic'
loop_
_space_group_symop_operation_xyz
x,y,z
-x,1/2-y,1/2+z
x,-y,-z
-x,1/2+y,1/2-z
-x,-y,-z
x,1/2+y,1/2-z
-x,y,z
x,1/2-y,1/2+z
1/2+x,1/2+y,z
1/2-x,-y,1/2+z
1/2+x,1/2-y,-z
1/2-x,y,1/2-z
1/2-x,1/2-y,-z
1/2+x,y,1/2-z
1/2-x,1/2+y,z
1/2+x,-y,1/2+z
loop_
_atom_site_type_symbol
_atom_site_label
_atom_site_fract_x
_atom_site_fract_y
_atom_site_fract_z
Si Si1 0.384784 0.351363 0.566552
Si Si2 0.735865 0.213879 0.130884
Si Si3 0.062379 0.282262 0.611556
Si Si4 0.887807 0.929558 0.327238
Si Si5 0.835329 0.951815 0.873898
O O1 0.331358 0.307840 0.635127
O O2 0.428576 0.263453 0.518363
O O3 0.357014 0.391279 0.444535
O O4 0.412789 0.454050 0.630071
O O5 0.750000 0.277568 0.250000
O O6 0.775755 0.107778 0.141964
O O7 0.750000 0.250000 0.000000
O O8 0.070434 0.172471 0.687925
O O9 0.113551 0.364112 0.632920
O O10 0.000000 0.329139 0.627012
O O11 0.849336 0.957477 0.220255
O O12 0.836801 0.000000 0.000000
#
# Coordination Sequence:
#
# PCOD9481374 Si02
#       5
#    16  16  16  16  16
#     4   9  20  42  72  96 135 178 246 290 353 436
#     4  12  24  43  75 107 148 192 233 302 372 441
#     4  10  23  45  71 100 142 189 244 308 358 429
#     4   9  21  43  68  96 139 177 245 287 355 431
#     4  12  27  41  69 106 147 185 238 300 374 434
#
# _framework density 23.715882000000001
#
# number of rings (size 3 to 8) (size 9 to 14) (size 15 to 20)
#    1.200    0.400    4.000    0.000    2.800    7.600 
#    0.000    2.000    0.000    0.000    0.000    0.000 
#    0.000    0.000    0.000    0.000    0.000    0.000 
#
# Total GULP energy -222958.621828 kJ/mol
# GULP energy per Si atom -5573.965546 kJ/mol
# Density = 2.366190 g / cm^3
# Si number density = 23.715882 Si / 1000 Ang^3
#
#
#
# Elastic Constant Matrix: (Units=GPa)
#
#
# Indices 1 2 3 4 5 6 
#
# 1 86.6990 35.4199 14.0488 0.0000 0.0000 0.0000
# 2 35.4199 63.8495 18.8927 0.0000 0.0000 0.0000
# 3 14.0488 18.8927 161.2918 0.0000 0.0000 0.0000
# 4 0.0000 0.0000 0.0000 24.8453 0.0000 0.0000
# 5 0.0000 0.0000 0.0000 0.0000 17.3212 0.0000
# 6 0.0000 0.0000 0.0000 0.0000 0.0000 15.9933
#
#
#
# Elastic Compliance Matrix: (Units=1/GPa)
#
#
# Indices 1 2 3 4 5 6 
#
# 1 0.014932 -0.008182 -0.000342 0.000000 0.000000 0.000000
# 2 -0.008182 0.020708 -0.001713 0.000000 0.000000 0.000000
# 3 -0.000342 -0.001713 0.006430 0.000000 0.000000 0.000000
# 4 0.000000 0.000000 0.000000 0.040249 0.000000 0.000000
# 5 0.000000 0.000000 0.000000 0.000000 0.057733 0.000000
# 6 0.000000 0.000000 0.000000 0.000000 0.000000 0.062526
#
#
# Mechanical properties :
#
#
# Convention : Reuss Voigt Hill
#
# Bulk Modulus (GPa) = 46.30560 49.84034 48.07297
# Shear Modulus (GPa) = 21.71533 27.86388 24.78960
#
# Velocity S-wave (km/s) = 3.02925 3.43141 3.23658
# Velocity P-wave (km/s) = 5.63938 6.06305 5.85505
#
# Compressibility (1/GPa) = 0.02159566
#
# Stress axis : x y z
#
# Youngs Moduli (GPa) = 66.96842 48.29115 155.51166
#
# Poissons Ratio (x) = 0.39514 0.05322
# Poissons Ratio (y) = 0.54796 0.26637
# Poissons Ratio (z) = 0.02292 0.08272
#
# Static dielectric constant tensor:
#      x y z
#    x 1.837730 0.000000 0.000000 
#    y 0.000000 1.986780 0.000000 
#    z 0.000000 0.000000 2.006810 
# 
# From -- ./inp_files/18073.got.cif
#   From: 2010.05.17/outbox.cif.g08.bks.cpg/sg64_10_cif.got.tgz:18073.got - 2010.06.03 16:29:19.
