data_PCOD9481556
_publ_section_title
;
Structure prediction by ZEFSAII (Michael W. Deem and Ramdas Pophale) SiO2 
 PCOD9481556
Probable space group: C M C A
;
_chemical_formula_sum "Si O2"
_cell_formula_units_Z 72
_cell_length_a 27.110496
_cell_length_b 8.488218
_cell_length_c 14.828941
_cell_angle_alpha 90.000000
_cell_angle_beta 90.000000
_cell_angle_gamma 90.000000
_cell_volume 3412.432939
_symmetry_space_group_name_H-M "C M C A"
_symmetry_group_IT_number 64
_symmetry_cell_setting 'orthorhombic'
loop_
_space_group_symop_operation_xyz
x,y,z
-x,1/2-y,1/2+z
x,-y,-z
-x,1/2+y,1/2-z
-x,-y,-z
x,1/2+y,1/2-z
-x,y,z
x,1/2-y,1/2+z
1/2+x,1/2+y,z
1/2-x,-y,1/2+z
1/2+x,1/2-y,-z
1/2-x,y,1/2-z
1/2-x,1/2-y,-z
1/2+x,y,1/2-z
1/2-x,1/2+y,z
1/2+x,-y,1/2+z
loop_
_atom_site_type_symbol
_atom_site_label
_atom_site_fract_x
_atom_site_fract_y
_atom_site_fract_z
Si Si1 0.000000 0.293971 0.425128
Si Si2 0.251554 0.000000 0.000000
Si Si3 0.894513 0.837375 0.619673
Si Si4 0.000000 0.359723 0.638216
Si Si5 0.176055 0.232235 0.552044
Si Si6 0.600968 0.806579 0.195859
O O1 0.049657 0.197756 0.409851
O O2 0.000000 0.333846 0.530880
O O3 0.000000 0.448925 0.359783
O O4 0.289180 0.080875 0.929614
O O5 0.215307 0.868398 0.963633
O O6 0.857806 0.806640 0.535861
O O7 0.883863 0.717039 0.701051
O O8 0.895872 0.014022 0.660171
O O9 0.048067 0.276873 0.680446
O O10 0.139813 0.279202 0.631325
#
# Coordination Sequence:
#
# PCOD9481556 Si02
#       6
#     8   8  16   8  16  16
#     4  11  24  41  68 102 136 178 218 265 325 393
#     4  10  24  46  74  96 128 174 224 286 332 388
#     4  12  25  43  68 101 137 177 219 269 328 397
#     4  11  24  41  68 102 136 178 218 265 325 393
#     4  11  24  47  72  96 133 175 223 274 340 387
#     4  12  25  43  68 101 137 177 219 269 328 397
#
# _framework density 21.099314
#
# number of rings (size 3 to 8) (size 9 to 14) (size 15 to 20)
#    0.000    0.667    4.444    2.667    6.222    0.889 
#    0.000    6.667    0.000    0.000    0.000    0.000 
#    0.000    0.000    0.000    0.000    0.000    0.000 
#
# Total GULP energy -201116.185730 kJ/mol
# GULP energy per Si atom -5586.560715 kJ/mol
# Density = 2.105129 g / cm^3
# Si number density = 21.099314 Si / 1000 Ang^3
#
#
#
# Elastic Constant Matrix: (Units=GPa)
#
#
# Indices 1 2 3 4 5 6 
#
# 1 158.1275 33.7811 39.4965 0.0000 0.0000 0.0000
# 2 33.7811 65.0819 -1.7652 0.0000 0.0000 0.0000
# 3 39.4965 -1.7652 88.0625 0.0000 0.0000 0.0000
# 4 0.0000 0.0000 0.0000 22.6768 0.0000 0.0000
# 5 0.0000 0.0000 0.0000 0.0000 -2.4433 0.0000
# 6 0.0000 0.0000 0.0000 0.0000 0.0000 39.8959
#
#
#
# Elastic Compliance Matrix: (Units=1/GPa)
#
#
# Indices 1 2 3 4 5 6 
#
# 1 0.008194 -0.004355 -0.003762 0.000000 0.000000 0.000000
# 2 -0.004355 0.017688 0.002308 0.000000 0.000000 0.000000
# 3 -0.003762 0.002308 0.013089 0.000000 0.000000 0.000000
# 4 0.000000 0.000000 0.000000 0.044098 0.000000 0.000000
# 5 0.000000 0.000000 0.000000 0.000000 -0.409285 0.000000
# 6 0.000000 0.000000 0.000000 0.000000 0.000000 0.025065
#
#
# Mechanical properties :
#
#
# Convention : Reuss Voigt Hill
#
# Bulk Modulus (GPa) = 36.55989 50.47740 43.51865
# Shear Modulus (GPa) = -17.83088 28.00985 5.08948
#
# Velocity S-wave (km/s) = -2.91020 3.64747 1.55480
# Velocity P-wave (km/s) = 2.46430 6.45867 4.88811
#
# Compressibility (1/GPa) = 0.02735238
#
# Stress axis : x y z
#
# Youngs Moduli (GPa) = 122.03740 56.53394 76.39827
#
# Poissons Ratio (x) = 0.24622 0.28744
# Poissons Ratio (y) = 0.53151 -0.17632
# Poissons Ratio (z) = 0.45916 -0.13048
#
# Static dielectric constant tensor:
#      x y z
#    x 1.731780 0.000000 0.000000 
#    y 0.000000 1.843090 0.000000 
#    z 0.000000 0.000000 1.753260 
# 
# From -- ./inp_files/27846.got.cif
#   From: 2010.05.17/outbox.cif.g08.bks.cpg/sg64_14_cif.got.tgz:27846.got - 2010.06.03 16:29:19.
