data_PCOD9481036
_publ_section_title
;
Structure prediction by ZEFSAII (Michael W. Deem and Ramdas Pophale) SiO2 
 PCOD9481036
Probable space group: C M C A
;
_chemical_formula_sum "Si O2"
_cell_formula_units_Z 88
_cell_length_a 21.751179
_cell_length_b 21.710709
_cell_length_c 8.621340
_cell_angle_alpha 90.000000
_cell_angle_beta 90.000000
_cell_angle_gamma 90.000000
_cell_volume 4071.285715
_symmetry_space_group_name_H-M "C M C A"
_symmetry_group_IT_number 64
_symmetry_cell_setting 'orthorhombic'
loop_
_space_group_symop_operation_xyz
x,y,z
-x,1/2-y,1/2+z
x,-y,-z
-x,1/2+y,1/2-z
-x,-y,-z
x,1/2+y,1/2-z
-x,y,z
x,1/2-y,1/2+z
1/2+x,1/2+y,z
1/2-x,-y,1/2+z
1/2+x,1/2-y,-z
1/2-x,y,1/2-z
1/2-x,1/2-y,-z
1/2+x,y,1/2-z
1/2-x,1/2+y,z
1/2+x,-y,1/2+z
loop_
_atom_site_type_symbol
_atom_site_label
_atom_site_fract_x
_atom_site_fract_y
_atom_site_fract_z
Si Si1 0.250000 0.072836 0.750000
Si Si2 0.628633 0.454027 0.125901
Si Si3 0.393781 0.693151 0.380696
Si Si4 0.500000 0.494317 0.258185
Si Si5 0.743279 0.855218 0.923238
Si Si6 0.624269 0.180004 0.471343
Si Si7 0.500000 0.892857 0.972971
O O1 0.318226 0.043991 0.754935
O O2 0.250321 0.107658 0.583748
O O3 0.563427 0.481929 0.171577
O O4 0.655991 0.500000 0.000000
O O5 0.618098 0.385704 0.056425
O O6 0.323935 0.674235 0.420261
O O7 0.405599 0.681617 0.198599
O O8 0.400292 0.764528 0.424712
O O9 0.440490 0.650336 0.474449
O O10 0.500000 0.563535 0.321928
O O11 0.500000 0.442496 0.391410
O O12 0.750000 0.886029 0.750000
O O13 0.802664 0.810676 0.934886
#
# Coordination Sequence:
#
# PCOD9481036 Si02
#       7
#     8  16  16   8  16  16   8
#     4  10  22  42  72 102 140 182 238 284 360 408
#     4  11  24  47  70 103 139 188 240 287 352 426
#     4  11  23  41  64 100 140 172 233 288 341 424
#     4  11  25  47  73  94 138 190 234 285 357 430
#     4   9  20  40  66 100 137 180 226 290 352 420
#     4  10  24  40  69 101 133 181 226 288 357 401
#     4  11  26  43  67 102 132 185 232 280 358 410
#
# _framework density 21.614794
#
# number of rings (size 3 to 8) (size 9 to 14) (size 15 to 20)
#    0.000    1.636    0.000    3.000    7.636    2.182 
#   24.545    0.000    0.000    0.000    0.000    0.000 
#    0.000    0.000    0.000    0.000    0.000    0.000 
#
# Total GULP energy -245405.443407 kJ/mol
# GULP energy per Si atom -5577.396441 kJ/mol
# Density = 2.156560 g / cm^3
# Si number density = 21.614794 Si / 1000 Ang^3
#
#
#
# Elastic Constant Matrix: (Units=GPa)
#
#
# Indices 1 2 3 4 5 6 
#
# 1 35.6685 18.4811 23.9608 0.0000 0.0000 0.0000
# 2 18.4811 95.7564 9.2659 0.0000 0.0000 0.0000
# 3 23.9608 9.2659 72.8633 0.0000 0.0000 0.0000
# 4 0.0000 0.0000 0.0000 21.2823 0.0000 0.0000
# 5 0.0000 0.0000 0.0000 0.0000 32.6848 0.0000
# 6 0.0000 0.0000 0.0000 0.0000 0.0000 20.8497
#
#
#
# Elastic Compliance Matrix: (Units=1/GPa)
#
#
# Indices 1 2 3 4 5 6 
#
# 1 0.039572 -0.006458 -0.012192 0.000000 0.000000 0.000000
# 2 -0.006458 0.011627 0.000645 0.000000 0.000000 0.000000
# 3 -0.012192 0.000645 0.017652 0.000000 0.000000 0.000000
# 4 0.000000 0.000000 0.000000 0.046987 0.000000 0.000000
# 5 0.000000 0.000000 0.000000 0.000000 0.030595 0.000000
# 6 0.000000 0.000000 0.000000 0.000000 0.000000 0.047962
#
#
# Mechanical properties :
#
#
# Convention : Reuss Voigt Hill
#
# Bulk Modulus (GPa) = 30.44930 34.18930 32.31930
# Shear Modulus (GPa) = 20.71665 25.13539 22.92602
#
# Velocity S-wave (km/s) = 3.09924 3.41380 3.26032
# Velocity P-wave (km/s) = 5.18892 5.60273 5.39979
#
# Compressibility (1/GPa) = 0.03284148
#
# Stress axis : x y z
#
# Youngs Moduli (GPa) = 25.27045 86.00598 56.65230
#
# Poissons Ratio (x) = 0.55540 0.69070
# Poissons Ratio (y) = 0.16319 -0.03654
# Poissons Ratio (z) = 0.30809 -0.05547
#
# Static dielectric constant tensor:
#      x y z
#    x 1.750590 0.000000 0.000000 
#    y 0.000000 1.763090 0.000000 
#    z 0.000000 0.000000 2.577570 
# 
# From -- ./inp_files/8274.got.cif
#   From: 2010.05.17/outbox.cif.g08.bks.cpg/sg64_5_cif.got.tgz:8274.got - 2010.06.03 16:29:19.
