data_PCOD9481545
_publ_section_title
;
Structure prediction by ZEFSAII (Michael W. Deem and Ramdas Pophale) SiO2 
 PCOD9481545
Probable space group: C M C A
;
_chemical_formula_sum "Si O2"
_cell_formula_units_Z 88
_cell_length_a 20.340662
_cell_length_b 11.403157
_cell_length_c 16.602310
_cell_angle_alpha 90.000000
_cell_angle_beta 90.000000
_cell_angle_gamma 90.000000
_cell_volume 3850.868653
_symmetry_space_group_name_H-M "C M C A"
_symmetry_group_IT_number 64
_symmetry_cell_setting 'orthorhombic'
loop_
_space_group_symop_operation_xyz
x,y,z
-x,1/2-y,1/2+z
x,-y,-z
-x,1/2+y,1/2-z
-x,-y,-z
x,1/2+y,1/2-z
-x,y,z
x,1/2-y,1/2+z
1/2+x,1/2+y,z
1/2-x,-y,1/2+z
1/2+x,1/2-y,-z
1/2-x,y,1/2-z
1/2-x,1/2-y,-z
1/2+x,y,1/2-z
1/2-x,1/2+y,z
1/2+x,-y,1/2+z
loop_
_atom_site_type_symbol
_atom_site_label
_atom_site_fract_x
_atom_site_fract_y
_atom_site_fract_z
Si Si1 0.116084 0.369592 0.295021
Si Si2 0.152405 0.727018 0.949751
Si Si3 0.119481 0.496167 0.870573
Si Si4 0.789121 0.213436 0.374660
Si Si5 0.572609 0.943177 0.588326
Si Si6 0.000000 0.812540 0.648245
O O1 0.106264 0.424048 0.207855
O O2 0.181987 0.294799 0.305195
O O3 0.118589 0.480104 0.355510
O O4 0.057581 0.282782 0.322732
O O5 0.132937 0.592747 0.938701
O O6 0.213450 0.764920 0.893808
O O7 0.093211 0.810452 0.924475
O O8 0.174314 0.749721 0.041393
O O9 0.185547 0.418234 0.859652
O O10 0.058578 0.407006 0.878084
O O11 0.500000 0.949127 0.625288
O O12 0.571511 0.000000 0.500000
#
# Coordination Sequence:
#
# PCOD9481545 Si02
#       6
#    16  16  16  16  16   8
#     4  11  23  45  66 100 138 178 226 288 346 416
#     4  11  25  45  73  98 138 186 234 288 353 416
#     4  11  26  42  72 102 135 185 235 289 350 421
#     4  10  25  48  67  97 141 183 234 285 351 415
#     4  11  24  41  69 101 136 182 233 280 346 423
#     4  10  24  46  68  96 145 184 218 287 354 417
#
# _framework density 22.851987999999999
#
# number of rings (size 3 to 8) (size 9 to 14) (size 15 to 20)
#    0.000    1.273    2.727    1.091    8.909    0.727 
#    0.000    3.636    0.000    0.000    0.000    0.000 
#    0.000    0.000    0.000    0.000    0.000    0.000 
#
# Total GULP energy -245091.637147 kJ/mol
# GULP energy per Si atom -5570.264481 kJ/mol
# Density = 2.279998 g / cm^3
# Si number density = 22.851988 Si / 1000 Ang^3
#
#
#
# Elastic Constant Matrix: (Units=GPa)
#
#
# Indices 1 2 3 4 5 6 
#
# 1 76.0791 38.3932 9.9570 0.0000 0.0000 0.0000
# 2 38.3932 144.5753 3.2932 0.0000 0.0000 0.0000
# 3 9.9570 3.2932 33.5712 0.0000 0.0000 0.0000
# 4 0.0000 0.0000 0.0000 18.3747 0.0000 0.0000
# 5 0.0000 0.0000 0.0000 0.0000 3.9569 0.0000
# 6 0.0000 0.0000 0.0000 0.0000 0.0000 21.4856
#
#
#
# Elastic Compliance Matrix: (Units=1/GPa)
#
#
# Indices 1 2 3 4 5 6 
#
# 1 0.015768 -0.004090 -0.004275 0.000000 0.000000 0.000000
# 2 -0.004090 0.007993 0.000429 0.000000 0.000000 0.000000
# 3 -0.004275 0.000429 0.031013 0.000000 0.000000 0.000000
# 4 0.000000 0.000000 0.000000 0.054423 0.000000 0.000000
# 5 0.000000 0.000000 0.000000 0.000000 0.252720 0.000000
# 6 0.000000 0.000000 0.000000 0.000000 0.000000 0.046543
#
#
# Mechanical properties :
#
#
# Convention : Reuss Voigt Hill
#
# Bulk Modulus (GPa) = 25.70590 39.72363 32.71476
# Shear Modulus (GPa) = 11.43380 22.26892 16.85136
#
# Velocity S-wave (km/s) = 2.23926 3.12506 2.71848
# Velocity P-wave (km/s) = 4.23781 5.51743 4.91940
#
# Compressibility (1/GPa) = 0.03890157
#
# Stress axis : x y z
#
# Youngs Moduli (GPa) = 63.42080 125.10732 32.24414
#
# Poissons Ratio (x) = 0.51167 0.13786
# Poissons Ratio (y) = 0.25938 -0.01383
# Poissons Ratio (z) = 0.27115 -0.05366
#
# Static dielectric constant tensor:
#      x y z
#    x 1.821630 0.000000 0.000000 
#    y 0.000000 1.816960 0.000000 
#    z 0.000000 0.000000 1.916150 
# 
# From -- ./inp_files/34147.got.cif
#   From: 2010.05.17/outbox.cif.g08.bks.cpg/sg64_18_cif.got.tgz:34147.got - 2010.06.03 16:29:19.
