data_PCOD9481061
_publ_section_title
;
Structure prediction by ZEFSAII (Michael W. Deem and Ramdas Pophale) SiO2 
 PCOD9481061
Probable space group: C M C A
;
_chemical_formula_sum "Si O2"
_cell_formula_units_Z 64
_cell_length_a 28.171532
_cell_length_b 5.225204
_cell_length_c 17.732636
_cell_angle_alpha 90.000000
_cell_angle_beta 90.000000
_cell_angle_gamma 90.000000
_cell_volume 2610.279514
_symmetry_space_group_name_H-M "C M C A"
_symmetry_group_IT_number 64
_symmetry_cell_setting 'orthorhombic'
loop_
_space_group_symop_operation_xyz
x,y,z
-x,1/2-y,1/2+z
x,-y,-z
-x,1/2+y,1/2-z
-x,-y,-z
x,1/2+y,1/2-z
-x,y,z
x,1/2-y,1/2+z
1/2+x,1/2+y,z
1/2-x,-y,1/2+z
1/2+x,1/2-y,-z
1/2-x,y,1/2-z
1/2-x,1/2-y,-z
1/2+x,y,1/2-z
1/2-x,1/2+y,z
1/2+x,-y,1/2+z
loop_
_atom_site_type_symbol
_atom_site_label
_atom_site_fract_x
_atom_site_fract_y
_atom_site_fract_z
Si Si1 0.052191 0.121294 0.581040
Si Si2 0.557183 0.235691 0.711755
Si Si3 0.347680 0.739799 0.050847
Si Si4 0.769406 0.140368 0.162701
O O1 0.066123 0.885543 0.634998
O O2 0.097155 0.300931 0.572072
O O3 0.000000 0.227097 0.604347
O O4 0.046164 0.000000 0.500000
O O5 0.574723 0.950351 0.728153
O O6 0.500000 0.217692 0.717609
O O7 0.318984 0.747352 0.130454
O O8 0.332176 0.500000 0.000000
O O9 0.343267 0.000000 0.000000
O O10 0.750000 0.110683 0.250000
O O11 0.734174 0.354985 0.131472
#
# Coordination Sequence:
#
# PCOD9481061 Si02
#       4
#    16  16  16  16
#     4   9  20  40  64  94 136 180 219 265 320 382
#     4   9  18  34  54  81 116 160 213 261 308 359
#     4  11  24  41  65 100 134 171 220 268 323 393
#     4  10  22  43  67  96 130 169 215 271 337 394
#
# _framework density 24.518446000000001
#
# number of rings (size 3 to 8) (size 9 to 14) (size 15 to 20)
#    0.000    2.250    0.000    1.500    0.000    7.500 
#    9.000    7.500    0.000    0.000    0.000    0.000 
#    0.000    0.000    0.000    0.000    0.000    0.000 
#
# Total GULP energy -178149.907008 kJ/mol
# GULP energy per Si atom -5567.184594 kJ/mol
# Density = 2.446264 g / cm^3
# Si number density = 24.518446 Si / 1000 Ang^3
#
#
#
# Elastic Constant Matrix: (Units=GPa)
#
#
# Indices 1 2 3 4 5 6 
#
# 1 79.1307 -11.4027 41.0737 0.0000 0.0000 0.0000
# 2 -11.4027 127.8282 12.1363 0.0000 0.0000 0.0000
# 3 41.0737 12.1363 131.1673 0.0000 0.0000 0.0000
# 4 0.0000 0.0000 0.0000 281.1267 0.0000 0.0000
# 5 0.0000 0.0000 0.0000 0.0000 37.0298 0.0000
# 6 0.0000 0.0000 0.0000 0.0000 0.0000 18.1816
#
#
#
# Elastic Compliance Matrix: (Units=1/GPa)
#
#
# Indices 1 2 3 4 5 6 
#
# 1 0.015517 0.001862 -0.005031 0.000000 0.000000 0.000000
# 2 0.001862 0.008116 -0.001334 0.000000 0.000000 0.000000
# 3 -0.005031 -0.001334 0.009323 0.000000 0.000000 0.000000
# 4 0.000000 0.000000 0.000000 0.003557 0.000000 0.000000
# 5 0.000000 0.000000 0.000000 0.000000 0.027005 0.000000
# 6 0.000000 0.000000 0.000000 0.000000 0.000000 0.055001
#
#
# Mechanical properties :
#
#
# Convention : Reuss Voigt Hill
#
# Bulk Modulus (GPa) = 41.75551 46.86008 44.30780
# Shear Modulus (GPa) = 36.89809 87.02223 61.96016
#
# Velocity S-wave (km/s) = 3.88353 5.96403 5.03246
# Velocity P-wave (km/s) = 6.09723 8.15964 7.20264
#
# Compressibility (1/GPa) = 0.02394893
#
# Stress axis : x y z
#
# Youngs Moduli (GPa) = 64.44470 123.21743 107.26419
#
# Poissons Ratio (x) = -0.22941 0.53968
# Poissons Ratio (y) = -0.11999 0.14308
# Poissons Ratio (z) = 0.32424 0.16436
#
# Static dielectric constant tensor:
#      x y z
#    x 1.966040 0.000000 0.000000 
#    y 0.000000 1.982300 0.000000 
#    z 0.000000 0.000000 1.373400 
# 
# From -- ./inp_files/35628.got.cif
#   From: 2010.05.17/outbox.cif.g08.bks.cpg/sg64_18_cif.got.tgz:35628.got - 2010.06.03 16:29:19.
