data_PCOD9481948
_publ_section_title
;
Structure prediction by ZEFSAII (Michael W. Deem and Ramdas Pophale) SiO2 
 PCOD9481948
Probable space group: C M C A
;
_chemical_formula_sum "Si O2"
_cell_formula_units_Z 96
_cell_length_a 7.320426
_cell_length_b 19.864605
_cell_length_c 24.657274
_cell_angle_alpha 90.000000
_cell_angle_beta 90.000000
_cell_angle_gamma 90.000000
_cell_volume 3585.595959
_symmetry_space_group_name_H-M "C M C A"
_symmetry_group_IT_number 64
_symmetry_cell_setting 'orthorhombic'
loop_
_space_group_symop_operation_xyz
x,y,z
-x,1/2-y,1/2+z
x,-y,-z
-x,1/2+y,1/2-z
-x,-y,-z
x,1/2+y,1/2-z
-x,y,z
x,1/2-y,1/2+z
1/2+x,1/2+y,z
1/2-x,-y,1/2+z
1/2+x,1/2-y,-z
1/2-x,y,1/2-z
1/2-x,1/2-y,-z
1/2+x,y,1/2-z
1/2-x,1/2+y,z
1/2+x,-y,1/2+z
loop_
_atom_site_type_symbol
_atom_site_label
_atom_site_fract_x
_atom_site_fract_y
_atom_site_fract_z
Si Si1 0.300828 0.355742 0.689233
Si Si2 0.278861 0.519141 0.578086
Si Si3 0.778626 0.829790 0.456447
Si Si4 0.723393 0.371639 0.567837
Si Si5 0.284161 0.563331 0.690474
Si Si6 0.221982 0.711734 0.840143
O O1 0.500000 0.386583 0.680999
O O2 0.250000 0.377846 0.750000
O O3 0.209012 0.363445 0.629680
O O4 0.302431 0.274580 0.691050
O O5 0.500000 0.519042 0.573947
O O6 0.225404 0.593088 0.558557
O O7 0.224793 0.448569 0.552305
O O8 0.218754 0.518136 0.641098
O O9 0.715195 0.822720 0.518762
O O10 0.719914 0.787749 0.403711
O O11 0.000000 0.826839 0.456302
O O12 0.500000 0.366899 0.568416
O O13 0.500000 0.568424 0.682862
O O14 0.250000 0.537247 0.750000
O O15 0.217059 0.639995 0.683814
O O16 0.000000 0.715482 0.837603
#
# Coordination Sequence:
#
# PCOD9481948 Si02
#       6
#    16  16  16  16  16  16
#     4  11  23  36  50  70  98 133 170 202 236 283
#     4   8  14  26  45  70  99 127 156 195 242 287
#     4   8  14  27  50  77 100 123 155 198 247 293
#     4   9  17  29  47  72 100 129 161 197 237 287
#     4   9  17  28  45  70  95 122 159 202 245 286
#     4   9  18  33  52  74  99 125 158 202 249 293
#
# _framework density 26.773793999999999
#
# number of rings (size 3 to 8) (size 9 to 14) (size 15 to 20)
#    0.000    3.000    0.000    3.500    0.000    5.333 
#    0.000    0.000    0.000    2.000    0.000    0.000 
#    0.000   10.667    0.000    0.000    0.000    0.000 
#
# Total GULP energy -268036.652665 kJ/mol
# GULP energy per Si atom -5584.096931 kJ/mol
# Density = 2.671286 g / cm^3
# Si number density = 26.773794 Si / 1000 Ang^3
#
#
#
# Elastic Constant Matrix: (Units=GPa)
#
#
# Indices 1 2 3 4 5 6 
#
# 1 104.4602 -6.9337 -1.1984 0.0000 0.0000 0.0000
# 2 -6.9337 76.9639 8.5760 0.0000 0.0000 0.0000
# 3 -1.1984 8.5760 195.2764 0.0000 0.0000 0.0000
# 4 0.0000 0.0000 0.0000 26.2892 0.0000 0.0000
# 5 0.0000 0.0000 0.0000 0.0000 7.4193 0.0000
# 6 0.0000 0.0000 0.0000 0.0000 0.0000 -3.4195
#
#
#
# Elastic Compliance Matrix: (Units=1/GPa)
#
#
# Indices 1 2 3 4 5 6 
#
# 1 0.009631 0.000865 0.000021 0.000000 0.000000 0.000000
# 2 0.000865 0.013135 -0.000572 0.000000 0.000000 0.000000
# 3 0.000021 -0.000572 0.005146 0.000000 0.000000 0.000000
# 4 0.000000 0.000000 0.000000 0.038038 0.000000 0.000000
# 5 0.000000 0.000000 0.000000 0.000000 0.134784 0.000000
# 6 0.000000 0.000000 0.000000 0.000000 0.000000 -0.292438
#
#
# Mechanical properties :
#
#
# Convention : Reuss Voigt Hill
#
# Bulk Modulus (GPa) = 35.03691 41.95424 38.49558
# Shear Modulus (GPa) = -60.37197 31.14157 -14.61520
#
# Velocity S-wave (km/s) = -4.75372 3.41418 -2.33894
# Velocity P-wave (km/s) = 4.12502 5.58982 2.66742
#
# Compressibility (1/GPa) = 0.02854133
#
# Stress axis : x y z
#
# Youngs Moduli (GPa) = 103.83464 76.13398 194.31905
#
# Poissons Ratio (x) = -0.06588 -0.00410
# Poissons Ratio (y) = -0.08985 0.11106
# Poissons Ratio (z) = -0.00219 0.04351
#
# Static dielectric constant tensor:
#      x y z
#    x 2.318330 0.000000 0.000000 
#    y 0.000000 2.061660 0.000000 
#    z 0.000000 0.000000 2.183660 
# 
# From -- ./inp_files/38394.got.cif
#   From: 2010.05.17/outbox.cif.g08.bks.cpg/sg64_20_cif.got.tgz:38394.got - 2010.06.03 16:29:19.
