data_PCOD9481175
_publ_section_title
;
Structure prediction by ZEFSAII (Michael W. Deem and Ramdas Pophale) SiO2 
 PCOD9481175
Probable space group: C M C A
;
_chemical_formula_sum "Si O2"
_cell_formula_units_Z 88
_cell_length_a 11.706841
_cell_length_b 24.895508
_cell_length_c 15.573353
_cell_angle_alpha 90.000000
_cell_angle_beta 90.000000
_cell_angle_gamma 90.000000
_cell_volume 4538.818751
_symmetry_space_group_name_H-M "C M C A"
_symmetry_group_IT_number 64
_symmetry_cell_setting 'orthorhombic'
loop_
_space_group_symop_operation_xyz
x,y,z
-x,1/2-y,1/2+z
x,-y,-z
-x,1/2+y,1/2-z
-x,-y,-z
x,1/2+y,1/2-z
-x,y,z
x,1/2-y,1/2+z
1/2+x,1/2+y,z
1/2-x,-y,1/2+z
1/2+x,1/2-y,-z
1/2-x,y,1/2-z
1/2-x,1/2-y,-z
1/2+x,y,1/2-z
1/2-x,1/2+y,z
1/2+x,-y,1/2+z
loop_
_atom_site_type_symbol
_atom_site_label
_atom_site_fract_x
_atom_site_fract_y
_atom_site_fract_z
Si Si1 0.750000 0.079138 0.250000
Si Si2 0.271638 0.766729 0.149609
Si Si3 0.500000 0.388585 0.547520
Si Si4 0.000000 0.417764 0.283578
Si Si5 0.500000 0.664530 0.632481
Si Si6 0.755794 0.649132 0.087260
Si Si7 0.627502 0.362960 0.079968
Si Si8 0.500000 0.969267 0.807668
O O1 0.716292 0.116162 0.330547
O O2 0.627554 0.050416 0.226274
O O3 0.250000 0.754332 0.250000
O O4 0.388552 0.798366 0.131288
O O5 0.272899 0.711540 0.097183
O O6 0.174507 0.808810 0.122033
O O7 0.500000 0.378716 0.445254
O O8 0.609379 0.357679 0.582667
O O9 0.500000 0.447277 0.593312
O O10 0.000000 0.366942 0.221578
O O11 0.108239 0.408997 0.347863
O O12 0.000000 0.469477 0.224422
O O13 0.706404 0.624023 0.000088
O O14 0.500000 0.353085 0.046074
#
# Coordination Sequence:
#
# PCOD9481175 Si02
#       8
#     8  16   8   8   8  16  16   8
#     4  10  24  44  66  98 128 172 220 276 340 400
#     4  12  23  38  61  98 135 181 214 258 332 395
#     4  10  24  41  65  97 126 176 221 267 332 392
#     4  10  24  44  68  92 127 168 215 293 327 392
#     4  12  24  38  63  94 134 171 224 262 325 403
#     4  11  23  41  65  93 140 171 215 267 322 411
#     4  10  23  39  61  97 130 164 219 267 323 392
#     4  10  24  47  70  93 127 169 227 282 346 396
#
# _framework density 19.388304000000002
#
# number of rings (size 3 to 8) (size 9 to 14) (size 15 to 20)
#    0.545    0.727    4.545    0.545    3.818    1.818 
#    0.000    1.818    0.000    0.000    0.000    0.000 
#    0.000    0.000    0.000    0.000    0.000    0.000 
#
# Total GULP energy -245027.935829 kJ/mol
# GULP energy per Si atom -5568.816723 kJ/mol
# Density = 1.934418 g / cm^3
# Si number density = 19.388304 Si / 1000 Ang^3
#
#
#
# Elastic Constant Matrix: (Units=GPa)
#
#
# Indices 1 2 3 4 5 6 
#
# 1 102.8846 36.7454 7.7560 0.0000 0.0000 0.0000
# 2 36.7454 93.4159 34.7700 0.0000 0.0000 0.0000
# 3 7.7560 34.7700 94.8596 0.0000 0.0000 0.0000
# 4 0.0000 0.0000 0.0000 25.8468 0.0000 0.0000
# 5 0.0000 0.0000 0.0000 0.0000 64.6459 0.0000
# 6 0.0000 0.0000 0.0000 0.0000 0.0000 17.2766
#
#
#
# Elastic Compliance Matrix: (Units=1/GPa)
#
#
# Indices 1 2 3 4 5 6 
#
# 1 0.011363 -0.004775 0.000821 0.000000 0.000000 0.000000
# 2 -0.004775 0.014403 -0.004889 0.000000 0.000000 0.000000
# 3 0.000821 -0.004889 0.012267 0.000000 0.000000 0.000000
# 4 0.000000 0.000000 0.000000 0.038689 0.000000 0.000000
# 5 0.000000 0.000000 0.000000 0.000000 0.015469 0.000000
# 6 0.000000 0.000000 0.000000 0.000000 0.000000 0.057882
#
#
# Mechanical properties :
#
#
# Convention : Reuss Voigt Hill
#
# Bulk Modulus (GPa) = 49.14743 49.96699 49.55721
# Shear Modulus (GPa) = 28.64651 35.67977 32.16314
#
# Velocity S-wave (km/s) = 3.84802 4.29449 4.07737
# Velocity P-wave (km/s) = 6.71915 7.10056 6.91249
#
# Compressibility (1/GPa) = 0.02034694
#
# Stress axis : x y z
#
# Youngs Moduli (GPa) = 88.00267 69.43035 81.52155
#
# Poissons Ratio (x) = 0.33156 -0.06696
# Poissons Ratio (y) = 0.42026 0.39854
# Poissons Ratio (z) = -0.07228 0.33943
#
# Static dielectric constant tensor:
#      x y z
#    x 1.587730 0.000000 0.000000 
#    y 0.000000 1.647140 0.000000 
#    z 0.000000 0.000000 1.702480 
# 
# From -- ./inp_files/22618.got.cif
#   From: 2010.05.17/outbox.cif.g08.bks.cpg/sg64_12_cif.got.tgz:22618.got - 2010.06.03 16:29:19.
