data_PCOD9481133
_publ_section_title
;
Structure prediction by ZEFSAII (Michael W. Deem and Ramdas Pophale) SiO2 
 PCOD9481133
Probable space group: C M C A
;
_chemical_formula_sum "Si O2"
_cell_formula_units_Z 52
_cell_length_a 14.684225
_cell_length_b 5.301027
_cell_length_c 29.255091
_cell_angle_alpha 90.000000
_cell_angle_beta 90.000000
_cell_angle_gamma 90.000000
_cell_volume 2277.259382
_symmetry_space_group_name_H-M "C M C A"
_symmetry_group_IT_number 64
_symmetry_cell_setting 'orthorhombic'
loop_
_space_group_symop_operation_xyz
x,y,z
-x,1/2-y,1/2+z
x,-y,-z
-x,1/2+y,1/2-z
-x,-y,-z
x,1/2+y,1/2-z
-x,y,z
x,1/2-y,1/2+z
1/2+x,1/2+y,z
1/2-x,-y,1/2+z
1/2+x,1/2-y,-z
1/2-x,y,1/2-z
1/2-x,1/2-y,-z
1/2+x,y,1/2-z
1/2-x,1/2+y,z
1/2+x,-y,1/2+z
loop_
_atom_site_type_symbol
_atom_site_label
_atom_site_fract_x
_atom_site_fract_y
_atom_site_fract_z
Si Si1 0.599037 0.262628 0.578043
Si Si2 0.000000 0.397038 0.278586
Si Si3 0.191218 0.500000 0.000000
Si Si4 0.000000 0.000000 0.000000
Si Si5 0.192412 0.669181 0.670427
O O1 0.500000 0.325545 0.599456
O O2 0.630349 0.490979 0.545767
O O3 0.576696 0.056159 0.539569
O O4 0.669493 0.182254 0.616247
O O5 0.094254 0.353909 0.305709
O O6 0.000000 0.683899 0.260690
O O7 0.250000 0.250000 0.000000
O O8 0.254515 0.427401 0.681883
#
# Coordination Sequence:
#
# PCOD9481133 Si02
#       5
#    16   8   8   4  16
#     4  10  22  45  67 102 143 202 246 312 364 426
#     4  12  27  52  82 116 152 190 236 307 382 458
#     4  12  24  40  61  97 138 184 250 300 356 426
#     4   8  20  38  72  92 144 192 256 298 360 412
#     4  12  27  50  78 113 151 197 248 305 375 454
#
# _framework density 22.834465999999999
#
# number of rings (size 3 to 8) (size 9 to 14) (size 15 to 20)
#    0.923    0.000    1.538    5.077    0.000    6.154 
#    0.000    0.000    0.000    0.000    0.000    0.000 
#    0.000    0.000    0.000    0.000    0.000    0.000 
#
# Total GULP energy -144746.713754 kJ/mol
# GULP energy per Si atom -5567.181298 kJ/mol
# Density = 2.278249 g / cm^3
# Si number density = 22.834466 Si / 1000 Ang^3
#
#
#
# Elastic Constant Matrix: (Units=GPa)
#
#
# Indices 1 2 3 4 5 6 
#
# 1 138.9030 43.7607 17.2567 0.0000 0.0000 0.0000
# 2 43.7607 115.1137 -6.2999 0.0000 0.0000 0.0000
# 3 17.2567 -6.2999 43.2804 0.0000 0.0000 0.0000
# 4 0.0000 0.0000 0.0000 26.0840 0.0000 0.0000
# 5 0.0000 0.0000 0.0000 0.0000 40.6160 0.0000
# 6 0.0000 0.0000 0.0000 0.0000 0.0000 17.1712
#
#
#
# Elastic Compliance Matrix: (Units=1/GPa)
#
#
# Indices 1 2 3 4 5 6 
#
# 1 0.008828 -0.003577 -0.004041 0.000000 0.000000 0.000000
# 2 -0.003577 0.010206 0.002912 0.000000 0.000000 0.000000
# 3 -0.004041 0.002912 0.025140 0.000000 0.000000 0.000000
# 4 0.000000 0.000000 0.000000 0.038338 0.000000 0.000000
# 5 0.000000 0.000000 0.000000 0.000000 0.024621 0.000000
# 6 0.000000 0.000000 0.000000 0.000000 0.000000 0.058237
#
#
# Mechanical properties :
#
#
# Convention : Reuss Voigt Hill
#
# Bulk Modulus (GPa) = 28.76646 45.19246 36.97946
# Shear Modulus (GPa) = 26.82841 32.94622 29.88732
#
# Velocity S-wave (km/s) = 3.43141 3.80258 3.62175
# Velocity P-wave (km/s) = 5.32209 6.25410 5.80682
#
# Compressibility (1/GPa) = 0.03476271
#
# Stress axis : x y z
#
# Youngs Moduli (GPa) = 113.27279 97.97864 39.77711
#
# Poissons Ratio (x) = 0.35049 0.16073
# Poissons Ratio (y) = 0.40520 -0.11583
# Poissons Ratio (z) = 0.45770 -0.28531
#
# Static dielectric constant tensor:
#      x y z
#    x 1.923660 0.000000 0.000000 
#    y 0.000000 1.869600 0.000000 
#    z 0.000000 0.000000 1.900570 
# 
# From -- ./inp_files/53474.got.cif
#   From: 2010.05.17/outbox.cif.g08.bks.cpg/sg64_27_cif.got.tgz:53474.got - 2010.06.03 16:29:19.
