data_PCOD9481075
_publ_section_title
;
Structure prediction by ZEFSAII (Michael W. Deem and Ramdas Pophale) SiO2 
 PCOD9481075
Probable space group: C M C A
;
_chemical_formula_sum "Si O2"
_cell_formula_units_Z 104
_cell_length_a 18.694234
_cell_length_b 28.211283
_cell_length_c 9.920233
_cell_angle_alpha 90.000000
_cell_angle_beta 90.000000
_cell_angle_gamma 90.000000
_cell_volume 5231.815074
_symmetry_space_group_name_H-M "C M C A"
_symmetry_group_IT_number 64
_symmetry_cell_setting 'orthorhombic'
loop_
_space_group_symop_operation_xyz
x,y,z
-x,1/2-y,1/2+z
x,-y,-z
-x,1/2+y,1/2-z
-x,-y,-z
x,1/2+y,1/2-z
-x,y,z
x,1/2-y,1/2+z
1/2+x,1/2+y,z
1/2-x,-y,1/2+z
1/2+x,1/2-y,-z
1/2-x,y,1/2-z
1/2-x,1/2-y,-z
1/2+x,y,1/2-z
1/2-x,1/2+y,z
1/2+x,-y,1/2+z
loop_
_atom_site_type_symbol
_atom_site_label
_atom_site_fract_x
_atom_site_fract_y
_atom_site_fract_z
Si Si1 0.195152 0.873394 0.127679
Si Si2 0.680761 0.117726 0.058536
Si Si3 0.250000 0.958698 0.750000
Si Si4 0.131057 0.974467 0.124377
Si Si5 0.084389 0.203181 0.758706
Si Si6 0.416167 0.703039 0.438264
Si Si7 0.418741 0.046464 0.914954
O O1 0.250000 0.882574 0.250000
O O2 0.158055 0.922361 0.086829
O O3 0.136837 0.835926 0.177862
O O4 0.247599 0.859954 0.005161
O O5 0.702058 0.076636 0.161606
O O6 0.631974 0.159798 0.112767
O O7 0.633594 0.089803 0.946779
O O8 0.199474 0.992853 0.837731
O O9 0.086477 0.967982 0.259843
O O10 0.093690 0.000000 0.000000
O O11 0.099633 0.210357 0.598678
O O12 0.000000 0.189685 0.769468
O O13 0.094872 0.250701 0.846633
O O14 0.500000 0.690697 0.429502
O O15 0.500000 0.059319 0.951325
O O16 0.397717 0.000000 0.000000
#
# Coordination Sequence:
#
# PCOD9481075 Si02
#       7
#    16  16   8  16  16  16  16
#     4  12  22  37  64  94 121 168 214 262 312 384
#     4  12  23  40  65  96 128 168 221 265 322 378
#     4  12  24  38  60  94 134 172 212 270 318 378
#     4  12  23  39  63  91 132 174 213 261 326 377
#     4  10  23  44  67  93 126 166 211 262 327 392
#     4  10  22  43  69  92 124 167 211 265 326 389
#     4  11  23  40  63  90 125 172 223 264 306 379
#
# _framework density 19.878378999999999
#
# number of rings (size 3 to 8) (size 9 to 14) (size 15 to 20)
#    0.000    0.769    6.923    0.462    0.000    4.000 
#    1.385    0.000    0.000    0.923    0.000    0.000 
#    0.000    0.000    0.000    0.000    0.000    0.000 
#
# Total GULP energy -290555.000058 kJ/mol
# GULP energy per Si atom -5587.596155 kJ/mol
# Density = 1.983313 g / cm^3
# Si number density = 19.878379 Si / 1000 Ang^3
#
#
#
# Elastic Constant Matrix: (Units=GPa)
#
#
# Indices 1 2 3 4 5 6 
#
# 1 60.6581 40.8375 2.9806 0.0000 0.0000 0.0000
# 2 40.8375 65.5682 0.1333 0.0000 0.0000 0.0000
# 3 2.9806 0.1333 25.0849 0.0000 0.0000 0.0000
# 4 0.0000 0.0000 0.0000 26.3436 0.0000 0.0000
# 5 0.0000 0.0000 0.0000 0.0000 20.8910 0.0000
# 6 0.0000 0.0000 0.0000 0.0000 0.0000 97.0440
#
#
#
# Elastic Compliance Matrix: (Units=1/GPa)
#
#
# Indices 1 2 3 4 5 6 
#
# 1 0.028663 -0.017845 -0.003311 0.000000 0.000000 0.000000
# 2 -0.017845 0.026362 0.001980 0.000000 0.000000 0.000000
# 3 -0.003311 0.001980 0.040248 0.000000 0.000000 0.000000
# 4 0.000000 0.000000 0.000000 0.037960 0.000000 0.000000
# 5 0.000000 0.000000 0.000000 0.000000 0.047868 0.000000
# 6 0.000000 0.000000 0.000000 0.000000 0.000000 0.010305
#
#
# Mechanical properties :
#
#
# Convention : Reuss Voigt Hill
#
# Bulk Modulus (GPa) = 17.56840 26.57935 22.07388
# Shear Modulus (GPa) = 20.10225 36.01305 28.05765
#
# Velocity S-wave (km/s) = 3.18348 4.26099 3.76102
# Velocity P-wave (km/s) = 4.72968 6.13254 5.47622
#
# Compressibility (1/GPa) = 0.05692037
#
# Stress axis : x y z
#
# Youngs Moduli (GPa) = 34.88874 37.93396 24.84626
#
# Poissons Ratio (x) = 0.67693 0.08226
# Poissons Ratio (y) = 0.62259 -0.04920
# Poissons Ratio (z) = 0.11551 -0.07512
#
# Static dielectric constant tensor:
#      x y z
#    x 1.701590 0.000000 0.000000 
#    y 0.000000 1.667670 0.000000 
#    z 0.000000 0.000000 1.739160 
# 
# From -- ./inp_files/8508.got.cif
#   From: 2010.05.17/outbox.cif.g08.bks.cpg/sg64_5_cif.got.tgz:8508.got - 2010.06.03 16:29:19.
