data_PCOD9481956
_publ_section_title
;
Structure prediction by ZEFSAII (Michael W. Deem and Ramdas Pophale) SiO2 
 PCOD9481956
Probable space group: C M C A
;
_chemical_formula_sum "Si O2"
_cell_formula_units_Z 64
_cell_length_a 11.542903
_cell_length_b 18.319995
_cell_length_c 13.187738
_cell_angle_alpha 90.000000
_cell_angle_beta 90.000000
_cell_angle_gamma 90.000000
_cell_volume 2788.757218
_symmetry_space_group_name_H-M "C M C A"
_symmetry_group_IT_number 64
_symmetry_cell_setting 'orthorhombic'
loop_
_space_group_symop_operation_xyz
x,y,z
-x,1/2-y,1/2+z
x,-y,-z
-x,1/2+y,1/2-z
-x,-y,-z
x,1/2+y,1/2-z
-x,y,z
x,1/2-y,1/2+z
1/2+x,1/2+y,z
1/2-x,-y,1/2+z
1/2+x,1/2-y,-z
1/2-x,y,1/2-z
1/2-x,1/2-y,-z
1/2+x,y,1/2-z
1/2-x,1/2+y,z
1/2+x,-y,1/2+z
loop_
_atom_site_type_symbol
_atom_site_label
_atom_site_fract_x
_atom_site_fract_y
_atom_site_fract_z
Si Si1 0.302362 0.080357 0.506543
Si Si2 0.368849 0.156305 0.311674
Si Si3 0.627374 0.680767 0.604788
Si Si4 0.875353 0.946343 0.227970
O O1 0.368963 0.098771 0.404374
O O2 0.215395 0.146623 0.525622
O O3 0.374569 0.075438 0.610228
O O4 0.244905 0.000000 0.500000
O O5 0.500000 0.155432 0.264656
O O6 0.250000 0.143538 0.250000
O O7 0.353403 0.237813 0.357138
O O8 0.500000 0.678130 0.558765
O O9 0.629767 0.625692 0.700980
O O10 0.750000 0.982934 0.250000
O O11 0.000000 0.982319 0.252435
#
# Coordination Sequence:
#
# PCOD9481956 Si02
#       4
#    16  16  16  16
#     4  11  23  38  60  92 128 166 207 253 311 377
#     4  11  24  42  65  93 126 165 212 263 312 367
#     4   9  20  40  66  94 122 160 209 260 316 371
#     4   9  18  35  58  83 114 153 199 248 300 362
#
# _framework density 22.949290999999999
#
# number of rings (size 3 to 8) (size 9 to 14) (size 15 to 20)
#    0.000    2.000    0.000    3.750    0.000    6.500 
#    0.000    8.750    0.000    0.000    0.000    0.000 
#    0.000    0.000    0.000    0.000    0.000    0.000 
#
# Total GULP energy -178469.767220 kJ/mol
# GULP energy per Si atom -5577.180226 kJ/mol
# Density = 2.289706 g / cm^3
# Si number density = 22.949291 Si / 1000 Ang^3
#
#
#
# Elastic Constant Matrix: (Units=GPa)
#
#
# Indices 1 2 3 4 5 6 
#
# 1 230.3536 33.3914 52.2900 0.0000 0.0000 0.0000
# 2 33.3914 120.0116 -4.3262 0.0000 0.0000 0.0000
# 3 52.2900 -4.3262 65.2591 0.0000 0.0000 0.0000
# 4 0.0000 0.0000 0.0000 26.4382 0.0000 0.0000
# 5 0.0000 0.0000 0.0000 0.0000 4.9514 0.0000
# 6 0.0000 0.0000 0.0000 0.0000 0.0000 121.2415
#
#
#
# Elastic Compliance Matrix: (Units=1/GPa)
#
#
# Indices 1 2 3 4 5 6 
#
# 1 0.005646 -0.001738 -0.004639 0.000000 0.000000 0.000000
# 2 -0.001738 0.008888 0.001982 0.000000 0.000000 0.000000
# 3 -0.004639 0.001982 0.019172 0.000000 0.000000 0.000000
# 4 0.000000 0.000000 0.000000 0.037824 0.000000 0.000000
# 5 0.000000 0.000000 0.000000 0.000000 0.201965 0.000000
# 6 0.000000 0.000000 0.000000 0.000000 0.000000 0.008248
#
#
# Mechanical properties :
#
#
# Convention : Reuss Voigt Hill
#
# Bulk Modulus (GPa) = 40.13670 64.25944 52.19807
# Shear Modulus (GPa) = 16.73140 52.81081 34.77111
#
# Velocity S-wave (km/s) = 2.70304 4.80228 3.89669
# Velocity P-wave (km/s) = 5.22199 7.66881 6.56048
#
# Compressibility (1/GPa) = 0.02491486
#
# Stress axis : x y z
#
# Youngs Moduli (GPa) = 177.10847 112.51626 52.15856
#
# Poissons Ratio (x) = 0.19558 0.24198
# Poissons Ratio (y) = 0.30785 -0.10338
# Poissons Ratio (z) = 0.82168 -0.22300
#
# Static dielectric constant tensor:
#      x y z
#    x 1.952940 0.000000 0.000000 
#    y 0.000000 1.836210 0.000000 
#    z 0.000000 0.000000 1.822360 
# 
# From -- ./inp_files/12823.got.cif
#   From: 2010.05.17/outbox.cif.g08.bks.cpg/sg64_7_cif.got.tgz:12823.got - 2010.06.03 16:29:19.
