data_PCOD9481765
_publ_section_title
;
Structure prediction by ZEFSAII (Michael W. Deem and Ramdas Pophale) SiO2 
 PCOD9481765
Probable space group: C M C A
;
_chemical_formula_sum "Si O2"
_cell_formula_units_Z 72
_cell_length_a 15.037268
_cell_length_b 13.459507
_cell_length_c 15.008177
_cell_angle_alpha 90.000000
_cell_angle_beta 90.000000
_cell_angle_gamma 90.000000
_cell_volume 3037.568186
_symmetry_space_group_name_H-M "C M C A"
_symmetry_group_IT_number 64
_symmetry_cell_setting 'orthorhombic'
loop_
_space_group_symop_operation_xyz
x,y,z
-x,1/2-y,1/2+z
x,-y,-z
-x,1/2+y,1/2-z
-x,-y,-z
x,1/2+y,1/2-z
-x,y,z
x,1/2-y,1/2+z
1/2+x,1/2+y,z
1/2-x,-y,1/2+z
1/2+x,1/2-y,-z
1/2-x,y,1/2-z
1/2-x,1/2-y,-z
1/2+x,y,1/2-z
1/2-x,1/2+y,z
1/2+x,-y,1/2+z
loop_
_atom_site_type_symbol
_atom_site_label
_atom_site_fract_x
_atom_site_fract_y
_atom_site_fract_z
Si Si1 0.164809 0.406487 0.562545
Si Si2 0.500000 0.353760 0.704559
Si Si3 0.662876 0.068066 0.696754
Si Si4 0.000000 0.911315 0.319844
Si Si5 0.000000 0.782286 0.912301
Si Si6 0.305969 0.277574 0.656626
O O1 0.183686 0.500000 0.500000
O O2 0.129352 0.470509 0.647866
O O3 0.086118 0.329910 0.541398
O O4 0.251383 0.344866 0.588622
O O5 0.500000 0.469672 0.675907
O O6 0.500000 0.318323 0.808458
O O7 0.406903 0.312545 0.666829
O O8 0.750000 0.036764 0.750000
O O9 0.588486 0.110371 0.762634
O O10 0.691814 0.160220 0.635030
O O11 0.000000 0.837328 0.403876
O O12 0.250000 0.283633 0.750000
#
# Coordination Sequence:
#
# PCOD9481765 Si02
#       6
#    16   8  16   8   8  16
#     4  12  25  40  59  89 132 165 195 250 319 376
#     4  12  20  37  66  94 121 146 206 267 298 350
#     4  11  21  36  63  89 115 158 210 255 299 352
#     4  12  20  34  64  95 116 148 194 264 310 338
#     4  12  21  39  62  93 118 152 205 254 304 357
#     4  11  21  39  62  91 119 156 211 260 297 360
#
# _framework density 23.703173
#
# number of rings (size 3 to 8) (size 9 to 14) (size 15 to 20)
#    0.000    0.444    6.667    3.667    0.000    0.889 
#    0.000    0.556    0.000    0.000    0.000    0.000 
#    0.000    0.000    0.000    0.000    0.000    0.000 
#
# Total GULP energy -201324.718224 kJ/mol
# GULP energy per Si atom -5592.353284 kJ/mol
# Density = 2.364922 g / cm^3
# Si number density = 23.703173 Si / 1000 Ang^3
#
#
#
# Elastic Constant Matrix: (Units=GPa)
#
#
# Indices 1 2 3 4 5 6 
#
# 1 145.1268 9.7354 10.2314 0.0000 0.0000 0.0000
# 2 9.7354 142.8059 -1.7702 0.0000 0.0000 0.0000
# 3 10.2314 -1.7702 17.1452 0.0000 0.0000 0.0000
# 4 0.0000 0.0000 0.0000 30.1234 0.0000 0.0000
# 5 0.0000 0.0000 0.0000 0.0000 12.0282 0.0000
# 6 0.0000 0.0000 0.0000 0.0000 0.0000 42.3968
#
#
#
# Elastic Compliance Matrix: (Units=1/GPa)
#
#
# Indices 1 2 3 4 5 6 
#
# 1 0.007236 -0.000547 -0.004374 0.000000 0.000000 0.000000
# 2 -0.000547 0.007053 0.001055 0.000000 0.000000 0.000000
# 3 -0.004374 0.001055 0.061045 0.000000 0.000000 0.000000
# 4 0.000000 0.000000 0.000000 0.033197 0.000000 0.000000
# 5 0.000000 0.000000 0.000000 0.000000 0.083138 0.000000
# 6 0.000000 0.000000 0.000000 0.000000 0.000000 0.023587
#
#
# Mechanical properties :
#
#
# Convention : Reuss Voigt Hill
#
# Bulk Modulus (GPa) = 14.79305 37.94121 26.36713
# Shear Modulus (GPa) = 20.36480 36.03511 28.19995
#
# Velocity S-wave (km/s) = 2.93432 3.90329 3.45296
# Velocity P-wave (km/s) = 4.21127 6.02957 5.20051
#
# Compressibility (1/GPa) = 0.06759932
#
# Stress axis : x y z
#
# Youngs Moduli (GPa) = 138.20466 141.78542 16.38145
#
# Poissons Ratio (x) = 0.07763 0.07166
# Poissons Ratio (y) = 0.07567 -0.01728
# Poissons Ratio (z) = 0.60456 -0.14957
#
# Static dielectric constant tensor:
#      x y z
#    x 1.824210 0.000000 0.000000 
#    y 0.000000 1.882090 0.000000 
#    z 0.000000 0.000000 2.017100 
# 
# From -- ./inp_files/31945.got.cif
#   From: 2010.05.17/outbox.cif.g08.bks.cpg/sg64_16_cif.got.tgz:31945.got - 2010.06.03 16:29:19.
