data_PCOD9481137
_publ_section_title
;
Structure prediction by ZEFSAII (Michael W. Deem and Ramdas Pophale) SiO2 
 PCOD9481137
Probable space group: C M C A
;
_chemical_formula_sum "Si O2"
_cell_formula_units_Z 88
_cell_length_a 14.826081
_cell_length_b 22.451132
_cell_length_c 10.261820
_cell_angle_alpha 90.000000
_cell_angle_beta 90.000000
_cell_angle_gamma 90.000000
_cell_volume 3415.773024
_symmetry_space_group_name_H-M "C M C A"
_symmetry_group_IT_number 64
_symmetry_cell_setting 'orthorhombic'
loop_
_space_group_symop_operation_xyz
x,y,z
-x,1/2-y,1/2+z
x,-y,-z
-x,1/2+y,1/2-z
-x,-y,-z
x,1/2+y,1/2-z
-x,y,z
x,1/2-y,1/2+z
1/2+x,1/2+y,z
1/2-x,-y,1/2+z
1/2+x,1/2-y,-z
1/2-x,y,1/2-z
1/2-x,1/2-y,-z
1/2+x,y,1/2-z
1/2-x,1/2+y,z
1/2+x,-y,1/2+z
loop_
_atom_site_type_symbol
_atom_site_label
_atom_site_fract_x
_atom_site_fract_y
_atom_site_fract_z
Si Si1 0.500000 0.109663 0.540956
Si Si2 0.396209 0.777570 0.696532
Si Si3 0.636077 0.968046 0.332258
Si Si4 0.188062 0.090923 0.587745
Si Si5 0.670853 0.802138 0.431760
Si Si6 0.145660 0.407143 0.791893
O O1 0.577039 0.057951 0.554440
O O2 0.579635 0.159583 0.547314
O O3 0.500000 0.757463 0.673037
O O4 0.352417 0.741457 0.814492
O O5 0.329934 0.770359 0.572870
O O6 0.399389 0.847260 0.738603
O O7 0.738600 0.961321 0.383703
O O8 0.624227 0.920007 0.211986
O O9 0.612920 0.032095 0.274302
O O10 0.247987 0.150930 0.590046
O O11 0.141449 0.087845 0.448130
O O12 0.250000 0.401178 0.750000
#
# Coordination Sequence:
#
# PCOD9481137 Si02
#       6
#     8  16  16  16  16  16
#     4  10  22  46  68 104 132 180 227 285 343 428
#     4  12  26  47  69 102 139 187 228 300 345 420
#     4  10  23  42  74 101 140 181 231 286 355 423
#     4  10  22  45  69  99 136 183 228 292 344 422
#     4  11  24  47  74  97 139 181 244 280 357 408
#     4  12  24  43  67 102 144 177 235 286 356 416
#
# _framework density 25.762837000000001
#
# number of rings (size 3 to 8) (size 9 to 14) (size 15 to 20)
#    0.000    1.091    5.455    0.545    1.273    5.091 
#   11.455    1.818    0.000    0.000    0.000    0.000 
#    0.000    0.000    0.000    0.000    0.000    0.000 
#
# Total GULP energy -245566.006823 kJ/mol
# GULP energy per Si atom -5581.045610 kJ/mol
# Density = 2.570420 g / cm^3
# Si number density = 25.762837 Si / 1000 Ang^3
#
#
#
# Elastic Constant Matrix: (Units=GPa)
#
#
# Indices 1 2 3 4 5 6 
#
# 1 54.2630 12.6171 2.6243 0.0000 0.0000 0.0000
# 2 12.6171 161.3482 68.9546 0.0000 0.0000 0.0000
# 3 2.6243 68.9546 212.4534 0.0000 0.0000 0.0000
# 4 0.0000 0.0000 0.0000 46.3284 0.0000 0.0000
# 5 0.0000 0.0000 0.0000 0.0000 -53.5715 0.0000
# 6 0.0000 0.0000 0.0000 0.0000 0.0000 24.5654
#
#
#
# Elastic Compliance Matrix: (Units=1/GPa)
#
#
# Indices 1 2 3 4 5 6 
#
# 1 0.018785 -0.001590 0.000284 0.000000 0.000000 0.000000
# 2 -0.001590 0.007331 -0.002360 0.000000 0.000000 0.000000
# 3 0.000284 -0.002360 0.005469 0.000000 0.000000 0.000000
# 4 0.000000 0.000000 0.000000 0.021585 0.000000 0.000000
# 5 0.000000 0.000000 0.000000 0.000000 -0.018667 0.000000
# 6 0.000000 0.000000 0.000000 0.000000 0.000000 0.040708
#
#
# Mechanical properties :
#
#
# Convention : Reuss Voigt Hill
#
# Bulk Modulus (GPa) = 41.23207 66.27294 53.75251
# Shear Modulus (GPa) = 55.17146 26.38903 40.78025
#
# Velocity S-wave (km/s) = 4.63267 3.20395 3.98290
# Velocity P-wave (km/s) = 6.68242 6.28229 6.48544
#
# Compressibility (1/GPa) = 0.02425297
#
# Stress axis : x y z
#
# Youngs Moduli (GPa) = 53.23454 136.41561 182.84086
#
# Poissons Ratio (x) = 0.21695 -0.05195
# Poissons Ratio (y) = 0.08466 0.43143
# Poissons Ratio (z) = -0.01513 0.32188
#
# Static dielectric constant tensor:
#      x y z
#    x 2.107940 0.000000 0.000000 
#    y 0.000000 2.066920 0.000000 
#    z 0.000000 0.000000 2.161950 
# 
# From -- ./inp_files/16036.got.cif
#   From: 2010.05.17/outbox.cif.g08.bks.cpg/sg64_9_cif.got.tgz:16036.got - 2010.06.03 16:29:19.
