data_PCOD9481725
_publ_section_title
;
Structure prediction by ZEFSAII (Michael W. Deem and Ramdas Pophale) SiO2 
 PCOD9481725
Probable space group: C M C A
;
_chemical_formula_sum "Si O2"
_cell_formula_units_Z 64
_cell_length_a 21.562809
_cell_length_b 12.185036
_cell_length_c 10.970047
_cell_angle_alpha 90.000000
_cell_angle_beta 90.000000
_cell_angle_gamma 90.000000
_cell_volume 2882.309684
_symmetry_space_group_name_H-M "C M C A"
_symmetry_group_IT_number 64
_symmetry_cell_setting 'orthorhombic'
loop_
_space_group_symop_operation_xyz
x,y,z
-x,1/2-y,1/2+z
x,-y,-z
-x,1/2+y,1/2-z
-x,-y,-z
x,1/2+y,1/2-z
-x,y,z
x,1/2-y,1/2+z
1/2+x,1/2+y,z
1/2-x,-y,1/2+z
1/2+x,1/2-y,-z
1/2-x,y,1/2-z
1/2-x,1/2-y,-z
1/2+x,y,1/2-z
1/2-x,1/2+y,z
1/2+x,-y,1/2+z
loop_
_atom_site_type_symbol
_atom_site_label
_atom_site_fract_x
_atom_site_fract_y
_atom_site_fract_z
Si Si1 0.615288 0.334476 0.999406
Si Si2 0.431013 0.003652 0.678918
Si Si3 0.741802 0.411476 0.890182
Si Si4 0.622567 0.392448 0.581791
O O1 0.568834 0.408732 0.922304
O O2 0.679455 0.344152 0.921500
O O3 0.615375 0.401656 0.128350
O O4 0.591421 0.212475 0.020985
O O5 0.500000 0.048492 0.698935
O O6 0.406631 0.938935 0.795864
O O7 0.750000 0.455040 0.750000
O O8 0.806933 0.348361 0.901609
O O9 0.741497 0.500000 0.000000
O O10 0.624454 0.500000 0.500000
#
# Coordination Sequence:
#
# PCOD9481725 Si02
#       4
#    16  16  16  16
#     4  11  22  45  69  99 138 183 232 289 357 420
#     4  11  25  46  71  96 134 188 238 286 354 425
#     4  11  20  41  70 104 144 186 233 293 358 431
#     4  11  26  41  67 107 136 178 230 293 353 423
#
# _framework density 22.204414
#
# number of rings (size 3 to 8) (size 9 to 14) (size 15 to 20)
#    0.000    1.000    5.000    2.250    3.500    2.500 
#    0.000    1.250    0.000    0.000    0.000    0.000 
#    0.000    0.000    0.000    0.000    0.000    0.000 
#
# Total GULP energy -178228.846630 kJ/mol
# GULP energy per Si atom -5569.651457 kJ/mol
# Density = 2.215388 g / cm^3
# Si number density = 22.204414 Si / 1000 Ang^3
#
#
#
# Elastic Constant Matrix: (Units=GPa)
#
#
# Indices 1 2 3 4 5 6 
#
# 1 86.2920 15.5694 31.6565 0.0000 0.0000 0.0000
# 2 15.5694 118.2072 49.1062 0.0000 0.0000 0.0000
# 3 31.6565 49.1062 134.3830 0.0000 0.0000 0.0000
# 4 0.0000 0.0000 0.0000 27.7845 0.0000 0.0000
# 5 0.0000 0.0000 0.0000 0.0000 -31.9475 0.0000
# 6 0.0000 0.0000 0.0000 0.0000 0.0000 7.4136
#
#
#
# Elastic Compliance Matrix: (Units=1/GPa)
#
#
# Indices 1 2 3 4 5 6 
#
# 1 0.012711 -0.000507 -0.002809 0.000000 0.000000 0.000000
# 2 -0.000507 0.009994 -0.003533 0.000000 0.000000 0.000000
# 3 -0.002809 -0.003533 0.009394 0.000000 0.000000 0.000000
# 4 0.000000 0.000000 0.000000 0.035991 0.000000 0.000000
# 5 0.000000 0.000000 0.000000 0.000000 -0.031301 0.000000
# 6 0.000000 0.000000 0.000000 0.000000 0.000000 0.134888
#
#
# Mechanical properties :
#
#
# Convention : Reuss Voigt Hill
#
# Bulk Modulus (GPa) = 54.34421 59.06072 56.70246
# Shear Modulus (GPa) = 26.10872 16.82013 21.46442
#
# Velocity S-wave (km/s) = 3.43276 2.75528 3.11251
# Velocity P-wave (km/s) = 6.34346 6.06453 6.20556
#
# Compressibility (1/GPa) = 0.01840122
#
# Stress axis : x y z
#
# Youngs Moduli (GPa) = 78.67504 100.05970 106.45157
#
# Poissons Ratio (x) = 0.05076 0.29901
# Poissons Ratio (y) = 0.03991 0.37604
# Poissons Ratio (z) = 0.22099 0.35346
#
# Static dielectric constant tensor:
#      x y z
#    x 1.883970 0.000000 0.000000 
#    y 0.000000 1.811490 0.000000 
#    z 0.000000 0.000000 1.956910 
# 
# From -- ./inp_files/16777.got.cif
#   From: 2010.05.17/outbox.cif.g08.bks.cpg/sg64_9_cif.got.tgz:16777.got - 2010.06.03 16:29:19.
