data_PCOD9481694
_publ_section_title
;
Structure prediction by ZEFSAII (Michael W. Deem and Ramdas Pophale) SiO2 
 PCOD9481694
Probable space group: C M C A
;
_chemical_formula_sum "Si O2"
_cell_formula_units_Z 72
_cell_length_a 7.613467
_cell_length_b 25.071072
_cell_length_c 14.980777
_cell_angle_alpha 90.000000
_cell_angle_beta 90.000000
_cell_angle_gamma 90.000000
_cell_volume 2859.497446
_symmetry_space_group_name_H-M "C M C A"
_symmetry_group_IT_number 64
_symmetry_cell_setting 'orthorhombic'
loop_
_space_group_symop_operation_xyz
x,y,z
-x,1/2-y,1/2+z
x,-y,-z
-x,1/2+y,1/2-z
-x,-y,-z
x,1/2+y,1/2-z
-x,y,z
x,1/2-y,1/2+z
1/2+x,1/2+y,z
1/2-x,-y,1/2+z
1/2+x,1/2-y,-z
1/2-x,y,1/2-z
1/2-x,1/2-y,-z
1/2+x,y,1/2-z
1/2-x,1/2+y,z
1/2+x,-y,1/2+z
loop_
_atom_site_type_symbol
_atom_site_label
_atom_site_fract_x
_atom_site_fract_y
_atom_site_fract_z
Si Si1 0.303160 0.868026 0.071948
Si Si2 0.708011 0.246701 0.893273
Si Si3 0.500000 0.830251 0.831095
Si Si4 0.206600 0.478484 0.351934
Si Si5 0.303179 0.405511 0.888415
O O1 0.500000 0.857334 0.035792
O O2 0.259435 0.815780 0.128153
O O3 0.299566 0.923627 0.123038
O O4 0.190877 0.875981 0.983680
O O5 0.500000 0.259757 0.877860
O O6 0.843883 0.284427 0.843787
O O7 0.750000 0.250000 0.000000
O O8 0.654066 0.876331 0.834484
O O9 0.250000 0.491706 0.250000
O O10 0.247048 0.532666 0.404893
O O11 0.000000 0.468067 0.363206
O O12 0.500000 0.404208 0.850231
#
# Coordination Sequence:
#
# PCOD9481694 Si02
#       5
#    16  16   8  16  16
#     4  11  22  38  64  97 130 166 207 267 318 375
#     4  11  20  34  56  94 131 164 206 255 315 378
#     4  12  22  34  63  94 129 172 203 260 316 376
#     4  11  26  43  65  92 125 170 214 265 323 384
#     4  11  23  40  62  98 130 163 212 264 318 376
#
# _framework density 25.179248999999999
#
# number of rings (size 3 to 8) (size 9 to 14) (size 15 to 20)
#    0.000    0.889    4.444    2.667    6.222    2.667 
#    0.000    0.000    0.000    1.333    5.778    0.000 
#    0.000    0.000    0.000    0.000    0.000    0.000 
#
# Total GULP energy -200640.206606 kJ/mol
# GULP energy per Si atom -5573.339072 kJ/mol
# Density = 2.512194 g / cm^3
# Si number density = 25.179249 Si / 1000 Ang^3
#
#
#
# Elastic Constant Matrix: (Units=GPa)
#
#
# Indices 1 2 3 4 5 6 
#
# 1 173.2105 105.9234 20.7956 0.0000 0.0000 0.0000
# 2 105.9234 217.5850 9.5908 0.0000 0.0000 0.0000
# 3 20.7956 9.5908 37.2643 0.0000 0.0000 0.0000
# 4 0.0000 0.0000 0.0000 -35.0309 0.0000 0.0000
# 5 0.0000 0.0000 0.0000 0.0000 25.8595 0.0000
# 6 0.0000 0.0000 0.0000 0.0000 0.0000 44.9922
#
#
#
# Elastic Compliance Matrix: (Units=1/GPa)
#
#
# Indices 1 2 3 4 5 6 
#
# 1 0.008727 -0.004080 -0.003820 0.000000 0.000000 0.000000
# 2 -0.004080 0.006556 0.000590 0.000000 0.000000 0.000000
# 3 -0.003820 0.000590 0.028815 0.000000 0.000000 0.000000
# 4 0.000000 0.000000 0.000000 -0.028546 0.000000 0.000000
# 5 0.000000 0.000000 0.000000 0.000000 0.038671 0.000000
# 6 0.000000 0.000000 0.000000 0.000000 0.000000 0.022226
#
#
# Mechanical properties :
#
#
# Convention : Reuss Voigt Hill
#
# Bulk Modulus (GPa) = 33.92433 77.85327 55.88880
# Shear Modulus (GPa) = 49.55596 26.61415 38.08505
#
# Velocity S-wave (km/s) = 4.44117 3.25466 3.89338
# Velocity P-wave (km/s) = 6.30881 6.71644 6.51581
#
# Compressibility (1/GPa) = 0.02947737
#
# Stress axis : x y z
#
# Youngs Moduli (GPa) = 114.58641 152.52862 34.70364
#
# Poissons Ratio (x) = 0.62233 0.13257
# Poissons Ratio (y) = 0.46752 -0.02046
# Poissons Ratio (z) = 0.43773 -0.08992
#
# Static dielectric constant tensor:
#      x y z
#    x 1.916030 0.000000 0.000000 
#    y 0.000000 1.987010 0.000000 
#    z 0.000000 0.000000 2.267710 
# 
# From -- ./inp_files/29526.got.cif
#   From: 2010.05.17/outbox.cif.g08.bks.cpg/sg64_15_cif.got.tgz:29526.got - 2010.06.03 16:29:19.
