data_PCOD9481939
_publ_section_title
;
Structure prediction by ZEFSAII (Michael W. Deem and Ramdas Pophale) SiO2 
 PCOD9481939
Probable space group: C M C A
;
_chemical_formula_sum "Si O2"
_cell_formula_units_Z 80
_cell_length_a 11.056661
_cell_length_b 28.512678
_cell_length_c 11.436558
_cell_angle_alpha 90.000000
_cell_angle_beta 90.000000
_cell_angle_gamma 90.000000
_cell_volume 3605.432262
_symmetry_space_group_name_H-M "C M C A"
_symmetry_group_IT_number 64
_symmetry_cell_setting 'orthorhombic'
loop_
_space_group_symop_operation_xyz
x,y,z
-x,1/2-y,1/2+z
x,-y,-z
-x,1/2+y,1/2-z
-x,-y,-z
x,1/2+y,1/2-z
-x,y,z
x,1/2-y,1/2+z
1/2+x,1/2+y,z
1/2-x,-y,1/2+z
1/2+x,1/2-y,-z
1/2-x,y,1/2-z
1/2-x,1/2-y,-z
1/2+x,y,1/2-z
1/2-x,1/2+y,z
1/2+x,-y,1/2+z
loop_
_atom_site_type_symbol
_atom_site_label
_atom_site_fract_x
_atom_site_fract_y
_atom_site_fract_z
Si Si1 0.747206 0.413332 0.414682
Si Si2 0.000000 0.728749 0.790446
Si Si3 0.000000 0.794430 0.560477
Si Si4 0.500000 0.527567 0.624082
Si Si5 0.314666 0.631524 0.355500
Si Si6 0.000000 0.934091 0.775795
Si Si7 0.000000 0.552426 0.541943
Si Si8 0.750000 0.673353 0.750000
O O1 0.624160 0.441084 0.379695
O O2 0.747020 0.402155 0.551297
O O3 0.755402 0.362863 0.356144
O O4 0.875608 0.437842 0.390266
O O5 0.125887 0.701850 0.763901
O O6 0.000000 0.767559 0.685882
O O7 0.000000 0.733805 0.935592
O O8 0.887951 0.830392 0.569687
O O9 0.500000 0.500000 0.500000
O O10 0.500000 0.487571 0.725776
O O11 0.250000 0.658805 0.250000
O O12 0.390702 0.594011 0.281972
O O13 0.000000 0.923860 0.913674
O O14 0.000000 0.500000 0.500000
#
# Coordination Sequence:
#
# PCOD9481939 Si02
#       8
#    16   8   8   8  16   8   8   8
#     4  12  25  46  71 101 146 192 246 297 366 426
#     4  12  28  52  81 112 153 189 249 308 380 465
#     4  11  27  49  77 118 146 194 237 313 381 456
#     4  12  23  42  71  97 139 204 248 291 357 438
#     4  11  22  44  76 102 141 190 244 295 369 445
#     4  11  24  41  65  99 141 192 247 294 356 433
#     4  12  28  42  62 111 148 180 248 319 349 413
#     4  12  28  50  76 106 146 198 242 304 376 448
#
# _framework density 22.188741
#
# number of rings (size 3 to 8) (size 9 to 14) (size 15 to 20)
#    0.000    0.400    6.000    2.400    4.200    2.400 
#    0.000    0.000    0.000    0.000    0.000    0.000 
#    0.000    0.000    0.000    0.000    0.000    0.000 
#
# Total GULP energy -222840.003397 kJ/mol
# GULP energy per Si atom -5571.000085 kJ/mol
# Density = 2.213824 g / cm^3
# Si number density = 22.188741 Si / 1000 Ang^3
#
#
#
# Elastic Constant Matrix: (Units=GPa)
#
#
# Indices 1 2 3 4 5 6 
#
# 1 158.7897 42.6561 36.2387 0.0000 0.0000 0.0000
# 2 42.6561 70.2596 15.2762 0.0000 0.0000 0.0000
# 3 36.2387 15.2762 142.9512 0.0000 0.0000 0.0000
# 4 0.0000 0.0000 0.0000 52.3376 0.0000 0.0000
# 5 0.0000 0.0000 0.0000 0.0000 -27.6309 0.0000
# 6 0.0000 0.0000 0.0000 0.0000 0.0000 48.0978
#
#
#
# Elastic Compliance Matrix: (Units=1/GPa)
#
#
# Indices 1 2 3 4 5 6 
#
# 1 0.007832 -0.004426 -0.001512 0.000000 0.000000 0.000000
# 2 -0.004426 0.017073 -0.000702 0.000000 0.000000 0.000000
# 3 -0.001512 -0.000702 0.007454 0.000000 0.000000 0.000000
# 4 0.000000 0.000000 0.000000 0.019107 0.000000 0.000000
# 5 0.000000 0.000000 0.000000 0.000000 -0.036191 0.000000
# 6 0.000000 0.000000 0.000000 0.000000 0.000000 0.020791
#
#
# Mechanical properties :
#
#
# Convention : Reuss Voigt Hill
#
# Bulk Modulus (GPa) = 52.41992 62.26028 57.34010
# Shear Modulus (GPa) = 89.75805 33.08289 61.42047
#
# Velocity S-wave (km/s) = 6.36709 3.86551 5.26697
# Velocity P-wave (km/s) = 8.81641 6.93132 7.93008
#
# Compressibility (1/GPa) = 0.01907672
#
# Stress axis : x y z
#
# Youngs Moduli (GPa) = 127.68518 58.57279 134.15871
#
# Poissons Ratio (x) = 0.25924 0.20290
# Poissons Ratio (y) = 0.56513 0.09424
# Poissons Ratio (z) = 0.19311 0.04114
#
# Static dielectric constant tensor:
#      x y z
#    x 1.941630 0.000000 0.000000 
#    y 0.000000 1.800150 0.000000 
#    z 0.000000 0.000000 3.490370 
# 
# From -- ./inp_files/13284.got.cif
#   From: 2010.05.17/outbox.cif.g08.bks.cpg/sg64_7_cif.got.tgz:13284.got - 2010.06.03 16:29:19.
