data_PCOD9481602
_publ_section_title
;
Structure prediction by ZEFSAII (Michael W. Deem and Ramdas Pophale) SiO2 
 PCOD9481602
Probable space group: C M C A
;
_chemical_formula_sum "Si O2"
_cell_formula_units_Z 48
_cell_length_a 8.127924
_cell_length_b 10.151724
_cell_length_c 24.951174
_cell_angle_alpha 90.000000
_cell_angle_beta 90.000000
_cell_angle_gamma 90.000000
_cell_volume 2058.782276
_symmetry_space_group_name_H-M "C M C A"
_symmetry_group_IT_number 64
_symmetry_cell_setting 'orthorhombic'
loop_
_space_group_symop_operation_xyz
x,y,z
-x,1/2-y,1/2+z
x,-y,-z
-x,1/2+y,1/2-z
-x,-y,-z
x,1/2+y,1/2-z
-x,y,z
x,1/2-y,1/2+z
1/2+x,1/2+y,z
1/2-x,-y,1/2+z
1/2+x,1/2-y,-z
1/2-x,y,1/2-z
1/2-x,1/2-y,-z
1/2+x,y,1/2-z
1/2-x,1/2+y,z
1/2+x,-y,1/2+z
loop_
_atom_site_type_symbol
_atom_site_label
_atom_site_fract_x
_atom_site_fract_y
_atom_site_fract_z
Si Si1 0.179403 0.763484 0.142032
Si Si2 0.500000 0.597570 0.767453
Si Si3 0.696893 0.374572 0.465275
Si Si4 0.500000 0.825564 0.686680
O O1 0.219452 0.856521 0.092175
O O2 0.333336 0.668565 0.152289
O O3 0.000000 0.697594 0.132434
O O4 0.149536 0.850783 0.195182
O O5 0.500000 0.681906 0.714022
O O6 0.500000 0.439894 0.768361
O O7 0.747324 0.500000 0.500000
O O8 0.500000 0.377555 0.457960
O O9 0.750000 0.250000 0.500000
#
# Coordination Sequence:
#
# PCOD9481602 Si02
#       4
#    16   8  16   8
#     4  10  25  45  71 109 139 191 231 292 356 423
#     4  10  28  46  76 105 138 195 234 296 359 422
#     4  11  25  45  72 105 143 188 236 293 354 421
#     4  12  24  54  70 106 148 183 242 297 355 424
#
# _framework density 23.314751999999999
#
# number of rings (size 3 to 8) (size 9 to 14) (size 15 to 20)
#    1.000    0.333    1.667    2.000    4.667    8.000 
#    3.000    0.000    0.000    0.000    0.000    0.000 
#    0.000    0.000    0.000    0.000    0.000    0.000 
#
# Total GULP energy -134124.734811 kJ/mol
# GULP energy per Si atom -5588.530617 kJ/mol
# Density = 2.326169 g / cm^3
# Si number density = 23.314752 Si / 1000 Ang^3
#
#
#
# Elastic Constant Matrix: (Units=GPa)
#
#
# Indices 1 2 3 4 5 6 
#
# 1 149.0421 24.7409 23.5725 0.0000 0.0000 0.0000
# 2 24.7409 90.8389 -10.7800 0.0000 0.0000 0.0000
# 3 23.5725 -10.7800 66.6377 0.0000 0.0000 0.0000
# 4 0.0000 0.0000 0.0000 25.4642 0.0000 0.0000
# 5 0.0000 0.0000 0.0000 0.0000 40.1371 0.0000
# 6 0.0000 0.0000 0.0000 0.0000 0.0000 4.1121
#
#
#
# Elastic Compliance Matrix: (Units=1/GPa)
#
#
# Indices 1 2 3 4 5 6 
#
# 1 0.007602 -0.002436 -0.003083 0.000000 0.000000 0.000000
# 2 -0.002436 0.012005 0.002804 0.000000 0.000000 0.000000
# 3 -0.003083 0.002804 0.016551 0.000000 0.000000 0.000000
# 4 0.000000 0.000000 0.000000 0.039271 0.000000 0.000000
# 5 0.000000 0.000000 0.000000 0.000000 0.024915 0.000000
# 6 0.000000 0.000000 0.000000 0.000000 0.000000 0.243184
#
#
# Mechanical properties :
#
#
# Convention : Reuss Voigt Hill
#
# Bulk Modulus (GPa) = 32.54575 42.39841 37.47208
# Shear Modulus (GPa) = 13.91982 31.87503 22.89742
#
# Velocity S-wave (km/s) = 2.44609 3.70153 3.13725
# Velocity P-wave (km/s) = 4.68694 6.04095 5.40650
#
# Compressibility (1/GPa) = 0.03072598
#
# Stress axis : x y z
#
# Youngs Moduli (GPa) = 131.55208 83.30022 60.42038
#
# Poissons Ratio (x) = 0.20294 0.18628
# Poissons Ratio (y) = 0.32049 -0.16941
# Poissons Ratio (z) = 0.40559 -0.23356
#
# Static dielectric constant tensor:
#      x y z
#    x 1.949480 0.000000 0.000000 
#    y 0.000000 1.862370 0.000000 
#    z 0.000000 0.000000 1.836440 
# 
# From -- ./inp_files/51468.got.cif
#   From: 2010.05.17/outbox.cif.g08.bks.cpg/sg64_26_cif.got.tgz:51468.got - 2010.06.03 16:29:19.
