data_PCOD9481166
_publ_section_title
;
Structure prediction by ZEFSAII (Michael W. Deem and Ramdas Pophale) SiO2 
 PCOD9481166
Probable space group: C M C A
;
_chemical_formula_sum "Si O2"
_cell_formula_units_Z 88
_cell_length_a 13.974022
_cell_length_b 13.717492
_cell_length_c 23.358320
_cell_angle_alpha 90.000000
_cell_angle_beta 90.000000
_cell_angle_gamma 90.000000
_cell_volume 4477.522141
_symmetry_space_group_name_H-M "C M C A"
_symmetry_group_IT_number 64
_symmetry_cell_setting 'orthorhombic'
loop_
_space_group_symop_operation_xyz
x,y,z
-x,1/2-y,1/2+z
x,-y,-z
-x,1/2+y,1/2-z
-x,-y,-z
x,1/2+y,1/2-z
-x,y,z
x,1/2-y,1/2+z
1/2+x,1/2+y,z
1/2-x,-y,1/2+z
1/2+x,1/2-y,-z
1/2-x,y,1/2-z
1/2-x,1/2-y,-z
1/2+x,y,1/2-z
1/2-x,1/2+y,z
1/2+x,-y,1/2+z
loop_
_atom_site_type_symbol
_atom_site_label
_atom_site_fract_x
_atom_site_fract_y
_atom_site_fract_z
Si Si1 0.702776 0.100409 0.966664
Si Si2 0.609082 0.726242 0.964501
Si Si3 0.394463 0.712124 0.834490
Si Si4 0.607813 0.187328 0.285831
Si Si5 0.250000 0.463193 0.750000
Si Si6 0.306687 0.885565 0.165618
O O1 0.811595 0.141850 0.970983
O O2 0.676212 0.088340 0.900070
O O3 0.638511 0.184604 0.995178
O O4 0.693128 0.000000 0.000000
O O5 0.500000 0.695022 0.975602
O O6 0.614956 0.757847 0.897613
O O7 0.500000 0.665170 0.831716
O O8 0.389546 0.786374 0.781867
O O9 0.306095 0.639785 0.828219
O O10 0.500000 0.159471 0.301764
O O11 0.686543 0.103933 0.291991
O O12 0.638022 0.286910 0.317460
O O13 0.320393 0.529054 0.711346
#
# Coordination Sequence:
#
# PCOD9481166 Si02
#       6
#    16  16  16  16   8  16
#     4  10  23  38  61  91 120 158 203 250 295 355
#     4   9  20  39  61  85 120 162 197 242 299 358
#     4   9  17  36  62  84 116 156 196 241 297 354
#     4  11  23  39  59  88 121 158 198 246 301 358
#     4  12  22  36  62  90 116 162 200 248 296 362
#     4  11  22  40  60  86 128 158 197 249 305 348
#
# _framework density 19.653728000000001
#
# number of rings (size 3 to 8) (size 9 to 14) (size 15 to 20)
#    0.000    1.818    3.636    0.000    2.545    4.364 
#    0.000    0.000    0.000    0.000    0.000    0.000 
#    0.000    0.000    0.000    0.000    0.000    0.000 
#
# Total GULP energy -245486.989770 kJ/mol
# GULP energy per Si atom -5579.249768 kJ/mol
# Density = 1.960900 g / cm^3
# Si number density = 19.653728 Si / 1000 Ang^3
#
#
#
# Elastic Constant Matrix: (Units=GPa)
#
#
# Indices 1 2 3 4 5 6 
#
# 1 71.7225 -1.7802 0.3260 0.0000 0.0000 0.0000
# 2 -1.7802 69.4442 24.6537 0.0000 0.0000 0.0000
# 3 0.3260 24.6537 83.4336 0.0000 0.0000 0.0000
# 4 0.0000 0.0000 0.0000 21.1224 0.0000 0.0000
# 5 0.0000 0.0000 0.0000 0.0000 22.5485 0.0000
# 6 0.0000 0.0000 0.0000 0.0000 0.0000 4.1673
#
#
#
# Elastic Compliance Matrix: (Units=1/GPa)
#
#
# Indices 1 2 3 4 5 6 
#
# 1 0.013954 0.000421 -0.000179 0.000000 0.000000 0.000000
# 2 0.000421 0.016100 -0.004759 0.000000 0.000000 0.000000
# 3 -0.000179 -0.004759 0.013393 0.000000 0.000000 0.000000
# 4 0.000000 0.000000 0.000000 0.047343 0.000000 0.000000
# 5 0.000000 0.000000 0.000000 0.000000 0.044349 0.000000
# 6 0.000000 0.000000 0.000000 0.000000 0.000000 0.239963
#
#
# Mechanical properties :
#
#
# Convention : Reuss Voigt Hill
#
# Bulk Modulus (GPa) = 29.05871 30.11104 29.58487
# Shear Modulus (GPa) = 12.63881 22.99434 17.81657
#
# Velocity S-wave (km/s) = 2.53864 3.42420 3.01412
# Velocity P-wave (km/s) = 4.83843 5.56665 5.21526
#
# Compressibility (1/GPa) = 0.03441309
#
# Stress axis : x y z
#
# Youngs Moduli (GPa) = 71.66457 62.11014 74.66834
#
# Poissons Ratio (x) = -0.02616 0.01337
# Poissons Ratio (y) = -0.03019 0.35536
# Poissons Ratio (z) = 0.01283 0.29559
#
# Static dielectric constant tensor:
#      x y z
#    x 1.703400 0.000000 0.000000 
#    y 0.000000 1.691880 0.000000 
#    z 0.000000 0.000000 1.704200 
# 
# From -- ./inp_files/39049.got.cif
#   From: 2010.05.17/outbox.cif.g08.bks.cpg/sg64_20_cif.got.tgz:39049.got - 2010.06.03 16:29:19.
