data_PCOD9481043
_publ_section_title
;
Structure prediction by ZEFSAII (Michael W. Deem and Ramdas Pophale) SiO2 
 PCOD9481043
Probable space group: C M C A
;
_chemical_formula_sum "Si O2"
_cell_formula_units_Z 80
_cell_length_a 21.168328
_cell_length_b 13.602589
_cell_length_c 10.831305
_cell_angle_alpha 90.000000
_cell_angle_beta 90.000000
_cell_angle_gamma 90.000000
_cell_volume 3118.809997
_symmetry_space_group_name_H-M "C M C A"
_symmetry_group_IT_number 64
_symmetry_cell_setting 'orthorhombic'
loop_
_space_group_symop_operation_xyz
x,y,z
-x,1/2-y,1/2+z
x,-y,-z
-x,1/2+y,1/2-z
-x,-y,-z
x,1/2+y,1/2-z
-x,y,z
x,1/2-y,1/2+z
1/2+x,1/2+y,z
1/2-x,-y,1/2+z
1/2+x,1/2-y,-z
1/2-x,y,1/2-z
1/2-x,1/2-y,-z
1/2+x,y,1/2-z
1/2-x,1/2+y,z
1/2+x,-y,1/2+z
loop_
_atom_site_type_symbol
_atom_site_label
_atom_site_fract_x
_atom_site_fract_y
_atom_site_fract_z
Si Si1 0.423736 0.158343 0.460870
Si Si2 0.072387 0.741332 0.720211
Si Si3 0.114923 0.941328 0.603535
Si Si4 0.251818 0.364993 0.516337
Si Si5 0.332185 0.506840 0.153787
O O1 0.500000 0.154299 0.458889
O O2 0.404003 0.243470 0.361202
O O3 0.402679 0.178430 0.602859
O O4 0.393275 0.058720 0.409602
O O5 0.077873 0.852073 0.665658
O O6 0.000000 0.709797 0.733087
O O7 0.176671 0.897636 0.535968
O O8 0.143160 0.011886 0.710030
O O9 0.077611 0.000000 0.500000
O O10 0.250000 0.250000 0.500000
O O11 0.214169 0.399114 0.638349
O O12 0.212608 0.424319 0.409802
#
# Coordination Sequence:
#
# PCOD9481043 Si02
#       5
#    16  16  16  16  16
#     4   9  18  38  66  98 137 176 220 278 336 406
#     4   9  19  37  64  98 134 175 224 272 335 408
#     4  11  22  41  61  91 128 170 216 274 331 393
#     4  11  23  42  63  89 127 171 218 276 336 398
#     4  10  22  43  62  93 131 166 226 273 334 405
#
# _framework density 25.650808000000001
#
# number of rings (size 3 to 8) (size 9 to 14) (size 15 to 20)
#    0.000    2.000    2.000    1.800    0.000    0.400 
#   21.600    4.000    0.000    1.200    0.000    0.000 
#    0.000    0.000    0.000    0.000    0.000    0.000 
#
# Total GULP energy -223044.431441 kJ/mol
# GULP energy per Si atom -5576.110786 kJ/mol
# Density = 2.559243 g / cm^3
# Si number density = 25.650808 Si / 1000 Ang^3
#
#
#
# Elastic Constant Matrix: (Units=GPa)
#
#
# Indices 1 2 3 4 5 6 
#
# 1 78.8578 16.6639 21.8338 0.0000 0.0000 0.0000
# 2 16.6639 85.0697 40.2401 0.0000 0.0000 0.0000
# 3 21.8338 40.2401 168.0283 0.0000 0.0000 0.0000
# 4 0.0000 0.0000 0.0000 42.0072 0.0000 0.0000
# 5 0.0000 0.0000 0.0000 0.0000 17.2718 0.0000
# 6 0.0000 0.0000 0.0000 0.0000 0.0000 26.7757
#
#
#
# Elastic Compliance Matrix: (Units=1/GPa)
#
#
# Indices 1 2 3 4 5 6 
#
# 1 0.013461 -0.002041 -0.001260 0.000000 0.000000 0.000000
# 2 -0.002041 0.013566 -0.002984 0.000000 0.000000 0.000000
# 3 -0.001260 -0.002984 0.006830 0.000000 0.000000 0.000000
# 4 0.000000 0.000000 0.000000 0.023805 0.000000 0.000000
# 5 0.000000 0.000000 0.000000 0.000000 0.057898 0.000000
# 6 0.000000 0.000000 0.000000 0.000000 0.000000 0.037347
#
#
# Mechanical properties :
#
#
# Convention : Reuss Voigt Hill
#
# Bulk Modulus (GPa) = 46.97590 54.38126 50.67858
# Shear Modulus (GPa) = 28.97319 34.09212 31.53266
#
# Velocity S-wave (km/s) = 3.36448 3.64962 3.50995
# Velocity P-wave (km/s) = 5.78328 6.24550 6.01883
#
# Compressibility (1/GPa) = 0.02128751
#
# Stress axis : x y z
#
# Youngs Moduli (GPa) = 74.28719 73.71272 146.41884
#
# Poissons Ratio (x) = 0.15042 0.18456
# Poissons Ratio (y) = 0.15159 0.43687
# Poissons Ratio (z) = 0.09364 0.21994
#
# Static dielectric constant tensor:
#      x y z
#    x 2.237040 0.000000 0.000000 
#    y 0.000000 2.119830 0.000000 
#    z 0.000000 0.000000 2.256770 
# 
# From -- ./inp_files/18055.got.cif
#   From: 2010.05.17/outbox.cif.g08.bks.cpg/sg64_10_cif.got.tgz:18055.got - 2010.06.03 16:29:19.
