data_PCOD9481952
_publ_section_title
;
Structure prediction by ZEFSAII (Michael W. Deem and Ramdas Pophale) SiO2 
 PCOD9481952
Probable space group: C M C A
;
_chemical_formula_sum "Si O2"
_cell_formula_units_Z 96
_cell_length_a 16.733439
_cell_length_b 21.163299
_cell_length_c 10.902406
_cell_angle_alpha 90.000000
_cell_angle_beta 90.000000
_cell_angle_gamma 90.000000
_cell_volume 3860.921072
_symmetry_space_group_name_H-M "C M C A"
_symmetry_group_IT_number 64
_symmetry_cell_setting 'orthorhombic'
loop_
_space_group_symop_operation_xyz
x,y,z
-x,1/2-y,1/2+z
x,-y,-z
-x,1/2+y,1/2-z
-x,-y,-z
x,1/2+y,1/2-z
-x,y,z
x,1/2-y,1/2+z
1/2+x,1/2+y,z
1/2-x,-y,1/2+z
1/2+x,1/2-y,-z
1/2-x,y,1/2-z
1/2-x,1/2-y,-z
1/2+x,y,1/2-z
1/2-x,1/2+y,z
1/2+x,-y,1/2+z
loop_
_atom_site_type_symbol
_atom_site_label
_atom_site_fract_x
_atom_site_fract_y
_atom_site_fract_z
Si Si1 0.085025 0.053515 0.894823
Si Si2 0.098496 0.190157 0.152284
Si Si3 0.408025 0.605432 0.529103
Si Si4 0.908929 0.936729 0.728972
Si Si5 0.245273 0.048457 0.614432
Si Si6 0.592685 0.255477 0.590614
O O1 0.170489 0.085985 0.898043
O O2 0.000000 0.088833 0.900138
O O3 0.086840 0.006395 0.779989
O O4 0.081892 0.000000 0.000000
O O5 0.126474 0.118512 0.185827
O O6 0.124043 0.232966 0.270342
O O7 0.127317 0.212245 0.018606
O O8 0.000000 0.193978 0.146672
O O9 0.500000 0.592401 0.570570
O O10 0.384822 0.563026 0.411155
O O11 0.332534 0.592616 0.614530
O O12 0.407334 0.675681 0.474333
O O13 0.000000 0.913884 0.719394
O O14 0.250000 0.015768 0.750000
O O15 0.248506 0.000000 0.500000
O O16 0.500000 0.237000 0.609048
#
# Coordination Sequence:
#
# PCOD9481952 Si02
#       6
#    16  16  16  16  16  16
#     4   9  18  33  51  74 106 138 173 224 278 321
#     4   8  13  23  43  74 108 139 172 208 254 316
#     4   9  18  33  54  80 110 145 184 221 260 317
#     4   8  14  28  52  78 105 141 182 221 263 320
#     4  11  23  37  55  79 104 141 184 228 276 322
#     4   8  14  26  46  75 110 142 172 211 258 313
#
# _framework density 24.864533000000002
#
# number of rings (size 3 to 8) (size 9 to 14) (size 15 to 20)
#    0.000    3.167    0.000    3.000    0.000    1.000 
#    0.000    3.333    0.000   10.000    0.000   19.833 
#    0.000    0.000    0.000    7.500    0.000    0.833 
#
# Total GULP energy -267337.750755 kJ/mol
# GULP energy per Si atom -5569.536474 kJ/mol
# Density = 2.480794 g / cm^3
# Si number density = 24.864533 Si / 1000 Ang^3
#
#
#
# Elastic Constant Matrix: (Units=GPa)
#
#
# Indices 1 2 3 4 5 6 
#
# 1 133.5485 29.9084 22.8201 0.0000 0.0000 0.0000
# 2 29.9084 64.6039 47.8950 0.0000 0.0000 0.0000
# 3 22.8201 47.8950 107.6136 0.0000 0.0000 0.0000
# 4 0.0000 0.0000 0.0000 38.6512 0.0000 0.0000
# 5 0.0000 0.0000 0.0000 0.0000 3.6395 0.0000
# 6 0.0000 0.0000 0.0000 0.0000 0.0000 0.8875
#
#
#
# Elastic Compliance Matrix: (Units=1/GPa)
#
#
# Indices 1 2 3 4 5 6 
#
# 1 0.008354 -0.003812 -0.000075 0.000000 0.000000 0.000000
# 2 -0.003812 0.024841 -0.010247 0.000000 0.000000 0.000000
# 3 -0.000075 -0.010247 0.013869 0.000000 0.000000 0.000000
# 4 0.000000 0.000000 0.000000 0.025872 0.000000 0.000000
# 5 0.000000 0.000000 0.000000 0.000000 0.274762 0.000000
# 6 0.000000 0.000000 0.000000 0.000000 0.000000 1.126781
#
#
# Mechanical properties :
#
#
# Convention : Reuss Voigt Hill
#
# Bulk Modulus (GPa) = 53.20433 56.33480 54.76957
# Shear Modulus (GPa) = 3.31342 22.31182 12.81262
#
# Velocity S-wave (km/s) = 1.15563 2.99881 2.27248
# Velocity P-wave (km/s) = 4.81921 5.89036 5.38150
#
# Compressibility (1/GPa) = 0.01879546
#
# Stress axis : x y z
#
# Youngs Moduli (GPa) = 119.69665 40.25640 72.10249
#
# Poissons Ratio (x) = 0.15346 0.00541
# Poissons Ratio (y) = 0.45630 0.73886
# Poissons Ratio (z) = 0.00898 0.41252
#
# Static dielectric constant tensor:
#      x y z
#    x 2.041780 0.000000 0.000000 
#    y 0.000000 1.995970 0.000000 
#    z 0.000000 0.000000 2.361750 
# 
# From -- ./inp_files/16228.got.cif
#   From: 2010.05.17/outbox.cif.g08.bks.cpg/sg64_9_cif.got.tgz:16228.got - 2010.06.03 16:29:19.
