data_PCOD9481406
_publ_section_title
;
Structure prediction by ZEFSAII (Michael W. Deem and Ramdas Pophale) SiO2 
 PCOD9481406
Probable space group: C M C A
;
_chemical_formula_sum "Si O2"
_cell_formula_units_Z 72
_cell_length_a 9.857019
_cell_length_b 21.146222
_cell_length_c 17.170486
_cell_angle_alpha 90.000000
_cell_angle_beta 90.000000
_cell_angle_gamma 90.000000
_cell_volume 3578.993987
_symmetry_space_group_name_H-M "C M C A"
_symmetry_group_IT_number 64
_symmetry_cell_setting 'orthorhombic'
loop_
_space_group_symop_operation_xyz
x,y,z
-x,1/2-y,1/2+z
x,-y,-z
-x,1/2+y,1/2-z
-x,-y,-z
x,1/2+y,1/2-z
-x,y,z
x,1/2-y,1/2+z
1/2+x,1/2+y,z
1/2-x,-y,1/2+z
1/2+x,1/2-y,-z
1/2-x,y,1/2-z
1/2-x,1/2-y,-z
1/2+x,y,1/2-z
1/2-x,1/2+y,z
1/2+x,-y,1/2+z
loop_
_atom_site_type_symbol
_atom_site_label
_atom_site_fract_x
_atom_site_fract_y
_atom_site_fract_z
Si Si1 0.229096 0.823460 0.478811
Si Si2 0.000000 0.511763 0.358598
Si Si3 0.500000 0.597708 0.989353
Si Si4 0.850970 0.159184 0.356114
Si Si5 0.750000 0.452181 0.750000
Si Si6 0.157130 0.722826 0.818305
O O1 0.250000 0.750000 0.500000
O O2 0.370421 0.858896 0.477064
O O3 0.151808 0.852656 0.551750
O O4 0.163777 0.821014 0.394345
O O5 0.866189 0.513526 0.302621
O O6 0.000000 0.454681 0.421026
O O7 0.000000 0.570448 0.421433
O O8 0.826164 0.095406 0.309126
O O9 0.732815 0.210100 0.336943
O O10 0.000000 0.185386 0.336953
O O11 0.250000 0.694863 0.750000
O O12 0.000000 0.732005 0.798962
#
# Coordination Sequence:
#
# PCOD9481406 Si02
#       6
#    16   8   8  16   8  16
#     4  10  24  38  69  97 140 176 230 276 364 425
#     4  11  26  46  75  98 137 187 240 305 350 407
#     4  11  24  48  69 101 143 190 232 286 364 435
#     4  11  22  36  64  98 137 171 227 304 343 408
#     4  12  22  40  68 104 128 174 246 300 336 406
#     4  11  24  37  57  94 143 185 226 281 363 434
#
# _framework density 20.117386
#
# number of rings (size 3 to 8) (size 9 to 14) (size 15 to 20)
#    0.000    1.111    4.444    1.333   15.556    0.000 
#    2.000    0.000    2.444    2.667    0.000    0.000 
#    0.000    0.000    0.000    0.000    0.000    0.000 
#
# Total GULP energy -200806.100603 kJ/mol
# GULP energy per Si atom -5577.947239 kJ/mol
# Density = 2.007160 g / cm^3
# Si number density = 20.117386 Si / 1000 Ang^3
#
#
#
# Elastic Constant Matrix: (Units=GPa)
#
#
# Indices 1 2 3 4 5 6 
#
# 1 195.1894 36.4794 68.0014 0.0000 0.0000 0.0000
# 2 36.4794 51.4727 27.4629 0.0000 0.0000 0.0000
# 3 68.0014 27.4629 174.8859 0.0000 0.0000 0.0000
# 4 0.0000 0.0000 0.0000 28.5434 0.0000 0.0000
# 5 0.0000 0.0000 0.0000 0.0000 39.6613 0.0000
# 6 0.0000 0.0000 0.0000 0.0000 0.0000 35.5573
#
#
#
# Elastic Compliance Matrix: (Units=1/GPa)
#
#
# Indices 1 2 3 4 5 6 
#
# 1 0.006467 -0.003538 -0.001959 0.000000 0.000000 0.000000
# 2 -0.003538 0.023140 -0.002258 0.000000 0.000000 0.000000
# 3 -0.001959 -0.002258 0.006834 0.000000 0.000000 0.000000
# 4 0.000000 0.000000 0.000000 0.035034 0.000000 0.000000
# 5 0.000000 0.000000 0.000000 0.000000 0.025213 0.000000
# 6 0.000000 0.000000 0.000000 0.000000 0.000000 0.028124
#
#
# Mechanical properties :
#
#
# Convention : Reuss Voigt Hill
#
# Bulk Modulus (GPa) = 47.77566 76.15948 61.96757
# Shear Modulus (GPa) = 33.94438 40.05936 37.00187
#
# Velocity S-wave (km/s) = 4.11215 4.46722 4.29336
# Velocity P-wave (km/s) = 6.80782 8.03416 7.44628
#
# Compressibility (1/GPa) = 0.02093116
#
# Stress axis : x y z
#
# Youngs Moduli (GPa) = 154.63271 43.21530 146.32037
#
# Poissons Ratio (x) = 0.15290 0.28664
# Poissons Ratio (y) = 0.54709 0.33040
# Poissons Ratio (z) = 0.30292 0.09758
#
# Static dielectric constant tensor:
#      x y z
#    x 1.687250 0.000000 0.000000 
#    y 0.000000 1.674730 0.000000 
#    z 0.000000 0.000000 1.791690 
# 
# From -- ./inp_files/29570.got.cif
#   From: 2010.05.17/outbox.cif.g08.bks.cpg/sg64_15_cif.got.tgz:29570.got - 2010.06.03 16:29:19.
