data_PCOD9481575
_publ_section_title
;
Structure prediction by ZEFSAII (Michael W. Deem and Ramdas Pophale) SiO2 
 PCOD9481575
Probable space group: C M C A
;
_chemical_formula_sum "Si O2"
_cell_formula_units_Z 88
_cell_length_a 25.923061
_cell_length_b 9.912780
_cell_length_c 16.845342
_cell_angle_alpha 90.000000
_cell_angle_beta 90.000000
_cell_angle_gamma 90.000000
_cell_volume 4328.740806
_symmetry_space_group_name_H-M "C M C A"
_symmetry_group_IT_number 64
_symmetry_cell_setting 'orthorhombic'
loop_
_space_group_symop_operation_xyz
x,y,z
-x,1/2-y,1/2+z
x,-y,-z
-x,1/2+y,1/2-z
-x,-y,-z
x,1/2+y,1/2-z
-x,y,z
x,1/2-y,1/2+z
1/2+x,1/2+y,z
1/2-x,-y,1/2+z
1/2+x,1/2-y,-z
1/2-x,y,1/2-z
1/2-x,1/2-y,-z
1/2+x,y,1/2-z
1/2-x,1/2+y,z
1/2+x,-y,1/2+z
loop_
_atom_site_type_symbol
_atom_site_label
_atom_site_fract_x
_atom_site_fract_y
_atom_site_fract_z
Si Si1 0.559157 0.959491 0.592211
Si Si2 0.284425 0.357157 0.821199
Si Si3 0.291040 0.199365 0.064946
Si Si4 0.373026 0.000000 0.000000
Si Si5 0.353935 0.891061 0.314012
Si Si6 0.879978 0.691712 0.861906
O O1 0.500000 0.966712 0.619436
O O2 0.582676 0.812079 0.610189
O O3 0.560462 0.000000 0.500000
O O4 0.597565 0.061315 0.635118
O O5 0.250000 0.298205 0.750000
O O6 0.242317 0.407271 0.883889
O O7 0.320152 0.477448 0.790917
O O8 0.321180 0.251045 0.866213
O O9 0.316780 0.303947 0.127731
O O10 0.250000 0.250000 0.000000
O O11 0.338584 0.125160 0.026310
O O12 0.394921 0.062953 0.917015
O O13 0.378157 0.832065 0.233163
#
# Coordination Sequence:
#
# PCOD9481575 Si02
#       6
#    16  16  16   8  16  16
#     4  10  24  49  74  95 125 171 224 284 347 404
#     4  11  22  37  56  88 135 180 217 256 309 388
#     4  12  23  36  59  94 137 186 224 262 317 392
#     4  12  24  38  59  92 132 170 219 274 318 380
#     4  11  25  40  67  97 135 180 226 275 328 402
#     4  11  24  42  64  97 130 171 221 274 332 395
#
# _framework density 20.329238
#
# number of rings (size 3 to 8) (size 9 to 14) (size 15 to 20)
#    0.000    0.909    3.636    3.273    7.636    0.727 
#    0.000    0.455    0.000    0.000    0.000    0.000 
#    0.000    0.000    0.000    0.000    0.000    0.000 
#
# Total GULP energy -244997.209001 kJ/mol
# GULP energy per Si atom -5568.118386 kJ/mol
# Density = 2.028297 g / cm^3
# Si number density = 20.329238 Si / 1000 Ang^3
#
#
#
# Elastic Constant Matrix: (Units=GPa)
#
#
# Indices 1 2 3 4 5 6 
#
# 1 113.6058 33.2982 50.1260 0.0000 0.0000 0.0000
# 2 33.2982 77.7403 51.0989 0.0000 0.0000 0.0000
# 3 50.1260 51.0989 110.9773 0.0000 0.0000 0.0000
# 4 0.0000 0.0000 0.0000 41.1542 0.0000 0.0000
# 5 0.0000 0.0000 0.0000 0.0000 8.4581 0.0000
# 6 0.0000 0.0000 0.0000 0.0000 0.0000 6.9058
#
#
#
# Elastic Compliance Matrix: (Units=1/GPa)
#
#
# Indices 1 2 3 4 5 6 
#
# 1 0.011231 -0.002117 -0.004098 0.000000 0.000000 0.000000
# 2 -0.002117 0.018845 -0.007721 0.000000 0.000000 0.000000
# 3 -0.004098 -0.007721 0.014417 0.000000 0.000000 0.000000
# 4 0.000000 0.000000 0.000000 0.024299 0.000000 0.000000
# 5 0.000000 0.000000 0.000000 0.000000 0.118229 0.000000
# 6 0.000000 0.000000 0.000000 0.000000 0.000000 0.144805
#
#
# Mechanical properties :
#
#
# Convention : Reuss Voigt Hill
#
# Bulk Modulus (GPa) = 60.16421 63.48550 61.82485
# Shear Modulus (GPa) = 13.68968 22.49032 18.09000
#
# Velocity S-wave (km/s) = 2.59781 3.32972 2.98627
# Velocity P-wave (km/s) = 6.21750 6.78817 6.50909
#
# Compressibility (1/GPa) = 0.01662118
#
# Stress axis : x y z
#
# Youngs Moduli (GPa) = 89.03913 53.06438 69.36278
#
# Poissons Ratio (x) = 0.11233 0.28426
# Poissons Ratio (y) = 0.18848 0.53555
# Poissons Ratio (z) = 0.36489 0.40971
#
# Static dielectric constant tensor:
#      x y z
#    x 1.701740 0.000000 0.000000 
#    y 0.000000 1.762960 0.000000 
#    z 0.000000 0.000000 1.991450 
# 
# From -- ./inp_files/27953.got.cif
#   From: 2010.05.17/outbox.cif.g08.bks.cpg/sg64_14_cif.got.tgz:27953.got - 2010.06.03 16:29:19.
