data_PCOD9481870
_publ_section_title
;
Structure prediction by ZEFSAII (Michael W. Deem and Ramdas Pophale) SiO2 
 PCOD9481870
Probable space group: C M C A
;
_chemical_formula_sum "Si O2"
_cell_formula_units_Z 72
_cell_length_a 27.499353
_cell_length_b 4.907773
_cell_length_c 23.251357
_cell_angle_alpha 90.000000
_cell_angle_beta 90.000000
_cell_angle_gamma 90.000000
_cell_volume 3138.016677
_symmetry_space_group_name_H-M "C M C A"
_symmetry_group_IT_number 64
_symmetry_cell_setting 'orthorhombic'
loop_
_space_group_symop_operation_xyz
x,y,z
-x,1/2-y,1/2+z
x,-y,-z
-x,1/2+y,1/2-z
-x,-y,-z
x,1/2+y,1/2-z
-x,y,z
x,1/2-y,1/2+z
1/2+x,1/2+y,z
1/2-x,-y,1/2+z
1/2+x,1/2-y,-z
1/2-x,y,1/2-z
1/2-x,1/2-y,-z
1/2+x,y,1/2-z
1/2-x,1/2+y,z
1/2+x,-y,1/2+z
loop_
_atom_site_type_symbol
_atom_site_label
_atom_site_fract_x
_atom_site_fract_y
_atom_site_fract_z
Si Si1 0.388725 0.779781 0.783764
Si Si2 0.401467 0.421278 0.402467
Si Si3 0.658841 0.905987 0.436967
Si Si4 0.217168 0.805757 0.668761
Si Si5 0.000000 0.750937 0.457222
O O1 0.403547 0.474761 0.768860
O O2 0.330453 0.768813 0.792645
O O3 0.406318 0.924491 0.841695
O O4 0.382797 0.672346 0.442593
O O5 0.451419 0.281100 0.420238
O O6 0.362087 0.175946 0.405171
O O7 0.698468 0.764911 0.395867
O O8 0.675150 0.000000 0.500000
O O9 0.261545 0.602628 0.678404
O O10 0.000000 0.500000 0.500000
O O11 0.000000 0.000000 0.500000
#
# Coordination Sequence:
#
# PCOD9481870 Si02
#       5
#    16  16  16  16   8
#     4  11  23  41  63  85 119 165 206 257 320 369
#     4  11  23  41  62  94 127 161 214 263 312 387
#     4  11  22  39  62  87 128 173 206 255 326 390
#     4  11  23  38  58  90 122 156 213 267 307 371
#     4  12  24  40  68 100 130 162 204 258 315 378
#
# _framework density 22.944427000000001
#
# number of rings (size 3 to 8) (size 9 to 14) (size 15 to 20)
#    0.000    0.889    0.000   10.667    0.000    3.556 
#    0.000    1.111    0.000    0.000    0.000    0.000 
#    0.000    0.000    0.000    0.000    0.000    0.000 
#
# Total GULP energy -201394.945424 kJ/mol
# GULP energy per Si atom -5594.304040 kJ/mol
# Density = 2.289220 g / cm^3
# Si number density = 22.944427 Si / 1000 Ang^3
#
#
#
# Elastic Constant Matrix: (Units=GPa)
#
#
# Indices 1 2 3 4 5 6 
#
# 1 45.4406 12.3141 -1.7604 0.0000 0.0000 0.0000
# 2 12.3141 102.2300 26.4401 0.0000 0.0000 0.0000
# 3 -1.7604 26.4401 97.3374 0.0000 0.0000 0.0000
# 4 0.0000 0.0000 0.0000 50.8244 0.0000 0.0000
# 5 0.0000 0.0000 0.0000 0.0000 24.2675 0.0000
# 6 0.0000 0.0000 0.0000 0.0000 0.0000 31.7878
#
#
#
# Elastic Compliance Matrix: (Units=1/GPa)
#
#
# Indices 1 2 3 4 5 6 
#
# 1 0.022890 -0.003081 0.001251 0.000000 0.000000 0.000000
# 2 -0.003081 0.010936 -0.003026 0.000000 0.000000 0.000000
# 3 0.001251 -0.003026 0.011118 0.000000 0.000000 0.000000
# 4 0.000000 0.000000 0.000000 0.019676 0.000000 0.000000
# 5 0.000000 0.000000 0.000000 0.000000 0.041207 0.000000
# 6 0.000000 0.000000 0.000000 0.000000 0.000000 0.031459
#
#
# Mechanical properties :
#
#
# Convention : Reuss Voigt Hill
#
# Bulk Modulus (GPa) = 28.38355 35.44395 31.91375
# Shear Modulus (GPa) = 31.49771 35.24353 33.37062
#
# Velocity S-wave (km/s) = 3.70913 3.92348 3.81781
# Velocity P-wave (km/s) = 5.54445 6.00052 5.77699
#
# Compressibility (1/GPa) = 0.03523167
#
# Stress axis : x y z
#
# Youngs Moduli (GPa) = 43.68703 91.44415 89.94271
#
# Poissons Ratio (x) = 0.28172 -0.11250
# Poissons Ratio (y) = 0.13459 0.27219
# Poissons Ratio (z) = -0.05464 0.27673
#
# Static dielectric constant tensor:
#      x y z
#    x 2.208230 0.000000 0.000000 
#    y 0.000000 1.814750 0.000000 
#    z 0.000000 0.000000 1.912970 
# 
# From -- ./inp_files/51167.got.cif
#   From: 2010.05.17/outbox.cif.g08.bks.cpg/sg64_26_cif.got.tgz:51167.got - 2010.06.03 16:29:19.
