data_PCOD9481087
_publ_section_title
;
Structure prediction by ZEFSAII (Michael W. Deem and Ramdas Pophale) SiO2 
 PCOD9481087
Probable space group: C M C A
;
_chemical_formula_sum "Si O2"
_cell_formula_units_Z 112
_cell_length_a 15.285311
_cell_length_b 10.078217
_cell_length_c 28.394246
_cell_angle_alpha 90.000000
_cell_angle_beta 90.000000
_cell_angle_gamma 90.000000
_cell_volume 4374.096149
_symmetry_space_group_name_H-M "C M C A"
_symmetry_group_IT_number 64
_symmetry_cell_setting 'orthorhombic'
loop_
_space_group_symop_operation_xyz
x,y,z
-x,1/2-y,1/2+z
x,-y,-z
-x,1/2+y,1/2-z
-x,-y,-z
x,1/2+y,1/2-z
-x,y,z
x,1/2-y,1/2+z
1/2+x,1/2+y,z
1/2-x,-y,1/2+z
1/2+x,1/2-y,-z
1/2-x,y,1/2-z
1/2-x,1/2-y,-z
1/2+x,y,1/2-z
1/2-x,1/2+y,z
1/2+x,-y,1/2+z
loop_
_atom_site_type_symbol
_atom_site_label
_atom_site_fract_x
_atom_site_fract_y
_atom_site_fract_z
Si Si1 0.900229 0.847043 0.239188
Si Si2 0.180582 0.436646 0.787829
Si Si3 0.276560 0.814201 0.882163
Si Si4 0.396834 0.926635 0.361349
Si Si5 0.903414 0.189073 0.600026
Si Si6 0.396950 0.569311 0.045588
Si Si7 0.098485 0.421274 0.951257
O O1 0.847805 0.709708 0.231264
O O2 0.887148 0.946272 0.194302
O O3 0.000000 0.801853 0.237869
O O4 0.886989 0.941009 0.284528
O O5 0.250000 0.487182 0.750000
O O6 0.217907 0.420310 0.840093
O O7 0.355459 0.715336 0.869290
O O8 0.186330 0.733082 0.875916
O O9 0.311163 0.850689 0.934880
O O10 0.500000 0.923761 0.368401
O O11 0.360690 0.016975 0.404180
O O12 0.894489 0.272486 0.550520
O O13 0.906849 0.035957 0.588406
O O14 0.000000 0.231329 0.619405
O O15 0.500000 0.535437 0.044790
O O16 0.357027 0.500000 0.000000
O O17 0.000000 0.354325 0.951465
O O18 0.107075 0.500000 0.000000
#
# Coordination Sequence:
#
# PCOD9481087 Si02
#       7
#    16  16  16  16  16  16  16
#     4  10  22  43  70  99 134 174 222 279 345 420
#     4  11  25  44  67  99 135 175 226 284 349 412
#     4  11  25  42  70  95 134 179 227 278 344 413
#     4   9  20  39  65  97 133 177 224 270 331 411
#     4  10  24  43  63  94 134 177 231 284 340 403
#     4   9  19  36  61  91 127 171 220 272 325 391
#     4  10  24  45  69 101 143 184 225 282 348 414
#
# _framework density 25.605291000000001
#
# number of rings (size 3 to 8) (size 9 to 14) (size 15 to 20)
#    0.000    2.000    0.000    1.286    6.000    5.143 
#    0.000    2.143    0.000    0.000    0.000    1.000 
#    0.000    0.000    0.000    0.000    0.000    0.000 
#
# Total GULP energy -312204.680928 kJ/mol
# GULP energy per Si atom -5575.083588 kJ/mol
# Density = 2.554701 g / cm^3
# Si number density = 25.605291 Si / 1000 Ang^3
#
#
#
# Elastic Constant Matrix: (Units=GPa)
#
#
# Indices 1 2 3 4 5 6 
#
# 1 104.6983 -1.9476 39.1438 0.0000 0.0000 0.0000
# 2 -1.9476 32.3747 -2.8430 0.0000 0.0000 0.0000
# 3 39.1438 -2.8430 61.6832 0.0000 0.0000 0.0000
# 4 0.0000 0.0000 0.0000 33.4063 0.0000 0.0000
# 5 0.0000 0.0000 0.0000 0.0000 23.5558 0.0000
# 6 0.0000 0.0000 0.0000 0.0000 0.0000 -442.4819
#
#
#
# Elastic Compliance Matrix: (Units=1/GPa)
#
#
# Indices 1 2 3 4 5 6 
#
# 1 0.012522 0.000056 -0.007944 0.000000 0.000000 0.000000
# 2 0.000056 0.031014 0.001394 0.000000 0.000000 0.000000
# 3 -0.007944 0.001394 0.021317 0.000000 0.000000 0.000000
# 4 0.000000 0.000000 0.000000 0.029934 0.000000 0.000000
# 5 0.000000 0.000000 0.000000 0.000000 0.042452 0.000000
# 6 0.000000 0.000000 0.000000 0.000000 0.000000 -0.002260
#
#
# Mechanical properties :
#
#
# Convention : Reuss Voigt Hill
#
# Bulk Modulus (GPa) = 19.28069 29.71806 24.49937
# Shear Modulus (GPa) = 30.25578 -66.14377 -17.94400
#
# Velocity S-wave (km/s) = 3.44120 -5.08804 -2.65012
# Velocity P-wave (km/s) = 4.83068 4.78394 0.47400
#
# Compressibility (1/GPa) = 0.05186538
#
# Stress axis : x y z
#
# Youngs Moduli (GPa) = 79.85724 32.24338 46.91010
#
# Poissons Ratio (x) = -0.00180 0.37266
# Poissons Ratio (y) = -0.00445 -0.06540
# Poissons Ratio (z) = 0.63439 -0.04495
#
# Static dielectric constant tensor:
#      x y z
#    x 2.066650 0.000000 0.000000 
#    y 0.000000 2.047640 0.000000 
#    z 0.000000 0.000000 2.109970 
# 
# From -- ./inp_files/53279.got.cif
#   From: 2010.05.17/outbox.cif.g08.bks.cpg/sg64_27_cif.got.tgz:53279.got - 2010.06.03 16:29:19.
