data_PCOD9481082
_publ_section_title
;
Structure prediction by ZEFSAII (Michael W. Deem and Ramdas Pophale) SiO2 
 PCOD9481082
Probable space group: C M C A
;
_chemical_formula_sum "Si O2"
_cell_formula_units_Z 116
_cell_length_a 22.190327
_cell_length_b 14.458786
_cell_length_c 17.394061
_cell_angle_alpha 90.000000
_cell_angle_beta 90.000000
_cell_angle_gamma 90.000000
_cell_volume 5580.800795
_symmetry_space_group_name_H-M "C M C A"
_symmetry_group_IT_number 64
_symmetry_cell_setting 'orthorhombic'
loop_
_space_group_symop_operation_xyz
x,y,z
-x,1/2-y,1/2+z
x,-y,-z
-x,1/2+y,1/2-z
-x,-y,-z
x,1/2+y,1/2-z
-x,y,z
x,1/2-y,1/2+z
1/2+x,1/2+y,z
1/2-x,-y,1/2+z
1/2+x,1/2-y,-z
1/2-x,y,1/2-z
1/2-x,1/2-y,-z
1/2+x,y,1/2-z
1/2-x,1/2+y,z
1/2+x,-y,1/2+z
loop_
_atom_site_type_symbol
_atom_site_label
_atom_site_fract_x
_atom_site_fract_y
_atom_site_fract_z
Si Si1 0.875220 0.277634 0.191568
Si Si2 0.571363 0.077461 0.276462
Si Si3 0.255577 0.515495 0.588743
Si Si4 0.668004 0.176951 0.637970
Si Si5 0.071124 0.946077 0.078583
Si Si6 0.895876 0.030664 0.626393
Si Si7 0.000000 0.000000 0.500000
Si Si8 0.258562 0.680313 0.158059
O O1 0.911753 0.183911 0.208495
O O2 0.852446 0.317394 0.273452
O O3 0.908279 0.362518 0.150818
O O4 0.817551 0.241908 0.143405
O O5 0.500000 0.070369 0.264439
O O6 0.586048 0.014124 0.350420
O O7 0.602681 0.034667 0.201724
O O8 0.239679 0.500000 0.500000
O O9 0.219365 0.600616 0.624693
O O10 0.327322 0.528126 0.596199
O O11 0.235126 0.423723 0.632573
O O12 0.611415 0.144842 0.588002
O O13 0.699852 0.273973 0.619678
O O14 0.000000 0.924554 0.081443
O O15 0.083463 0.000000 0.000000
O O16 0.946531 0.999712 0.566886
O O17 0.250000 0.682950 0.250000
#
# Coordination Sequence:
#
# PCOD9481082 Si02
#       8
#    16  16  16  16  16  16   4  16
#     4  11  24  42  71 106 135 184 236 292 355 426
#     4  11  24  43  73 100 134 189 239 292 348 427
#     4  12  26  44  68  99 141 187 225 292 365 419
#     4  11  22  41  67 103 131 179 231 283 352 417
#     4  10  22  43  70 103 142 183 228 287 359 420
#     4  12  24  48  73  97 145 187 243 288 352 431
#     4  12  28  48  72 104 138 198 234 296 352 412
#     4  10  23  40  67 102 136 172 234 292 348 425
#
# _framework density 20.785547000000001
#
# number of rings (size 3 to 8) (size 9 to 14) (size 15 to 20)
#    0.000    0.966    4.138    2.897    2.897    1.103 
#    2.483    0.000    6.069    0.000    0.000    0.000 
#    0.000    0.000    0.000    0.000    0.000    0.000 
#
# Total GULP energy -323809.255957 kJ/mol
# GULP energy per Si atom -5582.918206 kJ/mol
# Density = 2.073824 g / cm^3
# Si number density = 20.785547 Si / 1000 Ang^3
#
#
#
# Elastic Constant Matrix: (Units=GPa)
#
#
# Indices 1 2 3 4 5 6 
#
# 1 68.5624 -13.5575 0.6330 0.0000 0.0000 0.0000
# 2 -13.5575 60.6122 -11.1323 0.0000 0.0000 0.0000
# 3 0.6330 -11.1323 45.6419 0.0000 0.0000 0.0000
# 4 0.0000 0.0000 0.0000 6.6652 0.0000 0.0000
# 5 0.0000 0.0000 0.0000 0.0000 23.5320 0.0000
# 6 0.0000 0.0000 0.0000 0.0000 0.0000 28.0745
#
#
#
# Elastic Compliance Matrix: (Units=1/GPa)
#
#
# Indices 1 2 3 4 5 6 
#
# 1 0.015279 0.003537 0.000651 0.000000 0.000000 0.000000
# 2 0.003537 0.018091 0.004363 0.000000 0.000000 0.000000
# 3 0.000651 0.004363 0.022965 0.000000 0.000000 0.000000
# 4 0.000000 0.000000 0.000000 0.150034 0.000000 0.000000
# 5 0.000000 0.000000 0.000000 0.000000 0.042495 0.000000
# 6 0.000000 0.000000 0.000000 0.000000 0.000000 0.035620
#
#
# Mechanical properties :
#
#
# Convention : Reuss Voigt Hill
#
# Bulk Modulus (GPa) = 13.61713 14.07809 13.84761
# Shear Modulus (GPa) = 17.13153 24.91255 21.02204
#
# Velocity S-wave (km/s) = 2.87401 3.46577 3.18367
# Velocity P-wave (km/s) = 4.19270 4.77526 4.49343
#
# Compressibility (1/GPa) = 0.07343693
#
# Stress axis : x y z
#
# Youngs Moduli (GPa) = 65.45081 55.27643 43.54463
#
# Poissons Ratio (x) = -0.19551 -0.02834
# Poissons Ratio (y) = -0.23150 -0.19000
# Poissons Ratio (z) = -0.04259 -0.24119
#
# Static dielectric constant tensor:
#      x y z
#    x 1.765770 0.000000 0.000000 
#    y 0.000000 1.715910 0.000000 
#    z 0.000000 0.000000 1.712550 
# 
# From -- ./inp_files/35097.got.cif
#   From: 2010.05.17/outbox.cif.g08.bks.cpg/sg64_18_cif.got.tgz:35097.got - 2010.06.03 16:29:19.
