data_PCOD9481255
_publ_section_title
;
Structure prediction by ZEFSAII (Michael W. Deem and Ramdas Pophale) SiO2 
 PCOD9481255
Probable space group: C M C A
;
_chemical_formula_sum "Si O2"
_cell_formula_units_Z 96
_cell_length_a 21.258588
_cell_length_b 14.765555
_cell_length_c 15.206175
_cell_angle_alpha 90.000000
_cell_angle_beta 90.000000
_cell_angle_gamma 90.000000
_cell_volume 4773.140026
_symmetry_space_group_name_H-M "C M C A"
_symmetry_group_IT_number 64
_symmetry_cell_setting 'orthorhombic'
loop_
_space_group_symop_operation_xyz
x,y,z
-x,1/2-y,1/2+z
x,-y,-z
-x,1/2+y,1/2-z
-x,-y,-z
x,1/2+y,1/2-z
-x,y,z
x,1/2-y,1/2+z
1/2+x,1/2+y,z
1/2-x,-y,1/2+z
1/2+x,1/2-y,-z
1/2-x,y,1/2-z
1/2-x,1/2-y,-z
1/2+x,y,1/2-z
1/2-x,1/2+y,z
1/2+x,-y,1/2+z
loop_
_atom_site_type_symbol
_atom_site_label
_atom_site_fract_x
_atom_site_fract_y
_atom_site_fract_z
Si Si1 0.069128 0.260354 0.985697
Si Si2 0.423612 0.989691 0.750516
Si Si3 0.889015 0.201250 0.166695
Si Si4 0.362995 0.831412 0.330619
Si Si5 0.354930 0.571884 0.428396
Si Si6 0.753457 0.294504 0.848750
O O1 0.108757 0.191868 0.925556
O O2 0.095973 0.360096 0.972914
O O3 0.000000 0.256898 0.947360
O O4 0.068976 0.236867 0.087907
O O5 0.500000 0.003744 0.757030
O O6 0.409478 0.898635 0.695199
O O7 0.389950 0.972984 0.844875
O O8 0.386940 0.072276 0.703275
O O9 0.887677 0.260823 0.255769
O O10 0.818765 0.209524 0.124804
O O11 0.289477 0.802215 0.340912
O O12 0.333879 0.500000 0.500000
O O13 0.297250 0.636522 0.400757
O O14 0.750000 0.332405 0.750000
#
# Coordination Sequence:
#
# PCOD9481255 Si02
#       6
#    16  16  16  16  16  16
#     4  11  23  41  65  91 134 176 218 272 332 398
#     4  12  24  41  68  99 133 174 222 272 337 401
#     4  11  23  45  67  97 130 182 223 276 335 392
#     4  10  23  42  64  95 130 179 216 274 331 392
#     4  11  23  40  64 102 130 173 217 280 335 391
#     4   9  19  46  64  88 133 169 221 268 327 391
#
# _framework density 20.112545000000001
#
# number of rings (size 3 to 8) (size 9 to 14) (size 15 to 20)
#    0.000    1.333    5.000    2.500    0.000    8.000 
#   15.000    1.667    0.000    0.000    0.000    0.000 
#    0.000    0.000    0.000    0.000    0.000    0.000 
#
# Total GULP energy -267799.297933 kJ/mol
# GULP energy per Si atom -5579.152040 kJ/mol
# Density = 2.006677 g / cm^3
# Si number density = 20.112545 Si / 1000 Ang^3
#
#
#
# Elastic Constant Matrix: (Units=GPa)
#
#
# Indices 1 2 3 4 5 6 
#
# 1 106.5346 8.9800 3.3217 0.0000 0.0000 0.0000
# 2 8.9800 76.7667 5.0818 0.0000 0.0000 0.0000
# 3 3.3217 5.0818 53.3906 0.0000 0.0000 0.0000
# 4 0.0000 0.0000 0.0000 27.6629 0.0000 0.0000
# 5 0.0000 0.0000 0.0000 0.0000 20.0716 0.0000
# 6 0.0000 0.0000 0.0000 0.0000 0.0000 9.3597
#
#
#
# Elastic Compliance Matrix: (Units=1/GPa)
#
#
# Indices 1 2 3 4 5 6 
#
# 1 0.009493 -0.001078 -0.000488 0.000000 0.000000 0.000000
# 2 -0.001078 0.013232 -0.001192 0.000000 0.000000 0.000000
# 3 -0.000488 -0.001192 0.018874 0.000000 0.000000 0.000000
# 4 0.000000 0.000000 0.000000 0.036149 0.000000 0.000000
# 5 0.000000 0.000000 0.000000 0.000000 0.049822 0.000000
# 6 0.000000 0.000000 0.000000 0.000000 0.000000 0.106841
#
#
# Mechanical properties :
#
#
# Convention : Reuss Voigt Hill
#
# Bulk Modulus (GPa) = 27.71533 30.16211 28.93872
# Shear Modulus (GPa) = 19.84489 26.03940 22.94214
#
# Velocity S-wave (km/s) = 3.14457 3.60208 3.38107
# Velocity P-wave (km/s) = 5.19562 5.68587 5.44627
#
# Compressibility (1/GPa) = 0.03608111
#
# Stress axis : x y z
#
# Youngs Moduli (GPa) = 105.34390 75.57708 52.98368
#
# Poissons Ratio (x) = 0.08148 0.02585
# Poissons Ratio (y) = 0.11358 0.06317
# Poissons Ratio (z) = 0.05141 0.09011
#
# Static dielectric constant tensor:
#      x y z
#    x 1.822010 0.000000 0.000000 
#    y 0.000000 1.715180 0.000000 
#    z 0.000000 0.000000 1.711650 
# 
# From -- ./inp_files/26322.got.cif
#   From: 2010.05.17/outbox.cif.g08.bks.cpg/sg64_14_cif.got.tgz:26322.got - 2010.06.03 16:29:19.
