data_PCOD9481485
_publ_section_title
;
Structure prediction by ZEFSAII (Michael W. Deem and Ramdas Pophale) SiO2 
 PCOD9481485
Probable space group: C M C A
;
_chemical_formula_sum "Si O2"
_cell_formula_units_Z 88
_cell_length_a 21.953867
_cell_length_b 9.389517
_cell_length_c 20.247178
_cell_angle_alpha 90.000000
_cell_angle_beta 90.000000
_cell_angle_gamma 90.000000
_cell_volume 4173.676484
_symmetry_space_group_name_H-M "C M C A"
_symmetry_group_IT_number 64
_symmetry_cell_setting 'orthorhombic'
loop_
_space_group_symop_operation_xyz
x,y,z
-x,1/2-y,1/2+z
x,-y,-z
-x,1/2+y,1/2-z
-x,-y,-z
x,1/2+y,1/2-z
-x,y,z
x,1/2-y,1/2+z
1/2+x,1/2+y,z
1/2-x,-y,1/2+z
1/2+x,1/2-y,-z
1/2-x,y,1/2-z
1/2-x,1/2-y,-z
1/2+x,y,1/2-z
1/2-x,1/2+y,z
1/2+x,-y,1/2+z
loop_
_atom_site_type_symbol
_atom_site_label
_atom_site_fract_x
_atom_site_fract_y
_atom_site_fract_z
Si Si1 0.000000 0.088341 0.300453
Si Si2 0.668055 0.454441 0.203653
Si Si3 0.814275 0.500000 0.500000
Si Si4 0.780071 0.444207 0.115394
Si Si5 0.132589 0.863348 0.670954
Si Si6 0.500000 0.736403 0.664720
Si Si7 0.626303 0.186796 0.397913
O O1 0.000000 0.917648 0.300787
O O2 0.060670 0.136887 0.338256
O O3 0.000000 0.152127 0.226082
O O4 0.737947 0.463168 0.180030
O O5 0.646602 0.520424 0.272272
O O6 0.651658 0.289698 0.197484
O O7 0.633593 0.551884 0.150298
O O8 0.768586 0.557578 0.556350
O O9 0.856871 0.376992 0.530651
O O10 0.825258 0.580166 0.111658
O O11 0.821683 0.304007 0.117389
O O12 0.560127 0.751886 0.619417
#
# Coordination Sequence:
#
# PCOD9481485 Si02
#       7
#     8  16   8  16  16   8  16
#     4  12  24  42  64  94 134 173 205 256 317 401
#     4  11  23  38  61  97 132 169 210 264 328 394
#     4  10  24  43  70  93 126 168 224 284 326 372
#     4  11  23  43  66  94 127 168 217 273 329 383
#     4  12  23  39  63  94 132 171 212 260 327 397
#     4  12  24  43  68  94 138 172 212 260 320 400
#     4  11  23  42  67  96 127 175 219 266 329 382
#
# _framework density 21.084529
#
# number of rings (size 3 to 8) (size 9 to 14) (size 15 to 20)
#    0.000    0.727    3.636    5.455    0.000    3.273 
#    0.000    0.000    0.000    6.545    0.000    0.000 
#    0.000    0.000    0.000    0.000    0.000    0.000 
#
# Total GULP energy -245892.506509 kJ/mol
# GULP energy per Si atom -5588.466057 kJ/mol
# Density = 2.103654 g / cm^3
# Si number density = 21.084529 Si / 1000 Ang^3
#
#
#
# Elastic Constant Matrix: (Units=GPa)
#
#
# Indices 1 2 3 4 5 6 
#
# 1 127.7268 -1.1006 -2.1262 0.0000 0.0000 0.0000
# 2 -1.1006 88.2353 -14.9778 0.0000 0.0000 0.0000
# 3 -2.1262 -14.9778 44.3994 0.0000 0.0000 0.0000
# 4 0.0000 0.0000 0.0000 22.6593 0.0000 0.0000
# 5 0.0000 0.0000 0.0000 0.0000 28.9987 0.0000
# 6 0.0000 0.0000 0.0000 0.0000 0.0000 36.1038
#
#
#
# Elastic Compliance Matrix: (Units=1/GPa)
#
#
# Indices 1 2 3 4 5 6 
#
# 1 0.007838 0.000171 0.000433 0.000000 0.000000 0.000000
# 2 0.000171 0.012025 0.004065 0.000000 0.000000 0.000000
# 3 0.000433 0.004065 0.023915 0.000000 0.000000 0.000000
# 4 0.000000 0.000000 0.000000 0.044132 0.000000 0.000000
# 5 0.000000 0.000000 0.000000 0.000000 0.034484 0.000000
# 6 0.000000 0.000000 0.000000 0.000000 0.000000 0.027698
#
#
# Mechanical properties :
#
#
# Convention : Reuss Voigt Hill
#
# Bulk Modulus (GPa) = 18.82640 24.88356 21.85498
# Shear Modulus (GPa) = 31.55384 36.12344 33.83864
#
# Velocity S-wave (km/s) = 3.87271 4.14365 4.01047
# Velocity P-wave (km/s) = 5.38011 5.89242 5.64208
#
# Compressibility (1/GPa) = 0.05311690
#
# Stress axis : x y z
#
# Youngs Moduli (GPa) = 127.58520 83.15669 41.81507
#
# Poissons Ratio (x) = -0.01424 -0.01811
# Poissons Ratio (y) = -0.02185 -0.16997
# Poissons Ratio (z) = -0.05526 -0.33803
#
# Static dielectric constant tensor:
#      x y z
#    x 1.787150 0.000000 0.000000 
#    y 0.000000 1.746480 0.000000 
#    z 0.000000 0.000000 1.846150 
# 
# From -- ./inp_files/46235.got.cif
#   From: 2010.05.17/outbox.cif.g08.bks.cpg/sg64_24_cif.got.tgz:46235.got - 2010.06.03 16:29:19.
