data_PCOD9481040
_publ_section_title
;
Structure prediction by ZEFSAII (Michael W. Deem and Ramdas Pophale) SiO2 
 PCOD9481040
Probable space group: C M C A
;
_chemical_formula_sum "Si O2"
_cell_formula_units_Z 80
_cell_length_a 11.091089
_cell_length_b 14.509004
_cell_length_c 23.343495
_cell_angle_alpha 90.000000
_cell_angle_beta 90.000000
_cell_angle_gamma 90.000000
_cell_volume 3756.450498
_symmetry_space_group_name_H-M "C M C A"
_symmetry_group_IT_number 64
_symmetry_cell_setting 'orthorhombic'
loop_
_space_group_symop_operation_xyz
x,y,z
-x,1/2-y,1/2+z
x,-y,-z
-x,1/2+y,1/2-z
-x,-y,-z
x,1/2+y,1/2-z
-x,y,z
x,1/2-y,1/2+z
1/2+x,1/2+y,z
1/2-x,-y,1/2+z
1/2+x,1/2-y,-z
1/2-x,y,1/2-z
1/2-x,1/2-y,-z
1/2+x,y,1/2-z
1/2-x,1/2+y,z
1/2+x,-y,1/2+z
loop_
_atom_site_type_symbol
_atom_site_label
_atom_site_fract_x
_atom_site_fract_y
_atom_site_fract_z
Si Si1 0.500000 0.658585 0.880624
Si Si2 0.772913 0.263706 0.933435
Si Si3 0.000000 0.094332 0.281274
Si Si4 0.367114 0.131008 0.857151
Si Si5 0.000000 0.201479 0.745586
Si Si6 0.767470 0.565408 0.139006
Si Si7 0.000000 0.963234 0.833680
O O1 0.387317 0.706245 0.911086
O O2 0.500000 0.680652 0.812701
O O3 0.500000 0.548078 0.878532
O O4 0.667228 0.216975 0.896135
O O5 0.787388 0.370509 0.916187
O O6 0.750000 0.250000 0.000000
O O7 0.877108 0.091183 0.317916
O O8 0.000000 0.188185 0.245446
O O9 0.000000 0.012550 0.234411
O O10 0.500000 0.095802 0.874030
O O11 0.386346 0.164367 0.791643
O O12 0.279611 0.044994 0.865581
O O13 0.630284 0.583775 0.158170
#
# Coordination Sequence:
#
# PCOD9481040 Si02
#       7
#     8  16   8  16   8  16   8
#     4  12  24  47  69 106 142 189 247 305 376 441
#     4  12  28  47  73 102 147 199 256 313 369 443
#     4  12  22  44  71 113 143 196 236 302 370 459
#     4  10  24  47  71 107 143 193 250 302 381 441
#     4  10  22  42  77 107 146 180 245 316 367 446
#     4  12  24  47  71 104 149 192 251 298 372 452
#     4  12  26  41  69 109 149 187 235 298 378 442
#
# _framework density 21.296699
#
# number of rings (size 3 to 8) (size 9 to 14) (size 15 to 20)
#    0.600    0.000    5.000    3.000    2.800    1.600 
#    0.000    2.000    0.000    0.000    0.000    0.000 
#    0.000    0.000    0.000    0.000    0.000    0.000 
#
# Total GULP energy -223160.417876 kJ/mol
# GULP energy per Si atom -5579.010447 kJ/mol
# Density = 2.124823 g / cm^3
# Si number density = 21.296699 Si / 1000 Ang^3
#
#
#
# Elastic Constant Matrix: (Units=GPa)
#
#
# Indices 1 2 3 4 5 6 
#
# 1 140.3924 23.0893 47.9722 0.0000 0.0000 0.0000
# 2 23.0893 111.6805 51.5980 0.0000 0.0000 0.0000
# 3 47.9722 51.5980 158.9830 0.0000 0.0000 0.0000
# 4 0.0000 0.0000 0.0000 23.0210 0.0000 0.0000
# 5 0.0000 0.0000 0.0000 0.0000 10.6046 0.0000
# 6 0.0000 0.0000 0.0000 0.0000 0.0000 16.0753
#
#
#
# Elastic Compliance Matrix: (Units=1/GPa)
#
#
# Indices 1 2 3 4 5 6 
#
# 1 0.007979 -0.000632 -0.002203 0.000000 0.000000 0.000000
# 2 -0.000632 0.010584 -0.003244 0.000000 0.000000 0.000000
# 3 -0.002203 -0.003244 0.008008 0.000000 0.000000 0.000000
# 4 0.000000 0.000000 0.000000 0.043439 0.000000 0.000000
# 5 0.000000 0.000000 0.000000 0.000000 0.094299 0.000000
# 6 0.000000 0.000000 0.000000 0.000000 0.000000 0.062207
#
#
# Mechanical properties :
#
#
# Convention : Reuss Voigt Hill
#
# Bulk Modulus (GPa) = 69.38249 72.93057 71.15653
# Shear Modulus (GPa) = 20.53575 29.16659 24.85117
#
# Velocity S-wave (km/s) = 3.10864 3.70474 3.41970
# Velocity P-wave (km/s) = 6.74793 7.25393 7.00550
#
# Compressibility (1/GPa) = 0.01441286
#
# Stress axis : x y z
#
# Youngs Moduli (GPa) = 125.32140 94.48520 124.88257
#
# Poissons Ratio (x) = 0.05972 0.27507
# Poissons Ratio (y) = 0.07921 0.40515
# Poissons Ratio (z) = 0.27604 0.30653
#
# Static dielectric constant tensor:
#      x y z
#    x 1.803800 0.000000 0.000000 
#    y 0.000000 1.826330 0.000000 
#    z 0.000000 0.000000 1.728500 
# 
# From -- ./inp_files/44024.got.cif
#   From: 2010.05.17/outbox.cif.g08.bks.cpg/sg64_23_cif.got.tgz:44024.got - 2010.06.03 16:29:19.
