data_PCOD9481795
_publ_section_title
;
Structure prediction by ZEFSAII (Michael W. Deem and Ramdas Pophale) SiO2 
 PCOD9481795
Probable space group: C M C A
;
_chemical_formula_sum "Si O2"
_cell_formula_units_Z 64
_cell_length_a 14.480798
_cell_length_b 7.830133
_cell_length_c 22.144275
_cell_angle_alpha 90.000000
_cell_angle_beta 90.000000
_cell_angle_gamma 90.000000
_cell_volume 2510.863482
_symmetry_space_group_name_H-M "C M C A"
_symmetry_group_IT_number 64
_symmetry_cell_setting 'orthorhombic'
loop_
_space_group_symop_operation_xyz
x,y,z
-x,1/2-y,1/2+z
x,-y,-z
-x,1/2+y,1/2-z
-x,-y,-z
x,1/2+y,1/2-z
-x,y,z
x,1/2-y,1/2+z
1/2+x,1/2+y,z
1/2-x,-y,1/2+z
1/2+x,1/2-y,-z
1/2-x,y,1/2-z
1/2-x,1/2-y,-z
1/2+x,y,1/2-z
1/2-x,1/2+y,z
1/2+x,-y,1/2+z
loop_
_atom_site_type_symbol
_atom_site_label
_atom_site_fract_x
_atom_site_fract_y
_atom_site_fract_z
Si Si1 0.389532 0.079184 0.378810
Si Si2 0.642660 0.368279 0.235964
Si Si3 0.229403 0.264877 0.429709
Si Si4 0.401803 0.055239 0.148792
O O1 0.500000 0.087761 0.388752
O O2 0.330672 0.244307 0.399018
O O3 0.369169 0.029699 0.309221
O O4 0.340240 0.921837 0.415491
O O5 0.750000 0.341027 0.250000
O O6 0.600773 0.408184 0.300699
O O7 0.603955 0.217840 0.194900
O O8 0.250000 0.250000 0.500000
O O9 0.176061 0.103743 0.399371
O O10 0.500000 0.050704 0.116975
#
# Coordination Sequence:
#
# PCOD9481795 Si02
#       4
#    16  16  16  16
#     4  11  25  46  71 100 136 181 227 283 349 407
#     4  11  21  39  64  97 134 169 214 279 343 403
#     4  11  24  43  68  98 135 182 234 281 331 401
#     4  11  23  40  65  99 134 172 217 276 342 405
#
# _framework density 25.489239000000001
#
# number of rings (size 3 to 8) (size 9 to 14) (size 15 to 20)
#    0.000    1.000    2.500    6.000    3.500    3.000 
#    0.000    2.500    0.000    7.500    0.000    0.000 
#    0.000    0.000    0.000    0.000    0.000    0.000 
#
# Total GULP energy -179000.063339 kJ/mol
# GULP energy per Si atom -5593.751979 kJ/mol
# Density = 2.543122 g / cm^3
# Si number density = 25.489239 Si / 1000 Ang^3
#
#
#
# Elastic Constant Matrix: (Units=GPa)
#
#
# Indices 1 2 3 4 5 6 
#
# 1 241.5480 4.9838 50.9144 0.0000 0.0000 0.0000
# 2 4.9838 94.8592 11.1567 0.0000 0.0000 0.0000
# 3 50.9144 11.1567 199.6628 0.0000 0.0000 0.0000
# 4 0.0000 0.0000 0.0000 28.6223 0.0000 0.0000
# 5 0.0000 0.0000 0.0000 0.0000 -5.7206 0.0000
# 6 0.0000 0.0000 0.0000 0.0000 0.0000 -19.6773
#
#
#
# Elastic Compliance Matrix: (Units=1/GPa)
#
#
# Indices 1 2 3 4 5 6 
#
# 1 0.004376 -0.000099 -0.001110 0.000000 0.000000 0.000000
# 2 -0.000099 0.010614 -0.000568 0.000000 0.000000 0.000000
# 3 -0.001110 -0.000568 0.005323 0.000000 0.000000 0.000000
# 4 0.000000 0.000000 0.000000 0.034938 0.000000 0.000000
# 5 0.000000 0.000000 0.000000 0.000000 -0.174805 0.000000
# 6 0.000000 0.000000 0.000000 0.000000 0.000000 -0.050820
#
#
# Mechanical properties :
#
#
# Convention : Reuss Voigt Hill
#
# Bulk Modulus (GPa) = 59.67140 74.46442 67.06791
# Shear Modulus (GPa) = -31.01097 31.91254 0.45079
#
# Velocity S-wave (km/s) = -3.49181 3.54220 0.42100
# Velocity P-wave (km/s) = 2.68408 6.78285 5.15807
#
# Compressibility (1/GPa) = 0.01675845
#
# Stress axis : x y z
#
# Youngs Moduli (GPa) = 228.51617 94.21573 187.85301
#
# Poissons Ratio (x) = 0.00936 0.20858
# Poissons Ratio (y) = 0.02270 0.10665
# Poissons Ratio (z) = 0.25373 0.05349
#
# Static dielectric constant tensor:
#      x y z
#    x 1.872610 0.000000 0.000000 
#    y 0.000000 2.289810 0.000000 
#    z 0.000000 0.000000 1.897510 
# 
# From -- ./inp_files/44797.got.cif
#   From: 2010.05.17/outbox.cif.g08.bks.cpg/sg64_23_cif.got.tgz:44797.got - 2010.06.03 16:29:19.
