data_PCOD9481619
_publ_section_title
;
Structure prediction by ZEFSAII (Michael W. Deem and Ramdas Pophale) SiO2 
 PCOD9481619
Probable space group: C M C A
;
_chemical_formula_sum "Si O2"
_cell_formula_units_Z 64
_cell_length_a 9.588377
_cell_length_b 18.975072
_cell_length_c 15.280494
_cell_angle_alpha 90.000000
_cell_angle_beta 90.000000
_cell_angle_gamma 90.000000
_cell_volume 2780.135278
_symmetry_space_group_name_H-M "C M C A"
_symmetry_group_IT_number 64
_symmetry_cell_setting 'orthorhombic'
loop_
_space_group_symop_operation_xyz
x,y,z
-x,1/2-y,1/2+z
x,-y,-z
-x,1/2+y,1/2-z
-x,-y,-z
x,1/2+y,1/2-z
-x,y,z
x,1/2-y,1/2+z
1/2+x,1/2+y,z
1/2-x,-y,1/2+z
1/2+x,1/2-y,-z
1/2-x,y,1/2-z
1/2-x,1/2-y,-z
1/2+x,y,1/2-z
1/2-x,1/2+y,z
1/2+x,-y,1/2+z
loop_
_atom_site_type_symbol
_atom_site_label
_atom_site_fract_x
_atom_site_fract_y
_atom_site_fract_z
Si Si1 0.778556 0.593749 0.150380
Si Si2 0.000000 0.852863 0.138786
Si Si3 0.500000 0.687684 0.628986
Si Si4 0.250000 0.166645 0.750000
Si Si5 0.500000 0.981704 0.103800
Si Si6 0.000000 0.075590 0.043555
Si Si7 0.000000 0.300365 0.926680
O O1 0.750000 0.613796 0.250000
O O2 0.634614 0.584944 0.101723
O O3 0.867043 0.521350 0.144815
O O4 0.868327 0.651950 0.099105
O O5 0.140020 0.875277 0.189324
O O6 0.000000 0.768211 0.133644
O O7 0.000000 0.874291 0.039424
O O8 0.641021 0.705551 0.683728
O O9 0.500000 0.601941 0.618227
O O10 0.500000 0.716163 0.530263
O O11 0.500000 0.000000 0.000000
O O12 0.000000 0.000000 0.000000
#
# Coordination Sequence:
#
# PCOD9481619 Si02
#       7
#    16   8   8   8   8   8   8
#     4  11  25  43  67 104 138 185 229 289 339 408
#     4  11  27  48  71 105 137 186 227 288 349 412
#     4  11  23  44  68 100 136 186 227 283 346 413
#     4  10  26  44  68 104 134 176 230 284 340 414
#     4  11  22  41  65  93 140 187 228 275 351 406
#     4  12  27  44  72 106 142 179 238 286 343 420
#     4  11  25  48  71  95 141 188 232 278 356 415
#
# _framework density 23.020461999999998
#
# number of rings (size 3 to 8) (size 9 to 14) (size 15 to 20)
#    0.000    1.000    2.500    3.750    7.000    6.000 
#    4.500    0.000    0.000    0.000    0.000    0.000 
#    0.000    0.000    0.000    0.000    0.000    0.000 
#
# Total GULP energy -179162.620758 kJ/mol
# GULP energy per Si atom -5598.831899 kJ/mol
# Density = 2.296807 g / cm^3
# Si number density = 23.020462 Si / 1000 Ang^3
#
#
#
# Elastic Constant Matrix: (Units=GPa)
#
#
# Indices 1 2 3 4 5 6 
#
# 1 226.1037 25.6566 89.9532 0.0000 0.0000 0.0000
# 2 25.6566 81.0904 7.6513 0.0000 0.0000 0.0000
# 3 89.9532 7.6513 193.2240 0.0000 0.0000 0.0000
# 4 0.0000 0.0000 0.0000 11.8972 0.0000 0.0000
# 5 0.0000 0.0000 0.0000 0.0000 47.9841 0.0000
# 6 0.0000 0.0000 0.0000 0.0000 0.0000 18.4672
#
#
#
# Elastic Compliance Matrix: (Units=1/GPa)
#
#
# Indices 1 2 3 4 5 6 
#
# 1 0.005612 -0.001535 -0.002552 0.000000 0.000000 0.000000
# 2 -0.001535 0.012798 0.000208 0.000000 0.000000 0.000000
# 3 -0.002552 0.000208 0.006355 0.000000 0.000000 0.000000
# 4 0.000000 0.000000 0.000000 0.084054 0.000000 0.000000
# 5 0.000000 0.000000 0.000000 0.000000 0.020840 0.000000
# 6 0.000000 0.000000 0.000000 0.000000 0.000000 0.054150
#
#
# Mechanical properties :
#
#
# Convention : Reuss Voigt Hill
#
# Bulk Modulus (GPa) = 58.79859 82.99336 70.89598
# Shear Modulus (GPa) = 25.35032 40.81348 33.08190
#
# Velocity S-wave (km/s) = 3.32205 4.21518 3.79498
# Velocity P-wave (km/s) = 6.34917 7.73437 7.07575
#
# Compressibility (1/GPa) = 0.01700721
#
# Stress axis : x y z
#
# Youngs Moduli (GPa) = 178.18433 78.13760 157.35338
#
# Poissons Ratio (x) = 0.11993 0.40155
# Poissons Ratio (y) = 0.27349 -0.03269
# Poissons Ratio (z) = 0.45471 -0.01623
#
# Static dielectric constant tensor:
#      x y z
#    x 1.768660 0.000000 0.000000 
#    y 0.000000 2.033680 0.000000 
#    z 0.000000 0.000000 1.832490 
# 
# From -- ./inp_files/20972.got.cif
#   From: 2010.05.17/outbox.cif.g08.bks.cpg/sg64_11_cif.got.tgz:20972.got - 2010.06.03 16:29:19.
