data_PCOD9481798
_publ_section_title
;
Structure prediction by ZEFSAII (Michael W. Deem and Ramdas Pophale) SiO2 
 PCOD9481798
Probable space group: C M C A
;
_chemical_formula_sum "Si O2"
_cell_formula_units_Z 52
_cell_length_a 7.855807
_cell_length_b 34.687027
_cell_length_c 9.341633
_cell_angle_alpha 90.000000
_cell_angle_beta 90.000000
_cell_angle_gamma 90.000000
_cell_volume 2545.544450
_symmetry_space_group_name_H-M "C M C A"
_symmetry_group_IT_number 64
_symmetry_cell_setting 'orthorhombic'
loop_
_space_group_symop_operation_xyz
x,y,z
-x,1/2-y,1/2+z
x,-y,-z
-x,1/2+y,1/2-z
-x,-y,-z
x,1/2+y,1/2-z
-x,y,z
x,1/2-y,1/2+z
1/2+x,1/2+y,z
1/2-x,-y,1/2+z
1/2+x,1/2-y,-z
1/2-x,y,1/2-z
1/2-x,1/2-y,-z
1/2+x,y,1/2-z
1/2-x,1/2+y,z
1/2+x,-y,1/2+z
loop_
_atom_site_type_symbol
_atom_site_label
_atom_site_fract_x
_atom_site_fract_y
_atom_site_fract_z
Si Si1 0.799347 0.788369 0.585343
Si Si2 0.803414 0.445362 0.082621
Si Si3 0.304935 0.360984 0.091866
Si Si4 0.500000 0.000000 0.500000
O O1 0.750000 0.783928 0.750000
O O2 0.750000 0.750000 0.500000
O O3 0.714561 0.826018 0.516674
O O4 0.000000 0.793911 0.572788
O O5 0.750000 0.450981 0.250000
O O6 0.797048 0.399581 0.054019
O O7 0.000000 0.458346 0.063403
O O8 0.654358 0.466964 0.996949
O O9 0.500000 0.373348 0.101736
O O10 0.250000 0.347485 0.250000
#
# Coordination Sequence:
#
# PCOD9481798 Si02
#       4
#    16  16  16   4
#     4  12  25  43  65  95 132 173 216 268 323 384
#     4  11  21  40  66  93 128 170 219 274 328 396
#     4  11  21  40  67  97 128 170 220 269 326 391
#     4  12  22  40  64  96 128 168 218 264 344 380
#
# _framework density 20.427848999999998
#
# number of rings (size 3 to 8) (size 9 to 14) (size 15 to 20)
#    0.000    0.615    3.077    8.769    0.000    0.000 
#    0.000    1.538    0.000    0.000    0.000    0.000 
#    0.000    0.000    0.000    0.000    0.000    0.000 
#
# Total GULP energy -144804.220130 kJ/mol
# GULP energy per Si atom -5569.393082 kJ/mol
# Density = 2.038135 g / cm^3
# Si number density = 20.427849 Si / 1000 Ang^3
#
#
#
# Elastic Constant Matrix: (Units=GPa)
#
#
# Indices 1 2 3 4 5 6 
#
# 1 188.5145 25.6502 10.0748 0.0000 0.0000 0.0000
# 2 25.6502 105.7922 55.6673 0.0000 0.0000 0.0000
# 3 10.0748 55.6673 74.9129 0.0000 0.0000 0.0000
# 4 0.0000 0.0000 0.0000 -21.4904 0.0000 0.0000
# 5 0.0000 0.0000 0.0000 0.0000 19.2880 0.0000
# 6 0.0000 0.0000 0.0000 0.0000 0.0000 38.8522
#
#
#
# Elastic Compliance Matrix: (Units=1/GPa)
#
#
# Indices 1 2 3 4 5 6 
#
# 1 0.005493 -0.001549 0.000412 0.000000 0.000000 0.000000
# 2 -0.001549 0.015958 -0.011650 0.000000 0.000000 0.000000
# 3 0.000412 -0.011650 0.021951 0.000000 0.000000 0.000000
# 4 0.000000 0.000000 0.000000 -0.046532 0.000000 0.000000
# 5 0.000000 0.000000 0.000000 0.000000 0.051846 0.000000
# 6 0.000000 0.000000 0.000000 0.000000 0.000000 0.025739
#
#
# Mechanical properties :
#
#
# Convention : Reuss Voigt Hill
#
# Bulk Modulus (GPa) = 56.09002 61.33381 58.71192
# Shear Modulus (GPa) = 47.18285 25.85177 36.51731
#
# Velocity S-wave (km/s) = 4.81118 3.56127 4.23262
# Velocity P-wave (km/s) = 7.64071 6.85565 7.25880
#
# Compressibility (1/GPa) = 0.01782848
#
# Stress axis : x y z
#
# Youngs Moduli (GPa) = 182.03869 62.66345 45.55684
#
# Poissons Ratio (x) = 0.09705 -0.01877
# Poissons Ratio (y) = 0.28193 0.53075
# Poissons Ratio (z) = -0.07501 0.73004
#
# Static dielectric constant tensor:
#      x y z
#    x 1.780660 0.000000 0.000000 
#    y 0.000000 1.514380 0.000000 
#    z 0.000000 0.000000 1.680260 
# 
# From -- ./inp_files/12052.got.cif
#   From: 2010.05.17/outbox.cif.g08.bks.cpg/sg64_7_cif.got.tgz:12052.got - 2010.06.03 16:29:19.
