data_PCOD9481141
_publ_section_title
;
Structure prediction by ZEFSAII (Michael W. Deem and Ramdas Pophale) SiO2 
 PCOD9481141
Probable space group: C M C A
;
_chemical_formula_sum "Si O2"
_cell_formula_units_Z 64
_cell_length_a 14.033207
_cell_length_b 12.993244
_cell_length_c 14.329841
_cell_angle_alpha 90.000000
_cell_angle_beta 90.000000
_cell_angle_gamma 90.000000
_cell_volume 2612.858537
_symmetry_space_group_name_H-M "C M C A"
_symmetry_group_IT_number 64
_symmetry_cell_setting 'orthorhombic'
loop_
_space_group_symop_operation_xyz
x,y,z
-x,1/2-y,1/2+z
x,-y,-z
-x,1/2+y,1/2-z
-x,-y,-z
x,1/2+y,1/2-z
-x,y,z
x,1/2-y,1/2+z
1/2+x,1/2+y,z
1/2-x,-y,1/2+z
1/2+x,1/2-y,-z
1/2-x,y,1/2-z
1/2-x,1/2-y,-z
1/2+x,y,1/2-z
1/2-x,1/2+y,z
1/2+x,-y,1/2+z
loop_
_atom_site_type_symbol
_atom_site_label
_atom_site_fract_x
_atom_site_fract_y
_atom_site_fract_z
Si Si1 0.611554 0.647105 0.483518
Si Si2 0.386007 0.264167 0.326075
Si Si3 0.388264 0.356548 0.124390
Si Si4 0.228368 0.053867 0.142529
O O1 0.500000 0.620184 0.470400
O O2 0.634547 0.652921 0.593042
O O3 0.623907 0.765019 0.449112
O O4 0.679262 0.580088 0.418760
O O5 0.500000 0.245769 0.327451
O O6 0.361002 0.307204 0.224371
O O7 0.332915 0.158689 0.349137
O O8 0.500000 0.382529 0.129561
O O9 0.330954 0.458744 0.103006
O O10 0.250000 0.027270 0.250000
#
# Coordination Sequence:
#
# PCOD9481141 Si02
#       4
#    16  16  16  16
#     4  10  23  46  72 100 139 181 227 282 342 408
#     4  10  22  45  73 101 137 182 228 285 343 401
#     4  10  23  44  69 100 136 178 231 283 340 406
#     4  12  24  39  70 100 137 176 233 280 342 400
#
# _framework density 24.494246
#
# number of rings (size 3 to 8) (size 9 to 14) (size 15 to 20)
#    0.000    1.500    2.500    1.500    3.500    2.000 
#    4.500    3.750    0.000    4.500    0.000    0.000 
#    0.000    0.000    0.000    0.000    0.000    0.000 
#
# Total GULP energy -179662.203923 kJ/mol
# GULP energy per Si atom -5614.443873 kJ/mol
# Density = 2.443850 g / cm^3
# Si number density = 24.494246 Si / 1000 Ang^3
#
#
#
# Elastic Constant Matrix: (Units=GPa)
#
#
# Indices 1 2 3 4 5 6 
#
# 1 85.7705 64.9027 18.8602 0.0000 0.0000 0.0000
# 2 64.9027 149.3412 18.9688 0.0000 0.0000 0.0000
# 3 18.8602 18.9688 139.6945 0.0000 0.0000 0.0000
# 4 0.0000 0.0000 0.0000 17.6967 0.0000 0.0000
# 5 0.0000 0.0000 0.0000 0.0000 30.8149 0.0000
# 6 0.0000 0.0000 0.0000 0.0000 0.0000 40.1902
#
#
#
# Elastic Compliance Matrix: (Units=1/GPa)
#
#
# Indices 1 2 3 4 5 6 
#
# 1 0.017623 -0.007486 -0.001363 0.000000 0.000000 0.000000
# 2 -0.007486 0.009993 -0.000346 0.000000 0.000000 0.000000
# 3 -0.001363 -0.000346 0.007390 0.000000 0.000000 0.000000
# 4 0.000000 0.000000 0.000000 0.056508 0.000000 0.000000
# 5 0.000000 0.000000 0.000000 0.000000 0.032452 0.000000
# 6 0.000000 0.000000 0.000000 0.000000 0.000000 0.024882
#
#
# Mechanical properties :
#
#
# Convention : Reuss Voigt Hill
#
# Bulk Modulus (GPa) = 60.18248 64.47439 62.32844
# Shear Modulus (GPa) = 28.93918 35.87866 32.40892
#
# Velocity S-wave (km/s) = 3.44098 3.83140 3.64142
# Velocity P-wave (km/s) = 6.35693 6.77880 6.57125
#
# Compressibility (1/GPa) = 0.01661613
#
# Stress axis : x y z
#
# Youngs Moduli (GPa) = 56.74325 100.06644 135.32712
#
# Poissons Ratio (x) = 0.74908 0.18443
# Poissons Ratio (y) = 0.42477 0.04686
# Poissons Ratio (z) = 0.07733 0.03465
#
# Static dielectric constant tensor:
#      x y z
#    x 1.929030 0.000000 0.000000 
#    y 0.000000 1.894050 0.000000 
#    z 0.000000 0.000000 1.931140 
# 
# From -- ./inp_files/23241.got.cif
#   From: 2010.05.17/outbox.cif.g08.bks.cpg/sg64_12_cif.got.tgz:23241.got - 2010.06.03 16:29:19.
