data_PCOD9481640
_publ_section_title
;
Structure prediction by ZEFSAII (Michael W. Deem and Ramdas Pophale) SiO2 
 PCOD9481640
Probable space group: C M C A
;
_chemical_formula_sum "Si O2"
_cell_formula_units_Z 64
_cell_length_a 25.960749
_cell_length_b 13.517400
_cell_length_c 8.676289
_cell_angle_alpha 90.000000
_cell_angle_beta 90.000000
_cell_angle_gamma 90.000000
_cell_volume 3044.699201
_symmetry_space_group_name_H-M "C M C A"
_symmetry_group_IT_number 64
_symmetry_cell_setting 'orthorhombic'
loop_
_space_group_symop_operation_xyz
x,y,z
-x,1/2-y,1/2+z
x,-y,-z
-x,1/2+y,1/2-z
-x,-y,-z
x,1/2+y,1/2-z
-x,y,z
x,1/2-y,1/2+z
1/2+x,1/2+y,z
1/2-x,-y,1/2+z
1/2+x,1/2-y,-z
1/2-x,y,1/2-z
1/2-x,1/2-y,-z
1/2+x,y,1/2-z
1/2-x,1/2+y,z
1/2+x,-y,1/2+z
loop_
_atom_site_type_symbol
_atom_site_label
_atom_site_fract_x
_atom_site_fract_y
_atom_site_fract_z
Si Si1 0.942909 0.337265 0.576240
Si Si2 0.641999 0.169386 0.873144
Si Si3 0.788313 0.788512 0.633277
Si Si4 0.442999 0.541770 0.754978
O O1 0.897438 0.260678 0.600890
O O2 0.938732 0.428363 0.693976
O O3 0.941460 0.389350 0.408957
O O4 0.000000 0.291693 0.594814
O O5 0.681107 0.205490 0.735796
O O6 0.606211 0.077457 0.835909
O O7 0.670923 0.152426 0.033648
O O8 0.750000 0.843641 0.750000
O O9 0.750000 0.750000 0.500000
O O10 0.500000 0.555268 0.684328
#
# Coordination Sequence:
#
# PCOD9481640 Si02
#       4
#    16  16  16  16
#     4   9  18  32  52  83 118 147 182 223 268 335
#     4  11  17  34  59  80 105 153 187 218 286 340
#     4   9  20  34  54  80 106 137 187 241 282 321
#     4   9  18  32  52  83 118 149 182 222 268 336
#
# _framework density 21.020137999999999
#
# number of rings (size 3 to 8) (size 9 to 14) (size 15 to 20)
#    0.000    2.500    2.500    2.250    0.000    0.000 
#    0.000    1.250    0.000   25.500    0.000    0.000 
#    0.000    0.000    0.000    0.000    0.000    0.000 
#
# Total GULP energy -178437.667067 kJ/mol
# GULP energy per Si atom -5576.177096 kJ/mol
# Density = 2.097230 g / cm^3
# Si number density = 21.020138 Si / 1000 Ang^3
#
#
#
# Elastic Constant Matrix: (Units=GPa)
#
#
# Indices 1 2 3 4 5 6 
#
# 1 147.3130 29.2596 66.7149 0.0000 0.0000 0.0000
# 2 29.2596 30.6402 11.6694 0.0000 0.0000 0.0000
# 3 66.7149 11.6694 97.9921 0.0000 0.0000 0.0000
# 4 0.0000 0.0000 0.0000 14.6364 0.0000 0.0000
# 5 0.0000 0.0000 0.0000 0.0000 54.5155 0.0000
# 6 0.0000 0.0000 0.0000 0.0000 0.0000 14.5003
#
#
#
# Elastic Compliance Matrix: (Units=1/GPa)
#
#
# Indices 1 2 3 4 5 6 
#
# 1 0.011579 -0.008438 -0.006879 0.000000 0.000000 0.000000
# 2 -0.008438 0.040336 0.000941 0.000000 0.000000 0.000000
# 3 -0.006879 0.000941 0.014776 0.000000 0.000000 0.000000
# 4 0.000000 0.000000 0.000000 0.068323 0.000000 0.000000
# 5 0.000000 0.000000 0.000000 0.000000 0.018343 0.000000
# 6 0.000000 0.000000 0.000000 0.000000 0.000000 0.068964
#
#
# Mechanical properties :
#
#
# Convention : Reuss Voigt Hill
#
# Bulk Modulus (GPa) = 26.35683 54.58146 40.46915
# Shear Modulus (GPa) = 18.95955 27.95052 23.45503
#
# Velocity S-wave (km/s) = 3.00654 3.65046 3.34404
# Velocity P-wave (km/s) = 4.96170 6.61744 5.84846
#
# Compressibility (1/GPa) = 0.03794083
#
# Stress axis : x y z
#
# Youngs Moduli (GPa) = 86.36009 24.79168 67.67760
#
# Poissons Ratio (x) = 0.20919 0.46553
# Poissons Ratio (y) = 0.72870 -0.06370
# Poissons Ratio (z) = 0.59404 -0.02334
#
# Static dielectric constant tensor:
#      x y z
#    x 1.794560 0.000000 0.000000 
#    y 0.000000 1.705050 0.000000 
#    z 0.000000 0.000000 1.821810 
# 
# From -- ./inp_files/8932.got.cif
#   From: 2010.05.17/outbox.cif.g08.bks.cpg/sg64_5_cif.got.tgz:8932.got - 2010.06.03 16:29:19.
