data_PCOD9481868
_publ_section_title
;
Structure prediction by ZEFSAII (Michael W. Deem and Ramdas Pophale) SiO2 
 PCOD9481868
Probable space group: C M C A
;
_chemical_formula_sum "Si O2"
_cell_formula_units_Z 112
_cell_length_a 28.618028
_cell_length_b 11.192591
_cell_length_c 17.688759
_cell_angle_alpha 90.000000
_cell_angle_beta 90.000000
_cell_angle_gamma 90.000000
_cell_volume 5665.884319
_symmetry_space_group_name_H-M "C M C A"
_symmetry_group_IT_number 64
_symmetry_cell_setting 'orthorhombic'
loop_
_space_group_symop_operation_xyz
x,y,z
-x,1/2-y,1/2+z
x,-y,-z
-x,1/2+y,1/2-z
-x,-y,-z
x,1/2+y,1/2-z
-x,y,z
x,1/2-y,1/2+z
1/2+x,1/2+y,z
1/2-x,-y,1/2+z
1/2+x,1/2-y,-z
1/2-x,y,1/2-z
1/2-x,1/2-y,-z
1/2+x,y,1/2-z
1/2-x,1/2+y,z
1/2+x,-y,1/2+z
loop_
_atom_site_type_symbol
_atom_site_label
_atom_site_fract_x
_atom_site_fract_y
_atom_site_fract_z
Si Si1 0.446164 0.182584 0.308972
Si Si2 0.616745 0.577676 0.937395
Si Si3 0.346019 0.122468 0.355171
Si Si4 0.702092 0.437040 0.705680
Si Si5 0.282430 0.841614 0.094551
Si Si6 0.185227 0.219161 0.438523
Si Si7 0.052911 0.416380 0.291783
O O1 0.500000 0.186830 0.340029
O O2 0.399404 0.170265 0.359318
O O3 0.438906 0.306601 0.264625
O O4 0.444497 0.054877 0.263689
O O5 0.657665 0.484398 0.914560
O O6 0.639946 0.702375 0.957444
O O7 0.586904 0.594473 0.862422
O O8 0.589741 0.500000 0.000000
O O9 0.335320 0.065187 0.273264
O O10 0.309644 0.225904 0.373302
O O11 0.750000 0.403050 0.750000
O O12 0.712532 0.557445 0.658363
O O13 0.683262 0.349362 0.640752
O O14 0.229465 0.805990 0.075610
O O15 0.304363 0.862508 0.011404
O O16 0.000000 0.400830 0.319191
#
# Coordination Sequence:
#
# PCOD9481868 Si02
#       7
#    16  16  16  16  16  16  16
#     4   9  19  36  59  88 123 159 198 254 317 368
#     4  11  22  39  60  85 119 161 200 248 307 365
#     4  11  23  38  61  91 118 155 204 253 303 357
#     4  12  25  38  60  89 118 155 204 258 294 357
#     4  11  25  40  59  83 120 161 203 245 303 362
#     4  11  24  42  60  80 121 163 200 243 306 365
#     4   9  19  36  61  92 123 157 202 254 314 374
#
# _framework density 19.767434999999999
#
# number of rings (size 3 to 8) (size 9 to 14) (size 15 to 20)
#    0.000    1.429    2.857    2.143    8.000    0.286 
#    0.000    0.000    0.000    0.000    0.000    0.000 
#    0.000   17.143    0.000    0.000    0.000    0.000 
#
# Total GULP energy -311843.024501 kJ/mol
# GULP energy per Si atom -5568.625438 kJ/mol
# Density = 1.972244 g / cm^3
# Si number density = 19.767435 Si / 1000 Ang^3
#
#
#
# Elastic Constant Matrix: (Units=GPa)
#
#
# Indices 1 2 3 4 5 6 
#
# 1 62.9882 5.9931 -0.1713 0.0000 0.0000 0.0000
# 2 5.9931 76.5493 12.2718 0.0000 0.0000 0.0000
# 3 -0.1713 12.2718 85.8947 0.0000 0.0000 0.0000
# 4 0.0000 0.0000 0.0000 33.4336 0.0000 0.0000
# 5 0.0000 0.0000 0.0000 0.0000 12.7756 0.0000
# 6 0.0000 0.0000 0.0000 0.0000 0.0000 36.8776
#
#
#
# Elastic Compliance Matrix: (Units=1/GPa)
#
#
# Indices 1 2 3 4 5 6 
#
# 1 0.015999 -0.001287 0.000216 0.000000 0.000000 0.000000
# 2 -0.001287 0.013473 -0.001927 0.000000 0.000000 0.000000
# 3 0.000216 -0.001927 0.011918 0.000000 0.000000 0.000000
# 4 0.000000 0.000000 0.000000 0.029910 0.000000 0.000000
# 5 0.000000 0.000000 0.000000 0.000000 0.078274 0.000000
# 6 0.000000 0.000000 0.000000 0.000000 0.000000 0.027117
#
#
# Mechanical properties :
#
#
# Convention : Reuss Voigt Hill
#
# Bulk Modulus (GPa) = 28.25454 29.06882 28.66168
# Shear Modulus (GPa) = 25.70871 30.43994 28.07433
#
# Velocity S-wave (km/s) = 3.61024 3.92842 3.77268
# Velocity P-wave (km/s) = 5.63054 5.94255 5.78865
#
# Compressibility (1/GPa) = 0.03539255
#
# Stress axis : x y z
#
# Youngs Moduli (GPa) = 62.50376 74.22119 83.90689
#
# Poissons Ratio (x) = 0.09553 -0.01811
# Poissons Ratio (y) = 0.08045 0.16173
# Poissons Ratio (z) = -0.01349 0.14306
#
# Static dielectric constant tensor:
#      x y z
#    x 1.716820 0.000000 0.000000 
#    y 0.000000 1.740270 0.000000 
#    z 0.000000 0.000000 1.741830 
# 
# From -- ./inp_files/28390.got.cif
#   From: 2010.05.17/outbox.cif.g08.bks.cpg/sg64_15_cif.got.tgz:28390.got - 2010.06.03 16:29:19.
