data_PCOD9481539
_publ_section_title
;
Structure prediction by ZEFSAII (Michael W. Deem and Ramdas Pophale) SiO2 
 PCOD9481539
Probable space group: C M C A
;
_chemical_formula_sum "Si O2"
_cell_formula_units_Z 64
_cell_length_a 9.608491
_cell_length_b 11.438258
_cell_length_c 26.745547
_cell_angle_alpha 90.000000
_cell_angle_beta 90.000000
_cell_angle_gamma 90.000000
_cell_volume 2939.453270
_symmetry_space_group_name_H-M "C M C A"
_symmetry_group_IT_number 64
_symmetry_cell_setting 'orthorhombic'
loop_
_space_group_symop_operation_xyz
x,y,z
-x,1/2-y,1/2+z
x,-y,-z
-x,1/2+y,1/2-z
-x,-y,-z
x,1/2+y,1/2-z
-x,y,z
x,1/2-y,1/2+z
1/2+x,1/2+y,z
1/2-x,-y,1/2+z
1/2+x,1/2-y,-z
1/2-x,y,1/2-z
1/2-x,1/2-y,-z
1/2+x,y,1/2-z
1/2-x,1/2+y,z
1/2+x,-y,1/2+z
loop_
_atom_site_type_symbol
_atom_site_label
_atom_site_fract_x
_atom_site_fract_y
_atom_site_fract_z
Si Si1 0.000000 0.760475 0.525038
Si Si2 0.500000 0.715972 0.187064
Si Si3 0.500000 0.938914 0.311994
Si Si4 0.500000 0.973943 0.420492
Si Si5 0.000000 0.364041 0.086905
Si Si6 0.711132 0.947556 0.944203
Si Si7 0.750000 0.174119 0.750000
O O1 0.000000 0.623497 0.535578
O O2 0.000000 0.797820 0.466781
O O3 0.132475 0.824602 0.550679
O O4 0.500000 0.577734 0.183859
O O5 0.500000 0.781450 0.134180
O O6 0.641396 0.753189 0.216120
O O7 0.500000 0.898868 0.369601
O O8 0.640648 0.898474 0.283997
O O9 0.634998 0.053548 0.424135
O O10 0.871598 0.455194 0.087188
O O11 0.709927 0.000000 0.000000
#
# Coordination Sequence:
#
# PCOD9481539 Si02
#       7
#     8   8   8   8   8  16   8
#     4   9  22  42  57  84 135 171 198 249 295 351
#     4  11  22  42  68  90 122 159 198 260 314 360
#     4  11  25  42  65  95 120 154 206 253 310 377
#     4  12  23  35  62  97 119 157 211 249 300 365
#     4   9  19  39  64  88 122 171 207 239 306 371
#     4   9  20  38  57  84 125 167 205 243 287 348
#     4  10  24  46  66  90 120 154 202 258 320 374
#
# _framework density 21.772758
#
# number of rings (size 3 to 8) (size 9 to 14) (size 15 to 20)
#    0.000    2.000    0.000    4.125    0.000   10.000 
#    0.000   11.250    0.000    0.000    0.000    0.000 
#    0.000    0.000    0.000    0.000    0.000    0.000 
#
# Total GULP energy -178969.229544 kJ/mol
# GULP energy per Si atom -5592.788423 kJ/mol
# Density = 2.172320 g / cm^3
# Si number density = 21.772758 Si / 1000 Ang^3
#
#
#
# Elastic Constant Matrix: (Units=GPa)
#
#
# Indices 1 2 3 4 5 6 
#
# 1 186.6029 45.7688 36.9405 0.0000 0.0000 0.0000
# 2 45.7688 91.7571 26.9367 0.0000 0.0000 0.0000
# 3 36.9405 26.9367 74.9762 0.0000 0.0000 0.0000
# 4 0.0000 0.0000 0.0000 -72.3304 0.0000 0.0000
# 5 0.0000 0.0000 0.0000 0.0000 22.6300 0.0000
# 6 0.0000 0.0000 0.0000 0.0000 0.0000 13.0982
#
#
#
# Elastic Compliance Matrix: (Units=1/GPa)
#
#
# Indices 1 2 3 4 5 6 
#
# 1 0.006429 -0.002546 -0.002253 0.000000 0.000000 0.000000
# 2 -0.002546 0.013191 -0.003485 0.000000 0.000000 0.000000
# 3 -0.002253 -0.003485 0.015700 0.000000 0.000000 0.000000
# 4 0.000000 0.000000 0.000000 -0.013825 0.000000 0.000000
# 5 0.000000 0.000000 0.000000 0.000000 0.044189 0.000000
# 6 0.000000 0.000000 0.000000 0.000000 0.000000 0.076346
#
#
# Mechanical properties :
#
#
# Convention : Reuss Voigt Hill
#
# Bulk Modulus (GPa) = 53.32534 63.62535 58.47534
# Shear Modulus (GPa) = 30.33086 8.92560 19.62823
#
# Velocity S-wave (km/s) = 3.73643 2.02690 3.00576
# Velocity P-wave (km/s) = 6.56959 5.89607 6.24192
#
# Compressibility (1/GPa) = 0.01875281
#
# Stress axis : x y z
#
# Youngs Moduli (GPa) = 155.53613 75.80847 63.69526
#
# Poissons Ratio (x) = 0.19297 0.14352
# Poissons Ratio (y) = 0.39592 0.22198
# Poissons Ratio (z) = 0.35045 0.26419
#
# Static dielectric constant tensor:
#      x y z
#    x 1.861920 0.000000 0.000000 
#    y 0.000000 1.753230 0.000000 
#    z 0.000000 0.000000 1.829020 
# 
# From -- ./inp_files/51609.got.cif
#   From: 2010.05.17/outbox.cif.g08.bks.cpg/sg64_26_cif.got.tgz:51609.got - 2010.06.03 16:29:19.
