data_PCOD9481533
_publ_section_title
;
Structure prediction by ZEFSAII (Michael W. Deem and Ramdas Pophale) SiO2 
 PCOD9481533
Probable space group: C M C A
;
_chemical_formula_sum "Si O2"
_cell_formula_units_Z 64
_cell_length_a 26.927020
_cell_length_b 10.054788
_cell_length_c 8.571008
_cell_angle_alpha 90.000000
_cell_angle_beta 90.000000
_cell_angle_gamma 90.000000
_cell_volume 2320.561654
_symmetry_space_group_name_H-M "C M C A"
_symmetry_group_IT_number 64
_symmetry_cell_setting 'orthorhombic'
loop_
_space_group_symop_operation_xyz
x,y,z
-x,1/2-y,1/2+z
x,-y,-z
-x,1/2+y,1/2-z
-x,-y,-z
x,1/2+y,1/2-z
-x,y,z
x,1/2-y,1/2+z
1/2+x,1/2+y,z
1/2-x,-y,1/2+z
1/2+x,1/2-y,-z
1/2-x,y,1/2-z
1/2-x,1/2-y,-z
1/2+x,y,1/2-z
1/2-x,1/2+y,z
1/2+x,-y,1/2+z
loop_
_atom_site_type_symbol
_atom_site_label
_atom_site_fract_x
_atom_site_fract_y
_atom_site_fract_z
Si Si1 0.443153 0.529915 0.334160
Si Si2 0.157059 0.642260 0.422377
Si Si3 0.707056 0.627135 0.385890
Si Si4 0.943699 0.176522 0.920990
O O1 0.417928 0.500000 0.500000
O O2 0.500000 0.474970 0.347726
O O3 0.426177 0.445140 0.187776
O O4 0.447357 0.687203 0.326478
O O5 0.167607 0.500000 0.500000
O O6 0.195450 0.746767 0.502810
O O7 0.161378 0.626404 0.236387
O O8 0.102270 0.692702 0.463892
O O9 0.711687 0.500000 0.500000
O O10 0.750000 0.630381 0.250000
O O11 0.000000 0.151486 0.983288
#
# Coordination Sequence:
#
# PCOD9481533 Si02
#       4
#    16  16  16  16
#     4   9  20  40  69 105 159 234 298 358 428 502
#     4  12  29  49  84 133 175 232 291 357 438 524
#     4  12  29  60  94 129 173 224 289 365 459 541
#     4  10  24  45  74 118 179 241 301 361 432 512
#
# _framework density 27.579530999999999
#
# number of rings (size 3 to 8) (size 9 to 14) (size 15 to 20)
#    0.000    1.250    0.000    3.000    7.000    3.500 
#    0.000    0.000    0.000    5.250    0.000    0.000 
#    0.000    0.000    0.000    0.000    0.000    0.000 
#
# Total GULP energy -179291.924185 kJ/mol
# GULP energy per Si atom -5602.872631 kJ/mol
# Density = 2.751676 g / cm^3
# Si number density = 27.579531 Si / 1000 Ang^3
#
#
#
# Elastic Constant Matrix: (Units=GPa)
#
#
# Indices 1 2 3 4 5 6 
#
# 1 174.9646 44.7112 78.8809 0.0000 0.0000 0.0000
# 2 44.7112 212.1115 70.9909 0.0000 0.0000 0.0000
# 3 78.8809 70.9909 202.9520 0.0000 0.0000 0.0000
# 4 0.0000 0.0000 0.0000 62.0475 0.0000 0.0000
# 5 0.0000 0.0000 0.0000 0.0000 52.1617 0.0000
# 6 0.0000 0.0000 0.0000 0.0000 0.0000 20.5842
#
#
#
# Elastic Compliance Matrix: (Units=1/GPa)
#
#
# Indices 1 2 3 4 5 6 
#
# 1 0.007006 -0.000640 -0.002499 0.000000 0.000000 0.000000
# 2 -0.000640 0.005398 -0.001639 0.000000 0.000000 0.000000
# 3 -0.002499 -0.001639 0.006472 0.000000 0.000000 0.000000
# 4 0.000000 0.000000 0.000000 0.016117 0.000000 0.000000
# 5 0.000000 0.000000 0.000000 0.000000 0.019171 0.000000
# 6 0.000000 0.000000 0.000000 0.000000 0.000000 0.048581
#
#
# Mechanical properties :
#
#
# Convention : Reuss Voigt Hill
#
# Bulk Modulus (GPa) = 107.31266 108.79934 108.05600
# Shear Modulus (GPa) = 43.32459 53.32170 48.32315
#
# Velocity S-wave (km/s) = 3.96775 4.40179 4.19040
# Velocity P-wave (km/s) = 7.74503 8.08513 7.91691
#
# Compressibility (1/GPa) = 0.00931857
#
# Stress axis : x y z
#
# Youngs Moduli (GPa) = 142.74125 185.24864 154.51335
#
# Poissons Ratio (x) = 0.11863 0.38611
# Poissons Ratio (y) = 0.09141 0.25330
# Poissons Ratio (z) = 0.35669 0.30368
#
# Static dielectric constant tensor:
#      x y z
#    x 2.436770 0.000000 0.000000 
#    y 0.000000 2.057480 0.000000 
#    z 0.000000 0.000000 2.222560 
# 
# From -- ./inp_files/10869.got.cif
#   From: 2010.05.17/outbox.cif.g08.bks.cpg/sg64_6_cif.got.tgz:10869.got - 2010.06.03 16:29:19.
