data_PCOD9481202
_publ_section_title
;
Structure prediction by ZEFSAII (Michael W. Deem and Ramdas Pophale) SiO2 
 PCOD9481202
Probable space group: C M C A
;
_chemical_formula_sum "Si O2"
_cell_formula_units_Z 112
_cell_length_a 14.695524
_cell_length_b 32.549946
_cell_length_c 11.861857
_cell_angle_alpha 90.000000
_cell_angle_beta 90.000000
_cell_angle_gamma 90.000000
_cell_volume 5673.983035
_symmetry_space_group_name_H-M "C M C A"
_symmetry_group_IT_number 64
_symmetry_cell_setting 'orthorhombic'
loop_
_space_group_symop_operation_xyz
x,y,z
-x,1/2-y,1/2+z
x,-y,-z
-x,1/2+y,1/2-z
-x,-y,-z
x,1/2+y,1/2-z
-x,y,z
x,1/2-y,1/2+z
1/2+x,1/2+y,z
1/2-x,-y,1/2+z
1/2+x,1/2-y,-z
1/2-x,y,1/2-z
1/2-x,1/2-y,-z
1/2+x,y,1/2-z
1/2-x,1/2+y,z
1/2+x,-y,1/2+z
loop_
_atom_site_type_symbol
_atom_site_label
_atom_site_fract_x
_atom_site_fract_y
_atom_site_fract_z
Si Si1 0.108112 0.262766 0.089899
Si Si2 0.604120 0.453305 0.009837
Si Si3 0.230326 0.308690 0.522566
Si Si4 0.395999 0.452966 0.490829
Si Si5 0.397039 0.679216 0.806659
Si Si6 0.250539 0.399462 0.883257
Si Si7 0.141099 0.585675 0.750104
O O1 0.172355 0.286944 0.000250
O O2 0.114110 0.288046 0.206415
O O3 0.000000 0.259520 0.061639
O O4 0.161283 0.219462 0.095160
O O5 0.500000 0.452871 0.971527
O O6 0.609071 0.437706 0.138265
O O7 0.638073 0.500000 0.000000
O O8 0.663421 0.422850 0.935761
O O9 0.178196 0.314602 0.402893
O O10 0.246389 0.352654 0.576638
O O11 0.363232 0.500000 0.500000
O O12 0.500000 0.452386 0.529813
O O13 0.335442 0.422756 0.564341
O O14 0.391195 0.436818 0.362707
O O15 0.500000 0.683547 0.853219
O O16 0.388619 0.633203 0.756912
O O17 0.250000 0.402220 0.750000
O O18 0.250000 0.585298 0.750000
#
# Coordination Sequence:
#
# PCOD9481202 Si02
#       7
#    16  16  16  16  16  16  16
#     4  10  23  40  65  96 128 166 217 277 337 397
#     4  11  25  43  67  98 133 176 227 281 336 398
#     4  11  23  42  64  93 131 172 219 269 336 403
#     4  11  25  43  65  96 133 174 222 278 337 397
#     4  11  21  38  66  97 130 167 216 274 331 399
#     4  12  27  44  66  94 135 181 223 271 335 406
#     4  12  22  39  70 100 131 171 222 279 334 395
#
# _framework density 19.73922
#
# number of rings (size 3 to 8) (size 9 to 14) (size 15 to 20)
#    0.000    0.857    2.857    4.286    2.000    5.143 
#    0.000    0.000    0.000    0.000    0.000    0.000 
#    0.000    0.000    0.000    0.000    0.000    0.000 
#
# Total GULP energy -313209.924092 kJ/mol
# GULP energy per Si atom -5593.034359 kJ/mol
# Density = 1.969429 g / cm^3
# Si number density = 19.739220 Si / 1000 Ang^3
#
#
#
# Elastic Constant Matrix: (Units=GPa)
#
#
# Indices 1 2 3 4 5 6 
#
# 1 132.9601 51.6973 39.3037 0.0000 0.0000 0.0000
# 2 51.6973 182.9987 66.5711 0.0000 0.0000 0.0000
# 3 39.3037 66.5711 107.8230 0.0000 0.0000 0.0000
# 4 0.0000 0.0000 0.0000 30.3450 0.0000 0.0000
# 5 0.0000 0.0000 0.0000 0.0000 72.2745 0.0000
# 6 0.0000 0.0000 0.0000 0.0000 0.0000 41.7362
#
#
#
# Elastic Compliance Matrix: (Units=1/GPa)
#
#
# Indices 1 2 3 4 5 6 
#
# 1 0.008824 -0.001706 -0.002163 0.000000 0.000000 0.000000
# 2 -0.001706 0.007377 -0.003933 0.000000 0.000000 0.000000
# 3 -0.002163 -0.003933 0.012491 0.000000 0.000000 0.000000
# 4 0.000000 0.000000 0.000000 0.032954 0.000000 0.000000
# 5 0.000000 0.000000 0.000000 0.000000 0.013836 0.000000
# 6 0.000000 0.000000 0.000000 0.000000 0.000000 0.023960
#
#
# Mechanical properties :
#
#
# Convention : Reuss Voigt Hill
#
# Bulk Modulus (GPa) = 76.40483 82.10291 79.25387
# Shear Modulus (GPa) = 41.87277 46.61845 44.24561
#
# Velocity S-wave (km/s) = 4.61075 4.86502 4.73959
# Velocity P-wave (km/s) = 8.19369 8.55815 8.37790
#
# Compressibility (1/GPa) = 0.01308818
#
# Stress axis : x y z
#
# Youngs Moduli (GPa) = 113.33031 135.55434 80.05598
#
# Poissons Ratio (x) = 0.23122 0.17318
# Poissons Ratio (y) = 0.19331 0.31485
# Poissons Ratio (z) = 0.24517 0.53313
#
# Static dielectric constant tensor:
#      x y z
#    x 1.709290 0.000000 0.000000 
#    y 0.000000 1.695010 0.000000 
#    z 0.000000 0.000000 1.642930 
# 
# From -- ./inp_files/14933.got.cif
#   From: 2010.05.17/outbox.cif.g08.bks.cpg/sg64_8_cif.got.tgz:14933.got - 2010.06.03 16:29:19.
