data_PCOD9481776
_publ_section_title
;
Structure prediction by ZEFSAII (Michael W. Deem and Ramdas Pophale) SiO2 
 PCOD9481776
Probable space group: C M C A
;
_chemical_formula_sum "Si O2"
_cell_formula_units_Z 96
_cell_length_a 29.087034
_cell_length_b 12.651188
_cell_length_c 14.029168
_cell_angle_alpha 90.000000
_cell_angle_beta 90.000000
_cell_angle_gamma 90.000000
_cell_volume 5162.530899
_symmetry_space_group_name_H-M "C M C A"
_symmetry_group_IT_number 64
_symmetry_cell_setting 'orthorhombic'
loop_
_space_group_symop_operation_xyz
x,y,z
-x,1/2-y,1/2+z
x,-y,-z
-x,1/2+y,1/2-z
-x,-y,-z
x,1/2+y,1/2-z
-x,y,z
x,1/2-y,1/2+z
1/2+x,1/2+y,z
1/2-x,-y,1/2+z
1/2+x,1/2-y,-z
1/2-x,y,1/2-z
1/2-x,1/2-y,-z
1/2+x,y,1/2-z
1/2-x,1/2+y,z
1/2+x,-y,1/2+z
loop_
_atom_site_type_symbol
_atom_site_label
_atom_site_fract_x
_atom_site_fract_y
_atom_site_fract_z
Si Si1 0.302067 0.381119 0.962667
Si Si2 0.000000 0.270563 0.393187
Si Si3 0.435636 0.614593 0.281320
Si Si4 0.000000 0.297825 0.618937
Si Si5 0.500000 0.577669 0.717035
Si Si6 0.668957 0.105291 0.261151
Si Si7 0.750000 0.064862 0.750000
Si Si8 0.279281 0.253376 0.124445
O O1 0.335924 0.380040 0.873960
O O2 0.253986 0.334649 0.920889
O O3 0.297588 0.500000 0.000000
O O4 0.313889 0.299723 0.046218
O O5 0.956821 0.197350 0.358249
O O6 0.000000 0.304345 0.504097
O O7 0.000000 0.371377 0.322649
O O8 0.456732 0.652969 0.178564
O O9 0.457108 0.499466 0.297445
O O10 0.381246 0.602826 0.282875
O O11 0.000000 0.174224 0.644676
O O12 0.695472 0.202934 0.213645
O O13 0.704206 0.006923 0.248359
O O14 0.748027 0.143020 0.659580
#
# Coordination Sequence:
#
# PCOD9481776 Si02
#       8
#    16   8  16   8   8  16   8  16
#     4  11  21  38  59  84 111 159 210 252 295 350
#     4   9  19  41  68  84 116 155 189 239 308 368
#     4   9  22  36  60  92 118 150 195 243 300 363
#     4   9  19  41  66  86 118 151 193 239 306 368
#     4   8  18  42  58  86 114 150 180 248 298 360
#     4  12  22  39  57  88 124 160 206 249 303 347
#     4  12  20  38  58  78 122 174 196 250 304 342
#     4  11  22  38  60  80 116 167 209 250 297 343
#
# _framework density 18.59553
#
# number of rings (size 3 to 8) (size 9 to 14) (size 15 to 20)
#    0.000    2.000    5.000    0.000    0.000    6.667 
#    3.000    0.000   11.000    0.000    0.000    0.000 
#    0.000    0.000    0.000    0.000    0.000    0.000 
#
# Total GULP energy -267407.582341 kJ/mol
# GULP energy per Si atom -5570.991299 kJ/mol
# Density = 1.855321 g / cm^3
# Si number density = 18.595530 Si / 1000 Ang^3
#
#
#
# Elastic Constant Matrix: (Units=GPa)
#
#
# Indices 1 2 3 4 5 6 
#
# 1 91.8507 20.6497 -7.0359 0.0000 0.0000 0.0000
# 2 20.6497 67.9918 -1.5657 0.0000 0.0000 0.0000
# 3 -7.0359 -1.5657 72.8013 0.0000 0.0000 0.0000
# 4 0.0000 0.0000 0.0000 32.2664 0.0000 0.0000
# 5 0.0000 0.0000 0.0000 0.0000 11.8468 0.0000
# 6 0.0000 0.0000 0.0000 0.0000 0.0000 0.8094
#
#
#
# Elastic Compliance Matrix: (Units=1/GPa)
#
#
# Indices 1 2 3 4 5 6 
#
# 1 0.011766 -0.003549 0.001061 0.000000 0.000000 0.000000
# 2 -0.003549 0.015785 -0.000004 0.000000 0.000000 0.000000
# 3 0.001061 -0.000004 0.013838 0.000000 0.000000 0.000000
# 4 0.000000 0.000000 0.000000 0.030992 0.000000 0.000000
# 5 0.000000 0.000000 0.000000 0.000000 0.084411 0.000000
# 6 0.000000 0.000000 0.000000 0.000000 0.000000 1.235544
#
#
# Mechanical properties :
#
#
# Convention : Reuss Voigt Hill
#
# Bulk Modulus (GPa) = 27.46743 28.52666 27.99704
# Shear Modulus (GPa) = 3.54747 23.69089 13.61918
#
# Velocity S-wave (km/s) = 1.38269 3.57320 2.70921
# Velocity P-wave (km/s) = 4.16559 5.69189 4.98747
#
# Compressibility (1/GPa) = 0.03640675
#
# Stress axis : x y z
#
# Youngs Moduli (GPa) = 84.98775 63.34935 72.26230
#
# Poissons Ratio (x) = 0.22483 -0.07666
# Poissons Ratio (y) = 0.30163 0.00025
# Poissons Ratio (z) = -0.09016 0.00022
#
# Static dielectric constant tensor:
#      x y z
#    x 1.648430 0.000000 0.000000 
#    y 0.000000 1.641930 0.000000 
#    z 0.000000 0.000000 1.712520 
# 
# From -- ./inp_files/28359.got.cif
#   From: 2010.05.17/outbox.cif.g08.bks.cpg/sg64_15_cif.got.tgz:28359.got - 2010.06.03 16:29:19.
