data_PCOD9481925
_publ_section_title
;
Structure prediction by ZEFSAII (Michael W. Deem and Ramdas Pophale) SiO2 
 PCOD9481925
Probable space group: C M C A
;
_chemical_formula_sum "Si O2"
_cell_formula_units_Z 68
_cell_length_a 22.942272
_cell_length_b 8.268226
_cell_length_c 16.937469
_cell_angle_alpha 90.000000
_cell_angle_beta 90.000000
_cell_angle_gamma 90.000000
_cell_volume 3212.900504
_symmetry_space_group_name_H-M "C M C A"
_symmetry_group_IT_number 64
_symmetry_cell_setting 'orthorhombic'
loop_
_space_group_symop_operation_xyz
x,y,z
-x,1/2-y,1/2+z
x,-y,-z
-x,1/2+y,1/2-z
-x,-y,-z
x,1/2+y,1/2-z
-x,y,z
x,1/2-y,1/2+z
1/2+x,1/2+y,z
1/2-x,-y,1/2+z
1/2+x,1/2-y,-z
1/2-x,y,1/2-z
1/2-x,1/2-y,-z
1/2+x,y,1/2-z
1/2-x,1/2+y,z
1/2+x,-y,1/2+z
loop_
_atom_site_type_symbol
_atom_site_label
_atom_site_fract_x
_atom_site_fract_y
_atom_site_fract_z
Si Si1 0.671509 0.939282 0.410954
Si Si2 0.564797 0.567886 0.183713
Si Si3 0.707546 0.566206 0.410725
Si Si4 0.000000 0.000000 0.500000
Si Si5 0.412339 0.942598 0.145746
O O1 0.614771 0.965767 0.358666
O O2 0.690402 0.753238 0.412445
O O3 0.659002 0.000000 0.500000
O O4 0.727331 0.038475 0.378769
O O5 0.500000 0.518660 0.157221
O O6 0.569368 0.542238 0.277128
O O7 0.574479 0.754681 0.161865
O O8 0.709973 0.500000 0.500000
O O9 0.656306 0.470245 0.367541
O O10 0.948971 0.005414 0.569428
#
# Coordination Sequence:
#
# PCOD9481925 Si02
#       5
#    16  16  16   4  16
#     4  11  24  42  69 103 140 185 235 289 351 417
#     4  12  25  46  66 104 144 179 234 291 349 418
#     4  11  22  43  70 100 138 184 238 290 346 415
#     4  12  24  44  76 102 138 192 232 276 360 416
#     4  12  25  45  73 102 142 187 231 290 351 417
#
# _framework density 21.164677000000001
#
# number of rings (size 3 to 8) (size 9 to 14) (size 15 to 20)
#    0.000    0.471    3.529    7.059    0.000    1.412 
#    2.118    4.706    0.000    0.000    0.000    0.000 
#    0.000    0.000    0.000    0.000    0.000    0.000 
#
# Total GULP energy -189846.448748 kJ/mol
# GULP energy per Si atom -5583.719081 kJ/mol
# Density = 2.111650 g / cm^3
# Si number density = 21.164677 Si / 1000 Ang^3
#
#
#
# Elastic Constant Matrix: (Units=GPa)
#
#
# Indices 1 2 3 4 5 6 
#
# 1 198.7651 53.0593 80.0867 0.0000 0.0000 0.0000
# 2 53.0593 93.5271 48.3137 0.0000 0.0000 0.0000
# 3 80.0867 48.3137 113.6724 0.0000 0.0000 0.0000
# 4 0.0000 0.0000 0.0000 19.8362 0.0000 0.0000
# 5 0.0000 0.0000 0.0000 0.0000 -62.8306 0.0000
# 6 0.0000 0.0000 0.0000 0.0000 0.0000 42.7962
#
#
#
# Elastic Compliance Matrix: (Units=1/GPa)
#
#
# Indices 1 2 3 4 5 6 
#
# 1 0.007279 -0.001897 -0.004322 0.000000 0.000000 0.000000
# 2 -0.001897 0.014194 -0.004697 0.000000 0.000000 0.000000
# 3 -0.004322 -0.004697 0.013838 0.000000 0.000000 0.000000
# 4 0.000000 0.000000 0.000000 0.050413 0.000000 0.000000
# 5 0.000000 0.000000 0.000000 0.000000 -0.015916 0.000000
# 6 0.000000 0.000000 0.000000 0.000000 0.000000 0.023367
#
#
# Mechanical properties :
#
#
# Convention : Reuss Voigt Hill
#
# Bulk Modulus (GPa) = 74.17981 85.43156 79.80568
# Shear Modulus (GPa) = 41.84111 14.92736 28.38423
#
# Velocity S-wave (km/s) = 4.45109 2.65862 3.66609
# Velocity P-wave (km/s) = 7.84482 7.06238 7.46386
#
# Compressibility (1/GPa) = 0.01348076
#
# Stress axis : x y z
#
# Youngs Moduli (GPa) = 137.38452 70.45093 72.26234
#
# Poissons Ratio (x) = 0.13363 0.31232
# Poissons Ratio (y) = 0.26058 0.33939
# Poissons Ratio (z) = 0.59379 0.33088
#
# Static dielectric constant tensor:
#      x y z
#    x 1.783810 0.000000 0.000000 
#    y 0.000000 1.758060 0.000000 
#    z 0.000000 0.000000 1.728650 
# 
# From -- ./inp_files/33961.got.cif
#   From: 2010.05.17/outbox.cif.g08.bks.cpg/sg64_17_cif.got.tgz:33961.got - 2010.06.03 16:29:19.
