data_PCOD9481642
_publ_section_title
;
Structure prediction by ZEFSAII (Michael W. Deem and Ramdas Pophale) SiO2 
 PCOD9481642
Probable space group: C M C A
;
_chemical_formula_sum "Si O2"
_cell_formula_units_Z 112
_cell_length_a 14.891877
_cell_length_b 25.995091
_cell_length_c 12.744655
_cell_angle_alpha 90.000000
_cell_angle_beta 90.000000
_cell_angle_gamma 90.000000
_cell_volume 4933.656013
_symmetry_space_group_name_H-M "C M C A"
_symmetry_group_IT_number 64
_symmetry_cell_setting 'orthorhombic'
loop_
_space_group_symop_operation_xyz
x,y,z
-x,1/2-y,1/2+z
x,-y,-z
-x,1/2+y,1/2-z
-x,-y,-z
x,1/2+y,1/2-z
-x,y,z
x,1/2-y,1/2+z
1/2+x,1/2+y,z
1/2-x,-y,1/2+z
1/2+x,1/2-y,-z
1/2-x,y,1/2-z
1/2-x,1/2-y,-z
1/2+x,y,1/2-z
1/2-x,1/2+y,z
1/2+x,-y,1/2+z
loop_
_atom_site_type_symbol
_atom_site_label
_atom_site_fract_x
_atom_site_fract_y
_atom_site_fract_z
Si Si1 0.219878 0.957074 0.413029
Si Si2 0.103504 0.676091 0.469297
Si Si3 0.854613 0.601945 0.280919
Si Si4 0.653331 0.756453 0.208740
Si Si5 0.603370 0.516829 0.789377
Si Si6 0.094903 0.810040 0.618187
Si Si7 0.718535 0.337895 0.434759
O O1 0.207569 0.898500 0.447475
O O2 0.201716 0.000000 0.500000
O O3 0.323104 0.965069 0.375024
O O4 0.150001 0.965238 0.318431
O O5 0.129164 0.628295 0.393320
O O6 0.119269 0.724458 0.391751
O O7 0.176337 0.675731 0.561525
O O8 0.000000 0.673453 0.500586
O O9 0.750000 0.597209 0.250000
O O10 0.894460 0.545172 0.284340
O O11 0.895898 0.641010 0.195684
O O12 0.750000 0.736125 0.250000
O O13 0.594609 0.739512 0.306907
O O14 0.670705 0.813719 0.166919
O O15 0.500000 0.533899 0.803883
O O16 0.175143 0.811529 0.536613
O O17 0.000000 0.813336 0.560140
#
# Coordination Sequence:
#
# PCOD9481642 Si02
#       7
#    16  16  16  16  16  16  16
#     4  11  25  44  71 102 140 188 235 286 347 414
#     4  11  22  40  67 102 133 171 228 280 332 410
#     4  11  17  37  68  96 134 179 222 277 345 400
#     4  11  23  43  66  93 131 179 214 275 343 404
#     4  11  24  43  67 101 140 182 232 291 351 412
#     4  11  23  41  69 103 134 172 227 282 338 413
#     4  12  25  43  71  96 138 184 228 278 352 406
#
# _framework density 22.701218000000001
#
# number of rings (size 3 to 8) (size 9 to 14) (size 15 to 20)
#    0.000    0.857    4.286    5.571    2.000    2.857 
#    0.000    0.714    0.000    0.000    0.000    0.000 
#    0.000    0.000    0.000    0.000    0.000    0.000 
#
# Total GULP energy -313237.243166 kJ/mol
# GULP energy per Si atom -5593.522199 kJ/mol
# Density = 2.264955 g / cm^3
# Si number density = 22.701218 Si / 1000 Ang^3
#
#
#
# Elastic Constant Matrix: (Units=GPa)
#
#
# Indices 1 2 3 4 5 6 
#
# 1 134.7774 19.2200 -0.0631 0.0000 0.0000 0.0000
# 2 19.2200 117.3854 41.7291 0.0000 0.0000 0.0000
# 3 -0.0631 41.7291 59.3054 0.0000 0.0000 0.0000
# 4 0.0000 0.0000 0.0000 28.8721 0.0000 0.0000
# 5 0.0000 0.0000 0.0000 0.0000 5.6320 0.0000
# 6 0.0000 0.0000 0.0000 0.0000 0.0000 13.1367
#
#
#
# Elastic Compliance Matrix: (Units=1/GPa)
#
#
# Indices 1 2 3 4 5 6 
#
# 1 0.007659 -0.001676 0.001188 0.000000 0.000000 0.000000
# 2 -0.001676 0.011727 -0.008254 0.000000 0.000000 0.000000
# 3 0.001188 -0.008254 0.022671 0.000000 0.000000 0.000000
# 4 0.000000 0.000000 0.000000 0.034635 0.000000 0.000000
# 5 0.000000 0.000000 0.000000 0.000000 0.177557 0.000000
# 6 0.000000 0.000000 0.000000 0.000000 0.000000 0.076123
#
#
# Mechanical properties :
#
#
# Convention : Reuss Voigt Hill
#
# Bulk Modulus (GPa) = 40.69529 48.13782 44.41655
# Shear Modulus (GPa) = 14.04307 26.23365 20.13836
#
# Velocity S-wave (km/s) = 2.48987 3.40311 2.98166
# Velocity P-wave (km/s) = 5.12166 6.05743 5.60909
#
# Compressibility (1/GPa) = 0.02457287
#
# Stress axis : x y z
#
# Youngs Moduli (GPa) = 130.56124 85.26991 44.10990
#
# Poissons Ratio (x) = 0.14294 -0.05239
# Poissons Ratio (y) = 0.21886 0.36407
# Poissons Ratio (z) = -0.15506 0.70378
#
# Static dielectric constant tensor:
#      x y z
#    x 1.868910 0.000000 0.000000 
#    y 0.000000 1.835160 0.000000 
#    z 0.000000 0.000000 1.840760 
# 
# From -- ./inp_files/14989.got.cif
#   From: 2010.05.17/outbox.cif.g08.bks.cpg/sg64_8_cif.got.tgz:14989.got - 2010.06.03 16:29:19.
