data_PCOD9481543
_publ_section_title
;
Structure prediction by ZEFSAII (Michael W. Deem and Ramdas Pophale) SiO2 
 PCOD9481543
Probable space group: C M C A
;
_chemical_formula_sum "Si O2"
_cell_formula_units_Z 88
_cell_length_a 23.178751
_cell_length_b 9.563883
_cell_length_c 20.322242
_cell_angle_alpha 90.000000
_cell_angle_beta 90.000000
_cell_angle_gamma 90.000000
_cell_volume 4505.011493
_symmetry_space_group_name_H-M "C M C A"
_symmetry_group_IT_number 64
_symmetry_cell_setting 'orthorhombic'
loop_
_space_group_symop_operation_xyz
x,y,z
-x,1/2-y,1/2+z
x,-y,-z
-x,1/2+y,1/2-z
-x,-y,-z
x,1/2+y,1/2-z
-x,y,z
x,1/2-y,1/2+z
1/2+x,1/2+y,z
1/2-x,-y,1/2+z
1/2+x,1/2-y,-z
1/2-x,y,1/2-z
1/2-x,1/2-y,-z
1/2+x,y,1/2-z
1/2-x,1/2+y,z
1/2+x,-y,1/2+z
loop_
_atom_site_type_symbol
_atom_site_label
_atom_site_fract_x
_atom_site_fract_y
_atom_site_fract_z
Si Si1 0.729300 0.197595 0.896898
Si Si2 0.211232 0.434305 0.810133
Si Si3 0.419593 0.108872 0.204160
Si Si4 0.066151 0.122354 0.447721
Si Si5 0.000000 0.375723 0.267674
Si Si6 0.339417 0.842355 0.489701
O O1 0.755291 0.307914 0.845484
O O2 0.704994 0.060674 0.861717
O O3 0.782827 0.153429 0.943496
O O4 0.681962 0.272480 0.942471
O O5 0.250000 0.485597 0.750000
O O6 0.148808 0.386182 0.785729
O O7 0.429410 0.070661 0.127178
O O8 0.450089 0.256759 0.216333
O O9 0.450101 0.992347 0.248336
O O10 0.111747 0.245642 0.458050
O O11 0.000000 0.169582 0.458853
O O12 0.078473 0.000000 0.500000
O O13 0.360117 0.000000 0.500000
#
# Coordination Sequence:
#
# PCOD9481543 Si02
#       6
#    16  16  16  16   8  16
#     4  11  24  43  64 102 133 180 224 278 352 413
#     4  12  26  42  68 102 141 180 231 285 344 417
#     4  11  24  47  71  97 137 178 237 281 341 416
#     4  11  23  44  72  98 131 178 232 290 342 405
#     4  10  24  46  68  94 127 190 223 276 340 398
#     4  11  23  42  69  96 137 177 223 284 349 414
#
# _framework density 19.533801
#
# number of rings (size 3 to 8) (size 9 to 14) (size 15 to 20)
#    0.000    0.909    5.455    1.636    5.091    0.364 
#    0.000    1.818    0.000    0.000    0.000    0.000 
#    0.000    0.000    0.000    0.000    0.000    0.000 
#
# Total GULP energy -244939.777982 kJ/mol
# GULP energy per Si atom -5566.813136 kJ/mol
# Density = 1.948934 g / cm^3
# Si number density = 19.533801 Si / 1000 Ang^3
#
#
#
# Elastic Constant Matrix: (Units=GPa)
#
#
# Indices 1 2 3 4 5 6 
#
# 1 88.1353 -10.6455 -9.1855 0.0000 0.0000 0.0000
# 2 -10.6455 38.4297 -12.1334 0.0000 0.0000 0.0000
# 3 -9.1855 -12.1334 20.0221 0.0000 0.0000 0.0000
# 4 0.0000 0.0000 0.0000 23.1997 0.0000 0.0000
# 5 0.0000 0.0000 0.0000 0.0000 21.3637 0.0000
# 6 0.0000 0.0000 0.0000 0.0000 0.0000 29.5240
#
#
#
# Elastic Compliance Matrix: (Units=1/GPa)
#
#
# Indices 1 2 3 4 5 6 
#
# 1 0.013251 0.006913 0.010268 0.000000 0.000000 0.000000
# 2 0.006913 0.035784 0.024857 0.000000 0.000000 0.000000
# 3 0.010268 0.024857 0.069719 0.000000 0.000000 0.000000
# 4 0.000000 0.000000 0.000000 0.043104 0.000000 0.000000
# 5 0.000000 0.000000 0.000000 0.000000 0.046808 0.000000
# 6 0.000000 0.000000 0.000000 0.000000 0.000000 0.033871
#
#
# Mechanical properties :
#
#
# Convention : Reuss Voigt Hill
#
# Bulk Modulus (GPa) = 4.93023 9.18426 7.05725
# Shear Modulus (GPa) = 22.11685 26.72090 24.41887
#
# Velocity S-wave (km/s) = 3.36852 3.70257 3.53949
# Velocity P-wave (km/s) = 4.20222 4.79485 4.50829
#
# Compressibility (1/GPa) = 0.20283034
#
# Stress axis : x y z
#
# Youngs Moduli (GPa) = 75.46399 27.94514 14.34335
#
# Poissons Ratio (x) = -0.19318 -0.14728
# Poissons Ratio (y) = -0.52167 -0.35653
# Poissons Ratio (z) = -0.77490 -0.69462
#
# Static dielectric constant tensor:
#      x y z
#    x 1.676060 0.000000 0.000000 
#    y 0.000000 1.646870 0.000000 
#    z 0.000000 0.000000 1.718090 
# 
# From -- ./inp_files/41360.got.cif
#   From: 2010.05.17/outbox.cif.g08.bks.cpg/sg64_21_cif.got.tgz:41360.got - 2010.06.03 16:29:19.
