data_PCOD9481481
_publ_section_title
;
Structure prediction by ZEFSAII (Michael W. Deem and Ramdas Pophale) SiO2 
 PCOD9481481
Probable space group: C M C A
;
_chemical_formula_sum "Si O2"
_cell_formula_units_Z 72
_cell_length_a 21.828183
_cell_length_b 7.603890
_cell_length_c 17.975200
_cell_angle_alpha 90.000000
_cell_angle_beta 90.000000
_cell_angle_gamma 90.000000
_cell_volume 2983.507562
_symmetry_space_group_name_H-M "C M C A"
_symmetry_group_IT_number 64
_symmetry_cell_setting 'orthorhombic'
loop_
_space_group_symop_operation_xyz
x,y,z
-x,1/2-y,1/2+z
x,-y,-z
-x,1/2+y,1/2-z
-x,-y,-z
x,1/2+y,1/2-z
-x,y,z
x,1/2-y,1/2+z
1/2+x,1/2+y,z
1/2-x,-y,1/2+z
1/2+x,1/2-y,-z
1/2-x,y,1/2-z
1/2-x,1/2-y,-z
1/2+x,y,1/2-z
1/2-x,1/2+y,z
1/2+x,-y,1/2+z
loop_
_atom_site_type_symbol
_atom_site_label
_atom_site_fract_x
_atom_site_fract_y
_atom_site_fract_z
Si Si1 0.315771 0.252456 0.214343
Si Si2 0.500000 0.051579 0.687864
Si Si3 0.500000 0.541380 0.357331
Si Si4 0.378289 0.117034 0.067774
Si Si5 0.127447 0.000000 0.000000
Si Si6 0.131435 0.902424 0.845536
O O1 0.250000 0.223890 0.250000
O O2 0.335776 0.140797 0.141440
O O3 0.362658 0.244356 0.283491
O O4 0.324478 0.449381 0.187547
O O5 0.500000 0.252093 0.662661
O O6 0.500000 0.049818 0.777416
O O7 0.439507 0.957475 0.656732
O O8 0.561077 0.513491 0.404969
O O9 0.396462 0.317788 0.041342
O O10 0.351950 0.000000 0.000000
O O11 0.154850 0.895643 0.929577
#
# Coordination Sequence:
#
# PCOD9481481 Si02
#       6
#    16   8   8  16   8  16
#     4  11  24  45  68  98 140 190 240 292 359 436
#     4  12  20  40  70  98 146 178 235 300 356 448
#     4  12  23  42  66 109 145 190 240 298 376 446
#     4  11  25  45  71 108 145 190 244 303 378 436
#     4  10  24  43  68 104 142 176 238 303 360 432
#     4  11  23  42  68 100 136 186 239 294 373 430
#
# _framework density 24.132667000000001
#
# number of rings (size 3 to 8) (size 9 to 14) (size 15 to 20)
#    0.000    0.889    6.667    1.000    3.111    3.556 
#    2.000    2.222    0.000    0.000    0.000    0.000 
#    0.000    0.000    0.000    0.000    0.000    0.000 
#
# Total GULP energy -200629.950509 kJ/mol
# GULP energy per Si atom -5573.054181 kJ/mol
# Density = 2.407774 g / cm^3
# Si number density = 24.132667 Si / 1000 Ang^3
#
#
#
# Elastic Constant Matrix: (Units=GPa)
#
#
# Indices 1 2 3 4 5 6 
#
# 1 108.0047 15.0978 33.2732 0.0000 0.0000 0.0000
# 2 15.0978 53.7495 37.1358 0.0000 0.0000 0.0000
# 3 33.2732 37.1358 189.5832 0.0000 0.0000 0.0000
# 4 0.0000 0.0000 0.0000 39.7682 0.0000 0.0000
# 5 0.0000 0.0000 0.0000 0.0000 28.6563 0.0000
# 6 0.0000 0.0000 0.0000 0.0000 0.0000 2.0972
#
#
#
# Elastic Compliance Matrix: (Units=1/GPa)
#
#
# Indices 1 2 3 4 5 6 
#
# 1 0.009942 -0.001836 -0.001385 0.000000 0.000000 0.000000
# 2 -0.001836 0.021856 -0.003959 0.000000 0.000000 0.000000
# 3 -0.001385 -0.003959 0.006293 0.000000 0.000000 0.000000
# 4 0.000000 0.000000 0.000000 0.025146 0.000000 0.000000
# 5 0.000000 0.000000 0.000000 0.000000 0.034896 0.000000
# 6 0.000000 0.000000 0.000000 0.000000 0.000000 0.476829
#
#
# Mechanical properties :
#
#
# Convention : Reuss Voigt Hill
#
# Bulk Modulus (GPa) = 42.13805 58.03900 50.08852
# Shear Modulus (GPa) = 8.37195 31.82636 20.09916
#
# Velocity S-wave (km/s) = 1.86458 3.63548 2.88906
# Velocity P-wave (km/s) = 4.70473 6.45945 5.65062
#
# Compressibility (1/GPa) = 0.02373152
#
# Stress axis : x y z
#
# Youngs Moduli (GPa) = 100.58095 45.75468 158.89754
#
# Poissons Ratio (x) = 0.08398 0.22014
# Poissons Ratio (y) = 0.18462 0.62907
# Poissons Ratio (z) = 0.13934 0.18114
#
# Static dielectric constant tensor:
#      x y z
#    x 1.999910 0.000000 0.000000 
#    y 0.000000 2.011430 0.000000 
#    z 0.000000 0.000000 2.290070 
# 
# From -- ./inp_files/34868.got.cif
#   From: 2010.05.17/outbox.cif.g08.bks.cpg/sg64_18_cif.got.tgz:34868.got - 2010.06.03 16:29:19.
