data_PCOD9481449
_publ_section_title
;
Structure prediction by ZEFSAII (Michael W. Deem and Ramdas Pophale) SiO2 
 PCOD9481449
Probable space group: C M C A
;
_chemical_formula_sum "Si O2"
_cell_formula_units_Z 96
_cell_length_a 23.429797
_cell_length_b 15.940156
_cell_length_c 10.259195
_cell_angle_alpha 90.000000
_cell_angle_beta 90.000000
_cell_angle_gamma 90.000000
_cell_volume 3831.548946
_symmetry_space_group_name_H-M "C M C A"
_symmetry_group_IT_number 64
_symmetry_cell_setting 'orthorhombic'
loop_
_space_group_symop_operation_xyz
x,y,z
-x,1/2-y,1/2+z
x,-y,-z
-x,1/2+y,1/2-z
-x,-y,-z
x,1/2+y,1/2-z
-x,y,z
x,1/2-y,1/2+z
1/2+x,1/2+y,z
1/2-x,-y,1/2+z
1/2+x,1/2-y,-z
1/2-x,y,1/2-z
1/2-x,1/2-y,-z
1/2+x,y,1/2-z
1/2-x,1/2+y,z
1/2+x,-y,1/2+z
loop_
_atom_site_type_symbol
_atom_site_label
_atom_site_fract_x
_atom_site_fract_y
_atom_site_fract_z
Si Si1 0.131890 0.673438 0.795429
Si Si2 0.296410 0.126663 0.451870
Si Si3 0.709680 0.000000 0.000000
Si Si4 0.750000 0.254661 0.750000
Si Si5 0.607459 0.748892 0.948720
Si Si6 0.500000 0.980940 0.717673
Si Si7 0.000000 0.867499 0.035820
Si Si8 0.371223 0.019162 0.243632
O O1 0.197426 0.697651 0.787560
O O2 0.110252 0.677344 0.944846
O O3 0.105719 0.750757 0.708975
O O4 0.124852 0.581648 0.733684
O O5 0.255574 0.070576 0.540565
O O6 0.250534 0.179340 0.368392
O O7 0.336734 0.193123 0.521140
O O8 0.338815 0.070197 0.359380
O O9 0.669351 0.973097 0.881849
O O10 0.553860 0.691615 0.978551
O O11 0.500000 0.078783 0.670249
O O12 0.438279 0.958705 0.780080
O O13 0.500000 0.930798 0.583139
#
# Coordination Sequence:
#
# PCOD9481449 Si02
#       8
#    16  16   8   8  16   8   8  16
#     4  11  27  42  68 104 143 183 232 288 367 425
#     4  11  23  43  67 102 139 182 239 287 357 433
#     4  12  26  37  74 101 146 178 238 304 362 410
#     4  10  24  42  64  94 152 184 222 276 360 448
#     4  11  25  44  71 100 142 186 239 293 363 432
#     4  11  24  44  75 101 135 180 258 296 346 429
#     4  11  22  45  75  97 129 189 247 308 343 426
#     4  12  25  45  71 109 139 188 243 305 354 426
#
# _framework density 25.055140999999999
#
# number of rings (size 3 to 8) (size 9 to 14) (size 15 to 20)
#    0.000    0.833    5.000    1.000    7.000    3.000 
#    0.000    0.000    0.000    0.000    0.000    0.000 
#    0.000    0.000    0.000    0.000    0.000    0.000 
#
# Total GULP energy -268051.497931 kJ/mol
# GULP energy per Si atom -5584.406207 kJ/mol
# Density = 2.499811 g / cm^3
# Si number density = 25.055141 Si / 1000 Ang^3
#
#
#
# Elastic Constant Matrix: (Units=GPa)
#
#
# Indices 1 2 3 4 5 6 
#
# 1 155.0910 29.9364 18.1400 0.0000 0.0000 0.0000
# 2 29.9364 67.7094 15.0603 0.0000 0.0000 0.0000
# 3 18.1400 15.0603 73.4217 0.0000 0.0000 0.0000
# 4 0.0000 0.0000 0.0000 38.3115 0.0000 0.0000
# 5 0.0000 0.0000 0.0000 0.0000 28.9296 0.0000
# 6 0.0000 0.0000 0.0000 0.0000 0.0000 10.3922
#
#
#
# Elastic Compliance Matrix: (Units=1/GPa)
#
#
# Indices 1 2 3 4 5 6 
#
# 1 0.007144 -0.002898 -0.001171 0.000000 0.000000 0.000000
# 2 -0.002898 0.016651 -0.002699 0.000000 0.000000 0.000000
# 3 -0.001171 -0.002699 0.014463 0.000000 0.000000 0.000000
# 4 0.000000 0.000000 0.000000 0.026102 0.000000 0.000000
# 5 0.000000 0.000000 0.000000 0.000000 0.034567 0.000000
# 6 0.000000 0.000000 0.000000 0.000000 0.000000 0.096226
#
#
# Mechanical properties :
#
#
# Convention : Reuss Voigt Hill
#
# Bulk Modulus (GPa) = 40.45078 46.94394 43.69736
# Shear Modulus (GPa) = 23.04900 31.06569 27.05734
#
# Velocity S-wave (km/s) = 3.03633 3.52503 3.28977
# Velocity P-wave (km/s) = 5.33593 5.94514 5.64875
#
# Compressibility (1/GPa) = 0.02472140
#
# Stress axis : x y z
#
# Youngs Moduli (GPa) = 139.97396 60.05705 69.14267
#
# Poissons Ratio (x) = 0.17406 0.08094
# Poissons Ratio (y) = 0.40569 0.18664
# Poissons Ratio (z) = 0.16385 0.16212
#
# Static dielectric constant tensor:
#      x y z
#    x 1.950610 0.000000 0.000000 
#    y 0.000000 2.041910 0.000000 
#    z 0.000000 0.000000 2.134520 
# 
# From -- ./inp_files/18428.got.cif
#   From: 2010.05.17/outbox.cif.g08.bks.cpg/sg64_10_cif.got.tgz:18428.got - 2010.06.03 16:29:19.
