data_PCOD9481468
_publ_section_title
;
Structure prediction by ZEFSAII (Michael W. Deem and Ramdas Pophale) SiO2 
 PCOD9481468
Probable space group: C M C A
;
_chemical_formula_sum "Si O2"
_cell_formula_units_Z 72
_cell_length_a 26.851785
_cell_length_b 8.193498
_cell_length_c 14.454680
_cell_angle_alpha 90.000000
_cell_angle_beta 90.000000
_cell_angle_gamma 90.000000
_cell_volume 3180.174822
_symmetry_space_group_name_H-M "C M C A"
_symmetry_group_IT_number 64
_symmetry_cell_setting 'orthorhombic'
loop_
_space_group_symop_operation_xyz
x,y,z
-x,1/2-y,1/2+z
x,-y,-z
-x,1/2+y,1/2-z
-x,-y,-z
x,1/2+y,1/2-z
-x,y,z
x,1/2-y,1/2+z
1/2+x,1/2+y,z
1/2-x,-y,1/2+z
1/2+x,1/2-y,-z
1/2-x,y,1/2-z
1/2-x,1/2-y,-z
1/2+x,y,1/2-z
1/2-x,1/2+y,z
1/2+x,-y,1/2+z
loop_
_atom_site_type_symbol
_atom_site_label
_atom_site_fract_x
_atom_site_fract_y
_atom_site_fract_z
Si Si1 0.324983 0.412676 0.822477
Si Si2 0.500000 0.242237 0.695267
Si Si3 0.604029 0.737553 0.041583
Si Si4 0.500000 0.376698 0.892625
Si Si5 0.250000 0.663797 0.750000
Si Si6 0.896317 0.087442 0.356792
O O1 0.359203 0.388955 0.910386
O O2 0.288570 0.564226 0.812231
O O3 0.361451 0.407497 0.733035
O O4 0.285823 0.266161 0.815455
O O5 0.500000 0.249660 0.806629
O O6 0.500000 0.058750 0.652916
O O7 0.450830 0.342332 0.666630
O O8 0.548844 0.662729 0.047814
O O9 0.602741 0.903385 0.103940
O O10 0.620585 0.795786 0.940636
#
# Coordination Sequence:
#
# PCOD9481468 Si02
#       6
#    16   8  16   8   8  16
#     4  11  22  45  66  96 126 173 212 273 330 384
#     4  12  25  40  65 100 136 176 215 259 318 389
#     4  11  24  43  68  99 135 173 214 266 325 390
#     4  12  25  40  65 100 136 176 215 259 318 389
#     4  10  24  42  70  92 128 164 220 278 330 376
#     4  11  24  43  68  99 135 173 214 266 325 390
#
# _framework density 22.640263999999998
#
# number of rings (size 3 to 8) (size 9 to 14) (size 15 to 20)
#    0.000    0.889    4.444    2.667    3.111    3.556 
#    0.000    6.667    0.000    0.000    0.000    0.000 
#    0.000    0.000    0.000    0.000    0.000    0.000 
#
# Total GULP energy -201565.199229 kJ/mol
# GULP energy per Si atom -5599.033312 kJ/mol
# Density = 2.258873 g / cm^3
# Si number density = 22.640264 Si / 1000 Ang^3
#
#
#
# Elastic Constant Matrix: (Units=GPa)
#
#
# Indices 1 2 3 4 5 6 
#
# 1 141.5890 31.4931 31.9428 0.0000 0.0000 0.0000
# 2 31.4931 91.5006 19.0444 0.0000 0.0000 0.0000
# 3 31.9428 19.0444 107.3272 0.0000 0.0000 0.0000
# 4 0.0000 0.0000 0.0000 87.3834 0.0000 0.0000
# 5 0.0000 0.0000 0.0000 0.0000 -8.8076 0.0000
# 6 0.0000 0.0000 0.0000 0.0000 0.0000-1959.0085
#
#
#
# Elastic Compliance Matrix: (Units=1/GPa)
#
#
# Indices 1 2 3 4 5 6 
#
# 1 0.008031 -0.002354 -0.001973 0.000000 0.000000 0.000000
# 2 -0.002354 0.012038 -0.001436 0.000000 0.000000 0.000000
# 3 -0.001973 -0.001436 0.010159 0.000000 0.000000 0.000000
# 4 0.000000 0.000000 0.000000 0.011444 0.000000 0.000000
# 5 0.000000 0.000000 0.000000 0.000000 -0.113538 0.000000
# 6 0.000000 0.000000 0.000000 0.000000 0.000000 -0.000510
#
#
# Mechanical properties :
#
#
# Convention : Reuss Voigt Hill
#
# Bulk Modulus (GPa) = 53.46298 56.15303 54.80801
# Shear Modulus (GPa) = -91.54421 -358.89077 -225.21749
#
# Velocity S-wave (km/s) = -6.36569 -12.60408 -9.98461
# Velocity P-wave (km/s) = 5.51035 13.67337 10.42413
#
# Compressibility (1/GPa) = 0.01870453
#
# Stress axis : x y z
#
# Youngs Moduli (GPa) = 124.51383 83.07192 98.43378
#
# Poissons Ratio (x) = 0.19552 0.19417
# Poissons Ratio (y) = 0.29306 0.14130
# Poissons Ratio (z) = 0.24562 0.11925
#
# Static dielectric constant tensor:
#      x y z
#    x 1.769050 0.000000 0.000000 
#    y 0.000000 1.890690 0.000000 
#    z 0.000000 0.000000 1.772870 
# 
# From -- ./inp_files/19571.got.cif
#   From: 2010.05.17/outbox.cif.g08.bks.cpg/sg64_10_cif.got.tgz:19571.got - 2010.06.03 16:29:19.
