data_PCOD9481598
_publ_section_title
;
Structure prediction by ZEFSAII (Michael W. Deem and Ramdas Pophale) SiO2 
 PCOD9481598
Probable space group: C M C A
;
_chemical_formula_sum "Si O2"
_cell_formula_units_Z 56
_cell_length_a 16.647907
_cell_length_b 16.302847
_cell_length_c 8.782470
_cell_angle_alpha 90.000000
_cell_angle_beta 90.000000
_cell_angle_gamma 90.000000
_cell_volume 2383.635083
_symmetry_space_group_name_H-M "C M C A"
_symmetry_group_IT_number 64
_symmetry_cell_setting 'orthorhombic'
loop_
_space_group_symop_operation_xyz
x,y,z
-x,1/2-y,1/2+z
x,-y,-z
-x,1/2+y,1/2-z
-x,-y,-z
x,1/2+y,1/2-z
-x,y,z
x,1/2-y,1/2+z
1/2+x,1/2+y,z
1/2-x,-y,1/2+z
1/2+x,1/2-y,-z
1/2-x,y,1/2-z
1/2-x,1/2-y,-z
1/2+x,y,1/2-z
1/2-x,1/2+y,z
1/2+x,-y,1/2+z
loop_
_atom_site_type_symbol
_atom_site_label
_atom_site_fract_x
_atom_site_fract_y
_atom_site_fract_z
Si Si1 0.088300 0.954719 0.660785
Si Si2 0.808925 0.679348 0.558546
Si Si3 0.250000 0.538338 0.750000
Si Si4 0.091133 0.283002 0.726581
O O1 0.093523 0.856228 0.649417
O O2 0.000000 0.970911 0.735061
O O3 0.086683 0.000000 0.500000
O O4 0.168722 0.986491 0.740202
O O5 0.750000 0.750000 0.500000
O O6 0.762531 0.597143 0.603005
O O7 0.853394 0.710899 0.710771
O O8 0.874992 0.675349 0.425987
O O9 0.000000 0.255421 0.704865
#
# Coordination Sequence:
#
# PCOD9481598 Si02
#       4
#    16  16   8  16
#     4  10  25  45  68 100 137 181 224 273 346 413
#     4  12  24  44  66 104 133 176 233 275 345 405
#     4  12  26  40  74  98 138 176 222 294 334 408
#     4  11  25  45  70  98 139 180 228 286 338 412
#
# _framework density 23.493528000000001
#
# number of rings (size 3 to 8) (size 9 to 14) (size 15 to 20)
#    0.000    0.857    2.857    2.571    8.000    2.286 
#    0.000    2.857    0.000    0.000    0.000    0.000 
#    0.000    0.000    0.000    0.000    0.000    0.000 
#
# Total GULP energy -156666.587609 kJ/mol
# GULP energy per Si atom -5595.235272 kJ/mol
# Density = 2.344006 g / cm^3
# Si number density = 23.493528 Si / 1000 Ang^3
#
#
#
# Elastic Constant Matrix: (Units=GPa)
#
#
# Indices 1 2 3 4 5 6 
#
# 1 197.6697 41.8258 10.5473 0.0000 0.0000 0.0000
# 2 41.8258 54.1814 -12.0312 0.0000 0.0000 0.0000
# 3 10.5473 -12.0312 48.8025 0.0000 0.0000 0.0000
# 4 0.0000 0.0000 0.0000 27.0850 0.0000 0.0000
# 5 0.0000 0.0000 0.0000 0.0000 36.7066 0.0000
# 6 0.0000 0.0000 0.0000 0.0000 0.0000 38.7222
#
#
#
# Elastic Compliance Matrix: (Units=1/GPa)
#
#
# Indices 1 2 3 4 5 6 
#
# 1 0.006375 -0.005530 -0.002741 0.000000 0.000000 0.000000
# 2 -0.005530 0.024323 0.007191 0.000000 0.000000 0.000000
# 3 -0.002741 0.007191 0.022856 0.000000 0.000000 0.000000
# 4 0.000000 0.000000 0.000000 0.036921 0.000000 0.000000
# 5 0.000000 0.000000 0.000000 0.000000 0.027243 0.000000
# 6 0.000000 0.000000 0.000000 0.000000 0.000000 0.025825
#
#
# Mechanical properties :
#
#
# Convention : Reuss Voigt Hill
#
# Bulk Modulus (GPa) = 19.45759 42.37083 30.91421
# Shear Modulus (GPa) = 30.70607 37.85687 34.28147
#
# Velocity S-wave (km/s) = 3.61917 4.01855 3.82408
# Velocity P-wave (km/s) = 5.07588 6.29332 5.71710
#
# Compressibility (1/GPa) = 0.05139383
#
# Stress axis : x y z
#
# Youngs Moduli (GPa) = 156.85352 41.11417 43.75205
#
# Poissons Ratio (x) = 0.22737 0.11993
# Poissons Ratio (y) = 0.86744 -0.31464
# Poissons Ratio (z) = 0.42997 -0.29567
#
# Static dielectric constant tensor:
#      x y z
#    x 1.893660 0.000000 0.000000 
#    y 0.000000 1.851880 0.000000 
#    z 0.000000 0.000000 1.961310 
# 
# From -- ./inp_files/6376.got.cif
#   From: 2010.05.17/outbox.cif.g08.bks.cpg/sg64_4_cif.got.tgz:6376.got - 2010.06.03 16:29:19.
