data_PCOD9481400
_publ_section_title
;
Structure prediction by ZEFSAII (Michael W. Deem and Ramdas Pophale) SiO2 
 PCOD9481400
Probable space group: C M C A
;
_chemical_formula_sum "Si O2"
_cell_formula_units_Z 56
_cell_length_a 14.775414
_cell_length_b 20.224979
_cell_length_c 9.194664
_cell_angle_alpha 90.000000
_cell_angle_beta 90.000000
_cell_angle_gamma 90.000000
_cell_volume 2747.663858
_symmetry_space_group_name_H-M "C M C A"
_symmetry_group_IT_number 64
_symmetry_cell_setting 'orthorhombic'
loop_
_space_group_symop_operation_xyz
x,y,z
-x,1/2-y,1/2+z
x,-y,-z
-x,1/2+y,1/2-z
-x,-y,-z
x,1/2+y,1/2-z
-x,y,z
x,1/2-y,1/2+z
1/2+x,1/2+y,z
1/2-x,-y,1/2+z
1/2+x,1/2-y,-z
1/2-x,y,1/2-z
1/2-x,1/2-y,-z
1/2+x,y,1/2-z
1/2-x,1/2+y,z
1/2+x,-y,1/2+z
loop_
_atom_site_type_symbol
_atom_site_label
_atom_site_fract_x
_atom_site_fract_y
_atom_site_fract_z
Si Si1 0.500000 0.073223 0.571607
Si Si2 0.323763 0.161733 0.495883
Si Si3 0.187664 0.058207 0.384875
Si Si4 0.500000 0.020321 0.167290
Si Si5 0.250000 0.248072 0.250000
O O1 0.410691 0.115217 0.527427
O O2 0.500000 0.000000 0.500000
O O3 0.500000 0.047355 0.739071
O O4 0.233330 0.118396 0.468627
O O5 0.320370 0.204960 0.347372
O O6 0.305230 0.208069 0.634343
O O7 0.250000 0.040019 0.250000
O O8 0.089037 0.064226 0.314501
O O9 0.185928 0.000000 0.500000
O O10 0.500000 0.000000 0.000000
#
# Coordination Sequence:
#
# PCOD9481400 Si02
#       5
#     8  16  16   8   8
#     4  12  26  44  71 111 137 177 229 301 362 420
#     4  11  24  46  70  97 142 179 243 284 345 426
#     4  11  22  39  66  97 138 179 222 298 358 418
#     4  10  24  38  61 109 131 173 228 269 377 410
#     4  10  26  46  68  98 128 208 230 276 350 404
#
# _framework density 20.380952000000001
#
# number of rings (size 3 to 8) (size 9 to 14) (size 15 to 20)
#    0.000    1.143    1.429    4.286   10.000    1.143 
#    0.000    5.714    0.000    0.000    0.000    0.000 
#    0.000    0.000    0.000    0.000    0.000    0.000 
#
# Total GULP energy -156154.727337 kJ/mol
# GULP energy per Si atom -5576.954548 kJ/mol
# Density = 2.033456 g / cm^3
# Si number density = 20.380952 Si / 1000 Ang^3
#
#
#
# Elastic Constant Matrix: (Units=GPa)
#
#
# Indices 1 2 3 4 5 6 
#
# 1 181.5697 75.9925 52.2371 0.0000 0.0000 0.0000
# 2 75.9925 130.9083 71.9018 0.0000 0.0000 0.0000
# 3 52.2371 71.9018 157.9247 0.0000 0.0000 0.0000
# 4 0.0000 0.0000 0.0000 51.8070 0.0000 0.0000
# 5 0.0000 0.0000 0.0000 0.0000 22.5699 0.0000
# 6 0.0000 0.0000 0.0000 0.0000 0.0000 44.7697
#
#
#
# Elastic Compliance Matrix: (Units=1/GPa)
#
#
# Indices 1 2 3 4 5 6 
#
# 1 0.007325 -0.003895 -0.000649 0.000000 0.000000 0.000000
# 2 -0.003895 0.012258 -0.004292 0.000000 0.000000 0.000000
# 3 -0.000649 -0.004292 0.008501 0.000000 0.000000 0.000000
# 4 0.000000 0.000000 0.000000 0.019302 0.000000 0.000000
# 5 0.000000 0.000000 0.000000 0.000000 0.044307 0.000000
# 6 0.000000 0.000000 0.000000 0.000000 0.000000 0.022337
#
#
# Mechanical properties :
#
#
# Convention : Reuss Voigt Hill
#
# Bulk Modulus (GPa) = 96.06526 96.74061 96.40294
# Shear Modulus (GPa) = 36.98956 41.84742 39.41849
#
# Velocity S-wave (km/s) = 4.26480 4.53621 4.40259
# Velocity P-wave (km/s) = 8.45509 8.66057 8.55844
#
# Compressibility (1/GPa) = 0.01040959
#
# Stress axis : x y z
#
# Youngs Moduli (GPa) = 136.52533 81.58066 117.63072
#
# Poissons Ratio (x) = 0.31779 0.07637
# Poissons Ratio (y) = 0.53182 0.50492
# Poissons Ratio (z) = 0.08864 0.35018
#
# Static dielectric constant tensor:
#      x y z
#    x 3.154910 0.000000 0.000000 
#    y 0.000000 1.749720 0.000000 
#    z 0.000000 0.000000 1.787190 
# 
# From -- ./inp_files/5417.got.cif
#   From: 2010.05.17/outbox.cif.g08.bks.cpg/sg64_3_cif.got.tgz:5417.got - 2010.06.03 16:29:19.
