data_PCOD9481886
_publ_section_title
;
Structure prediction by ZEFSAII (Michael W. Deem and Ramdas Pophale) SiO2 
 PCOD9481886
Probable space group: C M C A
;
_chemical_formula_sum "Si O2"
_cell_formula_units_Z 80
_cell_length_a 19.889821
_cell_length_b 12.146460
_cell_length_c 14.867757
_cell_angle_alpha 90.000000
_cell_angle_beta 90.000000
_cell_angle_gamma 90.000000
_cell_volume 3591.915020
_symmetry_space_group_name_H-M "C M C A"
_symmetry_group_IT_number 64
_symmetry_cell_setting 'orthorhombic'
loop_
_space_group_symop_operation_xyz
x,y,z
-x,1/2-y,1/2+z
x,-y,-z
-x,1/2+y,1/2-z
-x,-y,-z
x,1/2+y,1/2-z
-x,y,z
x,1/2-y,1/2+z
1/2+x,1/2+y,z
1/2-x,-y,1/2+z
1/2+x,1/2-y,-z
1/2-x,y,1/2-z
1/2-x,1/2-y,-z
1/2+x,y,1/2-z
1/2-x,1/2+y,z
1/2+x,-y,1/2+z
loop_
_atom_site_type_symbol
_atom_site_label
_atom_site_fract_x
_atom_site_fract_y
_atom_site_fract_z
Si Si1 0.151485 0.060450 0.407551
Si Si2 0.697387 0.161537 0.425476
Si Si3 0.814321 0.135066 0.702794
Si Si4 0.928457 0.518049 0.392786
Si Si5 0.369994 0.292333 0.119023
O O1 0.230026 0.103728 0.412651
O O2 0.106753 0.169470 0.400311
O O3 0.138020 0.000000 0.500000
O O4 0.142968 0.968321 0.331158
O O5 0.696936 0.282657 0.380884
O O6 0.674561 0.172136 0.530888
O O7 0.638036 0.090489 0.378825
O O8 0.750000 0.079826 0.750000
O O9 0.834417 0.214290 0.784601
O O10 0.931661 0.500000 0.500000
O O11 0.919427 0.393012 0.361685
O O12 0.000000 0.566440 0.362491
#
# Coordination Sequence:
#
# PCOD9481886 Si02
#       5
#    16  16  16  16  16
#     4  12  23  38  59  89 130 161 194 251 313 366
#     4  11  22  40  59  89 126 156 205 251 299 367
#     4  12  24  35  57  90 127 165 198 240 310 376
#     4   9  20  40  66  86 112 160 209 249 294 355
#     4  11  23  39  60  88 121 161 202 253 302 361
#
# _framework density 22.272241999999999
#
# number of rings (size 3 to 8) (size 9 to 14) (size 15 to 20)
#    0.000    1.000    4.000    4.800    5.600    0.000 
#    0.000    1.000    0.000    1.800    0.000    0.000 
#    0.000    0.000    0.000    0.000    0.000    0.000 
#
# Total GULP energy -222901.524621 kJ/mol
# GULP energy per Si atom -5572.538116 kJ/mol
# Density = 2.222155 g / cm^3
# Si number density = 22.272242 Si / 1000 Ang^3
#
#
#
# Elastic Constant Matrix: (Units=GPa)
#
#
# Indices 1 2 3 4 5 6 
#
# 1 44.0741 13.0165 -0.9654 0.0000 0.0000 0.0000
# 2 13.0165 132.3661 22.4293 0.0000 0.0000 0.0000
# 3 -0.9654 22.4293 94.0387 0.0000 0.0000 0.0000
# 4 0.0000 0.0000 0.0000 45.4843 0.0000 0.0000
# 5 0.0000 0.0000 0.0000 0.0000 -10.0111 0.0000
# 6 0.0000 0.0000 0.0000 0.0000 0.0000 10.9066
#
#
#
# Elastic Compliance Matrix: (Units=1/GPa)
#
#
# Indices 1 2 3 4 5 6 
#
# 1 0.023429 -0.002443 0.000823 0.000000 0.000000 0.000000
# 2 -0.002443 0.008128 -0.001964 0.000000 0.000000 0.000000
# 3 0.000823 -0.001964 0.011111 0.000000 0.000000 0.000000
# 4 0.000000 0.000000 0.000000 0.021986 0.000000 0.000000
# 5 0.000000 0.000000 0.000000 0.000000 -0.099889 0.000000
# 6 0.000000 0.000000 0.000000 0.000000 0.000000 0.091688
#
#
# Mechanical properties :
#
#
# Convention : Reuss Voigt Hill
#
# Bulk Modulus (GPa) = 28.16926 37.71553 32.94239
# Shear Modulus (GPa) = 66.26723 25.00921 45.63822
#
# Velocity S-wave (km/s) = 5.46057 3.35459 4.53162
# Velocity P-wave (km/s) = 7.24102 5.65464 6.49643
#
# Compressibility (1/GPa) = 0.03549969
#
# Stress axis : x y z
#
# Youngs Moduli (GPa) = 42.68271 123.03419 90.00311
#
# Poissons Ratio (x) = 0.30062 -0.07410
# Poissons Ratio (y) = 0.10429 0.17674
# Poissons Ratio (z) = -0.03514 0.24160
#
# Static dielectric constant tensor:
#      x y z
#    x 1.933510 0.000000 0.000000 
#    y 0.000000 1.828620 0.000000 
#    z 0.000000 0.000000 1.849950 
# 
# From -- ./inp_files/27082.got.cif
#   From: 2010.05.17/outbox.cif.g08.bks.cpg/sg64_14_cif.got.tgz:27082.got - 2010.06.03 16:29:19.
