data_PCOD9481909
_publ_section_title
;
Structure prediction by ZEFSAII (Michael W. Deem and Ramdas Pophale) SiO2 
 PCOD9481909
Probable space group: C M C A
;
_chemical_formula_sum "Si O2"
_cell_formula_units_Z 88
_cell_length_a 9.982041
_cell_length_b 19.530802
_cell_length_c 22.828315
_cell_angle_alpha 90.000000
_cell_angle_beta 90.000000
_cell_angle_gamma 90.000000
_cell_volume 4450.545887
_symmetry_space_group_name_H-M "C M C A"
_symmetry_group_IT_number 64
_symmetry_cell_setting 'orthorhombic'
loop_
_space_group_symop_operation_xyz
x,y,z
-x,1/2-y,1/2+z
x,-y,-z
-x,1/2+y,1/2-z
-x,-y,-z
x,1/2+y,1/2-z
-x,y,z
x,1/2-y,1/2+z
1/2+x,1/2+y,z
1/2-x,-y,1/2+z
1/2+x,1/2-y,-z
1/2-x,y,1/2-z
1/2-x,1/2-y,-z
1/2+x,y,1/2-z
1/2-x,1/2+y,z
1/2+x,-y,1/2+z
loop_
_atom_site_type_symbol
_atom_site_label
_atom_site_fract_x
_atom_site_fract_y
_atom_site_fract_z
Si Si1 0.500000 0.670259 0.389088
Si Si2 0.715276 0.399677 0.422141
Si Si3 0.154607 0.834863 0.300338
Si Si4 0.500000 0.665932 0.096237
Si Si5 0.000000 0.922648 0.020336
Si Si6 0.269231 0.321216 0.814696
Si Si7 0.000000 0.305087 0.020001
Si Si8 0.500000 0.011712 0.069689
O O1 0.370981 0.684847 0.348906
O O2 0.500000 0.712387 0.450778
O O3 0.500000 0.589907 0.409041
O O4 0.709295 0.359730 0.361807
O O5 0.864307 0.409215 0.444301
O O6 0.628807 0.352866 0.466975
O O7 0.632948 0.470017 0.411726
O O8 0.250000 0.862639 0.250000
O O9 0.166822 0.752825 0.300353
O O10 0.000000 0.854514 0.293467
O O11 0.372861 0.649921 0.137478
O O12 0.500000 0.743408 0.067862
O O13 0.500000 0.621570 0.038250
O O14 0.000000 0.000000 0.000000
O O15 0.250000 0.354729 0.750000
O O16 0.500000 0.000000 0.000000
#
# Coordination Sequence:
#
# PCOD9481909 Si02
#       8
#     8  16  16   8   8  16   8   8
#     4  12  26  38  70  98 123 182 230 260 337 396
#     4  11  22  44  66  95 134 166 225 269 327 400
#     4  11  23  43  69  98 133 175 216 274 337 388
#     4  12  24  44  66  98 144 165 216 288 330 393
#     4  12  30  40  65 101 140 176 209 273 348 396
#     4  11  24  42  66  96 134 171 220 272 337 398
#     4  11  22  42  67 101 128 170 220 279 331 391
#     4  11  22  43  69  87 128 182 223 262 328 414
#
# _framework density 19.772855
#
# number of rings (size 3 to 8) (size 9 to 14) (size 15 to 20)
#    0.000    0.727    6.364    2.182   10.182    1.455 
#    0.000    0.909    4.000    0.000    0.000    0.000 
#    0.000    0.000    0.000    0.000    0.000    0.000 
#
# Total GULP energy -245717.982547 kJ/mol
# GULP energy per Si atom -5584.499603 kJ/mol
# Density = 1.972785 g / cm^3
# Si number density = 19.772855 Si / 1000 Ang^3
#
#
#
# Elastic Constant Matrix: (Units=GPa)
#
#
# Indices 1 2 3 4 5 6 
#
# 1 204.0328 11.3150 75.6994 0.0000 0.0000 0.0000
# 2 11.3150 44.4742 -4.2158 0.0000 0.0000 0.0000
# 3 75.6994 -4.2158 123.3984 0.0000 0.0000 0.0000
# 4 0.0000 0.0000 0.0000 13.1932 0.0000 0.0000
# 5 0.0000 0.0000 0.0000 0.0000 42.8891 0.0000
# 6 0.0000 0.0000 0.0000 0.0000 0.0000 -9.7507
#
#
#
# Elastic Compliance Matrix: (Units=1/GPa)
#
#
# Indices 1 2 3 4 5 6 
#
# 1 0.006526 -0.002046 -0.004073 0.000000 0.000000 0.000000
# 2 -0.002046 0.023200 0.002048 0.000000 0.000000 0.000000
# 3 -0.004073 0.002048 0.010673 0.000000 0.000000 0.000000
# 4 0.000000 0.000000 0.000000 0.075797 0.000000 0.000000
# 5 0.000000 0.000000 0.000000 0.000000 0.023316 0.000000
# 6 0.000000 0.000000 0.000000 0.000000 0.000000 -0.102556
#
#
# Mechanical properties :
#
#
# Convention : Reuss Voigt Hill
#
# Bulk Modulus (GPa) = 31.00310 59.72249 45.36280
# Shear Modulus (GPa) = 89.52628 28.54010 59.03319
#
# Velocity S-wave (km/s) = 6.73615 3.80333 5.46996
# Velocity P-wave (km/s) = 8.73009 7.03967 7.93005
#
# Compressibility (1/GPa) = 0.03225484
#
# Stress axis : x y z
#
# Youngs Moduli (GPa) = 153.23548 43.10392 93.69819
#
# Poissons Ratio (x) = 0.08821 0.38166
# Poissons Ratio (y) = 0.31358 -0.19189
# Poissons Ratio (z) = 0.62417 -0.08828
#
# Static dielectric constant tensor:
#      x y z
#    x 1.690080 0.000000 0.000000 
#    y 0.000000 1.769060 0.000000 
#    z 0.000000 0.000000 1.692620 
# 
# From -- ./inp_files/42905.got.cif
#   From: 2010.05.17/outbox.cif.g08.bks.cpg/sg64_22_cif.got.tgz:42905.got - 2010.06.03 16:29:19.
