data_PCOD9481094
_publ_section_title
;
Structure prediction by ZEFSAII (Michael W. Deem and Ramdas Pophale) SiO2 
 PCOD9481094
Probable space group: C M C A
;
_chemical_formula_sum "Si O2"
_cell_formula_units_Z 52
_cell_length_a 13.440563
_cell_length_b 20.232186
_cell_length_c 7.528735
_cell_angle_alpha 90.000000
_cell_angle_beta 90.000000
_cell_angle_gamma 90.000000
_cell_volume 2047.303744
_symmetry_space_group_name_H-M "C M C A"
_symmetry_group_IT_number 64
_symmetry_cell_setting 'orthorhombic'
loop_
_space_group_symop_operation_xyz
x,y,z
-x,1/2-y,1/2+z
x,-y,-z
-x,1/2+y,1/2-z
-x,-y,-z
x,1/2+y,1/2-z
-x,y,z
x,1/2-y,1/2+z
1/2+x,1/2+y,z
1/2-x,-y,1/2+z
1/2+x,1/2-y,-z
1/2-x,y,1/2-z
1/2-x,1/2-y,-z
1/2+x,y,1/2-z
1/2-x,1/2+y,z
1/2+x,-y,1/2+z
loop_
_atom_site_type_symbol
_atom_site_label
_atom_site_fract_x
_atom_site_fract_y
_atom_site_fract_z
Si Si1 0.000000 0.500000 0.000000
Si Si2 0.114570 0.818239 0.598889
Si Si3 0.360778 0.536693 0.815646
Si Si4 0.663373 0.332708 0.010073
O O1 0.917800 0.494773 0.155381
O O2 0.215485 0.842617 0.499058
O O3 0.130979 0.739183 0.580422
O O4 0.000000 0.836700 0.543677
O O5 0.127221 0.837223 0.805877
O O6 0.250000 0.531801 0.750000
O O7 0.382469 0.612642 0.863328
O O8 0.377043 0.500000 0.000000
#
# Coordination Sequence:
#
# PCOD9481094 Si02
#       4
#     4  16  16  16
#     4  12  30  56  92 112 160 232 282 340 446 490
#     4  10  22  43  73 114 159 220 269 341 435 509
#     4  12  29  57  81 122 165 216 287 358 419 512
#     4  10  25  45  71 115 163 210 284 350 411 512
#
# _framework density 25.399260999999999
#
# number of rings (size 3 to 8) (size 9 to 14) (size 15 to 20)
#    0.000    1.231    1.538    1.385   17.231    0.000 
#    8.308    0.000    0.000    0.000    0.000    0.000 
#    0.000    0.000    0.000    0.000    0.000    0.000 
#
# Total GULP energy -145182.252443 kJ/mol
# GULP energy per Si atom -5583.932786 kJ/mol
# Density = 2.534145 g / cm^3
# Si number density = 25.399261 Si / 1000 Ang^3
#
#
#
# Elastic Constant Matrix: (Units=GPa)
#
#
# Indices 1 2 3 4 5 6 
#
# 1 193.1673 2.2022 35.9255 0.0000 0.0000 0.0000
# 2 2.2022 21.6664 45.4330 0.0000 0.0000 0.0000
# 3 35.9255 45.4330 200.4681 0.0000 0.0000 0.0000
# 4 0.0000 0.0000 0.0000 -75.8743 0.0000 0.0000
# 5 0.0000 0.0000 0.0000 0.0000 -17.3598 0.0000
# 6 0.0000 0.0000 0.0000 0.0000 0.0000 -167.5274
#
#
#
# Elastic Compliance Matrix: (Units=1/GPa)
#
#
# Indices 1 2 3 4 5 6 
#
# 1 0.005446 0.002845 -0.001621 0.000000 0.000000 0.000000
# 2 0.002845 0.089439 -0.020780 0.000000 0.000000 0.000000
# 3 -0.001621 -0.020780 0.009988 0.000000 0.000000 0.000000
# 4 0.000000 0.000000 0.000000 -0.013180 0.000000 0.000000
# 5 0.000000 0.000000 0.000000 0.000000 -0.057604 0.000000
# 6 0.000000 0.000000 0.000000 0.000000 0.000000 -0.005969
#
#
# Mechanical properties :
#
#
# Convention : Reuss Voigt Hill
#
# Bulk Modulus (GPa) = 15.20634 64.71367 39.96000
# Shear Modulus (GPa) = 56.08428 -30.03623 13.02402
#
# Velocity S-wave (km/s) = 4.70415 -3.44257 2.26690
# Velocity P-wave (km/s) = 5.95863 3.11964 4.75591
#
# Compressibility (1/GPa) = 0.06576206
#
# Stress axis : x y z
#
# Youngs Moduli (GPa) = 183.62610 11.18079 100.11821
#
# Poissons Ratio (x) = -0.03181 0.16226
# Poissons Ratio (y) = -0.52242 2.08044
# Poissons Ratio (z) = 0.29761 0.23233
#
# Static dielectric constant tensor:
#      x y z
#    x 1.961050 0.000000 0.000000 
#    y 0.000000 2.685020 0.000000 
#    z 0.000000 0.000000 1.874510 
# 
# From -- ./inp_files/5466.got.cif
#   From: 2010.05.17/outbox.cif.g08.bks.cpg/sg64_3_cif.got.tgz:5466.got - 2010.06.03 16:29:19.
