data_PCOD9481916
_publ_section_title
;
Structure prediction by ZEFSAII (Michael W. Deem and Ramdas Pophale) SiO2 
 PCOD9481916
Probable space group: C M C A
;
_chemical_formula_sum "Si O2"
_cell_formula_units_Z 104
_cell_length_a 26.456571
_cell_length_b 9.069654
_cell_length_c 21.577045
_cell_angle_alpha 90.000000
_cell_angle_beta 90.000000
_cell_angle_gamma 90.000000
_cell_volume 5177.453915
_symmetry_space_group_name_H-M "C M C A"
_symmetry_group_IT_number 64
_symmetry_cell_setting 'orthorhombic'
loop_
_space_group_symop_operation_xyz
x,y,z
-x,1/2-y,1/2+z
x,-y,-z
-x,1/2+y,1/2-z
-x,-y,-z
x,1/2+y,1/2-z
-x,y,z
x,1/2-y,1/2+z
1/2+x,1/2+y,z
1/2-x,-y,1/2+z
1/2+x,1/2-y,-z
1/2-x,y,1/2-z
1/2-x,1/2-y,-z
1/2+x,y,1/2-z
1/2-x,1/2+y,z
1/2+x,-y,1/2+z
loop_
_atom_site_type_symbol
_atom_site_label
_atom_site_fract_x
_atom_site_fract_y
_atom_site_fract_z
Si Si1 0.500000 0.009162 0.819102
Si Si2 0.080589 0.218285 0.359538
Si Si3 0.296820 0.337963 0.470126
Si Si4 0.500000 0.550060 0.822612
Si Si5 0.589501 0.179649 0.998158
Si Si6 0.000000 0.775289 0.907048
Si Si7 0.314855 0.182094 0.210436
Si Si8 0.212847 0.847821 0.322557
O O1 0.450424 0.929957 0.845572
O O2 0.500000 0.985300 0.745939
O O3 0.500000 0.172384 0.845991
O O4 0.078710 0.237349 0.433082
O O5 0.135970 0.205920 0.330997
O O6 0.049228 0.347965 0.327973
O O7 0.294779 0.500000 0.500000
O O8 0.250000 0.250000 0.500000
O O9 0.352680 0.276866 0.484347
O O10 0.294738 0.346763 0.395890
O O11 0.500000 0.437807 0.879378
O O12 0.548935 0.238615 0.948972
O O13 0.586315 0.000000 0.000000
O O14 0.269693 0.288601 0.187793
O O15 0.321197 0.234207 0.281898
O O16 0.297449 0.012863 0.202397
#
# Coordination Sequence:
#
# PCOD9481916 Si02
#       8
#     8  16  16   8  16   8  16  16
#     4  11  24  45  69  97 126 178 226 275 334 410
#     4  11  24  45  68  96 137 172 220 281 342 396
#     4  11  24  43  67  99 137 176 230 281 334 407
#     4  11  28  44  63 102 141 162 222 293 341 400
#     4  11  22  42  72  96 128 182 225 276 331 414
#     4  12  23  44  72  99 129 178 235 275 344 417
#     4  11  24  43  71  98 139 180 223 279 340 406
#     4  11  23  43  66 101 137 179 228 276 334 405
#
# _framework density 20.087092999999999
#
# number of rings (size 3 to 8) (size 9 to 14) (size 15 to 20)
#    0.000    0.923    1.538    7.615    2.154    2.462 
#    8.308    0.000    0.000    0.000    0.000    0.000 
#    0.000    0.000    0.000    0.000    0.000    0.000 
#
# Total GULP energy -290608.554326 kJ/mol
# GULP energy per Si atom -5588.626045 kJ/mol
# Density = 2.004137 g / cm^3
# Si number density = 20.087093 Si / 1000 Ang^3
#
#
#
# Elastic Constant Matrix: (Units=GPa)
#
#
# Indices 1 2 3 4 5 6 
#
# 1 106.6396 36.5075 15.8956 0.0000 0.0000 0.0000
# 2 36.5075 83.2060 21.9235 0.0000 0.0000 0.0000
# 3 15.8956 21.9235 141.6514 0.0000 0.0000 0.0000
# 4 0.0000 0.0000 0.0000 25.4756 0.0000 0.0000
# 5 0.0000 0.0000 0.0000 0.0000 144.0665 0.0000
# 6 0.0000 0.0000 0.0000 0.0000 0.0000 53.9034
#
#
#
# Elastic Compliance Matrix: (Units=1/GPa)
#
#
# Indices 1 2 3 4 5 6 
#
# 1 0.011070 -0.004722 -0.000511 0.000000 0.000000 0.000000
# 2 -0.004722 0.014544 -0.001721 0.000000 0.000000 0.000000
# 3 -0.000511 -0.001721 0.007383 0.000000 0.000000 0.000000
# 4 0.000000 0.000000 0.000000 0.039253 0.000000 0.000000
# 5 0.000000 0.000000 0.000000 0.000000 0.006941 0.000000
# 6 0.000000 0.000000 0.000000 0.000000 0.000000 0.018552
#
#
# Mechanical properties :
#
#
# Convention : Reuss Voigt Hill
#
# Bulk Modulus (GPa) = 52.38960 53.35004 52.86982
# Shear Modulus (GPa) = 42.36711 61.83381 52.10046
#
# Velocity S-wave (km/s) = 4.59755 5.55425 5.09839
# Velocity P-wave (km/s) = 7.37029 8.23103 7.81253
#
# Compressibility (1/GPa) = 0.01908776
#
# Stress axis : x y z
#
# Youngs Moduli (GPa) = 90.33163 68.75752 135.44023
#
# Poissons Ratio (x) = 0.32471 0.06926
# Poissons Ratio (y) = 0.42659 0.23310
# Poissons Ratio (z) = 0.04619 0.11833
#
# Static dielectric constant tensor:
#      x y z
#    x 1.707520 0.000000 0.000000 
#    y 0.000000 1.694960 0.000000 
#    z 0.000000 0.000000 1.739350 
# 
# From -- ./inp_files/41914.got.cif
#   From: 2010.05.17/outbox.cif.g08.bks.cpg/sg64_21_cif.got.tgz:41914.got - 2010.06.03 16:29:19.
