data_PCOD9481593
_publ_section_title
;
Structure prediction by ZEFSAII (Michael W. Deem and Ramdas Pophale) SiO2 
 PCOD9481593
Probable space group: C M C A
;
_chemical_formula_sum "Si O2"
_cell_formula_units_Z 52
_cell_length_a 7.438854
_cell_length_b 10.013188
_cell_length_c 27.654775
_cell_angle_alpha 90.000000
_cell_angle_beta 90.000000
_cell_angle_gamma 90.000000
_cell_volume 2059.911369
_symmetry_space_group_name_H-M "C M C A"
_symmetry_group_IT_number 64
_symmetry_cell_setting 'orthorhombic'
loop_
_space_group_symop_operation_xyz
x,y,z
-x,1/2-y,1/2+z
x,-y,-z
-x,1/2+y,1/2-z
-x,-y,-z
x,1/2+y,1/2-z
-x,y,z
x,1/2-y,1/2+z
1/2+x,1/2+y,z
1/2-x,-y,1/2+z
1/2+x,1/2-y,-z
1/2-x,y,1/2-z
1/2-x,1/2-y,-z
1/2+x,y,1/2-z
1/2-x,1/2+y,z
1/2+x,-y,1/2+z
loop_
_atom_site_type_symbol
_atom_site_label
_atom_site_fract_x
_atom_site_fract_y
_atom_site_fract_z
Si Si1 0.286336 0.084342 0.194910
Si Si2 0.285461 0.663103 0.048303
Si Si3 0.000000 0.000000 0.500000
Si Si4 0.207228 0.835496 0.361383
O O1 0.500000 0.089814 0.188798
O O2 0.250000 0.045430 0.250000
O O3 0.212425 0.974052 0.157319
O O4 0.213456 0.230076 0.182601
O O5 0.500000 0.636118 0.051977
O O6 0.220360 0.752705 0.093179
O O7 0.158842 0.536988 0.039819
O O8 0.250000 0.750000 0.000000
O O9 0.000000 0.859896 0.373491
#
# Coordination Sequence:
#
# PCOD9481593 Si02
#       4
#    16  16   4  16
#     4  11  24  43  68  98 134 174 224 280 346 413
#     4  11  25  45  70 103 140 184 237 290 346 418
#     4  12  26  44  72  96 144 188 226 288 350 414
#     4  10  25  44  68 100 133 177 229 284 341 413
#
# _framework density 25.243805999999999
#
# number of rings (size 3 to 8) (size 9 to 14) (size 15 to 20)
#    0.000    1.231    1.538    2.308    6.462    4.923 
#    0.000    0.000    0.000    0.000    0.000    0.000 
#    0.000    0.000    0.000    0.000    0.000    0.000 
#
# Total GULP energy -145043.718868 kJ/mol
# GULP energy per Si atom -5578.604572 kJ/mol
# Density = 2.518635 g / cm^3
# Si number density = 25.243806 Si / 1000 Ang^3
#
#
#
# Elastic Constant Matrix: (Units=GPa)
#
#
# Indices 1 2 3 4 5 6 
#
# 1 159.1852 14.8500 5.5915 0.0000 0.0000 0.0000
# 2 14.8500 91.4657 4.7640 0.0000 0.0000 0.0000
# 3 5.5915 4.7640 102.2203 0.0000 0.0000 0.0000
# 4 0.0000 0.0000 0.0000 58.9367 0.0000 0.0000
# 5 0.0000 0.0000 0.0000 0.0000 33.1193 0.0000
# 6 0.0000 0.0000 0.0000 0.0000 0.0000 20.1576
#
#
#
# Elastic Compliance Matrix: (Units=1/GPa)
#
#
# Indices 1 2 3 4 5 6 
#
# 1 0.006388 -0.001021 -0.000302 0.000000 0.000000 0.000000
# 2 -0.001021 0.011123 -0.000463 0.000000 0.000000 0.000000
# 3 -0.000302 -0.000463 0.009821 0.000000 0.000000 0.000000
# 4 0.000000 0.000000 0.000000 0.016967 0.000000 0.000000
# 5 0.000000 0.000000 0.000000 0.000000 0.030194 0.000000
# 6 0.000000 0.000000 0.000000 0.000000 0.000000 0.049609
#
#
# Mechanical properties :
#
#
# Convention : Reuss Voigt Hill
#
# Bulk Modulus (GPa) = 42.08710 44.80915 43.44812
# Shear Modulus (GPa) = 36.87488 44.28709 40.58099
#
# Velocity S-wave (km/s) = 3.82612 4.19307 4.01379
# Velocity P-wave (km/s) = 6.01892 6.42118 6.22330
#
# Compressibility (1/GPa) = 0.02376025
#
# Stress axis : x y z
#
# Youngs Moduli (GPa) = 156.54657 89.90393 101.82407
#
# Poissons Ratio (x) = 0.09183 0.03073
# Poissons Ratio (y) = 0.15990 0.04710
# Poissons Ratio (z) = 0.04725 0.04158
#
# Static dielectric constant tensor:
#      x y z
#    x 1.945960 0.000000 0.000000 
#    y 0.000000 2.207520 0.000000 
#    z 0.000000 0.000000 2.022720 
# 
# From -- ./inp_files/47373.got.cif
#   From: 2010.05.17/outbox.cif.g08.bks.cpg/sg64_24_cif.got.tgz:47373.got - 2010.06.03 16:29:19.
