data_PCOD9481262
_publ_section_title
;
Structure prediction by ZEFSAII (Michael W. Deem and Ramdas Pophale) SiO2 
 PCOD9481262
Probable space group: C M C A
;
_chemical_formula_sum "Si O2"
_cell_formula_units_Z 80
_cell_length_a 8.366689
_cell_length_b 16.763733
_cell_length_c 25.721936
_cell_angle_alpha 90.000000
_cell_angle_beta 90.000000
_cell_angle_gamma 90.000000
_cell_volume 3607.680047
_symmetry_space_group_name_H-M "C M C A"
_symmetry_group_IT_number 64
_symmetry_cell_setting 'orthorhombic'
loop_
_space_group_symop_operation_xyz
x,y,z
-x,1/2-y,1/2+z
x,-y,-z
-x,1/2+y,1/2-z
-x,-y,-z
x,1/2+y,1/2-z
-x,y,z
x,1/2-y,1/2+z
1/2+x,1/2+y,z
1/2-x,-y,1/2+z
1/2+x,1/2-y,-z
1/2-x,y,1/2-z
1/2-x,1/2-y,-z
1/2+x,y,1/2-z
1/2-x,1/2+y,z
1/2+x,-y,1/2+z
loop_
_atom_site_type_symbol
_atom_site_label
_atom_site_fract_x
_atom_site_fract_y
_atom_site_fract_z
Si Si1 0.690172 0.434456 0.307244
Si Si2 0.682962 0.261187 0.160618
Si Si3 0.821482 0.908997 0.987354
Si Si4 0.182130 0.791338 0.448271
Si Si5 0.305365 0.409009 0.629960
O O1 0.500000 0.436890 0.309288
O O2 0.750000 0.455843 0.250000
O O3 0.738110 0.341961 0.317409
O O4 0.746338 0.505254 0.346355
O O5 0.500000 0.262103 0.178252
O O6 0.701216 0.274917 0.098921
O O7 0.743175 0.169023 0.164899
O O8 0.764320 0.897656 0.928081
O O9 0.000000 0.872923 0.994055
O O10 0.697840 0.880476 0.031191
O O11 0.838254 0.000000 0.000000
O O12 0.250000 0.750000 0.500000
O O13 0.000000 0.773651 0.433501
O O14 0.500000 0.407025 0.626903
#
# Coordination Sequence:
#
# PCOD9481262 Si02
#       5
#    16  16  16  16  16
#     4  11  25  46  69  96 127 166 213 270 332 390
#     4  11  23  42  67  97 131 171 216 268 324 388
#     4  11  23  37  58  90 127 169 215 261 313 378
#     4  12  23  37  59  90 128 170 211 258 311 375
#     4  10  23  42  65  92 126 168 213 263 321 384
#
# _framework density 22.174916
#
# number of rings (size 3 to 8) (size 9 to 14) (size 15 to 20)
#    0.000    1.000    2.000    4.800    0.000    8.000 
#    0.000    2.000    0.000    0.000    0.000    0.000 
#    0.000    0.000    0.000    0.000    0.000    0.000 
#
# Total GULP energy -223032.682898 kJ/mol
# GULP energy per Si atom -5575.817072 kJ/mol
# Density = 2.212444 g / cm^3
# Si number density = 22.174916 Si / 1000 Ang^3
#
#
#
# Elastic Constant Matrix: (Units=GPa)
#
#
# Indices 1 2 3 4 5 6 
#
# 1 48.7421 20.2528 -10.9781 0.0000 0.0000 0.0000
# 2 20.2528 123.6208 6.2259 0.0000 0.0000 0.0000
# 3 -10.9781 6.2259 46.9311 0.0000 0.0000 0.0000
# 4 0.0000 0.0000 0.0000 115.1541 0.0000 0.0000
# 5 0.0000 0.0000 0.0000 0.0000 27.7876 0.0000
# 6 0.0000 0.0000 0.0000 0.0000 0.0000 25.8498
#
#
#
# Elastic Compliance Matrix: (Units=1/GPa)
#
#
# Indices 1 2 3 4 5 6 
#
# 1 0.023621 -0.004176 0.006079 0.000000 0.000000 0.000000
# 2 -0.004176 0.008882 -0.002155 0.000000 0.000000 0.000000
# 3 0.006079 -0.002155 0.023016 0.000000 0.000000 0.000000
# 4 0.000000 0.000000 0.000000 0.008684 0.000000 0.000000
# 5 0.000000 0.000000 0.000000 0.000000 0.035987 0.000000
# 6 0.000000 0.000000 0.000000 0.000000 0.000000 0.038685
#
#
# Mechanical properties :
#
#
# Convention : Reuss Voigt Hill
#
# Bulk Modulus (GPa) = 18.17696 27.81057 22.99376
# Shear Modulus (GPa) = 31.70250 47.34453 39.52351
#
# Velocity S-wave (km/s) = 3.78518 4.62567 4.22637
# Velocity P-wave (km/s) = 5.22669 6.41076 5.84877
#
# Compressibility (1/GPa) = 0.05501471
#
# Stress axis : x y z
#
# Youngs Moduli (GPa) = 42.33611 112.58811 43.44845
#
# Poissons Ratio (x) = 0.47016 -0.26413
# Poissons Ratio (y) = 0.17679 0.09364
# Poissons Ratio (z) = -0.25737 0.24264
#
# Static dielectric constant tensor:
#      x y z
#    x 1.759310 0.000000 0.000000 
#    y 0.000000 1.888000 0.000000 
#    z 0.000000 0.000000 1.771530 
# 
# From -- ./inp_files/51742.got.cif
#   From: 2010.05.17/outbox.cif.g08.bks.cpg/sg64_26_cif.got.tgz:51742.got - 2010.06.03 16:29:19.
