data_PCOD9481330
_publ_section_title
;
Structure prediction by ZEFSAII (Michael W. Deem and Ramdas Pophale) SiO2 
 PCOD9481330
Probable space group: C M C A
;
_chemical_formula_sum "Si O2"
_cell_formula_units_Z 64
_cell_length_a 19.950542
_cell_length_b 10.225165
_cell_length_c 13.569235
_cell_angle_alpha 90.000000
_cell_angle_beta 90.000000
_cell_angle_gamma 90.000000
_cell_volume 2768.091154
_symmetry_space_group_name_H-M "C M C A"
_symmetry_group_IT_number 64
_symmetry_cell_setting 'orthorhombic'
loop_
_space_group_symop_operation_xyz
x,y,z
-x,1/2-y,1/2+z
x,-y,-z
-x,1/2+y,1/2-z
-x,-y,-z
x,1/2+y,1/2-z
-x,y,z
x,1/2-y,1/2+z
1/2+x,1/2+y,z
1/2-x,-y,1/2+z
1/2+x,1/2-y,-z
1/2-x,y,1/2-z
1/2-x,1/2-y,-z
1/2+x,y,1/2-z
1/2-x,1/2+y,z
1/2+x,-y,1/2+z
loop_
_atom_site_type_symbol
_atom_site_label
_atom_site_fract_x
_atom_site_fract_y
_atom_site_fract_z
Si Si1 0.210364 0.336463 0.146802
Si Si2 0.924104 0.968597 0.298492
Si Si3 0.925809 0.747088 0.633728
Si Si4 0.173859 0.862516 0.993343
O O1 0.250000 0.342963 0.250000
O O2 0.141873 0.417632 0.146473
O O3 0.260537 0.379988 0.060717
O O4 0.191768 0.188366 0.114516
O O5 0.920290 0.884588 0.198173
O O6 0.000000 0.940848 0.338440
O O7 0.918898 0.125762 0.296589
O O8 0.870486 0.744321 0.549757
O O9 0.000000 0.752436 0.589688
O O10 0.136587 0.000000 0.000000
#
# Coordination Sequence:
#
# PCOD9481330 Si02
#       4
#    16  16  16  16
#     4  11  25  44  69  98 142 180 228 285 353 412
#     4  10  23  43  72 100 135 186 232 281 345 408
#     4  10  23  45  71 105 142 183 236 284 343 415
#     4  11  27  42  67 108 137 181 235 285 343 413
#
# _framework density 23.120628
#
# number of rings (size 3 to 8) (size 9 to 14) (size 15 to 20)
#    0.000    1.500    2.500    0.000   10.500    2.500 
#    0.000    2.500    0.000    0.000    0.000    0.000 
#    0.000    0.000    0.000    0.000    0.000    0.000 
#
# Total GULP energy -178653.612653 kJ/mol
# GULP energy per Si atom -5582.925395 kJ/mol
# Density = 2.306800 g / cm^3
# Si number density = 23.120628 Si / 1000 Ang^3
#
#
#
# Elastic Constant Matrix: (Units=GPa)
#
#
# Indices 1 2 3 4 5 6 
#
# 1 162.4346 20.1330 57.2538 0.0000 0.0000 0.0000
# 2 20.1330 105.3066 35.8310 0.0000 0.0000 0.0000
# 3 57.2538 35.8310 62.6672 0.0000 0.0000 0.0000
# 4 0.0000 0.0000 0.0000 24.0792 0.0000 0.0000
# 5 0.0000 0.0000 0.0000 0.0000 5.0991 0.0000
# 6 0.0000 0.0000 0.0000 0.0000 0.0000 22.2792
#
#
#
# Elastic Compliance Matrix: (Units=1/GPa)
#
#
# Indices 1 2 3 4 5 6 
#
# 1 0.009238 0.001373 -0.009224 0.000000 0.000000 0.000000
# 2 0.001373 0.011994 -0.008112 0.000000 0.000000 0.000000
# 3 -0.009224 -0.008112 0.029023 0.000000 0.000000 0.000000
# 4 0.000000 0.000000 0.000000 0.041530 0.000000 0.000000
# 5 0.000000 0.000000 0.000000 0.000000 0.196112 0.000000
# 6 0.000000 0.000000 0.000000 0.000000 0.000000 0.044885
#
#
# Mechanical properties :
#
#
# Convention : Reuss Voigt Hill
#
# Bulk Modulus (GPa) = 54.56358 61.87155 58.21756
# Shear Modulus (GPa) = 13.48376 24.77088 19.12732
#
# Velocity S-wave (km/s) = 2.41756 3.27674 2.87937
# Velocity P-wave (km/s) = 5.60745 6.41361 6.02403
#
# Compressibility (1/GPa) = 0.01832724
#
# Stress axis : x y z
#
# Youngs Moduli (GPa) = 108.25409 83.37746 34.45576
#
# Poissons Ratio (x) = -0.11444 0.31783
# Poissons Ratio (y) = -0.14858 0.27949
# Poissons Ratio (z) = 0.99857 0.67632
#
# Static dielectric constant tensor:
#      x y z
#    x 1.889240 0.000000 0.000000 
#    y 0.000000 1.960990 0.000000 
#    z 0.000000 0.000000 1.825770 
# 
# From -- ./inp_files/17883.got.cif
#   From: 2010.05.17/outbox.cif.g08.bks.cpg/sg64_9_cif.got.tgz:17883.got - 2010.06.03 16:29:19.
