data_PCOD9481132
_publ_section_title
;
Structure prediction by ZEFSAII (Michael W. Deem and Ramdas Pophale) SiO2 
 PCOD9481132
Probable space group: C M C A
;
_chemical_formula_sum "Si O2"
_cell_formula_units_Z 72
_cell_length_a 10.460435
_cell_length_b 15.409098
_cell_length_c 23.078983
_cell_angle_alpha 90.000000
_cell_angle_beta 90.000000
_cell_angle_gamma 90.000000
_cell_volume 3720.005908
_symmetry_space_group_name_H-M "C M C A"
_symmetry_group_IT_number 64
_symmetry_cell_setting 'orthorhombic'
loop_
_space_group_symop_operation_xyz
x,y,z
-x,1/2-y,1/2+z
x,-y,-z
-x,1/2+y,1/2-z
-x,-y,-z
x,1/2+y,1/2-z
-x,y,z
x,1/2-y,1/2+z
1/2+x,1/2+y,z
1/2-x,-y,1/2+z
1/2+x,1/2-y,-z
1/2-x,y,1/2-z
1/2-x,1/2-y,-z
1/2+x,y,1/2-z
1/2-x,1/2+y,z
1/2+x,-y,1/2+z
loop_
_atom_site_type_symbol
_atom_site_label
_atom_site_fract_x
_atom_site_fract_y
_atom_site_fract_z
Si Si1 0.749085 0.536139 0.878334
Si Si2 0.500000 0.043879 0.063816
Si Si3 0.500000 0.577245 0.952581
Si Si4 0.246561 0.715741 0.820211
Si Si5 0.641443 0.887976 0.702168
Si Si6 0.500000 0.756508 0.896678
O O1 0.871310 0.490601 0.905909
O O2 0.636204 0.560172 0.922143
O O3 0.792282 0.623532 0.846076
O O4 0.677883 0.469715 0.835889
O O5 0.500000 0.148375 0.073845
O O6 0.500000 0.000000 0.000000
O O7 0.500000 0.683686 0.948121
O O8 0.500000 0.500000 0.000000
O O9 0.250000 0.705294 0.750000
O O10 0.153530 0.796998 0.831604
O O11 0.378859 0.741460 0.853203
O O12 0.500000 0.896609 0.727136
O O13 0.750000 0.883457 0.750000
#
# Coordination Sequence:
#
# PCOD9481132 Si02
#       6
#    16   8   8  16  16   8
#     4  11  23  43  65  93 134 165 222 273 325 394
#     4  12  26  45  64  97 129 171 220 286 343 375
#     4  10  22  46  68  90 122 177 225 274 322 390
#     4  10  23  39  65  96 133 171 211 259 334 404
#     4  11  24  40  63  96 132 173 213 258 328 403
#     4  10  22  45  66  95 135 170 217 286 324 391
#
# _framework density 19.354807999999998
#
# number of rings (size 3 to 8) (size 9 to 14) (size 15 to 20)
#    0.000    1.333    3.333    1.333    9.333    0.000 
#    4.000    3.333    0.000    0.000    0.000    0.000 
#    0.000    0.000    0.000    0.000    0.000    0.000 
#
# Total GULP energy -200473.089749 kJ/mol
# GULP energy per Si atom -5568.696937 kJ/mol
# Density = 1.931076 g / cm^3
# Si number density = 19.354808 Si / 1000 Ang^3
#
#
#
# Elastic Constant Matrix: (Units=GPa)
#
#
# Indices 1 2 3 4 5 6 
#
# 1 134.1549 45.4210 19.1880 0.0000 0.0000 0.0000
# 2 45.4210 188.6064 52.4575 0.0000 0.0000 0.0000
# 3 19.1880 52.4575 54.9463 0.0000 0.0000 0.0000
# 4 0.0000 0.0000 0.0000 21.9473 0.0000 0.0000
# 5 0.0000 0.0000 0.0000 0.0000 37.7117 0.0000
# 6 0.0000 0.0000 0.0000 0.0000 0.0000 28.8605
#
#
#
# Elastic Compliance Matrix: (Units=1/GPa)
#
#
# Indices 1 2 3 4 5 6 
#
# 1 0.008187 -0.001602 -0.001330 0.000000 0.000000 0.000000
# 2 -0.001602 0.007532 -0.006632 0.000000 0.000000 0.000000
# 3 -0.001330 -0.006632 0.024995 0.000000 0.000000 0.000000
# 4 0.000000 0.000000 0.000000 0.045564 0.000000 0.000000
# 5 0.000000 0.000000 0.000000 0.000000 0.026517 0.000000
# 6 0.000000 0.000000 0.000000 0.000000 0.000000 0.034649
#
#
# Mechanical properties :
#
#
# Convention : Reuss Voigt Hill
#
# Bulk Modulus (GPa) = 46.32244 67.98230 57.15237
# Shear Modulus (GPa) = 28.77424 35.07998 31.92711
#
# Velocity S-wave (km/s) = 3.85992 4.26193 4.06590
# Velocity P-wave (km/s) = 6.62198 7.70839 7.18574
#
# Compressibility (1/GPa) = 0.02158781
#
# Stress axis : x y z
#
# Youngs Moduli (GPa) = 122.15173 132.76187 40.00741
#
# Poissons Ratio (x) = 0.21264 0.05320
# Poissons Ratio (y) = 0.19565 0.26532
# Poissons Ratio (z) = 0.16243 0.88045
#
# Static dielectric constant tensor:
#      x y z
#    x 1.647470 0.000000 0.000000 
#    y 0.000000 1.751090 0.000000 
#    z 0.000000 0.000000 1.768070 
# 
# From -- ./inp_files/47641.got.cif
#   From: 2010.05.17/outbox.cif.g08.bks.cpg/sg64_24_cif.got.tgz:47641.got - 2010.06.03 16:29:19.
