data_PCOD9481574
_publ_section_title
;
Structure prediction by ZEFSAII (Michael W. Deem and Ramdas Pophale) SiO2 
 PCOD9481574
Probable space group: C M C A
;
_chemical_formula_sum "Si O2"
_cell_formula_units_Z 40
_cell_length_a 7.702591
_cell_length_b 16.305018
_cell_length_c 11.776349
_cell_angle_alpha 90.000000
_cell_angle_beta 90.000000
_cell_angle_gamma 90.000000
_cell_volume 1479.002092
_symmetry_space_group_name_H-M "C M C A"
_symmetry_group_IT_number 64
_symmetry_cell_setting 'orthorhombic'
loop_
_space_group_symop_operation_xyz
x,y,z
-x,1/2-y,1/2+z
x,-y,-z
-x,1/2+y,1/2-z
-x,-y,-z
x,1/2+y,1/2-z
-x,y,z
x,1/2-y,1/2+z
1/2+x,1/2+y,z
1/2-x,-y,1/2+z
1/2+x,1/2-y,-z
1/2-x,y,1/2-z
1/2-x,1/2-y,-z
1/2+x,y,1/2-z
1/2-x,1/2+y,z
1/2+x,-y,1/2+z
loop_
_atom_site_type_symbol
_atom_site_label
_atom_site_fract_x
_atom_site_fract_y
_atom_site_fract_z
Si Si1 0.000000 0.940550 0.347675
Si Si2 0.000000 0.679820 0.069485
Si Si3 0.000000 0.627682 0.593928
Si Si4 0.799796 0.925371 0.888703
O O1 0.837500 0.003907 0.356676
O O2 0.000000 0.873014 0.450627
O O3 0.000000 0.892946 0.226702
O O4 0.822389 0.653601 0.132636
O O5 0.000000 0.777089 0.063088
O O6 0.845850 0.587045 0.521803
O O7 0.000000 0.929904 0.843518
#
# Coordination Sequence:
#
# PCOD9481574 Si02
#       4
#     8   8   8  16
#     4  11  24  47  79 121 173 222 274 344 421 503
#     4  11  22  45  80 122 173 210 270 357 419 509
#     4  10  24  48  78 127 168 220 280 341 427 508
#     4   9  22  46  79 119 171 215 275 351 411 519
#
# _framework density 27.045262000000001
#
# number of rings (size 3 to 8) (size 9 to 14) (size 15 to 20)
#    1.200    0.800    0.000    3.600    0.000    4.800 
#    7.200    4.000    0.000   14.400    0.000    0.000 
#    0.000    0.000    0.000    0.000    0.000    0.000 
#
# Total GULP energy -111427.162205 kJ/mol
# GULP energy per Si atom -5571.358110 kJ/mol
# Density = 2.698371 g / cm^3
# Si number density = 27.045262 Si / 1000 Ang^3
#
#
#
# Elastic Constant Matrix: (Units=GPa)
#
#
# Indices 1 2 3 4 5 6 
#
# 1 294.2142 103.6429 93.0288 0.0000 0.0000 0.0000
# 2 103.6429 229.6015 101.0260 0.0000 0.0000 0.0000
# 3 93.0288 101.0260 218.3440 0.0000 0.0000 0.0000
# 4 0.0000 0.0000 0.0000 17.0591 0.0000 0.0000
# 5 0.0000 0.0000 0.0000 0.0000 139.1030 0.0000
# 6 0.0000 0.0000 0.0000 0.0000 0.0000 67.5990
#
#
#
# Elastic Compliance Matrix: (Units=1/GPa)
#
#
# Indices 1 2 3 4 5 6 
#
# 1 0.004264 -0.001413 -0.001163 0.000000 0.000000 0.000000
# 2 -0.001413 0.005937 -0.002145 0.000000 0.000000 0.000000
# 3 -0.001163 -0.002145 0.006068 0.000000 0.000000 0.000000
# 4 0.000000 0.000000 0.000000 0.058620 0.000000 0.000000
# 5 0.000000 0.000000 0.000000 0.000000 0.007189 0.000000
# 6 0.000000 0.000000 0.000000 0.000000 0.000000 0.014793
#
#
# Mechanical properties :
#
#
# Convention : Reuss Voigt Hill
#
# Bulk Modulus (GPa) = 146.47610 148.61724 147.54667
# Shear Modulus (GPa) = 46.04504 74.38301 60.21403
#
# Velocity S-wave (km/s) = 4.13063 5.25003 4.72361
# Velocity P-wave (km/s) = 8.77649 9.58233 9.18825
#
# Compressibility (1/GPa) = 0.00682705
#
# Stress axis : x y z
#
# Youngs Moduli (GPa) = 234.49519 168.43269 164.80187
#
# Poissons Ratio (x) = 0.23804 0.19167
# Poissons Ratio (y) = 0.33140 0.35348
# Poissons Ratio (z) = 0.27273 0.36127
#
# Static dielectric constant tensor:
#      x y z
#    x 2.189000 0.000000 0.000000 
#    y 0.000000 2.056990 0.000000 
#    z 0.000000 0.000000 2.276500 
# 
# From -- ./inp_files/28876.got.cif
#   From: 2010.05.17/outbox.cif.g08.bks.cpg/sg64_15_cif.got.tgz:28876.got - 2010.06.03 16:29:19.
