data_PCOD9481608
_publ_section_title
;
Structure prediction by ZEFSAII (Michael W. Deem and Ramdas Pophale) SiO2 
 PCOD9481608
Probable space group: C M C A
;
_chemical_formula_sum "Si O2"
_cell_formula_units_Z 40
_cell_length_a 10.302581
_cell_length_b 31.953365
_cell_length_c 5.212142
_cell_angle_alpha 90.000000
_cell_angle_beta 90.000000
_cell_angle_gamma 90.000000
_cell_volume 1715.848254
_symmetry_space_group_name_H-M "C M C A"
_symmetry_group_IT_number 64
_symmetry_cell_setting 'orthorhombic'
loop_
_space_group_symop_operation_xyz
x,y,z
-x,1/2-y,1/2+z
x,-y,-z
-x,1/2+y,1/2-z
-x,-y,-z
x,1/2+y,1/2-z
-x,y,z
x,1/2-y,1/2+z
1/2+x,1/2+y,z
1/2-x,-y,1/2+z
1/2+x,1/2-y,-z
1/2-x,y,1/2-z
1/2-x,1/2-y,-z
1/2+x,y,1/2-z
1/2-x,1/2+y,z
1/2+x,-y,1/2+z
loop_
_atom_site_type_symbol
_atom_site_label
_atom_site_fract_x
_atom_site_fract_y
_atom_site_fract_z
Si Si1 0.750000 0.087980 0.250000
Si Si2 0.500000 0.029210 0.254929
Si Si3 0.500000 0.277678 0.771260
Si Si4 0.851964 0.663758 0.942636
O O1 0.625779 0.058596 0.275976
O O2 0.788686 0.120002 0.475892
O O3 0.500000 0.000000 0.500000
O O4 0.500000 0.000000 0.000000
O O5 0.500000 0.258246 0.051125
O O6 0.617892 0.307920 0.691655
O O7 0.750000 0.684505 0.750000
O O8 0.000000 0.657287 0.835176
#
# Coordination Sequence:
#
# PCOD9481608 Si02
#       4
#     8   8   8  16
#     4  12  26  48  74 104 156 184 254 296 362 464
#     4  12  29  49  76 112 146 194 238 304 379 436
#     4  10  25  47  70 108 150 193 254 317 367 434
#     4  10  26  44  74 105 143 204 250 298 381 432
#
# _framework density 23.312085
#
# number of rings (size 3 to 8) (size 9 to 14) (size 15 to 20)
#    1.200    0.000    2.000    1.200   14.000    1.600 
#    0.000    0.000    0.000    0.000    0.000    0.000 
#    0.000    0.000    0.000    0.000    0.000    0.000 
#
# Total GULP energy -111731.458918 kJ/mol
# GULP energy per Si atom -5586.572946 kJ/mol
# Density = 2.325903 g / cm^3
# Si number density = 23.312085 Si / 1000 Ang^3
#
#
#
# Elastic Constant Matrix: (Units=GPa)
#
#
# Indices 1 2 3 4 5 6 
#
# 1 221.6301 62.4945 40.2585 0.0000 0.0000 0.0000
# 2 62.4945 143.7569 46.7752 0.0000 0.0000 0.0000
# 3 40.2585 46.7752 101.2778 0.0000 0.0000 0.0000
# 4 0.0000 0.0000 0.0000 9.4993 0.0000 0.0000
# 5 0.0000 0.0000 0.0000 0.0000 37.2974 0.0000
# 6 0.0000 0.0000 0.0000 0.0000 0.0000 597.9467
#
#
#
# Elastic Compliance Matrix: (Units=1/GPa)
#
#
# Indices 1 2 3 4 5 6 
#
# 1 0.005267 -0.001893 -0.001219 0.000000 0.000000 0.000000
# 2 -0.001893 0.008867 -0.003343 0.000000 0.000000 0.000000
# 3 -0.001219 -0.003343 0.011902 0.000000 0.000000 0.000000
# 4 0.000000 0.000000 0.000000 0.105271 0.000000 0.000000
# 5 0.000000 0.000000 0.000000 0.000000 0.026811 0.000000
# 6 0.000000 0.000000 0.000000 0.000000 0.000000 0.001672
#
#
# Mechanical properties :
#
#
# Convention : Reuss Voigt Hill
#
# Bulk Modulus (GPa) = 76.18374 85.08011 80.63193
# Shear Modulus (GPa) = 28.23624 150.09112 89.16368
#
# Velocity S-wave (km/s) = 3.48405 8.03263 6.19119
# Velocity P-wave (km/s) = 6.99540 11.07277 9.26126
#
# Compressibility (1/GPa) = 0.01312616
#
# Stress axis : x y z
#
# Youngs Moduli (GPa) = 189.84942 112.78097 84.01685
#
# Poissons Ratio (x) = 0.21350 0.10246
# Poissons Ratio (y) = 0.35939 0.28084
# Poissons Ratio (z) = 0.23152 0.37698
#
# Static dielectric constant tensor:
#      x y z
#    x 1.926330 0.000000 0.000000 
#    y 0.000000 1.835130 0.000000 
#    z 0.000000 0.000000 1.934990 
# 
# From -- ./inp_files/393.got.cif
#   From: 2010.05.17/outbox.cif.g08.bks.cpg/sg64_1_cif.got.tgz:393.got - 2010.06.03 16:29:19.
