data_PCOD9481027
_publ_section_title
;
Structure prediction by ZEFSAII (Michael W. Deem and Ramdas Pophale) SiO2 
 PCOD9481027
Probable space group: C M C A
;
_chemical_formula_sum "Si O2"
_cell_formula_units_Z 96
_cell_length_a 18.502895
_cell_length_b 30.109732
_cell_length_c 8.780652
_cell_angle_alpha 90.000000
_cell_angle_beta 90.000000
_cell_angle_gamma 90.000000
_cell_volume 4891.852341
_symmetry_space_group_name_H-M "C M C A"
_symmetry_group_IT_number 64
_symmetry_cell_setting 'orthorhombic'
loop_
_space_group_symop_operation_xyz
x,y,z
-x,1/2-y,1/2+z
x,-y,-z
-x,1/2+y,1/2-z
-x,-y,-z
x,1/2+y,1/2-z
-x,y,z
x,1/2-y,1/2+z
1/2+x,1/2+y,z
1/2-x,-y,1/2+z
1/2+x,1/2-y,-z
1/2-x,y,1/2-z
1/2-x,1/2-y,-z
1/2+x,y,1/2-z
1/2-x,1/2+y,z
1/2+x,-y,1/2+z
loop_
_atom_site_type_symbol
_atom_site_label
_atom_site_fract_x
_atom_site_fract_y
_atom_site_fract_z
Si Si1 0.918858 0.529614 0.649834
Si Si2 0.685263 0.028967 0.138226
Si Si3 0.914811 0.207062 0.024763
Si Si4 0.158744 0.120828 0.887617
Si Si5 0.821426 0.118181 0.523230
Si Si6 0.086318 0.301749 0.886717
O O1 0.922397 0.500000 0.500000
O O2 0.869897 0.503200 0.771997
O O3 0.886591 0.576081 0.591125
O O4 0.000000 0.536481 0.711334
O O5 0.750000 0.041424 0.250000
O O6 0.653239 0.073181 0.061088
O O7 0.717169 0.000000 0.000000
O O8 0.877935 0.166157 0.940357
O O9 0.891666 0.255370 0.965294
O O10 0.000000 0.204269 0.992684
O O11 0.904483 0.203037 0.205569
O O12 0.166344 0.120457 0.704521
O O13 0.234122 0.118262 0.979378
O O14 0.863406 0.159019 0.448241
O O15 0.000000 0.309636 0.917274
#
# Coordination Sequence:
#
# PCOD9481027 Si02
#       6
#    16  16  16  16  16  16
#     4  11  25  43  65  94 130 171 218 271 324 386
#     4  12  24  43  67  93 130 175 219 266 327 386
#     4  10  22  42  69  94 130 171 211 265 326 386
#     4  11  23  44  63  94 128 169 221 260 328 383
#     4  11  25  40  65  94 129 171 213 270 319 385
#     4  10  23  42  65  97 127 167 214 262 325 389
#
# _framework density 19.624468
#
# number of rings (size 3 to 8) (size 9 to 14) (size 15 to 20)
#    0.000    1.167    1.667    4.000    4.667    4.333 
#    0.000    0.000    0.000    0.000    0.000    0.000 
#    0.000    0.000    0.000    0.000    0.000    0.000 
#
# Total GULP energy -268100.360118 kJ/mol
# GULP energy per Si atom -5585.424169 kJ/mol
# Density = 1.957980 g / cm^3
# Si number density = 19.624468 Si / 1000 Ang^3
#
#
#
# Elastic Constant Matrix: (Units=GPa)
#
#
# Indices 1 2 3 4 5 6 
#
# 1 77.1849 62.5275 34.3674 0.0000 0.0000 0.0000
# 2 62.5275 176.1528 44.0674 0.0000 0.0000 0.0000
# 3 34.3674 44.0674 62.7328 0.0000 0.0000 0.0000
# 4 0.0000 0.0000 0.0000 44.9713 0.0000 0.0000
# 5 0.0000 0.0000 0.0000 0.0000 20.9878 0.0000
# 6 0.0000 0.0000 0.0000 0.0000 0.0000 35.7250
#
#
#
# Elastic Compliance Matrix: (Units=1/GPa)
#
#
# Indices 1 2 3 4 5 6 
#
# 1 0.020743 -0.005484 -0.007512 0.000000 0.000000 0.000000
# 2 -0.005484 0.008337 -0.002852 0.000000 0.000000 0.000000
# 3 -0.007512 -0.002852 0.022059 0.000000 0.000000 0.000000
# 4 0.000000 0.000000 0.000000 0.022236 0.000000 0.000000
# 5 0.000000 0.000000 0.000000 0.000000 0.047647 0.000000
# 6 0.000000 0.000000 0.000000 0.000000 0.000000 0.027992
#
#
# Mechanical properties :
#
#
# Convention : Reuss Voigt Hill
#
# Bulk Modulus (GPa) = 51.42959 66.44390 58.93674
# Shear Modulus (GPa) = 26.71077 32.01069 29.36073
#
# Velocity S-wave (km/s) = 3.69330 4.04315 3.87218
# Velocity P-wave (km/s) = 6.66717 7.46507 7.07737
#
# Compressibility (1/GPa) = 0.01944406
#
# Stress axis : x y z
#
# Youngs Moduli (GPa) = 48.20910 119.94809 45.33230
#
# Poissons Ratio (x) = 0.65777 0.34052
# Poissons Ratio (y) = 0.26437 0.12929
# Poissons Ratio (z) = 0.36213 0.34211
#
# Static dielectric constant tensor:
#      x y z
#    x 1.714540 0.000000 0.000000 
#    y 0.000000 1.673350 0.000000 
#    z 0.000000 0.000000 1.690370 
# 
# From -- ./inp_files/8439.got.cif
#   From: 2010.05.17/outbox.cif.g08.bks.cpg/sg64_5_cif.got.tgz:8439.got - 2010.06.03 16:29:19.
