data_PCOD9481653
_publ_section_title
;
Structure prediction by ZEFSAII (Michael W. Deem and Ramdas Pophale) SiO2 
 PCOD9481653
Probable space group: C M C A
;
_chemical_formula_sum "Si O2"
_cell_formula_units_Z 112
_cell_length_a 22.680521
_cell_length_b 18.973517
_cell_length_c 15.149957
_cell_angle_alpha 90.000000
_cell_angle_beta 90.000000
_cell_angle_gamma 90.000000
_cell_volume 6519.469645
_symmetry_space_group_name_H-M "C M C A"
_symmetry_group_IT_number 64
_symmetry_cell_setting 'orthorhombic'
loop_
_space_group_symop_operation_xyz
x,y,z
-x,1/2-y,1/2+z
x,-y,-z
-x,1/2+y,1/2-z
-x,-y,-z
x,1/2+y,1/2-z
-x,y,z
x,1/2-y,1/2+z
1/2+x,1/2+y,z
1/2-x,-y,1/2+z
1/2+x,1/2-y,-z
1/2-x,y,1/2-z
1/2-x,1/2-y,-z
1/2+x,y,1/2-z
1/2-x,1/2+y,z
1/2+x,-y,1/2+z
loop_
_atom_site_type_symbol
_atom_site_label
_atom_site_fract_x
_atom_site_fract_y
_atom_site_fract_z
Si Si1 0.244771 0.168262 0.148088
Si Si2 0.306344 0.977105 0.600225
Si Si3 0.067962 0.709388 0.465425
Si Si4 0.645841 0.288398 0.333022
Si Si5 0.743367 0.385051 0.351786
Si Si6 0.341908 0.777965 0.375849
Si Si7 0.434388 0.045476 0.409632
O O1 0.250000 0.146730 0.250000
O O2 0.222705 0.099421 0.099698
O O3 0.195547 0.229108 0.146790
O O4 0.305364 0.204984 0.119135
O O5 0.373262 0.976012 0.639052
O O6 0.313840 0.000000 0.500000
O O7 0.262248 0.034358 0.641230
O O8 0.090640 0.761582 0.388693
O O9 0.107182 0.718845 0.552597
O O10 0.073050 0.628055 0.433183
O O11 0.000000 0.722425 0.485549
O O12 0.676871 0.359678 0.370124
O O13 0.637480 0.289106 0.226419
O O14 0.750000 0.362383 0.250000
O O15 0.793777 0.338602 0.398722
O O16 0.500000 0.036437 0.367716
O O17 0.436701 0.000000 0.500000
#
# Coordination Sequence:
#
# PCOD9481653 Si02
#       7
#    16  16  16  16  16  16  16
#     4   9  18  32  49  72 103 134 161 208 265 302
#     4  11  19  27  48  79 102 132 169 205 251 311
#     4  11  21  33  54  77 100 141 177 206 252 303
#     4   9  19  35  51  74 105 133 166 215 258 299
#     4   9  19  33  50  74 103 135 166 210 262 305
#     4   9  19  34  52  73 103 134 167 212 261 300
#     4   9  18  31  45  70 107 136 166 204 248 304
#
# _framework density 17.179310999999998
#
# number of rings (size 3 to 8) (size 9 to 14) (size 15 to 20)
#    0.000    2.429    1.429    3.857    2.000    1.714 
#    0.000    0.000    0.000    0.857    0.000    2.000 
#    0.000    0.000    0.000    0.000    0.000    0.000 
#
# Total GULP energy -311813.008457 kJ/mol
# GULP energy per Si atom -5568.089437 kJ/mol
# Density = 1.714021 g / cm^3
# Si number density = 17.179311 Si / 1000 Ang^3
#
#
#
# Elastic Constant Matrix: (Units=GPa)
#
#
# Indices 1 2 3 4 5 6 
#
# 1 54.6675 18.5698 12.9282 0.0000 0.0000 0.0000
# 2 18.5698 65.0824 12.5092 0.0000 0.0000 0.0000
# 3 12.9282 12.5092 21.7971 0.0000 0.0000 0.0000
# 4 0.0000 0.0000 0.0000 14.4412 0.0000 0.0000
# 5 0.0000 0.0000 0.0000 0.0000 -3.4935 0.0000
# 6 0.0000 0.0000 0.0000 0.0000 0.0000 18.2472
#
#
#
# Elastic Compliance Matrix: (Units=1/GPa)
#
#
# Indices 1 2 3 4 5 6 
#
# 1 0.022295 -0.004293 -0.010760 0.000000 0.000000 0.000000
# 2 -0.004293 0.018097 -0.007839 0.000000 0.000000 0.000000
# 3 -0.010760 -0.007839 0.056758 0.000000 0.000000 0.000000
# 4 0.000000 0.000000 0.000000 0.069246 0.000000 0.000000
# 5 0.000000 0.000000 0.000000 0.000000 -0.286249 0.000000
# 6 0.000000 0.000000 0.000000 0.000000 0.000000 0.054803
#
#
# Mechanical properties :
#
#
# Convention : Reuss Voigt Hill
#
# Bulk Modulus (GPa) = 19.46816 25.50680 22.48748
# Shear Modulus (GPa) = -2333.85991 12.34165 -1160.75913
#
# Velocity S-wave (km/s) = -36.89822 2.68321 -26.02190
# Velocity P-wave (km/s) = 42.47291 4.94764 29.82842
#
# Compressibility (1/GPa) = 0.05136592
#
# Stress axis : x y z
#
# Youngs Moduli (GPa) = 44.85241 55.25810 17.61856
#
# Poissons Ratio (x) = 0.23725 0.18957
# Poissons Ratio (y) = 0.19257 0.13812
# Poissons Ratio (z) = 0.48260 0.43318
#
# Static dielectric constant tensor:
#      x y z
#    x 1.619900 0.000000 0.000000 
#    y 0.000000 1.612470 0.000000 
#    z 0.000000 0.000000 1.598950 
# 
# From -- ./inp_files/34512.got.cif
#   From: 2010.05.17/outbox.cif.g08.bks.cpg/sg64_18_cif.got.tgz:34512.got - 2010.06.03 16:29:19.
