data_PCOD9481154
_publ_section_title
;
Structure prediction by ZEFSAII (Michael W. Deem and Ramdas Pophale) SiO2 
 PCOD9481154
Probable space group: C M C A
;
_chemical_formula_sum "Si O2"
_cell_formula_units_Z 64
_cell_length_a 27.963798
_cell_length_b 13.744611
_cell_length_c 7.622089
_cell_angle_alpha 90.000000
_cell_angle_beta 90.000000
_cell_angle_gamma 90.000000
_cell_volume 2929.561535
_symmetry_space_group_name_H-M "C M C A"
_symmetry_group_IT_number 64
_symmetry_cell_setting 'orthorhombic'
loop_
_space_group_symop_operation_xyz
x,y,z
-x,1/2-y,1/2+z
x,-y,-z
-x,1/2+y,1/2-z
-x,-y,-z
x,1/2+y,1/2-z
-x,y,z
x,1/2-y,1/2+z
1/2+x,1/2+y,z
1/2-x,-y,1/2+z
1/2+x,1/2-y,-z
1/2-x,y,1/2-z
1/2-x,1/2-y,-z
1/2+x,y,1/2-z
1/2-x,1/2+y,z
1/2+x,-y,1/2+z
loop_
_atom_site_type_symbol
_atom_site_label
_atom_site_fract_x
_atom_site_fract_y
_atom_site_fract_z
Si Si1 0.899229 0.416915 0.352884
Si Si2 0.695813 0.881223 0.513745
Si Si3 0.750000 0.254256 0.750000
Si Si4 0.500000 0.338229 0.073815
Si Si5 0.000000 0.880469 0.664412
Si Si6 0.413992 0.000000 0.000000
O O1 0.905722 0.500000 0.500000
O O2 0.856605 0.355589 0.438300
O O3 0.951461 0.371090 0.332628
O O4 0.884462 0.452869 0.159102
O O5 0.733386 0.822871 0.396096
O O6 0.707113 0.829376 0.698885
O O7 0.700418 0.000000 0.500000
O O8 0.500000 0.223573 0.075890
O O9 0.500000 0.375745 0.874654
O O10 0.048722 0.930545 0.601549
#
# Coordination Sequence:
#
# PCOD9481154 Si02
#       6
#    16  16   8   8   8   8
#     4  11  23  43  65  96 138 178 228 278 344 417
#     4  10  23  44  70 104 134 180 228 290 361 421
#     4  10  22  46  72  96 140 172 230 296 356 436
#     4  12  22  40  63  93 141 180 233 286 322 418
#     4  11  23  36  61  88 127 188 234 276 339 388
#     4  11  22  42  60  90 132 180 226 280 340 401
#
# _framework density 21.846273
#
# number of rings (size 3 to 8) (size 9 to 14) (size 15 to 20)
#    0.000    1.250    2.500    4.125    0.000    4.000 
#   20.250    0.000    0.000    0.000    0.000    0.000 
#    0.000    0.000    0.000    0.000    0.000    0.000 
#
# Total GULP energy -178416.499295 kJ/mol
# GULP energy per Si atom -5575.515603 kJ/mol
# Density = 2.179655 g / cm^3
# Si number density = 21.846273 Si / 1000 Ang^3
#
#
#
# Elastic Constant Matrix: (Units=GPa)
#
#
# Indices 1 2 3 4 5 6 
#
# 1 76.5287 19.7442 11.1788 0.0000 0.0000 0.0000
# 2 19.7442 88.9713 15.7195 0.0000 0.0000 0.0000
# 3 11.1788 15.7195 98.0403 0.0000 0.0000 0.0000
# 4 0.0000 0.0000 0.0000 18.9818 0.0000 0.0000
# 5 0.0000 0.0000 0.0000 0.0000 40.8166 0.0000
# 6 0.0000 0.0000 0.0000 0.0000 0.0000 37.2768
#
#
#
# Elastic Compliance Matrix: (Units=1/GPa)
#
#
# Indices 1 2 3 4 5 6 
#
# 1 0.013981 -0.002903 -0.001129 0.000000 0.000000 0.000000
# 2 -0.002903 0.012170 -0.001620 0.000000 0.000000 0.000000
# 3 -0.001129 -0.001620 0.010588 0.000000 0.000000 0.000000
# 4 0.000000 0.000000 0.000000 0.052682 0.000000 0.000000
# 5 0.000000 0.000000 0.000000 0.000000 0.024500 0.000000
# 6 0.000000 0.000000 0.000000 0.000000 0.000000 0.026826
#
#
# Mechanical properties :
#
#
# Convention : Reuss Voigt Hill
#
# Bulk Modulus (GPa) = 39.31571 39.64725 39.48148
# Shear Modulus (GPa) = 31.14678 33.87490 32.51084
#
# Velocity S-wave (km/s) = 3.77997 3.94204 3.86186
# Velocity P-wave (km/s) = 6.08987 6.23757 6.16416
#
# Compressibility (1/GPa) = 0.02543513
#
# Stress axis : x y z
#
# Youngs Moduli (GPa) = 71.52634 82.16848 94.44320
#
# Poissons Ratio (x) = 0.23855 0.10659
# Poissons Ratio (y) = 0.20765 0.15303
# Poissons Ratio (z) = 0.08073 0.13314
#
# Static dielectric constant tensor:
#      x y z
#    x 1.844890 0.000000 0.000000 
#    y 0.000000 1.827850 0.000000 
#    z 0.000000 0.000000 1.935810 
# 
# From -- ./inp_files/10918.got.cif
#   From: 2010.05.17/outbox.cif.g08.bks.cpg/sg64_6_cif.got.tgz:10918.got - 2010.06.03 16:29:19.
