data_PCOD9481417
_publ_section_title
;
Structure prediction by ZEFSAII (Michael W. Deem and Ramdas Pophale) SiO2 
 PCOD9481417
Probable space group: C M C A
;
_chemical_formula_sum "Si O2"
_cell_formula_units_Z 96
_cell_length_a 28.010120
_cell_length_b 8.755732
_cell_length_c 19.415516
_cell_angle_alpha 90.000000
_cell_angle_beta 90.000000
_cell_angle_gamma 90.000000
_cell_volume 4761.637903
_symmetry_space_group_name_H-M "C M C A"
_symmetry_group_IT_number 64
_symmetry_cell_setting 'orthorhombic'
loop_
_space_group_symop_operation_xyz
x,y,z
-x,1/2-y,1/2+z
x,-y,-z
-x,1/2+y,1/2-z
-x,-y,-z
x,1/2+y,1/2-z
-x,y,z
x,1/2-y,1/2+z
1/2+x,1/2+y,z
1/2-x,-y,1/2+z
1/2+x,1/2-y,-z
1/2-x,y,1/2-z
1/2-x,1/2-y,-z
1/2+x,y,1/2-z
1/2-x,1/2+y,z
1/2+x,-y,1/2+z
loop_
_atom_site_type_symbol
_atom_site_label
_atom_site_fract_x
_atom_site_fract_y
_atom_site_fract_z
Si Si1 0.209275 0.614426 0.156859
Si Si2 0.797405 0.606018 0.440735
Si Si3 0.639691 0.165701 0.031117
Si Si4 0.446123 0.610452 0.934147
Si Si5 0.829716 0.826142 0.274457
Si Si6 0.875096 0.537789 0.338956
O O1 0.258075 0.644289 0.116044
O O2 0.167566 0.644642 0.102434
O O3 0.203472 0.440068 0.182037
O O4 0.200264 0.720059 0.222737
O O5 0.774778 0.500000 0.500000
O O6 0.825242 0.742554 0.478631
O O7 0.837464 0.508218 0.400925
O O8 0.591357 0.257327 0.046960
O O9 0.629693 0.000000 0.000000
O O10 0.500000 0.664343 0.920880
O O11 0.425236 0.511966 0.870447
O O12 0.446666 0.500000 0.000000
O O13 0.863248 0.712825 0.318766
O O14 0.861727 0.935455 0.226346
#
# Coordination Sequence:
#
# PCOD9481417 Si02
#       6
#    16  16  16  16  16  16
#     4  11  24  40  63  96 135 180 227 264 320 400
#     4  12  23  41  65  92 136 178 224 270 335 396
#     4  12  23  41  68 101 133 170 218 285 337 393
#     4  11  23  45  74  98 127 170 216 282 351 399
#     4  10  24  40  64  90 136 183 216 268 321 387
#     4  11  21  43  63  92 131 171 221 269 325 397
#
# _framework density 20.16113
#
# number of rings (size 3 to 8) (size 9 to 14) (size 15 to 20)
#    0.000    0.833    5.000    2.000    0.000    8.333 
#    0.000    2.500    0.000    0.000    0.000    0.000 
#    0.000    0.000    0.000    0.000    0.000    0.000 
#
# Total GULP energy -268610.795223 kJ/mol
# GULP energy per Si atom -5596.058234 kJ/mol
# Density = 2.011524 g / cm^3
# Si number density = 20.161130 Si / 1000 Ang^3
#
#
#
# Elastic Constant Matrix: (Units=GPa)
#
#
# Indices 1 2 3 4 5 6 
#
# 1 146.6920 66.4858 50.2337 0.0000 0.0000 0.0000
# 2 66.4858 144.2462 57.6276 0.0000 0.0000 0.0000
# 3 50.2337 57.6276 108.0870 0.0000 0.0000 0.0000
# 4 0.0000 0.0000 0.0000 38.3581 0.0000 0.0000
# 5 0.0000 0.0000 0.0000 0.0000 -3.5322 0.0000
# 6 0.0000 0.0000 0.0000 0.0000 0.0000 16.4377
#
#
#
# Elastic Compliance Matrix: (Units=1/GPa)
#
#
# Indices 1 2 3 4 5 6 
#
# 1 0.009136 -0.003195 -0.002542 0.000000 0.000000 0.000000
# 2 -0.003195 0.009926 -0.003807 0.000000 0.000000 0.000000
# 3 -0.002542 -0.003807 0.012463 0.000000 0.000000 0.000000
# 4 0.000000 0.000000 0.000000 0.026070 0.000000 0.000000
# 5 0.000000 0.000000 0.000000 0.000000 -0.283113 0.000000
# 6 0.000000 0.000000 0.000000 0.000000 0.000000 0.060836
#
#
# Mechanical properties :
#
#
# Convention : Reuss Voigt Hill
#
# Bulk Modulus (GPa) = 80.41373 83.07992 81.74682
# Shear Modulus (GPa) = -35.34888 25.23128 -5.05880
#
# Velocity S-wave (km/s) = -4.19181 3.54147 -1.58576
# Velocity P-wave (km/s) = 4.06741 7.61709 6.10589
#
# Compressibility (1/GPa) = 0.01243569
#
# Stress axis : x y z
#
# Youngs Moduli (GPa) = 109.45993 100.74162 80.23554
#
# Poissons Ratio (x) = 0.32189 0.20399
# Poissons Ratio (y) = 0.34974 0.30549
# Poissons Ratio (z) = 0.27828 0.38356
#
# Static dielectric constant tensor:
#      x y z
#    x 1.701500 0.000000 0.000000 
#    y 0.000000 1.751150 0.000000 
#    z 0.000000 0.000000 1.736740 
# 
# From -- ./inp_files/41820.got.cif
#   From: 2010.05.17/outbox.cif.g08.bks.cpg/sg64_21_cif.got.tgz:41820.got - 2010.06.03 16:29:19.
