data_PCOD9481440
_publ_section_title
;
Structure prediction by ZEFSAII (Michael W. Deem and Ramdas Pophale) SiO2 
 PCOD9481440
Probable space group: C M C A
;
_chemical_formula_sum "Si O2"
_cell_formula_units_Z 104
_cell_length_a 26.998023
_cell_length_b 8.132405
_cell_length_c 24.023475
_cell_angle_alpha 90.000000
_cell_angle_beta 90.000000
_cell_angle_gamma 90.000000
_cell_volume 5274.566718
_symmetry_space_group_name_H-M "C M C A"
_symmetry_group_IT_number 64
_symmetry_cell_setting 'orthorhombic'
loop_
_space_group_symop_operation_xyz
x,y,z
-x,1/2-y,1/2+z
x,-y,-z
-x,1/2+y,1/2-z
-x,-y,-z
x,1/2+y,1/2-z
-x,y,z
x,1/2-y,1/2+z
1/2+x,1/2+y,z
1/2-x,-y,1/2+z
1/2+x,1/2-y,-z
1/2-x,y,1/2-z
1/2-x,1/2-y,-z
1/2+x,y,1/2-z
1/2-x,1/2+y,z
1/2+x,-y,1/2+z
loop_
_atom_site_type_symbol
_atom_site_label
_atom_site_fract_x
_atom_site_fract_y
_atom_site_fract_z
Si Si1 0.250000 0.201035 0.250000
Si Si2 0.000000 0.411756 0.772125
Si Si3 0.500000 0.435448 0.166248
Si Si4 0.941493 0.086532 0.413620
Si Si5 0.174770 0.552395 0.707042
Si Si6 0.901192 0.570099 0.376114
Si Si7 0.900187 0.074723 0.687083
Si Si8 0.057454 0.764949 0.976655
O O1 0.213504 0.300367 0.290024
O O2 0.211572 0.099770 0.213635
O O3 0.000000 0.404436 0.705997
O O4 0.951979 0.518824 0.786407
O O5 0.000000 0.231550 0.798390
O O6 0.550189 0.459803 0.133453
O O7 0.929185 0.221535 0.460086
O O8 0.000000 0.111834 0.396320
O O9 0.901789 0.056574 0.364403
O O10 0.943040 0.910702 0.444948
O O11 0.142859 0.531723 0.651804
O O12 0.139725 0.561451 0.762850
O O13 0.900989 0.742204 0.339641
O O14 0.905775 0.624080 0.440331
O O15 0.000000 0.824066 0.974507
#
# Coordination Sequence:
#
# PCOD9481440 Si02
#       8
#     8   8   8  16  16  16  16  16
#     4  10  24  42  52  72 102 130 172 226 280 330
#     4  12  24  32  45  74 117 147 176 204 252 313
#     4  12  24  32  45  74 117 147 176 204 252 313
#     4   8  14  26  46  75 111 146 177 207 240 293
#     4  11  22  37  56  76 100 133 172 221 278 326
#     4  11  20  33  54  81 106 144 177 215 253 316
#     4  11  20  33  54  81 106 144 177 215 253 316
#     4   8  14  26  46  75 111 146 177 207 240 293
#
# _framework density 19.71726
#
# number of rings (size 3 to 8) (size 9 to 14) (size 15 to 20)
#    0.000    1.846    4.615    2.308    2.154    0.000 
#    0.000    0.000    0.000    1.846    0.000    6.462 
#    0.000    0.000    0.000    0.000    0.000    0.000 
#
# Total GULP energy -289860.263501 kJ/mol
# GULP energy per Si atom -5574.235837 kJ/mol
# Density = 1.967238 g / cm^3
# Si number density = 19.717260 Si / 1000 Ang^3
#
#
#
# Elastic Constant Matrix: (Units=GPa)
#
#
# Indices 1 2 3 4 5 6 
#
# 1 95.0810 28.3317 21.7059 0.0000 0.0000 0.0000
# 2 28.3317 67.0112 20.4355 0.0000 0.0000 0.0000
# 3 21.7059 20.4355 82.9115 0.0000 0.0000 0.0000
# 4 0.0000 0.0000 0.0000 37.0009 0.0000 0.0000
# 5 0.0000 0.0000 0.0000 0.0000 13.6854 0.0000
# 6 0.0000 0.0000 0.0000 0.0000 0.0000 20.3759
#
#
#
# Elastic Compliance Matrix: (Units=1/GPa)
#
#
# Indices 1 2 3 4 5 6 
#
# 1 0.012365 -0.004585 -0.002107 0.000000 0.000000 0.000000
# 2 -0.004585 0.017836 -0.003196 0.000000 0.000000 0.000000
# 3 -0.002107 -0.003196 0.013400 0.000000 0.000000 0.000000
# 4 0.000000 0.000000 0.000000 0.027026 0.000000 0.000000
# 5 0.000000 0.000000 0.000000 0.000000 0.073071 0.000000
# 6 0.000000 0.000000 0.000000 0.000000 0.000000 0.049078
#
#
# Mechanical properties :
#
#
# Convention : Reuss Voigt Hill
#
# Bulk Modulus (GPa) = 41.97206 42.88333 42.42770
# Shear Modulus (GPa) = 22.67647 25.84781 24.26214
#
# Velocity S-wave (km/s) = 3.39497 3.62459 3.51166
# Velocity P-wave (km/s) = 6.05813 6.27003 6.16499
#
# Compressibility (1/GPa) = 0.02382537
#
# Stress axis : x y z
#
# Youngs Moduli (GPa) = 80.87617 56.06645 74.62529
#
# Poissons Ratio (x) = 0.25707 0.15723
# Poissons Ratio (y) = 0.37083 0.23848
# Poissons Ratio (z) = 0.17040 0.17917
#
# Static dielectric constant tensor:
#      x y z
#    x 1.649660 0.000000 0.000000 
#    y 0.000000 1.798940 0.000000 
#    z 0.000000 0.000000 1.763920 
# 
# From -- ./inp_files/51235.got.cif
#   From: 2010.05.17/outbox.cif.g08.bks.cpg/sg64_26_cif.got.tgz:51235.got - 2010.06.03 16:29:19.
