data_PCOD9481534
_publ_section_title
;
Structure prediction by ZEFSAII (Michael W. Deem and Ramdas Pophale) SiO2 
 PCOD9481534
Probable space group: C M C A
;
_chemical_formula_sum "Si O2"
_cell_formula_units_Z 88
_cell_length_a 20.027153
_cell_length_b 11.402709
_cell_length_c 17.175654
_cell_angle_alpha 90.000000
_cell_angle_beta 90.000000
_cell_angle_gamma 90.000000
_cell_volume 3922.297576
_symmetry_space_group_name_H-M "C M C A"
_symmetry_group_IT_number 64
_symmetry_cell_setting 'orthorhombic'
loop_
_space_group_symop_operation_xyz
x,y,z
-x,1/2-y,1/2+z
x,-y,-z
-x,1/2+y,1/2-z
-x,-y,-z
x,1/2+y,1/2-z
-x,y,z
x,1/2-y,1/2+z
1/2+x,1/2+y,z
1/2-x,-y,1/2+z
1/2+x,1/2-y,-z
1/2-x,y,1/2-z
1/2-x,1/2-y,-z
1/2+x,y,1/2-z
1/2-x,1/2+y,z
1/2+x,-y,1/2+z
loop_
_atom_site_type_symbol
_atom_site_label
_atom_site_fract_x
_atom_site_fract_y
_atom_site_fract_z
Si Si1 0.869792 0.548776 0.794357
Si Si2 0.363620 0.502812 0.117800
Si Si3 0.390403 0.252693 0.057980
Si Si4 0.500000 0.106104 0.157835
Si Si5 0.782205 0.926710 0.576841
Si Si6 0.425145 0.245548 0.381142
O O1 0.851118 0.544316 0.704511
O O2 0.939935 0.481185 0.809245
O O3 0.815075 0.487081 0.848313
O O4 0.877664 0.681473 0.824910
O O5 0.388101 0.392116 0.068469
O O6 0.296935 0.563851 0.084875
O O7 0.415914 0.607360 0.124635
O O8 0.441412 0.191231 0.117418
O O9 0.316124 0.200361 0.070012
O O10 0.413056 0.219866 0.970715
O O11 0.802274 0.000000 0.500000
O O12 0.500000 0.275451 0.358148
#
# Coordination Sequence:
#
# PCOD9481534 Si02
#       6
#    16  16  16   8  16  16
#     4  11  26  46  71 107 142 189 242 300 352 438
#     4  12  30  44  69 108 155 189 231 304 383 422
#     4  11  25  46  78 105 144 188 243 310 352 435
#     4  10  24  45  75 102 140 184 244 283 363 419
#     4  11  24  48  76 102 138 193 250 291 351 436
#     4  12  26  45  75 107 143 189 251 298 359 435
#
# _framework density 22.435829999999999
#
# number of rings (size 3 to 8) (size 9 to 14) (size 15 to 20)
#    0.000    0.727    3.636    2.182   10.182    2.909 
#    0.000    0.000    0.000    0.000    0.000    0.000 
#    0.000    0.000    0.000    0.000    0.000    0.000 
#
# Total GULP energy -245226.932200 kJ/mol
# GULP energy per Si atom -5573.339368 kJ/mol
# Density = 2.238477 g / cm^3
# Si number density = 22.435830 Si / 1000 Ang^3
#
#
#
# Elastic Constant Matrix: (Units=GPa)
#
#
# Indices 1 2 3 4 5 6 
#
# 1 60.1047 5.0028 -10.0417 0.0000 0.0000 0.0000
# 2 5.0028 99.2031 5.8921 0.0000 0.0000 0.0000
# 3 -10.0417 5.8921 33.3117 0.0000 0.0000 0.0000
# 4 0.0000 0.0000 0.0000 30.1424 0.0000 0.0000
# 5 0.0000 0.0000 0.0000 0.0000 6.5956 0.0000
# 6 0.0000 0.0000 0.0000 0.0000 0.0000 29.1488
#
#
#
# Elastic Compliance Matrix: (Units=1/GPa)
#
#
# Indices 1 2 3 4 5 6 
#
# 1 0.017665 -0.001220 0.005541 0.000000 0.000000 0.000000
# 2 -0.001220 0.010272 -0.002185 0.000000 0.000000 0.000000
# 3 0.005541 -0.002185 0.032076 0.000000 0.000000 0.000000
# 4 0.000000 0.000000 0.000000 0.033176 0.000000 0.000000
# 5 0.000000 0.000000 0.000000 0.000000 0.151617 0.000000
# 6 0.000000 0.000000 0.000000 0.000000 0.000000 0.034307
#
#
# Mechanical properties :
#
#
# Convention : Reuss Voigt Hill
#
# Bulk Modulus (GPa) = 15.55566 21.59176 18.57371
# Shear Modulus (GPa) = 16.87661 25.96176 21.41919
#
# Velocity S-wave (km/s) = 2.74563 3.40539 3.09315
# Velocity P-wave (km/s) = 4.12308 5.01068 4.58839
#
# Compressibility (1/GPa) = 0.06428528
#
# Stress axis : x y z
#
# Youngs Moduli (GPa) = 56.60949 97.35579 31.17578
#
# Poissons Ratio (x) = 0.11877 -0.17274
# Poissons Ratio (y) = 0.06906 0.06811
# Poissons Ratio (z) = -0.31366 0.21268
#
# Static dielectric constant tensor:
#      x y z
#    x 1.783370 0.000000 0.000000 
#    y 0.000000 1.814460 0.000000 
#    z 0.000000 0.000000 1.831010 
# 
# From -- ./inp_files/34135.got.cif
#   From: 2010.05.17/outbox.cif.g08.bks.cpg/sg64_18_cif.got.tgz:34135.got - 2010.06.03 16:29:19.
