data_PCOD9481173
_publ_section_title
;
Structure prediction by ZEFSAII (Michael W. Deem and Ramdas Pophale) SiO2 
 PCOD9481173
Probable space group: C M C A
;
_chemical_formula_sum "Si O2"
_cell_formula_units_Z 52
_cell_length_a 19.138570
_cell_length_b 22.858759
_cell_length_c 5.175187
_cell_angle_alpha 90.000000
_cell_angle_beta 90.000000
_cell_angle_gamma 90.000000
_cell_volume 2264.061299
_symmetry_space_group_name_H-M "C M C A"
_symmetry_group_IT_number 64
_symmetry_cell_setting 'orthorhombic'
loop_
_space_group_symop_operation_xyz
x,y,z
-x,1/2-y,1/2+z
x,-y,-z
-x,1/2+y,1/2-z
-x,-y,-z
x,1/2+y,1/2-z
-x,y,z
x,1/2-y,1/2+z
1/2+x,1/2+y,z
1/2-x,-y,1/2+z
1/2+x,1/2-y,-z
1/2-x,y,1/2-z
1/2-x,1/2-y,-z
1/2+x,y,1/2-z
1/2-x,1/2+y,z
1/2+x,-y,1/2+z
loop_
_atom_site_type_symbol
_atom_site_label
_atom_site_fract_x
_atom_site_fract_y
_atom_site_fract_z
Si Si1 0.000000 0.500000 0.000000
Si Si2 0.584705 0.282499 0.605172
Si Si3 0.205673 0.929675 0.997876
Si Si4 0.923654 0.891000 0.263342
O O1 0.059696 0.452925 0.100477
O O2 0.500000 0.281164 0.616704
O O3 0.608852 0.265154 0.890809
O O4 0.601663 0.344384 0.473465
O O5 0.250000 0.912760 0.750000
O O6 0.250000 0.913886 0.250000
O O7 0.130107 0.901587 0.035382
O O8 0.196962 0.000000 0.000000
O O9 0.000000 0.870653 0.161235
#
# Coordination Sequence:
#
# PCOD9481173 Si02
#       4
#     4  16  16  16
#     4   8  20  36  62 104 134 160 204 278 340 370
#     4   9  18  35  57  85 119 164 214 258 315 382
#     4  10  23  39  59  84 125 172 209 251 320 403
#     4   9  20  38  63  96 130 165 213 276 324 387
#
# _framework density 22.967575
#
# number of rings (size 3 to 8) (size 9 to 14) (size 15 to 20)
#    0.923    1.846    0.000    0.000    6.462    3.077 
#    0.000    4.615    0.000    6.462    0.000    0.000 
#    0.000    0.000    0.000    0.000    0.000    0.000 
#
# Total GULP energy -144746.694481 kJ/mol
# GULP energy per Si atom -5567.180557 kJ/mol
# Density = 2.291530 g / cm^3
# Si number density = 22.967575 Si / 1000 Ang^3
#
#
#
# Elastic Constant Matrix: (Units=GPa)
#
#
# Indices 1 2 3 4 5 6 
#
# 1 51.9298 31.8360 17.7270 0.0000 0.0000 0.0000
# 2 31.8360 86.2034 32.0635 0.0000 0.0000 0.0000
# 3 17.7270 32.0635 107.0830 0.0000 0.0000 0.0000
# 4 0.0000 0.0000 0.0000 18.6862 0.0000 0.0000
# 5 0.0000 0.0000 0.0000 0.0000 28.2313 0.0000
# 6 0.0000 0.0000 0.0000 0.0000 0.0000 -1.0916
#
#
#
# Elastic Compliance Matrix: (Units=1/GPa)
#
#
# Indices 1 2 3 4 5 6 
#
# 1 0.025120 -0.008699 -0.001554 0.000000 0.000000 0.000000
# 2 -0.008699 0.016067 -0.003371 0.000000 0.000000 0.000000
# 3 -0.001554 -0.003371 0.010605 0.000000 0.000000 0.000000
# 4 0.000000 0.000000 0.000000 0.053515 0.000000 0.000000
# 5 0.000000 0.000000 0.000000 0.000000 0.035422 0.000000
# 6 0.000000 0.000000 0.000000 0.000000 0.000000 -0.916085
#
#
# Mechanical properties :
#
#
# Convention : Reuss Voigt Hill
#
# Bulk Modulus (GPa) = 40.74190 45.38548 43.06369
# Shear Modulus (GPa) = -6.75743 20.07115 6.65686
#
# Velocity S-wave (km/s) = -1.71713 2.95937 1.70431
# Velocity P-wave (km/s) = 3.72102 5.61077 4.76061
#
# Compressibility (1/GPa) = 0.02454476
#
# Stress axis : x y z
#
# Youngs Moduli (GPa) = 39.80828 62.23926 94.29458
#
# Poissons Ratio (x) = 0.54144 0.14651
# Poissons Ratio (y) = 0.34631 0.31785
# Poissons Ratio (z) = 0.06185 0.20979
#
# Static dielectric constant tensor:
#      x y z
#    x 1.889600 0.000000 0.000000 
#    y 0.000000 1.896490 0.000000 
#    z 0.000000 0.000000 1.876330 
# 
# From -- ./inp_files/1175.got.cif
#   From: 2010.05.17/outbox.cif.g08.bks.cpg/sg64_1_cif.got.tgz:1175.got - 2010.06.03 16:29:19.
