data_PCOD9481644
_publ_section_title
;
Structure prediction by ZEFSAII (Michael W. Deem and Ramdas Pophale) SiO2 
 PCOD9481644
Probable space group: C M C A
;
_chemical_formula_sum "Si O2"
_cell_formula_units_Z 64
_cell_length_a 7.817599
_cell_length_b 21.935176
_cell_length_c 21.462452
_cell_angle_alpha 90.000000
_cell_angle_beta 90.000000
_cell_angle_gamma 90.000000
_cell_volume 3680.390068
_symmetry_space_group_name_H-M "C M C A"
_symmetry_group_IT_number 64
_symmetry_cell_setting 'orthorhombic'
loop_
_space_group_symop_operation_xyz
x,y,z
-x,1/2-y,1/2+z
x,-y,-z
-x,1/2+y,1/2-z
-x,-y,-z
x,1/2+y,1/2-z
-x,y,z
x,1/2-y,1/2+z
1/2+x,1/2+y,z
1/2-x,-y,1/2+z
1/2+x,1/2-y,-z
1/2-x,y,1/2-z
1/2-x,1/2-y,-z
1/2+x,y,1/2-z
1/2-x,1/2+y,z
1/2+x,-y,1/2+z
loop_
_atom_site_type_symbol
_atom_site_label
_atom_site_fract_x
_atom_site_fract_y
_atom_site_fract_z
Si Si1 0.300599 0.305003 0.453933
Si Si2 0.500000 0.518340 0.097349
Si Si3 0.000000 0.602565 0.513331
Si Si4 0.302599 0.473159 0.321032
Si Si5 0.795474 0.668531 0.679203
O O1 0.500000 0.320339 0.463144
O O2 0.250000 0.250000 0.500000
O O3 0.168011 0.358661 0.470462
O O4 0.272048 0.293012 0.379758
O O5 0.500000 0.458621 0.053715
O O6 0.329170 0.510435 0.137408
O O7 0.500000 0.579481 0.057350
O O8 0.500000 0.487764 0.332508
O O9 0.250000 0.484746 0.250000
O O10 0.276537 0.400180 0.329658
O O11 0.750000 0.688128 0.750000
O O12 0.000000 0.664951 0.675029
#
# Coordination Sequence:
#
# PCOD9481644 Si02
#       5
#    16   8   8  16  16
#     4  12  22  39  62  87 117 157 201 244 294 353
#     4  11  22  38  56  85 127 150 189 242 296 367
#     4  11  24  40  56  85 123 158 191 240 296 357
#     4  11  18  31  55  84 115 150 190 244 302 348
#     4  11  19  33  54  88 121 146 189 251 304 346
#
# _framework density 17.389462000000002
#
# number of rings (size 3 to 8) (size 9 to 14) (size 15 to 20)
#    0.000    0.750    7.500    3.750    0.000    1.000 
#    0.000    2.500    0.000    1.500    0.000    0.000 
#    0.000    0.000    0.000    0.000    0.000    0.000 
#
# Total GULP energy -178590.017020 kJ/mol
# GULP energy per Si atom -5580.938032 kJ/mol
# Density = 1.734988 g / cm^3
# Si number density = 17.389462 Si / 1000 Ang^3
#
#
#
# Elastic Constant Matrix: (Units=GPa)
#
#
# Indices 1 2 3 4 5 6 
#
# 1 192.5237 28.6650 56.8944 0.0000 0.0000 0.0000
# 2 28.6650 36.5994 42.4631 0.0000 0.0000 0.0000
# 3 56.8944 42.4631 148.1804 0.0000 0.0000 0.0000
# 4 0.0000 0.0000 0.0000 33.5544 0.0000 0.0000
# 5 0.0000 0.0000 0.0000 0.0000 31.4610 0.0000
# 6 0.0000 0.0000 0.0000 0.0000 0.0000 1.8115
#
#
#
# Elastic Compliance Matrix: (Units=1/GPa)
#
#
# Indices 1 2 3 4 5 6 
#
# 1 0.006082 -0.003077 -0.001453 0.000000 0.000000 0.000000
# 2 -0.003077 0.042488 -0.010994 0.000000 0.000000 0.000000
# 3 -0.001453 -0.010994 0.010457 0.000000 0.000000 0.000000
# 4 0.000000 0.000000 0.000000 0.029802 0.000000 0.000000
# 5 0.000000 0.000000 0.000000 0.000000 0.031785 0.000000
# 6 0.000000 0.000000 0.000000 0.000000 0.000000 0.552038
#
#
# Mechanical properties :
#
#
# Convention : Reuss Voigt Hill
#
# Bulk Modulus (GPa) = 35.74230 70.37204 53.05717
# Shear Modulus (GPa) = 7.01234 29.98412 18.49823
#
# Velocity S-wave (km/s) = 2.01029 4.15694 3.26507
# Velocity P-wave (km/s) = 5.09774 7.97472 6.69265
#
# Compressibility (1/GPa) = 0.02797806
#
# Stress axis : x y z
#
# Youngs Moduli (GPa) = 164.42463 23.53580 95.62917
#
# Poissons Ratio (x) = 0.07242 0.13898
# Poissons Ratio (y) = 0.50596 1.05136
# Poissons Ratio (z) = 0.23896 0.25876
#
# Static dielectric constant tensor:
#      x y z
#    x 1.546020 0.000000 0.000000 
#    y 0.000000 1.556070 0.000000 
#    z 0.000000 0.000000 1.649920 
# 
# From -- ./inp_files/36478.got.cif
#   From: 2010.05.17/outbox.cif.g08.bks.cpg/sg64_19_cif.got.tgz:36478.got - 2010.06.03 16:29:19.
