data_PCOD9481222
_publ_section_title
;
Structure prediction by ZEFSAII (Michael W. Deem and Ramdas Pophale) SiO2 
 PCOD9481222
Probable space group: C M C A
;
_chemical_formula_sum "Si O2"
_cell_formula_units_Z 116
_cell_length_a 25.268845
_cell_length_b 24.058211
_cell_length_c 8.116699
_cell_angle_alpha 90.000000
_cell_angle_beta 90.000000
_cell_angle_gamma 90.000000
_cell_volume 4934.329668
_symmetry_space_group_name_H-M "C M C A"
_symmetry_group_IT_number 64
_symmetry_cell_setting 'orthorhombic'
loop_
_space_group_symop_operation_xyz
x,y,z
-x,1/2-y,1/2+z
x,-y,-z
-x,1/2+y,1/2-z
-x,-y,-z
x,1/2+y,1/2-z
-x,y,z
x,1/2-y,1/2+z
1/2+x,1/2+y,z
1/2-x,-y,1/2+z
1/2+x,1/2-y,-z
1/2-x,y,1/2-z
1/2-x,1/2-y,-z
1/2+x,y,1/2-z
1/2-x,1/2+y,z
1/2+x,-y,1/2+z
loop_
_atom_site_type_symbol
_atom_site_label
_atom_site_fract_x
_atom_site_fract_y
_atom_site_fract_z
Si Si1 0.589313 0.136252 0.179812
Si Si2 0.062479 0.937922 0.989811
Si Si3 0.500000 0.000000 0.000000
Si Si4 0.137131 0.701773 0.636441
Si Si5 0.085089 0.428228 0.150365
Si Si6 0.196252 0.109238 0.693565
Si Si7 0.939351 0.259722 0.642548
Si Si8 0.798101 0.314491 0.879183
O O1 0.580225 0.094764 0.329432
O O2 0.560345 0.194691 0.210728
O O3 0.650995 0.151551 0.183562
O O4 0.570630 0.109539 0.007913
O O5 0.072778 0.908169 0.165016
O O6 0.000000 0.942153 0.972396
O O7 0.086371 0.000000 0.000000
O O8 0.547023 0.019275 0.871135
O O9 0.170560 0.646494 0.661294
O O10 0.102611 0.712889 0.802420
O O11 0.091869 0.707343 0.499482
O O12 0.179382 0.751629 0.606111
O O13 0.148792 0.431328 0.138598
O O14 0.250000 0.080794 0.750000
O O15 0.211572 0.154747 0.553090
O O16 0.000000 0.243969 0.609899
O O17 0.750000 0.315967 0.750000
#
# Coordination Sequence:
#
# PCOD9481222 Si02
#       8
#    16  16   4  16  16  16  16  16
#     4  10  24  41  63  96 136 174 228 286 347 426
#     4  11  23  39  67 104 131 167 223 279 353 435
#     4  12  24  48  82 104 144 174 224 310 350 476
#     4  11  22  41  61  96 134 181 241 287 344 421
#     4  11  25  45  70 107 134 182 226 286 374 423
#     4  11  25  42  68  98 139 182 243 301 346 433
#     4  11  23  39  60  91 137 186 230 286 349 417
#     4  10  23  41  64  96 127 184 240 291 353 398
#
# _framework density 23.508763999999999
#
# number of rings (size 3 to 8) (size 9 to 14) (size 15 to 20)
#    0.000    1.241    2.069    2.897    9.655    1.103 
#    2.483    0.000    1.517    1.655    0.000    0.000 
#    0.000    0.000    0.000    0.000    0.000    0.000 
#
# Total GULP energy -323677.973323 kJ/mol
# GULP energy per Si atom -5580.654712 kJ/mol
# Density = 2.345526 g / cm^3
# Si number density = 23.508764 Si / 1000 Ang^3
#
#
#
# Elastic Constant Matrix: (Units=GPa)
#
#
# Indices 1 2 3 4 5 6 
#
# 1 151.4026 12.1335 12.5949 0.0000 0.0000 0.0000
# 2 12.1335 53.3155 17.4531 0.0000 0.0000 0.0000
# 3 12.5949 17.4531 99.8285 0.0000 0.0000 0.0000
# 4 0.0000 0.0000 0.0000 25.0463 0.0000 0.0000
# 5 0.0000 0.0000 0.0000 0.0000 47.6605 0.0000
# 6 0.0000 0.0000 0.0000 0.0000 0.0000 15.4387
#
#
#
# Elastic Compliance Matrix: (Units=1/GPa)
#
#
# Indices 1 2 3 4 5 6 
#
# 1 0.006764 -0.001336 -0.000620 0.000000 0.000000 0.000000
# 2 -0.001336 0.020159 -0.003356 0.000000 0.000000 0.000000
# 3 -0.000620 -0.003356 0.010682 0.000000 0.000000 0.000000
# 4 0.000000 0.000000 0.000000 0.039926 0.000000 0.000000
# 5 0.000000 0.000000 0.000000 0.000000 0.020982 0.000000
# 6 0.000000 0.000000 0.000000 0.000000 0.000000 0.064772
#
#
# Mechanical properties :
#
#
# Convention : Reuss Voigt Hill
#
# Bulk Modulus (GPa) = 37.06336 43.21217 40.13777
# Shear Modulus (GPa) = 27.33706 35.12012 31.22859
#
# Velocity S-wave (km/s) = 3.41375 3.86931 3.64865
# Velocity P-wave (km/s) = 5.59806 6.19543 5.90430
#
# Compressibility (1/GPa) = 0.02698082
#
# Stress axis : x y z
#
# Youngs Moduli (GPa) = 147.85125 49.60575 93.61495
#
# Poissons Ratio (x) = 0.06629 0.05801
# Poissons Ratio (y) = 0.19759 0.31415
# Poissons Ratio (z) = 0.09162 0.16647
#
# Static dielectric constant tensor:
#      x y z
#    x 1.843140 0.000000 0.000000 
#    y 0.000000 1.968480 0.000000 
#    z 0.000000 0.000000 2.015820 
# 
# From -- ./inp_files/9793.got.cif
#   From: 2010.05.17/outbox.cif.g08.bks.cpg/sg64_5_cif.got.tgz:9793.got - 2010.06.03 16:29:19.
