data_PCOD9481416
_publ_section_title
;
Structure prediction by ZEFSAII (Michael W. Deem and Ramdas Pophale) SiO2 
 PCOD9481416
Probable space group: C M C A
;
_chemical_formula_sum "Si O2"
_cell_formula_units_Z 116
_cell_length_a 19.166637
_cell_length_b 19.014590
_cell_length_c 18.694703
_cell_angle_alpha 90.000000
_cell_angle_beta 90.000000
_cell_angle_gamma 90.000000
_cell_volume 6813.204948
_symmetry_space_group_name_H-M "C M C A"
_symmetry_group_IT_number 64
_symmetry_cell_setting 'orthorhombic'
loop_
_space_group_symop_operation_xyz
x,y,z
-x,1/2-y,1/2+z
x,-y,-z
-x,1/2+y,1/2-z
-x,-y,-z
x,1/2+y,1/2-z
-x,y,z
x,1/2-y,1/2+z
1/2+x,1/2+y,z
1/2-x,-y,1/2+z
1/2+x,1/2-y,-z
1/2-x,y,1/2-z
1/2-x,1/2-y,-z
1/2+x,y,1/2-z
1/2-x,1/2+y,z
1/2+x,-y,1/2+z
loop_
_atom_site_type_symbol
_atom_site_label
_atom_site_fract_x
_atom_site_fract_y
_atom_site_fract_z
Si Si1 0.646727 0.443868 0.944380
Si Si2 0.417915 0.896962 0.244426
Si Si3 0.325231 0.714859 0.010212
Si Si4 0.171202 0.032350 0.223251
Si Si5 0.419672 0.714183 0.871238
Si Si6 0.420775 0.663273 0.257370
Si Si7 0.500000 0.500000 0.000000
Si Si8 0.080970 0.222824 0.631274
O O1 0.673024 0.365263 0.960640
O O2 0.663326 0.463607 0.862787
O O3 0.679530 0.500000 0.000000
O O4 0.563328 0.546630 0.039559
O O5 0.500000 0.915475 0.241946
O O6 0.408167 0.849435 0.315514
O O7 0.402543 0.847047 0.176776
O O8 0.370449 0.964552 0.249521
O O9 0.368855 0.761774 0.066005
O O10 0.250000 0.750000 0.000000
O O11 0.366278 0.712488 0.935479
O O12 0.250000 0.029049 0.250000
O O13 0.134404 0.101744 0.254189
O O14 0.500000 0.708111 0.896895
O O15 0.413200 0.785278 0.825079
O O16 0.500000 0.635057 0.257110
O O17 0.413397 0.713176 0.187968
O O18 0.000000 0.219048 0.608576
#
# Coordination Sequence:
#
# PCOD9481416 Si02
#       8
#    16  16  16  16  16  16   4  16
#     4  10  24  40  62  99 121 157 208 264 327 365
#     4   9  20  38  60  87 112 147 198 254 301 352
#     4  12  24  35  58  87 127 166 195 240 312 377
#     4  12  24  35  59  85 125 162 196 241 312 377
#     4   9  20  37  60  86 113 148 197 252 295 348
#     4   9  19  36  60  84 111 148 197 250 292 350
#     4   8  24  40  72  92 128 152 206 292 324 362
#     4   9  19  37  60  84 112 149 200 248 295 357
#
# _framework density 17.025760999999999
#
# number of rings (size 3 to 8) (size 9 to 14) (size 15 to 20)
#    0.414    1.655    1.379    3.310    5.793    2.207 
#    0.000    2.759    0.000    0.000    0.000    3.862 
#    0.000    0.000    0.000    0.000    0.000    0.000 
#
# Total GULP energy -323047.133336 kJ/mol
# GULP energy per Si atom -5569.778161 kJ/mol
# Density = 1.698701 g / cm^3
# Si number density = 17.025761 Si / 1000 Ang^3
#
#
#
# Elastic Constant Matrix: (Units=GPa)
#
#
# Indices 1 2 3 4 5 6 
#
# 1 86.9904 65.9908 39.4042 0.0000 0.0000 0.0000
# 2 65.9908 100.0800 18.6775 0.0000 0.0000 0.0000
# 3 39.4042 18.6775 49.7203 0.0000 0.0000 0.0000
# 4 0.0000 0.0000 0.0000 11.2443 0.0000 0.0000
# 5 0.0000 0.0000 0.0000 0.0000 6.0141 0.0000
# 6 0.0000 0.0000 0.0000 0.0000 0.0000 11.9861
#
#
#
# Elastic Compliance Matrix: (Units=1/GPa)
#
#
# Indices 1 2 3 4 5 6 
#
# 1 0.036224 -0.019924 -0.021223 0.000000 0.000000 0.000000
# 2 -0.019924 0.021705 0.007637 0.000000 0.000000 0.000000
# 3 -0.021223 0.007637 0.034063 0.000000 0.000000 0.000000
# 4 0.000000 0.000000 0.000000 0.088934 0.000000 0.000000
# 5 0.000000 0.000000 0.000000 0.000000 0.166275 0.000000
# 6 0.000000 0.000000 0.000000 0.000000 0.000000 0.083430
#
#
# Mechanical properties :
#
#
# Convention : Reuss Voigt Hill
#
# Bulk Modulus (GPa) = 40.04731 53.88176 46.96453
# Shear Modulus (GPa) = 9.88191 13.36345 11.62268
#
# Velocity S-wave (km/s) = 2.41178 2.80464 2.61560
# Velocity P-wave (km/s) = 5.59716 6.49645 6.06350
#
# Compressibility (1/GPa) = 0.02497047
#
# Stress axis : x y z
#
# Youngs Moduli (GPa) = 27.60617 46.07337 29.35698
#
# Poissons Ratio (x) = 0.91799 0.62305
# Poissons Ratio (y) = 0.55004 -0.22420
# Poissons Ratio (z) = 0.58589 -0.35187
#
# Static dielectric constant tensor:
#      x y z
#    x 1.561770 0.000000 0.000000 
#    y 0.000000 1.572570 0.000000 
#    z 0.000000 0.000000 1.573560 
# 
# From -- ./inp_files/33469.got.cif
#   From: 2010.05.17/outbox.cif.g08.bks.cpg/sg64_17_cif.got.tgz:33469.got - 2010.06.03 16:29:19.
