data_PCOD9481661
_publ_section_title
;
Structure prediction by ZEFSAII (Michael W. Deem and Ramdas Pophale) SiO2 
 PCOD9481661
Probable space group: C M C A
;
_chemical_formula_sum "Si O2"
_cell_formula_units_Z 96
_cell_length_a 21.348556
_cell_length_b 13.425250
_cell_length_c 15.434213
_cell_angle_alpha 90.000000
_cell_angle_beta 90.000000
_cell_angle_gamma 90.000000
_cell_volume 4423.595180
_symmetry_space_group_name_H-M "C M C A"
_symmetry_group_IT_number 64
_symmetry_cell_setting 'orthorhombic'
loop_
_space_group_symop_operation_xyz
x,y,z
-x,1/2-y,1/2+z
x,-y,-z
-x,1/2+y,1/2-z
-x,-y,-z
x,1/2+y,1/2-z
-x,y,z
x,1/2-y,1/2+z
1/2+x,1/2+y,z
1/2-x,-y,1/2+z
1/2+x,1/2-y,-z
1/2-x,y,1/2-z
1/2-x,1/2-y,-z
1/2+x,y,1/2-z
1/2-x,1/2+y,z
1/2+x,-y,1/2+z
loop_
_atom_site_type_symbol
_atom_site_label
_atom_site_fract_x
_atom_site_fract_y
_atom_site_fract_z
Si Si1 0.099564 0.226469 0.754986
Si Si2 0.891510 0.128332 0.579956
Si Si3 0.000000 0.110249 0.200646
Si Si4 0.255413 0.110780 0.997400
Si Si5 0.000000 0.596425 0.641765
Si Si6 0.000000 0.471606 0.884357
Si Si7 0.000000 0.766705 0.512688
Si Si8 0.220891 0.743158 0.153612
O O1 0.129271 0.166540 0.674439
O O2 0.058168 0.315096 0.713878
O O3 0.058360 0.144575 0.805340
O O4 0.148471 0.273214 0.822053
O O5 0.830056 0.112416 0.523292
O O6 0.937454 0.212165 0.541298
O O7 0.938415 0.033984 0.588739
O O8 0.000000 0.036940 0.282692
O O9 0.000000 0.022916 0.129429
O O10 0.225038 0.166686 0.915421
O O11 0.247938 0.159149 0.092537
O O12 0.231518 0.000000 0.000000
O O13 0.000000 0.659315 0.553643
O O14 0.000000 0.358800 0.918811
O O15 0.250000 0.754162 0.250000
#
# Coordination Sequence:
#
# PCOD9481661 Si02
#       8
#    16  16   8  16   8   8   8  16
#     4  11  22  41  66  90 137 174 212 276 333 402
#     4  11  21  38  63  97 130 175 222 273 334 398
#     4  11  22  37  61 101 122 171 229 263 332 406
#     4  11  25  44  72 100 133 174 237 285 329 405
#     4  11  21  38  60  98 129 168 214 271 340 395
#     4  11  19  34  62  99 130 163 221 274 331 393
#     4  11  20  33  60  95 138 169 209 277 336 390
#     4  11  25  48  68  99 136 183 222 277 351 399
#
# _framework density 21.701805
#
# number of rings (size 3 to 8) (size 9 to 14) (size 15 to 20)
#    0.000    1.000    5.000    4.500    2.333    0.667 
#    3.000    1.667    0.000    0.000    0.000    0.583 
#    0.000    0.000    0.000    0.000    0.000    0.000 
#
# Total GULP energy -267843.630971 kJ/mol
# GULP energy per Si atom -5580.075645 kJ/mol
# Density = 2.165241 g / cm^3
# Si number density = 21.701805 Si / 1000 Ang^3
#
#
#
# Elastic Constant Matrix: (Units=GPa)
#
#
# Indices 1 2 3 4 5 6 
#
# 1 38.9521 15.0834 5.6736 0.0000 0.0000 0.0000
# 2 15.0834 141.5055 46.6951 0.0000 0.0000 0.0000
# 3 5.6736 46.6951 124.9470 0.0000 0.0000 0.0000
# 4 0.0000 0.0000 0.0000 27.2543 0.0000 0.0000
# 5 0.0000 0.0000 0.0000 0.0000 24.5395 0.0000
# 6 0.0000 0.0000 0.0000 0.0000 0.0000 8.8709
#
#
#
# Elastic Compliance Matrix: (Units=1/GPa)
#
#
# Indices 1 2 3 4 5 6 
#
# 1 0.026781 -0.002798 -0.000170 0.000000 0.000000 0.000000
# 2 -0.002798 0.008353 -0.002995 0.000000 0.000000 0.000000
# 3 -0.000170 -0.002995 0.009130 0.000000 0.000000 0.000000
# 4 0.000000 0.000000 0.000000 0.036691 0.000000 0.000000
# 5 0.000000 0.000000 0.000000 0.000000 0.040751 0.000000
# 6 0.000000 0.000000 0.000000 0.000000 0.000000 0.112728
#
#
# Mechanical properties :
#
#
# Convention : Reuss Voigt Hill
#
# Bulk Modulus (GPa) = 30.92357 48.92318 39.92338
# Shear Modulus (GPa) = 19.44457 27.99645 23.72051
#
# Velocity S-wave (km/s) = 2.99655 3.59563 3.30967
# Velocity P-wave (km/s) = 5.12374 6.31113 5.74817
#
# Compressibility (1/GPa) = 0.03233779
#
# Stress axis : x y z
#
# Youngs Moduli (GPa) = 37.33995 119.71191 109.52521
#
# Poissons Ratio (x) = 0.33501 0.01864
# Poissons Ratio (y) = 0.10449 0.32800
# Poissons Ratio (z) = 0.00636 0.35851
#
# Static dielectric constant tensor:
#      x y z
#    x 1.809300 0.000000 0.000000 
#    y 0.000000 1.818800 0.000000 
#    z 0.000000 0.000000 1.838610 
# 
# From -- ./inp_files/27367.got.cif
#   From: 2010.05.17/outbox.cif.g08.bks.cpg/sg64_14_cif.got.tgz:27367.got - 2010.06.03 16:29:19.
