data_PCOD9481911
_publ_section_title
;
Structure prediction by ZEFSAII (Michael W. Deem and Ramdas Pophale) SiO2 
 PCOD9481911
Probable space group: C M C A
;
_chemical_formula_sum "Si O2"
_cell_formula_units_Z 116
_cell_length_a 25.656433
_cell_length_b 26.238168
_cell_length_c 8.174702
_cell_angle_alpha 90.000000
_cell_angle_beta 90.000000
_cell_angle_gamma 90.000000
_cell_volume 5503.027903
_symmetry_space_group_name_H-M "C M C A"
_symmetry_group_IT_number 64
_symmetry_cell_setting 'orthorhombic'
loop_
_space_group_symop_operation_xyz
x,y,z
-x,1/2-y,1/2+z
x,-y,-z
-x,1/2+y,1/2-z
-x,-y,-z
x,1/2+y,1/2-z
-x,y,z
x,1/2-y,1/2+z
1/2+x,1/2+y,z
1/2-x,-y,1/2+z
1/2+x,1/2-y,-z
1/2-x,y,1/2-z
1/2-x,1/2-y,-z
1/2+x,y,1/2-z
1/2-x,1/2+y,z
1/2+x,-y,1/2+z
loop_
_atom_site_type_symbol
_atom_site_label
_atom_site_fract_x
_atom_site_fract_y
_atom_site_fract_z
Si Si1 0.133413 0.196694 0.178221
Si Si2 0.910000 0.932885 0.091992
Si Si3 0.867022 0.701050 0.944885
Si Si4 0.060423 0.321322 0.358329
Si Si5 0.810671 0.592112 0.372464
Si Si6 0.340136 0.009231 0.814891
Si Si7 0.000000 0.000000 0.000000
Si Si8 0.283820 0.113075 0.893830
O O1 0.114563 0.204668 0.366123
O O2 0.162629 0.246993 0.109339
O O3 0.169654 0.146687 0.192119
O O4 0.090466 0.188489 0.032427
O O5 0.933255 0.881956 0.167342
O O6 0.892238 0.974584 0.222513
O O7 0.954456 0.956420 0.981566
O O8 0.855863 0.920128 0.004088
O O9 0.911755 0.699952 0.805333
O O10 0.831399 0.650829 0.929697
O O11 0.000000 0.306395 0.369784
O O12 0.814222 0.541216 0.261858
O O13 0.754956 0.601098 0.456456
O O14 0.303746 0.059117 0.823217
O O15 0.354155 0.000000 0.000000
O O16 0.250000 0.138121 0.750000
#
# Coordination Sequence:
#
# PCOD9481911 Si02
#       8
#    16  16  16  16  16  16   4  16
#     4  11  26  48  72 101 144 186 243 302 357 434
#     4  11  22  42  69 100 138 189 238 286 355 428
#     4  12  25  49  72 103 145 186 243 306 359 439
#     4  11  24  46  76 105 142 186 239 301 370 432
#     4  11  25  45  66 104 140 183 240 292 351 432
#     4  12  25  40  68 101 150 185 232 297 348 425
#     4  12  20  40  78 100 128 204 234 284 362 418
#     4  12  26  43  72 103 142 192 240 294 369 426
#
# _framework density 21.079305999999999
#
# number of rings (size 3 to 8) (size 9 to 14) (size 15 to 20)
#    0.000    0.552    6.207    1.655    1.931    3.310 
#    0.000    0.345    6.069    0.000    0.000    0.000 
#    0.000    0.000    0.000    0.000    0.000    0.000 
#
# Total GULP energy -322977.021599 kJ/mol
# GULP energy per Si atom -5568.569338 kJ/mol
# Density = 2.103133 g / cm^3
# Si number density = 21.079306 Si / 1000 Ang^3
#
#
#
# Elastic Constant Matrix: (Units=GPa)
#
#
# Indices 1 2 3 4 5 6 
#
# 1 102.0601 40.7743 55.3862 0.0000 0.0000 0.0000
# 2 40.7743 142.1997 48.3476 0.0000 0.0000 0.0000
# 3 55.3862 48.3476 144.5043 0.0000 0.0000 0.0000
# 4 0.0000 0.0000 0.0000 31.5973 0.0000 0.0000
# 5 0.0000 0.0000 0.0000 0.0000 13.7791 0.0000
# 6 0.0000 0.0000 0.0000 0.0000 0.0000 7.5655
#
#
#
# Elastic Compliance Matrix: (Units=1/GPa)
#
#
# Indices 1 2 3 4 5 6 
#
# 1 0.013003 -0.002295 -0.004216 0.000000 0.000000 0.000000
# 2 -0.002295 0.008340 -0.001911 0.000000 0.000000 0.000000
# 3 -0.004216 -0.001911 0.009175 0.000000 0.000000 0.000000
# 4 0.000000 0.000000 0.000000 0.031648 0.000000 0.000000
# 5 0.000000 0.000000 0.000000 0.000000 0.072574 0.000000
# 6 0.000000 0.000000 0.000000 0.000000 0.000000 0.132178
#
#
# Mechanical properties :
#
#
# Convention : Reuss Voigt Hill
#
# Bulk Modulus (GPa) = 73.12630 75.30893 74.21761
# Shear Modulus (GPa) = 17.34181 26.87212 22.10696
#
# Velocity S-wave (km/s) = 2.87138 3.57432 3.24196
# Velocity P-wave (km/s) = 6.76457 7.26900 7.02132
#
# Compressibility (1/GPa) = 0.01367497
#
# Stress axis : x y z
#
# Youngs Moduli (GPa) = 76.90545 119.90273 108.98698
#
# Poissons Ratio (x) = 0.27518 0.45949
# Poissons Ratio (y) = 0.17650 0.20824
# Poissons Ratio (z) = 0.32423 0.22910
#
# Static dielectric constant tensor:
#      x y z
#    x 1.761600 0.000000 0.000000 
#    y 0.000000 1.850480 0.000000 
#    z 0.000000 0.000000 1.878810 
# 
# From -- ./inp_files/10661.got.cif
#   From: 2010.05.17/outbox.cif.g08.bks.cpg/sg64_6_cif.got.tgz:10661.got - 2010.06.03 16:29:19.
