data_PCOD9481768
_publ_section_title
;
Structure prediction by ZEFSAII (Michael W. Deem and Ramdas Pophale) SiO2 
 PCOD9481768
Probable space group: C M C A
;
_chemical_formula_sum "Si O2"
_cell_formula_units_Z 68
_cell_length_a 21.601585
_cell_length_b 8.112345
_cell_length_c 15.099776
_cell_angle_alpha 90.000000
_cell_angle_beta 90.000000
_cell_angle_gamma 90.000000
_cell_volume 2646.077348
_symmetry_space_group_name_H-M "C M C A"
_symmetry_group_IT_number 64
_symmetry_cell_setting 'orthorhombic'
loop_
_space_group_symop_operation_xyz
x,y,z
-x,1/2-y,1/2+z
x,-y,-z
-x,1/2+y,1/2-z
-x,-y,-z
x,1/2+y,1/2-z
-x,y,z
x,1/2-y,1/2+z
1/2+x,1/2+y,z
1/2-x,-y,1/2+z
1/2+x,1/2-y,-z
1/2-x,y,1/2-z
1/2-x,1/2-y,-z
1/2+x,y,1/2-z
1/2-x,1/2+y,z
1/2+x,-y,1/2+z
loop_
_atom_site_type_symbol
_atom_site_label
_atom_site_fract_x
_atom_site_fract_y
_atom_site_fract_z
Si Si1 0.191675 0.251693 0.184884
Si Si2 0.000000 0.000000 0.500000
Si Si3 0.068963 0.388471 0.638425
Si Si4 0.908314 0.764460 0.063944
Si Si5 0.789762 0.915172 0.593360
O O1 0.250000 0.227505 0.250000
O O2 0.123647 0.180829 0.199615
O O3 0.191302 0.443944 0.162902
O O4 0.220015 0.147591 0.103254
O O5 0.946302 0.094068 0.438748
O O6 0.069228 0.584941 0.624603
O O7 0.082147 0.319397 0.538871
O O8 0.000000 0.332448 0.663657
O O9 0.838211 0.732987 0.093195
O O10 0.797310 0.000000 0.500000
#
# Coordination Sequence:
#
# PCOD9481768 Si02
#       5
#    16   4  16  16  16
#     4  12  27  46  71 103 152 200 254 309 380 451
#     4  12  16  34  56 104 160 174 230 288 372 414
#     4  11  22  42  70 109 153 194 240 305 381 444
#     4  11  21  36  69 111 149 187 239 309 362 442
#     4  12  24  43  71 106 142 194 256 313 363 443
#
# _framework density 25.698415000000001
#
# number of rings (size 3 to 8) (size 9 to 14) (size 15 to 20)
#    0.000    0.471    5.882    3.529    3.294    0.000 
#    0.000    1.176    2.588    4.235    0.000    0.000 
#    0.000    0.000    0.000    0.000    0.000    0.000 
#
# Total GULP energy -189810.449841 kJ/mol
# GULP energy per Si atom -5582.660289 kJ/mol
# Density = 2.563992 g / cm^3
# Si number density = 25.698415 Si / 1000 Ang^3
#
#
#
# Elastic Constant Matrix: (Units=GPa)
#
#
# Indices 1 2 3 4 5 6 
#
# 1 231.0392 59.5886 37.2140 0.0000 0.0000 0.0000
# 2 59.5886 108.0897 12.3096 0.0000 0.0000 0.0000
# 3 37.2140 12.3096 44.1768 0.0000 0.0000 0.0000
# 4 0.0000 0.0000 0.0000 17.9207 0.0000 0.0000
# 5 0.0000 0.0000 0.0000 0.0000 -10.6118 0.0000
# 6 0.0000 0.0000 0.0000 0.0000 0.0000 -24.6109
#
#
#
# Elastic Compliance Matrix: (Units=1/GPa)
#
#
# Indices 1 2 3 4 5 6 
#
# 1 0.005664 -0.002664 -0.004029 0.000000 0.000000 0.000000
# 2 -0.002664 0.010808 -0.000768 0.000000 0.000000 0.000000
# 3 -0.004029 -0.000768 0.026244 0.000000 0.000000 0.000000
# 4 0.000000 0.000000 0.000000 0.055801 0.000000 0.000000
# 5 0.000000 0.000000 0.000000 0.000000 -0.094234 0.000000
# 6 0.000000 0.000000 0.000000 0.000000 0.000000 -0.040632
#
#
# Mechanical properties :
#
#
# Convention : Reuss Voigt Hill
#
# Bulk Modulus (GPa) = 35.97767 66.83669 51.40718
# Shear Modulus (GPa) = -411.07571 14.81917 -198.12827
#
# Velocity S-wave (km/s) = -12.66131 2.40397 -8.79004
# Velocity P-wave (km/s) = 14.13204 5.81120 9.10891
#
# Compressibility (1/GPa) = 0.02779502
#
# Stress axis : x y z
#
# Youngs Moduli (GPa) = 176.54395 92.52830 38.10338
#
# Poissons Ratio (x) = 0.24648 0.15353
# Poissons Ratio (y) = 0.47028 0.02924
# Poissons Ratio (z) = 0.71135 0.07102
#
# Static dielectric constant tensor:
#      x y z
#    x 2.129440 0.000000 0.000000 
#    y 0.000000 2.015760 0.000000 
#    z 0.000000 0.000000 2.240410 
# 
# From -- ./inp_files/33949.got.cif
#   From: 2010.05.17/outbox.cif.g08.bks.cpg/sg64_17_cif.got.tgz:33949.got - 2010.06.03 16:29:19.
