data_PCOD9481310
_publ_section_title
;
Structure prediction by ZEFSAII (Michael W. Deem and Ramdas Pophale) SiO2 
 PCOD9481310
Probable space group: C M C A
;
_chemical_formula_sum "Si O2"
_cell_formula_units_Z 104
_cell_length_a 7.582858
_cell_length_b 24.819341
_cell_length_c 21.013681
_cell_angle_alpha 90.000000
_cell_angle_beta 90.000000
_cell_angle_gamma 90.000000
_cell_volume 3954.807093
_symmetry_space_group_name_H-M "C M C A"
_symmetry_group_IT_number 64
_symmetry_cell_setting 'orthorhombic'
loop_
_space_group_symop_operation_xyz
x,y,z
-x,1/2-y,1/2+z
x,-y,-z
-x,1/2+y,1/2-z
-x,-y,-z
x,1/2+y,1/2-z
-x,y,z
x,1/2-y,1/2+z
1/2+x,1/2+y,z
1/2-x,-y,1/2+z
1/2+x,1/2-y,-z
1/2-x,y,1/2-z
1/2-x,1/2-y,-z
1/2+x,y,1/2-z
1/2-x,1/2+y,z
1/2+x,-y,1/2+z
loop_
_atom_site_type_symbol
_atom_site_label
_atom_site_fract_x
_atom_site_fract_y
_atom_site_fract_z
Si Si1 0.699531 0.057997 0.515118
Si Si2 0.791827 0.445608 0.680555
Si Si3 0.250000 0.267506 0.750000
Si Si4 0.789531 0.834100 0.631717
Si Si5 0.198947 0.823286 0.494267
Si Si6 0.707978 0.816368 0.150563
Si Si7 0.696623 0.063510 0.665815
O O1 0.500000 0.060835 0.486857
O O2 0.804028 0.111870 0.501445
O O3 0.679069 0.058824 0.590415
O O4 0.778522 0.000000 0.500000
O O5 0.750000 0.423652 0.750000
O O6 0.730195 0.398986 0.633464
O O7 0.714257 0.506200 0.680948
O O8 0.000000 0.452208 0.670706
O O9 0.305222 0.309525 0.806040
O O10 0.187921 0.222477 0.801972
O O11 0.723534 0.809786 0.564030
O O12 0.000000 0.823372 0.638094
O O13 0.273227 0.812856 0.423301
O O14 0.000000 0.801755 0.494059
O O15 0.500000 0.801082 0.152595
O O16 0.718268 0.878157 0.174177
O O17 0.500000 0.065894 0.695067
#
# Coordination Sequence:
#
# PCOD9481310 Si02
#       7
#    16  16   8  16  16  16  16
#     4   9  16  30  54  86 124 161 198 244 301 367
#     4  11  23  39  62  94 132 171 211 257 312 378
#     4  12  26  42  66  92 122 166 218 270 322 388
#     4  11  24  43  66  93 127 168 213 266 323 382
#     4   9  20  39  62  89 122 160 208 262 318 377
#     4  10  23  43  66  94 127 167 214 265 320 381
#     4   9  20  37  59  91 128 165 204 250 308 372
#
# _framework density 26.297111999999998
#
# number of rings (size 3 to 8) (size 9 to 14) (size 15 to 20)
#    0.000    2.000    0.769    1.846    1.077    5.846 
#    0.000    3.077    0.000    0.000    0.000    0.000 
#    0.000    0.000    0.000    0.000    0.000    0.000 
#
# Total GULP energy -289722.829590 kJ/mol
# GULP energy per Si atom -5571.592877 kJ/mol
# Density = 2.623726 g / cm^3
# Si number density = 26.297112 Si / 1000 Ang^3
#
#
#
# Elastic Constant Matrix: (Units=GPa)
#
#
# Indices 1 2 3 4 5 6 
#
# 1 98.0069 18.7580 17.6676 0.0000 0.0000 0.0000
# 2 18.7580 188.1008 31.9581 0.0000 0.0000 0.0000
# 3 17.6676 31.9581 220.1650 0.0000 0.0000 0.0000
# 4 0.0000 0.0000 0.0000 40.9177 0.0000 0.0000
# 5 0.0000 0.0000 0.0000 0.0000 -65.5333 0.0000
# 6 0.0000 0.0000 0.0000 0.0000 0.0000 -73.5524
#
#
#
# Elastic Compliance Matrix: (Units=1/GPa)
#
#
# Indices 1 2 3 4 5 6 
#
# 1 0.010509 -0.000928 -0.000709 0.000000 0.000000 0.000000
# 2 -0.000928 0.005533 -0.000729 0.000000 0.000000 0.000000
# 3 -0.000709 -0.000729 0.004705 0.000000 0.000000 0.000000
# 4 0.000000 0.000000 0.000000 0.024439 0.000000 0.000000
# 5 0.000000 0.000000 0.000000 0.000000 -0.015259 0.000000
# 6 0.000000 0.000000 0.000000 0.000000 0.000000 -0.013596
#
#
# Mechanical properties :
#
#
# Convention : Reuss Voigt Hill
#
# Bulk Modulus (GPa) = 62.43676 71.44890 66.94283
# Shear Modulus (GPa) = 189.40491 9.55900 99.48195
#
# Velocity S-wave (km/s) = 8.49596 1.90864 6.15728
# Velocity P-wave (km/s) = 10.95610 5.66445 8.72130
#
# Compressibility (1/GPa) = 0.01601620
#
# Stress axis : x y z
#
# Youngs Moduli (GPa) = 95.15983 180.74707 212.55414
#
# Poissons Ratio (x) = 0.16765 0.15063
# Poissons Ratio (y) = 0.08827 0.15488
# Poissons Ratio (z) = 0.06744 0.13170
#
# Static dielectric constant tensor:
#      x y z
#    x 2.203230 0.000000 0.000000 
#    y 0.000000 2.073620 0.000000 
#    z 0.000000 0.000000 2.122440 
# 
# From -- ./inp_files/37276.got.cif
#   From: 2010.05.17/outbox.cif.g08.bks.cpg/sg64_19_cif.got.tgz:37276.got - 2010.06.03 16:29:19.
