data_PCOD9481097
_publ_section_title
;
Structure prediction by ZEFSAII (Michael W. Deem and Ramdas Pophale) SiO2 
 PCOD9481097
Probable space group: C M C A
;
_chemical_formula_sum "Si O2"
_cell_formula_units_Z 88
_cell_length_a 12.768589
_cell_length_b 18.022624
_cell_length_c 20.029825
_cell_angle_alpha 90.000000
_cell_angle_beta 90.000000
_cell_angle_gamma 90.000000
_cell_volume 4609.333004
_symmetry_space_group_name_H-M "C M C A"
_symmetry_group_IT_number 64
_symmetry_cell_setting 'orthorhombic'
loop_
_space_group_symop_operation_xyz
x,y,z
-x,1/2-y,1/2+z
x,-y,-z
-x,1/2+y,1/2-z
-x,-y,-z
x,1/2+y,1/2-z
-x,y,z
x,1/2-y,1/2+z
1/2+x,1/2+y,z
1/2-x,-y,1/2+z
1/2+x,1/2-y,-z
1/2-x,y,1/2-z
1/2-x,1/2-y,-z
1/2+x,y,1/2-z
1/2-x,1/2+y,z
1/2+x,-y,1/2+z
loop_
_atom_site_type_symbol
_atom_site_label
_atom_site_fract_x
_atom_site_fract_y
_atom_site_fract_z
Si Si1 0.122233 0.440379 0.552777
Si Si2 0.778074 0.437395 0.828945
Si Si3 0.250000 0.322632 0.250000
Si Si4 0.373827 0.408432 0.366688
Si Si5 0.378157 0.775618 0.842425
Si Si6 0.714395 0.821090 0.459713
O O1 0.165172 0.500000 0.500000
O O2 0.176868 0.445474 0.623952
O O3 0.144917 0.365833 0.512398
O O4 0.000000 0.453058 0.561845
O O5 0.750000 0.443553 0.750000
O O6 0.853736 0.503669 0.854716
O O7 0.822152 0.355447 0.845157
O O8 0.311261 0.371570 0.304391
O O9 0.337782 0.267476 0.222047
O O10 0.500000 0.394033 0.369099
O O11 0.309505 0.371649 0.429300
O O12 0.500000 0.789731 0.841711
O O13 0.349724 0.715913 0.899480
O O14 0.750000 0.750000 0.500000
#
# Coordination Sequence:
#
# PCOD9481097 Si02
#       6
#    16  16   8  16  16  16
#     4  11  24  45  70  93 128 179 225 273 332 391
#     4  12  24  45  64 101 142 171 225 276 329 414
#     4  10  22  44  60  92 136 166 226 268 310 406
#     4  11  24  42  68  95 131 178 216 271 337 389
#     4  11  23  40  66  94 129 175 218 274 332 382
#     4  11  23  44  65  95 132 163 223 279 324 400
#
# _framework density 19.091698999999998
#
# number of rings (size 3 to 8) (size 9 to 14) (size 15 to 20)
#    0.000    0.909    5.455    1.636    0.000    2.909 
#    0.000    0.909    0.000    0.000    0.000    0.000 
#    0.000    0.000    0.000    0.000    0.000    0.000 
#
# Total GULP energy -245242.465574 kJ/mol
# GULP energy per Si atom -5573.692399 kJ/mol
# Density = 1.904825 g / cm^3
# Si number density = 19.091699 Si / 1000 Ang^3
#
#
#
# Elastic Constant Matrix: (Units=GPa)
#
#
# Indices 1 2 3 4 5 6 
#
# 1 103.4095 9.3661 41.9877 0.0000 0.0000 0.0000
# 2 9.3661 86.9041 17.1642 0.0000 0.0000 0.0000
# 3 41.9877 17.1642 104.1916 0.0000 0.0000 0.0000
# 4 0.0000 0.0000 0.0000 53.7355 0.0000 0.0000
# 5 0.0000 0.0000 0.0000 0.0000 21.5655 0.0000
# 6 0.0000 0.0000 0.0000 0.0000 0.0000 19.5253
#
#
#
# Elastic Compliance Matrix: (Units=1/GPa)
#
#
# Indices 1 2 3 4 5 6 
#
# 1 0.011572 -0.000337 -0.004608 0.000000 0.000000 0.000000
# 2 -0.000337 0.011904 -0.001825 0.000000 0.000000 0.000000
# 3 -0.004608 -0.001825 0.011755 0.000000 0.000000 0.000000
# 4 0.000000 0.000000 0.000000 0.018610 0.000000 0.000000
# 5 0.000000 0.000000 0.000000 0.000000 0.046370 0.000000
# 6 0.000000 0.000000 0.000000 0.000000 0.000000 0.051216
#
#
# Mechanical properties :
#
#
# Convention : Reuss Voigt Hill
#
# Bulk Modulus (GPa) = 46.10251 47.94903 47.02577
# Shear Modulus (GPa) = 29.03661 34.03108 31.53385
#
# Velocity S-wave (km/s) = 3.90411 4.22655 4.06853
# Velocity P-wave (km/s) = 6.67256 6.99914 6.83780
#
# Compressibility (1/GPa) = 0.02169079
#
# Stress axis : x y z
#
# Youngs Moduli (GPa) = 86.41775 84.00715 85.06877
#
# Poissons Ratio (x) = 0.02832 0.39197
# Poissons Ratio (y) = 0.02913 0.15526
# Poissons Ratio (z) = 0.39819 0.15332
#
# Static dielectric constant tensor:
#      x y z
#    x 1.646170 0.000000 0.000000 
#    y 0.000000 1.643490 0.000000 
#    z 0.000000 0.000000 1.683290 
# 
# From -- ./inp_files/38119.got.cif
#   From: 2010.05.17/outbox.cif.g08.bks.cpg/sg64_20_cif.got.tgz:38119.got - 2010.06.03 16:29:19.
