data_PCOD9481498
_publ_section_title
;
Structure prediction by ZEFSAII (Michael W. Deem and Ramdas Pophale) SiO2 
 PCOD9481498
Probable space group: C M C A
;
_chemical_formula_sum "Si O2"
_cell_formula_units_Z 112
_cell_length_a 14.955817
_cell_length_b 27.988947
_cell_length_c 14.084124
_cell_angle_alpha 90.000000
_cell_angle_beta 90.000000
_cell_angle_gamma 90.000000
_cell_volume 5895.580073
_symmetry_space_group_name_H-M "C M C A"
_symmetry_group_IT_number 64
_symmetry_cell_setting 'orthorhombic'
loop_
_space_group_symop_operation_xyz
x,y,z
-x,1/2-y,1/2+z
x,-y,-z
-x,1/2+y,1/2-z
-x,-y,-z
x,1/2+y,1/2-z
-x,y,z
x,1/2-y,1/2+z
1/2+x,1/2+y,z
1/2-x,-y,1/2+z
1/2+x,1/2-y,-z
1/2-x,y,1/2-z
1/2-x,1/2-y,-z
1/2+x,y,1/2-z
1/2-x,1/2+y,z
1/2+x,-y,1/2+z
loop_
_atom_site_type_symbol
_atom_site_label
_atom_site_fract_x
_atom_site_fract_y
_atom_site_fract_z
Si Si1 0.738926 0.282311 0.857771
Si Si2 0.835018 0.389522 0.656867
Si Si3 0.391906 0.279308 0.487234
Si Si4 0.500000 0.969446 0.350284
Si Si5 0.654882 0.964396 0.203460
Si Si6 0.149404 0.431853 0.858930
Si Si7 0.000000 0.426290 0.557446
Si Si8 0.101523 0.110984 0.559229
O O1 0.750000 0.264135 0.750000
O O2 0.710000 0.337818 0.849498
O O3 0.659505 0.256080 0.915263
O O4 0.832065 0.277417 0.916256
O O5 0.870934 0.402596 0.762182
O O6 0.756966 0.427324 0.634150
O O7 0.913622 0.395871 0.583254
O O8 0.500000 0.271186 0.498384
O O9 0.379698 0.332866 0.446154
O O10 0.585389 0.956193 0.287827
O O11 0.500000 0.942767 0.449873
O O12 0.500000 0.025919 0.376746
O O13 0.750000 0.973661 0.250000
O O14 0.659851 0.920889 0.129795
O O15 0.623830 0.013076 0.151670
O O16 0.109659 0.408522 0.952315
O O17 0.000000 0.104081 0.592477
#
# Coordination Sequence:
#
# PCOD9481498 Si02
#       8
#    16  16  16   8  16  16   8  16
#     4  11  22  43  70  97 129 160 212 275 327 385
#     4  11  21  40  62  99 121 162 208 265 317 383
#     4  10  24  44  65  95 131 168 212 260 324 399
#     4  11  24  42  56  90 125 178 219 255 315 376
#     4  12  24  40  61  88 127 171 217 261 304 382
#     4  11  21  40  62  94 125 156 213 257 321 368
#     4  11  24  38  63  83 136 167 211 267 315 375
#     4  11  24  40  64  89 125 169 207 259 313 373
#
# _framework density 18.997281999999998
#
# number of rings (size 3 to 8) (size 9 to 14) (size 15 to 20)
#    0.000    1.000    6.429    0.429    5.000    1.714 
#    0.000    1.429    0.000    0.000    0.000    0.000 
#    0.000    0.000    0.000    0.000    0.000    0.000 
#
# Total GULP energy -312690.579530 kJ/mol
# GULP energy per Si atom -5583.760349 kJ/mol
# Density = 1.895404 g / cm^3
# Si number density = 18.997282 Si / 1000 Ang^3
#
#
#
# Elastic Constant Matrix: (Units=GPa)
#
#
# Indices 1 2 3 4 5 6 
#
# 1 97.2775 38.0424 45.5608 0.0000 0.0000 0.0000
# 2 38.0424 66.9597 39.0232 0.0000 0.0000 0.0000
# 3 45.5608 39.0232 89.3807 0.0000 0.0000 0.0000
# 4 0.0000 0.0000 0.0000 23.7300 0.0000 0.0000
# 5 0.0000 0.0000 0.0000 0.0000 13.2060 0.0000
# 6 0.0000 0.0000 0.0000 0.0000 0.0000 25.3272
#
#
#
# Elastic Compliance Matrix: (Units=1/GPa)
#
#
# Indices 1 2 3 4 5 6 
#
# 1 0.014825 -0.005390 -0.005204 0.000000 0.000000 0.000000
# 2 -0.005390 0.021991 -0.006854 0.000000 0.000000 0.000000
# 3 -0.005204 -0.006854 0.016833 0.000000 0.000000 0.000000
# 4 0.000000 0.000000 0.000000 0.042141 0.000000 0.000000
# 5 0.000000 0.000000 0.000000 0.000000 0.075723 0.000000
# 6 0.000000 0.000000 0.000000 0.000000 0.000000 0.039483
#
#
# Mechanical properties :
#
#
# Convention : Reuss Voigt Hill
#
# Bulk Modulus (GPa) = 53.32152 55.43009 54.37581
# Shear Modulus (GPa) = 19.83015 21.18541 20.50778
#
# Velocity S-wave (km/s) = 3.23436 3.34306 3.28916
# Velocity P-wave (km/s) = 6.48668 6.64399 6.56581
#
# Compressibility (1/GPa) = 0.01875415
#
# Stress axis : x y z
#
# Youngs Moduli (GPa) = 67.45411 45.47356 59.40783
#
# Poissons Ratio (x) = 0.24510 0.30913
# Poissons Ratio (y) = 0.36358 0.40716
# Poissons Ratio (z) = 0.35100 0.31166
#
# Static dielectric constant tensor:
#      x y z
#    x 1.674720 0.000000 0.000000 
#    y 0.000000 1.656470 0.000000 
#    z 0.000000 0.000000 1.646320 
# 
# From -- ./inp_files/24447.got.cif
#   From: 2010.05.17/outbox.cif.g08.bks.cpg/sg64_13_cif.got.tgz:24447.got - 2010.06.03 16:29:19.
