data_PCOD9481023
_publ_section_title
;
Structure prediction by ZEFSAII (Michael W. Deem and Ramdas Pophale) SiO2 
 PCOD9481023
Probable space group: C M C A
;
_chemical_formula_sum "Si O2"
_cell_formula_units_Z 88
_cell_length_a 13.884966
_cell_length_b 19.692578
_cell_length_c 14.595646
_cell_angle_alpha 90.000000
_cell_angle_beta 90.000000
_cell_angle_gamma 90.000000
_cell_volume 3990.898812
_symmetry_space_group_name_H-M "C M C A"
_symmetry_group_IT_number 64
_symmetry_cell_setting 'orthorhombic'
loop_
_space_group_symop_operation_xyz
x,y,z
-x,1/2-y,1/2+z
x,-y,-z
-x,1/2+y,1/2-z
-x,-y,-z
x,1/2+y,1/2-z
-x,y,z
x,1/2-y,1/2+z
1/2+x,1/2+y,z
1/2-x,-y,1/2+z
1/2+x,1/2-y,-z
1/2-x,y,1/2-z
1/2-x,1/2-y,-z
1/2+x,y,1/2-z
1/2-x,1/2+y,z
1/2+x,-y,1/2+z
loop_
_atom_site_type_symbol
_atom_site_label
_atom_site_fract_x
_atom_site_fract_y
_atom_site_fract_z
Si Si1 0.287115 0.664367 0.582815
Si Si2 0.386403 0.274792 0.800164
Si Si3 0.613906 0.261072 0.585013
Si Si4 0.500000 0.478897 0.754277
Si Si5 0.685345 0.084641 0.341391
Si Si6 0.842258 0.010675 0.596358
O O1 0.336975 0.706749 0.665019
O O2 0.344271 0.686993 0.490435
O O3 0.178791 0.693480 0.576615
O O4 0.298752 0.585848 0.603998
O O5 0.500000 0.271841 0.817372
O O6 0.374900 0.286175 0.690680
O O7 0.340801 0.336789 0.856559
O O8 0.500000 0.250469 0.569957
O O9 0.414715 0.452875 0.824281
O O10 0.415515 0.498210 0.678676
O O11 0.750000 0.085120 0.250000
O O12 0.754892 0.043664 0.407638
O O13 0.893765 0.000000 0.500000
#
# Coordination Sequence:
#
# PCOD9481023 Si02
#       6
#    16  16  16   8  16  16
#     4  11  25  44  67 107 142 181 240 296 358 424
#     4  11  23  42  74 102 135 186 236 291 357 421
#     4  10  24  42  71 102 138 183 234 297 359 419
#     4  10  23  44  69  98 136 188 239 287 346 439
#     4  10  22  42  68  99 136 181 239 287 356 428
#     4  11  27  44  70 104 146 190 235 303 362 429
#
# _framework density 22.050170000000001
#
# number of rings (size 3 to 8) (size 9 to 14) (size 15 to 20)
#    0.000    1.455    0.909    2.455   12.727    4.364 
#    4.909    0.455    0.000    0.000    0.000    0.000 
#    0.000    0.000    0.000    0.000    0.000    0.000 
#
# Total GULP energy -244951.481620 kJ/mol
# GULP energy per Si atom -5567.079128 kJ/mol
# Density = 2.199998 g / cm^3
# Si number density = 22.050170 Si / 1000 Ang^3
#
#
#
# Elastic Constant Matrix: (Units=GPa)
#
#
# Indices 1 2 3 4 5 6 
#
# 1 196.7270 50.3701 24.8052 0.0000 0.0000 0.0000
# 2 50.3701 64.1012 8.7935 0.0000 0.0000 0.0000
# 3 24.8052 8.7935 61.8598 0.0000 0.0000 0.0000
# 4 0.0000 0.0000 0.0000 21.2870 0.0000 0.0000
# 5 0.0000 0.0000 0.0000 0.0000 23.5082 0.0000
# 6 0.0000 0.0000 0.0000 0.0000 0.0000 -0.5769
#
#
#
# Elastic Compliance Matrix: (Units=1/GPa)
#
#
# Indices 1 2 3 4 5 6 
#
# 1 0.006585 -0.004908 -0.001943 0.000000 0.000000 0.000000
# 2 -0.004908 0.019568 -0.000814 0.000000 0.000000 0.000000
# 3 -0.001943 -0.000814 0.017060 0.000000 0.000000 0.000000
# 4 0.000000 0.000000 0.000000 0.046977 0.000000 0.000000
# 5 0.000000 0.000000 0.000000 0.000000 0.042538 0.000000
# 6 0.000000 0.000000 0.000000 0.000000 0.000000 -1.733339
#
#
# Mechanical properties :
#
#
# Convention : Reuss Voigt Hill
#
# Bulk Modulus (GPa) = 35.86158 54.51395 45.18777
# Shear Modulus (GPa) = -3.17262 24.75826 10.79282
#
# Velocity S-wave (km/s) = -1.20081 3.35448 2.21479
# Velocity P-wave (km/s) = 3.79162 6.30712 5.20366
#
# Compressibility (1/GPa) = 0.02788499
#
# Stress axis : x y z
#
# Youngs Moduli (GPa) = 151.86666 51.10279 58.61562
#
# Poissons Ratio (x) = 0.25080 0.11388
# Poissons Ratio (y) = 0.74532 0.04770
# Poissons Ratio (z) = 0.29504 0.04158
#
# Static dielectric constant tensor:
#      x y z
#    x 1.775020 0.000000 0.000000 
#    y 0.000000 1.823450 0.000000 
#    z 0.000000 0.000000 1.868190 
# 
# From -- ./inp_files/23761.got.cif
#   From: 2010.05.17/outbox.cif.g08.bks.cpg/sg64_12_cif.got.tgz:23761.got - 2010.06.03 16:29:19.
