data_PCOD9481663
_publ_section_title
;
Structure prediction by ZEFSAII (Michael W. Deem and Ramdas Pophale) SiO2 
 PCOD9481663
Probable space group: C M C A
;
_chemical_formula_sum "Si O2"
_cell_formula_units_Z 96
_cell_length_a 14.955648
_cell_length_b 22.000275
_cell_length_c 13.978930
_cell_angle_alpha 90.000000
_cell_angle_beta 90.000000
_cell_angle_gamma 90.000000
_cell_volume 4599.464536
_symmetry_space_group_name_H-M "C M C A"
_symmetry_group_IT_number 64
_symmetry_cell_setting 'orthorhombic'
loop_
_space_group_symop_operation_xyz
x,y,z
-x,1/2-y,1/2+z
x,-y,-z
-x,1/2+y,1/2-z
-x,-y,-z
x,1/2+y,1/2-z
-x,y,z
x,1/2-y,1/2+z
1/2+x,1/2+y,z
1/2-x,-y,1/2+z
1/2+x,1/2-y,-z
1/2-x,y,1/2-z
1/2-x,1/2-y,-z
1/2+x,y,1/2-z
1/2-x,1/2+y,z
1/2+x,-y,1/2+z
loop_
_atom_site_type_symbol
_atom_site_label
_atom_site_fract_x
_atom_site_fract_y
_atom_site_fract_z
Si Si1 0.145271 0.230514 0.221116
Si Si2 0.147564 0.129777 0.714911
Si Si3 0.900319 0.897094 0.084250
Si Si4 0.205531 0.431072 0.019891
Si Si5 0.353167 0.228455 0.493082
Si Si6 0.594918 0.345052 0.596806
O O1 0.250000 0.232373 0.250000
O O2 0.113740 0.300691 0.213815
O O3 0.131759 0.206248 0.114313
O O4 0.103189 0.188136 0.301389
O O5 0.250000 0.133750 0.750000
O O6 0.100700 0.094345 0.801178
O O7 0.154336 0.097525 0.612195
O O8 0.812201 0.928071 0.039846
O O9 0.000000 0.911802 0.047443
O O10 0.879520 0.825589 0.063922
O O11 0.179710 0.500000 0.000000
O O12 0.176045 0.388809 0.931346
O O13 0.250000 0.250000 0.500000
O O14 0.403584 0.289236 0.522325
O O15 0.500000 0.378022 0.590038
#
# Coordination Sequence:
#
# PCOD9481663 Si02
#       6
#    16  16  16  16  16  16
#     4  11  19  35  63  93 133 170 215 275 339 396
#     4   9  18  36  62  92 124 169 220 271 326 388
#     4  11  22  39  66 101 131 166 224 286 342 398
#     4  11  24  46  69  91 135 189 230 271 328 401
#     4  12  19  38  66  97 136 174 211 274 353 410
#     4  12  25  39  61  99 136 173 221 271 330 401
#
# _framework density 20.871994000000001
#
# number of rings (size 3 to 8) (size 9 to 14) (size 15 to 20)
#    0.000    1.000    6.667    1.500    0.000    2.667 
#    0.000    7.500    0.000    0.000    0.000    0.000 
#    0.000    0.000    0.000    0.000    0.000    0.000 
#
# Total GULP energy -267933.537142 kJ/mol
# GULP energy per Si atom -5581.948690 kJ/mol
# Density = 2.082449 g / cm^3
# Si number density = 20.871994 Si / 1000 Ang^3
#
#
#
# Elastic Constant Matrix: (Units=GPa)
#
#
# Indices 1 2 3 4 5 6 
#
# 1 106.9393 8.1630 33.4689 0.0000 0.0000 0.0000
# 2 8.1630 93.9095 41.3571 0.0000 0.0000 0.0000
# 3 33.4689 41.3571 133.4579 0.0000 0.0000 0.0000
# 4 0.0000 0.0000 0.0000 14.8361 0.0000 0.0000
# 5 0.0000 0.0000 0.0000 0.0000 10.4492 0.0000
# 6 0.0000 0.0000 0.0000 0.0000 0.0000 -3.4751
#
#
#
# Elastic Compliance Matrix: (Units=1/GPa)
#
#
# Indices 1 2 3 4 5 6 
#
# 1 0.010154 0.000277 -0.002632 0.000000 0.000000 0.000000
# 2 0.000277 0.012339 -0.003893 0.000000 0.000000 0.000000
# 3 -0.002632 -0.003893 0.009360 0.000000 0.000000 0.000000
# 4 0.000000 0.000000 0.000000 0.067403 0.000000 0.000000
# 5 0.000000 0.000000 0.000000 0.000000 0.095701 0.000000
# 6 0.000000 0.000000 0.000000 0.000000 0.000000 -0.287759
#
#
# Mechanical properties :
#
#
# Convention : Reuss Voigt Hill
#
# Bulk Modulus (GPa) = 51.66614 55.58718 53.62666
# Shear Modulus (GPa) = -67.70176 21.11655 -23.29260
#
# Velocity S-wave (km/s) = -5.70150 3.18420 -3.34424
# Velocity P-wave (km/s) = 4.30525 6.34106 3.29195
#
# Compressibility (1/GPa) = 0.01935504
#
# Stress axis : x y z
#
# Youngs Moduli (GPa) = 98.48575 81.04386 106.84330
#
# Poissons Ratio (x) = -0.02241 0.28122
# Poissons Ratio (y) = -0.02724 0.41595
# Poissons Ratio (z) = 0.25922 0.31551
#
# Static dielectric constant tensor:
#      x y z
#    x 1.805180 0.000000 0.000000 
#    y 0.000000 1.705360 0.000000 
#    z 0.000000 0.000000 1.787210 
# 
# From -- ./inp_files/23848.got.cif
#   From: 2010.05.17/outbox.cif.g08.bks.cpg/sg64_12_cif.got.tgz:23848.got - 2010.06.03 16:29:19.
