data_PCOD9481895
_publ_section_title
;
Structure prediction by ZEFSAII (Michael W. Deem and Ramdas Pophale) SiO2 
 PCOD9481895
Probable space group: C M C A
;
_chemical_formula_sum "Si O2"
_cell_formula_units_Z 80
_cell_length_a 27.749108
_cell_length_b 9.571051
_cell_length_c 10.559065
_cell_angle_alpha 90.000000
_cell_angle_beta 90.000000
_cell_angle_gamma 90.000000
_cell_volume 2804.362305
_symmetry_space_group_name_H-M "C M C A"
_symmetry_group_IT_number 64
_symmetry_cell_setting 'orthorhombic'
loop_
_space_group_symop_operation_xyz
x,y,z
-x,1/2-y,1/2+z
x,-y,-z
-x,1/2+y,1/2-z
-x,-y,-z
x,1/2+y,1/2-z
-x,y,z
x,1/2-y,1/2+z
1/2+x,1/2+y,z
1/2-x,-y,1/2+z
1/2+x,1/2-y,-z
1/2-x,y,1/2-z
1/2-x,1/2-y,-z
1/2+x,y,1/2-z
1/2-x,1/2+y,z
1/2+x,-y,1/2+z
loop_
_atom_site_type_symbol
_atom_site_label
_atom_site_fract_x
_atom_site_fract_y
_atom_site_fract_z
Si Si1 0.107291 0.940634 0.750674
Si Si2 0.000000 0.752274 0.009447
Si Si3 0.104919 0.173460 0.567075
Si Si4 0.750000 0.839470 0.750000
Si Si5 0.500000 0.009506 0.686082
Si Si6 0.328701 0.673036 0.866150
Si Si7 0.253513 0.500000 0.000000
O O1 0.121510 0.026815 0.623972
O O2 0.050963 0.982242 0.751144
O O3 0.141251 0.031663 0.843316
O O4 0.107395 0.785546 0.813665
O O5 0.049504 0.674690 0.980885
O O6 0.000000 0.890768 0.922362
O O7 0.000000 0.827281 0.145767
O O8 0.135767 0.232033 0.449469
O O9 0.701733 0.743031 0.749953
O O10 0.765366 0.940527 0.633316
O O11 0.285481 0.630308 0.957224
#
# Coordination Sequence:
#
# PCOD9481895 Si02
#       7
#    16   8  16   8   8  16   8
#     4  11  22  40  70 107 146 203 253 317 380 467
#     4   9  17  34  63 104 141 205 248 315 369 459
#     4  11  22  41  71 104 155 196 259 313 388 461
#     4  12  30  50  80 108 150 198 262 336 414 476
#     4   9  17  34  65 100 145 196 259 301 374 449
#     4  12  24  47  72 107 143 195 258 323 389 475
#     4  12  26  52  78 109 148 195 260 330 404 486
#
# _framework density 28.526985
#
# number of rings (size 3 to 8) (size 9 to 14) (size 15 to 20)
#    0.000    1.000    4.000    3.000    0.000    1.600 
#    0.000    0.000    0.000    1.200    0.000    0.000 
#    0.000    0.000    0.000    0.000    0.000    0.000 
#
# Total GULP energy -223546.167186 kJ/mol
# GULP energy per Si atom -5588.654180 kJ/mol
# Density = 2.846206 g / cm^3
# Si number density = 28.526985 Si / 1000 Ang^3
#
#
#
# Elastic Constant Matrix: (Units=GPa)
#
#
# Indices 1 2 3 4 5 6 
#
# 1 167.5411 42.0234 19.9473 0.0000 0.0000 0.0000
# 2 42.0234 178.7647 44.9036 0.0000 0.0000 0.0000
# 3 19.9473 44.9036 103.9528 0.0000 0.0000 0.0000
# 4 0.0000 0.0000 0.0000 56.9460 0.0000 0.0000
# 5 0.0000 0.0000 0.0000 0.0000 22.7755 0.0000
# 6 0.0000 0.0000 0.0000 0.0000 0.0000 28.0829
#
#
#
# Elastic Compliance Matrix: (Units=1/GPa)
#
#
# Indices 1 2 3 4 5 6 
#
# 1 0.006381 -0.001338 -0.000647 0.000000 0.000000 0.000000
# 2 -0.001338 0.006555 -0.002575 0.000000 0.000000 0.000000
# 3 -0.000647 -0.002575 0.010856 0.000000 0.000000 0.000000
# 4 0.000000 0.000000 0.000000 0.017560 0.000000 0.000000
# 5 0.000000 0.000000 0.000000 0.000000 0.043907 0.000000
# 6 0.000000 0.000000 0.000000 0.000000 0.000000 0.035609
#
#
# Mechanical properties :
#
#
# Convention : Reuss Voigt Hill
#
# Bulk Modulus (GPa) = 68.14751 73.77856 70.96304
# Shear Modulus (GPa) = 37.07040 44.45317 40.76179
#
# Velocity S-wave (km/s) = 3.60875 3.95179 3.78416
# Velocity P-wave (km/s) = 6.42688 6.83675 6.63498
#
# Compressibility (1/GPa) = 0.01467405
#
# Stress axis : x y z
#
# Youngs Moduli (GPa) = 156.71061 152.55120 92.11417
#
# Poissons Ratio (x) = 0.20406 0.05957
# Poissons Ratio (y) = 0.20962 0.23719
# Poissons Ratio (z) = 0.10134 0.39280
#
# Static dielectric constant tensor:
#      x y z
#    x 2.191760 0.000000 0.000000 
#    y 0.000000 2.251660 0.000000 
#    z 0.000000 0.000000 2.572780 
# 
# From -- ./inp_files/19655.got.cif
#   From: 2010.05.17/outbox.cif.g08.bks.cpg/sg64_10_cif.got.tgz:19655.got - 2010.06.03 16:29:19.
