data_PCOD9481567
_publ_section_title
;
Structure prediction by ZEFSAII (Michael W. Deem and Ramdas Pophale) SiO2 
 PCOD9481567
Probable space group: C M C A
;
_chemical_formula_sum "Si O2"
_cell_formula_units_Z 80
_cell_length_a 16.139679
_cell_length_b 9.468931
_cell_length_c 26.989685
_cell_angle_alpha 90.000000
_cell_angle_beta 90.000000
_cell_angle_gamma 90.000000
_cell_volume 4124.712289
_symmetry_space_group_name_H-M "C M C A"
_symmetry_group_IT_number 64
_symmetry_cell_setting 'orthorhombic'
loop_
_space_group_symop_operation_xyz
x,y,z
-x,1/2-y,1/2+z
x,-y,-z
-x,1/2+y,1/2-z
-x,-y,-z
x,1/2+y,1/2-z
-x,y,z
x,1/2-y,1/2+z
1/2+x,1/2+y,z
1/2-x,-y,1/2+z
1/2+x,1/2-y,-z
1/2-x,y,1/2-z
1/2-x,1/2-y,-z
1/2+x,y,1/2-z
1/2-x,1/2+y,z
1/2+x,-y,1/2+z
loop_
_atom_site_type_symbol
_atom_site_label
_atom_site_fract_x
_atom_site_fract_y
_atom_site_fract_z
Si Si1 0.000000 0.035624 0.203912
Si Si2 0.406453 0.383259 0.959962
Si Si3 0.331611 0.549350 0.143379
Si Si4 0.331013 0.788682 0.864803
Si Si5 0.000000 0.800980 0.693372
Si Si6 0.171430 0.158869 0.481937
O O1 0.000000 0.865518 0.206761
O O2 0.085343 0.076331 0.175441
O O3 0.000000 0.106590 0.257359
O O4 0.500000 0.418035 0.944525
O O5 0.350840 0.393934 0.911742
O O6 0.380710 0.500000 0.000000
O O7 0.401851 0.235221 0.987990
O O8 0.318874 0.380418 0.140272
O O9 0.247335 0.628579 0.158420
O O10 0.416938 0.827178 0.838181
O O11 0.338037 0.826352 0.923067
O O12 0.250000 0.250000 0.500000
O O13 0.179776 0.000000 0.500000
#
# Coordination Sequence:
#
# PCOD9481567 Si02
#       6
#     8  16  16  16   8  16
#     4  10  24  48  70  89 122 161 218 270 333 386
#     4  11  22  37  62  92 130 176 214 255 312 384
#     4  11  22  41  67  96 125 168 217 263 320 393
#     4  11  24  41  64  97 132 170 212 264 322 383
#     4  10  26  48  68  92 126 165 214 279 329 386
#     4  12  23  37  58  91 135 172 210 253 311 383
#
# _framework density 19.395292999999999
#
# number of rings (size 3 to 8) (size 9 to 14) (size 15 to 20)
#    0.000    1.000    5.000    1.800    1.400    2.800 
#    0.000    4.000    0.000    0.000    0.000    0.000 
#    0.000    0.000    0.000    0.000    0.000    0.000 
#
# Total GULP energy -223501.630016 kJ/mol
# GULP energy per Si atom -5587.540750 kJ/mol
# Density = 1.935115 g / cm^3
# Si number density = 19.395293 Si / 1000 Ang^3
#
#
#
# Elastic Constant Matrix: (Units=GPa)
#
#
# Indices 1 2 3 4 5 6 
#
# 1 168.6230 63.9576 80.3960 0.0000 0.0000 0.0000
# 2 63.9576 112.8801 59.6589 0.0000 0.0000 0.0000
# 3 80.3960 59.6589 130.4060 0.0000 0.0000 0.0000
# 4 0.0000 0.0000 0.0000 32.2937 0.0000 0.0000
# 5 0.0000 0.0000 0.0000 0.0000 16.7853 0.0000
# 6 0.0000 0.0000 0.0000 0.0000 0.0000 29.6607
#
#
#
# Elastic Compliance Matrix: (Units=1/GPa)
#
#
# Indices 1 2 3 4 5 6 
#
# 1 0.009056 -0.002876 -0.004267 0.000000 0.000000 0.000000
# 2 -0.002876 0.012597 -0.003990 0.000000 0.000000 0.000000
# 3 -0.004267 -0.003990 0.012125 0.000000 0.000000 0.000000
# 4 0.000000 0.000000 0.000000 0.030966 0.000000 0.000000
# 5 0.000000 0.000000 0.000000 0.000000 0.059576 0.000000
# 6 0.000000 0.000000 0.000000 0.000000 0.000000 0.033715
#
#
# Mechanical properties :
#
#
# Convention : Reuss Voigt Hill
#
# Bulk Modulus (GPa) = 86.87166 91.10379 88.98772
# Shear Modulus (GPa) = 27.15367 29.60770 28.38069
#
# Velocity S-wave (km/s) = 3.74573 3.91134 3.82943
# Velocity P-wave (km/s) = 7.97463 8.21414 8.09527
#
# Compressibility (1/GPa) = 0.01151123
#
# Stress axis : x y z
#
# Youngs Moduli (GPa) = 110.42836 79.38318 82.47659
#
# Poissons Ratio (x) = 0.22827 0.35195
# Poissons Ratio (y) = 0.31754 0.32910
# Poissons Ratio (z) = 0.47123 0.31676
#
# Static dielectric constant tensor:
#      x y z
#    x 1.745780 0.000000 0.000000 
#    y 0.000000 1.710570 0.000000 
#    z 0.000000 0.000000 1.643500 
# 
# From -- ./inp_files/50338.got.cif
#   From: 2010.05.17/outbox.cif.g08.bks.cpg/sg64_26_cif.got.tgz:50338.got - 2010.06.03 16:29:19.
