data_PCOD9481624
_publ_section_title
;
Structure prediction by ZEFSAII (Michael W. Deem and Ramdas Pophale) SiO2 
 PCOD9481624
Probable space group: C M C A
;
_chemical_formula_sum "Si O2"
_cell_formula_units_Z 56
_cell_length_a 24.464887
_cell_length_b 8.091618
_cell_length_c 11.598100
_cell_angle_alpha 90.000000
_cell_angle_beta 90.000000
_cell_angle_gamma 90.000000
_cell_volume 2295.965907
_symmetry_space_group_name_H-M "C M C A"
_symmetry_group_IT_number 64
_symmetry_cell_setting 'orthorhombic'
loop_
_space_group_symop_operation_xyz
x,y,z
-x,1/2-y,1/2+z
x,-y,-z
-x,1/2+y,1/2-z
-x,-y,-z
x,1/2+y,1/2-z
-x,y,z
x,1/2-y,1/2+z
1/2+x,1/2+y,z
1/2-x,-y,1/2+z
1/2+x,1/2-y,-z
1/2-x,y,1/2-z
1/2-x,1/2-y,-z
1/2+x,y,1/2-z
1/2-x,1/2+y,z
1/2+x,-y,1/2+z
loop_
_atom_site_type_symbol
_atom_site_label
_atom_site_fract_x
_atom_site_fract_y
_atom_site_fract_z
Si Si1 0.500000 0.806709 0.425138
Si Si2 0.406541 0.149331 0.922308
Si Si3 0.250000 0.150393 0.750000
Si Si4 0.500000 0.009332 0.232154
Si Si5 0.687820 0.899216 0.618283
O O1 0.552935 0.747062 0.492162
O O2 0.500000 0.987215 0.369691
O O3 0.500000 0.698627 0.306972
O O4 0.445459 0.064680 0.827474
O O5 0.365463 0.285977 0.874744
O O6 0.381001 0.000000 0.000000
O O7 0.263878 0.267373 0.857691
O O8 0.301199 0.034910 0.717500
O O9 0.689114 0.000000 0.500000
#
# Coordination Sequence:
#
# PCOD9481624 Si02
#       5
#     8  16   8   8  16
#     4   9  19  37  58  88 125 165 204 247 307 369
#     4   9  21  39  61  91 126 165 207 253 314 374
#     4  10  26  46  66  94 124 166 220 262 326 386
#     4   9  19  37  60  88 127 163 203 255 298 373
#     4  11  24  44  68  94 127 166 211 270 321 378
#
# _framework density 24.390609000000001
#
# number of rings (size 3 to 8) (size 9 to 14) (size 15 to 20)
#    0.000    2.286    0.000    2.571    0.000   14.857 
#    0.000    2.857    0.000    0.000    0.000    0.000 
#    0.000    0.000    0.000    0.000    0.000    0.000 
#
# Total GULP energy -156531.548480 kJ/mol
# GULP energy per Si atom -5590.412446 kJ/mol
# Density = 2.433509 g / cm^3
# Si number density = 24.390609 Si / 1000 Ang^3
#
#
#
# Elastic Constant Matrix: (Units=GPa)
#
#
# Indices 1 2 3 4 5 6 
#
# 1 74.4565 50.0945 11.8761 0.0000 0.0000 0.0000
# 2 50.0945 130.8047 31.5401 0.0000 0.0000 0.0000
# 3 11.8761 31.5401 54.4748 0.0000 0.0000 0.0000
# 4 0.0000 0.0000 0.0000 50.4366 0.0000 0.0000
# 5 0.0000 0.0000 0.0000 0.0000 8.2734 0.0000
# 6 0.0000 0.0000 0.0000 0.0000 0.0000 11.2928
#
#
#
# Elastic Compliance Matrix: (Units=1/GPa)
#
#
# Indices 1 2 3 4 5 6 
#
# 1 0.018093 -0.006948 0.000078 0.000000 0.000000 0.000000
# 2 -0.006948 0.011554 -0.005175 0.000000 0.000000 0.000000
# 3 0.000078 -0.005175 0.021336 0.000000 0.000000 0.000000
# 4 0.000000 0.000000 0.000000 0.019827 0.000000 0.000000
# 5 0.000000 0.000000 0.000000 0.000000 0.120870 0.000000
# 6 0.000000 0.000000 0.000000 0.000000 0.000000 0.088552
#
#
# Mechanical properties :
#
#
# Convention : Reuss Voigt Hill
#
# Bulk Modulus (GPa) = 37.18310 49.63973 43.41141
# Shear Modulus (GPa) = 15.95995 25.08223 20.52109
#
# Velocity S-wave (km/s) = 2.56080 3.21028 2.90375
# Velocity P-wave (km/s) = 4.90118 5.84272 5.39253
#
# Compressibility (1/GPa) = 0.02689394
#
# Stress axis : x y z
#
# Youngs Moduli (GPa) = 55.27086 86.55338 46.86896
#
# Poissons Ratio (x) = 0.60136 -0.00367
# Poissons Ratio (y) = 0.38402 0.24253
# Poissons Ratio (z) = -0.00433 0.44788
#
# Static dielectric constant tensor:
#      x y z
#    x 1.913170 0.000000 0.000000 
#    y 0.000000 1.995070 0.000000 
#    z 0.000000 0.000000 1.919470 
# 
# From -- ./inp_files/26882.got.cif
#   From: 2010.05.17/outbox.cif.g08.bks.cpg/sg64_14_cif.got.tgz:26882.got - 2010.06.03 16:29:19.
