data_PCOD9481975
_publ_section_title
;
Structure prediction by ZEFSAII (Michael W. Deem and Ramdas Pophale) SiO2 
 PCOD9481975
Probable space group: C M C A
;
_chemical_formula_sum "Si O2"
_cell_formula_units_Z 80
_cell_length_a 26.887656
_cell_length_b 31.223901
_cell_length_c 5.159162
_cell_angle_alpha 90.000000
_cell_angle_beta 90.000000
_cell_angle_gamma 90.000000
_cell_volume 4331.310014
_symmetry_space_group_name_H-M "C M C A"
_symmetry_group_IT_number 64
_symmetry_cell_setting 'orthorhombic'
loop_
_space_group_symop_operation_xyz
x,y,z
-x,1/2-y,1/2+z
x,-y,-z
-x,1/2+y,1/2-z
-x,-y,-z
x,1/2+y,1/2-z
-x,y,z
x,1/2-y,1/2+z
1/2+x,1/2+y,z
1/2-x,-y,1/2+z
1/2+x,1/2-y,-z
1/2-x,y,1/2-z
1/2-x,1/2-y,-z
1/2+x,y,1/2-z
1/2-x,1/2+y,z
1/2+x,-y,1/2+z
loop_
_atom_site_type_symbol
_atom_site_label
_atom_site_fract_x
_atom_site_fract_y
_atom_site_fract_z
Si Si1 0.694585 0.130363 0.134665
Si Si2 0.689843 0.273083 0.715143
Si Si3 0.813068 0.500000 0.500000
Si Si4 0.882243 0.933491 0.845082
Si Si5 0.442589 0.547854 0.625718
Si Si6 0.250000 0.573405 0.750000
O O1 0.750000 0.132048 0.250000
O O2 0.678399 0.179494 0.111038
O O3 0.656436 0.105323 0.317662
O O4 0.707156 0.102440 0.879926
O O5 0.671935 0.239007 0.501831
O O6 0.750000 0.270467 0.750000
O O7 0.849654 0.476879 0.704857
O O8 0.778178 0.460376 0.431349
O O9 0.921244 0.925760 0.615922
O O10 0.909428 0.942462 0.119058
O O11 0.441778 0.500000 0.500000
O O12 0.500000 0.556697 0.691414
#
# Coordination Sequence:
#
# PCOD9481975 Si02
#       6
#    16  16   8  16  16   8
#     4  11  24  36  56  85 118 154 193 237 280 340
#     4   9  20  35  56  78 110 149 187 227 281 342
#     4  12  22  36  51  74 110 166 199 238 274 330
#     4  12  23  38  58  82 113 152 200 238 285 338
#     4  11  23  40  59  80 108 148 199 248 295 338
#     4  12  24  38  50  76 122 168 204 240 274 328
#
# _framework density 18.470161999999998
#
# number of rings (size 3 to 8) (size 9 to 14) (size 15 to 20)
#    0.000    1.000    4.000    3.000    7.000    1.600 
#    0.000    0.000    0.000    0.000    0.000    0.000 
#    0.000   16.000    0.000    0.000    0.000    0.000 
#
# Total GULP energy -222794.388618 kJ/mol
# GULP energy per Si atom -5569.859715 kJ/mol
# Density = 1.842812 g / cm^3
# Si number density = 18.470162 Si / 1000 Ang^3
#
#
#
# Elastic Constant Matrix: (Units=GPa)
#
#
# Indices 1 2 3 4 5 6 
#
# 1 81.4478 26.6612 37.9750 0.0000 0.0000 0.0000
# 2 26.6612 105.0160 39.8766 0.0000 0.0000 0.0000
# 3 37.9750 39.8766 117.3509 0.0000 0.0000 0.0000
# 4 0.0000 0.0000 0.0000 19.5927 0.0000 0.0000
# 5 0.0000 0.0000 0.0000 0.0000 26.5429 0.0000
# 6 0.0000 0.0000 0.0000 0.0000 0.0000 -7.0510
#
#
#
# Elastic Compliance Matrix: (Units=1/GPa)
#
#
# Indices 1 2 3 4 5 6 
#
# 1 0.014905 -0.002242 -0.004062 0.000000 0.000000 0.000000
# 2 -0.002242 0.011270 -0.003104 0.000000 0.000000 0.000000
# 3 -0.004062 -0.003104 0.010891 0.000000 0.000000 0.000000
# 4 0.000000 0.000000 0.000000 0.051040 0.000000 0.000000
# 5 0.000000 0.000000 0.000000 0.000000 0.037675 0.000000
# 6 0.000000 0.000000 0.000000 0.000000 0.000000 -0.141824
#
#
# Mechanical properties :
#
#
# Convention : Reuss Voigt Hill
#
# Bulk Modulus (GPa) = 54.79195 56.98224 55.88710
# Shear Modulus (GPa) = 564.58940 21.10370 292.84655
#
# Velocity S-wave (km/s) = 17.50257 3.38388 12.60537
# Velocity P-wave (km/s) = 20.93282 6.79599 15.56227
#
# Compressibility (1/GPa) = 0.01825085
#
# Stress axis : x y z
#
# Youngs Moduli (GPa) = 67.08984 88.72912 91.82202
#
# Poissons Ratio (x) = 0.19892 0.37295
# Poissons Ratio (y) = 0.15041 0.28504
# Poissons Ratio (z) = 0.27249 0.27544
#
# Static dielectric constant tensor:
#      x y z
#    x 1.696010 0.000000 0.000000 
#    y 0.000000 1.682320 0.000000 
#    z 0.000000 0.000000 1.723180 
# 
# From -- ./inp_files/2388.got.cif
#   From: 2010.05.17/outbox.cif.g08.bks.cpg/sg64_2_cif.got.tgz:2388.got - 2010.06.03 16:29:19.
