data_PCOD9481434
_publ_section_title
;
Structure prediction by ZEFSAII (Michael W. Deem and Ramdas Pophale) SiO2 
 PCOD9481434
Probable space group: C M C A
;
_chemical_formula_sum "Si O2"
_cell_formula_units_Z 64
_cell_length_a 9.975076
_cell_length_b 10.537957
_cell_length_c 31.222579
_cell_angle_alpha 90.000000
_cell_angle_beta 90.000000
_cell_angle_gamma 90.000000
_cell_volume 3282.021400
_symmetry_space_group_name_H-M "C M C A"
_symmetry_group_IT_number 64
_symmetry_cell_setting 'orthorhombic'
loop_
_space_group_symop_operation_xyz
x,y,z
-x,1/2-y,1/2+z
x,-y,-z
-x,1/2+y,1/2-z
-x,-y,-z
x,1/2+y,1/2-z
-x,y,z
x,1/2-y,1/2+z
1/2+x,1/2+y,z
1/2-x,-y,1/2+z
1/2+x,1/2-y,-z
1/2-x,y,1/2-z
1/2-x,1/2-y,-z
1/2+x,y,1/2-z
1/2-x,1/2+y,z
1/2+x,-y,1/2+z
loop_
_atom_site_type_symbol
_atom_site_label
_atom_site_fract_x
_atom_site_fract_y
_atom_site_fract_z
Si Si1 0.718641 0.208239 0.204008
Si Si2 0.000000 0.665128 0.902951
Si Si3 0.000000 0.828016 0.832254
Si Si4 0.000000 0.580709 0.723892
Si Si5 0.500000 0.979464 0.822034
Si Si6 0.847188 0.138925 0.514588
O O1 0.750000 0.145915 0.250000
O O2 0.628724 0.330787 0.214315
O O3 0.630229 0.111455 0.176777
O O4 0.861664 0.234984 0.183534
O O5 0.000000 0.571023 0.862695
O O6 0.874167 0.643382 0.934340
O O7 0.000000 0.806392 0.882993
O O8 0.000000 0.964325 0.809379
O O9 0.000000 0.536176 0.773393
O O10 0.750000 0.250000 0.500000
O O11 0.000000 0.155862 0.496591
O O12 0.800398 0.000000 0.500000
#
# Coordination Sequence:
#
# PCOD9481434 Si02
#       6
#    16   8   8   8   8  16
#     4  11  23  41  61  88 124 189 229 272 329 379
#     4  10  24  41  69 104 133 170 228 284 330 423
#     4  12  25  40  62  97 130 171 233 276 323 387
#     4  11  25  42  60  86 134 185 229 269 331 378
#     4  11  23  41  66  87 138 176 226 284 325 392
#     4   9  21  46  75 102 135 173 215 278 367 428
#
# _framework density 19.500177999999998
#
# number of rings (size 3 to 8) (size 9 to 14) (size 15 to 20)
#    0.750    0.750    2.500    2.250    7.000    2.500 
#    0.000    0.000    2.750    0.000    0.000    0.000 
#    0.000    0.000    0.000    0.000    0.000    0.000 
#
# Total GULP energy -178456.796676 kJ/mol
# GULP energy per Si atom -5576.774896 kJ/mol
# Density = 1.945579 g / cm^3
# Si number density = 19.500178 Si / 1000 Ang^3
#
#
#
# Elastic Constant Matrix: (Units=GPa)
#
#
# Indices 1 2 3 4 5 6 
#
# 1 135.1627 66.3255 40.2694 0.0000 0.0000 0.0000
# 2 66.3255 138.4128 73.7907 0.0000 0.0000 0.0000
# 3 40.2694 73.7907 125.7197 0.0000 0.0000 0.0000
# 4 0.0000 0.0000 0.0000 39.1503 0.0000 0.0000
# 5 0.0000 0.0000 0.0000 0.0000 -7.4545 0.0000
# 6 0.0000 0.0000 0.0000 0.0000 0.0000 23.6303
#
#
#
# Elastic Compliance Matrix: (Units=1/GPa)
#
#
# Indices 1 2 3 4 5 6 
#
# 1 0.009699 -0.004354 -0.000551 0.000000 0.000000 0.000000
# 2 -0.004354 0.012469 -0.005924 0.000000 0.000000 0.000000
# 3 -0.000551 -0.005924 0.011608 0.000000 0.000000 0.000000
# 4 0.000000 0.000000 0.000000 0.025543 0.000000 0.000000
# 5 0.000000 0.000000 0.000000 0.000000 -0.134147 0.000000
# 6 0.000000 0.000000 0.000000 0.000000 0.000000 0.042319
#
#
# Mechanical properties :
#
#
# Convention : Reuss Voigt Hill
#
# Bulk Modulus (GPa) = 82.52312 84.45180 83.48746
# Shear Modulus (GPa) = -734.05860 25.65919 -354.19970
#
# Velocity S-wave (km/s) = -19.42303 3.63139 -13.49198
# Velocity P-wave (km/s) = 21.46146 7.80928 14.13523
#
# Compressibility (1/GPa) = 0.01211782
#
# Stress axis : x y z
#
# Youngs Moduli (GPa) = 103.10141 80.19628 86.14719
#
# Poissons Ratio (x) = 0.34916 0.04749
# Poissons Ratio (y) = 0.44888 0.51036
# Poissons Ratio (z) = 0.05684 0.47511
#
# Static dielectric constant tensor:
#      x y z
#    x 1.710600 0.000000 0.000000 
#    y 0.000000 1.711950 0.000000 
#    z 0.000000 0.000000 1.678880 
# 
# From -- ./inp_files/51587.got.cif
#   From: 2010.05.17/outbox.cif.g08.bks.cpg/sg64_26_cif.got.tgz:51587.got - 2010.06.03 16:29:19.
