data_PCOD9481893
_publ_section_title
;
Structure prediction by ZEFSAII (Michael W. Deem and Ramdas Pophale) SiO2 
 PCOD9481893
Probable space group: C M C A
;
_chemical_formula_sum "Si O2"
_cell_formula_units_Z 96
_cell_length_a 17.240584
_cell_length_b 20.247734
_cell_length_c 14.462236
_cell_angle_alpha 90.000000
_cell_angle_beta 90.000000
_cell_angle_gamma 90.000000
_cell_volume 5048.517242
_symmetry_space_group_name_H-M "C M C A"
_symmetry_group_IT_number 64
_symmetry_cell_setting 'orthorhombic'
loop_
_space_group_symop_operation_xyz
x,y,z
-x,1/2-y,1/2+z
x,-y,-z
-x,1/2+y,1/2-z
-x,-y,-z
x,1/2+y,1/2-z
-x,y,z
x,1/2-y,1/2+z
1/2+x,1/2+y,z
1/2-x,-y,1/2+z
1/2+x,1/2-y,-z
1/2-x,y,1/2-z
1/2-x,1/2-y,-z
1/2+x,y,1/2-z
1/2-x,1/2+y,z
1/2+x,-y,1/2+z
loop_
_atom_site_type_symbol
_atom_site_label
_atom_site_fract_x
_atom_site_fract_y
_atom_site_fract_z
Si Si1 0.091253 0.675702 0.665049
Si Si2 0.838106 0.065280 0.717236
Si Si3 0.839988 0.767868 0.983749
Si Si4 0.091467 0.376814 0.032858
Si Si5 0.408414 0.427043 0.671605
Si Si6 0.840902 0.699742 0.273312
O O1 0.109800 0.605523 0.710178
O O2 0.131043 0.686047 0.566189
O O3 0.126720 0.731831 0.732110
O O4 0.000000 0.686402 0.657024
O O5 0.750000 0.073864 0.750000
O O6 0.856858 0.096979 0.617114
O O7 0.861149 0.988994 0.709586
O O8 0.888034 0.699518 0.985758
O O9 0.850249 0.799662 0.883351
O O10 0.750000 0.750000 0.000000
O O11 0.000000 0.383545 0.056436
O O12 0.106165 0.415894 0.937700
O O13 0.500000 0.439202 0.682489
O O14 0.384329 0.360556 0.724355
O O15 0.750000 0.695585 0.250000
#
# Coordination Sequence:
#
# PCOD9481893 Si02
#       6
#    16  16  16  16  16  16
#     4  12  24  40  64  96 132 169 213 267 326 386
#     4  12  25  42  65  93 132 175 218 267 329 389
#     4  12  23  39  65  98 134 169 217 268 324 385
#     4  11  22  40  68  97 128 166 217 278 328 377
#     4  11  24  43  67  98 131 168 217 272 330 391
#     4  12  23  41  67  95 131 173 216 264 321 387
#
# _framework density 19.015485000000002
#
# number of rings (size 3 to 8) (size 9 to 14) (size 15 to 20)
#    0.000    0.333    5.000    5.000    0.000    3.333 
#    0.000    2.500    0.000    2.000    0.000    0.000 
#    0.000    0.000    0.000    0.000    0.000    0.000 
#
# Total GULP energy -268666.175796 kJ/mol
# GULP energy per Si atom -5597.211996 kJ/mol
# Density = 1.897220 g / cm^3
# Si number density = 19.015485 Si / 1000 Ang^3
#
#
#
# Elastic Constant Matrix: (Units=GPa)
#
#
# Indices 1 2 3 4 5 6 
#
# 1 87.6577 8.6785 57.6679 0.0000 0.0000 0.0000
# 2 8.6785 71.6124 29.6752 0.0000 0.0000 0.0000
# 3 57.6679 29.6752 150.3099 0.0000 0.0000 0.0000
# 4 0.0000 0.0000 0.0000 24.9224 0.0000 0.0000
# 5 0.0000 0.0000 0.0000 0.0000 34.6228 0.0000
# 6 0.0000 0.0000 0.0000 0.0000 0.0000 32.4026
#
#
#
# Elastic Compliance Matrix: (Units=1/GPa)
#
#
# Indices 1 2 3 4 5 6 
#
# 1 0.015286 0.000629 -0.005989 0.000000 0.000000 0.000000
# 2 0.000629 0.015234 -0.003249 0.000000 0.000000 0.000000
# 3 -0.005989 -0.003249 0.009592 0.000000 0.000000 0.000000
# 4 0.000000 0.000000 0.000000 0.040125 0.000000 0.000000
# 5 0.000000 0.000000 0.000000 0.000000 0.028883 0.000000
# 6 0.000000 0.000000 0.000000 0.000000 0.000000 0.030862
#
#
# Mechanical properties :
#
#
# Convention : Reuss Voigt Hill
#
# Bulk Modulus (GPa) = 43.67827 55.73591 49.70709
# Shear Modulus (GPa) = 30.33444 32.62678 31.48061
#
# Velocity S-wave (km/s) = 3.99839 4.14672 4.07323
# Velocity P-wave (km/s) = 6.65852 7.23197 6.95116
#
# Compressibility (1/GPa) = 0.02289468
#
# Stress axis : x y z
#
# Youngs Moduli (GPa) = 65.42144 65.64193 104.25382
#
# Poissons Ratio (x) = -0.04130 0.62434
# Poissons Ratio (y) = -0.04116 0.33872
# Poissons Ratio (z) = 0.39179 0.21327
#
# Static dielectric constant tensor:
#      x y z
#    x 1.639250 0.000000 0.000000 
#    y 0.000000 1.640940 0.000000 
#    z 0.000000 0.000000 1.646280 
# 
# From -- ./inp_files/23867.got.cif
#   From: 2010.05.17/outbox.cif.g08.bks.cpg/sg64_12_cif.got.tgz:23867.got - 2010.06.03 16:29:19.
