data_PCOD9481907
_publ_section_title
;
Structure prediction by ZEFSAII (Michael W. Deem and Ramdas Pophale) SiO2 
 PCOD9481907
Probable space group: C M C A
;
_chemical_formula_sum "Si O2"
_cell_formula_units_Z 68
_cell_length_a 15.999225
_cell_length_b 9.412979
_cell_length_c 20.059927
_cell_angle_alpha 90.000000
_cell_angle_beta 90.000000
_cell_angle_gamma 90.000000
_cell_volume 3021.032407
_symmetry_space_group_name_H-M "C M C A"
_symmetry_group_IT_number 64
_symmetry_cell_setting 'orthorhombic'
loop_
_space_group_symop_operation_xyz
x,y,z
-x,1/2-y,1/2+z
x,-y,-z
-x,1/2+y,1/2-z
-x,-y,-z
x,1/2+y,1/2-z
-x,y,z
x,1/2-y,1/2+z
1/2+x,1/2+y,z
1/2-x,-y,1/2+z
1/2+x,1/2-y,-z
1/2-x,y,1/2-z
1/2-x,1/2-y,-z
1/2+x,y,1/2-z
1/2-x,1/2+y,z
1/2+x,-y,1/2+z
loop_
_atom_site_type_symbol
_atom_site_label
_atom_site_fract_x
_atom_site_fract_y
_atom_site_fract_z
Si Si1 0.237111 0.714094 0.076711
Si Si2 0.144466 0.559468 0.890148
Si Si3 0.500000 0.000000 0.000000
Si Si4 0.648971 0.089090 0.247010
Si Si5 0.595792 0.847399 0.334373
O O1 0.219112 0.548695 0.087611
O O2 0.315762 0.784452 0.113827
O O3 0.155657 0.791745 0.107240
O O4 0.250000 0.750000 0.000000
O O5 0.073042 0.543976 0.944966
O O6 0.119730 0.499900 0.818252
O O7 0.750000 0.086945 0.250000
O O8 0.618291 0.245653 0.228375
O O9 0.613516 0.006634 0.310319
O O10 0.500000 0.827873 0.353472
#
# Coordination Sequence:
#
# PCOD9481907 Si02
#       5
#    16  16   4  16  16
#     4  11  22  42  65  93 128 177 217 273 329 402
#     4  11  25  40  70  94 134 172 228 270 335 395
#     4  12  24  44  68 102 126 180 228 280 318 418
#     4  11  23  42  64  97 129 177 218 272 338 400
#     4  11  25  40  66  98 136 170 220 277 333 398
#
# _framework density 22.508861
#
# number of rings (size 3 to 8) (size 9 to 14) (size 15 to 20)
#    0.000    0.941    4.706    1.412   11.529    0.000 
#    0.000    0.000    2.588    2.824    0.000    0.000 
#    0.000    0.000    0.000    0.000    0.000    0.000 
#
# Total GULP energy -189677.226614 kJ/mol
# GULP energy per Si atom -5578.741959 kJ/mol
# Density = 2.245763 g / cm^3
# Si number density = 22.508861 Si / 1000 Ang^3
#
#
#
# Elastic Constant Matrix: (Units=GPa)
#
#
# Indices 1 2 3 4 5 6 
#
# 1 150.4192 36.1232 31.8587 0.0000 0.0000 0.0000
# 2 36.1232 102.4762 26.6520 0.0000 0.0000 0.0000
# 3 31.8587 26.6520 80.5630 0.0000 0.0000 0.0000
# 4 0.0000 0.0000 0.0000 28.5362 0.0000 0.0000
# 5 0.0000 0.0000 0.0000 0.0000 35.1835 0.0000
# 6 0.0000 0.0000 0.0000 0.0000 0.0000 6.3627
#
#
#
# Elastic Compliance Matrix: (Units=1/GPa)
#
#
# Indices 1 2 3 4 5 6 
#
# 1 0.007643 -0.002088 -0.002332 0.000000 0.000000 0.000000
# 2 -0.002088 0.011247 -0.002895 0.000000 0.000000 0.000000
# 3 -0.002332 -0.002895 0.014293 0.000000 0.000000 0.000000
# 4 0.000000 0.000000 0.000000 0.035043 0.000000 0.000000
# 5 0.000000 0.000000 0.000000 0.000000 0.028422 0.000000
# 6 0.000000 0.000000 0.000000 0.000000 0.000000 0.157166
#
#
# Mechanical properties :
#
#
# Convention : Reuss Voigt Hill
#
# Bulk Modulus (GPa) = 53.89845 58.08070 55.98957
# Shear Modulus (GPa) = 18.20639 29.93812 24.07225
#
# Velocity S-wave (km/s) = 2.84712 3.65095 3.27380
# Velocity P-wave (km/s) = 5.89962 6.60546 6.26249
#
# Compressibility (1/GPa) = 0.01855341
#
# Stress axis : x y z
#
# Youngs Moduli (GPa) = 130.83229 88.91004 69.96632
#
# Poissons Ratio (x) = 0.18563 0.16315
# Poissons Ratio (y) = 0.27316 0.20257
# Poissons Ratio (z) = 0.30508 0.25741
#
# Static dielectric constant tensor:
#      x y z
#    x 1.799090 0.000000 0.000000 
#    y 0.000000 1.880860 0.000000 
#    z 0.000000 0.000000 1.868790 
# 
# From -- ./inp_files/38877.got.cif
#   From: 2010.05.17/outbox.cif.g08.bks.cpg/sg64_20_cif.got.tgz:38877.got - 2010.06.03 16:29:19.
