data_PCOD9481380
_publ_section_title
;
Structure prediction by ZEFSAII (Michael W. Deem and Ramdas Pophale) SiO2 
 PCOD9481380
Probable space group: C M C A
;
_chemical_formula_sum "Si O2"
_cell_formula_units_Z 116
_cell_length_a 7.587415
_cell_length_b 25.484333
_cell_length_c 27.137893
_cell_angle_alpha 90.000000
_cell_angle_beta 90.000000
_cell_angle_gamma 90.000000
_cell_volume 5247.388702
_symmetry_space_group_name_H-M "C M C A"
_symmetry_group_IT_number 64
_symmetry_cell_setting 'orthorhombic'
loop_
_space_group_symop_operation_xyz
x,y,z
-x,1/2-y,1/2+z
x,-y,-z
-x,1/2+y,1/2-z
-x,-y,-z
x,1/2+y,1/2-z
-x,y,z
x,1/2-y,1/2+z
1/2+x,1/2+y,z
1/2-x,-y,1/2+z
1/2+x,1/2-y,-z
1/2-x,y,1/2-z
1/2-x,1/2-y,-z
1/2+x,y,1/2-z
1/2-x,1/2+y,z
1/2+x,-y,1/2+z
loop_
_atom_site_type_symbol
_atom_site_label
_atom_site_fract_x
_atom_site_fract_y
_atom_site_fract_z
Si Si1 0.300089 0.697045 0.972061
Si Si2 0.700746 0.260461 0.368003
Si Si3 0.212240 0.834550 0.806382
Si Si4 0.000000 0.000000 0.500000
Si Si5 0.715477 0.079077 0.515438
Si Si6 0.709796 0.355347 0.193881
Si Si7 0.786120 0.548015 0.627179
Si Si8 0.788240 0.453601 0.693696
O O1 0.500000 0.688278 0.985270
O O2 0.286423 0.710462 0.914243
O O3 0.222789 0.640091 0.985167
O O4 0.250000 0.750000 0.000000
O O5 0.500000 0.250344 0.383762
O O6 0.779549 0.206648 0.346813
O O7 0.704940 0.301198 0.323106
O O8 0.250000 0.818138 0.750000
O O9 0.278571 0.894076 0.812432
O O10 0.000000 0.834913 0.811208
O O11 0.158114 0.957541 0.516356
O O12 0.500000 0.074024 0.507529
O O13 0.759545 0.058549 0.570828
O O14 0.500000 0.349692 0.187438
O O15 0.750000 0.367746 0.250000
O O16 0.772962 0.402382 0.159290
O O17 0.722393 0.495195 0.653695
O O18 0.000000 0.547245 0.629026
O O19 0.750000 0.470569 0.750000
O O20 0.000000 0.451402 0.689135
#
# Coordination Sequence:
#
# PCOD9481380 Si02
#       8
#    16  16  16   4  16  16  16  16
#     4  11  24  44  70  96 130 171 217 280 347 418
#     4  11  22  37  59  88 120 161 211 263 323 392
#     4   9  19  34  53  80 116 158 204 252 307 371
#     4  12  26  44  76 102 132 172 218 282 336 430
#     4  10  23  46  70  99 134 174 219 281 352 414
#     4  11  21  34  54  87 124 163 209 256 314 386
#     4   9  18  36  60  83 120 163 203 252 322 392
#     4   9  17  33  54  78 113 158 203 251 306 372
#
# _framework density 22.106235000000002
#
# number of rings (size 3 to 8) (size 9 to 14) (size 15 to 20)
#    0.000    1.931    1.379    2.276    1.931    2.207 
#    4.966    0.000    0.000    0.000    0.000    0.000 
#    0.000    0.000    0.000    0.000    0.000    0.000 
#
# Total GULP energy -323222.722949 kJ/mol
# GULP energy per Si atom -5572.805568 kJ/mol
# Density = 2.205592 g / cm^3
# Si number density = 22.106235 Si / 1000 Ang^3
#
#
#
# Elastic Constant Matrix: (Units=GPa)
#
#
# Indices 1 2 3 4 5 6 
#
# 1 72.3240 22.9168 1.5319 0.0000 0.0000 0.0000
# 2 22.9168 134.9112 20.3421 0.0000 0.0000 0.0000
# 3 1.5319 20.3421 30.6859 0.0000 0.0000 0.0000
# 4 0.0000 0.0000 0.0000 -6.4449 0.0000 0.0000
# 5 0.0000 0.0000 0.0000 0.0000 18.5044 0.0000
# 6 0.0000 0.0000 0.0000 0.0000 0.0000 15.2210
#
#
#
# Elastic Compliance Matrix: (Units=1/GPa)
#
#
# Indices 1 2 3 4 5 6 
#
# 1 0.014642 -0.002641 0.001020 0.000000 0.000000 0.000000
# 2 -0.002641 0.008712 -0.005643 0.000000 0.000000 0.000000
# 3 0.001020 -0.005643 0.036278 0.000000 0.000000 0.000000
# 4 0.000000 0.000000 0.000000 -0.155162 0.000000 0.000000
# 5 0.000000 0.000000 0.000000 0.000000 0.054041 0.000000
# 6 0.000000 0.000000 0.000000 0.000000 0.000000 0.065699
#
#
# Mechanical properties :
#
#
# Convention : Reuss Voigt Hill
#
# Bulk Modulus (GPa) = 22.17144 36.38919 29.28032
# Shear Modulus (GPa) = 92.98246 18.33146 55.65696
#
# Velocity S-wave (km/s) = 6.49253 2.88278 5.02312
# Velocity P-wave (km/s) = 8.13973 5.25142 6.84955
#
# Compressibility (1/GPa) = 0.04510307
#
# Stress axis : x y z
#
# Youngs Moduli (GPa) = 68.29724 114.78690 27.56462
#
# Poissons Ratio (x) = 0.30314 -0.02811
# Poissons Ratio (y) = 0.18037 0.15556
# Poissons Ratio (z) = -0.06965 0.64778
#
# Static dielectric constant tensor:
#      x y z
#    x 1.863530 0.000000 0.000000 
#    y 0.000000 2.689770 0.000000 
#    z 0.000000 0.000000 1.823360 
# 
# From -- ./inp_files/48585.got.cif
#   From: 2010.05.17/outbox.cif.g08.bks.cpg/sg64_25_cif.got.tgz:48585.got - 2010.06.03 16:29:19.
