data_PCOD9481656
_publ_section_title
;
Structure prediction by ZEFSAII (Michael W. Deem and Ramdas Pophale) SiO2 
 PCOD9481656
Probable space group: C M C A
;
_chemical_formula_sum "Si O2"
_cell_formula_units_Z 112
_cell_length_a 30.151565
_cell_length_b 14.653099
_cell_length_c 12.856995
_cell_angle_alpha 90.000000
_cell_angle_beta 90.000000
_cell_angle_gamma 90.000000
_cell_volume 5680.398678
_symmetry_space_group_name_H-M "C M C A"
_symmetry_group_IT_number 64
_symmetry_cell_setting 'orthorhombic'
loop_
_space_group_symop_operation_xyz
x,y,z
-x,1/2-y,1/2+z
x,-y,-z
-x,1/2+y,1/2-z
-x,-y,-z
x,1/2+y,1/2-z
-x,y,z
x,1/2-y,1/2+z
1/2+x,1/2+y,z
1/2-x,-y,1/2+z
1/2+x,1/2-y,-z
1/2-x,y,1/2-z
1/2-x,1/2-y,-z
1/2+x,y,1/2-z
1/2-x,1/2+y,z
1/2+x,-y,1/2+z
loop_
_atom_site_type_symbol
_atom_site_label
_atom_site_fract_x
_atom_site_fract_y
_atom_site_fract_z
Si Si1 0.298097 0.394108 0.215721
Si Si2 0.396362 0.809793 0.071349
Si Si3 0.050204 0.414274 0.918602
Si Si4 0.777865 0.391316 0.512366
Si Si5 0.821797 0.124897 0.416497
Si Si6 0.831879 0.211065 0.188329
Si Si7 0.874640 0.512863 0.812356
O O1 0.250000 0.434934 0.250000
O O2 0.291452 0.354452 0.100626
O O3 0.309947 0.311084 0.293305
O O4 0.341005 0.461181 0.218919
O O5 0.381621 0.725066 0.142332
O O6 0.397466 0.893533 0.152393
O O7 0.436050 0.826954 0.989705
O O8 0.354391 0.825607 0.995725
O O9 0.086035 0.438480 0.828493
O O10 0.000000 0.407027 0.880795
O O11 0.052772 0.500000 0.000000
O O12 0.783504 0.500000 0.500000
O O13 0.727297 0.371962 0.541171
O O14 0.805915 0.347910 0.604416
O O15 0.827872 0.165732 0.300964
O O16 0.838701 0.021777 0.396412
#
# Coordination Sequence:
#
# PCOD9481656 Si02
#       7
#    16  16  16  16  16  16  16
#     4  11  21  33  48  69 103 142 182 225 275 330
#     4   9  18  32  50  73 101 131 168 219 281 336
#     4   8  14  28  54  83 106 130 166 220 287 350
#     4  12  23  34  49  71 100 142 193 233 273 333
#     4  11  19  32  49  66  97 137 179 223 268 324
#     4  11  23  34  47  70 100 139 183 230 279 328
#     4   9  18  32  50  75 103 135 176 229 282 331
#
# _framework density 19.716926999999998
#
# number of rings (size 3 to 8) (size 9 to 14) (size 15 to 20)
#    0.000    1.857    0.000    7.714    0.000    1.714 
#    0.000    0.000    0.000    3.429    0.000    9.000 
#    0.000    5.714    0.000    0.000    0.000    0.000 
#
# Total GULP energy -311955.906652 kJ/mol
# GULP energy per Si atom -5570.641190 kJ/mol
# Density = 1.967205 g / cm^3
# Si number density = 19.716927 Si / 1000 Ang^3
#
#
#
# Elastic Constant Matrix: (Units=GPa)
#
#
# Indices 1 2 3 4 5 6 
#
# 1 113.9909 19.3808 28.2813 0.0000 0.0000 0.0000
# 2 19.3808 38.0363 15.9940 0.0000 0.0000 0.0000
# 3 28.2813 15.9940 98.3034 0.0000 0.0000 0.0000
# 4 0.0000 0.0000 0.0000 27.7739 0.0000 0.0000
# 5 0.0000 0.0000 0.0000 0.0000 20.4393 0.0000
# 6 0.0000 0.0000 0.0000 0.0000 0.0000 15.5249
#
#
#
# Elastic Compliance Matrix: (Units=1/GPa)
#
#
# Indices 1 2 3 4 5 6 
#
# 1 0.010031 -0.004184 -0.002205 0.000000 0.000000 0.000000
# 2 -0.004184 0.029967 -0.003672 0.000000 0.000000 0.000000
# 3 -0.002205 -0.003672 0.011404 0.000000 0.000000 0.000000
# 4 0.000000 0.000000 0.000000 0.036005 0.000000 0.000000
# 5 0.000000 0.000000 0.000000 0.000000 0.048925 0.000000
# 6 0.000000 0.000000 0.000000 0.000000 0.000000 0.064413
#
#
# Mechanical properties :
#
#
# Convention : Reuss Voigt Hill
#
# Bulk Modulus (GPa) = 31.96921 41.96031 36.96476
# Shear Modulus (GPa) = 21.61754 25.19259 23.40507
#
# Velocity S-wave (km/s) = 3.31478 3.57839 3.44910
# Velocity P-wave (km/s) = 5.55874 6.19683 5.88644
#
# Compressibility (1/GPa) = 0.03128010
#
# Stress axis : x y z
#
# Youngs Moduli (GPa) = 99.69009 33.37058 87.68529
#
# Poissons Ratio (x) = 0.13962 0.19336
# Poissons Ratio (y) = 0.41710 0.32197
# Poissons Ratio (z) = 0.21983 0.12253
#
# Static dielectric constant tensor:
#      x y z
#    x 1.694610 0.000000 0.000000 
#    y 0.000000 1.837070 0.000000 
#    z 0.000000 0.000000 1.731530 
# 
# From -- ./inp_files/19864.got.cif
#   From: 2010.05.17/outbox.cif.g08.bks.cpg/sg64_10_cif.got.tgz:19864.got - 2010.06.03 16:29:19.
