data_PCOD9481662
_publ_section_title
;
Structure prediction by ZEFSAII (Michael W. Deem and Ramdas Pophale) SiO2 
 PCOD9481662
Probable space group: C M C A
;
_chemical_formula_sum "Si O2"
_cell_formula_units_Z 96
_cell_length_a 24.776978
_cell_length_b 21.814088
_cell_length_c 9.045497
_cell_angle_alpha 90.000000
_cell_angle_beta 90.000000
_cell_angle_gamma 90.000000
_cell_volume 4888.975151
_symmetry_space_group_name_H-M "C M C A"
_symmetry_group_IT_number 64
_symmetry_cell_setting 'orthorhombic'
loop_
_space_group_symop_operation_xyz
x,y,z
-x,1/2-y,1/2+z
x,-y,-z
-x,1/2+y,1/2-z
-x,-y,-z
x,1/2+y,1/2-z
-x,y,z
x,1/2-y,1/2+z
1/2+x,1/2+y,z
1/2-x,-y,1/2+z
1/2+x,1/2-y,-z
1/2-x,y,1/2-z
1/2-x,1/2-y,-z
1/2+x,y,1/2-z
1/2-x,1/2+y,z
1/2+x,-y,1/2+z
loop_
_atom_site_type_symbol
_atom_site_label
_atom_site_fract_x
_atom_site_fract_y
_atom_site_fract_z
Si Si1 0.127190 0.059452 0.918959
Si Si2 0.376692 0.768485 0.683385
Si Si3 0.437124 0.315882 0.084942
Si Si4 0.217765 0.183370 0.598479
Si Si5 0.301766 0.040346 0.852373
Si Si6 0.706584 0.866285 0.634624
O O1 0.176817 0.087229 0.020886
O O2 0.086781 0.115849 0.900230
O O3 0.148832 0.036469 0.761365
O O4 0.104390 0.000000 0.000000
O O5 0.401909 0.729119 0.813350
O O6 0.424142 0.793417 0.580117
O O7 0.336186 0.722934 0.596176
O O8 0.339519 0.827664 0.719216
O O9 0.500000 0.313321 0.119879
O O10 0.250000 0.197819 0.750000
O O11 0.201930 0.111764 0.605603
O O12 0.259732 0.182841 0.463511
O O13 0.250000 0.026751 0.750000
O O14 0.304304 0.000000 0.000000
O O15 0.750000 0.892498 0.750000
#
# Coordination Sequence:
#
# PCOD9481662 Si02
#       6
#    16  16  16  16  16  16
#     4  11  24  41  59  88 123 161 207 247 300 358
#     4  11  21  40  62  90 120 157 198 246 302 364
#     4  11  24  44  66  87 113 154 207 268 316 350
#     4  11  19  35  56  88 128 166 190 230 290 362
#     4  11  22  36  59  86 125 167 202 236 286 356
#     4  11  22  34  58  93 128 161 192 233 289 365
#
# _framework density 19.636016999999999
#
# number of rings (size 3 to 8) (size 9 to 14) (size 15 to 20)
#    0.000    1.000    5.000    4.000    2.333    0.333 
#    0.000    0.000    0.000    0.500    0.000    0.000 
#    0.000    0.000    0.000    0.000    0.000    0.000 
#
# Total GULP energy -268244.912994 kJ/mol
# GULP energy per Si atom -5588.435687 kJ/mol
# Density = 1.959132 g / cm^3
# Si number density = 19.636017 Si / 1000 Ang^3
#
#
#
# Elastic Constant Matrix: (Units=GPa)
#
#
# Indices 1 2 3 4 5 6 
#
# 1 69.8068 20.3309 30.7753 0.0000 0.0000 0.0000
# 2 20.3309 86.9480 37.3853 0.0000 0.0000 0.0000
# 3 30.7753 37.3853 81.8419 0.0000 0.0000 0.0000
# 4 0.0000 0.0000 0.0000 29.0797 0.0000 0.0000
# 5 0.0000 0.0000 0.0000 0.0000 19.6361 0.0000
# 6 0.0000 0.0000 0.0000 0.0000 0.0000 7.1128
#
#
#
# Elastic Compliance Matrix: (Units=1/GPa)
#
#
# Indices 1 2 3 4 5 6 
#
# 1 0.017340 -0.001557 -0.005809 0.000000 0.000000 0.000000
# 2 -0.001557 0.014452 -0.006016 0.000000 0.000000 0.000000
# 3 -0.005809 -0.006016 0.017151 0.000000 0.000000 0.000000
# 4 0.000000 0.000000 0.000000 0.034388 0.000000 0.000000
# 5 0.000000 0.000000 0.000000 0.000000 0.050927 0.000000
# 6 0.000000 0.000000 0.000000 0.000000 0.000000 0.140591
#
#
# Mechanical properties :
#
#
# Convention : Reuss Voigt Hill
#
# Bulk Modulus (GPa) = 45.08836 46.17550 45.63193
# Shear Modulus (GPa) = 16.18090 21.17274 18.67682
#
# Velocity S-wave (km/s) = 2.87373 3.28725 3.08742
# Velocity P-wave (km/s) = 5.83292 6.16237 5.99991
#
# Compressibility (1/GPa) = 0.02217867
#
# Stress axis : x y z
#
# Youngs Moduli (GPa) = 57.67110 69.19471 58.30438
#
# Poissons Ratio (x) = 0.10772 0.33870
# Poissons Ratio (y) = 0.08978 0.35078
# Poissons Ratio (z) = 0.33502 0.41629
#
# Static dielectric constant tensor:
#      x y z
#    x 1.668850 0.000000 0.000000 
#    y 0.000000 1.745890 0.000000 
#    z 0.000000 0.000000 1.748750 
# 
# From -- ./inp_files/9510.got.cif
#   From: 2010.05.17/outbox.cif.g08.bks.cpg/sg64_5_cif.got.tgz:9510.got - 2010.06.03 16:29:19.
