data_PCOD9481335
_publ_section_title
;
Structure prediction by ZEFSAII (Michael W. Deem and Ramdas Pophale) SiO2 
 PCOD9481335
Probable space group: C M C A
;
_chemical_formula_sum "Si O2"
_cell_formula_units_Z 56
_cell_length_a 13.782797
_cell_length_b 9.852046
_cell_length_c 15.780030
_cell_angle_alpha 90.000000
_cell_angle_beta 90.000000
_cell_angle_gamma 90.000000
_cell_volume 2142.750549
_symmetry_space_group_name_H-M "C M C A"
_symmetry_group_IT_number 64
_symmetry_cell_setting 'orthorhombic'
loop_
_space_group_symop_operation_xyz
x,y,z
-x,1/2-y,1/2+z
x,-y,-z
-x,1/2+y,1/2-z
-x,-y,-z
x,1/2+y,1/2-z
-x,y,z
x,1/2-y,1/2+z
1/2+x,1/2+y,z
1/2-x,-y,1/2+z
1/2+x,1/2-y,-z
1/2-x,y,1/2-z
1/2-x,1/2-y,-z
1/2+x,y,1/2-z
1/2-x,1/2+y,z
1/2+x,-y,1/2+z
loop_
_atom_site_type_symbol
_atom_site_label
_atom_site_fract_x
_atom_site_fract_y
_atom_site_fract_z
Si Si1 0.886391 0.388930 0.380792
Si Si2 0.250000 0.976164 0.250000
Si Si3 0.384474 0.302840 0.944532
Si Si4 0.115607 0.514686 0.897262
O O1 0.828610 0.383353 0.295956
O O2 0.846823 0.301110 0.458925
O O3 0.872818 0.546885 0.408553
O O4 0.000000 0.363491 0.368403
O O5 0.185481 0.049998 0.325018
O O6 0.500000 0.289240 0.956887
O O7 0.360613 0.175076 0.888191
O O8 0.000000 0.486226 0.883095
O O9 0.132424 0.500000 0.000000
#
# Coordination Sequence:
#
# PCOD9481335 Si02
#       4
#    16   8  16  16
#     4   9  19  38  61  88 117 153 204 251 302 361
#     4  12  24  36  62  94 124 162 206 256 300 366
#     4   8  17  39  66  82 112 159 198 250 306 357
#     4  10  23  44  63  88 127 165 203 251 311 368
#
# _framework density 26.134633999999998
#
# number of rings (size 3 to 8) (size 9 to 14) (size 15 to 20)
#    0.000    2.571    0.000    2.571    4.000    2.286 
#    5.143    0.000    0.000    0.000    0.000    0.000 
#    0.000    0.000    0.000    0.000    0.000    0.000 
#
# Total GULP energy -156275.372487 kJ/mol
# GULP energy per Si atom -5581.263303 kJ/mol
# Density = 2.607515 g / cm^3
# Si number density = 26.134634 Si / 1000 Ang^3
#
#
#
# Elastic Constant Matrix: (Units=GPa)
#
#
# Indices 1 2 3 4 5 6 
#
# 1 164.5813 -14.0199 91.3841 0.0000 0.0000 0.0000
# 2 -14.0199 69.1262 28.5183 0.0000 0.0000 0.0000
# 3 91.3841 28.5183 187.7934 0.0000 0.0000 0.0000
# 4 0.0000 0.0000 0.0000 16.5065 0.0000 0.0000
# 5 0.0000 0.0000 0.0000 0.0000 72.4807 0.0000
# 6 0.0000 0.0000 0.0000 0.0000 0.0000 4.7703
#
#
#
# Elastic Compliance Matrix: (Units=1/GPa)
#
#
# Indices 1 2 3 4 5 6 
#
# 1 0.009251 0.003983 -0.005106 0.000000 0.000000 0.000000
# 2 0.003983 0.017148 -0.004542 0.000000 0.000000 0.000000
# 3 -0.005106 -0.004542 0.008500 0.000000 0.000000 0.000000
# 4 0.000000 0.000000 0.000000 0.060582 0.000000 0.000000
# 5 0.000000 0.000000 0.000000 0.000000 0.013797 0.000000
# 6 0.000000 0.000000 0.000000 0.000000 0.000000 0.209631
#
#
# Mechanical properties :
#
#
# Convention : Reuss Voigt Hill
#
# Bulk Modulus (GPa) = 42.43268 70.36286 56.39777
# Shear Modulus (GPa) = 14.78874 39.79273 27.29073
#
# Velocity S-wave (km/s) = 2.38138 3.90629 3.23497
# Velocity P-wave (km/s) = 4.88188 6.87947 5.96489
#
# Compressibility (1/GPa) = 0.02356674
#
# Stress axis : x y z
#
# Youngs Moduli (GPa) = 108.10074 58.31588 117.65196
#
# Poissons Ratio (x) = -0.23226 0.60078
# Poissons Ratio (y) = -0.43055 0.53440
# Poissons Ratio (z) = 0.55200 0.26488
#
# Static dielectric constant tensor:
#      x y z
#    x 2.058260 0.000000 0.000000 
#    y 0.000000 2.157790 0.000000 
#    z 0.000000 0.000000 2.153640 
# 
# From -- ./inp_files/23012.got.cif
#   From: 2010.05.17/outbox.cif.g08.bks.cpg/sg64_12_cif.got.tgz:23012.got - 2010.06.03 16:29:19.
