data_PCOD9481248
_publ_section_title
;
Structure prediction by ZEFSAII (Michael W. Deem and Ramdas Pophale) SiO2 
 PCOD9481248
Probable space group: C M C A
;
_chemical_formula_sum "Si O2"
_cell_formula_units_Z 80
_cell_length_a 28.250936
_cell_length_b 9.117240
_cell_length_c 13.583388
_cell_angle_alpha 90.000000
_cell_angle_beta 90.000000
_cell_angle_gamma 90.000000
_cell_volume 3498.680905
_symmetry_space_group_name_H-M "C M C A"
_symmetry_group_IT_number 64
_symmetry_cell_setting 'orthorhombic'
loop_
_space_group_symop_operation_xyz
x,y,z
-x,1/2-y,1/2+z
x,-y,-z
-x,1/2+y,1/2-z
-x,-y,-z
x,1/2+y,1/2-z
-x,y,z
x,1/2-y,1/2+z
1/2+x,1/2+y,z
1/2-x,-y,1/2+z
1/2+x,1/2-y,-z
1/2-x,y,1/2-z
1/2-x,1/2-y,-z
1/2+x,y,1/2-z
1/2-x,1/2+y,z
1/2+x,-y,1/2+z
loop_
_atom_site_type_symbol
_atom_site_label
_atom_site_fract_x
_atom_site_fract_y
_atom_site_fract_z
Si Si1 0.800394 0.315248 0.886752
Si Si2 0.601867 0.211688 0.860272
Si Si3 0.205953 0.852937 0.376141
Si Si4 0.109375 0.645720 0.560737
Si Si5 0.555550 0.991430 0.731062
O O1 0.798828 0.478420 0.842945
O O2 0.755630 0.221348 0.852552
O O3 0.847996 0.220438 0.880020
O O4 0.795951 0.342886 0.004617
O O5 0.658137 0.228684 0.843762
O O6 0.584453 0.054738 0.823255
O O7 0.572935 0.330773 0.798626
O O8 0.592899 0.243594 0.975396
O O9 0.126131 0.500000 0.500000
O O10 0.070015 0.590076 0.636254
O O11 0.500000 0.996005 0.749015
#
# Coordination Sequence:
#
# PCOD9481248 Si02
#       5
#    16  16  16  16  16
#     4   9  18  32  60  93 125 165 210 246 309 377
#     4  10  23  42  63  93 127 164 212 270 325 380
#     4   9  19  33  59  91 126 167 203 251 307 378
#     4   9  21  39  66  94 129 170 217 264 320 388
#     4  11  24  42  67  91 123 169 216 271 328 383
#
# _framework density 22.865760999999999
#
# number of rings (size 3 to 8) (size 9 to 14) (size 15 to 20)
#    0.000    2.400    0.000    0.600   14.000    4.400 
#    0.000    1.000    0.000    2.400    0.000    0.000 
#    0.000    0.000    0.000    0.000    0.000    0.000 
#
# Total GULP energy -223704.566654 kJ/mol
# GULP energy per Si atom -5592.614166 kJ/mol
# Density = 2.281372 g / cm^3
# Si number density = 22.865761 Si / 1000 Ang^3
#
#
#
# Elastic Constant Matrix: (Units=GPa)
#
#
# Indices 1 2 3 4 5 6 
#
# 1 123.9523 36.3879 -2.4085 0.0000 0.0000 0.0000
# 2 36.3879 52.7324 17.0176 0.0000 0.0000 0.0000
# 3 -2.4085 17.0176 71.3666 0.0000 0.0000 0.0000
# 4 0.0000 0.0000 0.0000 22.0661 0.0000 0.0000
# 5 0.0000 0.0000 0.0000 0.0000 28.9545 0.0000
# 6 0.0000 0.0000 0.0000 0.0000 0.0000 30.3273
#
#
#
# Elastic Compliance Matrix: (Units=1/GPa)
#
#
# Indices 1 2 3 4 5 6 
#
# 1 0.010438 -0.007926 0.002242 0.000000 0.000000 0.000000
# 2 -0.007926 0.026564 -0.006602 0.000000 0.000000 0.000000
# 3 0.002242 -0.006602 0.015662 0.000000 0.000000 0.000000
# 4 0.000000 0.000000 0.000000 0.045318 0.000000 0.000000
# 5 0.000000 0.000000 0.000000 0.000000 0.034537 0.000000
# 6 0.000000 0.000000 0.000000 0.000000 0.000000 0.032974
#
#
# Mechanical properties :
#
#
# Convention : Reuss Voigt Hill
#
# Bulk Modulus (GPa) = 35.59693 38.89391 37.24542
# Shear Modulus (GPa) = 25.07163 29.40654 27.23909
#
# Velocity S-wave (km/s) = 3.31489 3.59005 3.45521
# Velocity P-wave (km/s) = 5.50027 5.85074 5.67821
#
# Compressibility (1/GPa) = 0.02809231
#
# Stress axis : x y z
#
# Youngs Moduli (GPa) = 95.80280 37.64521 63.84870
#
# Poissons Ratio (x) = 0.29839 -0.14317
# Poissons Ratio (y) = 0.75938 0.42151
# Poissons Ratio (z) = -0.21482 0.24852
#
# Static dielectric constant tensor:
#      x y z
#    x 1.774490 0.000000 0.000000 
#    y 0.000000 1.861070 0.000000 
#    z 0.000000 0.000000 2.601580 
# 
# From -- ./inp_files/35363.got.cif
#   From: 2010.05.17/outbox.cif.g08.bks.cpg/sg64_18_cif.got.tgz:35363.got - 2010.06.03 16:29:19.
