data_PCOD9481472
_publ_section_title
;
Structure prediction by ZEFSAII (Michael W. Deem and Ramdas Pophale) SiO2 
 PCOD9481472
Probable space group: C M C A
;
_chemical_formula_sum "Si O2"
_cell_formula_units_Z 72
_cell_length_a 22.929445
_cell_length_b 8.292414
_cell_length_c 16.425759
_cell_angle_alpha 90.000000
_cell_angle_beta 90.000000
_cell_angle_gamma 90.000000
_cell_volume 3123.201220
_symmetry_space_group_name_H-M "C M C A"
_symmetry_group_IT_number 64
_symmetry_cell_setting 'orthorhombic'
loop_
_space_group_symop_operation_xyz
x,y,z
-x,1/2-y,1/2+z
x,-y,-z
-x,1/2+y,1/2-z
-x,-y,-z
x,1/2+y,1/2-z
-x,y,z
x,1/2-y,1/2+z
1/2+x,1/2+y,z
1/2-x,-y,1/2+z
1/2+x,1/2-y,-z
1/2-x,y,1/2-z
1/2-x,1/2-y,-z
1/2+x,y,1/2-z
1/2-x,1/2+y,z
1/2+x,-y,1/2+z
loop_
_atom_site_type_symbol
_atom_site_label
_atom_site_fract_x
_atom_site_fract_y
_atom_site_fract_z
Si Si1 0.671887 0.650807 0.648650
Si Si2 0.000000 0.240134 0.484508
Si Si3 0.600378 0.500000 0.500000
Si Si4 0.000000 0.042564 0.133464
Si Si5 0.787590 0.137980 0.937132
Si Si6 0.630114 0.487783 0.181486
O O1 0.639166 0.579789 0.569799
O O2 0.739324 0.610084 0.632490
O O3 0.648889 0.566971 0.729540
O O4 0.660351 0.841998 0.657307
O O5 0.000000 0.294426 0.579423
O O6 0.000000 0.397135 0.430469
O O7 0.943300 0.135146 0.466961
O O8 0.939046 0.022497 0.179785
O O9 0.846556 0.148465 0.882948
O O10 0.750000 0.250000 0.000000
O O11 0.803719 0.000000 0.000000
#
# Coordination Sequence:
#
# PCOD9481472 Si02
#       6
#    16   8   8   8  16  16
#     4  12  28  48  77 110 157 199 259 321 387 466
#     4  10  24  42  74 105 149 197 263 310 369 457
#     4  11  24  48  72 108 144 209 256 310 380 457
#     4  11  26  46  78 110 159 197 259 316 382 469
#     4  12  27  47  81 110 148 195 256 315 383 455
#     4  12  30  49  75 116 157 203 256 314 396 456
#
# _framework density 23.053270999999999
#
# number of rings (size 3 to 8) (size 9 to 14) (size 15 to 20)
#    0.000    0.444    5.556    0.667   12.444    4.444 
#    0.000    0.000    0.000    0.000    0.000    0.000 
#    0.000    0.000    0.000    0.000    0.000    0.000 
#
# Total GULP energy -201124.687417 kJ/mol
# GULP energy per Si atom -5586.796873 kJ/mol
# Density = 2.300080 g / cm^3
# Si number density = 23.053271 Si / 1000 Ang^3
#
#
#
# Elastic Constant Matrix: (Units=GPa)
#
#
# Indices 1 2 3 4 5 6 
#
# 1 152.5660 20.4167 33.3242 0.0000 0.0000 0.0000
# 2 20.4167 69.4792 36.4728 0.0000 0.0000 0.0000
# 3 33.3242 36.4728 111.3336 0.0000 0.0000 0.0000
# 4 0.0000 0.0000 0.0000 45.1399 0.0000 0.0000
# 5 0.0000 0.0000 0.0000 0.0000 3.7778 0.0000
# 6 0.0000 0.0000 0.0000 0.0000 0.0000 34.8820
#
#
#
# Elastic Compliance Matrix: (Units=1/GPa)
#
#
# Indices 1 2 3 4 5 6 
#
# 1 0.007091 -0.001171 -0.001739 0.000000 0.000000 0.000000
# 2 -0.001171 0.017575 -0.005407 0.000000 0.000000 0.000000
# 3 -0.001739 -0.005407 0.011274 0.000000 0.000000 0.000000
# 4 0.000000 0.000000 0.000000 0.022153 0.000000 0.000000
# 5 0.000000 0.000000 0.000000 0.000000 0.264704 0.000000
# 6 0.000000 0.000000 0.000000 0.000000 0.000000 0.028668
#
#
# Mechanical properties :
#
#
# Convention : Reuss Voigt Hill
#
# Bulk Modulus (GPa) = 51.79657 57.08958 54.44307
# Shear Modulus (GPa) = 13.34988 32.97096 23.16042
#
# Velocity S-wave (km/s) = 2.40904 3.78591 3.17306
# Velocity P-wave (km/s) = 5.50045 6.62788 6.09031
#
# Compressibility (1/GPa) = 0.01930630
#
# Stress axis : x y z
#
# Youngs Moduli (GPa) = 141.02285 56.89786 88.70054
#
# Poissons Ratio (x) = 0.06662 0.15424
# Poissons Ratio (y) = 0.16512 0.47962
# Poissons Ratio (z) = 0.24522 0.30766
#
# Static dielectric constant tensor:
#      x y z
#    x 1.867910 0.000000 0.000000 
#    y 0.000000 1.943830 0.000000 
#    z 0.000000 0.000000 1.826010 
# 
# From -- ./inp_files/27865.got.cif
#   From: 2010.05.17/outbox.cif.g08.bks.cpg/sg64_14_cif.got.tgz:27865.got - 2010.06.03 16:29:19.
