data_PCOD9481955
_publ_section_title
;
Structure prediction by ZEFSAII (Michael W. Deem and Ramdas Pophale) SiO2 
 PCOD9481955
Probable space group: C M C A
;
_chemical_formula_sum "Si O2"
_cell_formula_units_Z 80
_cell_length_a 8.086922
_cell_length_b 15.331978
_cell_length_c 31.359518
_cell_angle_alpha 90.000000
_cell_angle_beta 90.000000
_cell_angle_gamma 90.000000
_cell_volume 3888.219917
_symmetry_space_group_name_H-M "C M C A"
_symmetry_group_IT_number 64
_symmetry_cell_setting 'orthorhombic'
loop_
_space_group_symop_operation_xyz
x,y,z
-x,1/2-y,1/2+z
x,-y,-z
-x,1/2+y,1/2-z
-x,-y,-z
x,1/2+y,1/2-z
-x,y,z
x,1/2-y,1/2+z
1/2+x,1/2+y,z
1/2-x,-y,1/2+z
1/2+x,1/2-y,-z
1/2-x,y,1/2-z
1/2-x,1/2-y,-z
1/2+x,y,1/2-z
1/2-x,1/2+y,z
1/2+x,-y,1/2+z
loop_
_atom_site_type_symbol
_atom_site_label
_atom_site_fract_x
_atom_site_fract_y
_atom_site_fract_z
Si Si1 0.802858 0.869574 0.201110
Si Si2 0.188924 0.481198 0.545605
Si Si3 0.199954 0.780044 0.862075
Si Si4 0.296934 0.519435 0.138100
Si Si5 0.815519 0.728350 0.453445
O O1 0.750000 0.869989 0.250000
O O2 0.746613 0.783919 0.175735
O O3 0.000000 0.872243 0.199821
O O4 0.740970 0.953639 0.174582
O O5 0.270587 0.500000 0.500000
O O6 0.261071 0.510506 0.590858
O O7 0.178370 0.376738 0.549233
O O8 0.000000 0.517277 0.543182
O O9 0.254048 0.880163 0.854744
O O10 0.266988 0.746758 0.908280
O O11 0.000000 0.782291 0.865617
O O12 0.500000 0.519100 0.136567
O O13 0.750000 0.750000 0.500000
O O14 0.000000 0.765266 0.452788
#
# Coordination Sequence:
#
# PCOD9481955 Si02
#       5
#    16  16  16  16  16
#     4  11  23  38  59  85 108 139 184 231 279 332
#     4   8  14  26  47  75 103 136 177 215 253 308
#     4   9  19  38  57  79 114 149 182 227 277 325
#     4   8  17  34  54  78 109 144 182 224 270 323
#     4   9  18  30  49  77 109 144 179 219 266 315
#
# _framework density 20.574967000000001
#
# number of rings (size 3 to 8) (size 9 to 14) (size 15 to 20)
#    0.000    3.000    0.000    3.000    2.800    1.600 
#    0.000    4.000    0.000    3.000    0.000    0.000 
#    0.000    0.000    0.000    0.000    0.000    0.000 
#
# Total GULP energy -222864.402871 kJ/mol
# GULP energy per Si atom -5571.610072 kJ/mol
# Density = 2.052814 g / cm^3
# Si number density = 20.574967 Si / 1000 Ang^3
#
#
#
# Elastic Constant Matrix: (Units=GPa)
#
#
# Indices 1 2 3 4 5 6 
#
# 1 14.3452 7.4138 18.4468 0.0000 0.0000 0.0000
# 2 7.4138 87.8848 92.7463 0.0000 0.0000 0.0000
# 3 18.4468 92.7463 249.0638 0.0000 0.0000 0.0000
# 4 0.0000 0.0000 0.0000 39.0768 0.0000 0.0000
# 5 0.0000 0.0000 0.0000 0.0000 14.5003 0.0000
# 6 0.0000 0.0000 0.0000 0.0000 0.0000 9.3283
#
#
#
# Elastic Compliance Matrix: (Units=1/GPa)
#
#
# Indices 1 2 3 4 5 6 
#
# 1 0.077081 -0.000787 -0.005416 0.000000 0.000000 0.000000
# 2 -0.000787 0.018753 -0.006925 0.000000 0.000000 0.000000
# 3 -0.005416 -0.006925 0.006995 0.000000 0.000000 0.000000
# 4 0.000000 0.000000 0.000000 0.025591 0.000000 0.000000
# 5 0.000000 0.000000 0.000000 0.000000 0.068964 0.000000
# 6 0.000000 0.000000 0.000000 0.000000 0.000000 0.107200
#
#
# Mechanical properties :
#
#
# Convention : Reuss Voigt Hill
#
# Bulk Modulus (GPa) = 13.05938 65.38974 39.22456
# Shear Modulus (GPa) = 14.03061 28.09354 21.06207
#
# Velocity S-wave (km/s) = 2.61420 3.69917 3.20296
# Velocity P-wave (km/s) = 3.93358 7.07781 5.72575
#
# Compressibility (1/GPa) = 0.07657333
#
# Stress axis : x y z
#
# Youngs Moduli (GPa) = 12.97335 53.32504 142.96187
#
# Poissons Ratio (x) = 0.04196 0.77428
# Poissons Ratio (y) = 0.01021 0.99000
# Poissons Ratio (z) = 0.07026 0.36927
#
# Static dielectric constant tensor:
#      x y z
#    x 1.758420 0.000000 0.000000 
#    y 0.000000 1.726570 0.000000 
#    z 0.000000 0.000000 1.797240 
# 
# From -- ./inp_files/49144.got.cif
#   From: 2010.05.17/outbox.cif.g08.bks.cpg/sg64_25_cif.got.tgz:49144.got - 2010.06.03 16:29:19.
