data_PCOD9481493
_publ_section_title
;
Structure prediction by ZEFSAII (Michael W. Deem and Ramdas Pophale) SiO2 
 PCOD9481493
Probable space group: C M C A
;
_chemical_formula_sum "Si O2"
_cell_formula_units_Z 64
_cell_length_a 21.895217
_cell_length_b 14.181569
_cell_length_c 8.991625
_cell_angle_alpha 90.000000
_cell_angle_beta 90.000000
_cell_angle_gamma 90.000000
_cell_volume 2791.976267
_symmetry_space_group_name_H-M "C M C A"
_symmetry_group_IT_number 64
_symmetry_cell_setting 'orthorhombic'
loop_
_space_group_symop_operation_xyz
x,y,z
-x,1/2-y,1/2+z
x,-y,-z
-x,1/2+y,1/2-z
-x,-y,-z
x,1/2+y,1/2-z
-x,y,z
x,1/2-y,1/2+z
1/2+x,1/2+y,z
1/2-x,-y,1/2+z
1/2+x,1/2-y,-z
1/2-x,y,1/2-z
1/2-x,1/2-y,-z
1/2+x,y,1/2-z
1/2-x,1/2+y,z
1/2+x,-y,1/2+z
loop_
_atom_site_type_symbol
_atom_site_label
_atom_site_fract_x
_atom_site_fract_y
_atom_site_fract_z
Si Si1 0.179052 0.857560 0.356601
Si Si2 0.500000 0.879848 0.853800
Si Si3 0.500000 0.704925 0.041912
Si Si4 0.090667 0.000000 0.500000
Si Si5 0.143122 0.164682 0.989182
Si Si6 0.222003 0.000000 0.000000
O O1 0.124591 0.914988 0.426351
O O2 0.164283 0.840280 0.183361
O O3 0.175008 0.756258 0.437116
O O4 0.233837 0.930159 0.404950
O O5 0.500000 0.813745 0.997506
O O6 0.500000 0.811425 0.716853
O O7 0.444600 0.950658 0.865342
O O8 0.568353 0.667259 0.993654
O O9 0.174394 0.074756 0.072046
#
# Coordination Sequence:
#
# PCOD9481493 Si02
#       6
#    16   8   8   8  16   8
#     4  11  26  49  77 108 151 201 262 317 381 451
#     4  11  24  45  72 107 160 205 251 302 381 460
#     4  12  26  44  77 115 157 199 246 317 381 462
#     4  10  24  43  74 107 152 204 248 308 378 450
#     4  12  27  47  78 115 154 202 255 319 386 459
#     4  11  28  48  74 110 146 205 256 314 382 451
#
# _framework density 22.922832
#
# number of rings (size 3 to 8) (size 9 to 14) (size 15 to 20)
#    0.000    0.750    2.500    3.000    3.500    5.500 
#    0.000    0.000    0.000    0.000    0.000    0.000 
#    0.000    0.000    0.000    0.000    0.000    0.000 
#
# Total GULP energy -178155.744064 kJ/mol
# GULP energy per Si atom -5567.367002 kJ/mol
# Density = 2.287066 g / cm^3
# Si number density = 22.922832 Si / 1000 Ang^3
#
#
#
# Elastic Constant Matrix: (Units=GPa)
#
#
# Indices 1 2 3 4 5 6 
#
# 1 157.9056 59.7355 24.0135 0.0000 0.0000 0.0000
# 2 59.7355 166.1987 15.0652 0.0000 0.0000 0.0000
# 3 24.0135 15.0652 62.7291 0.0000 0.0000 0.0000
# 4 0.0000 0.0000 0.0000 -1.4436 0.0000 0.0000
# 5 0.0000 0.0000 0.0000 0.0000 15.0470 0.0000
# 6 0.0000 0.0000 0.0000 0.0000 0.0000 55.8460
#
#
#
# Elastic Compliance Matrix: (Units=1/GPa)
#
#
# Indices 1 2 3 4 5 6 
#
# 1 0.007645 -0.002538 -0.002317 0.000000 0.000000 0.000000
# 2 -0.002538 0.006993 -0.000708 0.000000 0.000000 0.000000
# 3 -0.002317 -0.000708 0.016999 0.000000 0.000000 0.000000
# 4 0.000000 0.000000 0.000000 -0.692716 0.000000 0.000000
# 5 0.000000 0.000000 0.000000 0.000000 0.066458 0.000000
# 6 0.000000 0.000000 0.000000 0.000000 0.000000 0.017906
#
#
# Mechanical properties :
#
#
# Convention : Reuss Voigt Hill
#
# Bulk Modulus (GPa) = 48.75412 64.94017 56.84714
# Shear Modulus (GPa) = -8.94853 33.09117 12.07132
#
# Velocity S-wave (km/s) = -1.97794 3.80358 2.29728
# Velocity P-wave (km/s) = 4.01231 6.90515 5.64711
#
# Compressibility (1/GPa) = 0.02051109
#
# Stress axis : x y z
#
# Youngs Moduli (GPa) = 130.79822 142.99530 58.82811
#
# Poissons Ratio (x) = 0.36290 0.13632
# Poissons Ratio (y) = 0.33195 0.04165
# Poissons Ratio (z) = 0.30309 0.10124
#
# Static dielectric constant tensor:
#      x y z
#    x 2.026300 0.000000 0.000000 
#    y 0.000000 1.780240 0.000000 
#    z 0.000000 0.000000 1.879550 
# 
# From -- ./inp_files/9028.got.cif
#   From: 2010.05.17/outbox.cif.g08.bks.cpg/sg64_5_cif.got.tgz:9028.got - 2010.06.03 16:29:19.
