data_PCOD9481548
_publ_section_title
;
Structure prediction by ZEFSAII (Michael W. Deem and Ramdas Pophale) SiO2 
 PCOD9481548
Probable space group: C M C A
;
_chemical_formula_sum "Si O2"
_cell_formula_units_Z 56
_cell_length_a 8.653626
_cell_length_b 13.121462
_cell_length_c 19.711236
_cell_angle_alpha 90.000000
_cell_angle_beta 90.000000
_cell_angle_gamma 90.000000
_cell_volume 2238.175855
_symmetry_space_group_name_H-M "C M C A"
_symmetry_group_IT_number 64
_symmetry_cell_setting 'orthorhombic'
loop_
_space_group_symop_operation_xyz
x,y,z
-x,1/2-y,1/2+z
x,-y,-z
-x,1/2+y,1/2-z
-x,-y,-z
x,1/2+y,1/2-z
-x,y,z
x,1/2-y,1/2+z
1/2+x,1/2+y,z
1/2-x,-y,1/2+z
1/2+x,1/2-y,-z
1/2-x,y,1/2-z
1/2-x,1/2-y,-z
1/2+x,y,1/2-z
1/2-x,1/2+y,z
1/2+x,-y,1/2+z
loop_
_atom_site_type_symbol
_atom_site_label
_atom_site_fract_x
_atom_site_fract_y
_atom_site_fract_z
Si Si1 0.250000 0.534788 0.750000
Si Si2 0.000000 0.242291 0.524448
Si Si3 0.676250 0.932789 0.565788
Si Si4 0.000000 0.624279 0.273370
Si Si5 0.000000 0.871511 0.615441
Si Si6 0.000000 0.655473 0.836800
O O1 0.360876 0.452947 0.785008
O O2 0.148052 0.604968 0.799808
O O3 0.143204 0.316655 0.542082
O O4 0.000000 0.208399 0.446603
O O5 0.000000 0.153648 0.581482
O O6 0.500000 0.965652 0.588209
O O7 0.838678 0.931091 0.605353
O O8 0.706432 0.000000 0.500000
O O9 0.000000 0.724431 0.318268
O O10 0.000000 0.661192 0.194468
#
# Coordination Sequence:
#
# PCOD9481548 Si02
#       6
#     8   8  16   8   8   8
#     4  10  26  48  70 110 144 192 266 308 388 476
#     4  10  24  46  70 110 148 193 265 311 388 469
#     4   9  22  42  65 107 152 193 242 313 383 460
#     4  11  27  50  75 108 153 205 252 327 392 472
#     4  12  24  45  74 105 151 198 252 320 387 456
#     4  11  25  49  80 105 153 210 249 329 390 463
#
# _framework density 25.020375999999999
#
# number of rings (size 3 to 8) (size 9 to 14) (size 15 to 20)
#    0.857    0.857    0.000    2.143    8.000    4.571 
#    7.714    0.000    0.000    0.000    0.000    0.000 
#    0.000    0.000    0.000    0.000    0.000    0.000 
#
# Total GULP energy -156307.765511 kJ/mol
# GULP energy per Si atom -5582.420197 kJ/mol
# Density = 2.496343 g / cm^3
# Si number density = 25.020376 Si / 1000 Ang^3
#
#
#
# Elastic Constant Matrix: (Units=GPa)
#
#
# Indices 1 2 3 4 5 6 
#
# 1 166.8168 25.9139 35.2206 0.0000 0.0000 0.0000
# 2 25.9139 122.5522 37.8437 0.0000 0.0000 0.0000
# 3 35.2206 37.8437 160.8975 0.0000 0.0000 0.0000
# 4 0.0000 0.0000 0.0000 42.6271 0.0000 0.0000
# 5 0.0000 0.0000 0.0000 0.0000 30.5092 0.0000
# 6 0.0000 0.0000 0.0000 0.0000 0.0000 52.0465
#
#
#
# Elastic Compliance Matrix: (Units=1/GPa)
#
#
# Indices 1 2 3 4 5 6 
#
# 1 0.006395 -0.000992 -0.001167 0.000000 0.000000 0.000000
# 2 -0.000992 0.008953 -0.001889 0.000000 0.000000 0.000000
# 3 -0.001167 -0.001889 0.006915 0.000000 0.000000 0.000000
# 4 0.000000 0.000000 0.000000 0.023459 0.000000 0.000000
# 5 0.000000 0.000000 0.000000 0.000000 0.032777 0.000000
# 6 0.000000 0.000000 0.000000 0.000000 0.000000 0.019214
#
#
# Mechanical properties :
#
#
# Convention : Reuss Voigt Hill
#
# Bulk Modulus (GPa) = 70.58069 72.02477 71.30273
# Shear Modulus (GPa) = 45.23691 48.45578 46.84635
#
# Velocity S-wave (km/s) = 4.25667 4.40552 4.33173
# Velocity P-wave (km/s) = 7.24083 7.39777 7.31972
#
# Compressibility (1/GPa) = 0.01416818
#
# Stress axis : x y z
#
# Youngs Moduli (GPa) = 156.37214 111.69773 144.61963
#
# Poissons Ratio (x) = 0.11081 0.16871
# Poissons Ratio (y) = 0.15512 0.27312
# Poissons Ratio (z) = 0.18242 0.21095
#
# Static dielectric constant tensor:
#      x y z
#    x 1.850020 0.000000 0.000000 
#    y 0.000000 1.937910 0.000000 
#    z 0.000000 0.000000 2.063910 
# 
# From -- ./inp_files/36196.got.cif
#   From: 2010.05.17/outbox.cif.g08.bks.cpg/sg64_19_cif.got.tgz:36196.got - 2010.06.03 16:29:19.
