data_PCOD9481525
_publ_section_title
;
Structure prediction by ZEFSAII (Michael W. Deem and Ramdas Pophale) SiO2 
 PCOD9481525
Probable space group: C M C A
;
_chemical_formula_sum "Si O2"
_cell_formula_units_Z 120
_cell_length_a 24.978443
_cell_length_b 10.634017
_cell_length_c 19.561066
_cell_angle_alpha 90.000000
_cell_angle_beta 90.000000
_cell_angle_gamma 90.000000
_cell_volume 5195.833580
_symmetry_space_group_name_H-M "C M C A"
_symmetry_group_IT_number 64
_symmetry_cell_setting 'orthorhombic'
loop_
_space_group_symop_operation_xyz
x,y,z
-x,1/2-y,1/2+z
x,-y,-z
-x,1/2+y,1/2-z
-x,-y,-z
x,1/2+y,1/2-z
-x,y,z
x,1/2-y,1/2+z
1/2+x,1/2+y,z
1/2-x,-y,1/2+z
1/2+x,1/2-y,-z
1/2-x,y,1/2-z
1/2-x,1/2-y,-z
1/2+x,y,1/2-z
1/2-x,1/2+y,z
1/2+x,-y,1/2+z
loop_
_atom_site_type_symbol
_atom_site_label
_atom_site_fract_x
_atom_site_fract_y
_atom_site_fract_z
Si Si1 0.808093 0.046736 0.623485
Si Si2 0.371832 0.165576 0.041001
Si Si3 0.908434 0.696483 0.891749
Si Si4 0.910563 0.719069 0.678035
Si Si5 0.703699 0.894532 0.446746
Si Si6 0.379594 0.961403 0.646946
Si Si7 0.807167 0.661079 0.236056
Si Si8 0.000000 0.707819 0.786283
O O1 0.853249 0.147235 0.640926
O O2 0.756620 0.122321 0.597783
O O3 0.838785 0.953551 0.569930
O O4 0.793612 0.952284 0.683864
O O5 0.409596 0.215304 0.103307
O O6 0.324716 0.268935 0.026346
O O7 0.405757 0.154943 0.971168
O O8 0.909705 0.847680 0.889407
O O9 0.954092 0.655730 0.840177
O O10 0.919107 0.568648 0.674814
O O11 0.849807 0.745816 0.701895
O O12 0.952795 0.763730 0.734093
O O13 0.721426 0.000000 0.500000
O O14 0.657144 0.964127 0.405663
O O15 0.339847 0.904083 0.703003
O O16 0.750000 0.723184 0.250000
#
# Coordination Sequence:
#
# PCOD9481525 Si02
#       8
#    16  16  16  16  16  16  16   8
#     4  11  25  41  66 106 148 186 233 280 348 433
#     4  10  24  45  68 105 150 180 235 293 352 422
#     4  12  25  45  72 101 137 184 243 287 351 424
#     4  10  25  45  67 101 136 182 234 296 357 410
#     4  11  21  37  69 102 146 189 219 278 353 422
#     4  11  23  41  66 102 138 176 234 285 344 432
#     4  11  22  42  67  99 141 186 227 288 353 425
#     4  12  26  50  73  96 131 190 244 302 349 415
#
# _framework density 23.095428999999999
#
# number of rings (size 3 to 8) (size 9 to 14) (size 15 to 20)
#    0.000    1.067    4.000    2.000    1.867    3.733 
#    4.800    1.333    0.000    2.400    0.000    0.000 
#    0.000    0.000    0.000    0.000    0.000    0.000 
#
# Total GULP energy -334257.363282 kJ/mol
# GULP energy per Si atom -5570.956055 kJ/mol
# Density = 2.304286 g / cm^3
# Si number density = 23.095429 Si / 1000 Ang^3
#
#
#
# Elastic Constant Matrix: (Units=GPa)
#
#
# Indices 1 2 3 4 5 6 
#
# 1 72.8293 -16.8669 8.2147 0.0000 0.0000 0.0000
# 2 -16.8669 57.7938 -14.4925 0.0000 0.0000 0.0000
# 3 8.2147 -14.4925 95.4862 0.0000 0.0000 0.0000
# 4 0.0000 0.0000 0.0000 20.6624 0.0000 0.0000
# 5 0.0000 0.0000 0.0000 0.0000 47.0681 0.0000
# 6 0.0000 0.0000 0.0000 0.0000 0.0000 -10.4452
#
#
#
# Elastic Compliance Matrix: (Units=1/GPa)
#
#
# Indices 1 2 3 4 5 6 
#
# 1 0.014764 0.004148 -0.000641 0.000000 0.000000 0.000000
# 2 0.004148 0.019153 0.002550 0.000000 0.000000 0.000000
# 3 -0.000641 0.002550 0.010915 0.000000 0.000000 0.000000
# 4 0.000000 0.000000 0.000000 0.048397 0.000000 0.000000
# 5 0.000000 0.000000 0.000000 0.000000 0.021246 0.000000
# 6 0.000000 0.000000 0.000000 0.000000 0.000000 -0.095738
#
#
# Mechanical properties :
#
#
# Convention : Reuss Voigt Hill
#
# Bulk Modulus (GPa) = 17.56024 19.97998 18.77011
# Shear Modulus (GPa) = 195.28502 28.07399 111.67951
#
# Velocity S-wave (km/s) = 9.20539 3.49028 6.96137
# Velocity P-wave (km/s) = 10.98205 4.99125 8.52989
#
# Compressibility (1/GPa) = 0.05694684
#
# Stress axis : x y z
#
# Youngs Moduli (GPa) = 67.73386 52.21118 91.61819
#
# Poissons Ratio (x) = -0.21658 0.05868
# Poissons Ratio (y) = -0.28097 -0.23364
# Poissons Ratio (z) = 0.04339 -0.13314
#
# Static dielectric constant tensor:
#      x y z
#    x 1.800780 0.000000 0.000000 
#    y 0.000000 1.967160 0.000000 
#    z 0.000000 0.000000 2.017370 
# 
# From -- ./inp_files/41981.got.cif
#   From: 2010.05.17/outbox.cif.g08.bks.cpg/sg64_21_cif.got.tgz:41981.got - 2010.06.03 16:29:19.
