data_PCOD9481172
_publ_section_title
;
Structure prediction by ZEFSAII (Michael W. Deem and Ramdas Pophale) SiO2 
 PCOD9481172
Probable space group: C M C A
;
_chemical_formula_sum "Si O2"
_cell_formula_units_Z 52
_cell_length_a 18.294493
_cell_length_b 4.977561
_cell_length_c 23.559253
_cell_angle_alpha 90.000000
_cell_angle_beta 90.000000
_cell_angle_gamma 90.000000
_cell_volume 2145.351633
_symmetry_space_group_name_H-M "C M C A"
_symmetry_group_IT_number 64
_symmetry_cell_setting 'orthorhombic'
loop_
_space_group_symop_operation_xyz
x,y,z
-x,1/2-y,1/2+z
x,-y,-z
-x,1/2+y,1/2-z
-x,-y,-z
x,1/2+y,1/2-z
-x,y,z
x,1/2-y,1/2+z
1/2+x,1/2+y,z
1/2-x,-y,1/2+z
1/2+x,1/2-y,-z
1/2-x,y,1/2-z
1/2-x,1/2-y,-z
1/2+x,y,1/2-z
1/2-x,1/2+y,z
1/2+x,-y,1/2+z
loop_
_atom_site_type_symbol
_atom_site_label
_atom_site_fract_x
_atom_site_fract_y
_atom_site_fract_z
Si Si1 0.701959 0.039196 0.566325
Si Si2 0.000000 0.000000 0.500000
Si Si3 0.419409 0.823774 0.111212
Si Si4 0.411590 0.180454 0.217126
O O1 0.729613 0.338584 0.576432
O O2 0.682879 0.000000 0.500000
O O3 0.635117 0.919746 0.601251
O O4 0.062456 0.958799 0.449800
O O5 0.500000 0.717072 0.129903
O O6 0.394327 0.035515 0.158113
O O7 0.385636 0.975743 0.266500
O O8 0.500000 0.191977 0.218490
#
# Coordination Sequence:
#
# PCOD9481172 Si02
#       4
#    16   4  16  16
#     4  10  23  39  59  84 122 163 199 236 297 370
#     4   8  20  36  58 100 122 152 192 262 312 346
#     4   9  20  38  62  91 124 156 200 262 299 364
#     4   9  18  35  57  84 113 153 200 245 300 354
#
# _framework density 24.23845
#
# number of rings (size 3 to 8) (size 9 to 14) (size 15 to 20)
#    0.923    1.846    0.000    0.000    6.462    3.077 
#    0.000    4.615    0.000    6.462    0.000    0.000 
#    0.000    0.000    0.000    0.000    0.000    0.000 
#
# Total GULP energy -144850.025536 kJ/mol
# GULP energy per Si atom -5571.154828 kJ/mol
# Density = 2.418328 g / cm^3
# Si number density = 24.238450 Si / 1000 Ang^3
#
#
#
# Elastic Constant Matrix: (Units=GPa)
#
#
# Indices 1 2 3 4 5 6 
#
# 1 44.3983 -2.9395 25.1628 0.0000 0.0000 0.0000
# 2 -2.9395 83.5099 29.2000 0.0000 0.0000 0.0000
# 3 25.1628 29.2000 133.0208 0.0000 0.0000 0.0000
# 4 0.0000 0.0000 0.0000 39.8135 0.0000 0.0000
# 5 0.0000 0.0000 0.0000 0.0000 23.8408 0.0000
# 6 0.0000 0.0000 0.0000 0.0000 0.0000 20.5506
#
#
#
# Elastic Compliance Matrix: (Units=1/GPa)
#
#
# Indices 1 2 3 4 5 6 
#
# 1 0.025833 0.002836 -0.005509 0.000000 0.000000 0.000000
# 2 0.002836 0.013281 -0.003452 0.000000 0.000000 0.000000
# 3 -0.005509 -0.003452 0.009318 0.000000 0.000000 0.000000
# 4 0.000000 0.000000 0.000000 0.025117 0.000000 0.000000
# 5 0.000000 0.000000 0.000000 0.000000 0.041945 0.000000
# 6 0.000000 0.000000 0.000000 0.000000 0.000000 0.048660
#
#
# Mechanical properties :
#
#
# Convention : Reuss Voigt Hill
#
# Bulk Modulus (GPa) = 27.63840 40.41951 34.02896
# Shear Modulus (GPa) = 26.52996 30.80804 28.66900
#
# Velocity S-wave (km/s) = 3.31197 3.56903 3.44290
# Velocity P-wave (km/s) = 5.10422 5.80482 5.46576
#
# Compressibility (1/GPa) = 0.03618155
#
# Stress axis : x y z
#
# Youngs Moduli (GPa) = 38.70944 75.29315 107.32472
#
# Poissons Ratio (x) = -0.21351 0.59128
# Poissons Ratio (y) = -0.10977 0.37047
# Poissons Ratio (z) = 0.21326 0.25990
#
# Static dielectric constant tensor:
#      x y z
#    x 1.922900 0.000000 0.000000 
#    y 0.000000 1.944880 0.000000 
#    z 0.000000 0.000000 1.963440 
# 
# From -- ./inp_files/40636.got.cif
#   From: 2010.05.17/outbox.cif.g08.bks.cpg/sg64_21_cif.got.tgz:40636.got - 2010.06.03 16:29:19.
