data_PCOD9481890
_publ_section_title
;
Structure prediction by ZEFSAII (Michael W. Deem and Ramdas Pophale) SiO2 
 PCOD9481890
Probable space group: C M C A
;
_chemical_formula_sum "Si O2"
_cell_formula_units_Z 96
_cell_length_a 24.140125
_cell_length_b 18.316196
_cell_length_c 11.497537
_cell_angle_alpha 90.000000
_cell_angle_beta 90.000000
_cell_angle_gamma 90.000000
_cell_volume 5083.696473
_symmetry_space_group_name_H-M "C M C A"
_symmetry_group_IT_number 64
_symmetry_cell_setting 'orthorhombic'
loop_
_space_group_symop_operation_xyz
x,y,z
-x,1/2-y,1/2+z
x,-y,-z
-x,1/2+y,1/2-z
-x,-y,-z
x,1/2+y,1/2-z
-x,y,z
x,1/2-y,1/2+z
1/2+x,1/2+y,z
1/2-x,-y,1/2+z
1/2+x,1/2-y,-z
1/2-x,y,1/2-z
1/2-x,1/2-y,-z
1/2+x,y,1/2-z
1/2-x,1/2+y,z
1/2+x,-y,1/2+z
loop_
_atom_site_type_symbol
_atom_site_label
_atom_site_fract_x
_atom_site_fract_y
_atom_site_fract_z
Si Si1 0.379477 0.956980 0.236936
Si Si2 0.500000 0.106464 0.434651
Si Si3 0.806035 0.810112 0.671897
Si Si4 0.377651 0.881412 0.646861
Si Si5 0.313415 0.853771 0.409171
Si Si6 0.000000 0.946857 0.187045
Si Si7 0.795988 0.076549 0.536636
O O1 0.351598 0.897501 0.320413
O O2 0.444843 0.941941 0.237382
O O3 0.348604 0.946217 0.114391
O O4 0.372597 0.037534 0.295365
O O5 0.440587 0.135358 0.391813
O O6 0.500000 0.106145 0.575002
O O7 0.500000 0.025095 0.378801
O O8 0.750000 0.813189 0.750000
O O9 0.856387 0.824407 0.758815
O O10 0.812577 0.732539 0.610228
O O11 0.807152 0.873766 0.575461
O O12 0.337134 0.874647 0.536077
O O13 0.250489 0.880143 0.393161
O O14 0.769179 0.000000 0.500000
#
# Coordination Sequence:
#
# PCOD9481890 Si02
#       7
#    16   8  16  16  16   8  16
#     4  11  22  40  66 100 124 168 221 275 315 379
#     4   9  18  38  66  95 122 168 217 272 318 372
#     4  12  26  43  61  93 138 177 207 264 328 396
#     4  11  22  42  67  95 129 166 222 273 318 375
#     4  12  25  38  68  93 132 168 214 265 333 381
#     4   9  18  36  65  96 127 159 220 272 318 375
#     4  12  24  41  64  96 130 172 214 262 326 391
#
# _framework density 18.883897000000001
#
# number of rings (size 3 to 8) (size 9 to 14) (size 15 to 20)
#    0.000    0.833    5.000    3.500    2.333    0.000 
#    0.000    2.917    0.000    0.000    0.000    0.000 
#    0.000    0.000    0.000    0.000    0.000    0.000 
#
# Total GULP energy -268003.987072 kJ/mol
# GULP energy per Si atom -5583.416397 kJ/mol
# Density = 1.884092 g / cm^3
# Si number density = 18.883897 Si / 1000 Ang^3
#
#
#
# Elastic Constant Matrix: (Units=GPa)
#
#
# Indices 1 2 3 4 5 6 
#
# 1 135.9794 35.3496 56.1830 0.0000 0.0000 0.0000
# 2 35.3496 99.2406 41.0973 0.0000 0.0000 0.0000
# 3 56.1830 41.0973 89.4669 0.0000 0.0000 0.0000
# 4 0.0000 0.0000 0.0000 7.4663 0.0000 0.0000
# 5 0.0000 0.0000 0.0000 0.0000 15.1471 0.0000
# 6 0.0000 0.0000 0.0000 0.0000 0.0000 -52.0425
#
#
#
# Elastic Compliance Matrix: (Units=1/GPa)
#
#
# Indices 1 2 3 4 5 6 
#
# 1 0.010044 -0.001193 -0.005759 0.000000 0.000000 0.000000
# 2 -0.001193 0.012585 -0.005032 0.000000 0.000000 0.000000
# 3 -0.005759 -0.005032 0.017106 0.000000 0.000000 0.000000
# 4 0.000000 0.000000 0.000000 0.133935 0.000000 0.000000
# 5 0.000000 0.000000 0.000000 0.000000 0.066019 0.000000
# 6 0.000000 0.000000 0.000000 0.000000 0.000000 -0.019215
#
#
# Mechanical properties :
#
#
# Convention : Reuss Voigt Hill
#
# Bulk Modulus (GPa) = 63.42648 65.54963 64.48805
# Shear Modulus (GPa) = 20.02425 6.91798 13.47111
#
# Velocity S-wave (km/s) = 3.25989 1.91608 2.67379
# Velocity P-wave (km/s) = 6.91590 6.29940 6.61484
#
# Compressibility (1/GPa) = 0.01576629
#
# Stress axis : x y z
#
# Youngs Moduli (GPa) = 99.56501 79.45813 58.46008
#
# Poissons Ratio (x) = 0.09475 0.33670
# Poissons Ratio (y) = 0.11873 0.29419
# Poissons Ratio (z) = 0.57343 0.39985
#
# Static dielectric constant tensor:
#      x y z
#    x 1.653140 0.000000 0.000000 
#    y 0.000000 1.650560 0.000000 
#    z 0.000000 0.000000 1.700280 
# 
# From -- ./inp_files/18412.got.cif
#   From: 2010.05.17/outbox.cif.g08.bks.cpg/sg64_10_cif.got.tgz:18412.got - 2010.06.03 16:29:19.
