data_PCOD9481808
_publ_section_title
;
Structure prediction by ZEFSAII (Michael W. Deem and Ramdas Pophale) SiO2 
 PCOD9481808
Probable space group: C M C A
;
_chemical_formula_sum "Si O2"
_cell_formula_units_Z 64
_cell_length_a 22.276905
_cell_length_b 8.027199
_cell_length_c 14.662260
_cell_angle_alpha 90.000000
_cell_angle_beta 90.000000
_cell_angle_gamma 90.000000
_cell_volume 2621.922188
_symmetry_space_group_name_H-M "C M C A"
_symmetry_group_IT_number 64
_symmetry_cell_setting 'orthorhombic'
loop_
_space_group_symop_operation_xyz
x,y,z
-x,1/2-y,1/2+z
x,-y,-z
-x,1/2+y,1/2-z
-x,-y,-z
x,1/2+y,1/2-z
-x,y,z
x,1/2-y,1/2+z
1/2+x,1/2+y,z
1/2-x,-y,1/2+z
1/2+x,1/2-y,-z
1/2-x,y,1/2-z
1/2-x,1/2-y,-z
1/2+x,y,1/2-z
1/2-x,1/2+y,z
1/2+x,-y,1/2+z
loop_
_atom_site_type_symbol
_atom_site_label
_atom_site_fract_x
_atom_site_fract_y
_atom_site_fract_z
Si Si1 0.156299 0.721658 0.574457
Si Si2 0.373540 0.238801 0.868240
Si Si3 0.738272 0.514392 0.646273
Si Si4 0.070613 0.097396 0.295317
O O1 0.128256 0.719216 0.474482
O O2 0.199939 0.570509 0.600431
O O3 0.103276 0.761059 0.644825
O O4 0.201397 0.880185 0.587659
O O5 0.306619 0.172838 0.846014
O O6 0.397864 0.382283 0.802643
O O7 0.414443 0.077687 0.843780
O O8 0.750000 0.460295 0.750000
O O9 0.000000 0.121451 0.288090
#
# Coordination Sequence:
#
# PCOD9481808 Si02
#       4
#    16  16  16  16
#     4  11  25  44  69 107 138 185 224 283 351 415
#     4  11  25  44  67  99 140 180 227 282 350 408
#     4  11  21  41  70 103 147 178 224 284 350 415
#     4  11  24  45  70  99 134 181 235 284 335 404
#
# _framework density 24.409573000000002
#
# number of rings (size 3 to 8) (size 9 to 14) (size 15 to 20)
#    0.000    1.000    2.500    5.250    3.500    3.000 
#    0.000    1.250    0.000    3.000    0.000    0.000 
#    0.000    0.000    0.000    0.000    0.000    0.000 
#
# Total GULP energy -179526.902141 kJ/mol
# GULP energy per Si atom -5610.215692 kJ/mol
# Density = 2.435402 g / cm^3
# Si number density = 24.409573 Si / 1000 Ang^3
#
#
#
# Elastic Constant Matrix: (Units=GPa)
#
#
# Indices 1 2 3 4 5 6 
#
# 1 190.2801 40.8873 83.1152 0.0000 0.0000 0.0000
# 2 40.8873 97.0800 53.6285 0.0000 0.0000 0.0000
# 3 83.1152 53.6285 220.2223 0.0000 0.0000 0.0000
# 4 0.0000 0.0000 0.0000 36.2985 0.0000 0.0000
# 5 0.0000 0.0000 0.0000 0.0000 2.5727 0.0000
# 6 0.0000 0.0000 0.0000 0.0000 0.0000 26.4141
#
#
#
# Elastic Compliance Matrix: (Units=1/GPa)
#
#
# Indices 1 2 3 4 5 6 
#
# 1 0.006500 -0.001597 -0.002064 0.000000 0.000000 0.000000
# 2 -0.001597 0.012294 -0.002391 0.000000 0.000000 0.000000
# 3 -0.002064 -0.002391 0.005902 0.000000 0.000000 0.000000
# 4 0.000000 0.000000 0.000000 0.027549 0.000000 0.000000
# 5 0.000000 0.000000 0.000000 0.000000 0.388696 0.000000
# 6 0.000000 0.000000 0.000000 0.000000 0.000000 0.037859
#
#
# Mechanical properties :
#
#
# Convention : Reuss Voigt Hill
#
# Bulk Modulus (GPa) = 79.41892 95.87160 87.64526
# Shear Modulus (GPa) = 10.09890 35.05383 22.57636
#
# Velocity S-wave (km/s) = 2.03623 3.79366 3.04451
# Velocity P-wave (km/s) = 6.17535 7.65184 6.95290
#
# Compressibility (1/GPa) = 0.01259146
#
# Stress axis : x y z
#
# Youngs Moduli (GPa) = 153.83744 81.33775 169.42699
#
# Poissons Ratio (x) = 0.12993 0.34975
# Poissons Ratio (y) = 0.24574 0.40511
# Poissons Ratio (z) = 0.31757 0.19448
#
# Static dielectric constant tensor:
#      x y z
#    x 1.867060 0.000000 0.000000 
#    y 0.000000 2.080180 0.000000 
#    z 0.000000 0.000000 1.899820 
# 
# From -- ./inp_files/26907.got.cif
#   From: 2010.05.17/outbox.cif.g08.bks.cpg/sg64_14_cif.got.tgz:26907.got - 2010.06.03 16:29:19.
