data_PCOD9481585
_publ_section_title
;
Structure prediction by ZEFSAII (Michael W. Deem and Ramdas Pophale) SiO2 
 PCOD9481585
Probable space group: C M C A
;
_chemical_formula_sum "Si O2"
_cell_formula_units_Z 56
_cell_length_a 24.445730
_cell_length_b 11.270654
_cell_length_c 9.602162
_cell_angle_alpha 90.000000
_cell_angle_beta 90.000000
_cell_angle_gamma 90.000000
_cell_volume 2645.581573
_symmetry_space_group_name_H-M "C M C A"
_symmetry_group_IT_number 64
_symmetry_cell_setting 'orthorhombic'
loop_
_space_group_symop_operation_xyz
x,y,z
-x,1/2-y,1/2+z
x,-y,-z
-x,1/2+y,1/2-z
-x,-y,-z
x,1/2+y,1/2-z
-x,y,z
x,1/2-y,1/2+z
1/2+x,1/2+y,z
1/2-x,-y,1/2+z
1/2+x,1/2-y,-z
1/2-x,y,1/2-z
1/2-x,1/2-y,-z
1/2+x,y,1/2-z
1/2-x,1/2+y,z
1/2+x,-y,1/2+z
loop_
_atom_site_type_symbol
_atom_site_label
_atom_site_fract_x
_atom_site_fract_y
_atom_site_fract_z
Si Si1 0.562947 0.326445 0.664522
Si Si2 0.139817 0.500000 0.000000
Si Si3 0.790519 0.213822 0.620329
Si Si4 0.107202 0.136529 0.044420
O O1 0.500000 0.334198 0.619063
O O2 0.600065 0.432704 0.606399
O O3 0.565233 0.333185 0.831477
O O4 0.590846 0.211539 0.592789
O O5 0.177362 0.406362 0.082222
O O6 0.750000 0.202604 0.750000
O O7 0.750000 0.250000 0.500000
O O8 0.836673 0.316113 0.615009
O O9 0.109630 0.000000 0.000000
#
# Coordination Sequence:
#
# PCOD9481585 Si02
#       4
#    16   8  16  16
#     4  11  25  46  72 103 141 186 235 290 358 417
#     4  10  25  42  72 104 142 180 239 290 346 426
#     4  11  25  45  70 102 137 185 230 287 354 413
#     4  11  27  48  71 107 144 182 240 295 347 429
#
# _framework density 21.167368
#
# number of rings (size 3 to 8) (size 9 to 14) (size 15 to 20)
#    0.000    1.143    0.000    4.714   14.000    3.429 
#    0.000    0.000    0.000    0.000    0.000    0.000 
#    0.000    0.000    0.000    0.000    0.000    0.000 
#
# Total GULP energy -156484.581151 kJ/mol
# GULP energy per Si atom -5588.735041 kJ/mol
# Density = 2.111919 g / cm^3
# Si number density = 21.167368 Si / 1000 Ang^3
#
#
#
# Elastic Constant Matrix: (Units=GPa)
#
#
# Indices 1 2 3 4 5 6 
#
# 1 146.2142 46.8436 22.4169 0.0000 0.0000 0.0000
# 2 46.8436 149.1323 46.3273 0.0000 0.0000 0.0000
# 3 22.4169 46.3273 98.9183 0.0000 0.0000 0.0000
# 4 0.0000 0.0000 0.0000 20.4209 0.0000 0.0000
# 5 0.0000 0.0000 0.0000 0.0000 37.0248 0.0000
# 6 0.0000 0.0000 0.0000 0.0000 0.0000 -4.7456
#
#
#
# Elastic Compliance Matrix: (Units=1/GPa)
#
#
# Indices 1 2 3 4 5 6 
#
# 1 0.007647 -0.002181 -0.000712 0.000000 0.000000 0.000000
# 2 -0.002181 0.008469 -0.003472 0.000000 0.000000 0.000000
# 3 -0.000712 -0.003472 0.011897 0.000000 0.000000 0.000000
# 4 0.000000 0.000000 0.000000 0.048969 0.000000 0.000000
# 5 0.000000 0.000000 0.000000 0.000000 0.027009 0.000000
# 6 0.000000 0.000000 0.000000 0.000000 0.000000 -0.210723
#
#
# Mechanical properties :
#
#
# Convention : Reuss Voigt Hill
#
# Bulk Modulus (GPa) = 65.42961 69.49336 67.46148
# Shear Modulus (GPa) = -56.23782 29.11850 -13.55966
#
# Velocity S-wave (km/s) = -5.16002 3.71297 -2.53374
# Velocity P-wave (km/s) = 2.12683 7.16123 4.83528
#
# Compressibility (1/GPa) = 0.01528360
#
# Stress axis : x y z
#
# Youngs Moduli (GPa) = 130.76841 118.07588 84.05649
#
# Poissons Ratio (x) = 0.25752 0.05981
# Poissons Ratio (y) = 0.28520 0.29186
# Poissons Ratio (z) = 0.09305 0.40998
#
# Static dielectric constant tensor:
#      x y z
#    x 1.830510 0.000000 0.000000 
#    y 0.000000 1.745470 0.000000 
#    z 0.000000 0.000000 1.778380 
# 
# From -- ./inp_files/9883.got.cif
#   From: 2010.05.17/outbox.cif.g08.bks.cpg/sg64_5_cif.got.tgz:9883.got - 2010.06.03 16:29:19.
