data_PCOD9481456
_publ_section_title
;
Structure prediction by ZEFSAII (Michael W. Deem and Ramdas Pophale) SiO2 
 PCOD9481456
Probable space group: C M C A
;
_chemical_formula_sum "Si O2"
_cell_formula_units_Z 56
_cell_length_a 21.981026
_cell_length_b 20.829531
_cell_length_c 4.796463
_cell_angle_alpha 90.000000
_cell_angle_beta 90.000000
_cell_angle_gamma 90.000000
_cell_volume 2196.081989
_symmetry_space_group_name_H-M "C M C A"
_symmetry_group_IT_number 64
_symmetry_cell_setting 'orthorhombic'
loop_
_space_group_symop_operation_xyz
x,y,z
-x,1/2-y,1/2+z
x,-y,-z
-x,1/2+y,1/2-z
-x,-y,-z
x,1/2+y,1/2-z
-x,y,z
x,1/2-y,1/2+z
1/2+x,1/2+y,z
1/2-x,-y,1/2+z
1/2+x,1/2-y,-z
1/2-x,y,1/2-z
1/2-x,1/2-y,-z
1/2+x,y,1/2-z
1/2-x,1/2+y,z
1/2+x,-y,1/2+z
loop_
_atom_site_type_symbol
_atom_site_label
_atom_site_fract_x
_atom_site_fract_y
_atom_site_fract_z
Si Si1 0.000000 0.118099 0.335567
Si Si2 0.588228 0.209162 0.821726
Si Si3 0.208621 0.147474 0.495021
Si Si4 0.384334 0.454410 0.753613
O O1 0.948275 0.151738 0.541940
O O2 0.944813 0.083689 0.158806
O O3 0.572713 0.272446 0.006793
O O4 0.658658 0.194689 0.872081
O O5 0.250000 0.124337 0.750000
O O6 0.169810 0.091214 0.349503
O O7 0.250000 0.176689 0.250000
O O8 0.404534 0.500000 0.500000
O O9 0.362459 0.500000 0.000000
#
# Coordination Sequence:
#
# PCOD9481456 Si02
#       4
#     8  16  16  16
#     4  10  24  42  66  96 132 168 216 270 327 396
#     4  11  24  41  65  95 129 171 216 267 326 390
#     4  11  24  42  64  93 129 169 218 271 324 390
#     4  11  24  42  66  95 128 170 216 269 331 395
#
# _framework density 25.499956999999998
#
# number of rings (size 3 to 8) (size 9 to 14) (size 15 to 20)
#    0.000    1.143    0.000    5.143    0.000   14.857 
#    0.000    0.000    0.000    0.000    0.000    0.000 
#    0.000    0.000    0.000    0.000    0.000    0.000 
#
# Total GULP energy -156018.981647 kJ/mol
# GULP energy per Si atom -5572.106487 kJ/mol
# Density = 2.544192 g / cm^3
# Si number density = 25.499957 Si / 1000 Ang^3
#
#
#
# Elastic Constant Matrix: (Units=GPa)
#
#
# Indices 1 2 3 4 5 6 
#
# 1 175.4284 13.8693 27.2376 0.0000 0.0000 0.0000
# 2 13.8693 51.5558 12.4151 0.0000 0.0000 0.0000
# 3 27.2376 12.4151 115.9009 0.0000 0.0000 0.0000
# 4 0.0000 0.0000 0.0000 50.1377 0.0000 0.0000
# 5 0.0000 0.0000 0.0000 0.0000 2.2335 0.0000
# 6 0.0000 0.0000 0.0000 0.0000 0.0000 -20.8319
#
#
#
# Elastic Compliance Matrix: (Units=1/GPa)
#
#
# Indices 1 2 3 4 5 6 
#
# 1 0.006001 -0.001309 -0.001270 0.000000 0.000000 0.000000
# 2 -0.001309 0.020195 -0.001856 0.000000 0.000000 0.000000
# 3 -0.001270 -0.001856 0.009125 0.000000 0.000000 0.000000
# 4 0.000000 0.000000 0.000000 0.019945 0.000000 0.000000
# 5 0.000000 0.000000 0.000000 0.000000 0.447728 0.000000
# 6 0.000000 0.000000 0.000000 0.000000 0.000000 -0.048003
#
#
# Mechanical properties :
#
#
# Convention : Reuss Voigt Hill
#
# Bulk Modulus (GPa) = 37.80307 49.99213 43.89760
# Shear Modulus (GPa) = 10.57803 25.59873 18.08838
#
# Velocity S-wave (km/s) = 2.03894 3.17183 2.66625
# Velocity P-wave (km/s) = 4.51663 5.74990 5.17017
#
# Compressibility (1/GPa) = 0.02645288
#
# Stress axis : x y z
#
# Youngs Moduli (GPa) = 166.63934 49.51633 109.58506
#
# Poissons Ratio (x) = 0.06479 0.13919
# Poissons Ratio (y) = 0.21805 0.20337
# Poissons Ratio (z) = 0.21165 0.09189
#
# Static dielectric constant tensor:
#      x y z
#    x 2.047860 0.000000 0.000000 
#    y 0.000000 2.080100 0.000000 
#    z 0.000000 0.000000 1.975640 
# 
# From -- ./inp_files/1648.got.cif
#   From: 2010.05.17/outbox.cif.g08.bks.cpg/sg64_1_cif.got.tgz:1648.got - 2010.06.03 16:29:19.
