data_PCOD9481475
_publ_section_title
;
Structure prediction by ZEFSAII (Michael W. Deem and Ramdas Pophale) SiO2 
 PCOD9481475
Probable space group: C M C A
;
_chemical_formula_sum "Si O2"
_cell_formula_units_Z 80
_cell_length_a 21.833408
_cell_length_b 13.832715
_cell_length_c 13.464825
_cell_angle_alpha 90.000000
_cell_angle_beta 90.000000
_cell_angle_gamma 90.000000
_cell_volume 4066.583301
_symmetry_space_group_name_H-M "C M C A"
_symmetry_group_IT_number 64
_symmetry_cell_setting 'orthorhombic'
loop_
_space_group_symop_operation_xyz
x,y,z
-x,1/2-y,1/2+z
x,-y,-z
-x,1/2+y,1/2-z
-x,-y,-z
x,1/2+y,1/2-z
-x,y,z
x,1/2-y,1/2+z
1/2+x,1/2+y,z
1/2-x,-y,1/2+z
1/2+x,1/2-y,-z
1/2-x,y,1/2-z
1/2-x,1/2-y,-z
1/2+x,y,1/2-z
1/2-x,1/2+y,z
1/2+x,-y,1/2+z
loop_
_atom_site_type_symbol
_atom_site_label
_atom_site_fract_x
_atom_site_fract_y
_atom_site_fract_z
Si Si1 0.597091 0.713161 0.163731
Si Si2 0.500000 0.018727 0.116014
Si Si3 0.867556 0.574302 0.837092
Si Si4 0.807613 0.549845 0.318452
Si Si5 0.000000 0.242632 0.330769
Si Si6 0.231016 0.000000 0.500000
Si Si7 0.000000 0.383162 0.515884
O O1 0.625699 0.814200 0.131941
O O2 0.645577 0.635558 0.197948
O O3 0.557027 0.746337 0.257210
O O4 0.556866 0.657794 0.080752
O O5 0.435876 0.973720 0.156703
O O6 0.500000 0.134051 0.127271
O O7 0.500000 0.000000 0.000000
O O8 0.840156 0.546761 0.727759
O O9 0.817072 0.537561 0.916704
O O10 0.750000 0.566962 0.250000
O O11 0.780490 0.554179 0.429350
O O12 0.000000 0.326276 0.411923
O O13 0.000000 0.500000 0.500000
#
# Coordination Sequence:
#
# PCOD9481475 Si02
#       7
#    16   8  16  16   8   8   8
#     4  11  25  42  69 101 130 184 223 267 361 400
#     4  12  20  38  73  96 131 169 215 279 342 395
#     4  11  23  42  68  99 135 172 230 283 335 410
#     4  10  24  43  64  95 131 180 227 277 331 397
#     4  11  24  43  67 100 139 170 216 280 340 420
#     4  10  24  43  66  95 138 180 228 286 330 388
#     4  11  28  43  67 108 140 173 220 277 347 421
#
# _framework density 19.672535
#
# number of rings (size 3 to 8) (size 9 to 14) (size 15 to 20)
#    0.000    1.200    3.000    2.400    4.200    3.200 
#    0.000    0.000    0.000    0.000    0.000    0.000 
#    0.000    0.000    0.000    0.000    0.000    0.000 
#
# Total GULP energy -222702.919997 kJ/mol
# GULP energy per Si atom -5567.573000 kJ/mol
# Density = 1.962776 g / cm^3
# Si number density = 19.672535 Si / 1000 Ang^3
#
#
#
# Elastic Constant Matrix: (Units=GPa)
#
#
# Indices 1 2 3 4 5 6 
#
# 1 92.6819 12.0772 29.9374 0.0000 0.0000 0.0000
# 2 12.0772 106.6702 27.6942 0.0000 0.0000 0.0000
# 3 29.9374 27.6942 79.1149 0.0000 0.0000 0.0000
# 4 0.0000 0.0000 0.0000 21.7968 0.0000 0.0000
# 5 0.0000 0.0000 0.0000 0.0000 1135.9122 0.0000
# 6 0.0000 0.0000 0.0000 0.0000 0.0000 -427.8293
#
#
#
# Elastic Compliance Matrix: (Units=1/GPa)
#
#
# Indices 1 2 3 4 5 6 
#
# 1 0.012296 -0.000203 -0.004582 0.000000 0.000000 0.000000
# 2 -0.000203 0.010315 -0.003534 0.000000 0.000000 0.000000
# 3 -0.004582 -0.003534 0.015611 0.000000 0.000000 0.000000
# 4 0.000000 0.000000 0.000000 0.045878 0.000000 0.000000
# 5 0.000000 0.000000 0.000000 0.000000 0.000880 0.000000
# 6 0.000000 0.000000 0.000000 0.000000 0.000000 -0.002337
#
#
# Mechanical properties :
#
#
# Convention : Reuss Voigt Hill
#
# Bulk Modulus (GPa) = 46.32930 46.43162 46.38046
# Shear Modulus (GPa) = 46.95909 159.89314 103.42611
#
# Velocity S-wave (km/s) = 4.89103 9.02518 7.25865
# Velocity P-wave (km/s) = 7.44967 11.50037 9.68907
#
# Compressibility (1/GPa) = 0.02158461
#
# Stress axis : x y z
#
# Youngs Moduli (GPa) = 81.32710 96.94448 64.05811
#
# Poissons Ratio (x) = 0.01964 0.29351
# Poissons Ratio (y) = 0.01647 0.22639
# Poissons Ratio (z) = 0.37264 0.34262
#
# Static dielectric constant tensor:
#      x y z
#    x 1.740040 0.000000 0.000000 
#    y 0.000000 1.624050 0.000000 
#    z 0.000000 0.000000 1.711380 
# 
# From -- ./inp_files/27157.got.cif
#   From: 2010.05.17/outbox.cif.g08.bks.cpg/sg64_14_cif.got.tgz:27157.got - 2010.06.03 16:29:19.
