data_PCOD9481426
_publ_section_title
;
Structure prediction by ZEFSAII (Michael W. Deem and Ramdas Pophale) SiO2 
 PCOD9481426
Probable space group: C M C A
;
_chemical_formula_sum "Si O2"
_cell_formula_units_Z 96
_cell_length_a 14.632815
_cell_length_b 15.691972
_cell_length_c 22.153874
_cell_angle_alpha 90.000000
_cell_angle_beta 90.000000
_cell_angle_gamma 90.000000
_cell_volume 5086.922109
_symmetry_space_group_name_H-M "C M C A"
_symmetry_group_IT_number 64
_symmetry_cell_setting 'orthorhombic'
loop_
_space_group_symop_operation_xyz
x,y,z
-x,1/2-y,1/2+z
x,-y,-z
-x,1/2+y,1/2-z
-x,-y,-z
x,1/2+y,1/2-z
-x,y,z
x,1/2-y,1/2+z
1/2+x,1/2+y,z
1/2-x,-y,1/2+z
1/2+x,1/2-y,-z
1/2-x,y,1/2-z
1/2-x,1/2-y,-z
1/2+x,y,1/2-z
1/2-x,1/2+y,z
1/2+x,-y,1/2+z
loop_
_atom_site_type_symbol
_atom_site_label
_atom_site_fract_x
_atom_site_fract_y
_atom_site_fract_z
Si Si1 0.753165 0.862672 0.884933
Si Si2 0.839001 0.527178 0.293309
Si Si3 0.395067 0.899433 0.987285
Si Si4 0.903317 0.172233 0.288614
Si Si5 0.641815 0.646218 0.740748
Si Si6 0.394455 0.294279 0.389485
O O1 0.805710 0.947207 0.860145
O O2 0.687160 0.876204 0.941942
O O3 0.682809 0.839736 0.831448
O O4 0.824903 0.785311 0.890536
O O5 0.750000 0.521596 0.250000
O O6 0.893321 0.607437 0.267059
O O7 0.886297 0.437377 0.278545
O O8 0.500000 0.881072 0.965800
O O9 0.383062 0.848414 0.049683
O O10 0.390764 0.000000 0.000000
O O11 0.902073 0.267867 0.265041
O O12 0.000000 0.153608 0.319515
O O13 0.750000 0.657343 0.750000
O O14 0.622933 0.645844 0.669136
O O15 0.500000 0.264918 0.386011
#
# Coordination Sequence:
#
# PCOD9481426 Si02
#       6
#    16  16  16  16  16  16
#     4  11  21  41  61  88 123 162 205 258 303 368
#     4   9  21  34  56  84 117 162 197 239 303 359
#     4  10  24  41  62  93 120 157 210 259 314 369
#     4  11  21  35  57  88 125 161 197 246 305 369
#     4  11  20  37  58  86 124 161 199 247 305 371
#     4  11  23  40  62  86 119 163 206 253 308 367
#
# _framework density 18.871922000000001
#
# number of rings (size 3 to 8) (size 9 to 14) (size 15 to 20)
#    0.000    1.500    3.333    2.000    7.000    1.333 
#    0.000    0.000    0.000    0.500    0.000    0.000 
#    0.000    0.000    0.000    0.000    0.000    0.000 
#
# Total GULP energy -267700.678992 kJ/mol
# GULP energy per Si atom -5577.097479 kJ/mol
# Density = 1.882897 g / cm^3
# Si number density = 18.871922 Si / 1000 Ang^3
#
#
#
# Elastic Constant Matrix: (Units=GPa)
#
#
# Indices 1 2 3 4 5 6 
#
# 1 123.1037 36.8697 41.9784 0.0000 0.0000 0.0000
# 2 36.8697 103.2130 28.4655 0.0000 0.0000 0.0000
# 3 41.9784 28.4655 104.0099 0.0000 0.0000 0.0000
# 4 0.0000 0.0000 0.0000 24.2064 0.0000 0.0000
# 5 0.0000 0.0000 0.0000 0.0000 52.4283 0.0000
# 6 0.0000 0.0000 0.0000 0.0000 0.0000 -105.8101
#
#
#
# Elastic Compliance Matrix: (Units=1/GPa)
#
#
# Indices 1 2 3 4 5 6 
#
# 1 0.010059 -0.002676 -0.003328 0.000000 0.000000 0.000000
# 2 -0.002676 0.011191 -0.001983 0.000000 0.000000 0.000000
# 3 -0.003328 -0.001983 0.011500 0.000000 0.000000 0.000000
# 4 0.000000 0.000000 0.000000 0.041311 0.000000 0.000000
# 5 0.000000 0.000000 0.000000 0.000000 0.019074 0.000000
# 6 0.000000 0.000000 0.000000 0.000000 0.000000 -0.009451
#
#
# Mechanical properties :
#
#
# Convention : Reuss Voigt Hill
#
# Bulk Modulus (GPa) = 59.60058 60.55040 60.07549
# Shear Modulus (GPa) = 47.50574 9.03246 28.26910
#
# Velocity S-wave (km/s) = 5.02268 2.19011 3.87453
# Velocity P-wave (km/s) = 8.08002 6.20887 7.20544
#
# Compressibility (1/GPa) = 0.01677836
#
# Stress axis : x y z
#
# Youngs Moduli (GPa) = 99.41024 89.35451 86.95486
#
# Poissons Ratio (x) = 0.23908 0.28936
# Poissons Ratio (y) = 0.26599 0.17243
# Poissons Ratio (z) = 0.33080 0.17719
#
# Static dielectric constant tensor:
#      x y z
#    x 1.721470 0.000000 0.000000 
#    y 0.000000 1.674200 0.000000 
#    z 0.000000 0.000000 1.650780 
# 
# From -- ./inp_files/39172.got.cif
#   From: 2010.05.17/outbox.cif.g08.bks.cpg/sg64_20_cif.got.tgz:39172.got - 2010.06.03 16:29:19.
