data_PCOD9481605
_publ_section_title
;
Structure prediction by ZEFSAII (Michael W. Deem and Ramdas Pophale) SiO2 
 PCOD9481605
Probable space group: C M C A
;
_chemical_formula_sum "Si O2"
_cell_formula_units_Z 80
_cell_length_a 25.697357
_cell_length_b 16.849388
_cell_length_c 7.435038
_cell_angle_alpha 90.000000
_cell_angle_beta 90.000000
_cell_angle_gamma 90.000000
_cell_volume 3219.257985
_symmetry_space_group_name_H-M "C M C A"
_symmetry_group_IT_number 64
_symmetry_cell_setting 'orthorhombic'
loop_
_space_group_symop_operation_xyz
x,y,z
-x,1/2-y,1/2+z
x,-y,-z
-x,1/2+y,1/2-z
-x,-y,-z
x,1/2+y,1/2-z
-x,y,z
x,1/2-y,1/2+z
1/2+x,1/2+y,z
1/2-x,-y,1/2+z
1/2+x,1/2-y,-z
1/2-x,y,1/2-z
1/2-x,1/2-y,-z
1/2+x,y,1/2-z
1/2-x,1/2+y,z
1/2+x,-y,1/2+z
loop_
_atom_site_type_symbol
_atom_site_label
_atom_site_fract_x
_atom_site_fract_y
_atom_site_fract_z
Si Si1 0.397615 0.671258 0.777335
Si Si2 0.586959 0.995123 0.701293
Si Si3 0.286829 0.183469 0.910606
Si Si4 0.306392 0.050071 0.176192
Si Si5 0.941794 0.167326 0.152161
O O1 0.416685 0.583161 0.714354
O O2 0.341722 0.692538 0.692931
O O3 0.433224 0.747691 0.741844
O O4 0.399156 0.662381 0.993174
O O5 0.648179 0.974655 0.692477
O O6 0.564465 0.911700 0.775166
O O7 0.564331 0.000000 0.500000
O O8 0.250000 0.147527 0.750000
O O9 0.250000 0.250000 0.000000
O O10 0.303691 0.136914 0.091757
O O11 0.250000 0.032291 0.250000
O O12 0.317746 0.000000 0.000000
O O13 0.000000 0.164731 0.075630
#
# Coordination Sequence:
#
# PCOD9481605 Si02
#       5
#    16  16  16  16  16
#     4  11  25  47  71 104 149 187 246 302 370 437
#     4  10  25  46  73 104 148 191 239 302 369 440
#     4  12  27  44  67 106 144 197 240 288 364 440
#     4  12  25  41  67 100 143 186 239 287 352 435
#     4  11  26  46  76 107 138 191 249 310 379 440
#
# _framework density 24.850446000000002
#
# number of rings (size 3 to 8) (size 9 to 14) (size 15 to 20)
#    0.000    0.800    2.000    3.600   14.000    4.400 
#    0.000    0.000    0.000    3.000    0.000    0.000 
#    0.000    0.000    0.000    0.000    0.000    0.000 
#
# Total GULP energy -223033.700913 kJ/mol
# GULP energy per Si atom -5575.842523 kJ/mol
# Density = 2.479389 g / cm^3
# Si number density = 24.850446 Si / 1000 Ang^3
#
#
#
# Elastic Constant Matrix: (Units=GPa)
#
#
# Indices 1 2 3 4 5 6 
#
# 1 72.5620 31.1675 0.5713 0.0000 0.0000 0.0000
# 2 31.1675 207.3327 25.4557 0.0000 0.0000 0.0000
# 3 0.5713 25.4557 77.0062 0.0000 0.0000 0.0000
# 4 0.0000 0.0000 0.0000 134.0090 0.0000 0.0000
# 5 0.0000 0.0000 0.0000 0.0000 24.0729 0.0000
# 6 0.0000 0.0000 0.0000 0.0000 0.0000 -201.1430
#
#
#
# Elastic Compliance Matrix: (Units=1/GPa)
#
#
# Indices 1 2 3 4 5 6 
#
# 1 0.014764 -0.002299 0.000651 0.000000 0.000000 0.000000
# 2 -0.002299 0.005385 -0.001763 0.000000 0.000000 0.000000
# 3 0.000651 -0.001763 0.013564 0.000000 0.000000 0.000000
# 4 0.000000 0.000000 0.000000 0.007462 0.000000 0.000000
# 5 0.000000 0.000000 0.000000 0.000000 0.041540 0.000000
# 6 0.000000 0.000000 0.000000 0.000000 0.000000 -0.004972
#
#
# Mechanical properties :
#
#
# Convention : Reuss Voigt Hill
#
# Bulk Modulus (GPa) = 37.18950 52.36556 44.77753
# Shear Modulus (GPa) = 53.45822 11.36820 32.41321
#
# Velocity S-wave (km/s) = 4.64313 2.14116 3.61547
# Velocity P-wave (km/s) = 6.61383 5.21831 5.95708
#
# Compressibility (1/GPa) = 0.02688931
#
# Stress axis : x y z
#
# Youngs Moduli (GPa) = 67.73327 185.69151 73.72466
#
# Poissons Ratio (x) = 0.42695 -0.04796
# Poissons Ratio (y) = 0.15574 0.12999
# Poissons Ratio (z) = -0.04406 0.32740
#
# Static dielectric constant tensor:
#      x y z
#    x 1.838680 0.000000 0.000000 
#    y 0.000000 2.296490 0.000000 
#    z 0.000000 0.000000 2.005490 
# 
# From -- ./inp_files/10149.got.cif
#   From: 2010.05.17/outbox.cif.g08.bks.cpg/sg64_6_cif.got.tgz:10149.got - 2010.06.03 16:29:19.
