data_PCOD9481921
_publ_section_title
;
Structure prediction by ZEFSAII (Michael W. Deem and Ramdas Pophale) SiO2 
 PCOD9481921
Probable space group: C M C A
;
_chemical_formula_sum "Si O2"
_cell_formula_units_Z 88
_cell_length_a 14.362565
_cell_length_b 17.238405
_cell_length_c 16.178305
_cell_angle_alpha 90.000000
_cell_angle_beta 90.000000
_cell_angle_gamma 90.000000
_cell_volume 4005.549524
_symmetry_space_group_name_H-M "C M C A"
_symmetry_group_IT_number 64
_symmetry_cell_setting 'orthorhombic'
loop_
_space_group_symop_operation_xyz
x,y,z
-x,1/2-y,1/2+z
x,-y,-z
-x,1/2+y,1/2-z
-x,-y,-z
x,1/2+y,1/2-z
-x,y,z
x,1/2-y,1/2+z
1/2+x,1/2+y,z
1/2-x,-y,1/2+z
1/2+x,1/2-y,-z
1/2-x,y,1/2-z
1/2-x,1/2-y,-z
1/2+x,y,1/2-z
1/2-x,1/2+y,z
1/2+x,-y,1/2+z
loop_
_atom_site_type_symbol
_atom_site_label
_atom_site_fract_x
_atom_site_fract_y
_atom_site_fract_z
Si Si1 0.145997 0.914408 0.538357
Si Si2 0.500000 0.367873 0.073472
Si Si3 0.680786 0.684780 0.032506
Si Si4 0.500000 0.230655 0.740494
Si Si5 0.000000 0.971793 0.835655
Si Si6 0.000000 0.024043 0.348077
Si Si7 0.349172 0.343304 0.791534
Si Si8 0.000000 0.354765 0.080193
O O1 0.251502 0.889110 0.543774
O O2 0.089540 0.926332 0.623828
O O3 0.088939 0.852468 0.481576
O O4 0.145144 0.000000 0.500000
O O5 0.500000 0.327102 0.163274
O O6 0.590818 0.339375 0.021494
O O7 0.500000 0.539099 0.904582
O O8 0.659631 0.707984 0.125994
O O9 0.750000 0.750000 0.000000
O O10 0.411738 0.288059 0.734370
O O11 0.500000 0.190251 0.832465
O O12 0.910017 0.915328 0.827785
O O13 0.000000 0.006411 0.744107
O O14 0.000000 0.945529 0.398586
O O15 0.250000 0.361798 0.750000
#
# Coordination Sequence:
#
# PCOD9481921 Si02
#       8
#    16   8  16   8   8   8  16   8
#     4   9  20  36  66  98 131 172 223 281 339 402
#     4  12  28  45  70 101 139 182 226 287 344 411
#     4  12  26  45  67  99 132 176 229 277 350 413
#     4  11  22  43  66  94 137 177 230 285 346 411
#     4  11  24  44  66 102 137 180 225 278 341 400
#     4   9  17  38  65  97 128 171 220 278 333 404
#     4  11  25  44  69  96 135 181 227 281 342 412
#     4   9  17  36  63  96 131 169 226 284 337 396
#
# _framework density 21.969518999999998
#
# number of rings (size 3 to 8) (size 9 to 14) (size 15 to 20)
#    0.000    1.455    0.909    5.455    2.545    3.636 
#    0.000    0.909    0.000    0.000    0.000    0.000 
#    0.000    0.000    0.000    0.000    0.000    0.000 
#
# Total GULP energy -245268.750321 kJ/mol
# GULP energy per Si atom -5574.289780 kJ/mol
# Density = 2.191952 g / cm^3
# Si number density = 21.969519 Si / 1000 Ang^3
#
#
#
# Elastic Constant Matrix: (Units=GPa)
#
#
# Indices 1 2 3 4 5 6 
#
# 1 191.0655 62.0763 53.7184 0.0000 0.0000 0.0000
# 2 62.0763 95.8976 27.4286 0.0000 0.0000 0.0000
# 3 53.7184 27.4286 92.7498 0.0000 0.0000 0.0000
# 4 0.0000 0.0000 0.0000 41.4695 0.0000 0.0000
# 5 0.0000 0.0000 0.0000 0.0000 27.7942 0.0000
# 6 0.0000 0.0000 0.0000 0.0000 0.0000 148.1404
#
#
#
# Elastic Compliance Matrix: (Units=1/GPa)
#
#
# Indices 1 2 3 4 5 6 
#
# 1 0.007372 -0.003879 -0.003123 0.000000 0.000000 0.000000
# 2 -0.003879 0.013432 -0.001726 0.000000 0.000000 0.000000
# 3 -0.003123 -0.001726 0.013101 0.000000 0.000000 0.000000
# 4 0.000000 0.000000 0.000000 0.024114 0.000000 0.000000
# 5 0.000000 0.000000 0.000000 0.000000 0.035979 0.000000
# 6 0.000000 0.000000 0.000000 0.000000 0.000000 0.006750
#
#
# Mechanical properties :
#
#
# Convention : Reuss Voigt Hill
#
# Bulk Modulus (GPa) = 60.78873 74.01771 67.40322
# Shear Modulus (GPa) = 40.42503 59.24680 49.83591
#
# Velocity S-wave (km/s) = 4.29423 5.19868 4.76795
# Velocity P-wave (km/s) = 7.23304 8.35460 7.81397
#
# Compressibility (1/GPa) = 0.01645042
#
# Stress axis : x y z
#
# Youngs Moduli (GPa) = 135.64927 74.44770 76.33265
#
# Poissons Ratio (x) = 0.28877 0.23835
# Poissons Ratio (y) = 0.52617 0.13173
# Poissons Ratio (z) = 0.42357 0.12848
#
# Static dielectric constant tensor:
#      x y z
#    x 1.879520 0.000000 0.000000 
#    y 0.000000 1.827290 0.000000 
#    z 0.000000 0.000000 1.873760 
# 
# From -- ./inp_files/23840.got.cif
#   From: 2010.05.17/outbox.cif.g08.bks.cpg/sg64_12_cif.got.tgz:23840.got - 2010.06.03 16:29:19.
