data_PCOD9481665
_publ_section_title
;
Structure prediction by ZEFSAII (Michael W. Deem and Ramdas Pophale) SiO2 
 PCOD9481665
Probable space group: C M C A
;
_chemical_formula_sum "Si O2"
_cell_formula_units_Z 88
_cell_length_a 18.814919
_cell_length_b 21.367430
_cell_length_c 11.818694
_cell_angle_alpha 90.000000
_cell_angle_beta 90.000000
_cell_angle_gamma 90.000000
_cell_volume 4751.427766
_symmetry_space_group_name_H-M "C M C A"
_symmetry_group_IT_number 64
_symmetry_cell_setting 'orthorhombic'
loop_
_space_group_symop_operation_xyz
x,y,z
-x,1/2-y,1/2+z
x,-y,-z
-x,1/2+y,1/2-z
-x,-y,-z
x,1/2+y,1/2-z
-x,y,z
x,1/2-y,1/2+z
1/2+x,1/2+y,z
1/2-x,-y,1/2+z
1/2+x,1/2-y,-z
1/2-x,y,1/2-z
1/2-x,1/2-y,-z
1/2+x,y,1/2-z
1/2-x,1/2+y,z
1/2+x,-y,1/2+z
loop_
_atom_site_type_symbol
_atom_site_label
_atom_site_fract_x
_atom_site_fract_y
_atom_site_fract_z
Si Si1 0.000000 0.763899 0.408911
Si Si2 0.500000 0.649898 0.257685
Si Si3 0.000000 0.376903 0.276383
Si Si4 0.378505 0.792513 0.912904
Si Si5 0.205327 0.622351 0.924608
Si Si6 0.000000 0.483132 0.822854
Si Si7 0.151592 0.341530 0.324673
Si Si8 0.876560 0.000000 0.500000
O O1 0.000000 0.698169 0.345082
O O2 0.000000 0.822327 0.320580
O O3 0.931126 0.769786 0.487460
O O4 0.569804 0.667983 0.331227
O O5 0.500000 0.575590 0.238135
O O6 0.072107 0.365797 0.344625
O O7 0.000000 0.446588 0.225474
O O8 0.348055 0.732322 0.849043
O O9 0.318015 0.832798 0.973238
O O10 0.170469 0.645329 0.806369
O O11 0.289041 0.625167 0.900818
O O12 0.172096 0.555356 0.952997
O O13 0.069532 0.477163 0.902242
#
# Coordination Sequence:
#
# PCOD9481665 Si02
#       8
#     8   8   8  16  16   8  16   8
#     4  11  20  35  58  87 123 161 208 248 308 364
#     4  11  20  33  58  96 120 152 203 268 299 348
#     4  12  19  40  59  88 120 163 205 245 304 377
#     4  11  19  36  59  88 125 161 205 254 309 368
#     4  11  22  38  61  92 123 159 206 260 311 367
#     4  11  21  32  62  92 116 151 201 263 305 351
#     4  11  23  37  61  89 123 162 202 254 314 367
#     4  11  20  38  62  89 118 152 210 259 302 368
#
# _framework density 18.520748000000001
#
# number of rings (size 3 to 8) (size 9 to 14) (size 15 to 20)
#    0.000    0.909    7.273    1.091    2.545    0.000 
#    0.000    1.818    0.000    6.000    0.000    0.000 
#    0.000    0.000    0.000    0.000    0.000    0.000 
#
# Total GULP energy -245744.975855 kJ/mol
# GULP energy per Si atom -5585.113088 kJ/mol
# Density = 1.847859 g / cm^3
# Si number density = 18.520748 Si / 1000 Ang^3
#
#
#
# Elastic Constant Matrix: (Units=GPa)
#
#
# Indices 1 2 3 4 5 6 
#
# 1 122.3186 31.3587 22.0434 0.0000 0.0000 0.0000
# 2 31.3587 137.6970 34.3404 0.0000 0.0000 0.0000
# 3 22.0434 34.3404 33.4031 0.0000 0.0000 0.0000
# 4 0.0000 0.0000 0.0000 29.8736 0.0000 0.0000
# 5 0.0000 0.0000 0.0000 0.0000 3.8623 0.0000
# 6 0.0000 0.0000 0.0000 0.0000 0.0000 2.9580
#
#
#
# Elastic Compliance Matrix: (Units=1/GPa)
#
#
# Indices 1 2 3 4 5 6 
#
# 1 0.009343 -0.000794 -0.005350 0.000000 0.000000 0.000000
# 2 -0.000794 0.009834 -0.009586 0.000000 0.000000 0.000000
# 3 -0.005350 -0.009586 0.043323 0.000000 0.000000 0.000000
# 4 0.000000 0.000000 0.000000 0.033474 0.000000 0.000000
# 5 0.000000 0.000000 0.000000 0.000000 0.258916 0.000000
# 6 0.000000 0.000000 0.000000 0.000000 0.000000 0.338071
#
#
# Mechanical properties :
#
#
# Convention : Reuss Voigt Hill
#
# Bulk Modulus (GPa) = 32.21571 52.10040 42.15805
# Shear Modulus (GPa) = 6.80489 21.05051 13.92770
#
# Velocity S-wave (km/s) = 1.91890 3.37499 2.74525
# Velocity P-wave (km/s) = 4.72670 6.58630 5.73241
#
# Compressibility (1/GPa) = 0.03104076
#
# Stress axis : x y z
#
# Youngs Moduli (GPa) = 107.03302 101.69129 23.08262
#
# Poissons Ratio (x) = 0.08070 0.12349
# Poissons Ratio (y) = 0.08494 0.22127
# Poissons Ratio (z) = 0.57260 0.97481
#
# Static dielectric constant tensor:
#      x y z
#    x 1.651570 0.000000 0.000000 
#    y 0.000000 1.637510 0.000000 
#    z 0.000000 0.000000 1.637970 
# 
# From -- ./inp_files/16101.got.cif
#   From: 2010.05.17/outbox.cif.g08.bks.cpg/sg64_9_cif.got.tgz:16101.got - 2010.06.03 16:29:19.
