data_PCOD9481086
_publ_section_title
;
Structure prediction by ZEFSAII (Michael W. Deem and Ramdas Pophale) SiO2 
 PCOD9481086
Probable space group: C M C A
;
_chemical_formula_sum "Si O2"
_cell_formula_units_Z 64
_cell_length_a 32.283580
_cell_length_b 8.743644
_cell_length_c 9.754998
_cell_angle_alpha 90.000000
_cell_angle_beta 90.000000
_cell_angle_gamma 90.000000
_cell_volume 2753.603089
_symmetry_space_group_name_H-M "C M C A"
_symmetry_group_IT_number 64
_symmetry_cell_setting 'orthorhombic'
loop_
_space_group_symop_operation_xyz
x,y,z
-x,1/2-y,1/2+z
x,-y,-z
-x,1/2+y,1/2-z
-x,-y,-z
x,1/2+y,1/2-z
-x,y,z
x,1/2-y,1/2+z
1/2+x,1/2+y,z
1/2-x,-y,1/2+z
1/2+x,1/2-y,-z
1/2-x,y,1/2-z
1/2-x,1/2-y,-z
1/2+x,y,1/2-z
1/2-x,1/2+y,z
1/2+x,-y,1/2+z
loop_
_atom_site_type_symbol
_atom_site_label
_atom_site_fract_x
_atom_site_fract_y
_atom_site_fract_z
Si Si1 0.342191 0.676573 0.159400
Si Si2 0.291165 0.829847 0.937838
Si Si3 0.047798 0.379604 0.876597
Si Si4 0.401265 0.097342 0.687725
O O1 0.305415 0.668943 0.277232
O O2 0.376798 0.797348 0.204691
O O3 0.364757 0.516305 0.144762
O O4 0.325896 0.735744 0.016252
O O5 0.250000 0.750000 0.000000
O O6 0.290989 0.000000 0.000000
O O7 0.074677 0.225768 0.900081
O O8 0.065350 0.480153 0.751014
O O9 0.000000 0.336762 0.855000
O O10 0.050730 0.500000 0.000000
#
# Coordination Sequence:
#
# PCOD9481086 Si02
#       4
#    16  16  16  16
#     4  11  25  45  73 104 144 193 244 301 362 440
#     4  12  28  48  71 106 146 188 242 301 366 438
#     4  10  22  43  70 103 144 187 240 302 367 438
#     4  10  23  41  70 101 140 188 236 297 360 433
#
# _framework density 23.242273999999998
#
# number of rings (size 3 to 8) (size 9 to 14) (size 15 to 20)
#    0.000    1.250    2.500    1.500   10.500    2.000 
#    4.500    0.000    0.000    7.500    0.000    0.000 
#    0.000    0.000    0.000    0.000    0.000    0.000 
#
# Total GULP energy -178676.551879 kJ/mol
# GULP energy per Si atom -5583.642246 kJ/mol
# Density = 2.318937 g / cm^3
# Si number density = 23.242274 Si / 1000 Ang^3
#
#
#
# Elastic Constant Matrix: (Units=GPa)
#
#
# Indices 1 2 3 4 5 6 
#
# 1 124.1853 67.5827 21.1483 0.0000 0.0000 0.0000
# 2 67.5827 196.4920 30.9999 0.0000 0.0000 0.0000
# 3 21.1483 30.9999 80.9730 0.0000 0.0000 0.0000
# 4 0.0000 0.0000 0.0000 20.3141 0.0000 0.0000
# 5 0.0000 0.0000 0.0000 0.0000 -13.6359 0.0000
# 6 0.0000 0.0000 0.0000 0.0000 0.0000 55.1147
#
#
#
# Elastic Compliance Matrix: (Units=1/GPa)
#
#
# Indices 1 2 3 4 5 6 
#
# 1 0.010051 -0.003238 -0.001385 0.000000 0.000000 0.000000
# 2 -0.003238 0.006460 -0.001627 0.000000 0.000000 0.000000
# 3 -0.001385 -0.001627 0.013335 0.000000 0.000000 0.000000
# 4 0.000000 0.000000 0.000000 0.049227 0.000000 0.000000
# 5 0.000000 0.000000 0.000000 0.000000 -0.073336 0.000000
# 6 0.000000 0.000000 0.000000 0.000000 0.000000 0.018144
#
#
# Mechanical properties :
#
#
# Convention : Reuss Voigt Hill
#
# Bulk Modulus (GPa) = 57.65905 71.23466 64.44685
# Shear Modulus (GPa) = 118.58649 31.15320 74.86985
#
# Velocity S-wave (km/s) = 7.15071 3.66508 5.68179
# Velocity P-wave (km/s) = 9.64565 6.97321 8.41618
#
# Compressibility (1/GPa) = 0.01734333
#
# Stress axis : x y z
#
# Youngs Moduli (GPa) = 99.49525 154.80290 74.99291
#
# Poissons Ratio (x) = 0.50131 0.10388
# Poissons Ratio (y) = 0.32220 0.12204
# Poissons Ratio (z) = 0.13782 0.25191
#
# Static dielectric constant tensor:
#      x y z
#    x 1.813820 0.000000 0.000000 
#    y 0.000000 1.927030 0.000000 
#    z 0.000000 0.000000 1.894090 
# 
# From -- ./inp_files/19484.got.cif
#   From: 2010.05.17/outbox.cif.g08.bks.cpg/sg64_10_cif.got.tgz:19484.got - 2010.06.03 16:29:19.
