data_PCOD9481186
_publ_section_title
;
Structure prediction by ZEFSAII (Michael W. Deem and Ramdas Pophale) SiO2 
 PCOD9481186
Probable space group: C M C A
;
_chemical_formula_sum "Si O2"
_cell_formula_units_Z 96
_cell_length_a 13.980423
_cell_length_b 22.840182
_cell_length_c 14.452540
_cell_angle_alpha 90.000000
_cell_angle_beta 90.000000
_cell_angle_gamma 90.000000
_cell_volume 4614.918674
_symmetry_space_group_name_H-M "C M C A"
_symmetry_group_IT_number 64
_symmetry_cell_setting 'orthorhombic'
loop_
_space_group_symop_operation_xyz
x,y,z
-x,1/2-y,1/2+z
x,-y,-z
-x,1/2+y,1/2-z
-x,-y,-z
x,1/2+y,1/2-z
-x,y,z
x,1/2-y,1/2+z
1/2+x,1/2+y,z
1/2-x,-y,1/2+z
1/2+x,1/2-y,-z
1/2-x,y,1/2-z
1/2-x,1/2-y,-z
1/2+x,y,1/2-z
1/2-x,1/2+y,z
1/2+x,-y,1/2+z
loop_
_atom_site_type_symbol
_atom_site_label
_atom_site_fract_x
_atom_site_fract_y
_atom_site_fract_z
Si Si1 0.884454 0.448145 0.067850
Si Si2 0.197415 0.678971 0.969324
Si Si3 0.616103 0.023525 0.724451
Si Si4 0.888756 0.097267 0.142125
Si Si5 0.284202 0.219314 0.349542
Si Si6 0.610651 0.880362 0.430220
O O1 0.850969 0.383988 0.037314
O O2 0.851995 0.460298 0.172743
O O3 0.000000 0.448873 0.066726
O O4 0.850727 0.500000 0.000000
O O5 0.157677 0.729354 0.902123
O O6 0.307489 0.668505 0.935484
O O7 0.203952 0.701254 0.074547
O O8 0.500000 0.019632 0.726756
O O9 0.635316 0.074024 0.650047
O O10 0.651081 0.960164 0.691410
O O11 0.839737 0.158535 0.165392
O O12 0.000000 0.102754 0.166633
O O13 0.883451 0.089272 0.031088
O O14 0.250000 0.240466 0.250000
O O15 0.500000 0.860413 0.418772
#
# Coordination Sequence:
#
# PCOD9481186 Si02
#       6
#    16  16  16  16  16  16
#     4  10  23  40  59  86 123 157 194 238 288 356
#     4  10  23  41  60  86 117 155 197 240 293 344
#     4   9  18  33  57  88 116 150 191 237 293 350
#     4   9  18  35  59  85 117 151 191 240 292 343
#     4  10  23  40  58  83 118 152 196 246 281 342
#     4   9  18  35  59  88 118 147 188 246 298 347
#
# _framework density 20.802099999999999
#
# number of rings (size 3 to 8) (size 9 to 14) (size 15 to 20)
#    0.000    2.500    0.000    0.500    4.667    5.333 
#    0.000    3.333    0.000    0.000    0.000    0.000 
#    0.000    0.000    0.000    0.000    0.000    0.000 
#
# Total GULP energy -267919.828403 kJ/mol
# GULP energy per Si atom -5581.663092 kJ/mol
# Density = 2.075475 g / cm^3
# Si number density = 20.802100 Si / 1000 Ang^3
#
#
#
# Elastic Constant Matrix: (Units=GPa)
#
#
# Indices 1 2 3 4 5 6 
#
# 1 48.1880 3.0564 4.2764 0.0000 0.0000 0.0000
# 2 3.0564 115.2976 41.9771 0.0000 0.0000 0.0000
# 3 4.2764 41.9771 95.8630 0.0000 0.0000 0.0000
# 4 0.0000 0.0000 0.0000 14.5589 0.0000 0.0000
# 5 0.0000 0.0000 0.0000 0.0000 9.7596 0.0000
# 6 0.0000 0.0000 0.0000 0.0000 0.0000 -1.6224
#
#
#
# Elastic Compliance Matrix: (Units=1/GPa)
#
#
# Indices 1 2 3 4 5 6 
#
# 1 0.020841 -0.000255 -0.000818 0.000000 0.000000 0.000000
# 2 -0.000255 0.010321 -0.004508 0.000000 0.000000 0.000000
# 3 -0.000818 -0.004508 0.012442 0.000000 0.000000 0.000000
# 4 0.000000 0.000000 0.000000 0.068687 0.000000 0.000000
# 5 0.000000 0.000000 0.000000 0.000000 0.102463 0.000000
# 6 0.000000 0.000000 0.000000 0.000000 0.000000 -0.616386
#
#
# Mechanical properties :
#
#
# Convention : Reuss Voigt Hill
#
# Bulk Modulus (GPa) = 30.82403 39.77428 35.29916
# Shear Modulus (GPa) = -13.16983 18.54180 2.68599
#
# Velocity S-wave (km/s) = -2.51888 2.98878 1.13755
# Velocity P-wave (km/s) = 2.52789 5.57424 4.32796
#
# Compressibility (1/GPa) = 0.03244222
#
# Stress axis : x y z
#
# Youngs Moduli (GPa) = 47.98280 96.88718 80.37204
#
# Poissons Ratio (x) = 0.02466 0.06576
# Poissons Ratio (y) = 0.01222 0.36233
# Poissons Ratio (z) = 0.03926 0.43679
#
# Static dielectric constant tensor:
#      x y z
#    x 1.788910 0.000000 0.000000 
#    y 0.000000 1.727310 0.000000 
#    z 0.000000 0.000000 1.733070 
# 
# From -- ./inp_files/23934.got.cif
#   From: 2010.05.17/outbox.cif.g08.bks.cpg/sg64_12_cif.got.tgz:23934.got - 2010.06.03 16:29:19.
