data_PCOD9481836
_publ_section_title
;
Structure prediction by ZEFSAII (Michael W. Deem and Ramdas Pophale) SiO2 
 PCOD9481836
Probable space group: C M C A
;
_chemical_formula_sum "Si O2"
_cell_formula_units_Z 80
_cell_length_a 17.702122
_cell_length_b 25.856644
_cell_length_c 8.874082
_cell_angle_alpha 90.000000
_cell_angle_beta 90.000000
_cell_angle_gamma 90.000000
_cell_volume 4061.822331
_symmetry_space_group_name_H-M "C M C A"
_symmetry_group_IT_number 64
_symmetry_cell_setting 'orthorhombic'
loop_
_space_group_symop_operation_xyz
x,y,z
-x,1/2-y,1/2+z
x,-y,-z
-x,1/2+y,1/2-z
-x,-y,-z
x,1/2+y,1/2-z
-x,y,z
x,1/2-y,1/2+z
1/2+x,1/2+y,z
1/2-x,-y,1/2+z
1/2+x,1/2-y,-z
1/2-x,y,1/2-z
1/2-x,1/2-y,-z
1/2+x,y,1/2-z
1/2-x,1/2+y,z
1/2+x,-y,1/2+z
loop_
_atom_site_type_symbol
_atom_site_label
_atom_site_fract_x
_atom_site_fract_y
_atom_site_fract_z
Si Si1 0.410887 0.059186 0.451817
Si Si2 0.185213 0.284527 0.632216
Si Si3 0.815362 0.358452 0.367614
Si Si4 0.589480 0.315144 0.391604
Si Si5 0.089118 0.130447 0.310793
O O1 0.500000 0.071618 0.481559
O O2 0.353698 0.093846 0.547833
O O3 0.396373 0.076567 0.277342
O O4 0.400558 0.000000 0.500000
O O5 0.250000 0.268252 0.750000
O O6 0.214943 0.317628 0.490892
O O7 0.134765 0.237298 0.574293
O O8 0.132727 0.324965 0.721568
O O9 0.750000 0.372201 0.250000
O O10 0.881799 0.331993 0.271546
O O11 0.500000 0.305761 0.393517
O O12 0.607138 0.360185 0.513868
O O13 0.000000 0.139972 0.296868
#
# Coordination Sequence:
#
# PCOD9481836 Si02
#       5
#    16  16  16  16  16
#     4   9  19  40  66  85 106 145 194 240 289 346
#     4  11  22  36  55  79 114 158 196 229 277 343
#     4  11  23  38  56  83 117 150 187 235 291 347
#     4  11  22  36  56  84 116 150 191 239 288 341
#     4   9  19  35  55  81 111 144 187 235 282 339
#
# _framework density 19.695592000000001
#
# number of rings (size 3 to 8) (size 9 to 14) (size 15 to 20)
#    0.000    1.800    0.000    4.200    0.000    6.400 
#    0.000    7.000    0.000    4.800    0.000    0.000 
#    0.000    0.000    0.000    0.000    0.000    0.000 
#
# Total GULP energy -223301.087540 kJ/mol
# GULP energy per Si atom -5582.527188 kJ/mol
# Density = 1.965076 g / cm^3
# Si number density = 19.695592 Si / 1000 Ang^3
#
#
#
# Elastic Constant Matrix: (Units=GPa)
#
#
# Indices 1 2 3 4 5 6 
#
# 1 85.1103 52.3787 50.7256 0.0000 0.0000 0.0000
# 2 52.3787 80.0311 35.6956 0.0000 0.0000 0.0000
# 3 50.7256 35.6956 103.4524 0.0000 0.0000 0.0000
# 4 0.0000 0.0000 0.0000 24.0295 0.0000 0.0000
# 5 0.0000 0.0000 0.0000 0.0000 36.3480 0.0000
# 6 0.0000 0.0000 0.0000 0.0000 0.0000 20.1080
#
#
#
# Elastic Compliance Matrix: (Units=1/GPa)
#
#
# Indices 1 2 3 4 5 6 
#
# 1 0.023654 -0.012183 -0.007395 0.000000 0.000000 0.000000
# 2 -0.012183 0.021043 -0.001287 0.000000 0.000000 0.000000
# 3 -0.007395 -0.001287 0.013736 0.000000 0.000000 0.000000
# 4 0.000000 0.000000 0.000000 0.041615 0.000000 0.000000
# 5 0.000000 0.000000 0.000000 0.000000 0.027512 0.000000
# 6 0.000000 0.000000 0.000000 0.000000 0.000000 0.049731
#
#
# Mechanical properties :
#
#
# Convention : Reuss Voigt Hill
#
# Bulk Modulus (GPa) = 59.86670 60.68818 60.27744
# Shear Modulus (GPa) = 22.26283 24.75004 23.50643
#
# Velocity S-wave (km/s) = 3.36571 3.54874 3.45844
# Velocity P-wave (km/s) = 6.75026 6.90445 6.82779
#
# Compressibility (1/GPa) = 0.01670378
#
# Stress axis : x y z
#
# Youngs Moduli (GPa) = 42.27531 47.52220 72.80055
#
# Poissons Ratio (x) = 0.57897 0.53834
# Poissons Ratio (y) = 0.51505 0.09369
# Poissons Ratio (z) = 0.31261 0.06116
#
# Static dielectric constant tensor:
#      x y z
#    x 1.695040 0.000000 0.000000 
#    y 0.000000 1.675550 0.000000 
#    z 0.000000 0.000000 1.729640 
# 
# From -- ./inp_files/7020.got.cif
#   From: 2010.05.17/outbox.cif.g08.bks.cpg/sg64_4_cif.got.tgz:7020.got - 2010.06.03 16:29:19.
