data_PCOD9481657
_publ_section_title
;
Structure prediction by ZEFSAII (Michael W. Deem and Ramdas Pophale) SiO2 
 PCOD9481657
Probable space group: C M C A
;
_chemical_formula_sum "Si O2"
_cell_formula_units_Z 112
_cell_length_a 28.586298
_cell_length_b 15.385289
_cell_length_c 14.709363
_cell_angle_alpha 90.000000
_cell_angle_beta 90.000000
_cell_angle_gamma 90.000000
_cell_volume 6469.302232
_symmetry_space_group_name_H-M "C M C A"
_symmetry_group_IT_number 64
_symmetry_cell_setting 'orthorhombic'
loop_
_space_group_symop_operation_xyz
x,y,z
-x,1/2-y,1/2+z
x,-y,-z
-x,1/2+y,1/2-z
-x,-y,-z
x,1/2+y,1/2-z
-x,y,z
x,1/2-y,1/2+z
1/2+x,1/2+y,z
1/2-x,-y,1/2+z
1/2+x,1/2-y,-z
1/2-x,y,1/2-z
1/2-x,1/2-y,-z
1/2+x,y,1/2-z
1/2-x,1/2+y,z
1/2+x,-y,1/2+z
loop_
_atom_site_type_symbol
_atom_site_label
_atom_site_fract_x
_atom_site_fract_y
_atom_site_fract_z
Si Si1 0.746847 0.211524 0.641097
Si Si2 0.052636 0.640140 0.529995
Si Si3 0.208210 0.472079 0.095443
Si Si4 0.205842 0.892198 0.899302
Si Si5 0.353511 0.994435 0.730421
Si Si6 0.653131 0.352284 0.080669
Si Si7 0.948345 0.536145 0.348360
O O1 0.750000 0.204300 0.750000
O O2 0.773050 0.296651 0.607561
O O3 0.692735 0.214808 0.611514
O O4 0.770028 0.124580 0.599091
O O5 0.101135 0.684066 0.561480
O O6 0.052056 0.552461 0.591547
O O7 0.058853 0.610057 0.425233
O O8 0.000000 0.678900 0.539223
O O9 0.252258 0.537921 0.104087
O O10 0.171330 0.481527 0.176316
O O11 0.186170 0.500000 0.000000
O O12 0.174307 0.914077 0.812825
O O13 0.173312 0.896168 0.988607
O O14 0.407918 0.970370 0.725624
O O15 0.347947 0.074364 0.659134
O O16 0.000000 0.546555 0.309138
#
# Coordination Sequence:
#
# PCOD9481657 Si02
#       7
#    16  16  16  16  16  16  16
#     4  12  23  37  51  75 112 150 185 219 256 317
#     4   8  14  25  45  77 108 131 162 209 272 333
#     4  12  23  37  50  72 107 146 185 221 256 308
#     4  12  22  34  53  79 108 143 179 214 264 324
#     4  11  19  34  54  76 109 142 175 218 271 321
#     4  11  19  32  53  77 109 144 165 213 272 318
#     4   8  14  25  47  77 104 129 166 215 270 326
#
# _framework density 17.312532000000001
#
# number of rings (size 3 to 8) (size 9 to 14) (size 15 to 20)
#    0.000    1.429    5.714    3.000    0.000    0.000 
#    0.000    0.000    0.000    0.429    0.000    7.000 
#    0.000    0.000    0.000    0.000    0.000    0.000 
#
# Total GULP energy -312287.969549 kJ/mol
# GULP energy per Si atom -5576.570885 kJ/mol
# Density = 1.727313 g / cm^3
# Si number density = 17.312532 Si / 1000 Ang^3
#
#
#
# Elastic Constant Matrix: (Units=GPa)
#
#
# Indices 1 2 3 4 5 6 
#
# 1 153.7702 28.2473 51.7057 0.0000 0.0000 0.0000
# 2 28.2473 67.7464 23.0246 0.0000 0.0000 0.0000
# 3 51.7057 23.0246 71.8372 0.0000 0.0000 0.0000
# 4 0.0000 0.0000 0.0000 11.0845 0.0000 0.0000
# 5 0.0000 0.0000 0.0000 0.0000 24.1066 0.0000
# 6 0.0000 0.0000 0.0000 0.0000 0.0000 12.9014
#
#
#
# Elastic Compliance Matrix: (Units=1/GPa)
#
#
# Indices 1 2 3 4 5 6 
#
# 1 0.008749 -0.001692 -0.005755 0.000000 0.000000 0.000000
# 2 -0.001692 0.016893 -0.004196 0.000000 0.000000 0.000000
# 3 -0.005755 -0.004196 0.019408 0.000000 0.000000 0.000000
# 4 0.000000 0.000000 0.000000 0.090216 0.000000 0.000000
# 5 0.000000 0.000000 0.000000 0.000000 0.041482 0.000000
# 6 0.000000 0.000000 0.000000 0.000000 0.000000 0.077511
#
#
# Mechanical properties :
#
#
# Convention : Reuss Voigt Hill
#
# Bulk Modulus (GPa) = 45.95065 55.47880 50.71473
# Shear Modulus (GPa) = 17.55617 22.31024 19.93320
#
# Velocity S-wave (km/s) = 3.18791 3.59371 3.39687
# Velocity P-wave (km/s) = 6.33639 7.02386 6.68896
#
# Compressibility (1/GPa) = 0.02176248
#
# Stress axis : x y z
#
# Youngs Moduli (GPa) = 114.29644 59.19730 51.52631
#
# Poissons Ratio (x) = 0.10017 0.29653
# Poissons Ratio (y) = 0.19340 0.21622
# Poissons Ratio (z) = 0.65777 0.24841
#
# Static dielectric constant tensor:
#      x y z
#    x 1.631110 0.000000 0.000000 
#    y 0.000000 1.583950 0.000000 
#    z 0.000000 0.000000 1.611810 
# 
# From -- ./inp_files/28111.got.cif
#   From: 2010.05.17/outbox.cif.g08.bks.cpg/sg64_15_cif.got.tgz:28111.got - 2010.06.03 16:29:19.
