data_PCOD9481507
_publ_section_title
;
Structure prediction by ZEFSAII (Michael W. Deem and Ramdas Pophale) SiO2 
 PCOD9481507
Probable space group: C M C A
;
_chemical_formula_sum "Si O2"
_cell_formula_units_Z 84
_cell_length_a 20.444521
_cell_length_b 20.580140
_cell_length_c 9.119428
_cell_angle_alpha 90.000000
_cell_angle_beta 90.000000
_cell_angle_gamma 90.000000
_cell_volume 3837.009403
_symmetry_space_group_name_H-M "C M C A"
_symmetry_group_IT_number 64
_symmetry_cell_setting 'orthorhombic'
loop_
_space_group_symop_operation_xyz
x,y,z
-x,1/2-y,1/2+z
x,-y,-z
-x,1/2+y,1/2-z
-x,-y,-z
x,1/2+y,1/2-z
-x,y,z
x,1/2-y,1/2+z
1/2+x,1/2+y,z
1/2-x,-y,1/2+z
1/2+x,1/2-y,-z
1/2-x,y,1/2-z
1/2-x,1/2-y,-z
1/2+x,y,1/2-z
1/2-x,1/2+y,z
1/2+x,-y,1/2+z
loop_
_atom_site_type_symbol
_atom_site_label
_atom_site_fract_x
_atom_site_fract_y
_atom_site_fract_z
Si Si1 0.879758 0.450550 0.325553
Si Si2 0.000000 0.500000 0.500000
Si Si3 0.622088 0.787324 0.820374
Si Si4 0.736169 0.500000 0.000000
Si Si5 0.331816 0.112618 0.957064
Si Si6 0.925671 0.329441 0.500854
Si Si7 0.250000 0.790221 0.250000
O O1 0.812569 0.486114 0.365359
O O2 0.876244 0.425192 0.160677
O O3 0.883318 0.386333 0.429022
O O4 0.941851 0.491985 0.373961
O O5 0.599951 0.806397 0.657872
O O6 0.694206 0.755303 0.817963
O O7 0.626013 0.849347 0.924529
O O8 0.577123 0.731932 0.892326
O O9 0.781940 0.438422 0.973911
O O10 0.287951 0.164229 0.865388
O O11 0.000000 0.355868 0.512573
#
# Coordination Sequence:
#
# PCOD9481507 Si02
#       7
#    16   4  16   8  16  16   8
#     4  11  23  45  71  97 138 177 240 281 343 414
#     4  10  24  44  68  94 124 202 220 290 342 410
#     4  12  26  41  71 104 143 181 227 289 361 414
#     4  11  24  41  70 101 138 177 222 278 352 409
#     4  12  24  44  71 106 139 180 230 292 351 424
#     4  12  24  45  67  99 136 186 235 285 340 413
#     4  12  22  44  68 104 144 178 222 290 356 428
#
# _framework density 21.892050999999999
#
# number of rings (size 3 to 8) (size 9 to 14) (size 15 to 20)
#    0.000    0.381    6.667    1.143    2.667    4.571 
#    3.429    0.000    0.000    1.714    0.000    0.000 
#    0.000    0.000    0.000    0.000    0.000    0.000 
#
# Total GULP energy -234696.896635 kJ/mol
# GULP energy per Si atom -5588.021348 kJ/mol
# Density = 2.184222 g / cm^3
# Si number density = 21.892051 Si / 1000 Ang^3
#
#
#
# Elastic Constant Matrix: (Units=GPa)
#
#
# Indices 1 2 3 4 5 6 
#
# 1 84.9064 16.9136 34.7633 0.0000 0.0000 0.0000
# 2 16.9136 63.7288 38.5823 0.0000 0.0000 0.0000
# 3 34.7633 38.5823 98.7445 0.0000 0.0000 0.0000
# 4 0.0000 0.0000 0.0000 52.1672 0.0000 0.0000
# 5 0.0000 0.0000 0.0000 0.0000 3.4648 0.0000
# 6 0.0000 0.0000 0.0000 0.0000 0.0000 29.8152
#
#
#
# Elastic Compliance Matrix: (Units=1/GPa)
#
#
# Indices 1 2 3 4 5 6 
#
# 1 0.013805 -0.000945 -0.004491 0.000000 0.000000 0.000000
# 2 -0.000945 0.020618 -0.007723 0.000000 0.000000 0.000000
# 3 -0.004491 -0.007723 0.014726 0.000000 0.000000 0.000000
# 4 0.000000 0.000000 0.000000 0.019169 0.000000 0.000000
# 5 0.000000 0.000000 0.000000 0.000000 0.288617 0.000000
# 6 0.000000 0.000000 0.000000 0.000000 0.000000 0.033540
#
#
# Mechanical properties :
#
#
# Convention : Reuss Voigt Hill
#
# Bulk Modulus (GPa) = 43.80133 47.54423 45.67278
# Shear Modulus (GPa) = 11.78127 27.56414 19.67271
#
# Velocity S-wave (km/s) = 2.32233 3.55222 3.00096
# Velocity P-wave (km/s) = 5.21941 6.21201 5.73722
#
# Compressibility (1/GPa) = 0.02283036
#
# Stress axis : x y z
#
# Youngs Moduli (GPa) = 72.43994 48.50096 67.90778
#
# Poissons Ratio (x) = 0.04583 0.30495
# Poissons Ratio (y) = 0.06846 0.52448
# Poissons Ratio (z) = 0.32530 0.37459
#
# Static dielectric constant tensor:
#      x y z
#    x 1.742620 0.000000 0.000000 
#    y 0.000000 1.887490 0.000000 
#    z 0.000000 0.000000 1.796640 
# 
# From -- ./inp_files/8169.got.cif
#   From: 2010.05.17/outbox.cif.g08.bks.cpg/sg64_5_cif.got.tgz:8169.got - 2010.06.03 16:29:19.
