data_PCOD9481461
_publ_section_title
;
Structure prediction by ZEFSAII (Michael W. Deem and Ramdas Pophale) SiO2 
 PCOD9481461
Probable space group: C M C A
;
_chemical_formula_sum "Si O2"
_cell_formula_units_Z 104
_cell_length_a 19.648271
_cell_length_b 8.723621
_cell_length_c 25.573877
_cell_angle_alpha 90.000000
_cell_angle_beta 90.000000
_cell_angle_gamma 90.000000
_cell_volume 4383.466591
_symmetry_space_group_name_H-M "C M C A"
_symmetry_group_IT_number 64
_symmetry_cell_setting 'orthorhombic'
loop_
_space_group_symop_operation_xyz
x,y,z
-x,1/2-y,1/2+z
x,-y,-z
-x,1/2+y,1/2-z
-x,-y,-z
x,1/2+y,1/2-z
-x,y,z
x,1/2-y,1/2+z
1/2+x,1/2+y,z
1/2-x,-y,1/2+z
1/2+x,1/2-y,-z
1/2-x,y,1/2-z
1/2-x,1/2-y,-z
1/2+x,y,1/2-z
1/2-x,1/2+y,z
1/2+x,-y,1/2+z
loop_
_atom_site_type_symbol
_atom_site_label
_atom_site_fract_x
_atom_site_fract_y
_atom_site_fract_z
Si Si1 0.396770 0.398231 0.796175
Si Si2 0.708357 0.757581 0.643624
Si Si3 0.500000 0.155103 0.743516
Si Si4 0.578526 0.380909 0.608390
Si Si5 0.671756 0.059039 0.194849
Si Si6 0.579164 0.171508 0.518269
Si Si7 0.821802 0.104035 0.543480
O O1 0.359301 0.363518 0.850967
O O2 0.441122 0.550255 0.786957
O O3 0.333985 0.415555 0.755804
O O4 0.441458 0.254441 0.776206
O O5 0.690729 0.612574 0.679657
O O6 0.774901 0.837022 0.664798
O O7 0.721390 0.697636 0.585141
O O8 0.500000 0.427276 0.602900
O O9 0.598690 0.395691 0.668924
O O10 0.586174 0.217467 0.579542
O O11 0.628656 0.495897 0.578102
O O12 0.500000 0.206682 0.505194
O O13 0.629233 0.282023 0.487370
O O14 0.592174 0.000000 0.500000
O O15 0.785036 0.000000 0.500000
#
# Coordination Sequence:
#
# PCOD9481461 Si02
#       7
#    16  16   8  16  16  16  16
#     4  11  23  44  66  96 134 164 209 260 321 385
#     4  11  25  43  63  93 127 177 220 260 319 389
#     4  10  24  42  68 100 126 167 205 264 323 375
#     4   9  19  36  61  85 114 156 204 253 314 374
#     4  11  25  41  62  89 126 169 212 255 312 384
#     4   9  17  33  53  87 121 151 193 257 322 372
#     4   9  19  39  63  87 119 164 217 266 318 381
#
# _framework density 23.725515000000001
#
# number of rings (size 3 to 8) (size 9 to 14) (size 15 to 20)
#    0.000    2.000    1.538    0.923    4.308    4.308 
#    4.154    7.692    0.000    0.000    0.000    0.000 
#    0.000    0.000    0.000    0.000    0.000    0.000 
#
# Total GULP energy -289705.229146 kJ/mol
# GULP energy per Si atom -5571.254407 kJ/mol
# Density = 2.367151 g / cm^3
# Si number density = 23.725515 Si / 1000 Ang^3
#
#
#
# Elastic Constant Matrix: (Units=GPa)
#
#
# Indices 1 2 3 4 5 6 
#
# 1 47.7964 9.3804 -2.0374 0.0000 0.0000 0.0000
# 2 9.3804 52.0297 -4.0493 0.0000 0.0000 0.0000
# 3 -2.0374 -4.0493 52.7597 0.0000 0.0000 0.0000
# 4 0.0000 0.0000 0.0000 26.7993 0.0000 0.0000
# 5 0.0000 0.0000 0.0000 0.0000 18.5184 0.0000
# 6 0.0000 0.0000 0.0000 0.0000 0.0000 16.0757
#
#
#
# Elastic Compliance Matrix: (Units=1/GPa)
#
#
# Indices 1 2 3 4 5 6 
#
# 1 0.021705 -0.003871 0.000541 0.000000 0.000000 0.000000
# 2 -0.003871 0.020026 0.001387 0.000000 0.000000 0.000000
# 3 0.000541 0.001387 0.019081 0.000000 0.000000 0.000000
# 4 0.000000 0.000000 0.000000 0.037314 0.000000 0.000000
# 5 0.000000 0.000000 0.000000 0.000000 0.054000 0.000000
# 6 0.000000 0.000000 0.000000 0.000000 0.000000 0.062206
#
#
# Mechanical properties :
#
#
# Convention : Reuss Voigt Hill
#
# Bulk Modulus (GPa) = 17.56642 17.68591 17.62616
# Shear Modulus (GPa) = 21.07991 22.23150 21.65571
#
# Velocity S-wave (km/s) = 2.98399 3.06441 3.02447
# Velocity P-wave (km/s) = 4.39231 4.47118 4.43192
#
# Compressibility (1/GPa) = 0.05692681
#
# Stress axis : x y z
#
# Youngs Moduli (GPa) = 46.07258 49.93590 52.40746
#
# Poissons Ratio (x) = 0.19330 -0.02836
# Poissons Ratio (y) = 0.17835 -0.07271
# Poissons Ratio (z) = -0.02493 -0.06928
#
# Static dielectric constant tensor:
#      x y z
#    x 1.900540 0.000000 0.000000 
#    y 0.000000 1.935180 0.000000 
#    z 0.000000 0.000000 1.962030 
# 
# From -- ./inp_files/50757.got.cif
#   From: 2010.05.17/outbox.cif.g08.bks.cpg/sg64_26_cif.got.tgz:50757.got - 2010.06.03 16:29:19.
