data_PCOD9481266
_publ_section_title
;
Structure prediction by ZEFSAII (Michael W. Deem and Ramdas Pophale) SiO2 
 PCOD9481266
Probable space group: C M C A
;
_chemical_formula_sum "Si O2"
_cell_formula_units_Z 48
_cell_length_a 7.919506
_cell_length_b 10.574614
_cell_length_c 25.856049
_cell_angle_alpha 90.000000
_cell_angle_beta 90.000000
_cell_angle_gamma 90.000000
_cell_volume 2165.333415
_symmetry_space_group_name_H-M "C M C A"
_symmetry_group_IT_number 64
_symmetry_cell_setting 'orthorhombic'
loop_
_space_group_symop_operation_xyz
x,y,z
-x,1/2-y,1/2+z
x,-y,-z
-x,1/2+y,1/2-z
-x,-y,-z
x,1/2+y,1/2-z
-x,y,z
x,1/2-y,1/2+z
1/2+x,1/2+y,z
1/2-x,-y,1/2+z
1/2+x,1/2-y,-z
1/2-x,y,1/2-z
1/2-x,1/2-y,-z
1/2+x,y,1/2-z
1/2-x,1/2+y,z
1/2+x,-y,1/2+z
loop_
_atom_site_type_symbol
_atom_site_label
_atom_site_fract_x
_atom_site_fract_y
_atom_site_fract_z
Si Si1 0.297525 0.376542 0.970249
Si Si2 0.000000 0.550930 0.802646
Si Si3 0.691094 0.045633 0.357446
Si Si4 0.000000 0.318616 0.726035
O O1 0.500000 0.381523 0.970894
O O2 0.249640 0.387845 0.910064
O O3 0.230839 0.500000 0.000000
O O4 0.250000 0.250000 0.000000
O O5 0.167452 0.550046 0.837711
O O6 0.000000 0.420477 0.771063
O O7 0.000000 0.670106 0.764196
O O8 0.500000 0.991026 0.366036
O O9 0.656643 0.146229 0.311677
#
# Coordination Sequence:
#
# PCOD9481266 Si02
#       4
#    16   8  16   8
#     4  10  23  42  65  99 134 171 219 271 326 392
#     4  12  24  48  70  95 132 183 212 282 345 382
#     4   9  24  44  65 103 132 172 223 273 324 408
#     4  10  26  46  66 102 132 167 236 269 331 414
#
# _framework density 22.167487999999999
#
# number of rings (size 3 to 8) (size 9 to 14) (size 15 to 20)
#    1.000    1.000    0.000    1.000    7.000    6.000 
#    3.000    0.000    0.000    0.000    0.000    0.000 
#    0.000    0.000    0.000    0.000    0.000    0.000 
#
# Total GULP energy -133877.950121 kJ/mol
# GULP energy per Si atom -5578.247922 kJ/mol
# Density = 2.211703 g / cm^3
# Si number density = 22.167488 Si / 1000 Ang^3
#
#
#
# Elastic Constant Matrix: (Units=GPa)
#
#
# Indices 1 2 3 4 5 6 
#
# 1 71.0735 31.5512 22.6854 0.0000 0.0000 0.0000
# 2 31.5512 68.9468 -16.3184 0.0000 0.0000 0.0000
# 3 22.6854 -16.3184 61.0413 0.0000 0.0000 0.0000
# 4 0.0000 0.0000 0.0000 25.2581 0.0000 0.0000
# 5 0.0000 0.0000 0.0000 0.0000 0.2254 0.0000
# 6 0.0000 0.0000 0.0000 0.0000 0.0000 8.6332
#
#
#
# Elastic Compliance Matrix: (Units=1/GPa)
#
#
# Indices 1 2 3 4 5 6 
#
# 1 0.024549 -0.014298 -0.012946 0.000000 0.000000 0.000000
# 2 -0.014298 0.023811 0.011679 0.000000 0.000000 0.000000
# 3 -0.012946 0.011679 0.024316 0.000000 0.000000 0.000000
# 4 0.000000 0.000000 0.000000 0.039591 0.000000 0.000000
# 5 0.000000 0.000000 0.000000 0.000000 4.435721 0.000000
# 6 0.000000 0.000000 0.000000 0.000000 0.000000 0.115832
#
#
# Mechanical properties :
#
#
# Convention : Reuss Voigt Hill
#
# Bulk Modulus (GPa) = 24.06914 30.76645 27.41780
# Shear Modulus (GPa) = 1.06184 17.69957 9.38070
#
# Velocity S-wave (km/s) = 0.69286 2.82875 2.05935
# Velocity P-wave (km/s) = 3.39433 4.95765 4.24852
#
# Compressibility (1/GPa) = 0.04154698
#
# Stress axis : x y z
#
# Youngs Moduli (GPa) = 40.73414 41.99670 41.12536
#
# Poissons Ratio (x) = 0.60048 0.53241
# Poissons Ratio (y) = 0.58243 -0.48032
# Poissons Ratio (z) = 0.52734 -0.49050
#
# Static dielectric constant tensor:
#      x y z
#    x 1.876080 0.000000 0.000000 
#    y 0.000000 1.780810 0.000000 
#    z 0.000000 0.000000 1.831790 
# 
# From -- ./inp_files/42337.got.cif
#   From: 2010.05.17/outbox.cif.g08.bks.cpg/sg64_22_cif.got.tgz:42337.got - 2010.06.03 16:29:19.
