data_PCOD9481134
_publ_section_title
;
Structure prediction by ZEFSAII (Michael W. Deem and Ramdas Pophale) SiO2 
 PCOD9481134
Probable space group: C M C A
;
_chemical_formula_sum "Si O2"
_cell_formula_units_Z 88
_cell_length_a 14.786977
_cell_length_b 13.076723
_cell_length_c 21.017514
_cell_angle_alpha 90.000000
_cell_angle_beta 90.000000
_cell_angle_gamma 90.000000
_cell_volume 4064.055845
_symmetry_space_group_name_H-M "C M C A"
_symmetry_group_IT_number 64
_symmetry_cell_setting 'orthorhombic'
loop_
_space_group_symop_operation_xyz
x,y,z
-x,1/2-y,1/2+z
x,-y,-z
-x,1/2+y,1/2-z
-x,-y,-z
x,1/2+y,1/2-z
-x,y,z
x,1/2-y,1/2+z
1/2+x,1/2+y,z
1/2-x,-y,1/2+z
1/2+x,1/2-y,-z
1/2-x,y,1/2-z
1/2-x,1/2-y,-z
1/2+x,y,1/2-z
1/2-x,1/2+y,z
1/2+x,-y,1/2+z
loop_
_atom_site_type_symbol
_atom_site_label
_atom_site_fract_x
_atom_site_fract_y
_atom_site_fract_z
Si Si1 0.166210 0.542213 0.596405
Si Si2 0.000000 0.194632 0.384398
Si Si3 0.189793 0.861861 0.314826
Si Si4 0.500000 0.520136 0.687780
Si Si5 0.000000 0.103150 0.818832
Si Si6 0.895645 0.318729 0.622081
Si Si7 0.144881 0.224863 0.987066
O O1 0.255786 0.589184 0.626776
O O2 0.088510 0.579845 0.642827
O O3 0.157631 0.421433 0.602892
O O4 0.144020 0.604855 0.532737
O O5 0.000000 0.271825 0.322563
O O6 0.087533 0.218441 0.430653
O O7 0.000000 0.081158 0.354864
O O8 0.250000 0.874367 0.250000
O O9 0.092353 0.915968 0.319233
O O10 0.164163 0.744043 0.327790
O O11 0.500000 0.518378 0.763934
O O12 0.900000 0.257650 0.555313
O O13 0.000000 0.336132 0.641730
O O14 0.250000 0.250000 0.000000
#
# Coordination Sequence:
#
# PCOD9481134 Si02
#       7
#    16   8  16   8   8  16  16
#     4  11  24  43  71 108 142 196 251 304 382 448
#     4  10  26  44  76 108 146 195 251 318 384 444
#     4  12  27  47  70 106 151 190 257 309 369 464
#     4  12  26  47  70 107 148 201 245 313 383 451
#     4  10  22  45  68 103 147 184 252 305 359 454
#     4  12  25  46  75 106 145 198 244 314 381 443
#     4  11  23  45  72 106 147 188 251 315 371 452
#
# _framework density 21.653245999999999
#
# number of rings (size 3 to 8) (size 9 to 14) (size 15 to 20)
#    0.000    0.727    6.364    0.545    2.545    2.909 
#    0.000    1.818    0.000    0.000    0.000    0.000 
#    0.000    0.000    0.000    0.000    0.000    0.000 
#
# Total GULP energy -244960.866799 kJ/mol
# GULP energy per Si atom -5567.292427 kJ/mol
# Density = 2.160396 g / cm^3
# Si number density = 21.653246 Si / 1000 Ang^3
#
#
#
# Elastic Constant Matrix: (Units=GPa)
#
#
# Indices 1 2 3 4 5 6 
#
# 1 147.3366 40.8216 36.5338 0.0000 0.0000 0.0000
# 2 40.8216 132.1223 43.1610 0.0000 0.0000 0.0000
# 3 36.5338 43.1610 70.4371 0.0000 0.0000 0.0000
# 4 0.0000 0.0000 0.0000 16.9975 0.0000 0.0000
# 5 0.0000 0.0000 0.0000 0.0000 20.9183 0.0000
# 6 0.0000 0.0000 0.0000 0.0000 0.0000 46.6503
#
#
#
# Elastic Compliance Matrix: (Units=1/GPa)
#
#
# Indices 1 2 3 4 5 6 
#
# 1 0.007989 -0.001394 -0.003290 0.000000 0.000000 0.000000
# 2 -0.001394 0.009706 -0.005225 0.000000 0.000000 0.000000
# 3 -0.003290 -0.005225 0.019105 0.000000 0.000000 0.000000
# 4 0.000000 0.000000 0.000000 0.058832 0.000000 0.000000
# 5 0.000000 0.000000 0.000000 0.000000 0.047805 0.000000
# 6 0.000000 0.000000 0.000000 0.000000 0.000000 0.021436
#
#
# Mechanical properties :
#
#
# Convention : Reuss Voigt Hill
#
# Bulk Modulus (GPa) = 58.87935 65.65873 62.26904
# Shear Modulus (GPa) = 26.26734 32.20520 29.23627
#
# Velocity S-wave (km/s) = 3.48672 3.86076 3.67850
# Velocity P-wave (km/s) = 6.59247 7.08961 6.84555
#
# Compressibility (1/GPa) = 0.01698388
#
# Stress axis : x y z
#
# Youngs Moduli (GPa) = 125.17146 103.02788 52.34290
#
# Poissons Ratio (x) = 0.14359 0.17219
# Poissons Ratio (y) = 0.17445 0.27347
# Poissons Ratio (z) = 0.41178 0.53828
#
# Static dielectric constant tensor:
#      x y z
#    x 1.717740 0.000000 0.000000 
#    y 0.000000 1.995960 0.000000 
#    z 0.000000 0.000000 1.900030 
# 
# From -- ./inp_files/45104.got.cif
#   From: 2010.05.17/outbox.cif.g08.bks.cpg/sg64_23_cif.got.tgz:45104.got - 2010.06.03 16:29:19.
