data_PCOD9481645
_publ_section_title
;
Structure prediction by ZEFSAII (Michael W. Deem and Ramdas Pophale) SiO2 
 PCOD9481645
Probable space group: C M C A
;
_chemical_formula_sum "Si O2"
_cell_formula_units_Z 80
_cell_length_a 31.959020
_cell_length_b 13.239458
_cell_length_c 8.550175
_cell_angle_alpha 90.000000
_cell_angle_beta 90.000000
_cell_angle_gamma 90.000000
_cell_volume 3617.750927
_symmetry_space_group_name_H-M "C M C A"
_symmetry_group_IT_number 64
_symmetry_cell_setting 'orthorhombic'
loop_
_space_group_symop_operation_xyz
x,y,z
-x,1/2-y,1/2+z
x,-y,-z
-x,1/2+y,1/2-z
-x,-y,-z
x,1/2+y,1/2-z
-x,y,z
x,1/2-y,1/2+z
1/2+x,1/2+y,z
1/2-x,-y,1/2+z
1/2+x,1/2-y,-z
1/2-x,y,1/2-z
1/2-x,1/2-y,-z
1/2+x,y,1/2-z
1/2-x,1/2+y,z
1/2+x,-y,1/2+z
loop_
_atom_site_type_symbol
_atom_site_label
_atom_site_fract_x
_atom_site_fract_y
_atom_site_fract_z
Si Si1 0.661386 0.167370 0.873325
Si Si2 0.000000 0.334020 0.561869
Si Si3 0.090683 0.462306 0.250073
Si Si4 0.000000 0.453186 0.246027
Si Si5 0.218662 0.291918 0.867233
Si Si6 0.409449 0.666436 0.073686
O O1 0.632084 0.074866 0.831909
O O2 0.692637 0.208387 0.735232
O O3 0.628737 0.258048 0.909715
O O4 0.686263 0.146140 0.031577
O O5 0.000000 0.368401 0.381452
O O6 0.000000 0.438946 0.660754
O O7 0.044636 0.283416 0.593530
O O8 0.045499 0.448292 0.168015
O O9 0.089877 0.393009 0.408368
O O10 0.094324 0.578393 0.298878
O O11 0.250000 0.348012 0.750000
O O12 0.250000 0.250000 0.000000
#
# Coordination Sequence:
#
# PCOD9481645 Si02
#       6
#    16   8  16   8  16  16
#     4  11  18  33  58  83 102 142 185 225 274 329
#     4   7  12  25  44  71 110 151 180 217 265 304
#     4   9  17  30  51  79 112 149 186 225 259 318
#     4   7  12  25  44  71 110 151 184 215 263 304
#     4   9  20  36  56  78 106 137 171 220 292 347
#     4   9  17  30  51  79 112 147 187 224 260 316
#
# _framework density 22.113185999999999
#
# number of rings (size 3 to 8) (size 9 to 14) (size 15 to 20)
#    0.000    3.000    2.000    2.400    0.000    0.800 
#    0.000    1.000    0.000   18.000    0.000    4.200 
#    0.000    0.000    0.000    0.000    0.000    0.000 
#
# Total GULP energy -222971.387007 kJ/mol
# GULP energy per Si atom -5574.284675 kJ/mol
# Density = 2.206286 g / cm^3
# Si number density = 22.113186 Si / 1000 Ang^3
#
#
#
# Elastic Constant Matrix: (Units=GPa)
#
#
# Indices 1 2 3 4 5 6 
#
# 1 182.8551 26.8748 66.4319 0.0000 0.0000 0.0000
# 2 26.8748 31.6328 16.0604 0.0000 0.0000 0.0000
# 3 66.4319 16.0604 84.5924 0.0000 0.0000 0.0000
# 4 0.0000 0.0000 0.0000 11.9845 0.0000 0.0000
# 5 0.0000 0.0000 0.0000 0.0000 18.8990 0.0000
# 6 0.0000 0.0000 0.0000 0.0000 0.0000 18.6645
#
#
#
# Elastic Compliance Matrix: (Units=1/GPa)
#
#
# Indices 1 2 3 4 5 6 
#
# 1 0.008093 -0.004038 -0.005589 0.000000 0.000000 0.000000
# 2 -0.004038 0.037000 -0.003854 0.000000 0.000000 0.000000
# 3 -0.005589 -0.003854 0.016942 0.000000 0.000000 0.000000
# 4 0.000000 0.000000 0.000000 0.083441 0.000000 0.000000
# 5 0.000000 0.000000 0.000000 0.000000 0.052913 0.000000
# 6 0.000000 0.000000 0.000000 0.000000 0.000000 0.053578
#
#
# Mechanical properties :
#
#
# Convention : Reuss Voigt Hill
#
# Bulk Modulus (GPa) = 28.51115 57.53494 43.02304
# Shear Modulus (GPa) = 17.20472 22.55714 19.88093
#
# Velocity S-wave (km/s) = 2.79234 3.19733 3.00167
# Velocity P-wave (km/s) = 4.82882 6.30122 5.61351
#
# Compressibility (1/GPa) = 0.03507400
#
# Stress axis : x y z
#
# Youngs Moduli (GPa) = 123.56857 27.02712 59.02522
#
# Poissons Ratio (x) = 0.10913 0.32987
# Poissons Ratio (y) = 0.49897 0.22746
# Poissons Ratio (z) = 0.69059 0.10415
#
# Static dielectric constant tensor:
#      x y z
#    x 1.854070 0.000000 0.000000 
#    y 0.000000 1.776690 0.000000 
#    z 0.000000 0.000000 1.876080 
# 
# From -- ./inp_files/11028.got.cif
#   From: 2010.05.17/outbox.cif.g08.bks.cpg/sg64_6_cif.got.tgz:11028.got - 2010.06.03 16:29:19.
