data_PCOD9481676
_publ_section_title
;
Structure prediction by ZEFSAII (Michael W. Deem and Ramdas Pophale) SiO2 
 PCOD9481676
Probable space group: C M C A
;
_chemical_formula_sum "Si O2"
_cell_formula_units_Z 80
_cell_length_a 8.786731
_cell_length_b 25.887388
_cell_length_c 20.388691
_cell_angle_alpha 90.000000
_cell_angle_beta 90.000000
_cell_angle_gamma 90.000000
_cell_volume 4637.724091
_symmetry_space_group_name_H-M "C M C A"
_symmetry_group_IT_number 64
_symmetry_cell_setting 'orthorhombic'
loop_
_space_group_symop_operation_xyz
x,y,z
-x,1/2-y,1/2+z
x,-y,-z
-x,1/2+y,1/2-z
-x,-y,-z
x,1/2+y,1/2-z
-x,y,z
x,1/2-y,1/2+z
1/2+x,1/2+y,z
1/2-x,-y,1/2+z
1/2+x,1/2-y,-z
1/2-x,y,1/2-z
1/2-x,1/2-y,-z
1/2+x,y,1/2-z
1/2-x,1/2+y,z
1/2+x,-y,1/2+z
loop_
_atom_site_type_symbol
_atom_site_label
_atom_site_fract_x
_atom_site_fract_y
_atom_site_fract_z
Si Si1 0.820118 0.620054 0.952579
Si Si2 0.318390 0.771010 0.431619
Si Si3 0.683143 0.596557 0.095210
Si Si4 0.817949 0.803792 0.821851
Si Si5 0.675749 0.015630 0.577285
O O1 0.734862 0.669889 0.924642
O O2 0.774350 0.566953 0.916285
O O3 0.000000 0.628087 0.950959
O O4 0.764867 0.613131 0.027943
O O5 0.500000 0.767778 0.434382
O O6 0.250000 0.750000 0.500000
O O7 0.253901 0.736310 0.373023
O O8 0.500000 0.596436 0.082621
O O9 0.715523 0.638829 0.150205
O O10 0.725644 0.537456 0.112060
O O11 0.750000 0.797075 0.750000
O O12 0.000000 0.797340 0.820966
O O13 0.500000 0.027110 0.593763
O O14 0.679521 0.000000 0.500000
#
# Coordination Sequence:
#
# PCOD9481676 Si02
#       5
#    16  16  16  16  16
#     4  11  20  30  50  81 112 143 180 228 281 331
#     4  12  23  37  57  82 111 147 189 237 286 339
#     4   9  18  33  53  75 107 146 182 223 275 331
#     4  11  23  39  58  82 113 150 189 231 281 341
#     4   8  15  29  48  73 105 141 177 217 269 324
#
# _framework density 17.249841
#
# number of rings (size 3 to 8) (size 9 to 14) (size 15 to 20)
#    0.000    1.800    2.000    5.400    0.000    4.400 
#    0.000    0.000    0.000    1.200    0.000    5.600 
#    0.000    0.000    0.000    0.000    0.000    0.000 
#
# Total GULP energy -223252.375278 kJ/mol
# GULP energy per Si atom -5581.309382 kJ/mol
# Density = 1.721058 g / cm^3
# Si number density = 17.249841 Si / 1000 Ang^3
#
#
#
# Elastic Constant Matrix: (Units=GPa)
#
#
# Indices 1 2 3 4 5 6 
#
# 1 104.6775 66.6234 52.1018 0.0000 0.0000 0.0000
# 2 66.6234 150.4857 67.0778 0.0000 0.0000 0.0000
# 3 52.1018 67.0778 94.4631 0.0000 0.0000 0.0000
# 4 0.0000 0.0000 0.0000 17.2977 0.0000 0.0000
# 5 0.0000 0.0000 0.0000 0.0000 21.9531 0.0000
# 6 0.0000 0.0000 0.0000 0.0000 0.0000 28.8086
#
#
#
# Elastic Compliance Matrix: (Units=1/GPa)
#
#
# Indices 1 2 3 4 5 6 
#
# 1 0.014835 -0.004273 -0.005148 0.000000 0.000000 0.000000
# 2 -0.004273 0.010953 -0.005421 0.000000 0.000000 0.000000
# 3 -0.005148 -0.005421 0.017275 0.000000 0.000000 0.000000
# 4 0.000000 0.000000 0.000000 0.057811 0.000000 0.000000
# 5 0.000000 0.000000 0.000000 0.000000 0.045552 0.000000
# 6 0.000000 0.000000 0.000000 0.000000 0.000000 0.034712
#
#
# Mechanical properties :
#
#
# Convention : Reuss Voigt Hill
#
# Bulk Modulus (GPa) = 74.74381 80.13692 77.44036
# Shear Modulus (GPa) = 23.22527 24.53344 23.87935
#
# Velocity S-wave (km/s) = 3.67332 3.77535 3.72469
# Velocity P-wave (km/s) = 7.83679 8.09703 7.96797
#
# Compressibility (1/GPa) = 0.01337903
#
# Stress axis : x y z
#
# Youngs Moduli (GPa) = 67.40685 91.29618 57.88684
#
# Poissons Ratio (x) = 0.39012 0.29801
# Poissons Ratio (y) = 0.28804 0.31381
# Poissons Ratio (z) = 0.34702 0.49492
#
# Static dielectric constant tensor:
#      x y z
#    x 1.575970 0.000000 0.000000 
#    y 0.000000 1.622610 0.000000 
#    z 0.000000 0.000000 1.550810 
# 
# From -- ./inp_files/29791.got.cif
#   From: 2010.05.17/outbox.cif.g08.bks.cpg/sg64_15_cif.got.tgz:29791.got - 2010.06.03 16:29:19.
