data_PCOD9481135
_publ_section_title
;
Structure prediction by ZEFSAII (Michael W. Deem and Ramdas Pophale) SiO2 
 PCOD9481135
Probable space group: C M C A
;
_chemical_formula_sum "Si O2"
_cell_formula_units_Z 104
_cell_length_a 9.895987
_cell_length_b 19.432957
_cell_length_c 26.584292
_cell_angle_alpha 90.000000
_cell_angle_beta 90.000000
_cell_angle_gamma 90.000000
_cell_volume 5112.379731
_symmetry_space_group_name_H-M "C M C A"
_symmetry_group_IT_number 64
_symmetry_cell_setting 'orthorhombic'
loop_
_space_group_symop_operation_xyz
x,y,z
-x,1/2-y,1/2+z
x,-y,-z
-x,1/2+y,1/2-z
-x,-y,-z
x,1/2+y,1/2-z
-x,y,z
x,1/2-y,1/2+z
1/2+x,1/2+y,z
1/2-x,-y,1/2+z
1/2+x,1/2-y,-z
1/2-x,y,1/2-z
1/2-x,1/2-y,-z
1/2+x,y,1/2-z
1/2-x,1/2+y,z
1/2+x,-y,1/2+z
loop_
_atom_site_type_symbol
_atom_site_label
_atom_site_fract_x
_atom_site_fract_y
_atom_site_fract_z
Si Si1 0.657620 0.886131 0.201462
Si Si2 0.258778 0.200507 0.548195
Si Si3 0.652462 0.601418 0.204804
Si Si4 0.500000 0.888699 0.026303
Si Si5 0.500000 0.959992 0.925720
Si Si6 0.000000 0.909118 0.064415
Si Si7 0.658854 0.759678 0.648653
Si Si8 0.228017 0.005720 0.877104
O O1 0.500000 0.902305 0.211424
O O2 0.750000 0.898642 0.250000
O O3 0.668125 0.806880 0.184393
O O4 0.711124 0.930994 0.154969
O O5 0.250000 0.250000 0.500000
O O6 0.128225 0.152038 0.545537
O O7 0.383870 0.148828 0.549925
O O8 0.246406 0.244922 0.599219
O O9 0.500000 0.611391 0.223791
O O10 0.750000 0.581813 0.250000
O O11 0.698653 0.672503 0.179020
O O12 0.654262 0.543232 0.162557
O O13 0.500000 0.965171 0.047963
O O14 0.500000 0.899233 0.966361
O O15 0.357098 0.962656 0.897074
O O16 0.121232 0.964092 0.082804
O O17 0.500000 0.767704 0.634080
#
# Coordination Sequence:
#
# PCOD9481135 Si02
#       8
#    16  16  16   8   8   8  16  16
#     4  11  23  39  69  98 130 179 232 287 344 410
#     4  12  25  45  71 105 135 178 231 294 353 417
#     4  11  26  45  66 101 142 189 234 286 351 425
#     4  11  23  46  70  95 134 176 237 275 342 434
#     4  11  24  44  71  93 131 189 224 282 349 416
#     4  12  25  44  72 106 139 177 231 297 343 420
#     4  10  22  45  68  92 139 182 225 288 350 412
#     4  12  24  45  69  99 142 183 231 287 352 415
#
# _framework density 20.342776000000001
#
# number of rings (size 3 to 8) (size 9 to 14) (size 15 to 20)
#    0.000    0.769    5.385    1.385    4.308    1.231 
#    1.385    1.538    0.000    0.000    0.000    0.000 
#    0.000    0.000    0.000    0.000    0.000    0.000 
#
# Total GULP energy -289570.847379 kJ/mol
# GULP energy per Si atom -5568.670142 kJ/mol
# Density = 2.029648 g / cm^3
# Si number density = 20.342776 Si / 1000 Ang^3
#
#
#
# Elastic Constant Matrix: (Units=GPa)
#
#
# Indices 1 2 3 4 5 6 
#
# 1 135.3394 2.7404 20.0459 0.0000 0.0000 0.0000
# 2 2.7404 50.6192 -11.8935 0.0000 0.0000 0.0000
# 3 20.0459 -11.8935 43.1085 0.0000 0.0000 0.0000
# 4 0.0000 0.0000 0.0000 20.0006 0.0000 0.0000
# 5 0.0000 0.0000 0.0000 0.0000 25.3884 0.0000
# 6 0.0000 0.0000 0.0000 0.0000 0.0000 40.7210
#
#
#
# Elastic Compliance Matrix: (Units=1/GPa)
#
#
# Indices 1 2 3 4 5 6 
#
# 1 0.008027 -0.001403 -0.004120 0.000000 0.000000 0.000000
# 2 -0.001403 0.021370 0.006548 0.000000 0.000000 0.000000
# 3 -0.004120 0.006548 0.026920 0.000000 0.000000 0.000000
# 4 0.000000 0.000000 0.000000 0.049998 0.000000 0.000000
# 5 0.000000 0.000000 0.000000 0.000000 0.039388 0.000000
# 6 0.000000 0.000000 0.000000 0.000000 0.000000 0.024557
#
#
# Mechanical properties :
#
#
# Convention : Reuss Voigt Hill
#
# Bulk Modulus (GPa) = 17.13258 27.87251 22.50255
# Shear Modulus (GPa) = 26.64315 31.76695 29.20505
#
# Velocity S-wave (km/s) = 3.62292 3.95597 3.79310
# Velocity P-wave (km/s) = 5.09323 5.88196 5.50175
#
# Compressibility (1/GPa) = 0.05836832
#
# Stress axis : x y z
#
# Youngs Moduli (GPa) = 124.57266 46.79494 37.14759
#
# Poissons Ratio (x) = 0.06563 0.15304
# Poissons Ratio (y) = 0.17472 -0.24325
# Poissons Ratio (z) = 0.51322 -0.30642
#
# Static dielectric constant tensor:
#      x y z
#    x 1.756730 0.000000 0.000000 
#    y 0.000000 1.709980 0.000000 
#    z 0.000000 0.000000 1.745750 
# 
# From -- ./inp_files/48307.got.cif
#   From: 2010.05.17/outbox.cif.g08.bks.cpg/sg64_25_cif.got.tgz:48307.got - 2010.06.03 16:29:19.
