data_PCOD9481635
_publ_section_title
;
Structure prediction by ZEFSAII (Michael W. Deem and Ramdas Pophale) SiO2 
 PCOD9481635
Probable space group: C M C A
;
_chemical_formula_sum "Si O2"
_cell_formula_units_Z 88
_cell_length_a 28.209539
_cell_length_b 11.819962
_cell_length_c 10.201193
_cell_angle_alpha 90.000000
_cell_angle_beta 90.000000
_cell_angle_gamma 90.000000
_cell_volume 3401.441715
_symmetry_space_group_name_H-M "C M C A"
_symmetry_group_IT_number 64
_symmetry_cell_setting 'orthorhombic'
loop_
_space_group_symop_operation_xyz
x,y,z
-x,1/2-y,1/2+z
x,-y,-z
-x,1/2+y,1/2-z
-x,-y,-z
x,1/2+y,1/2-z
-x,y,z
x,1/2-y,1/2+z
1/2+x,1/2+y,z
1/2-x,-y,1/2+z
1/2+x,1/2-y,-z
1/2-x,y,1/2-z
1/2-x,1/2-y,-z
1/2+x,y,1/2-z
1/2-x,1/2+y,z
1/2+x,-y,1/2+z
loop_
_atom_site_type_symbol
_atom_site_label
_atom_site_fract_x
_atom_site_fract_y
_atom_site_fract_z
Si Si1 0.392019 0.612525 0.933536
Si Si2 0.500000 0.669857 0.938187
Si Si3 0.415228 0.008763 0.818223
Si Si4 0.809530 0.249475 0.011942
Si Si5 0.166774 0.500000 0.000000
Si Si6 0.000000 0.344543 0.096985
Si Si7 0.000000 0.160378 0.260480
Si Si8 0.750000 0.240328 0.250000
O O1 0.448304 0.615777 0.947503
O O2 0.388981 0.595504 0.779420
O O3 0.364078 0.715293 0.995225
O O4 0.372452 0.500000 0.000000
O O5 0.500000 0.814684 0.927809
O O6 0.500000 0.703179 0.102695
O O7 0.451396 0.085434 0.900673
O O8 0.450817 0.914751 0.758290
O O9 0.370460 0.957503 0.890932
O O10 0.784577 0.215305 0.871837
O O11 0.804950 0.385693 0.032996
O O12 0.788096 0.190916 0.143744
O O13 0.000000 0.312021 0.269527
#
# Coordination Sequence:
#
# PCOD9481635 Si02
#       8
#    16   8  16  16   8   8   8   8
#     4  12  25  43  69 107 150 200 244 302 358 451
#     4  12  22  40  64  98 151 198 248 293 357 421
#     4  11  23  38  58 100 138 187 253 289 362 416
#     4  11  26  50  79 111 145 188 245 308 389 450
#     4  12  26  41  74 108 138 182 230 313 374 462
#     4  11  21  36  58  84 135 200 243 302 335 413
#     4  11  20  37  58  85 138 204 249 303 338 411
#     4  10  26  56  78 110 144 186 244 314 388 466
#
# _framework density 25.871381
#
# number of rings (size 3 to 8) (size 9 to 14) (size 15 to 20)
#    0.000    0.727    1.818    6.273    2.545    2.182 
#    6.545    0.000    0.000    0.000    0.000    0.000 
#    0.000    0.000    0.000    0.000    0.000    0.000 
#
# Total GULP energy -245110.965518 kJ/mol
# GULP energy per Si atom -5570.703762 kJ/mol
# Density = 2.581250 g / cm^3
# Si number density = 25.871381 Si / 1000 Ang^3
#
#
#
# Elastic Constant Matrix: (Units=GPa)
#
#
# Indices 1 2 3 4 5 6 
#
# 1 105.2676 29.0850 33.8176 0.0000 0.0000 0.0000
# 2 29.0850 107.8904 27.9852 0.0000 0.0000 0.0000
# 3 33.8176 27.9852 194.9630 0.0000 0.0000 0.0000
# 4 0.0000 0.0000 0.0000 55.1046 0.0000 0.0000
# 5 0.0000 0.0000 0.0000 0.0000 42.4614 0.0000
# 6 0.0000 0.0000 0.0000 0.0000 0.0000 21.7162
#
#
#
# Elastic Compliance Matrix: (Units=1/GPa)
#
#
# Indices 1 2 3 4 5 6 
#
# 1 0.010667 -0.002488 -0.001493 0.000000 0.000000 0.000000
# 2 -0.002488 0.010208 -0.001034 0.000000 0.000000 0.000000
# 3 -0.001493 -0.001034 0.005537 0.000000 0.000000 0.000000
# 4 0.000000 0.000000 0.000000 0.018147 0.000000 0.000000
# 5 0.000000 0.000000 0.000000 0.000000 0.023551 0.000000
# 6 0.000000 0.000000 0.000000 0.000000 0.000000 0.046049
#
#
# Mechanical properties :
#
#
# Convention : Reuss Voigt Hill
#
# Bulk Modulus (GPa) = 61.04629 65.54404 63.29516
# Shear Modulus (GPa) = 38.56608 45.00532 41.78570
#
# Velocity S-wave (km/s) = 3.86513 4.17535 4.02323
# Velocity P-wave (km/s) = 6.60047 6.97383 6.78972
#
# Compressibility (1/GPa) = 0.01638101
#
# Stress axis : x y z
#
# Youngs Moduli (GPa) = 93.74933 97.96671 180.61882
#
# Poissons Ratio (x) = 0.24377 0.26967
# Poissons Ratio (y) = 0.23327 0.18669
# Poissons Ratio (z) = 0.13997 0.10126
#
# Static dielectric constant tensor:
#      x y z
#    x 1.939360 0.000000 0.000000 
#    y 0.000000 2.037470 0.000000 
#    z 0.000000 0.000000 2.397640 
# 
# From -- ./inp_files/19740.got.cif
#   From: 2010.05.17/outbox.cif.g08.bks.cpg/sg64_10_cif.got.tgz:19740.got - 2010.06.03 16:29:19.
