data_PCOD9481678
_publ_section_title
;
Structure prediction by ZEFSAII (Michael W. Deem and Ramdas Pophale) SiO2 
 PCOD9481678
Probable space group: C M C A
;
_chemical_formula_sum "Si O2"
_cell_formula_units_Z 112
_cell_length_a 17.521022
_cell_length_b 19.744561
_cell_length_c 19.479607
_cell_angle_alpha 90.000000
_cell_angle_beta 90.000000
_cell_angle_gamma 90.000000
_cell_volume 6738.870455
_symmetry_space_group_name_H-M "C M C A"
_symmetry_group_IT_number 64
_symmetry_cell_setting 'orthorhombic'
loop_
_space_group_symop_operation_xyz
x,y,z
-x,1/2-y,1/2+z
x,-y,-z
-x,1/2+y,1/2-z
-x,-y,-z
x,1/2+y,1/2-z
-x,y,z
x,1/2-y,1/2+z
1/2+x,1/2+y,z
1/2-x,-y,1/2+z
1/2+x,1/2-y,-z
1/2-x,y,1/2-z
1/2-x,1/2-y,-z
1/2+x,y,1/2-z
1/2-x,1/2+y,z
1/2+x,-y,1/2+z
loop_
_atom_site_type_symbol
_atom_site_label
_atom_site_fract_x
_atom_site_fract_y
_atom_site_fract_z
Si Si1 0.589257 0.293079 0.010825
Si Si2 0.841439 0.873313 0.758027
Si Si3 0.591276 0.981179 0.290255
Si Si4 0.092709 0.944253 0.055367
Si Si5 0.854913 0.736007 0.147607
Si Si6 0.659099 0.347379 0.260984
Si Si7 0.172203 0.262349 0.628686
O O1 0.500000 0.296465 0.991935
O O2 0.615408 0.368702 0.033172
O O3 0.600293 0.246401 0.077537
O O4 0.638134 0.268205 0.946566
O O5 0.750000 0.879170 0.750000
O O6 0.870541 0.831098 0.692129
O O7 0.854745 0.825803 0.824557
O O8 0.877342 0.946422 0.767512
O O9 0.500000 0.982814 0.290374
O O10 0.617951 0.963803 0.368066
O O11 0.620354 0.919867 0.243268
O O12 0.000000 0.944704 0.056093
O O13 0.117984 0.000000 0.000000
O O14 0.869735 0.799266 0.198806
O O15 0.764393 0.736613 0.130321
O O16 0.750000 0.354584 0.250000
O O17 0.647380 0.305121 0.330544
#
# Coordination Sequence:
#
# PCOD9481678 Si02
#       7
#    16  16  16  16  16  16  16
#     4  11  20  31  50  77 108 138 165 208 262 306
#     4   9  19  35  54  75 101 134 175 216 253 300
#     4  11  20  31  50  76 106 137 165 209 263 307
#     4   9  18  30  44  68 104 136 161 195 252 313
#     4   9  18  35  54  74 101 135 175 214 252 300
#     4   9  18  34  54  75  99 133 175 213 253 300
#     4   9  19  34  54  76 100 134 174 214 253 300
#
# _framework density 16.619997000000001
#
# number of rings (size 3 to 8) (size 9 to 14) (size 15 to 20)
#    0.000    2.429    1.429    3.429    0.000    2.857 
#    0.000    2.857    0.000    0.857    0.000    2.000 
#    0.000    0.000    0.000    0.000    0.000    0.000 
#
# Total GULP energy -312339.530026 kJ/mol
# GULP energy per Si atom -5577.491608 kJ/mol
# Density = 1.658217 g / cm^3
# Si number density = 16.619997 Si / 1000 Ang^3
#
#
#
# Elastic Constant Matrix: (Units=GPa)
#
#
# Indices 1 2 3 4 5 6 
#
# 1 12.2118 19.6087 9.7605 0.0000 0.0000 0.0000
# 2 19.6087 121.9865 36.5348 0.0000 0.0000 0.0000
# 3 9.7605 36.5348 79.0498 0.0000 0.0000 0.0000
# 4 0.0000 0.0000 0.0000 22.3558 0.0000 0.0000
# 5 0.0000 0.0000 0.0000 0.0000 17.3710 0.0000
# 6 0.0000 0.0000 0.0000 0.0000 0.0000 18.7655
#
#
#
# Elastic Compliance Matrix: (Units=1/GPa)
#
#
# Indices 1 2 3 4 5 6 
#
# 1 0.113149 -0.016254 -0.006459 0.000000 0.000000 0.000000
# 2 -0.016254 0.011849 -0.003470 0.000000 0.000000 0.000000
# 3 -0.006459 -0.003470 0.015051 0.000000 0.000000 0.000000
# 4 0.000000 0.000000 0.000000 0.044731 0.000000 0.000000
# 5 0.000000 0.000000 0.000000 0.000000 0.057567 0.000000
# 6 0.000000 0.000000 0.000000 0.000000 0.000000 0.053289
#
#
# Mechanical properties :
#
#
# Convention : Reuss Voigt Hill
#
# Bulk Modulus (GPa) = 11.40437 38.33959 24.87198
# Shear Modulus (GPa) = 13.25449 21.52139 17.38794
#
# Velocity S-wave (km/s) = 2.82707 3.60239 3.23802
# Velocity P-wave (km/s) = 4.18726 6.35778 5.38305
#
# Compressibility (1/GPa) = 0.08768565
#
# Stress axis : x y z
#
# Youngs Moduli (GPa) = 8.83789 84.39180 66.43935
#
# Poissons Ratio (x) = 1.37169 0.42912
# Poissons Ratio (y) = 0.14365 0.23052
# Poissons Ratio (z) = 0.05708 0.29281
#
# Static dielectric constant tensor:
#      x y z
#    x 1.553200 0.000000 0.000000 
#    y 0.000000 1.548780 0.000000 
#    z 0.000000 0.000000 1.553340 
# 
# From -- ./inp_files/33597.got.cif
#   From: 2010.05.17/outbox.cif.g08.bks.cpg/sg64_17_cif.got.tgz:33597.got - 2010.06.03 16:29:19.
