data_PCOD9481989
_publ_section_title
;
Structure prediction by ZEFSAII (Michael W. Deem and Ramdas Pophale) SiO2 
 PCOD9481989
Probable space group: C M C A
;
_chemical_formula_sum "Si O2"
_cell_formula_units_Z 96
_cell_length_a 26.061402
_cell_length_b 8.697848
_cell_length_c 22.190681
_cell_angle_alpha 90.000000
_cell_angle_beta 90.000000
_cell_angle_gamma 90.000000
_cell_volume 5030.141701
_symmetry_space_group_name_H-M "C M C A"
_symmetry_group_IT_number 64
_symmetry_cell_setting 'orthorhombic'
loop_
_space_group_symop_operation_xyz
x,y,z
-x,1/2-y,1/2+z
x,-y,-z
-x,1/2+y,1/2-z
-x,-y,-z
x,1/2+y,1/2-z
-x,y,z
x,1/2-y,1/2+z
1/2+x,1/2+y,z
1/2-x,-y,1/2+z
1/2+x,1/2-y,-z
1/2-x,y,1/2-z
1/2-x,1/2-y,-z
1/2+x,y,1/2-z
1/2-x,1/2+y,z
1/2+x,-y,1/2+z
loop_
_atom_site_type_symbol
_atom_site_label
_atom_site_fract_x
_atom_site_fract_y
_atom_site_fract_z
Si Si1 0.796605 0.840180 0.033364
Si Si2 0.215729 0.983321 0.842769
Si Si3 0.623955 0.071768 0.061599
Si Si4 0.314838 0.361445 0.346863
Si Si5 0.618700 0.567999 0.760958
Si Si6 0.939080 0.828247 0.676922
O O1 0.841640 0.717051 0.042022
O O2 0.784236 0.906139 0.099316
O O3 0.750000 0.750000 0.000000
O O4 0.810133 0.000000 0.000000
O O5 0.208660 0.805485 0.859547
O O6 0.272540 0.021843 0.818739
O O7 0.168317 0.024128 0.800267
O O8 0.583325 0.122714 0.112019
O O9 0.660560 0.947163 0.095651
O O10 0.602466 0.000000 0.000000
O O11 0.358057 0.338388 0.295872
O O12 0.581112 0.660831 0.804555
O O13 0.587407 0.434945 0.727531
O O14 0.000000 0.840189 0.678305
#
# Coordination Sequence:
#
# PCOD9481989 Si02
#       6
#    16  16  16  16  16  16
#     4  12  23  37  60  89 132 178 213 252 308 382
#     4  12  22  37  58  91 129 169 208 255 314 387
#     4  11  23  42  63  96 131 169 216 259 320 388
#     4  11  24  36  62  93 133 170 207 253 316 393
#     4  11  23  41  63  93 123 162 212 264 330 388
#     4  11  24  45  69  91 121 164 217 280 330 379
#
# _framework density 19.084949000000002
#
# number of rings (size 3 to 8) (size 9 to 14) (size 15 to 20)
#    0.000    0.667    3.333    6.500    2.333    1.667 
#    0.000    0.000    0.000    0.500    0.000    0.000 
#    0.000    0.000    0.000    0.000    0.000    0.000 
#
# Total GULP energy -268028.687992 kJ/mol
# GULP energy per Si atom -5583.931000 kJ/mol
# Density = 1.904151 g / cm^3
# Si number density = 19.084949 Si / 1000 Ang^3
#
#
#
# Elastic Constant Matrix: (Units=GPa)
#
#
# Indices 1 2 3 4 5 6 
#
# 1 103.2780 17.6986 61.9174 0.0000 0.0000 0.0000
# 2 17.6986 83.9619 52.7523 0.0000 0.0000 0.0000
# 3 61.9174 52.7523 132.9683 0.0000 0.0000 0.0000
# 4 0.0000 0.0000 0.0000 19.4109 0.0000 0.0000
# 5 0.0000 0.0000 0.0000 0.0000 22.6170 0.0000
# 6 0.0000 0.0000 0.0000 0.0000 0.0000 17.6407
#
#
#
# Elastic Compliance Matrix: (Units=1/GPa)
#
#
# Indices 1 2 3 4 5 6 
#
# 1 0.013569 0.001478 -0.006905 0.000000 0.000000 0.000000
# 2 0.001478 0.016026 -0.007046 0.000000 0.000000 0.000000
# 3 -0.006905 -0.007046 0.013531 0.000000 0.000000 0.000000
# 4 0.000000 0.000000 0.000000 0.051518 0.000000 0.000000
# 5 0.000000 0.000000 0.000000 0.000000 0.044215 0.000000
# 6 0.000000 0.000000 0.000000 0.000000 0.000000 0.056687
#
#
# Mechanical properties :
#
#
# Convention : Reuss Voigt Hill
#
# Bulk Modulus (GPa) = 55.00559 64.99388 59.99974
# Shear Modulus (GPa) = 22.07013 24.45636 23.26325
#
# Velocity S-wave (km/s) = 3.40430 3.58361 3.49511
# Velocity P-wave (km/s) = 6.65856 7.15905 6.91334
#
# Compressibility (1/GPa) = 0.01817997
#
# Stress axis : x y z
#
# Youngs Moduli (GPa) = 73.69803 62.40038 73.90339
#
# Poissons Ratio (x) = -0.09222 0.51029
# Poissons Ratio (y) = -0.10892 0.52072
# Poissons Ratio (z) = 0.50887 0.43967
#
# Static dielectric constant tensor:
#      x y z
#    x 1.652510 0.000000 0.000000 
#    y 0.000000 1.678270 0.000000 
#    z 0.000000 0.000000 1.720160 
# 
# From -- ./inp_files/41822.got.cif
#   From: 2010.05.17/outbox.cif.g08.bks.cpg/sg64_21_cif.got.tgz:41822.got - 2010.06.03 16:29:19.
