data_PCOD9481190
_publ_section_title
;
Structure prediction by ZEFSAII (Michael W. Deem and Ramdas Pophale) SiO2 
 PCOD9481190
Probable space group: C M C A
;
_chemical_formula_sum "Si O2"
_cell_formula_units_Z 112
_cell_length_a 14.520169
_cell_length_b 14.420714
_cell_length_c 25.733803
_cell_angle_alpha 90.000000
_cell_angle_beta 90.000000
_cell_angle_gamma 90.000000
_cell_volume 5388.432003
_symmetry_space_group_name_H-M "C M C A"
_symmetry_group_IT_number 64
_symmetry_cell_setting 'orthorhombic'
loop_
_space_group_symop_operation_xyz
x,y,z
-x,1/2-y,1/2+z
x,-y,-z
-x,1/2+y,1/2-z
-x,-y,-z
x,1/2+y,1/2-z
-x,y,z
x,1/2-y,1/2+z
1/2+x,1/2+y,z
1/2-x,-y,1/2+z
1/2+x,1/2-y,-z
1/2-x,y,1/2-z
1/2-x,1/2-y,-z
1/2+x,y,1/2-z
1/2-x,1/2+y,z
1/2+x,-y,1/2+z
loop_
_atom_site_type_symbol
_atom_site_label
_atom_site_fract_x
_atom_site_fract_y
_atom_site_fract_z
Si Si1 0.396087 0.884829 0.103310
Si Si2 0.389307 0.575956 0.849845
Si Si3 0.103736 0.076479 0.965847
Si Si4 0.769091 0.403816 0.689608
Si Si5 0.644025 0.276387 0.502795
Si Si6 0.739807 0.190452 0.809689
Si Si7 0.394586 0.098512 0.104669
O O1 0.500000 0.866585 0.122536
O O2 0.325734 0.864961 0.150517
O O3 0.391032 0.991851 0.086777
O O4 0.380735 0.825784 0.051059
O O5 0.500000 0.574736 0.844224
O O6 0.356063 0.582188 0.909286
O O7 0.342164 0.481762 0.828429
O O8 0.344316 0.669837 0.827640
O O9 0.098196 0.175840 0.991791
O O10 0.000000 0.041275 0.955811
O O11 0.154077 0.000000 0.000000
O O12 0.750000 0.425069 0.750000
O O13 0.797326 0.295423 0.688666
O O14 0.680206 0.400101 0.651215
O O15 0.750000 0.250000 0.500000
O O16 0.625394 0.335921 0.554951
O O17 0.750000 0.159631 0.750000
O O18 0.500000 0.118370 0.122242
#
# Coordination Sequence:
#
# PCOD9481190 Si02
#       7
#    16  16  16  16  16  16  16
#     4  11  24  42  69 101 136 180 232 287 349 423
#     4  11  24  44  70  99 135 179 228 286 352 420
#     4  10  23  40  60  89 128 169 212 265 329 401
#     4  11  25  45  69 100 138 179 236 294 350 421
#     4  12  25  39  65 100 138 181 223 283 345 419
#     4  11  25  46  68  99 137 178 232 293 350 421
#     4  11  24  43  69  98 138 182 229 285 351 424
#
# _framework density 20.785267000000001
#
# number of rings (size 3 to 8) (size 9 to 14) (size 15 to 20)
#    0.000    1.000    1.429    4.714    4.000    4.571 
#    0.000    2.857    0.000    0.000    0.000    0.000 
#    0.000    0.000    0.000    0.000    0.000    0.000 
#
# Total GULP energy -312319.129227 kJ/mol
# GULP energy per Si atom -5577.127308 kJ/mol
# Density = 2.073796 g / cm^3
# Si number density = 20.785267 Si / 1000 Ang^3
#
#
#
# Elastic Constant Matrix: (Units=GPa)
#
#
# Indices 1 2 3 4 5 6 
#
# 1 109.9933 12.7010 27.9008 0.0000 0.0000 0.0000
# 2 12.7010 98.0421 33.8392 0.0000 0.0000 0.0000
# 3 27.9008 33.8392 131.1747 0.0000 0.0000 0.0000
# 4 0.0000 0.0000 0.0000 38.8337 0.0000 0.0000
# 5 0.0000 0.0000 0.0000 0.0000 4.7691 0.0000
# 6 0.0000 0.0000 0.0000 0.0000 0.0000 40.2101
#
#
#
# Elastic Compliance Matrix: (Units=1/GPa)
#
#
# Indices 1 2 3 4 5 6 
#
# 1 0.009641 -0.000594 -0.001897 0.000000 0.000000 0.000000
# 2 -0.000594 0.011233 -0.002771 0.000000 0.000000 0.000000
# 3 -0.001897 -0.002771 0.008742 0.000000 0.000000 0.000000
# 4 0.000000 0.000000 0.000000 0.025751 0.000000 0.000000
# 5 0.000000 0.000000 0.000000 0.000000 0.209683 0.000000
# 6 0.000000 0.000000 0.000000 0.000000 0.000000 0.024869
#
#
# Mechanical properties :
#
#
# Convention : Reuss Voigt Hill
#
# Bulk Modulus (GPa) = 52.38207 54.23248 53.30727
# Shear Modulus (GPa) = 16.29679 34.41386 25.35532
#
# Velocity S-wave (km/s) = 2.80314 4.07343 3.49645
# Velocity P-wave (km/s) = 5.97771 6.94782 6.48094
#
# Compressibility (1/GPa) = 0.01909050
#
# Stress axis : x y z
#
# Youngs Moduli (GPa) = 103.71968 89.02154 114.39066
#
# Poissons Ratio (x) = 0.05289 0.21705
# Poissons Ratio (y) = 0.06162 0.31703
# Poissons Ratio (z) = 0.19680 0.24672
#
# Static dielectric constant tensor:
#      x y z
#    x 1.776640 0.000000 0.000000 
#    y 0.000000 1.779940 0.000000 
#    z 0.000000 0.000000 1.653000 
# 
# From -- ./inp_files/45243.got.cif
#   From: 2010.05.17/outbox.cif.g08.bks.cpg/sg64_23_cif.got.tgz:45243.got - 2010.06.03 16:29:19.
