data_PCOD9481918
_publ_section_title
;
Structure prediction by ZEFSAII (Michael W. Deem and Ramdas Pophale) SiO2 
 PCOD9481918
Probable space group: C M C A
;
_chemical_formula_sum "Si O2"
_cell_formula_units_Z 88
_cell_length_a 15.082250
_cell_length_b 11.519504
_cell_length_c 21.844365
_cell_angle_alpha 90.000000
_cell_angle_beta 90.000000
_cell_angle_gamma 90.000000
_cell_volume 3795.240831
_symmetry_space_group_name_H-M "C M C A"
_symmetry_group_IT_number 64
_symmetry_cell_setting 'orthorhombic'
loop_
_space_group_symop_operation_xyz
x,y,z
-x,1/2-y,1/2+z
x,-y,-z
-x,1/2+y,1/2-z
-x,-y,-z
x,1/2+y,1/2-z
-x,y,z
x,1/2-y,1/2+z
1/2+x,1/2+y,z
1/2-x,-y,1/2+z
1/2+x,1/2-y,-z
1/2-x,y,1/2-z
1/2-x,1/2-y,-z
1/2+x,y,1/2-z
1/2-x,1/2+y,z
1/2+x,-y,1/2+z
loop_
_atom_site_type_symbol
_atom_site_label
_atom_site_fract_x
_atom_site_fract_y
_atom_site_fract_z
Si Si1 0.157598 0.909698 0.651612
Si Si2 0.000000 0.630783 0.228579
Si Si3 0.903810 0.174771 0.467935
Si Si4 0.638295 0.397018 0.836700
Si Si5 0.660019 0.575985 0.939788
Si Si6 0.352269 0.853323 0.105620
O O1 0.166046 0.878554 0.579418
O O2 0.256256 0.904201 0.677640
O O3 0.080876 0.832575 0.680906
O O4 0.120823 0.041630 0.650270
O O5 0.077564 0.590726 0.277837
O O6 0.895188 0.313209 0.461914
O O7 0.892011 0.139740 0.537926
O O8 0.000000 0.133346 0.447829
O O9 0.618378 0.492240 0.888756
O O10 0.624493 0.268873 0.864687
O O11 0.747805 0.628903 0.907571
O O12 0.680598 0.500000 0.000000
#
# Coordination Sequence:
#
# PCOD9481918 Si02
#       6
#    16   8  16  16  16  16
#     4  11  25  49  69 104 138 184 237 287 349 414
#     4  12  28  50  68  94 140 183 249 290 327 411
#     4  12  24  40  73 108 143 179 222 292 359 424
#     4  11  25  47  72 101 140 186 232 289 349 411
#     4  11  22  42  73 103 146 179 221 284 357 429
#     4  11  23  43  73 105 139 178 224 284 359 427
#
# _framework density 23.186935999999999
#
# number of rings (size 3 to 8) (size 9 to 14) (size 15 to 20)
#    0.000    0.727    4.545    3.818    3.818    1.091 
#    6.545    1.818    0.000    0.000    0.000    0.000 
#    0.000    0.000    0.000    0.000    0.000    0.000 
#
# Total GULP energy -245066.905741 kJ/mol
# GULP energy per Si atom -5569.702403 kJ/mol
# Density = 2.313416 g / cm^3
# Si number density = 23.186936 Si / 1000 Ang^3
#
#
#
# Elastic Constant Matrix: (Units=GPa)
#
#
# Indices 1 2 3 4 5 6 
#
# 1 114.4428 -4.1709 8.6746 0.0000 0.0000 0.0000
# 2 -4.1709 74.8737 -4.7414 0.0000 0.0000 0.0000
# 3 8.6746 -4.7414 82.3388 0.0000 0.0000 0.0000
# 4 0.0000 0.0000 0.0000 8.1538 0.0000 0.0000
# 5 0.0000 0.0000 0.0000 0.0000 42.5659 0.0000
# 6 0.0000 0.0000 0.0000 0.0000 0.0000 -2.8777
#
#
#
# Elastic Compliance Matrix: (Units=1/GPa)
#
#
# Indices 1 2 3 4 5 6 
#
# 1 0.008822 0.000434 -0.000904 0.000000 0.000000 0.000000
# 2 0.000434 0.013426 0.000727 0.000000 0.000000 0.000000
# 3 -0.000904 0.000727 0.012282 0.000000 0.000000 0.000000
# 4 0.000000 0.000000 0.000000 0.122642 0.000000 0.000000
# 5 0.000000 0.000000 0.000000 0.000000 0.023493 0.000000
# 6 0.000000 0.000000 0.000000 0.000000 0.000000 -0.347499
#
#
# Mechanical properties :
#
#
# Convention : Reuss Voigt Hill
#
# Bulk Modulus (GPa) = 28.53492 30.13110 29.33301
# Shear Modulus (GPa) = -32.11997 27.69462 -2.21267
#
# Velocity S-wave (km/s) = -3.72595 3.45977 -0.97793
# Velocity P-wave (km/s) = 2.48537 5.38359 3.37683
#
# Compressibility (1/GPa) = 0.03504478
#
# Stress axis : x y z
#
# Youngs Moduli (GPa) = 113.34827 74.48199 81.41923
#
# Poissons Ratio (x) = -0.03234 0.07364
# Poissons Ratio (y) = -0.04921 -0.05922
# Poissons Ratio (z) = 0.10252 -0.05418
#
# Static dielectric constant tensor:
#      x y z
#    x 1.893050 0.000000 0.000000 
#    y 0.000000 1.920980 0.000000 
#    z 0.000000 0.000000 1.883120 
# 
# From -- ./inp_files/45037.got.cif
#   From: 2010.05.17/outbox.cif.g08.bks.cpg/sg64_23_cif.got.tgz:45037.got - 2010.06.03 16:29:19.
