data_PCOD9481759
_publ_section_title
;
Structure prediction by ZEFSAII (Michael W. Deem and Ramdas Pophale) SiO2 
 PCOD9481759
Probable space group: C M C A
;
_chemical_formula_sum "Si O2"
_cell_formula_units_Z 116
_cell_length_a 26.883051
_cell_length_b 13.972883
_cell_length_c 16.452143
_cell_angle_alpha 90.000000
_cell_angle_beta 90.000000
_cell_angle_gamma 90.000000
_cell_volume 6179.979781
_symmetry_space_group_name_H-M "C M C A"
_symmetry_group_IT_number 64
_symmetry_cell_setting 'orthorhombic'
loop_
_space_group_symop_operation_xyz
x,y,z
-x,1/2-y,1/2+z
x,-y,-z
-x,1/2+y,1/2-z
-x,-y,-z
x,1/2+y,1/2-z
-x,y,z
x,1/2-y,1/2+z
1/2+x,1/2+y,z
1/2-x,-y,1/2+z
1/2+x,1/2-y,-z
1/2-x,y,1/2-z
1/2-x,1/2-y,-z
1/2+x,y,1/2-z
1/2-x,1/2+y,z
1/2+x,-y,1/2+z
loop_
_atom_site_type_symbol
_atom_site_label
_atom_site_fract_x
_atom_site_fract_y
_atom_site_fract_z
Si Si1 0.500000 0.500000 0.000000
Si Si2 0.945787 0.170817 0.093047
Si Si3 0.629514 0.906054 0.710773
Si Si4 0.845397 0.058539 0.915523
Si Si5 0.761492 0.076434 0.657911
Si Si6 0.779810 0.705897 0.372335
Si Si7 0.175397 0.591119 0.117502
Si Si8 0.143248 0.249626 0.492534
O O1 0.457540 0.573999 0.040090
O O2 0.920325 0.143467 0.178189
O O3 0.000000 0.216772 0.102380
O O4 0.904566 0.234985 0.048835
O O5 0.678541 0.851884 0.676840
O O6 0.638415 0.906449 0.805912
O O7 0.630394 0.006097 0.661664
O O8 0.787036 0.060447 0.895780
O O9 0.862253 0.167894 0.924585
O O10 0.851994 0.000000 0.000000
O O11 0.750000 0.041330 0.750000
O O12 0.773274 0.188094 0.662132
O O13 0.805416 0.017187 0.616171
O O14 0.727208 0.651541 0.371053
O O15 0.806284 0.720089 0.459802
O O16 0.149635 0.644844 0.043309
#
# Coordination Sequence:
#
# PCOD9481759 Si02
#       8
#     4  16  16  16  16  16  16  16
#     4   8  16  36  68  88 116 126 196 262 312 352
#     4   9  19  37  60  88 105 142 188 253 306 349
#     4  11  21  36  56  84 120 153 191 241 300 348
#     4  12  20  34  56  81 117 154 200 233 284 340
#     4  12  23  35  49  79 121 169 197 234 274 342
#     4  11  22  36  54  79 120 163 202 233 276 343
#     4  12  22  36  51  84 123 163 194 233 288 350
#     4  11  23  37  57  89 118 156 197 246 296 353
#
# _framework density 18.770288000000001
#
# number of rings (size 3 to 8) (size 9 to 14) (size 15 to 20)
#    0.414    0.552    6.897    2.483    1.931    0.000 
#    0.000    0.690    0.000    0.000    0.000    7.724 
#    0.000    0.000    0.000    0.000    0.000    0.000 
#
# Total GULP energy -323027.350764 kJ/mol
# GULP energy per Si atom -5569.437082 kJ/mol
# Density = 1.872757 g / cm^3
# Si number density = 18.770288 Si / 1000 Ang^3
#
#
#
# Elastic Constant Matrix: (Units=GPa)
#
#
# Indices 1 2 3 4 5 6 
#
# 1 101.7940 7.9870 27.1318 0.0000 0.0000 0.0000
# 2 7.9870 60.6331 8.2240 0.0000 0.0000 0.0000
# 3 27.1318 8.2240 57.7807 0.0000 0.0000 0.0000
# 4 0.0000 0.0000 0.0000 22.1311 0.0000 0.0000
# 5 0.0000 0.0000 0.0000 0.0000 18.9431 0.0000
# 6 0.0000 0.0000 0.0000 0.0000 0.0000 16.2633
#
#
#
# Elastic Compliance Matrix: (Units=1/GPa)
#
#
# Indices 1 2 3 4 5 6 
#
# 1 0.011265 -0.000782 -0.005179 0.000000 0.000000 0.000000
# 2 -0.000782 0.016872 -0.002034 0.000000 0.000000 0.000000
# 3 -0.005179 -0.002034 0.020028 0.000000 0.000000 0.000000
# 4 0.000000 0.000000 0.000000 0.045185 0.000000 0.000000
# 5 0.000000 0.000000 0.000000 0.000000 0.052790 0.000000
# 6 0.000000 0.000000 0.000000 0.000000 0.000000 0.061488
#
#
# Mechanical properties :
#
#
# Convention : Reuss Voigt Hill
#
# Bulk Modulus (GPa) = 31.07910 34.09926 32.58918
# Shear Modulus (GPa) = 21.33632 23.25851 22.29742
#
# Velocity S-wave (km/s) = 3.37517 3.52392 3.45035
# Velocity P-wave (km/s) = 5.63760 5.89605 5.76827
#
# Compressibility (1/GPa) = 0.03217596
#
# Stress axis : x y z
#
# Youngs Moduli (GPa) = 88.76763 59.27151 49.92994
#
# Poissons Ratio (x) = 0.04632 0.25857
# Poissons Ratio (y) = 0.06938 0.10158
# Poissons Ratio (z) = 0.45969 0.12058
#
# Static dielectric constant tensor:
#      x y z
#    x 1.645670 0.000000 0.000000 
#    y 0.000000 1.703310 0.000000 
#    z 0.000000 0.000000 1.679770 
# 
# From -- ./inp_files/35560.got.cif
#   From: 2010.05.17/outbox.cif.g08.bks.cpg/sg64_18_cif.got.tgz:35560.got - 2010.06.03 16:29:19.
