data_PCOD9481216
_publ_section_title
;
Structure prediction by ZEFSAII (Michael W. Deem and Ramdas Pophale) SiO2 
 PCOD9481216
Probable space group: C M C A
;
_chemical_formula_sum "Si O2"
_cell_formula_units_Z 104
_cell_length_a 27.104661
_cell_length_b 19.316593
_cell_length_c 9.420401
_cell_angle_alpha 90.000000
_cell_angle_beta 90.000000
_cell_angle_gamma 90.000000
_cell_volume 4932.236572
_symmetry_space_group_name_H-M "C M C A"
_symmetry_group_IT_number 64
_symmetry_cell_setting 'orthorhombic'
loop_
_space_group_symop_operation_xyz
x,y,z
-x,1/2-y,1/2+z
x,-y,-z
-x,1/2+y,1/2-z
-x,-y,-z
x,1/2+y,1/2-z
-x,y,z
x,1/2-y,1/2+z
1/2+x,1/2+y,z
1/2-x,-y,1/2+z
1/2+x,1/2-y,-z
1/2-x,y,1/2-z
1/2-x,1/2-y,-z
1/2+x,y,1/2-z
1/2-x,1/2+y,z
1/2+x,-y,1/2+z
loop_
_atom_site_type_symbol
_atom_site_label
_atom_site_fract_x
_atom_site_fract_y
_atom_site_fract_z
Si Si1 0.611614 0.286873 0.455970
Si Si2 0.946058 0.627452 0.168543
Si Si3 0.614176 0.404599 0.246104
Si Si4 0.442249 0.860596 0.513666
Si Si5 0.727030 0.691397 0.593525
Si Si6 0.914220 0.000000 0.500000
Si Si7 0.781501 0.442957 0.383335
O O1 0.595557 0.323676 0.602355
O O2 0.593409 0.335179 0.325246
O O3 0.589564 0.210279 0.468655
O O4 0.669344 0.295258 0.425942
O O5 0.937805 0.606559 0.330376
O O6 0.000000 0.662158 0.159410
O O7 0.945220 0.559901 0.072484
O O8 0.578953 0.409085 0.109741
O O9 0.614285 0.462632 0.369835
O O10 0.669487 0.405962 0.180607
O O11 0.500000 0.844744 0.488412
O O12 0.750000 0.699242 0.750000
O O13 0.750000 0.750000 0.500000
O O14 0.745808 0.615366 0.548990
O O15 0.794489 0.500000 0.500000
O O16 0.750000 0.471908 0.250000
#
# Coordination Sequence:
#
# PCOD9481216 Si02
#       7
#    16  16  16  16  16   8  16
#     4  11  22  42  69  94 138 175 225 288 351 419
#     4  10  23  41  63  95 130 175 230 277 345 419
#     4  11  24  45  67 103 140 183 233 290 351 427
#     4  11  25  42  69 104 137 179 233 295 356 426
#     4  11  24  44  65 100 136 179 233 287 356 424
#     4  10  25  42  70  90 136 184 230 278 349 418
#     4  11  25  45  70 102 142 186 241 297 359 432
#
# _framework density 21.085768000000002
#
# number of rings (size 3 to 8) (size 9 to 14) (size 15 to 20)
#    0.000    1.231    3.077    2.538    5.385    5.538 
#    0.000    1.538    0.000    0.000    0.000    0.000 
#    0.000    0.000    0.000    0.000    0.000    0.000 
#
# Total GULP energy -289981.475014 kJ/mol
# GULP energy per Si atom -5576.566827 kJ/mol
# Density = 2.103778 g / cm^3
# Si number density = 21.085768 Si / 1000 Ang^3
#
#
#
# Elastic Constant Matrix: (Units=GPa)
#
#
# Indices 1 2 3 4 5 6 
#
# 1 124.3816 19.0627 53.9490 0.0000 0.0000 0.0000
# 2 19.0627 65.6726 36.3845 0.0000 0.0000 0.0000
# 3 53.9490 36.3845 121.3087 0.0000 0.0000 0.0000
# 4 0.0000 0.0000 0.0000 35.0660 0.0000 0.0000
# 5 0.0000 0.0000 0.0000 0.0000 31.4892 0.0000
# 6 0.0000 0.0000 0.0000 0.0000 0.0000 18.1991
#
#
#
# Elastic Compliance Matrix: (Units=1/GPa)
#
#
# Indices 1 2 3 4 5 6 
#
# 1 0.009976 -0.000525 -0.004279 0.000000 0.000000 0.000000
# 2 -0.000525 0.018289 -0.005252 0.000000 0.000000 0.000000
# 3 -0.004279 -0.005252 0.011722 0.000000 0.000000 0.000000
# 4 0.000000 0.000000 0.000000 0.028518 0.000000 0.000000
# 5 0.000000 0.000000 0.000000 0.000000 0.031757 0.000000
# 6 0.000000 0.000000 0.000000 0.000000 0.000000 0.054948
#
#
# Mechanical properties :
#
#
# Convention : Reuss Voigt Hill
#
# Bulk Modulus (GPa) = 50.31520 58.90614 54.61067
# Shear Modulus (GPa) = 27.48051 30.41530 28.94791
#
# Velocity S-wave (km/s) = 3.61400 3.80209 3.70924
# Velocity P-wave (km/s) = 6.42874 6.87543 6.65583
#
# Compressibility (1/GPa) = 0.01987471
#
# Stress axis : x y z
#
# Youngs Moduli (GPa) = 100.23749 54.67700 85.31117
#
# Poissons Ratio (x) = 0.02870 0.36507
# Poissons Ratio (y) = 0.05262 0.44806
# Poissons Ratio (z) = 0.42894 0.28717
#
# Static dielectric constant tensor:
#      x y z
#    x 1.815030 0.000000 0.000000 
#    y 0.000000 1.764540 0.000000 
#    z 0.000000 0.000000 2.638370 
# 
# From -- ./inp_files/10453.got.cif
#   From: 2010.05.17/outbox.cif.g08.bks.cpg/sg64_6_cif.got.tgz:10453.got - 2010.06.03 16:29:19.
