data_PCOD9481268
_publ_section_title
;
Structure prediction by ZEFSAII (Michael W. Deem and Ramdas Pophale) SiO2 
 PCOD9481268
Probable space group: C M C A
;
_chemical_formula_sum "Si O2"
_cell_formula_units_Z 80
_cell_length_a 8.741039
_cell_length_b 24.702235
_cell_length_c 19.036334
_cell_angle_alpha 90.000000
_cell_angle_beta 90.000000
_cell_angle_gamma 90.000000
_cell_volume 4110.386144
_symmetry_space_group_name_H-M "C M C A"
_symmetry_group_IT_number 64
_symmetry_cell_setting 'orthorhombic'
loop_
_space_group_symop_operation_xyz
x,y,z
-x,1/2-y,1/2+z
x,-y,-z
-x,1/2+y,1/2-z
-x,-y,-z
x,1/2+y,1/2-z
-x,y,z
x,1/2-y,1/2+z
1/2+x,1/2+y,z
1/2-x,-y,1/2+z
1/2+x,1/2-y,-z
1/2-x,y,1/2-z
1/2-x,1/2-y,-z
1/2+x,y,1/2-z
1/2-x,1/2+y,z
1/2+x,-y,1/2+z
loop_
_atom_site_type_symbol
_atom_site_label
_atom_site_fract_x
_atom_site_fract_y
_atom_site_fract_z
Si Si1 0.318178 0.090183 0.395788
Si Si2 0.682655 0.302720 0.672259
Si Si3 0.317253 0.906702 0.046411
Si Si4 0.316648 0.485575 0.324763
Si Si5 0.317063 0.719879 0.568079
O O1 0.500000 0.094220 0.389492
O O2 0.242449 0.146915 0.373812
O O3 0.269801 0.077313 0.475600
O O4 0.254084 0.043281 0.345791
O O5 0.500000 0.303372 0.673937
O O6 0.750000 0.308016 0.750000
O O7 0.743031 0.248391 0.635328
O O8 0.500000 0.911969 0.033282
O O9 0.284575 0.843889 0.062914
O O10 0.278296 0.943949 0.112712
O O11 0.500000 0.489979 0.320535
O O12 0.250000 0.467964 0.250000
O O13 0.500000 0.727132 0.569712
O O14 0.250000 0.750000 0.500000
#
# Coordination Sequence:
#
# PCOD9481268 Si02
#       5
#    16  16  16  16  16
#     4  12  24  40  65  95 126 163 211 264 316 380
#     4  12  25  42  64  93 129 168 212 265 321 380
#     4  10  23  42  66  93 127 168 210 257 313 377
#     4  11  24  43  64  90 127 168 209 259 316 376
#     4  11  22  40  65  95 128 168 211 257 313 374
#
# _framework density 19.462890999999999
#
# number of rings (size 3 to 8) (size 9 to 14) (size 15 to 20)
#    0.000    0.800    2.000    6.000    0.000    5.600 
#    0.000    2.000    0.000    0.000    0.000    0.000 
#    0.000    0.000    0.000    0.000    0.000    0.000 
#
# Total GULP energy -223914.033124 kJ/mol
# GULP energy per Si atom -5597.850828 kJ/mol
# Density = 1.941859 g / cm^3
# Si number density = 19.462891 Si / 1000 Ang^3
#
#
#
# Elastic Constant Matrix: (Units=GPa)
#
#
# Indices 1 2 3 4 5 6 
#
# 1 96.3607 24.9314 43.2054 0.0000 0.0000 0.0000
# 2 24.9314 39.2009 4.8867 0.0000 0.0000 0.0000
# 3 43.2054 4.8867 113.0195 0.0000 0.0000 0.0000
# 4 0.0000 0.0000 0.0000 30.8923 0.0000 0.0000
# 5 0.0000 0.0000 0.0000 0.0000 41.2446 0.0000
# 6 0.0000 0.0000 0.0000 0.0000 0.0000 19.9052
#
#
#
# Elastic Compliance Matrix: (Units=1/GPa)
#
#
# Indices 1 2 3 4 5 6 
#
# 1 0.015105 -0.008935 -0.005388 0.000000 0.000000 0.000000
# 2 -0.008935 0.030933 0.002078 0.000000 0.000000 0.000000
# 3 -0.005388 0.002078 0.010818 0.000000 0.000000 0.000000
# 4 0.000000 0.000000 0.000000 0.032371 0.000000 0.000000
# 5 0.000000 0.000000 0.000000 0.000000 0.024246 0.000000
# 6 0.000000 0.000000 0.000000 0.000000 0.000000 0.050238
#
#
# Mechanical properties :
#
#
# Convention : Reuss Voigt Hill
#
# Bulk Modulus (GPa) = 30.89625 43.84757 37.37191
# Shear Modulus (GPa) = 25.12691 30.11225 27.61958
#
# Velocity S-wave (km/s) = 3.59697 3.93767 3.77117
# Velocity P-wave (km/s) = 5.75846 6.57657 6.18107
#
# Compressibility (1/GPa) = 0.03236639
#
# Stress axis : x y z
#
# Youngs Moduli (GPa) = 66.20152 32.32771 92.43862
#
# Poissons Ratio (x) = 0.28885 0.49808
# Poissons Ratio (y) = 0.59152 -0.19211
# Poissons Ratio (z) = 0.35671 -0.06719
#
# Static dielectric constant tensor:
#      x y z
#    x 1.648660 0.000000 0.000000 
#    y 0.000000 1.659900 0.000000 
#    z 0.000000 0.000000 1.898580 
# 
# From -- ./inp_files/29829.got.cif
#   From: 2010.05.17/outbox.cif.g08.bks.cpg/sg64_15_cif.got.tgz:29829.got - 2010.06.03 16:29:19.
