data_PCOD9481250
_publ_section_title
;
Structure prediction by ZEFSAII (Michael W. Deem and Ramdas Pophale) SiO2 
 PCOD9481250
Probable space group: C M C A
;
_chemical_formula_sum "Si O2"
_cell_formula_units_Z 104
_cell_length_a 24.716713
_cell_length_b 10.501692
_cell_length_c 19.279736
_cell_angle_alpha 90.000000
_cell_angle_beta 90.000000
_cell_angle_gamma 90.000000
_cell_volume 5004.389157
_symmetry_space_group_name_H-M "C M C A"
_symmetry_group_IT_number 64
_symmetry_cell_setting 'orthorhombic'
loop_
_space_group_symop_operation_xyz
x,y,z
-x,1/2-y,1/2+z
x,-y,-z
-x,1/2+y,1/2-z
-x,-y,-z
x,1/2+y,1/2-z
-x,y,z
x,1/2-y,1/2+z
1/2+x,1/2+y,z
1/2-x,-y,1/2+z
1/2+x,1/2-y,-z
1/2-x,y,1/2-z
1/2-x,1/2-y,-z
1/2+x,y,1/2-z
1/2-x,1/2+y,z
1/2+x,-y,1/2+z
loop_
_atom_site_type_symbol
_atom_site_label
_atom_site_fract_x
_atom_site_fract_y
_atom_site_fract_z
Si Si1 0.133087 0.758877 0.956154
Si Si2 0.314881 0.047983 0.357443
Si Si3 0.865103 0.351256 0.272862
Si Si4 0.283811 0.038958 0.921621
Si Si5 0.437123 0.602783 0.637207
Si Si6 0.250000 0.774160 0.750000
Si Si7 0.876690 0.652375 0.108543
O O1 0.155614 0.887861 0.923119
O O2 0.178598 0.660551 0.928009
O O3 0.078692 0.708510 0.919771
O O4 0.126726 0.735138 0.038013
O O5 0.275605 0.137549 0.311142
O O6 0.360692 0.988208 0.309277
O O7 0.273069 0.942385 0.385345
O O8 0.900303 0.364103 0.204027
O O9 0.802633 0.313742 0.260247
O O10 0.885458 0.244164 0.326399
O O11 0.320319 0.927057 0.888237
O O12 0.271923 0.000000 0.000000
O O13 0.500000 0.604301 0.654238
O O14 0.419777 0.463295 0.608148
#
# Coordination Sequence:
#
# PCOD9481250 Si02
#       7
#    16  16  16  16  16   8  16
#     4  10  23  42  63  97 130 165 225 269 323 391
#     4  12  23  35  62  93 137 179 210 261 323 391
#     4  12  25  39  63 100 134 176 214 262 330 389
#     4   9  20  35  58  89 130 175 211 251 306 384
#     4  11  25  47  70  90 120 168 228 280 325 384
#     4  12  22  40  60  90 142 182 224 250 306 396
#     4  10  23  43  64  95 131 164 218 274 319 389
#
# _framework density 20.781756000000001
#
# number of rings (size 3 to 8) (size 9 to 14) (size 15 to 20)
#    0.000    1.231    3.077    3.692    6.462    3.077 
#    0.000    0.000    0.000    0.000    0.000    3.231 
#    0.000    0.000    0.000    0.000    0.000    0.000 
#
# Total GULP energy -290274.610396 kJ/mol
# GULP energy per Si atom -5582.204046 kJ/mol
# Density = 2.073446 g / cm^3
# Si number density = 20.781756 Si / 1000 Ang^3
#
#
#
# Elastic Constant Matrix: (Units=GPa)
#
#
# Indices 1 2 3 4 5 6 
#
# 1 84.5640 11.2374 17.2659 0.0000 0.0000 0.0000
# 2 11.2374 21.9691 9.6012 0.0000 0.0000 0.0000
# 3 17.2659 9.6012 50.3206 0.0000 0.0000 0.0000
# 4 0.0000 0.0000 0.0000 19.0246 0.0000 0.0000
# 5 0.0000 0.0000 0.0000 0.0000 18.2659 0.0000
# 6 0.0000 0.0000 0.0000 0.0000 0.0000 11.3032
#
#
#
# Elastic Compliance Matrix: (Units=1/GPa)
#
#
# Indices 1 2 3 4 5 6 
#
# 1 0.013244 -0.005224 -0.003547 0.000000 0.000000 0.000000
# 2 -0.005224 0.051720 -0.008076 0.000000 0.000000 0.000000
# 3 -0.003547 -0.008076 0.022631 0.000000 0.000000 0.000000
# 4 0.000000 0.000000 0.000000 0.052564 0.000000 0.000000
# 5 0.000000 0.000000 0.000000 0.000000 0.054747 0.000000
# 6 0.000000 0.000000 0.000000 0.000000 0.000000 0.088471
#
#
# Mechanical properties :
#
#
# Convention : Reuss Voigt Hill
#
# Bulk Modulus (GPa) = 18.55290 25.89587 22.22438
# Shear Modulus (GPa) = 14.92375 17.63535 16.27955
#
# Velocity S-wave (km/s) = 2.68268 2.91623 2.80189
# Velocity P-wave (km/s) = 4.30611 4.88130 4.60270
#
# Compressibility (1/GPa) = 0.05389993
#
# Stress axis : x y z
#
# Youngs Moduli (GPa) = 75.50669 19.33493 44.18786
#
# Poissons Ratio (x) = 0.10100 0.15676
# Poissons Ratio (y) = 0.39444 0.35685
# Poissons Ratio (z) = 0.26786 0.15614
#
# Static dielectric constant tensor:
#      x y z
#    x 1.718800 0.000000 0.000000 
#    y 0.000000 1.819340 0.000000 
#    z 0.000000 0.000000 1.812820 
# 
# From -- ./inp_files/35491.got.cif
#   From: 2010.05.17/outbox.cif.g08.bks.cpg/sg64_18_cif.got.tgz:35491.got - 2010.06.03 16:29:19.
