data_PCOD9481483
_publ_section_title
;
Structure prediction by ZEFSAII (Michael W. Deem and Ramdas Pophale) SiO2 
 PCOD9481483
Probable space group: C M C A
;
_chemical_formula_sum "Si O2"
_cell_formula_units_Z 104
_cell_length_a 14.966787
_cell_length_b 20.561928
_cell_length_c 15.295595
_cell_angle_alpha 90.000000
_cell_angle_beta 90.000000
_cell_angle_gamma 90.000000
_cell_volume 4707.158128
_symmetry_space_group_name_H-M "C M C A"
_symmetry_group_IT_number 64
_symmetry_cell_setting 'orthorhombic'
loop_
_space_group_symop_operation_xyz
x,y,z
-x,1/2-y,1/2+z
x,-y,-z
-x,1/2+y,1/2-z
-x,-y,-z
x,1/2+y,1/2-z
-x,y,z
x,1/2-y,1/2+z
1/2+x,1/2+y,z
1/2-x,-y,1/2+z
1/2+x,1/2-y,-z
1/2-x,y,1/2-z
1/2-x,1/2-y,-z
1/2+x,y,1/2-z
1/2-x,1/2+y,z
1/2+x,-y,1/2+z
loop_
_atom_site_type_symbol
_atom_site_label
_atom_site_fract_x
_atom_site_fract_y
_atom_site_fract_z
Si Si1 0.770490 0.435132 0.039463
Si Si2 0.154979 0.375721 0.713068
Si Si3 0.000000 0.759890 0.006286
Si Si4 0.400798 0.989503 0.359491
Si Si5 0.500000 0.208415 0.811815
Si Si6 0.500000 0.174653 0.181366
Si Si7 0.809776 0.191655 0.041495
Si Si8 0.151591 0.391157 0.214098
O O1 0.677773 0.460842 0.081782
O O2 0.834799 0.409141 0.114077
O O3 0.812017 0.500000 0.000000
O O4 0.742463 0.374741 0.980164
O O5 0.250000 0.397571 0.750000
O O6 0.112556 0.434064 0.656756
O O7 0.172598 0.314988 0.646329
O O8 0.090300 0.363897 0.795806
O O9 0.908096 0.801414 0.002488
O O10 0.000000 0.719130 0.915761
O O11 0.000000 0.712588 0.090170
O O12 0.500000 0.976398 0.393406
O O13 0.387086 0.951725 0.268069
O O14 0.500000 0.275299 0.761698
O O15 0.585440 0.168452 0.780004
O O16 0.750000 0.250000 0.000000
O O17 0.250000 0.375372 0.250000
#
# Coordination Sequence:
#
# PCOD9481483 Si02
#       8
#    16  16   8  16   8   8  16  16
#     4  11  24  41  68 103 141 185 235 296 359 420
#     4  12  24  46  72 100 144 184 234 296 362 428
#     4  12  28  48  67 101 143 186 243 288 355 439
#     4  11  23  44  70 103 135 181 237 296 362 423
#     4  12  24  49  71 100 145 190 238 296 358 425
#     4  12  28  45  70 104 138 192 236 291 358 428
#     4  12  26  46  69 105 144 189 239 297 354 431
#     4  10  24  43  70 100 136 184 232 293 354 434
#
# _framework density 22.094010999999998
#
# number of rings (size 3 to 8) (size 9 to 14) (size 15 to 20)
#    0.000    0.615    4.615    3.231    5.385    0.923 
#    0.000    0.385    0.000    0.000    0.000    0.000 
#    0.000    0.000    0.000    0.000    0.000    0.000 
#
# Total GULP energy -290741.083940 kJ/mol
# GULP energy per Si atom -5591.174691 kJ/mol
# Density = 2.204372 g / cm^3
# Si number density = 22.094011 Si / 1000 Ang^3
#
#
#
# Elastic Constant Matrix: (Units=GPa)
#
#
# Indices 1 2 3 4 5 6 
#
# 1 59.9537 -10.6579 -17.4037 0.0000 0.0000 0.0000
# 2 -10.6579 46.2532 -6.3757 0.0000 0.0000 0.0000
# 3 -17.4037 -6.3757 56.3135 0.0000 0.0000 0.0000
# 4 0.0000 0.0000 0.0000 29.0466 0.0000 0.0000
# 5 0.0000 0.0000 0.0000 0.0000 -7.3443 0.0000
# 6 0.0000 0.0000 0.0000 0.0000 0.0000 34.2543
#
#
#
# Elastic Compliance Matrix: (Units=1/GPa)
#
#
# Indices 1 2 3 4 5 6 
#
# 1 0.019580 0.005431 0.006666 0.000000 0.000000 0.000000
# 2 0.005431 0.023469 0.004335 0.000000 0.000000 0.000000
# 3 0.006666 0.004335 0.020309 0.000000 0.000000 0.000000
# 4 0.000000 0.000000 0.000000 0.034427 0.000000 0.000000
# 5 0.000000 0.000000 0.000000 0.000000 -0.136160 0.000000
# 6 0.000000 0.000000 0.000000 0.000000 0.000000 0.029193
#
#
# Mechanical properties :
#
#
# Convention : Reuss Voigt Hill
#
# Bulk Modulus (GPa) = 10.39266 10.40510 10.39888
# Shear Modulus (GPa) = -501.44706 24.32183 -238.56262
#
# Velocity S-wave (km/s) = -15.08156 3.32148 -10.40243
# Velocity P-wave (km/s) = 17.27880 4.40787 11.81372
#
# Compressibility (1/GPa) = 0.09622180
#
# Stress axis : x y z
#
# Youngs Moduli (GPa) = 51.07259 42.60927 49.23998
#
# Poissons Ratio (x) = -0.23139 -0.32823
# Poissons Ratio (y) = -0.27735 -0.21348
# Poissons Ratio (z) = -0.34045 -0.18473
#
# Static dielectric constant tensor:
#      x y z
#    x 1.776340 0.000000 0.000000 
#    y 0.000000 2.188040 0.000000 
#    z 0.000000 0.000000 1.840260 
# 
# From -- ./inp_files/32421.got.cif
#   From: 2010.05.17/outbox.cif.g08.bks.cpg/sg64_17_cif.got.tgz:32421.got - 2010.06.03 16:29:19.
