data_PCOD9481569
_publ_section_title
;
Structure prediction by ZEFSAII (Michael W. Deem and Ramdas Pophale) SiO2 
 PCOD9481569
Probable space group: C M C A
;
_chemical_formula_sum "Si O2"
_cell_formula_units_Z 64
_cell_length_a 25.682529
_cell_length_b 10.597444
_cell_length_c 8.720644
_cell_angle_alpha 90.000000
_cell_angle_beta 90.000000
_cell_angle_gamma 90.000000
_cell_volume 2373.490377
_symmetry_space_group_name_H-M "C M C A"
_symmetry_group_IT_number 64
_symmetry_cell_setting 'orthorhombic'
loop_
_space_group_symop_operation_xyz
x,y,z
-x,1/2-y,1/2+z
x,-y,-z
-x,1/2+y,1/2-z
-x,-y,-z
x,1/2+y,1/2-z
-x,y,z
x,1/2-y,1/2+z
1/2+x,1/2+y,z
1/2-x,-y,1/2+z
1/2+x,1/2-y,-z
1/2-x,y,1/2-z
1/2-x,1/2-y,-z
1/2+x,y,1/2-z
1/2-x,1/2+y,z
1/2+x,-y,1/2+z
loop_
_atom_site_type_symbol
_atom_site_label
_atom_site_fract_x
_atom_site_fract_y
_atom_site_fract_z
Si Si1 0.500000 0.434441 0.176787
Si Si2 0.095420 0.500000 0.000000
Si Si3 0.500000 0.171862 0.014106
Si Si4 0.660577 0.625266 0.776824
Si Si5 0.261253 0.000000 0.500000
Si Si6 0.750000 0.180427 0.250000
Si Si7 0.409602 0.000000 0.500000
O O1 0.500000 0.363160 0.335535
O O2 0.550229 0.517827 0.138812
O O3 0.500000 0.314808 0.062863
O O4 0.054483 0.605879 0.061247
O O5 0.130631 0.562331 0.866024
O O6 0.704791 0.538045 0.852668
O O7 0.695477 0.742979 0.724417
O O8 0.622828 0.617429 0.928555
O O9 0.235076 0.883231 0.584194
#
# Coordination Sequence:
#
# PCOD9481569 Si02
#       7
#     8   8   8  16   8   8   8
#     4  11  24  44  75 117 161 220 266 335 398 482
#     4  11  26  50  74 121 166 208 270 342 384 498
#     4  11  26  44  79 119 165 222 268 329 412 472
#     4  11  26  49  80 116 157 216 267 329 408 484
#     4  11  28  50  82 112 160 204 266 342 402 489
#     4  12  28  54  80 118 154 216 270 336 416 488
#     4  10  24  48  74 114 166 207 270 336 392 481
#
# _framework density 26.964507999999999
#
# number of rings (size 3 to 8) (size 9 to 14) (size 15 to 20)
#    0.000    1.000    2.500    1.500    3.500   13.000 
#    0.000    2.500    0.000    0.000    0.000    0.000 
#    0.000    3.000    0.000    0.000    0.000    0.000 
#
# Total GULP energy -178149.388093 kJ/mol
# GULP energy per Si atom -5567.168378 kJ/mol
# Density = 2.690314 g / cm^3
# Si number density = 26.964508 Si / 1000 Ang^3
#
#
#
# Elastic Constant Matrix: (Units=GPa)
#
#
# Indices 1 2 3 4 5 6 
#
# 1 163.0091 51.2136 89.8252 0.0000 0.0000 0.0000
# 2 51.2136 95.9925 93.5634 0.0000 0.0000 0.0000
# 3 89.8252 93.5634 232.0447 0.0000 0.0000 0.0000
# 4 0.0000 0.0000 0.0000 58.9340 0.0000 0.0000
# 5 0.0000 0.0000 0.0000 0.0000 43.2501 0.0000
# 6 0.0000 0.0000 0.0000 0.0000 0.0000 27.2120
#
#
#
# Elastic Compliance Matrix: (Units=1/GPa)
#
#
# Indices 1 2 3 4 5 6 
#
# 1 0.008040 -0.002069 -0.002278 0.000000 0.000000 0.000000
# 2 -0.002069 0.017695 -0.006334 0.000000 0.000000 0.000000
# 3 -0.002278 -0.006334 0.007745 0.000000 0.000000 0.000000
# 4 0.000000 0.000000 0.000000 0.016968 0.000000 0.000000
# 5 0.000000 0.000000 0.000000 0.000000 0.023121 0.000000
# 6 0.000000 0.000000 0.000000 0.000000 0.000000 0.036749
#
#
# Mechanical properties :
#
#
# Convention : Reuss Voigt Hill
#
# Bulk Modulus (GPa) = 82.52045 106.69451 94.60748
# Shear Modulus (GPa) = 36.84066 42.97549 39.90808
#
# Velocity S-wave (km/s) = 3.70031 3.99655 3.85128
# Velocity P-wave (km/s) = 6.99473 7.80711 7.41206
#
# Compressibility (1/GPa) = 0.01211821
#
# Stress axis : x y z
#
# Youngs Moduli (GPa) = 124.37860 56.51324 129.11149
#
# Poissons Ratio (x) = 0.11693 0.29412
# Poissons Ratio (y) = 0.25735 0.81778
# Poissons Ratio (z) = 0.28334 0.35795
#
# Static dielectric constant tensor:
#      x y z
#    x 2.271640 0.000000 0.000000 
#    y 0.000000 2.399060 0.000000 
#    z 0.000000 0.000000 2.165770 
# 
# From -- ./inp_files/10930.got.cif
#   From: 2010.05.17/outbox.cif.g08.bks.cpg/sg64_6_cif.got.tgz:10930.got - 2010.06.03 16:29:19.
