data_PCOD9481128
_publ_section_title
;
Structure prediction by ZEFSAII (Michael W. Deem and Ramdas Pophale) SiO2 
 PCOD9481128
Probable space group: C M C A
;
_chemical_formula_sum "Si O2"
_cell_formula_units_Z 64
_cell_length_a 14.581177
_cell_length_b 12.625988
_cell_length_c 14.520908
_cell_angle_alpha 90.000000
_cell_angle_beta 90.000000
_cell_angle_gamma 90.000000
_cell_volume 2673.324804
_symmetry_space_group_name_H-M "C M C A"
_symmetry_group_IT_number 64
_symmetry_cell_setting 'orthorhombic'
loop_
_space_group_symop_operation_xyz
x,y,z
-x,1/2-y,1/2+z
x,-y,-z
-x,1/2+y,1/2-z
-x,-y,-z
x,1/2+y,1/2-z
-x,y,z
x,1/2-y,1/2+z
1/2+x,1/2+y,z
1/2-x,-y,1/2+z
1/2+x,1/2-y,-z
1/2-x,y,1/2-z
1/2-x,1/2-y,-z
1/2+x,y,1/2-z
1/2-x,1/2+y,z
1/2+x,-y,1/2+z
loop_
_atom_site_type_symbol
_atom_site_label
_atom_site_fract_x
_atom_site_fract_y
_atom_site_fract_z
Si Si1 0.896538 0.153431 0.110829
Si Si2 0.608679 0.263868 0.095333
Si Si3 0.392822 0.626086 0.721880
Si Si4 0.782868 0.456805 0.895789
O O1 0.889188 0.262517 0.166626
O O2 0.818235 0.072921 0.139371
O O3 0.000000 0.111586 0.120913
O O4 0.880075 0.183166 0.004085
O O5 0.500000 0.243279 0.108541
O O6 0.639313 0.342045 0.176225
O O7 0.662428 0.154290 0.101411
O O8 0.500000 0.593662 0.724929
O O9 0.335736 0.539936 0.667090
O O10 0.778531 0.500000 0.000000
#
# Coordination Sequence:
#
# PCOD9481128 Si02
#       4
#    16  16  16  16
#     4  10  23  47  70 102 152 191 236 303 365 430
#     4  10  22  44  74 109 150 190 238 306 371 432
#     4  10  23  46  74 106 145 190 241 300 367 434
#     4  12  24  43  76 108 139 190 255 297 360 436
#
# _framework density 23.940225000000002
#
# number of rings (size 3 to 8) (size 9 to 14) (size 15 to 20)
#    0.000    1.500    2.500    1.500    0.000    2.500 
#    9.000    0.000    0.000    1.500    0.000    0.000 
#    0.000    0.000    0.000    0.000    0.000    0.000 
#
# Total GULP energy -179680.775724 kJ/mol
# GULP energy per Si atom -5615.024241 kJ/mol
# Density = 2.388574 g / cm^3
# Si number density = 23.940225 Si / 1000 Ang^3
#
#
#
# Elastic Constant Matrix: (Units=GPa)
#
#
# Indices 1 2 3 4 5 6 
#
# 1 120.7818 92.6257 18.7340 0.0000 0.0000 0.0000
# 2 92.6257 130.1960 26.4573 0.0000 0.0000 0.0000
# 3 18.7340 26.4573 80.4108 0.0000 0.0000 0.0000
# 4 0.0000 0.0000 0.0000 43.6225 0.0000 0.0000
# 5 0.0000 0.0000 0.0000 0.0000 21.9125 0.0000
# 6 0.0000 0.0000 0.0000 0.0000 0.0000 49.2811
#
#
#
# Elastic Compliance Matrix: (Units=1/GPa)
#
#
# Indices 1 2 3 4 5 6 
#
# 1 0.018220 -0.012967 0.000022 0.000000 0.000000 0.000000
# 2 -0.012967 0.017459 -0.002724 0.000000 0.000000 0.000000
# 3 0.000022 -0.002724 0.013327 0.000000 0.000000 0.000000
# 4 0.000000 0.000000 0.000000 0.022924 0.000000 0.000000
# 5 0.000000 0.000000 0.000000 0.000000 0.045636 0.000000
# 6 0.000000 0.000000 0.000000 0.000000 0.000000 0.020292
#
#
# Mechanical properties :
#
#
# Convention : Reuss Voigt Hill
#
# Bulk Modulus (GPa) = 56.59655 67.44696 62.02176
# Shear Modulus (GPa) = 28.55754 35.86799 32.21276
#
# Velocity S-wave (km/s) = 3.45754 3.87490 3.67215
# Velocity P-wave (km/s) = 6.29536 6.94651 6.62893
#
# Compressibility (1/GPa) = 0.01766892
#
# Stress axis : x y z
#
# Youngs Moduli (GPa) = 54.88482 57.27677 75.03422
#
# Poissons Ratio (x) = 0.74269 -0.00162
# Poissons Ratio (y) = 0.71167 0.20436
# Poissons Ratio (z) = -0.00118 0.15600
#
# Static dielectric constant tensor:
#      x y z
#    x 1.912500 0.000000 0.000000 
#    y 0.000000 1.847990 0.000000 
#    z 0.000000 0.000000 1.891590 
# 
# From -- ./inp_files/23243.got.cif
#   From: 2010.05.17/outbox.cif.g08.bks.cpg/sg64_12_cif.got.tgz:23243.got - 2010.06.03 16:29:19.
