data_PCOD9481244
_publ_section_title
;
Structure prediction by ZEFSAII (Michael W. Deem and Ramdas Pophale) SiO2 
 PCOD9481244
Probable space group: C M C A
;
_chemical_formula_sum "Si O2"
_cell_formula_units_Z 56
_cell_length_a 16.610925
_cell_length_b 28.004166
_cell_length_c 5.213747
_cell_angle_alpha 90.000000
_cell_angle_beta 90.000000
_cell_angle_gamma 90.000000
_cell_volume 2425.305288
_symmetry_space_group_name_H-M "C M C A"
_symmetry_group_IT_number 64
_symmetry_cell_setting 'orthorhombic'
loop_
_space_group_symop_operation_xyz
x,y,z
-x,1/2-y,1/2+z
x,-y,-z
-x,1/2+y,1/2-z
-x,-y,-z
x,1/2+y,1/2-z
-x,y,z
x,1/2-y,1/2+z
1/2+x,1/2+y,z
1/2-x,-y,1/2+z
1/2+x,1/2-y,-z
1/2-x,y,1/2-z
1/2-x,1/2-y,-z
1/2+x,y,1/2-z
1/2-x,1/2+y,z
1/2+x,-y,1/2+z
loop_
_atom_site_type_symbol
_atom_site_label
_atom_site_fract_x
_atom_site_fract_y
_atom_site_fract_z
Si Si1 0.750000 0.716525 0.250000
Si Si2 0.500000 0.586013 0.338443
Si Si3 0.667726 0.845827 0.405894
Si Si4 0.662360 0.051926 0.377680
Si Si5 0.500000 0.149774 0.672088
O O1 0.750000 0.750000 0.500000
O O2 0.820934 0.679157 0.317133
O O3 0.416935 0.557483 0.297666
O O4 0.500000 0.608685 0.616249
O O5 0.500000 0.626994 0.114947
O O6 0.750000 0.838744 0.250000
O O7 0.657451 0.902690 0.432389
O O8 0.585578 0.824472 0.292781
O O9 0.750000 0.057060 0.250000
O O10 0.659433 0.000000 0.500000
#
# Coordination Sequence:
#
# PCOD9481244 Si02
#       5
#     8   8  16  16   8
#     4  12  26  46  76 100 132 184 234 298 370 426
#     4  10  23  42  62  99 144 194 234 291 346 419
#     4  11  23  45  72 103 144 188 236 300 360 433
#     4  11  22  39  65 104 143 192 243 295 359 433
#     4  10  24  40  73 103 140 188 240 287 360 426
#
# _framework density 23.089876
#
# number of rings (size 3 to 8) (size 9 to 14) (size 15 to 20)
#    0.000    1.143    2.857    3.000    4.000    2.286 
#    0.000    7.857    0.000    0.000    0.000    0.000 
#    0.000    0.000    0.000    0.000    0.000    0.000 
#
# Total GULP energy -156230.842150 kJ/mol
# GULP energy per Si atom -5579.672934 kJ/mol
# Density = 2.303732 g / cm^3
# Si number density = 23.089876 Si / 1000 Ang^3
#
#
#
# Elastic Constant Matrix: (Units=GPa)
#
#
# Indices 1 2 3 4 5 6 
#
# 1 240.8143 1.8916 48.4570 0.0000 0.0000 0.0000
# 2 1.8916 71.5065 27.1787 0.0000 0.0000 0.0000
# 3 48.4570 27.1787 92.6954 0.0000 0.0000 0.0000
# 4 0.0000 0.0000 0.0000 39.6752 0.0000 0.0000
# 5 0.0000 0.0000 0.0000 0.0000 41.9592 0.0000
# 6 0.0000 0.0000 0.0000 0.0000 0.0000 -32.4235
#
#
#
# Elastic Compliance Matrix: (Units=1/GPa)
#
#
# Indices 1 2 3 4 5 6 
#
# 1 0.004693 0.000910 -0.002720 0.000000 0.000000 0.000000
# 2 0.000910 0.015915 -0.005142 0.000000 0.000000 0.000000
# 3 -0.002720 -0.005142 0.013717 0.000000 0.000000 0.000000
# 4 0.000000 0.000000 0.000000 0.025205 0.000000 0.000000
# 5 0.000000 0.000000 0.000000 0.000000 0.023833 0.000000
# 6 0.000000 0.000000 0.000000 0.000000 0.000000 -0.030842
#
#
# Mechanical properties :
#
#
# Convention : Reuss Voigt Hill
#
# Bulk Modulus (GPa) = 48.96909 62.23010 55.59960
# Shear Modulus (GPa) = 68.27628 31.67478 49.97553
#
# Velocity S-wave (km/s) = 5.44371 3.70781 4.65735
# Velocity P-wave (km/s) = 7.79526 6.73351 7.28376
#
# Compressibility (1/GPa) = 0.02042104
#
# Stress axis : x y z
#
# Youngs Moduli (GPa) = 213.09574 62.83362 72.89981
#
# Poissons Ratio (x) = -0.05716 0.19828
# Poissons Ratio (y) = -0.19384 0.37484
# Poissons Ratio (z) = 0.57959 0.32308
#
# Static dielectric constant tensor:
#      x y z
#    x 2.001290 0.000000 0.000000 
#    y 0.000000 1.854190 0.000000 
#    z 0.000000 0.000000 1.938390 
# 
# From -- ./inp_files/907.got.cif
#   From: 2010.05.17/outbox.cif.g08.bks.cpg/sg64_1_cif.got.tgz:907.got - 2010.06.03 16:29:19.
