data_PCOD9481940
_publ_section_title
;
Structure prediction by ZEFSAII (Michael W. Deem and Ramdas Pophale) SiO2 
 PCOD9481940
Probable space group: C M C A
;
_chemical_formula_sum "Si O2"
_cell_formula_units_Z 72
_cell_length_a 13.743451
_cell_length_b 14.236693
_cell_length_c 13.316637
_cell_angle_alpha 90.000000
_cell_angle_beta 90.000000
_cell_angle_gamma 90.000000
_cell_volume 2605.550409
_symmetry_space_group_name_H-M "C M C A"
_symmetry_group_IT_number 64
_symmetry_cell_setting 'orthorhombic'
loop_
_space_group_symop_operation_xyz
x,y,z
-x,1/2-y,1/2+z
x,-y,-z
-x,1/2+y,1/2-z
-x,-y,-z
x,1/2+y,1/2-z
-x,y,z
x,1/2-y,1/2+z
1/2+x,1/2+y,z
1/2-x,-y,1/2+z
1/2+x,1/2-y,-z
1/2-x,y,1/2-z
1/2-x,1/2-y,-z
1/2+x,y,1/2-z
1/2-x,1/2+y,z
1/2+x,-y,1/2+z
loop_
_atom_site_type_symbol
_atom_site_label
_atom_site_fract_x
_atom_site_fract_y
_atom_site_fract_z
Si Si1 0.324662 0.113995 0.004634
Si Si2 0.147720 0.774990 0.297125
Si Si3 0.500000 0.592206 0.354476
Si Si4 0.136418 0.039512 0.780199
Si Si5 0.394230 0.886562 0.569551
O O1 0.346069 0.162948 0.898526
O O2 0.287688 0.360501 0.971804
O O3 0.411076 0.143156 0.080410
O O4 0.331511 0.000000 0.000000
O O5 0.250000 0.746951 0.250000
O O6 0.097768 0.679994 0.330436
O O7 0.106092 0.851912 0.221128
O O8 0.581519 0.523102 0.300303
O O9 0.250000 0.037005 0.750000
O O10 0.118502 0.991524 0.887039
O O11 0.500000 0.875435 0.520007
#
# Coordination Sequence:
#
# PCOD9481940 Si02
#       5
#    16  16   8  16  16
#     4  12  25  46  74 105 144 193 249 300 364 434
#     4  11  26  46  71 102 145 190 244 302 360 440
#     4  12  23  40  84 102 143 195 255 298 356 444
#     4  11  22  45  69 105 140 186 233 298 365 425
#     4  12  27  45  72 107 147 190 243 299 365 440
#
# _framework density 27.633316000000001
#
# number of rings (size 3 to 8) (size 9 to 14) (size 15 to 20)
#    0.000    0.444    5.556    3.000    3.111    0.444 
#    0.000    1.111    0.000    0.000    0.000    0.000 
#    0.000    0.000    0.000    0.000    0.000    0.000 
#
# Total GULP energy -200581.933050 kJ/mol
# GULP energy per Si atom -5571.720363 kJ/mol
# Density = 2.757042 g / cm^3
# Si number density = 27.633316 Si / 1000 Ang^3
#
#
#
# Elastic Constant Matrix: (Units=GPa)
#
#
# Indices 1 2 3 4 5 6 
#
# 1 249.7765 22.8051 28.2712 0.0000 0.0000 0.0000
# 2 22.8051 132.5125 7.6935 0.0000 0.0000 0.0000
# 3 28.2712 7.6935 41.0569 0.0000 0.0000 0.0000
# 4 0.0000 0.0000 0.0000 37.3377 0.0000 0.0000
# 5 0.0000 0.0000 0.0000 0.0000 -0.3884 0.0000
# 6 0.0000 0.0000 0.0000 0.0000 0.0000 7.6871
#
#
#
# Elastic Compliance Matrix: (Units=1/GPa)
#
#
# Indices 1 2 3 4 5 6 
#
# 1 0.004387 -0.000586 -0.002911 0.000000 0.000000 0.000000
# 2 -0.000586 0.007708 -0.001041 0.000000 0.000000 0.000000
# 3 -0.002911 -0.001041 0.026556 0.000000 0.000000 0.000000
# 4 0.000000 0.000000 0.000000 0.026783 0.000000 0.000000
# 5 0.000000 0.000000 0.000000 0.000000 -2.574667 0.000000
# 6 0.000000 0.000000 0.000000 0.000000 0.000000 0.130088
#
#
# Mechanical properties :
#
#
# Convention : Reuss Voigt Hill
#
# Bulk Modulus (GPa) = 33.81232 60.09840 46.95536
# Shear Modulus (GPa) = -2.11845 33.23235 15.55695
#
# Velocity S-wave (km/s) = -0.87652 3.47164 2.37529
# Velocity P-wave (km/s) = 3.35235 6.15349 4.95498
#
# Compressibility (1/GPa) = 0.02957502
#
# Stress axis : x y z
#
# Youngs Moduli (GPa) = 227.97086 129.73992 37.65661
#
# Poissons Ratio (x) = 0.07602 0.10961
# Poissons Ratio (y) = 0.13357 0.03920
# Poissons Ratio (z) = 0.66356 0.13504
#
# Static dielectric constant tensor:
#      x y z
#    x 2.093830 0.000000 0.000000 
#    y 0.000000 2.171860 0.000000 
#    z 0.000000 0.000000 2.304020 
# 
# From -- ./inp_files/31990.got.cif
#   From: 2010.05.17/outbox.cif.g08.bks.cpg/sg64_16_cif.got.tgz:31990.got - 2010.06.03 16:29:19.
