data_PCOD9481123
_publ_section_title
;
Structure prediction by ZEFSAII (Michael W. Deem and Ramdas Pophale) SiO2 
 PCOD9481123
Probable space group: C M C A
;
_chemical_formula_sum "Si O2"
_cell_formula_units_Z 112
_cell_length_a 23.013984
_cell_length_b 14.400026
_cell_length_c 15.471678
_cell_angle_alpha 90.000000
_cell_angle_beta 90.000000
_cell_angle_gamma 90.000000
_cell_volume 5127.344537
_symmetry_space_group_name_H-M "C M C A"
_symmetry_group_IT_number 64
_symmetry_cell_setting 'orthorhombic'
loop_
_space_group_symop_operation_xyz
x,y,z
-x,1/2-y,1/2+z
x,-y,-z
-x,1/2+y,1/2-z
-x,-y,-z
x,1/2+y,1/2-z
-x,y,z
x,1/2-y,1/2+z
1/2+x,1/2+y,z
1/2-x,-y,1/2+z
1/2+x,1/2-y,-z
1/2-x,y,1/2-z
1/2-x,1/2-y,-z
1/2+x,y,1/2-z
1/2-x,1/2+y,z
1/2+x,-y,1/2+z
loop_
_atom_site_type_symbol
_atom_site_label
_atom_site_fract_x
_atom_site_fract_y
_atom_site_fract_z
Si Si1 0.119623 0.065813 0.419046
Si Si2 0.067177 0.450922 0.411883
Si Si3 0.247953 0.177096 0.847879
Si Si4 0.243567 0.528177 0.401461
Si Si5 0.632252 0.777635 0.442161
Si Si6 0.933329 0.598958 0.258027
Si Si7 0.844934 0.806534 0.868328
O O1 0.188766 0.055088 0.402994
O O2 0.108398 0.174442 0.436232
O O3 0.086131 0.048913 0.329839
O O4 0.104448 0.000000 0.500000
O O5 0.088375 0.500000 0.500000
O O6 0.101242 0.357938 0.387917
O O7 0.070943 0.525176 0.335626
O O8 0.000000 0.425986 0.426503
O O9 0.250000 0.213191 0.750000
O O10 0.199110 0.220806 0.909798
O O11 0.311408 0.208561 0.878335
O O12 0.237621 0.067351 0.849369
O O13 0.227614 0.500000 0.500000
O O14 0.203459 0.611444 0.367785
O O15 0.623510 0.811835 0.540026
O O16 0.887605 0.678557 0.287667
O O17 0.000000 0.631535 0.251674
#
# Coordination Sequence:
#
# PCOD9481123 Si02
#       7
#    16  16  16  16  16  16  16
#     4  11  26  47  70 101 150 190 236 286 368 448
#     4  10  22  44  72 103 135 177 238 302 355 406
#     4  12  26  38  62 102 141 180 228 280 353 434
#     4  11  23  41  65  98 138 183 220 278 356 426
#     4  12  23  44  71 102 139 190 236 292 358 427
#     4  11  26  47  72 102 141 187 244 304 359 420
#     4  12  23  42  69 101 143 182 228 295 357 422
#
# _framework density 21.843667
#
# number of rings (size 3 to 8) (size 9 to 14) (size 15 to 20)
#    0.000    0.714    4.286    3.857    4.000    0.857 
#    2.571    0.000    0.000    0.000    0.000    0.000 
#    0.000    0.000    0.000    0.000    0.000    0.000 
#
# Total GULP energy -313032.937823 kJ/mol
# GULP energy per Si atom -5589.873890 kJ/mol
# Density = 2.179395 g / cm^3
# Si number density = 21.843667 Si / 1000 Ang^3
#
#
#
# Elastic Constant Matrix: (Units=GPa)
#
#
# Indices 1 2 3 4 5 6 
#
# 1 80.6998 13.1626 26.0882 0.0000 0.0000 0.0000
# 2 13.1626 86.8738 10.7234 0.0000 0.0000 0.0000
# 3 26.0882 10.7234 113.0413 0.0000 0.0000 0.0000
# 4 0.0000 0.0000 0.0000 11.7282 0.0000 0.0000
# 5 0.0000 0.0000 0.0000 0.0000 22.7865 0.0000
# 6 0.0000 0.0000 0.0000 0.0000 0.0000 21.6970
#
#
#
# Elastic Compliance Matrix: (Units=1/GPa)
#
#
# Indices 1 2 3 4 5 6 
#
# 1 0.013634 -0.001697 -0.002985 0.000000 0.000000 0.000000
# 2 -0.001697 0.011859 -0.000733 0.000000 0.000000 0.000000
# 3 -0.002985 -0.000733 0.009605 0.000000 0.000000 0.000000
# 4 0.000000 0.000000 0.000000 0.085264 0.000000 0.000000
# 5 0.000000 0.000000 0.000000 0.000000 0.043886 0.000000
# 6 0.000000 0.000000 0.000000 0.000000 0.000000 0.046089
#
#
# Mechanical properties :
#
#
# Convention : Reuss Voigt Hill
#
# Bulk Modulus (GPa) = 41.21103 42.28479 41.74791
# Shear Modulus (GPa) = 21.80962 26.61839 24.21401
#
# Velocity S-wave (km/s) = 3.16324 3.49461 3.33305
# Velocity P-wave (km/s) = 5.67880 5.97353 5.82803
#
# Compressibility (1/GPa) = 0.02426535
#
# Stress axis : x y z
#
# Youngs Moduli (GPa) = 73.34857 84.32692 104.11388
#
# Poissons Ratio (x) = 0.14312 0.31082
# Poissons Ratio (y) = 0.12448 0.07634
# Poissons Ratio (z) = 0.21898 0.06183
#
# Static dielectric constant tensor:
#      x y z
#    x 1.846910 0.000000 0.000000 
#    y 0.000000 1.805120 0.000000 
#    z 0.000000 0.000000 1.882880 
# 
# From -- ./inp_files/27431.got.cif
#   From: 2010.05.17/outbox.cif.g08.bks.cpg/sg64_14_cif.got.tgz:27431.got - 2010.06.03 16:29:19.
