data_PCOD9481876
_publ_section_title
;
Structure prediction by ZEFSAII (Michael W. Deem and Ramdas Pophale) SiO2 
 PCOD9481876
Probable space group: C M C A
;
_chemical_formula_sum "Si O2"
_cell_formula_units_Z 96
_cell_length_a 17.537162
_cell_length_b 24.974748
_cell_length_c 11.016401
_cell_angle_alpha 90.000000
_cell_angle_beta 90.000000
_cell_angle_gamma 90.000000
_cell_volume 4825.031629
_symmetry_space_group_name_H-M "C M C A"
_symmetry_group_IT_number 64
_symmetry_cell_setting 'orthorhombic'
loop_
_space_group_symop_operation_xyz
x,y,z
-x,1/2-y,1/2+z
x,-y,-z
-x,1/2+y,1/2-z
-x,-y,-z
x,1/2+y,1/2-z
-x,y,z
x,1/2-y,1/2+z
1/2+x,1/2+y,z
1/2-x,-y,1/2+z
1/2+x,1/2-y,-z
1/2-x,y,1/2-z
1/2-x,1/2-y,-z
1/2+x,y,1/2-z
1/2-x,1/2+y,z
1/2+x,-y,1/2+z
loop_
_atom_site_type_symbol
_atom_site_label
_atom_site_fract_x
_atom_site_fract_y
_atom_site_fract_z
Si Si1 0.848832 0.371980 0.584291
Si Si2 0.583922 0.165043 0.892453
Si Si3 0.207934 0.299154 0.927766
Si Si4 0.588241 0.484445 0.857230
Si Si5 0.917759 0.280427 0.729424
Si Si6 0.335875 0.906293 0.302109
O O1 0.770926 0.341342 0.614158
O O2 0.868856 0.427746 0.649072
O O3 0.909202 0.328693 0.633579
O O4 0.844840 0.384262 0.439949
O O5 0.500000 0.150242 0.938358
O O6 0.581906 0.225487 0.843508
O O7 0.608070 0.127466 0.782312
O O8 0.650931 0.166709 0.988991
O O9 0.153413 0.278030 0.821078
O O10 0.250000 0.250000 0.000000
O O11 0.500000 0.481133 0.814654
O O12 0.636021 0.532340 0.798129
O O13 0.584635 0.500000 0.000000
O O14 0.000000 0.285333 0.793934
O O15 0.250000 0.900796 0.250000
#
# Coordination Sequence:
#
# PCOD9481876 Si02
#       6
#    16  16  16  16  16  16
#     4  11  22  39  66  91 128 166 214 267 320 381
#     4  11  24  39  60  90 128 172 211 258 321 385
#     4  12  23  40  62  90 130 168 215 262 319 386
#     4   9  20  39  62  90 121 160 213 267 316 369
#     4  11  25  40  61  92 128 170 215 264 323 385
#     4  11  22  39  64  96 128 166 214 267 323 385
#
# _framework density 19.896243999999999
#
# number of rings (size 3 to 8) (size 9 to 14) (size 15 to 20)
#    0.000    1.167    3.333    3.000    0.000    3.333 
#    0.000    0.000    0.000    0.000    0.000    4.667 
#    0.000    0.000    0.000    0.000    0.000    0.000 
#
# Total GULP energy -267918.822668 kJ/mol
# GULP energy per Si atom -5581.642139 kJ/mol
# Density = 1.985096 g / cm^3
# Si number density = 19.896244 Si / 1000 Ang^3
#
#
#
# Elastic Constant Matrix: (Units=GPa)
#
#
# Indices 1 2 3 4 5 6 
#
# 1 132.4049 32.5349 15.1426 0.0000 0.0000 0.0000
# 2 32.5349 122.3785 6.1383 0.0000 0.0000 0.0000
# 3 15.1426 6.1383 38.4887 0.0000 0.0000 0.0000
# 4 0.0000 0.0000 0.0000 23.3838 0.0000 0.0000
# 5 0.0000 0.0000 0.0000 0.0000 11.1193 0.0000
# 6 0.0000 0.0000 0.0000 0.0000 0.0000 58.8791
#
#
#
# Elastic Compliance Matrix: (Units=1/GPa)
#
#
# Indices 1 2 3 4 5 6 
#
# 1 0.008405 -0.002085 -0.002974 0.000000 0.000000 0.000000
# 2 -0.002085 0.008755 -0.000576 0.000000 0.000000 0.000000
# 3 -0.002974 -0.000576 0.027244 0.000000 0.000000 0.000000
# 4 0.000000 0.000000 0.000000 0.042765 0.000000 0.000000
# 5 0.000000 0.000000 0.000000 0.000000 0.089933 0.000000
# 6 0.000000 0.000000 0.000000 0.000000 0.000000 0.016984
#
#
# Mechanical properties :
#
#
# Convention : Reuss Voigt Hill
#
# Bulk Modulus (GPa) = 30.18172 44.54488 37.36330
# Shear Modulus (GPa) = 23.10532 34.64021 28.87276
#
# Velocity S-wave (km/s) = 3.41147 4.17711 3.81355
# Velocity P-wave (km/s) = 5.54256 6.76029 6.18148
#
# Compressibility (1/GPa) = 0.03313264
#
# Stress axis : x y z
#
# Youngs Moduli (GPa) = 118.97439 114.22495 36.70581
#
# Poissons Ratio (x) = 0.23820 0.10917
# Poissons Ratio (y) = 0.24811 0.02113
# Poissons Ratio (z) = 0.35386 0.06577
#
# Static dielectric constant tensor:
#      x y z
#    x 1.730500 0.000000 0.000000 
#    y 0.000000 1.675140 0.000000 
#    z 0.000000 0.000000 1.753540 
# 
# From -- ./inp_files/16203.got.cif
#   From: 2010.05.17/outbox.cif.g08.bks.cpg/sg64_9_cif.got.tgz:16203.got - 2010.06.03 16:29:19.
