data_PCOD9481962
_publ_section_title
;
Structure prediction by ZEFSAII (Michael W. Deem and Ramdas Pophale) SiO2 
 PCOD9481962
Probable space group: C M C A
;
_chemical_formula_sum "Si O2"
_cell_formula_units_Z 80
_cell_length_a 9.032756
_cell_length_b 14.876602
_cell_length_c 31.084805
_cell_angle_alpha 90.000000
_cell_angle_beta 90.000000
_cell_angle_gamma 90.000000
_cell_volume 4177.074013
_symmetry_space_group_name_H-M "C M C A"
_symmetry_group_IT_number 64
_symmetry_cell_setting 'orthorhombic'
loop_
_space_group_symop_operation_xyz
x,y,z
-x,1/2-y,1/2+z
x,-y,-z
-x,1/2+y,1/2-z
-x,-y,-z
x,1/2+y,1/2-z
-x,y,z
x,1/2-y,1/2+z
1/2+x,1/2+y,z
1/2-x,-y,1/2+z
1/2+x,1/2-y,-z
1/2-x,y,1/2-z
1/2-x,1/2-y,-z
1/2+x,y,1/2-z
1/2-x,1/2+y,z
1/2+x,-y,1/2+z
loop_
_atom_site_type_symbol
_atom_site_label
_atom_site_fract_x
_atom_site_fract_y
_atom_site_fract_z
Si Si1 0.820413 0.400329 0.613425
Si Si2 0.321659 0.251809 0.453141
Si Si3 0.669933 0.107560 0.293130
Si Si4 0.680120 0.609180 0.888528
Si Si5 0.169681 0.887888 0.206807
O O1 0.778901 0.336720 0.574299
O O2 0.764415 0.367650 0.660262
O O3 0.780411 0.504084 0.606627
O O4 0.000000 0.398721 0.616784
O O5 0.500000 0.256112 0.456012
O O6 0.250000 0.250000 0.500000
O O7 0.257529 0.333366 0.425058
O O8 0.500000 0.136983 0.290978
O O9 0.750000 0.137666 0.250000
O O10 0.671189 0.997730 0.293330
O O11 0.500000 0.616673 0.890624
O O12 0.728650 0.638406 0.840272
O O13 0.250000 0.857960 0.250000
O O14 0.000000 0.859182 0.209210
#
# Coordination Sequence:
#
# PCOD9481962 Si02
#       5
#    16  16  16  16  16
#     4   8  17  35  57  76 103 143 177 203 252 321
#     4  11  23  39  57  78 103 134 173 222 272 320
#     4   8  13  25  46  73 101 133 170 205 242 294
#     4   9  18  36  58  79 104 139 178 214 253 307
#     4   8  14  25  46  74 104 135 169 206 246 294
#
# _framework density 19.152162000000001
#
# number of rings (size 3 to 8) (size 9 to 14) (size 15 to 20)
#    0.000    3.200    0.000    3.000    0.000    1.600 
#    0.000   12.000    0.000    4.800    0.000    0.000 
#    0.000    0.000    0.000    0.000    0.000    0.000 
#
# Total GULP energy -222977.738503 kJ/mol
# GULP energy per Si atom -5574.443463 kJ/mol
# Density = 1.910857 g / cm^3
# Si number density = 19.152162 Si / 1000 Ang^3
#
#
#
# Elastic Constant Matrix: (Units=GPa)
#
#
# Indices 1 2 3 4 5 6 
#
# 1 41.7944 25.6741 69.7527 0.0000 0.0000 0.0000
# 2 25.6741 82.5761 78.3062 0.0000 0.0000 0.0000
# 3 69.7527 78.3062 246.5671 0.0000 0.0000 0.0000
# 4 0.0000 0.0000 0.0000 39.1166 0.0000 0.0000
# 5 0.0000 0.0000 0.0000 0.0000 36.7819 0.0000
# 6 0.0000 0.0000 0.0000 0.0000 0.0000 15.1848
#
#
#
# Elastic Compliance Matrix: (Units=1/GPa)
#
#
# Indices 1 2 3 4 5 6 
#
# 1 0.045773 -0.002793 -0.012062 0.000000 0.000000 0.000000
# 2 -0.002793 0.017499 -0.004767 0.000000 0.000000 0.000000
# 3 -0.012062 -0.004767 0.008982 0.000000 0.000000 0.000000
# 4 0.000000 0.000000 0.000000 0.025565 0.000000 0.000000
# 5 0.000000 0.000000 0.000000 0.000000 0.027187 0.000000
# 6 0.000000 0.000000 0.000000 0.000000 0.000000 0.065855
#
#
# Mechanical properties :
#
#
# Convention : Reuss Voigt Hill
#
# Bulk Modulus (GPa) = 30.29433 79.82263 55.05848
# Shear Modulus (GPa) = 20.73741 31.36364 26.05053
#
# Velocity S-wave (km/s) = 3.29412 4.05112 3.69207
# Velocity P-wave (km/s) = 5.50639 7.97814 6.85460
#
# Compressibility (1/GPa) = 0.03300948
#
# Stress axis : x y z
#
# Youngs Moduli (GPa) = 21.84675 57.14501 111.33374
#
# Poissons Ratio (x) = 0.15963 1.34290
# Poissons Ratio (y) = 0.06103 0.53076
# Poissons Ratio (z) = 0.26351 0.27243
#
# Static dielectric constant tensor:
#      x y z
#    x 1.649770 0.000000 0.000000 
#    y 0.000000 1.703170 0.000000 
#    z 0.000000 0.000000 1.670960 
# 
# From -- ./inp_files/47857.got.cif
#   From: 2010.05.17/outbox.cif.g08.bks.cpg/sg64_24_cif.got.tgz:47857.got - 2010.06.03 16:29:19.
