data_PCOD9481062
_publ_section_title
;
Structure prediction by ZEFSAII (Michael W. Deem and Ramdas Pophale) SiO2 
 PCOD9481062
Probable space group: C M C A
;
_chemical_formula_sum "Si O2"
_cell_formula_units_Z 72
_cell_length_a 12.054435
_cell_length_b 9.322159
_cell_length_c 27.427860
_cell_angle_alpha 90.000000
_cell_angle_beta 90.000000
_cell_angle_gamma 90.000000
_cell_volume 3082.160778
_symmetry_space_group_name_H-M "C M C A"
_symmetry_group_IT_number 64
_symmetry_cell_setting 'orthorhombic'
loop_
_space_group_symop_operation_xyz
x,y,z
-x,1/2-y,1/2+z
x,-y,-z
-x,1/2+y,1/2-z
-x,-y,-z
x,1/2+y,1/2-z
-x,y,z
x,1/2-y,1/2+z
1/2+x,1/2+y,z
1/2-x,-y,1/2+z
1/2+x,1/2-y,-z
1/2-x,y,1/2-z
1/2-x,1/2-y,-z
1/2+x,y,1/2-z
1/2-x,1/2+y,z
1/2+x,-y,1/2+z
loop_
_atom_site_type_symbol
_atom_site_label
_atom_site_fract_x
_atom_site_fract_y
_atom_site_fract_z
Si Si1 0.721826 0.981493 0.352578
Si Si2 0.250000 0.893861 0.750000
Si Si3 0.000000 0.155776 0.818959
Si Si4 0.692366 0.753351 0.082802
Si Si5 0.000000 0.617721 0.249447
Si Si6 0.621857 0.651862 0.484486
O O1 0.769666 0.016385 0.299261
O O2 0.613999 0.882135 0.345280
O O3 0.679681 0.122680 0.380297
O O4 0.808399 0.898289 0.386307
O O5 0.127390 0.825535 0.762567
O O6 0.000000 0.042595 0.772166
O O7 0.000000 0.322517 0.805294
O O8 0.810951 0.733266 0.056420
O O9 0.617699 0.759852 0.034799
O O10 0.676792 0.500000 0.500000
O O11 0.500000 0.618558 0.466181
#
# Coordination Sequence:
#
# PCOD9481062 Si02
#       6
#    16   8   8  16   8  16
#     4  11  24  42  65  98 137 179 230 274 347 405
#     4  10  24  46  68 102 144 190 230 290 330 418
#     4  10  24  40  66  95 131 177 231 280 334 406
#     4  11  23  42  65 100 131 174 221 286 338 421
#     4  10  22  44  68  96 135 184 237 283 343 386
#     4  10  22  43  67  96 130 171 222 284 352 418
#
# _framework density 23.360233999999998
#
# number of rings (size 3 to 8) (size 9 to 14) (size 15 to 20)
#    0.000    1.556    2.222    1.333    3.111   11.556 
#    4.000    1.111    0.000    0.000    0.000    0.000 
#    0.000    0.000    0.000    0.000    0.000    0.000 
#
# Total GULP energy -200481.503370 kJ/mol
# GULP energy per Si atom -5568.930649 kJ/mol
# Density = 2.330706 g / cm^3
# Si number density = 23.360234 Si / 1000 Ang^3
#
#
#
# Elastic Constant Matrix: (Units=GPa)
#
#
# Indices 1 2 3 4 5 6 
#
# 1 107.0496 -1.0973 4.9586 0.0000 0.0000 0.0000
# 2 -1.0973 46.6644 27.0319 0.0000 0.0000 0.0000
# 3 4.9586 27.0319 138.5088 0.0000 0.0000 0.0000
# 4 0.0000 0.0000 0.0000 49.3570 0.0000 0.0000
# 5 0.0000 0.0000 0.0000 0.0000 -34.7525 0.0000
# 6 0.0000 0.0000 0.0000 0.0000 0.0000 17.3212
#
#
#
# Elastic Compliance Matrix: (Units=1/GPa)
#
#
# Indices 1 2 3 4 5 6 
#
# 1 0.009366 0.000467 -0.000427 0.000000 0.000000 0.000000
# 2 0.000467 0.024184 -0.004737 0.000000 0.000000 0.000000
# 3 -0.000427 -0.004737 0.008159 0.000000 0.000000 0.000000
# 4 0.000000 0.000000 0.000000 0.020261 0.000000 0.000000
# 5 0.000000 0.000000 0.000000 0.000000 -0.028775 0.000000
# 6 0.000000 0.000000 0.000000 0.000000 0.000000 0.057733
#
#
# Mechanical properties :
#
#
# Convention : Reuss Voigt Hill
#
# Bulk Modulus (GPa) = 30.94232 39.33435 35.13833
# Shear Modulus (GPa) = 45.00748 23.80712 34.40730
#
# Velocity S-wave (km/s) = 4.39415 3.19585 3.84200
# Velocity P-wave (km/s) = 6.24653 5.52201 5.89541
#
# Compressibility (1/GPa) = 0.03231820
#
# Stress axis : x y z
#
# Youngs Moduli (GPa) = 106.76907 41.34888 122.55724
#
# Poissons Ratio (x) = -0.01932 0.05227
# Poissons Ratio (y) = -0.04989 0.58051
# Poissons Ratio (z) = 0.04554 0.19586
#
# Static dielectric constant tensor:
#      x y z
#    x 1.939450 0.000000 0.000000 
#    y 0.000000 1.917260 0.000000 
#    z 0.000000 0.000000 1.880370 
# 
# From -- ./inp_files/49082.got.cif
#   From: 2010.05.17/outbox.cif.g08.bks.cpg/sg64_25_cif.got.tgz:49082.got - 2010.06.03 16:29:19.
