data_PCOD9481770
_publ_section_title
;
Structure prediction by ZEFSAII (Michael W. Deem and Ramdas Pophale) SiO2 
 PCOD9481770
Probable space group: C M C A
;
_chemical_formula_sum "Si O2"
_cell_formula_units_Z 60
_cell_length_a 19.224537
_cell_length_b 30.886724
_cell_length_c 4.974370
_cell_angle_alpha 90.000000
_cell_angle_beta 90.000000
_cell_angle_gamma 90.000000
_cell_volume 2953.696184
_symmetry_space_group_name_H-M "C M C A"
_symmetry_group_IT_number 64
_symmetry_cell_setting 'orthorhombic'
loop_
_space_group_symop_operation_xyz
x,y,z
-x,1/2-y,1/2+z
x,-y,-z
-x,1/2+y,1/2-z
-x,-y,-z
x,1/2+y,1/2-z
-x,y,z
x,1/2-y,1/2+z
1/2+x,1/2+y,z
1/2-x,-y,1/2+z
1/2+x,1/2-y,-z
1/2-x,y,1/2-z
1/2-x,1/2-y,-z
1/2+x,y,1/2-z
1/2-x,1/2+y,z
1/2+x,-y,1/2+z
loop_
_atom_site_type_symbol
_atom_site_label
_atom_site_fract_x
_atom_site_fract_y
_atom_site_fract_z
Si Si1 0.750000 0.971171 0.250000
Si Si2 0.000000 0.000000 0.500000
Si Si3 0.915410 0.223644 0.184904
Si Si4 0.417083 0.628266 0.012180
Si Si5 0.617420 0.575600 0.509430
O O1 0.689373 0.943071 0.117876
O O2 0.722106 0.000000 0.500000
O O3 0.939473 0.962297 0.473374
O O4 0.893654 0.238812 0.478574
O O5 0.893035 0.176452 0.086852
O O6 0.000000 0.222447 0.181898
O O7 0.500000 0.625260 0.065011
O O8 0.380904 0.593647 0.207673
O O9 0.404705 0.614794 0.705802
#
# Coordination Sequence:
#
# PCOD9481770 Si02
#       5
#     8   4  16  16  16
#     4  12  26  44  60  84 118 162 210 244 298 356
#     4  12  24  42  64  90 116 160 208 246 308 342
#     4   9  17  30  52  82 120 153 182 232 303 361
#     4  11  21  37  58  91 121 152 199 250 297 352
#     4  12  25  39  62  87 121 161 200 252 297 355
#
# _framework density 20.313533
#
# number of rings (size 3 to 8) (size 9 to 14) (size 15 to 20)
#    0.000    1.067    4.000    3.200    0.000    5.333 
#    0.000    0.000    0.000    0.000    0.000   18.667 
#    0.000    0.000    0.000    0.000    0.000    0.000 
#
# Total GULP energy -167124.401654 kJ/mol
# GULP energy per Si atom -5570.813388 kJ/mol
# Density = 2.026730 g / cm^3
# Si number density = 20.313533 Si / 1000 Ang^3
#
#
#
# Elastic Constant Matrix: (Units=GPa)
#
#
# Indices 1 2 3 4 5 6 
#
# 1 35.0507 19.1283 -21.7874 0.0000 0.0000 0.0000
# 2 19.1283 59.9180 -18.2546 0.0000 0.0000 0.0000
# 3 -21.7874 -18.2546 52.0885 0.0000 0.0000 0.0000
# 4 0.0000 0.0000 0.0000 19.3392 0.0000 0.0000
# 5 0.0000 0.0000 0.0000 0.0000 22.4504 0.0000
# 6 0.0000 0.0000 0.0000 0.0000 0.0000 14.7777
#
#
#
# Elastic Compliance Matrix: (Units=1/GPa)
#
#
# Indices 1 2 3 4 5 6 
#
# 1 0.042608 -0.009150 0.014616 0.000000 0.000000 0.000000
# 2 -0.009150 0.020649 0.003410 0.000000 0.000000 0.000000
# 3 0.014616 0.003410 0.026506 0.000000 0.000000 0.000000
# 4 0.000000 0.000000 0.000000 0.051708 0.000000 0.000000
# 5 0.000000 0.000000 0.000000 0.000000 0.044543 0.000000
# 6 0.000000 0.000000 0.000000 0.000000 0.000000 0.067670
#
#
# Mechanical properties :
#
#
# Convention : Reuss Voigt Hill
#
# Bulk Modulus (GPa) = 9.30105 11.69220 10.49662
# Shear Modulus (GPa) = 18.39779 22.51151 20.45465
#
# Velocity S-wave (km/s) = 3.01274 3.33258 3.17669
# Velocity P-wave (km/s) = 4.08544 4.53613 4.31667
#
# Compressibility (1/GPa) = 0.10751472
#
# Stress axis : x y z
#
# Youngs Moduli (GPa) = 23.46960 48.42813 37.72690
#
# Poissons Ratio (x) = 0.44310 -0.55140
# Poissons Ratio (y) = 0.21474 -0.12863
# Poissons Ratio (z) = -0.34302 -0.16512
#
# Static dielectric constant tensor:
#      x y z
#    x 1.690040 0.000000 0.000000 
#    y 0.000000 1.721190 0.000000 
#    z 0.000000 0.000000 1.718320 
# 
# From -- ./inp_files/1237.got.cif
#   From: 2010.05.17/outbox.cif.g08.bks.cpg/sg64_1_cif.got.tgz:1237.got - 2010.06.03 16:29:19.
