data_PCOD9481553
_publ_section_title
;
Structure prediction by ZEFSAII (Michael W. Deem and Ramdas Pophale) SiO2 
 PCOD9481553
Probable space group: C M C A
;
_chemical_formula_sum "Si O2"
_cell_formula_units_Z 72
_cell_length_a 24.838411
_cell_length_b 9.276071
_cell_length_c 14.207224
_cell_angle_alpha 90.000000
_cell_angle_beta 90.000000
_cell_angle_gamma 90.000000
_cell_volume 3273.385099
_symmetry_space_group_name_H-M "C M C A"
_symmetry_group_IT_number 64
_symmetry_cell_setting 'orthorhombic'
loop_
_space_group_symop_operation_xyz
x,y,z
-x,1/2-y,1/2+z
x,-y,-z
-x,1/2+y,1/2-z
-x,-y,-z
x,1/2+y,1/2-z
-x,y,z
x,1/2-y,1/2+z
1/2+x,1/2+y,z
1/2-x,-y,1/2+z
1/2+x,1/2-y,-z
1/2-x,y,1/2-z
1/2-x,1/2-y,-z
1/2+x,y,1/2-z
1/2-x,1/2+y,z
1/2+x,-y,1/2+z
loop_
_atom_site_type_symbol
_atom_site_label
_atom_site_fract_x
_atom_site_fract_y
_atom_site_fract_z
Si Si1 0.897382 0.383919 0.057393
Si Si2 0.000000 0.458232 0.856340
Si Si3 0.250000 0.561880 0.250000
Si Si4 0.827136 0.679981 0.773610
Si Si5 0.385557 0.612467 0.925260
Si Si6 0.500000 0.892753 0.345077
O O1 0.948318 0.478472 0.090255
O O2 0.875627 0.322495 0.154726
O O3 0.861569 0.500000 0.000000
O O4 0.901101 0.252291 0.986035
O O5 0.000000 0.284005 0.845737
O O6 0.000000 0.536325 0.756602
O O7 0.205406 0.672590 0.287459
O O8 0.213112 0.448048 0.194488
O O9 0.848905 0.651568 0.666680
O O10 0.443868 0.556168 0.890826
O O11 0.360462 0.500000 0.000000
#
# Coordination Sequence:
#
# PCOD9481553 Si02
#       6
#    16   8   8  16  16   8
#     4  12  24  44  72  99 142 185 227 277 346 411
#     4  12  26  43  70 104 145 186 220 279 338 407
#     4  10  24  46  72  94 136 176 220 312 348 392
#     4  11  24  47  69 100 135 175 235 285 353 402
#     4  12  26  43  70 105 139 185 228 278 338 413
#     4  12  26  44  68 106 145 183 226 274 338 407
#
# _framework density 21.99558
#
# number of rings (size 3 to 8) (size 9 to 14) (size 15 to 20)
#    0.000    0.444    4.444    4.000    3.111    0.000 
#    0.000   22.222    0.000    0.000    0.000    0.000 
#    0.000    0.000    0.000    0.000    0.000    0.000 
#
# Total GULP energy -200670.558996 kJ/mol
# GULP energy per Si atom -5574.182194 kJ/mol
# Density = 2.194552 g / cm^3
# Si number density = 21.995580 Si / 1000 Ang^3
#
#
#
# Elastic Constant Matrix: (Units=GPa)
#
#
# Indices 1 2 3 4 5 6 
#
# 1 52.4020 2.9902 18.7274 0.0000 0.0000 0.0000
# 2 2.9902 97.4487 25.1547 0.0000 0.0000 0.0000
# 3 18.7274 25.1547 153.8070 0.0000 0.0000 0.0000
# 4 0.0000 0.0000 0.0000 27.2907 0.0000 0.0000
# 5 0.0000 0.0000 0.0000 0.0000 -100.4614 0.0000
# 6 0.0000 0.0000 0.0000 0.0000 0.0000 -230.3054
#
#
#
# Elastic Compliance Matrix: (Units=1/GPa)
#
#
# Indices 1 2 3 4 5 6 
#
# 1 0.019951 0.000016 -0.002432 0.000000 0.000000 0.000000
# 2 0.000016 0.010714 -0.001754 0.000000 0.000000 0.000000
# 3 -0.002432 -0.001754 0.007085 0.000000 0.000000 0.000000
# 4 0.000000 0.000000 0.000000 0.036643 0.000000 0.000000
# 5 0.000000 0.000000 0.000000 0.000000 -0.009954 0.000000
# 6 0.000000 0.000000 0.000000 0.000000 0.000000 -0.004342
#
#
# Mechanical properties :
#
#
# Convention : Reuss Voigt Hill
#
# Bulk Modulus (GPa) = 34.00282 44.15581 39.07932
# Shear Modulus (GPa) = 63.90549 -43.57618 10.16465
#
# Velocity S-wave (km/s) = 5.39600 -4.45582 2.15204
# Velocity P-wave (km/s) = 7.36987 2.52072 4.89699
#
# Compressibility (1/GPa) = 0.02940933
#
# Stress axis : x y z
#
# Youngs Moduli (GPa) = 50.12174 93.33462 141.15053
#
# Poissons Ratio (x) = -0.00145 0.34325
# Poissons Ratio (y) = -0.00078 0.24760
# Poissons Ratio (z) = 0.12189 0.16372
#
# Static dielectric constant tensor:
#      x y z
#    x 2.199800 0.000000 0.000000 
#    y 0.000000 1.844230 0.000000 
#    z 0.000000 0.000000 1.826210 
# 
# From -- ./inp_files/27841.got.cif
#   From: 2010.05.17/outbox.cif.g08.bks.cpg/sg64_14_cif.got.tgz:27841.got - 2010.06.03 16:29:19.
