data_PCOD9481029
_publ_section_title
;
Structure prediction by ZEFSAII (Michael W. Deem and Ramdas Pophale) SiO2 
 PCOD9481029
Probable space group: C M C A
;
_chemical_formula_sum "Si O2"
_cell_formula_units_Z 88
_cell_length_a 16.465756
_cell_length_b 9.206798
_cell_length_c 26.191363
_cell_angle_alpha 90.000000
_cell_angle_beta 90.000000
_cell_angle_gamma 90.000000
_cell_volume 3970.529160
_symmetry_space_group_name_H-M "C M C A"
_symmetry_group_IT_number 64
_symmetry_cell_setting 'orthorhombic'
loop_
_space_group_symop_operation_xyz
x,y,z
-x,1/2-y,1/2+z
x,-y,-z
-x,1/2+y,1/2-z
-x,-y,-z
x,1/2+y,1/2-z
-x,y,z
x,1/2-y,1/2+z
1/2+x,1/2+y,z
1/2-x,-y,1/2+z
1/2+x,1/2-y,-z
1/2-x,y,1/2-z
1/2-x,1/2-y,-z
1/2+x,y,1/2-z
1/2-x,1/2+y,z
1/2+x,-y,1/2+z
loop_
_atom_site_type_symbol
_atom_site_label
_atom_site_fract_x
_atom_site_fract_y
_atom_site_fract_z
Si Si1 0.911062 0.865279 0.131804
Si Si2 0.592338 0.675154 0.075196
Si Si3 0.090757 0.246601 0.259360
Si Si4 0.186525 0.500000 0.500000
Si Si5 0.814276 0.974681 0.294263
Si Si6 0.258714 0.876031 0.100934
O O1 0.907851 0.859257 0.193055
O O2 0.827534 0.795201 0.111605
O O3 0.000000 0.802341 0.117443
O O4 0.908784 0.027762 0.109070
O O5 0.500000 0.730753 0.073357
O O6 0.660773 0.781396 0.096086
O O7 0.626447 0.625973 0.019831
O O8 0.149504 0.314816 0.217343
O O9 0.000000 0.233652 0.238921
O O10 0.118162 0.096802 0.285224
O O11 0.241745 0.456776 0.452205
O O12 0.750000 0.003578 0.250000
O O13 0.773176 0.975074 0.349347
#
# Coordination Sequence:
#
# PCOD9481029 Si02
#       6
#    16  16  16   8  16  16
#     4   9  21  39  63  94 130 172 221 275 332 403
#     4  10  22  42  70 100 129 174 229 282 339 408
#     4  11  25  43  64  97 134 178 226 278 340 409
#     4  10  23  42  67  96 136 178 227 288 345 404
#     4  12  26  42  67  98 136 180 228 278 345 415
#     4  11  24  42  70  98 137 178 231 282 350 408
#
# _framework density 22.163291999999998
#
# number of rings (size 3 to 8) (size 9 to 14) (size 15 to 20)
#    0.000    1.455    1.818    1.909    7.636    2.182 
#    0.000    0.455    0.000    0.000    0.000    0.000 
#    0.000    0.000    0.000    0.000    0.000    0.000 
#
# Total GULP energy -245736.852858 kJ/mol
# GULP energy per Si atom -5584.928474 kJ/mol
# Density = 2.211285 g / cm^3
# Si number density = 22.163292 Si / 1000 Ang^3
#
#
#
# Elastic Constant Matrix: (Units=GPa)
#
#
# Indices 1 2 3 4 5 6 
#
# 1 169.1115 39.4240 47.9234 0.0000 0.0000 0.0000
# 2 39.4240 38.5383 22.3574 0.0000 0.0000 0.0000
# 3 47.9234 22.3574 131.3552 0.0000 0.0000 0.0000
# 4 0.0000 0.0000 0.0000 20.8809 0.0000 0.0000
# 5 0.0000 0.0000 0.0000 0.0000 -7.2801 0.0000
# 6 0.0000 0.0000 0.0000 0.0000 0.0000 25.9524
#
#
#
# Elastic Compliance Matrix: (Units=1/GPa)
#
#
# Indices 1 2 3 4 5 6 
#
# 1 0.008098 -0.007290 -0.001714 0.000000 0.000000 0.000000
# 2 -0.007290 0.035354 -0.003358 0.000000 0.000000 0.000000
# 3 -0.001714 -0.003358 0.008810 0.000000 0.000000 0.000000
# 4 0.000000 0.000000 0.000000 0.047891 0.000000 0.000000
# 5 0.000000 0.000000 0.000000 0.000000 -0.137360 0.000000
# 6 0.000000 0.000000 0.000000 0.000000 0.000000 0.038532
#
#
# Mechanical properties :
#
#
# Convention : Reuss Voigt Hill
#
# Bulk Modulus (GPa) = 36.31268 62.04608 49.17938
# Shear Modulus (GPa) = 141.93186 23.19732 82.56459
#
# Velocity S-wave (km/s) = 8.01113 3.23871 6.11013
# Velocity P-wave (km/s) = 10.09904 6.48394 8.48623
#
# Compressibility (1/GPa) = 0.02753859
#
# Stress axis : x y z
#
# Youngs Moduli (GPa) = 123.47997 28.28529 113.51147
#
# Poissons Ratio (x) = 0.20621 0.19453
# Poissons Ratio (y) = 0.90022 0.38113
# Poissons Ratio (z) = 0.21162 0.09497
#
# Static dielectric constant tensor:
#      x y z
#    x 1.845720 0.000000 0.000000 
#    y 0.000000 1.855280 0.000000 
#    z 0.000000 0.000000 1.818340 
# 
# From -- ./inp_files/49956.got.cif
#   From: 2010.05.17/outbox.cif.g08.bks.cpg/sg64_25_cif.got.tgz:49956.got - 2010.06.03 16:29:19.
