data_PCOD9481358
_publ_section_title
;
Structure prediction by ZEFSAII (Michael W. Deem and Ramdas Pophale) SiO2 
 PCOD9481358
Probable space group: C M C A
;
_chemical_formula_sum "Si O2"
_cell_formula_units_Z 112
_cell_length_a 23.497516
_cell_length_b 13.496555
_cell_length_c 14.906921
_cell_angle_alpha 90.000000
_cell_angle_beta 90.000000
_cell_angle_gamma 90.000000
_cell_volume 4727.514099
_symmetry_space_group_name_H-M "C M C A"
_symmetry_group_IT_number 64
_symmetry_cell_setting 'orthorhombic'
loop_
_space_group_symop_operation_xyz
x,y,z
-x,1/2-y,1/2+z
x,-y,-z
-x,1/2+y,1/2-z
-x,-y,-z
x,1/2+y,1/2-z
-x,y,z
x,1/2-y,1/2+z
1/2+x,1/2+y,z
1/2-x,-y,1/2+z
1/2+x,1/2-y,-z
1/2-x,y,1/2-z
1/2-x,1/2-y,-z
1/2+x,y,1/2-z
1/2-x,1/2+y,z
1/2+x,-y,1/2+z
loop_
_atom_site_type_symbol
_atom_site_label
_atom_site_fract_x
_atom_site_fract_y
_atom_site_fract_z
Si Si1 0.064729 0.907683 0.935889
Si Si2 0.748021 0.523060 0.144829
Si Si3 0.121166 0.045911 0.402482
Si Si4 0.258846 0.685784 0.911239
Si Si5 0.065372 0.051526 0.769904
Si Si6 0.841876 0.298031 0.639238
Si Si7 0.877617 0.749839 0.667924
O O1 0.067062 0.959141 0.838126
O O2 0.000000 0.873674 0.953572
O O3 0.112710 0.823167 0.937948
O O4 0.077431 0.000000 0.000000
O O5 0.750000 0.491697 0.250000
O O6 0.810794 0.552790 0.113368
O O7 0.730008 0.430341 0.084225
O O8 0.703293 0.612162 0.140943
O O9 0.097362 0.978354 0.321348
O O10 0.109874 0.000000 0.500000
O O11 0.099130 0.159041 0.391144
O O12 0.196978 0.700569 0.866737
O O13 0.312412 0.728670 0.859074
O O14 0.250000 0.750000 0.000000
O O15 0.090276 0.145716 0.823660
O O16 0.000000 0.073302 0.747920
O O17 0.875223 0.290243 0.731201
#
# Coordination Sequence:
#
# PCOD9481358 Si02
#       7
#    16  16  16  16  16  16  16
#     4  10  23  44  72 103 137 183 245 305 360 432
#     4  12  22  42  65  93 140 190 226 289 353 439
#     4  12  25  46  73 107 152 190 246 311 376 445
#     4  12  26  37  62 103 141 180 234 290 363 437
#     4  11  26  49  75 102 139 193 243 305 376 440
#     4  12  23  41  69 100 133 189 233 277 365 436
#     4  12  24  45  69 102 141 189 243 301 362 439
#
# _framework density 23.691099000000001
#
# number of rings (size 3 to 8) (size 9 to 14) (size 15 to 20)
#    0.000    0.429    4.286    4.714    4.000    1.429 
#    0.000    0.000    0.000    0.000    0.000    0.000 
#    0.000    0.000    0.000    0.000    0.000    0.000 
#
# Total GULP energy -313566.471034 kJ/mol
# GULP energy per Si atom -5599.401268 kJ/mol
# Density = 2.363718 g / cm^3
# Si number density = 23.691099 Si / 1000 Ang^3
#
#
#
# Elastic Constant Matrix: (Units=GPa)
#
#
# Indices 1 2 3 4 5 6 
#
# 1 76.5604 11.3686 -12.7178 0.0000 0.0000 0.0000
# 2 11.3686 99.2974 -1.4759 0.0000 0.0000 0.0000
# 3 -12.7178 -1.4759 68.7762 0.0000 0.0000 0.0000
# 4 0.0000 0.0000 0.0000 36.2942 0.0000 0.0000
# 5 0.0000 0.0000 0.0000 0.0000 22.9450 0.0000
# 6 0.0000 0.0000 0.0000 0.0000 0.0000 10.8924
#
#
#
# Elastic Compliance Matrix: (Units=1/GPa)
#
#
# Indices 1 2 3 4 5 6 
#
# 1 0.013705 -0.001532 0.002501 0.000000 0.000000 0.000000
# 2 -0.001532 0.010245 -0.000063 0.000000 0.000000 0.000000
# 3 0.002501 -0.000063 0.015001 0.000000 0.000000 0.000000
# 4 0.000000 0.000000 0.000000 0.027553 0.000000 0.000000
# 5 0.000000 0.000000 0.000000 0.000000 0.043583 0.000000
# 6 0.000000 0.000000 0.000000 0.000000 0.000000 0.091807
#
#
# Mechanical properties :
#
#
# Convention : Reuss Voigt Hill
#
# Bulk Modulus (GPa) = 24.53209 26.55376 25.54293
# Shear Modulus (GPa) = 23.40071 30.52358 26.96215
#
# Velocity S-wave (km/s) = 3.14625 3.59332 3.37719
# Velocity P-wave (km/s) = 4.85551 5.33372 5.10022
#
# Compressibility (1/GPa) = 0.04076293
#
# Stress axis : x y z
#
# Youngs Moduli (GPa) = 72.96840 97.60671 66.66180
#
# Poissons Ratio (x) = 0.14952 -0.16674
# Poissons Ratio (y) = 0.11178 0.00423
# Poissons Ratio (z) = -0.18252 0.00619
#
# Static dielectric constant tensor:
#      x y z
#    x 1.923300 0.000000 0.000000 
#    y 0.000000 1.916050 0.000000 
#    z 0.000000 0.000000 1.959810 
# 
# From -- ./inp_files/27439.got.cif
#   From: 2010.05.17/outbox.cif.g08.bks.cpg/sg64_14_cif.got.tgz:27439.got - 2010.06.03 16:29:19.
