data_PCOD9481785
_publ_section_title
;
Structure prediction by ZEFSAII (Michael W. Deem and Ramdas Pophale) SiO2 
 PCOD9481785
Probable space group: C M C A
;
_chemical_formula_sum "Si O2"
_cell_formula_units_Z 96
_cell_length_a 19.787353
_cell_length_b 14.787604
_cell_length_c 16.873025
_cell_angle_alpha 90.000000
_cell_angle_beta 90.000000
_cell_angle_gamma 90.000000
_cell_volume 4937.174344
_symmetry_space_group_name_H-M "C M C A"
_symmetry_group_IT_number 64
_symmetry_cell_setting 'orthorhombic'
loop_
_space_group_symop_operation_xyz
x,y,z
-x,1/2-y,1/2+z
x,-y,-z
-x,1/2+y,1/2-z
-x,-y,-z
x,1/2+y,1/2-z
-x,y,z
x,1/2-y,1/2+z
1/2+x,1/2+y,z
1/2-x,-y,1/2+z
1/2+x,1/2-y,-z
1/2-x,y,1/2-z
1/2-x,1/2-y,-z
1/2+x,y,1/2-z
1/2-x,1/2+y,z
1/2+x,-y,1/2+z
loop_
_atom_site_type_symbol
_atom_site_label
_atom_site_fract_x
_atom_site_fract_y
_atom_site_fract_z
Si Si1 0.721387 0.120696 0.337295
Si Si2 0.862457 0.128480 0.783051
Si Si3 0.924342 0.562547 0.299308
Si Si4 0.225400 0.834897 0.364485
Si Si5 0.176818 0.904840 0.529853
Si Si6 0.922968 0.687915 0.147131
O O1 0.750000 0.095214 0.250000
O O2 0.641734 0.101259 0.343464
O O3 0.733298 0.227962 0.347932
O O4 0.765214 0.074085 0.405421
O O5 0.834677 0.133346 0.693519
O O6 0.794802 0.118751 0.836187
O O7 0.895987 0.222168 0.809858
O O8 0.911545 0.044211 0.793583
O O9 0.920404 0.608540 0.212700
O O10 0.000000 0.581928 0.330788
O O11 0.208454 0.854407 0.454774
O O12 0.123274 0.842085 0.574439
O O13 0.147311 0.000000 0.500000
O O14 0.000000 0.701531 0.122415
#
# Coordination Sequence:
#
# PCOD9481785 Si02
#       6
#    16  16  16  16  16  16
#     4  12  21  43  65  95 128 170 221 271 321 390
#     4  11  21  41  66  97 124 171 221 267 329 390
#     4  11  23  39  65  94 128 171 219 265 319 393
#     4  11  21  38  67  95 126 163 217 278 320 382
#     4  12  24  39  63  99 128 165 215 277 333 390
#     4  11  23  42  62  89 135 173 212 270 329 392
#
# _framework density 19.444320000000001
#
# number of rings (size 3 to 8) (size 9 to 14) (size 15 to 20)
#    0.000    0.667    6.667    3.000    2.333    0.333 
#    0.000    2.500    0.000    1.500    0.000    0.000 
#    0.000    0.000    0.000    0.000    0.000    0.000 
#
# Total GULP energy -268341.655934 kJ/mol
# GULP energy per Si atom -5590.451165 kJ/mol
# Density = 1.940006 g / cm^3
# Si number density = 19.444320 Si / 1000 Ang^3
#
#
#
# Elastic Constant Matrix: (Units=GPa)
#
#
# Indices 1 2 3 4 5 6 
#
# 1 141.9289 19.6242 59.2941 0.0000 0.0000 0.0000
# 2 19.6242 83.6196 31.3570 0.0000 0.0000 0.0000
# 3 59.2941 31.3570 118.1958 0.0000 0.0000 0.0000
# 4 0.0000 0.0000 0.0000 14.6489 0.0000 0.0000
# 5 0.0000 0.0000 0.0000 0.0000 10.5645 0.0000
# 6 0.0000 0.0000 0.0000 0.0000 0.0000 28.3720
#
#
#
# Elastic Compliance Matrix: (Units=1/GPa)
#
#
# Indices 1 2 3 4 5 6 
#
# 1 0.008930 -0.000462 -0.004357 0.000000 0.000000 0.000000
# 2 -0.000462 0.013304 -0.003298 0.000000 0.000000 0.000000
# 3 -0.004357 -0.003298 0.011521 0.000000 0.000000 0.000000
# 4 0.000000 0.000000 0.000000 0.068265 0.000000 0.000000
# 5 0.000000 0.000000 0.000000 0.000000 0.094656 0.000000
# 6 0.000000 0.000000 0.000000 0.000000 0.000000 0.035246
#
#
# Mechanical properties :
#
#
# Convention : Reuss Voigt Hill
#
# Bulk Modulus (GPa) = 57.07293 62.69944 59.88618
# Shear Modulus (GPa) = 19.68531 26.28169 22.98350
#
# Velocity S-wave (km/s) = 3.18527 3.68045 3.44178
# Velocity P-wave (km/s) = 6.55314 7.09765 6.83082
#
# Compressibility (1/GPa) = 0.01752144
#
# Stress axis : x y z
#
# Youngs Moduli (GPa) = 111.98211 75.16556 86.79540
#
# Poissons Ratio (x) = 0.03471 0.37820
# Poissons Ratio (y) = 0.05171 0.28624
# Poissons Ratio (z) = 0.48794 0.24789
#
# Static dielectric constant tensor:
#      x y z
#    x 1.686250 0.000000 0.000000 
#    y 0.000000 1.707840 0.000000 
#    z 0.000000 0.000000 1.651780 
# 
# From -- ./inp_files/26337.got.cif
#   From: 2010.05.17/outbox.cif.g08.bks.cpg/sg64_14_cif.got.tgz:26337.got - 2010.06.03 16:29:19.
