data_PCOD9481711
_publ_section_title
;
Structure prediction by ZEFSAII (Michael W. Deem and Ramdas Pophale) SiO2 
 PCOD9481711
Probable space group: C M C A
;
_chemical_formula_sum "Si O2"
_cell_formula_units_Z 64
_cell_length_a 10.326136
_cell_length_b 13.258133
_cell_length_c 17.382791
_cell_angle_alpha 90.000000
_cell_angle_beta 90.000000
_cell_angle_gamma 90.000000
_cell_volume 2379.795947
_symmetry_space_group_name_H-M "C M C A"
_symmetry_group_IT_number 64
_symmetry_cell_setting 'orthorhombic'
loop_
_space_group_symop_operation_xyz
x,y,z
-x,1/2-y,1/2+z
x,-y,-z
-x,1/2+y,1/2-z
-x,-y,-z
x,1/2+y,1/2-z
-x,y,z
x,1/2-y,1/2+z
1/2+x,1/2+y,z
1/2-x,-y,1/2+z
1/2+x,1/2-y,-z
1/2-x,y,1/2-z
1/2-x,1/2-y,-z
1/2+x,y,1/2-z
1/2-x,1/2+y,z
1/2+x,-y,1/2+z
loop_
_atom_site_type_symbol
_atom_site_label
_atom_site_fract_x
_atom_site_fract_y
_atom_site_fract_z
Si Si1 0.500000 0.350097 0.776455
Si Si2 0.640496 0.910462 0.112525
Si Si3 0.000000 0.740436 0.625232
Si Si4 0.000000 0.358939 0.543008
Si Si5 0.250000 0.495848 0.750000
Si Si6 0.702746 0.124610 0.048365
O O1 0.500000 0.254693 0.717827
O O2 0.500000 0.317742 0.866192
O O3 0.374841 0.422778 0.759446
O O4 0.500000 0.893676 0.146636
O O5 0.744465 0.927421 0.178007
O O6 0.638771 0.020787 0.074220
O O7 0.662844 0.840985 0.038097
O O8 0.000000 0.665087 0.550995
O O9 0.864856 0.797769 0.605044
O O10 0.853639 0.399265 0.548262
#
# Coordination Sequence:
#
# PCOD9481711 Si02
#       6
#     8  16   8   8   8  16
#     4  12  22  40  60  92 122 158 220 262 298 376
#     4  11  20  37  65  92 127 159 198 257 325 382
#     4  12  22  44  65  83 128 179 213 246 321 383
#     4  12  26  38  61  99 124 163 221 272 299 355
#     4  12  20  36  64  96 122 154 210 260 312 378
#     4  11  21  39  62  91 121 164 205 255 318 375
#
# _framework density 26.893063000000001
#
# number of rings (size 3 to 8) (size 9 to 14) (size 15 to 20)
#    0.000    0.500    8.750    1.500    0.000    3.000 
#    0.000    2.500    0.000    0.000    0.000    0.000 
#    0.000    0.000    0.000    0.000    0.000    0.000 
#
# Total GULP energy -178171.141721 kJ/mol
# GULP energy per Si atom -5567.848179 kJ/mol
# Density = 2.683185 g / cm^3
# Si number density = 26.893063 Si / 1000 Ang^3
#
#
#
# Elastic Constant Matrix: (Units=GPa)
#
#
# Indices 1 2 3 4 5 6 
#
# 1 193.0303 22.4382 9.1211 0.0000 0.0000 0.0000
# 2 22.4382 33.6505 24.9419 0.0000 0.0000 0.0000
# 3 9.1211 24.9419 239.8016 0.0000 0.0000 0.0000
# 4 0.0000 0.0000 0.0000 45.6414 0.0000 0.0000
# 5 0.0000 0.0000 0.0000 0.0000 -1.2300 0.0000
# 6 0.0000 0.0000 0.0000 0.0000 0.0000 -1.7754
#
#
#
# Elastic Compliance Matrix: (Units=1/GPa)
#
#
# Indices 1 2 3 4 5 6 
#
# 1 0.005624 -0.003891 0.000191 0.000000 0.000000 0.000000
# 2 -0.003891 0.034892 -0.003481 0.000000 0.000000 0.000000
# 3 0.000191 -0.003481 0.004525 0.000000 0.000000 0.000000
# 4 0.000000 0.000000 0.000000 0.021910 0.000000 0.000000
# 5 0.000000 0.000000 0.000000 0.000000 -0.813024 0.000000
# 6 0.000000 0.000000 0.000000 0.000000 0.000000 -0.563268
#
#
# Mechanical properties :
#
#
# Convention : Reuss Voigt Hill
#
# Bulk Modulus (GPa) = 32.59707 64.38719 48.49213
# Shear Modulus (GPa) = -3.89180 35.85929 15.98375
#
# Velocity S-wave (km/s) = -1.20428 3.65554 2.44056
# Velocity P-wave (km/s) = 3.19587 6.46616 5.10024
#
# Compressibility (1/GPa) = 0.03067760
#
# Stress axis : x y z
#
# Youngs Moduli (GPa) = 177.81362 28.65959 220.99782
#
# Poissons Ratio (x) = 0.11153 -0.04218
# Poissons Ratio (y) = 0.69195 0.76933
# Poissons Ratio (z) = -0.03393 0.09977
#
# Static dielectric constant tensor:
#      x y z
#    x 2.041970 0.000000 0.000000 
#    y 0.000000 2.203250 0.000000 
#    z 0.000000 0.000000 2.174820 
# 
# From -- ./inp_files/29298.got.cif
#   From: 2010.05.17/outbox.cif.g08.bks.cpg/sg64_15_cif.got.tgz:29298.got - 2010.06.03 16:29:19.
