data_PCOD9481060
_publ_section_title
;
Structure prediction by ZEFSAII (Michael W. Deem and Ramdas Pophale) SiO2 
 PCOD9481060
Probable space group: C M C A
;
_chemical_formula_sum "Si O2"
_cell_formula_units_Z 88
_cell_length_a 23.315368
_cell_length_b 11.279424
_cell_length_c 13.909805
_cell_angle_alpha 90.000000
_cell_angle_beta 90.000000
_cell_angle_gamma 90.000000
_cell_volume 3658.055065
_symmetry_space_group_name_H-M "C M C A"
_symmetry_group_IT_number 64
_symmetry_cell_setting 'orthorhombic'
loop_
_space_group_symop_operation_xyz
x,y,z
-x,1/2-y,1/2+z
x,-y,-z
-x,1/2+y,1/2-z
-x,-y,-z
x,1/2+y,1/2-z
-x,y,z
x,1/2-y,1/2+z
1/2+x,1/2+y,z
1/2-x,-y,1/2+z
1/2+x,1/2-y,-z
1/2-x,y,1/2-z
1/2-x,1/2-y,-z
1/2+x,y,1/2-z
1/2-x,1/2+y,z
1/2+x,-y,1/2+z
loop_
_atom_site_type_symbol
_atom_site_label
_atom_site_fract_x
_atom_site_fract_y
_atom_site_fract_z
Si Si1 0.000000 0.363903 0.904841
Si Si2 0.180535 0.393432 0.132307
Si Si3 0.874885 0.364149 0.848882
Si Si4 0.690123 0.865222 0.363516
Si Si5 0.098323 0.804555 0.862186
Si Si6 0.397313 0.000000 0.500000
Si Si7 0.000000 0.373780 0.135127
O O1 0.063199 0.314547 0.882576
O O2 0.000000 0.487263 0.842850
O O3 0.000000 0.375652 0.019439
O O4 0.141607 0.507692 0.109821
O O5 0.246480 0.399661 0.102240
O O6 0.183644 0.387144 0.249067
O O7 0.151071 0.272345 0.096643
O O8 0.824368 0.273568 0.873381
O O9 0.880769 0.369586 0.733561
O O10 0.643297 0.936802 0.422560
O O11 0.054040 0.702054 0.831786
O O12 0.072510 0.896261 0.938900
#
# Coordination Sequence:
#
# PCOD9481060 Si02
#       7
#     8  16  16  16  16   8   8
#     4  11  23  42  70  95 135 170 236 276 330 416
#     4  10  22  43  67  95 132 184 224 274 320 426
#     4  11  22  45  71  99 127 187 230 271 334 419
#     4  10  24  40  68  98 135 175 225 274 343 396
#     4  11  24  42  68  96 137 171 224 280 346 397
#     4  12  24  43  60 104 138 165 220 290 342 394
#     4  11  23  43  62 100 133 177 216 287 345 393
#
# _framework density 24.0565
#
# number of rings (size 3 to 8) (size 9 to 14) (size 15 to 20)
#    0.000    1.273    3.636    1.636    2.545    2.545 
#    3.273    0.909    0.000    0.000    0.000    0.000 
#    0.000    0.000    0.000    0.000    0.000    0.000 
#
# Total GULP energy -246010.021557 kJ/mol
# GULP energy per Si atom -5591.136854 kJ/mol
# Density = 2.400175 g / cm^3
# Si number density = 24.056500 Si / 1000 Ang^3
#
#
#
# Elastic Constant Matrix: (Units=GPa)
#
#
# Indices 1 2 3 4 5 6 
#
# 1 92.7146 15.7196 -2.3432 0.0000 0.0000 0.0000
# 2 15.7196 84.3784 18.9143 0.0000 0.0000 0.0000
# 3 -2.3432 18.9143 71.4295 0.0000 0.0000 0.0000
# 4 0.0000 0.0000 0.0000 29.3896 0.0000 0.0000
# 5 0.0000 0.0000 0.0000 0.0000 16.3865 0.0000
# 6 0.0000 0.0000 0.0000 0.0000 0.0000 -208.5795
#
#
#
# Elastic Compliance Matrix: (Units=1/GPa)
#
#
# Indices 1 2 3 4 5 6 
#
# 1 0.011202 -0.002306 0.000978 0.000000 0.000000 0.000000
# 2 -0.002306 0.013074 -0.003538 0.000000 0.000000 0.000000
# 3 0.000978 -0.003538 0.014969 0.000000 0.000000 0.000000
# 4 0.000000 0.000000 0.000000 0.034026 0.000000 0.000000
# 5 0.000000 0.000000 0.000000 0.000000 0.061026 0.000000
# 6 0.000000 0.000000 0.000000 0.000000 0.000000 -0.004794
#
#
# Mechanical properties :
#
#
# Convention : Reuss Voigt Hill
#
# Bulk Modulus (GPa) = 33.88337 34.78930 34.33634
# Shear Modulus (GPa) = 33.54122 -18.14525 7.69799
#
# Velocity S-wave (km/s) = 3.73804 -2.74939 1.79078
# Velocity P-wave (km/s) = 5.72242 2.10096 4.31046
#
# Compressibility (1/GPa) = 0.02951300
#
# Stress axis : x y z
#
# Youngs Moduli (GPa) = 89.27374 76.48782 66.80626
#
# Poissons Ratio (x) = 0.17639 -0.06534
# Poissons Ratio (y) = 0.20587 0.23633
# Poissons Ratio (z) = -0.08732 0.27058
#
# Static dielectric constant tensor:
#      x y z
#    x 1.924900 0.000000 0.000000 
#    y 0.000000 1.971800 0.000000 
#    z 0.000000 0.000000 1.916770 
# 
# From -- ./inp_files/27225.got.cif
#   From: 2010.05.17/outbox.cif.g08.bks.cpg/sg64_14_cif.got.tgz:27225.got - 2010.06.03 16:29:19.
