data_PCOD9481506
_publ_section_title
;
Structure prediction by ZEFSAII (Michael W. Deem and Ramdas Pophale) SiO2 
 PCOD9481506
Probable space group: C M C A
;
_chemical_formula_sum "Si O2"
_cell_formula_units_Z 60
_cell_length_a 25.292904
_cell_length_b 18.770821
_cell_length_c 5.062456
_cell_angle_alpha 90.000000
_cell_angle_beta 90.000000
_cell_angle_gamma 90.000000
_cell_volume 2403.495014
_symmetry_space_group_name_H-M "C M C A"
_symmetry_group_IT_number 64
_symmetry_cell_setting 'orthorhombic'
loop_
_space_group_symop_operation_xyz
x,y,z
-x,1/2-y,1/2+z
x,-y,-z
-x,1/2+y,1/2-z
-x,-y,-z
x,1/2+y,1/2-z
-x,y,z
x,1/2-y,1/2+z
1/2+x,1/2+y,z
1/2-x,-y,1/2+z
1/2+x,1/2-y,-z
1/2-x,y,1/2-z
1/2-x,1/2-y,-z
1/2+x,y,1/2-z
1/2-x,1/2+y,z
1/2+x,-y,1/2+z
loop_
_atom_site_type_symbol
_atom_site_label
_atom_site_fract_x
_atom_site_fract_y
_atom_site_fract_z
Si Si1 0.250000 0.402601 0.750000
Si Si2 0.913935 0.391745 0.187584
Si Si3 0.321194 0.701903 0.548158
Si Si4 0.000000 0.701075 0.530258
Si Si5 0.000000 0.500000 0.000000
Si Si6 0.161443 0.000000 0.000000
O O1 0.274667 0.352193 0.525964
O O2 0.201201 0.451493 0.667321
O O3 0.875368 0.447026 0.334679
O O4 0.949177 0.347034 0.396194
O O5 0.954199 0.438040 0.017117
O O6 0.876887 0.338730 0.025051
O O7 0.318707 0.734586 0.838038
O O8 0.000000 0.732967 0.237736
#
# Coordination Sequence:
#
# PCOD9481506 Si02
#       6
#     8  16  16   8   4   8
#     4  12  26  46  74 108 150 196 252 310 374 448
#     4  11  25  45  74 107 149 193 249 306 373 445
#     4  12  26  47  75 109 149 196 248 310 376 448
#     4  11  26  48  76 110 147 192 244 306 372 444
#     4  10  24  44  68 104 146 196 248 308 372 444
#     4  12  26  48  76 110 150 200 252 312 376 448
#
# _framework density 24.963649
#
# number of rings (size 3 to 8) (size 9 to 14) (size 15 to 20)
#    0.000    0.533    0.000    7.200    0.000   10.667 
#    0.000    0.000    0.000    0.000    0.000    0.000 
#    0.000    0.000    0.000    0.000    0.000    0.000 
#
# Total GULP energy -167961.504299 kJ/mol
# GULP energy per Si atom -5598.716810 kJ/mol
# Density = 2.490683 g / cm^3
# Si number density = 24.963649 Si / 1000 Ang^3
#
#
#
# Elastic Constant Matrix: (Units=GPa)
#
#
# Indices 1 2 3 4 5 6 
#
# 1 210.8750 94.9598 46.5989 0.0000 0.0000 0.0000
# 2 94.9598 134.4732 14.0409 0.0000 0.0000 0.0000
# 3 46.5989 14.0409 38.0532 0.0000 0.0000 0.0000
# 4 0.0000 0.0000 0.0000 7.0299 0.0000 0.0000
# 5 0.0000 0.0000 0.0000 0.0000 9.6305 0.0000
# 6 0.0000 0.0000 0.0000 0.0000 0.0000 157.1687
#
#
#
# Elastic Compliance Matrix: (Units=1/GPa)
#
#
# Indices 1 2 3 4 5 6 
#
# 1 0.009343 -0.005619 -0.009367 0.000000 0.000000 0.000000
# 2 -0.005619 0.011114 0.002780 0.000000 0.000000 0.000000
# 3 -0.009367 0.002780 0.036724 0.000000 0.000000 0.000000
# 4 0.000000 0.000000 0.000000 0.142249 0.000000 0.000000
# 5 0.000000 0.000000 0.000000 0.000000 0.103837 0.000000
# 6 0.000000 0.000000 0.000000 0.000000 0.000000 0.006363
#
#
# Mechanical properties :
#
#
# Convention : Reuss Voigt Hill
#
# Bulk Modulus (GPa) = 30.51725 77.17781 53.84753
# Shear Modulus (GPa) = 14.49422 49.95261 32.22342
#
# Velocity S-wave (km/s) = 2.41221 4.47812 3.59669
# Velocity P-wave (km/s) = 4.47320 7.59745 6.23421
#
# Compressibility (1/GPa) = 0.03276835
#
# Stress axis : x y z
#
# Youngs Moduli (GPa) = 107.03741 89.97473 27.23015
#
# Poissons Ratio (x) = 0.50559 0.25507
# Poissons Ratio (y) = 0.60147 -0.07571
# Poissons Ratio (z) = 1.00264 -0.25015
#
# Static dielectric constant tensor:
#      x y z
#    x 1.920900 0.000000 0.000000 
#    y 0.000000 1.949400 0.000000 
#    z 0.000000 0.000000 1.927210 
# 
# From -- ./inp_files/2672.got.cif
#   From: 2010.05.17/outbox.cif.g08.bks.cpg/sg64_2_cif.got.tgz:2672.got - 2010.06.03 16:29:19.
