data_PCOD9481951
_publ_section_title
;
Structure prediction by ZEFSAII (Michael W. Deem and Ramdas Pophale) SiO2 
 PCOD9481951
Probable space group: C M C A
;
_chemical_formula_sum "Si O2"
_cell_formula_units_Z 112
_cell_length_a 14.719018
_cell_length_b 30.908130
_cell_length_c 10.969697
_cell_angle_alpha 90.000000
_cell_angle_beta 90.000000
_cell_angle_gamma 90.000000
_cell_volume 4990.524574
_symmetry_space_group_name_H-M "C M C A"
_symmetry_group_IT_number 64
_symmetry_cell_setting 'orthorhombic'
loop_
_space_group_symop_operation_xyz
x,y,z
-x,1/2-y,1/2+z
x,-y,-z
-x,1/2+y,1/2-z
-x,-y,-z
x,1/2+y,1/2-z
-x,y,z
x,1/2-y,1/2+z
1/2+x,1/2+y,z
1/2-x,-y,1/2+z
1/2+x,1/2-y,-z
1/2-x,y,1/2-z
1/2-x,1/2-y,-z
1/2+x,y,1/2-z
1/2-x,1/2+y,z
1/2+x,-y,1/2+z
loop_
_atom_site_type_symbol
_atom_site_label
_atom_site_fract_x
_atom_site_fract_y
_atom_site_fract_z
Si Si1 0.108501 0.007330 0.798557
Si Si2 0.099610 0.350610 0.207994
Si Si3 0.687888 0.222286 0.638220
Si Si4 0.847279 0.694440 0.031011
Si Si5 0.222595 0.893685 0.613192
Si Si6 0.388932 0.061474 0.918722
Si Si7 0.892483 0.428809 0.521842
O O1 0.143131 0.021529 0.665319
O O2 0.000000 0.004733 0.781922
O O3 0.130850 0.963804 0.871462
O O4 0.123194 0.046148 0.895058
O O5 0.147105 0.321452 0.307335
O O6 0.138093 0.395736 0.159609
O O7 0.000000 0.361386 0.253784
O O8 0.097241 0.320687 0.086877
O O9 0.750000 0.239854 0.750000
O O10 0.749833 0.207383 0.526090
O O11 0.623336 0.261839 0.598843
O O12 0.832009 0.651557 0.109814
O O13 0.250000 0.902972 0.750000
O O14 0.160203 0.929523 0.546227
O O15 0.317701 0.891963 0.538854
O O16 0.500000 0.060759 0.933839
O O17 0.000000 0.417906 0.530809
#
# Coordination Sequence:
#
# PCOD9481951 Si02
#       7
#    16  16  16  16  16  16  16
#     4   8  16  36  62  85 113 149 186 241 314 356
#     4   9  18  31  52  83 110 137 187 242 288 345
#     4   9  17  32  53  74  99 142 185 231 285 342
#     4   9  19  34  52  73 109 147 184 230 291 347
#     4  11  23  37  54  84 117 159 203 241 292 362
#     4   9  19  37  61  87 117 155 199 249 302 359
#     4   9  19  37  59  86 119 150 188 245 301 358
#
# _framework density 22.442532
#
# number of rings (size 3 to 8) (size 9 to 14) (size 15 to 20)
#    0.000    2.857    0.000    1.286    2.000    1.714 
#    5.143    0.000    0.000   11.143    0.000    0.000 
#    0.000    0.000    0.000    0.000    0.000    0.000 
#
# Total GULP energy -312221.325062 kJ/mol
# GULP energy per Si atom -5575.380805 kJ/mol
# Density = 2.239145 g / cm^3
# Si number density = 22.442532 Si / 1000 Ang^3
#
#
#
# Elastic Constant Matrix: (Units=GPa)
#
#
# Indices 1 2 3 4 5 6 
#
# 1 50.4976 15.4487 15.2687 0.0000 0.0000 0.0000
# 2 15.4487 81.1809 43.2331 0.0000 0.0000 0.0000
# 3 15.2687 43.2331 106.4859 0.0000 0.0000 0.0000
# 4 0.0000 0.0000 0.0000 27.7910 0.0000 0.0000
# 5 0.0000 0.0000 0.0000 0.0000 18.8617 0.0000
# 6 0.0000 0.0000 0.0000 0.0000 0.0000 17.1293
#
#
#
# Elastic Compliance Matrix: (Units=1/GPa)
#
#
# Indices 1 2 3 4 5 6 
#
# 1 0.021293 -0.003095 -0.001796 0.000000 0.000000 0.000000
# 2 -0.003095 0.016166 -0.006120 0.000000 0.000000 0.000000
# 3 -0.001796 -0.006120 0.012133 0.000000 0.000000 0.000000
# 4 0.000000 0.000000 0.000000 0.035983 0.000000 0.000000
# 5 0.000000 0.000000 0.000000 0.000000 0.053017 0.000000
# 6 0.000000 0.000000 0.000000 0.000000 0.000000 0.058380
#
#
# Mechanical properties :
#
#
# Convention : Reuss Voigt Hill
#
# Bulk Modulus (GPa) = 36.27198 42.89615 39.58406
# Shear Modulus (GPa) = 21.91205 23.70399 22.80802
#
# Velocity S-wave (km/s) = 3.12807 3.25346 3.19138
# Velocity P-wave (km/s) = 5.40774 5.76790 5.59072
#
# Compressibility (1/GPa) = 0.02756949
#
# Stress axis : x y z
#
# Youngs Moduli (GPa) = 46.96368 61.85737 82.41948
#
# Poissons Ratio (x) = 0.19147 0.14806
# Poissons Ratio (y) = 0.14537 0.50438
# Poissons Ratio (z) = 0.08437 0.37854
#
# Static dielectric constant tensor:
#      x y z
#    x 1.856230 0.000000 0.000000 
#    y 0.000000 1.887110 0.000000 
#    z 0.000000 0.000000 1.866140 
# 
# From -- ./inp_files/14924.got.cif
#   From: 2010.05.17/outbox.cif.g08.bks.cpg/sg64_8_cif.got.tgz:14924.got - 2010.06.03 16:29:19.
