data_PCOD9481471
_publ_section_title
;
Structure prediction by ZEFSAII (Michael W. Deem and Ramdas Pophale) SiO2 
 PCOD9481471
Probable space group: C M C A
;
_chemical_formula_sum "Si O2"
_cell_formula_units_Z 72
_cell_length_a 22.229139
_cell_length_b 8.988951
_cell_length_c 15.761315
_cell_angle_alpha 90.000000
_cell_angle_beta 90.000000
_cell_angle_gamma 90.000000
_cell_volume 3149.373025
_symmetry_space_group_name_H-M "C M C A"
_symmetry_group_IT_number 64
_symmetry_cell_setting 'orthorhombic'
loop_
_space_group_symop_operation_xyz
x,y,z
-x,1/2-y,1/2+z
x,-y,-z
-x,1/2+y,1/2-z
-x,-y,-z
x,1/2+y,1/2-z
-x,y,z
x,1/2-y,1/2+z
1/2+x,1/2+y,z
1/2-x,-y,1/2+z
1/2+x,1/2-y,-z
1/2-x,y,1/2-z
1/2-x,1/2-y,-z
1/2+x,y,1/2-z
1/2-x,1/2+y,z
1/2+x,-y,1/2+z
loop_
_atom_site_type_symbol
_atom_site_label
_atom_site_fract_x
_atom_site_fract_y
_atom_site_fract_z
Si Si1 0.625467 0.709014 0.790497
Si Si2 0.663063 0.998974 0.153245
Si Si3 0.500000 0.581120 0.864516
Si Si4 0.414439 0.500000 0.500000
Si Si5 0.000000 0.266013 0.548641
Si Si6 0.719869 0.877718 0.437674
O O1 0.639157 0.645959 0.698175
O O2 0.559360 0.650096 0.818396
O O3 0.672206 0.665817 0.865733
O O4 0.645189 0.879873 0.777485
O O5 0.727713 0.960722 0.115836
O O6 0.625854 0.060154 0.074401
O O7 0.500000 0.398653 0.880176
O O8 0.500000 0.649470 0.958849
O O9 0.447154 0.642015 0.541851
O O10 0.750000 0.750000 0.500000
O O11 0.691680 0.000000 0.500000
#
# Coordination Sequence:
#
# PCOD9481471 Si02
#       6
#    16  16   8   8   8  16
#     4  12  29  47  74 112 155 198 255 314 379 461
#     4  12  27  49  74 110 151 195 254 311 389 443
#     4  11  26  48  72 110 153 198 255 308 382 450
#     4  11  22  48  74 104 148 197 252 312 374 453
#     4  10  24  42  74 103 145 201 252 303 369 452
#     4  12  26  48  80 108 148 193 250 311 383 452
#
# _framework density 22.861692000000001
#
# number of rings (size 3 to 8) (size 9 to 14) (size 15 to 20)
#    0.000    0.444    5.556    0.667    9.333    4.444 
#    0.000    0.000    0.000    0.000    0.000    0.000 
#    0.000    0.000    0.000    0.000    0.000    0.000 
#
# Total GULP energy -200426.720627 kJ/mol
# GULP energy per Si atom -5567.408906 kJ/mol
# Density = 2.280966 g / cm^3
# Si number density = 22.861692 Si / 1000 Ang^3
#
#
#
# Elastic Constant Matrix: (Units=GPa)
#
#
# Indices 1 2 3 4 5 6 
#
# 1 120.6233 21.2326 11.3778 0.0000 0.0000 0.0000
# 2 21.2326 97.4407 -14.9884 0.0000 0.0000 0.0000
# 3 11.3778 -14.9884 39.4735 0.0000 0.0000 0.0000
# 4 0.0000 0.0000 0.0000 52.3674 0.0000 0.0000
# 5 0.0000 0.0000 0.0000 0.0000 120.4632 0.0000
# 6 0.0000 0.0000 0.0000 0.0000 0.0000 70.4639
#
#
#
# Elastic Compliance Matrix: (Units=1/GPa)
#
#
# Indices 1 2 3 4 5 6 
#
# 1 0.009072 -0.002527 -0.003574 0.000000 0.000000 0.000000
# 2 -0.002527 0.011603 0.005134 0.000000 0.000000 0.000000
# 3 -0.003574 0.005134 0.028313 0.000000 0.000000 0.000000
# 4 0.000000 0.000000 0.000000 0.019096 0.000000 0.000000
# 5 0.000000 0.000000 0.000000 0.000000 0.008301 0.000000
# 6 0.000000 0.000000 0.000000 0.000000 0.000000 0.014192
#
#
# Mechanical properties :
#
#
# Convention : Reuss Voigt Hill
#
# Bulk Modulus (GPa) = 21.25210 32.53130 26.89170
# Shear Modulus (GPa) = 46.21254 64.65326 55.43290
#
# Velocity S-wave (km/s) = 4.50087 5.32368 4.92947
# Velocity P-wave (km/s) = 6.02715 7.21452 6.64740
#
# Compressibility (1/GPa) = 0.04705418
#
# Stress axis : x y z
#
# Youngs Moduli (GPa) = 110.22720 86.18516 35.31935
#
# Poissons Ratio (x) = 0.21776 0.12624
# Poissons Ratio (y) = 0.27851 -0.18133
# Poissons Ratio (z) = 0.39399 -0.44247
#
# Static dielectric constant tensor:
#      x y z
#    x 1.974430 0.000000 0.000000 
#    y 0.000000 1.849280 0.000000 
#    z 0.000000 0.000000 1.821120 
# 
# From -- ./inp_files/34863.got.cif
#   From: 2010.05.17/outbox.cif.g08.bks.cpg/sg64_18_cif.got.tgz:34863.got - 2010.06.03 16:29:19.
