data_PCOD9481777
_publ_section_title
;
Structure prediction by ZEFSAII (Michael W. Deem and Ramdas Pophale) SiO2 
 PCOD9481777
Probable space group: C M C A
;
_chemical_formula_sum "Si O2"
_cell_formula_units_Z 48
_cell_length_a 12.984117
_cell_length_b 12.809312
_cell_length_c 14.000173
_cell_angle_alpha 90.000000
_cell_angle_beta 90.000000
_cell_angle_gamma 90.000000
_cell_volume 2328.475253
_symmetry_space_group_name_H-M "C M C A"
_symmetry_group_IT_number 64
_symmetry_cell_setting 'orthorhombic'
loop_
_space_group_symop_operation_xyz
x,y,z
-x,1/2-y,1/2+z
x,-y,-z
-x,1/2+y,1/2-z
-x,-y,-z
x,1/2+y,1/2-z
-x,y,z
x,1/2-y,1/2+z
1/2+x,1/2+y,z
1/2-x,-y,1/2+z
1/2+x,1/2-y,-z
1/2-x,y,1/2-z
1/2-x,1/2-y,-z
1/2+x,y,1/2-z
1/2-x,1/2+y,z
1/2+x,-y,1/2+z
loop_
_atom_site_type_symbol
_atom_site_label
_atom_site_fract_x
_atom_site_fract_y
_atom_site_fract_z
Si Si1 0.677194 0.501512 0.335296
Si Si2 0.172383 0.000000 0.000000
Si Si3 0.000000 0.662644 0.206376
Si Si4 0.000000 0.141060 0.678789
Si Si5 0.000000 0.133875 0.900739
O O1 0.750000 0.463303 0.250000
O O2 0.752502 0.540219 0.417552
O O3 0.601253 0.592460 0.300201
O O4 0.601791 0.407430 0.367584
O O5 0.098664 0.912253 0.045565
O O6 0.000000 0.735919 0.300649
O O7 0.000000 0.742389 0.116342
O O8 0.000000 0.097042 0.789348
#
# Coordination Sequence:
#
# PCOD9481777 Si02
#       5
#    16   8   8   8   8
#     4  11  21  38  63  88 114 160 201 238 296 353
#     4  11  22  37  66  84 118 161 196 241 296 352
#     4   9  22  37  60  89 119 154 196 245 295 345
#     4   9  20  42  57  80 128 152 188 247 294 340
#     4   9  20  41  57  84 119 158 188 241 299 341
#
# _framework density 20.614348
#
# number of rings (size 3 to 8) (size 9 to 14) (size 15 to 20)
#    1.000    1.000    3.333    0.000    0.000    8.000 
#    0.000    3.333    0.000    0.000    0.000    0.000 
#    0.000    0.000    0.000    0.000    0.000    0.000 
#
# Total GULP energy -133816.901536 kJ/mol
# GULP energy per Si atom -5575.704231 kJ/mol
# Density = 2.056743 g / cm^3
# Si number density = 20.614348 Si / 1000 Ang^3
#
#
#
# Elastic Constant Matrix: (Units=GPa)
#
#
# Indices 1 2 3 4 5 6 
#
# 1 131.2585 26.0611 8.6281 0.0000 0.0000 0.0000
# 2 26.0611 69.4694 -24.7520 0.0000 0.0000 0.0000
# 3 8.6281 -24.7520 27.0553 0.0000 0.0000 0.0000
# 4 0.0000 0.0000 0.0000 18.5351 0.0000 0.0000
# 5 0.0000 0.0000 0.0000 0.0000 70.0194 0.0000
# 6 0.0000 0.0000 0.0000 0.0000 0.0000 5.6132
#
#
#
# Elastic Compliance Matrix: (Units=1/GPa)
#
#
# Indices 1 2 3 4 5 6 
#
# 1 0.009626 -0.006980 -0.009456 0.000000 0.000000 0.000000
# 2 -0.006980 0.026418 0.026395 0.000000 0.000000 0.000000
# 3 -0.009456 0.026395 0.064125 0.000000 0.000000 0.000000
# 4 0.000000 0.000000 0.000000 0.053952 0.000000 0.000000
# 5 0.000000 0.000000 0.000000 0.000000 0.014282 0.000000
# 6 0.000000 0.000000 0.000000 0.000000 0.000000 0.178151
#
#
# Mechanical properties :
#
#
# Convention : Reuss Voigt Hill
#
# Bulk Modulus (GPa) = 8.32735 27.51753 17.92244
# Shear Modulus (GPa) = 13.63646 33.35660 23.49653
#
# Velocity S-wave (km/s) = 2.57476 4.02696 3.37978
# Velocity P-wave (km/s) = 3.58992 5.91604 4.89321
#
# Compressibility (1/GPa) = 0.12008619
#
# Stress axis : x y z
#
# Youngs Moduli (GPa) = 103.88492 37.85306 15.59465
#
# Poissons Ratio (x) = 0.26422 0.14746
# Poissons Ratio (y) = 0.72514 -0.41162
# Poissons Ratio (z) = 0.98231 -0.99913
#
# Static dielectric constant tensor:
#      x y z
#    x 1.705670 0.000000 0.000000 
#    y 0.000000 1.753990 0.000000 
#    z 0.000000 0.000000 1.782510 
# 
# From -- ./inp_files/13697.got.cif
#   From: 2010.05.17/outbox.cif.g08.bks.cpg/sg64_7_cif.got.tgz:13697.got - 2010.06.03 16:29:19.
