data_PCOD9481291
_publ_section_title
;
Structure prediction by ZEFSAII (Michael W. Deem and Ramdas Pophale) SiO2 
 PCOD9481291
Probable space group: C M C A
;
_chemical_formula_sum "Si O2"
_cell_formula_units_Z 64
_cell_length_a 14.363006
_cell_length_b 15.445323
_cell_length_c 11.551354
_cell_angle_alpha 90.000000
_cell_angle_beta 90.000000
_cell_angle_gamma 90.000000
_cell_volume 2562.567006
_symmetry_space_group_name_H-M "C M C A"
_symmetry_group_IT_number 64
_symmetry_cell_setting 'orthorhombic'
loop_
_space_group_symop_operation_xyz
x,y,z
-x,1/2-y,1/2+z
x,-y,-z
-x,1/2+y,1/2-z
-x,-y,-z
x,1/2+y,1/2-z
-x,y,z
x,1/2-y,1/2+z
1/2+x,1/2+y,z
1/2-x,-y,1/2+z
1/2+x,1/2-y,-z
1/2-x,y,1/2-z
1/2-x,1/2-y,-z
1/2+x,y,1/2-z
1/2-x,1/2+y,z
1/2+x,-y,1/2+z
loop_
_atom_site_type_symbol
_atom_site_label
_atom_site_fract_x
_atom_site_fract_y
_atom_site_fract_z
Si Si1 0.102586 0.580520 0.116513
Si Si2 0.394925 0.100020 0.748784
Si Si3 0.148522 0.215045 0.191335
Si Si4 0.795443 0.401713 0.485558
O O1 0.121830 0.488386 0.180377
O O2 0.099577 0.652304 0.216709
O O3 0.000000 0.579196 0.061293
O O4 0.189012 0.598558 0.031741
O O5 0.500000 0.091430 0.699626
O O6 0.392077 0.189482 0.819044
O O7 0.320172 0.114591 0.646922
O O8 0.250000 0.220085 0.250000
O O9 0.154427 0.166810 0.068691
O O10 0.829870 0.500000 0.500000
#
# Coordination Sequence:
#
# PCOD9481291 Si02
#       4
#    16  16  16  16
#     4  10  23  45  71 107 149 191 245 312 372 434
#     4  11  25  45  74 107 149 197 244 306 378 444
#     4  10  23  42  72 105 145 192 242 308 363 436
#     4  11  24  45  78 104 142 198 248 301 368 447
#
# _framework density 24.974957
#
# number of rings (size 3 to 8) (size 9 to 14) (size 15 to 20)
#    0.000    1.500    2.500    0.750    3.500    7.000 
#    0.000    0.000    0.000    1.500    0.000    0.000 
#    0.000    0.000    0.000    0.000    0.000    0.000 
#
# Total GULP energy -179231.516898 kJ/mol
# GULP energy per Si atom -5600.984903 kJ/mol
# Density = 2.491811 g / cm^3
# Si number density = 24.974957 Si / 1000 Ang^3
#
#
#
# Elastic Constant Matrix: (Units=GPa)
#
#
# Indices 1 2 3 4 5 6 
#
# 1 148.4114 41.7641 58.1094 0.0000 0.0000 0.0000
# 2 41.7641 175.0471 53.3761 0.0000 0.0000 0.0000
# 3 58.1094 53.3761 113.8060 0.0000 0.0000 0.0000
# 4 0.0000 0.0000 0.0000 53.4555 0.0000 0.0000
# 5 0.0000 0.0000 0.0000 0.0000 24.0879 0.0000
# 6 0.0000 0.0000 0.0000 0.0000 0.0000 -13.6596
#
#
#
# Elastic Compliance Matrix: (Units=1/GPa)
#
#
# Indices 1 2 3 4 5 6 
#
# 1 0.008522 -0.000824 -0.003965 0.000000 0.000000 0.000000
# 2 -0.000824 0.006746 -0.002743 0.000000 0.000000 0.000000
# 3 -0.003965 -0.002743 0.012098 0.000000 0.000000 0.000000
# 4 0.000000 0.000000 0.000000 0.018707 0.000000 0.000000
# 5 0.000000 0.000000 0.000000 0.000000 0.041515 0.000000
# 6 0.000000 0.000000 0.000000 0.000000 0.000000 -0.073209
#
#
# Mechanical properties :
#
#
# Convention : Reuss Voigt Hill
#
# Bulk Modulus (GPa) = 81.28985 82.64041 81.96513
# Shear Modulus (GPa) = 149.05652 31.71109 90.38380
#
# Velocity S-wave (km/s) = 7.73382 3.56717 6.02232
# Velocity P-wave (km/s) = 10.60040 7.08007 9.01376
#
# Compressibility (1/GPa) = 0.01230166
#
# Stress axis : x y z
#
# Youngs Moduli (GPa) = 117.33725 148.24001 82.65931
#
# Poissons Ratio (x) = 0.12220 0.32774
# Poissons Ratio (y) = 0.09673 0.22673
# Poissons Ratio (z) = 0.46523 0.40661
#
# Static dielectric constant tensor:
#      x y z
#    x 1.997480 0.000000 0.000000 
#    y 0.000000 1.951970 0.000000 
#    z 0.000000 0.000000 1.982630 
# 
# From -- ./inp_files/14042.got.cif
#   From: 2010.05.17/outbox.cif.g08.bks.cpg/sg64_8_cif.got.tgz:14042.got - 2010.06.03 16:29:19.
