data_PCOD9481499
_publ_section_title
;
Structure prediction by ZEFSAII (Michael W. Deem and Ramdas Pophale) SiO2 
 PCOD9481499
Probable space group: C M C A
;
_chemical_formula_sum "Si O2"
_cell_formula_units_Z 56
_cell_length_a 27.581391
_cell_length_b 9.074498
_cell_length_c 8.989430
_cell_angle_alpha 90.000000
_cell_angle_beta 90.000000
_cell_angle_gamma 90.000000
_cell_volume 2249.939961
_symmetry_space_group_name_H-M "C M C A"
_symmetry_group_IT_number 64
_symmetry_cell_setting 'orthorhombic'
loop_
_space_group_symop_operation_xyz
x,y,z
-x,1/2-y,1/2+z
x,-y,-z
-x,1/2+y,1/2-z
-x,-y,-z
x,1/2+y,1/2-z
-x,y,z
x,1/2-y,1/2+z
1/2+x,1/2+y,z
1/2-x,-y,1/2+z
1/2+x,1/2-y,-z
1/2-x,y,1/2-z
1/2-x,1/2-y,-z
1/2+x,y,1/2-z
1/2-x,1/2+y,z
1/2+x,-y,1/2+z
loop_
_atom_site_type_symbol
_atom_site_label
_atom_site_fract_x
_atom_site_fract_y
_atom_site_fract_z
Si Si1 0.750000 0.997265 0.250000
Si Si2 0.053879 0.837819 0.576269
Si Si3 0.685365 0.500000 0.000000
Si Si4 0.822864 0.500000 0.000000
Si Si5 0.882993 0.266553 0.647276
O O1 0.716815 0.918115 0.372723
O O2 0.787580 0.069494 0.370283
O O3 0.097917 0.800783 0.688467
O O4 0.066604 0.729255 0.442531
O O5 0.000000 0.814892 0.637585
O O6 0.054390 0.000000 0.500000
O O7 0.652685 0.609870 0.090750
O O8 0.854961 0.382995 0.095220
#
# Coordination Sequence:
#
# PCOD9481499 Si02
#       5
#     8  16   8   8  16
#     4  10  24  44  66 108 146 202 246 316 360 456
#     4  11  26  48  75 109 150 193 248 310 375 451
#     4  11  26  42  71 104 154 196 257 308 380 437
#     4  11  24  44  73 104 156 196 253 304 380 441
#     4  12  25  47  73 112 147 202 246 315 373 457
#
# _framework density 24.889552999999999
#
# number of rings (size 3 to 8) (size 9 to 14) (size 15 to 20)
#    0.000    0.857    1.429    4.286    4.000    6.857 
#    0.000    1.429    0.000    0.000    0.000    0.000 
#    0.000    0.000    0.000    0.000    0.000    0.000 
#
# Total GULP energy -155896.825891 kJ/mol
# GULP energy per Si atom -5567.743782 kJ/mol
# Density = 2.483290 g / cm^3
# Si number density = 24.889553 Si / 1000 Ang^3
#
#
#
# Elastic Constant Matrix: (Units=GPa)
#
#
# Indices 1 2 3 4 5 6 
#
# 1 139.4264 39.1681 61.1801 0.0000 0.0000 0.0000
# 2 39.1681 77.5853 31.8181 0.0000 0.0000 0.0000
# 3 61.1801 31.8181 170.8092 0.0000 0.0000 0.0000
# 4 0.0000 0.0000 0.0000 21.9184 0.0000 0.0000
# 5 0.0000 0.0000 0.0000 0.0000 78.4819 0.0000
# 6 0.0000 0.0000 0.0000 0.0000 0.0000 69.4303
#
#
#
# Elastic Compliance Matrix: (Units=1/GPa)
#
#
# Indices 1 2 3 4 5 6 
#
# 1 0.009368 -0.003630 -0.002679 0.000000 0.000000 0.000000
# 2 -0.003630 0.015362 -0.001561 0.000000 0.000000 0.000000
# 3 -0.002679 -0.001561 0.007105 0.000000 0.000000 0.000000
# 4 0.000000 0.000000 0.000000 0.045624 0.000000 0.000000
# 5 0.000000 0.000000 0.000000 0.000000 0.012742 0.000000
# 6 0.000000 0.000000 0.000000 0.000000 0.000000 0.014403
#
#
# Mechanical properties :
#
#
# Convention : Reuss Voigt Hill
#
# Bulk Modulus (GPa) = 62.13832 72.46152 67.29992
# Shear Modulus (GPa) = 39.77437 51.00978 45.39208
#
# Velocity S-wave (km/s) = 4.00188 4.53199 4.27516
# Velocity P-wave (km/s) = 6.80979 7.52075 7.17408
#
# Compressibility (1/GPa) = 0.01609313
#
# Stress axis : x y z
#
# Youngs Moduli (GPa) = 106.75000 65.09512 140.74835
#
# Poissons Ratio (x) = 0.23633 0.37707
# Poissons Ratio (y) = 0.38756 0.21975
# Poissons Ratio (z) = 0.28598 0.10163
#
# Static dielectric constant tensor:
#      x y z
#    x 2.071730 0.000000 0.000000 
#    y 0.000000 1.937260 0.000000 
#    z 0.000000 0.000000 2.624470 
# 
# From -- ./inp_files/10824.got.cif
#   From: 2010.05.17/outbox.cif.g08.bks.cpg/sg64_6_cif.got.tgz:10824.got - 2010.06.03 16:29:19.
