data_PCOD9481564
_publ_section_title
;
Structure prediction by ZEFSAII (Michael W. Deem and Ramdas Pophale) SiO2 
 PCOD9481564
Probable space group: C M C A
;
_chemical_formula_sum "Si O2"
_cell_formula_units_Z 48
_cell_length_a 13.812795
_cell_length_b 25.005132
_cell_length_c 5.081067
_cell_angle_alpha 90.000000
_cell_angle_beta 90.000000
_cell_angle_gamma 90.000000
_cell_volume 1754.953604
_symmetry_space_group_name_H-M "C M C A"
_symmetry_group_IT_number 64
_symmetry_cell_setting 'orthorhombic'
loop_
_space_group_symop_operation_xyz
x,y,z
-x,1/2-y,1/2+z
x,-y,-z
-x,1/2+y,1/2-z
-x,-y,-z
x,1/2+y,1/2-z
-x,y,z
x,1/2-y,1/2+z
1/2+x,1/2+y,z
1/2-x,-y,1/2+z
1/2+x,1/2-y,-z
1/2-x,y,1/2-z
1/2-x,1/2-y,-z
1/2+x,y,1/2-z
1/2-x,1/2+y,z
1/2+x,-y,1/2+z
loop_
_atom_site_type_symbol
_atom_site_label
_atom_site_fract_x
_atom_site_fract_y
_atom_site_fract_z
Si Si1 0.196684 0.099391 0.969234
Si Si2 0.108045 0.938523 0.582013
Si Si3 0.884864 0.715243 0.555703
O O1 0.250000 0.079832 0.250000
O O2 0.105425 0.067808 0.099143
O O3 0.319944 0.091482 0.857139
O O4 0.174598 0.162274 0.004422
O O5 0.000000 0.919767 0.501955
O O6 0.122966 0.000000 0.500000
O O7 0.864701 0.761252 0.343006
O O8 0.000000 0.703243 0.536781
#
# Coordination Sequence:
#
# PCOD9481564 Si02
#       3
#    16  16  16
#     4  11  26  44  79 113 153 197 266 322 387 469
#     4  10  25  49  74 107 153 202 254 321 397 468
#     4  10  24  47  78 118 165 212 262 324 401 481
#
# _framework density 27.351153
#
# number of rings (size 3 to 8) (size 9 to 14) (size 15 to 20)
#    0.000    1.667    0.000    1.000   14.000    4.000 
#    0.000    3.333    0.000    2.000    0.000    0.000 
#    0.000    0.000    0.000    0.000    0.000    0.000 
#
# Total GULP energy -133929.135476 kJ/mol
# GULP energy per Si atom -5580.380645 kJ/mol
# Density = 2.728890 g / cm^3
# Si number density = 27.351153 Si / 1000 Ang^3
#
#
#
# Elastic Constant Matrix: (Units=GPa)
#
#
# Indices 1 2 3 4 5 6 
#
# 1 151.7203 54.9223 85.7402 0.0000 0.0000 0.0000
# 2 54.9223 112.4662 15.7495 0.0000 0.0000 0.0000
# 3 85.7402 15.7495 223.8705 0.0000 0.0000 0.0000
# 4 0.0000 0.0000 0.0000 41.8688 0.0000 0.0000
# 5 0.0000 0.0000 0.0000 0.0000 26.8534 0.0000
# 6 0.0000 0.0000 0.0000 0.0000 0.0000 75.7353
#
#
#
# Elastic Compliance Matrix: (Units=1/GPa)
#
#
# Indices 1 2 3 4 5 6 
#
# 1 0.010265 -0.004507 -0.003614 0.000000 0.000000 0.000000
# 2 -0.004507 0.010959 0.000955 0.000000 0.000000 0.000000
# 3 -0.003614 0.000955 0.005784 0.000000 0.000000 0.000000
# 4 0.000000 0.000000 0.000000 0.023884 0.000000 0.000000
# 5 0.000000 0.000000 0.000000 0.000000 0.037239 0.000000
# 6 0.000000 0.000000 0.000000 0.000000 0.000000 0.013204
#
#
# Mechanical properties :
#
#
# Convention : Reuss Voigt Hill
#
# Bulk Modulus (GPa) = 78.89161 88.98678 83.93919
# Shear Modulus (GPa) = 41.70415 51.00115 46.35265
#
# Velocity S-wave (km/s) = 3.90906 4.32288 4.12117
# Velocity P-wave (km/s) = 7.02004 7.58432 7.30763
#
# Compressibility (1/GPa) = 0.01267562
#
# Stress axis : x y z
#
# Youngs Moduli (GPa) = 97.41800 91.25204 172.89252
#
# Poissons Ratio (x) = 0.41125 0.62490
# Poissons Ratio (y) = 0.43904 -0.16513
# Poissons Ratio (z) = 0.35210 -0.08715
#
# Static dielectric constant tensor:
#      x y z
#    x 1.307990 0.000000 0.000000 
#    y 0.000000 1.992970 0.000000 
#    z 0.000000 0.000000 1.390660 
# 
# From -- ./inp_files/723.got.cif
#   From: 2010.05.17/outbox.cif.g08.bks.cpg/sg64_1_cif.got.tgz:723.got - 2010.06.03 16:29:19.
