data_PCOD9481373
_publ_section_title
;
Structure prediction by ZEFSAII (Michael W. Deem and Ramdas Pophale) SiO2 
 PCOD9481373
Probable space group: C M C A
;
_chemical_formula_sum "Si O2"
_cell_formula_units_Z 64
_cell_length_a 10.854039
_cell_length_b 13.504665
_cell_length_c 18.430555
_cell_angle_alpha 90.000000
_cell_angle_beta 90.000000
_cell_angle_gamma 90.000000
_cell_volume 2701.553712
_symmetry_space_group_name_H-M "C M C A"
_symmetry_group_IT_number 64
_symmetry_cell_setting 'orthorhombic'
loop_
_space_group_symop_operation_xyz
x,y,z
-x,1/2-y,1/2+z
x,-y,-z
-x,1/2+y,1/2-z
-x,-y,-z
x,1/2+y,1/2-z
-x,y,z
x,1/2-y,1/2+z
1/2+x,1/2+y,z
1/2-x,-y,1/2+z
1/2+x,1/2-y,-z
1/2-x,y,1/2-z
1/2-x,1/2-y,-z
1/2+x,y,1/2-z
1/2-x,1/2+y,z
1/2+x,-y,1/2+z
loop_
_atom_site_type_symbol
_atom_site_label
_atom_site_fract_x
_atom_site_fract_y
_atom_site_fract_z
Si Si1 0.783831 0.028990 0.082521
Si Si2 0.366025 0.757958 0.554190
Si Si3 0.215346 0.654553 0.668616
Si Si4 0.366166 0.628096 0.303137
O O1 0.841707 0.935817 0.124194
O O2 0.863013 0.128888 0.081258
O O3 0.662915 0.060362 0.127580
O O4 0.758027 0.000000 0.000000
O O5 0.500000 0.735407 0.522220
O O6 0.250000 0.750000 0.500000
O O7 0.334947 0.687486 0.621896
O O8 0.250000 0.624594 0.750000
O O9 0.139427 0.756319 0.674027
O O10 0.500000 0.605935 0.271454
O O11 0.250000 0.614733 0.250000
#
# Coordination Sequence:
#
# PCOD9481373 Si02
#       4
#    16  16  16  16
#     4  11  23  44  68 108 141 181 238 299 353 417
#     4  11  25  47  72 105 145 189 238 294 355 424
#     4  10  23  45  70 104 144 185 231 290 357 422
#     4  10  24  45  72 102 140 188 234 291 355 424
#
# _framework density 23.690069999999999
#
# number of rings (size 3 to 8) (size 9 to 14) (size 15 to 20)
#    0.000    1.500    2.500    0.750    0.000   17.000 
#    0.000    5.000    0.000    0.000    0.000    0.000 
#    0.000    0.000    0.000    0.000    0.000    0.000 
#
# Total GULP energy -178921.858319 kJ/mol
# GULP energy per Si atom -5591.308072 kJ/mol
# Density = 2.363615 g / cm^3
# Si number density = 23.690070 Si / 1000 Ang^3
#
#
#
# Elastic Constant Matrix: (Units=GPa)
#
#
# Indices 1 2 3 4 5 6 
#
# 1 180.2025 14.2877 52.8693 0.0000 0.0000 0.0000
# 2 14.2877 123.0238 51.6679 0.0000 0.0000 0.0000
# 3 52.8693 51.6679 167.3538 0.0000 0.0000 0.0000
# 4 0.0000 0.0000 0.0000 46.3609 0.0000 0.0000
# 5 0.0000 0.0000 0.0000 0.0000 21.8772 0.0000
# 6 0.0000 0.0000 0.0000 0.0000 0.0000 -14.1176
#
#
#
# Elastic Compliance Matrix: (Units=1/GPa)
#
#
# Indices 1 2 3 4 5 6 
#
# 1 0.006118 0.000116 -0.001969 0.000000 0.000000 0.000000
# 2 0.000116 0.009342 -0.002921 0.000000 0.000000 0.000000
# 3 -0.001969 -0.002921 0.007499 0.000000 0.000000 0.000000
# 4 0.000000 0.000000 0.000000 0.021570 0.000000 0.000000
# 5 0.000000 0.000000 0.000000 0.000000 0.045710 0.000000
# 6 0.000000 0.000000 0.000000 0.000000 0.000000 -0.070834
#
#
# Mechanical properties :
#
#
# Convention : Reuss Voigt Hill
#
# Bulk Modulus (GPa) = 74.55932 78.69221 76.62577
# Shear Modulus (GPa) = 149.60628 34.27446 91.94037
#
# Velocity S-wave (km/s) = 7.95541 3.80779 6.23650
# Velocity P-wave (km/s) = 10.76689 7.25409 9.18008
#
# Compressibility (1/GPa) = 0.01341214
#
# Stress axis : x y z
#
# Youngs Moduli (GPa) = 163.46169 107.04680 133.35085
#
# Poissons Ratio (x) = -0.01245 0.26251
# Poissons Ratio (y) = -0.01900 0.38950
# Poissons Ratio (z) = 0.32178 0.31267
#
# Static dielectric constant tensor:
#      x y z
#    x 1.903100 0.000000 0.000000 
#    y 0.000000 1.918610 0.000000 
#    z 0.000000 0.000000 1.917400 
# 
# From -- ./inp_files/30447.got.cif
#   From: 2010.05.17/outbox.cif.g08.bks.cpg/sg64_16_cif.got.tgz:30447.got - 2010.06.03 16:29:19.
