data_PCOD9481792
_publ_section_title
;
Structure prediction by ZEFSAII (Michael W. Deem and Ramdas Pophale) SiO2 
 PCOD9481792
Probable space group: C M C A
;
_chemical_formula_sum "Si O2"
_cell_formula_units_Z 96
_cell_length_a 29.730357
_cell_length_b 4.902095
_cell_length_c 32.066613
_cell_angle_alpha 90.000000
_cell_angle_beta 90.000000
_cell_angle_gamma 90.000000
_cell_volume 4673.421348
_symmetry_space_group_name_H-M "C M C A"
_symmetry_group_IT_number 64
_symmetry_cell_setting 'orthorhombic'
loop_
_space_group_symop_operation_xyz
x,y,z
-x,1/2-y,1/2+z
x,-y,-z
-x,1/2+y,1/2-z
-x,-y,-z
x,1/2+y,1/2-z
-x,y,z
x,1/2-y,1/2+z
1/2+x,1/2+y,z
1/2-x,-y,1/2+z
1/2+x,1/2-y,-z
1/2-x,y,1/2-z
1/2-x,1/2-y,-z
1/2+x,y,1/2-z
1/2-x,1/2+y,z
1/2+x,-y,1/2+z
loop_
_atom_site_type_symbol
_atom_site_label
_atom_site_fract_x
_atom_site_fract_y
_atom_site_fract_z
Si Si1 0.087270 0.758989 0.971399
Si Si2 0.367526 0.776764 0.613032
Si Si3 0.174027 0.178286 0.777556
Si Si4 0.000000 0.564332 0.420297
Si Si5 0.221959 0.571142 0.637652
Si Si6 0.500000 0.566951 0.360626
Si Si7 0.096741 0.765295 0.661833
O O1 0.119944 0.687011 0.933259
O O2 0.042681 0.872588 0.949124
O O3 0.077408 0.500000 0.000000
O O4 0.106387 0.000000 0.000000
O O5 0.373998 0.515544 0.642841
O O6 0.320219 0.931590 0.615465
O O7 0.401388 0.011397 0.629948
O O8 0.180259 0.484614 0.762000
O O9 0.207489 0.081228 0.813771
O O10 0.123813 0.164969 0.797476
O O11 0.000000 0.261819 0.401521
O O12 0.000000 0.766636 0.380338
O O13 0.264473 0.379655 0.628275
O O14 0.545673 0.631319 0.335500
#
# Coordination Sequence:
#
# PCOD9481792 Si02
#       7
#    16  16  16   8  16   8  16
#     4  12  23  37  58  89 128 163 199 256 320 368
#     4  11  22  41  61  85 123 162 208 251 304 376
#     4  11  23  39  60  90 126 153 185 245 309 363
#     4  12  22  37  56  91 126 158 206 268 304 357
#     4  11  23  40  65  92 115 153 199 248 304 371
#     4  12  20  37  62  85 118 166 220 256 282 351
#     4  11  21  39  61  85 119 170 212 245 295 361
#
# _framework density 20.541696000000002
#
# number of rings (size 3 to 8) (size 9 to 14) (size 15 to 20)
#    0.000    0.667    3.333    7.500    0.000    2.000 
#    0.000    0.833    0.000    3.000    0.000    0.000 
#    0.000    0.000    0.000    0.000    0.000    0.000 
#
# Total GULP energy -268300.518375 kJ/mol
# GULP energy per Si atom -5589.594133 kJ/mol
# Density = 2.049494 g / cm^3
# Si number density = 20.541696 Si / 1000 Ang^3
#
#
#
# Elastic Constant Matrix: (Units=GPa)
#
#
# Indices 1 2 3 4 5 6 
#
# 1 76.9282 1.6060 2.8648 0.0000 0.0000 0.0000
# 2 1.6060 75.4683 1.8552 0.0000 0.0000 0.0000
# 3 2.8648 1.8552 34.4210 0.0000 0.0000 0.0000
# 4 0.0000 0.0000 0.0000 30.4001 0.0000 0.0000
# 5 0.0000 0.0000 0.0000 0.0000 10.2080 0.0000
# 6 0.0000 0.0000 0.0000 0.0000 0.0000 28.6198
#
#
#
# Elastic Compliance Matrix: (Units=1/GPa)
#
#
# Indices 1 2 3 4 5 6 
#
# 1 0.013044 -0.000251 -0.001072 0.000000 0.000000 0.000000
# 2 -0.000251 0.013273 -0.000694 0.000000 0.000000 0.000000
# 3 -0.001072 -0.000694 0.029179 0.000000 0.000000 0.000000
# 4 0.000000 0.000000 0.000000 0.032895 0.000000 0.000000
# 5 0.000000 0.000000 0.000000 0.000000 0.097962 0.000000
# 6 0.000000 0.000000 0.000000 0.000000 0.000000 0.034941
#
#
# Mechanical properties :
#
#
# Convention : Reuss Voigt Hill
#
# Bulk Modulus (GPa) = 19.43244 22.16328 20.79786
# Shear Modulus (GPa) = 20.62002 25.87834 23.24918
#
# Velocity S-wave (km/s) = 3.17174 3.55321 3.36788
# Velocity P-wave (km/s) = 4.78474 5.25800 5.02694
#
# Compressibility (1/GPa) = 0.05146035
#
# Stress axis : x y z
#
# Youngs Moduli (GPa) = 76.66177 75.34084 34.27163
#
# Poissons Ratio (x) = 0.01893 0.03674
# Poissons Ratio (y) = 0.01926 0.02380
# Poissons Ratio (z) = 0.08219 0.05232
#
# Static dielectric constant tensor:
#      x y z
#    x 1.781010 0.000000 0.000000 
#    y 0.000000 1.719930 0.000000 
#    z 0.000000 0.000000 1.719550 
# 
# From -- ./inp_files/54062.got.cif
#   From: 2010.05.17/outbox.cif.g08.bks.cpg/sg64_28_cif.got.tgz:54062.got - 2010.06.03 16:29:19.
