data_PCOD9481421
_publ_section_title
;
Structure prediction by ZEFSAII (Michael W. Deem and Ramdas Pophale) SiO2 
 PCOD9481421
Probable space group: C M C A
;
_chemical_formula_sum "Si O2"
_cell_formula_units_Z 40
_cell_length_a 14.719903
_cell_length_b 13.175789
_cell_length_c 8.455051
_cell_angle_alpha 90.000000
_cell_angle_beta 90.000000
_cell_angle_gamma 90.000000
_cell_volume 1639.826162
_symmetry_space_group_name_H-M "C M C A"
_symmetry_group_IT_number 64
_symmetry_cell_setting 'orthorhombic'
loop_
_space_group_symop_operation_xyz
x,y,z
-x,1/2-y,1/2+z
x,-y,-z
-x,1/2+y,1/2-z
-x,-y,-z
x,1/2+y,1/2-z
-x,y,z
x,1/2-y,1/2+z
1/2+x,1/2+y,z
1/2-x,-y,1/2+z
1/2+x,1/2-y,-z
1/2-x,y,1/2-z
1/2-x,1/2-y,-z
1/2+x,y,1/2-z
1/2-x,1/2+y,z
1/2+x,-y,1/2+z
loop_
_atom_site_type_symbol
_atom_site_label
_atom_site_fract_x
_atom_site_fract_y
_atom_site_fract_z
Si Si1 0.250000 0.440036 0.250000
Si Si2 0.846993 0.634433 0.198160
Si Si3 0.098829 0.828028 0.044595
O O1 0.180319 0.518929 0.166031
O O2 0.184782 0.379985 0.369680
O O3 0.750000 0.681752 0.250000
O O4 0.901038 0.641126 0.361907
O O5 0.888288 0.706800 0.066261
O O6 0.000000 0.855773 0.114196
#
# Coordination Sequence:
#
# PCOD9481421 Si02
#       3
#     8  16  16
#     4  10  24  40  70  94 134 174 216 272 336 386
#     4  10  24  42  67  92 134 177 216 270 335 386
#     4  12  24  43  69 100 133 175 225 272 328 399
#
# _framework density 24.392828999999999
#
# number of rings (size 3 to 8) (size 9 to 14) (size 15 to 20)
#    1.200    0.000    2.000    3.600    0.000    4.800 
#    0.000    0.000    0.000    9.600    0.000    0.000 
#    0.000    0.000    0.000    0.000    0.000    0.000 
#
# Total GULP energy -111588.077392 kJ/mol
# GULP energy per Si atom -5579.403870 kJ/mol
# Density = 2.433731 g / cm^3
# Si number density = 24.392829 Si / 1000 Ang^3
#
#
#
# Elastic Constant Matrix: (Units=GPa)
#
#
# Indices 1 2 3 4 5 6 
#
# 1 144.4035 17.3214 13.3365 0.0000 0.0000 0.0000
# 2 17.3214 89.3580 9.1237 0.0000 0.0000 0.0000
# 3 13.3365 9.1237 58.9032 0.0000 0.0000 0.0000
# 4 0.0000 0.0000 0.0000 17.5892 0.0000 0.0000
# 5 0.0000 0.0000 0.0000 0.0000 29.7444 0.0000
# 6 0.0000 0.0000 0.0000 0.0000 0.0000 2.0317
#
#
#
# Elastic Compliance Matrix: (Units=1/GPa)
#
#
# Indices 1 2 3 4 5 6 
#
# 1 0.007208 -0.001250 -0.001438 0.000000 0.000000 0.000000
# 2 -0.001250 0.011588 -0.001512 0.000000 0.000000 0.000000
# 3 -0.001438 -0.001512 0.017537 0.000000 0.000000 0.000000
# 4 0.000000 0.000000 0.000000 0.056853 0.000000 0.000000
# 5 0.000000 0.000000 0.000000 0.000000 0.033620 0.000000
# 6 0.000000 0.000000 0.000000 0.000000 0.000000 0.492204
#
#
# Mechanical properties :
#
#
# Convention : Reuss Voigt Hill
#
# Bulk Modulus (GPa) = 35.80179 41.35866 38.58022
# Shear Modulus (GPa) = 7.85275 26.73193 17.29234
#
# Velocity S-wave (km/s) = 1.79618 3.31402 2.66543
# Velocity P-wave (km/s) = 4.36013 5.62456 5.03222
#
# Compressibility (1/GPa) = 0.02793157
#
# Stress axis : x y z
#
# Youngs Moduli (GPa) = 138.73758 86.29869 57.02289
#
# Poissons Ratio (x) = 0.10790 0.08202
# Poissons Ratio (y) = 0.17347 0.08620
# Poissons Ratio (z) = 0.19954 0.13046
#
# Static dielectric constant tensor:
#      x y z
#    x 1.938730 0.000000 0.000000 
#    y 0.000000 1.965730 0.000000 
#    z 0.000000 0.000000 1.929780 
# 
# From -- ./inp_files/4837.got.cif
#   From: 2010.05.17/outbox.cif.g08.bks.cpg/sg64_3_cif.got.tgz:4837.got - 2010.06.03 16:29:19.
