data_PCOD9481409
_publ_section_title
;
Structure prediction by ZEFSAII (Michael W. Deem and Ramdas Pophale) SiO2 
 PCOD9481409
Probable space group: C M C A
;
_chemical_formula_sum "Si O2"
_cell_formula_units_Z 104
_cell_length_a 27.420962
_cell_length_b 18.952818
_cell_length_c 7.934856
_cell_angle_alpha 90.000000
_cell_angle_beta 90.000000
_cell_angle_gamma 90.000000
_cell_volume 4123.780387
_symmetry_space_group_name_H-M "C M C A"
_symmetry_group_IT_number 64
_symmetry_cell_setting 'orthorhombic'
loop_
_space_group_symop_operation_xyz
x,y,z
-x,1/2-y,1/2+z
x,-y,-z
-x,1/2+y,1/2-z
-x,-y,-z
x,1/2+y,1/2-z
-x,y,z
x,1/2-y,1/2+z
1/2+x,1/2+y,z
1/2-x,-y,1/2+z
1/2+x,1/2-y,-z
1/2-x,y,1/2-z
1/2-x,1/2-y,-z
1/2+x,y,1/2-z
1/2-x,1/2+y,z
1/2+x,-y,1/2+z
loop_
_atom_site_type_symbol
_atom_site_label
_atom_site_fract_x
_atom_site_fract_y
_atom_site_fract_z
Si Si1 0.750000 0.733301 0.750000
Si Si2 0.306893 0.156493 0.446175
Si Si3 0.870319 0.886011 0.415916
Si Si4 0.554029 0.286041 0.255462
Si Si5 0.578256 0.856590 0.597504
Si Si6 0.230519 0.429807 0.064682
Si Si7 0.417592 0.977492 0.822916
O O1 0.707829 0.786821 0.690846
O O2 0.778882 0.688746 0.609715
O O3 0.363904 0.143475 0.445234
O O4 0.274694 0.085980 0.437635
O O5 0.903033 0.820727 0.364779
O O6 0.813067 0.873211 0.421032
O O7 0.883369 0.916683 0.598499
O O8 0.887249 0.950710 0.290805
O O9 0.500000 0.299605 0.327603
O O10 0.563808 0.202451 0.262840
O O11 0.555709 0.323994 0.073903
O O12 0.561707 0.934268 0.664515
O O13 0.250000 0.442585 0.250000
O O14 0.204594 0.500000 0.000000
O O15 0.445451 0.000000 0.000000
#
# Coordination Sequence:
#
# PCOD9481409 Si02
#       7
#     8  16  16  16  16  16  16
#     4  10  24  40  58  96 146 178 242 270 342 416
#     4  11  25  40  66 101 140 193 231 286 343 427
#     4   9  22  46  67  98 146 187 237 302 364 427
#     4  12  27  47  75 105 141 187 248 315 379 447
#     4  12  25  44  73 106 146 191 244 307 372 438
#     4  12  25  39  64 100 143 191 239 283 339 425
#     4   8  21  44  71  98 137 189 234 288 374 433
#
# _framework density 25.219577999999998
#
# number of rings (size 3 to 8) (size 9 to 14) (size 15 to 20)
#    0.923    0.308    2.308    3.231    9.692    0.615 
#    0.000    4.615    0.000    0.000    0.000    0.000 
#    0.000    0.000    0.000    0.000    0.000    0.000 
#
# Total GULP energy -290064.774119 kJ/mol
# GULP energy per Si atom -5578.168733 kJ/mol
# Density = 2.516218 g / cm^3
# Si number density = 25.219578 Si / 1000 Ang^3
#
#
#
# Elastic Constant Matrix: (Units=GPa)
#
#
# Indices 1 2 3 4 5 6 
#
# 1 165.8147 18.3108 17.9896 0.0000 0.0000 0.0000
# 2 18.3108 79.4189 11.2466 0.0000 0.0000 0.0000
# 3 17.9896 11.2466 58.0392 0.0000 0.0000 0.0000
# 4 0.0000 0.0000 0.0000 50.1093 0.0000 0.0000
# 5 0.0000 0.0000 0.0000 0.0000 4.2531 0.0000
# 6 0.0000 0.0000 0.0000 0.0000 0.0000 96.2940
#
#
#
# Elastic Compliance Matrix: (Units=1/GPa)
#
#
# Indices 1 2 3 4 5 6 
#
# 1 0.006354 -0.001219 -0.001733 0.000000 0.000000 0.000000
# 2 -0.001219 0.013181 -0.002176 0.000000 0.000000 0.000000
# 3 -0.001733 -0.002176 0.018189 0.000000 0.000000 0.000000
# 4 0.000000 0.000000 0.000000 0.019956 0.000000 0.000000
# 5 0.000000 0.000000 0.000000 0.000000 0.235125 0.000000
# 6 0.000000 0.000000 0.000000 0.000000 0.000000 0.010385
#
#
# Mechanical properties :
#
#
# Convention : Reuss Voigt Hill
#
# Bulk Modulus (GPa) = 36.40908 44.26297 40.33603
# Shear Modulus (GPa) = 15.49898 47.17965 31.33932
#
# Velocity S-wave (km/s) = 2.48172 4.32991 3.52896
# Velocity P-wave (km/s) = 4.76236 6.52585 5.71257
#
# Compressibility (1/GPa) = 0.02746568
#
# Stress axis : x y z
#
# Youngs Moduli (GPa) = 157.39331 75.86804 54.97956
#
# Poissons Ratio (x) = 0.09252 0.09528
# Poissons Ratio (y) = 0.19193 0.11964
# Poissons Ratio (z) = 0.27276 0.16510
#
# Static dielectric constant tensor:
#      x y z
#    x 1.916180 0.000000 0.000000 
#    y 0.000000 2.097460 0.000000 
#    z 0.000000 0.000000 2.243650 
# 
# From -- ./inp_files/10420.got.cif
#   From: 2010.05.17/outbox.cif.g08.bks.cpg/sg64_6_cif.got.tgz:10420.got - 2010.06.03 16:29:19.
