data_PCOD9481752
_publ_section_title
;
Structure prediction by ZEFSAII (Michael W. Deem and Ramdas Pophale) SiO2 
 PCOD9481752
Probable space group: C M C A
;
_chemical_formula_sum "Si O2"
_cell_formula_units_Z 80
_cell_length_a 17.022683
_cell_length_b 7.053136
_cell_length_c 27.052150
_cell_angle_alpha 90.000000
_cell_angle_beta 90.000000
_cell_angle_gamma 90.000000
_cell_volume 3247.970355
_symmetry_space_group_name_H-M "C M C A"
_symmetry_group_IT_number 64
_symmetry_cell_setting 'orthorhombic'
loop_
_space_group_symop_operation_xyz
x,y,z
-x,1/2-y,1/2+z
x,-y,-z
-x,1/2+y,1/2-z
-x,-y,-z
x,1/2+y,1/2-z
-x,y,z
x,1/2-y,1/2+z
1/2+x,1/2+y,z
1/2-x,-y,1/2+z
1/2+x,1/2-y,-z
1/2-x,y,1/2-z
1/2-x,1/2-y,-z
1/2+x,y,1/2-z
1/2-x,1/2+y,z
1/2+x,-y,1/2+z
loop_
_atom_site_type_symbol
_atom_site_label
_atom_site_fract_x
_atom_site_fract_y
_atom_site_fract_z
Si Si1 0.827131 0.887661 0.887647
Si Si2 0.830915 0.025952 0.220005
Si Si3 0.914138 0.331528 0.808023
Si Si4 0.156223 0.222271 0.009639
Si Si5 0.643660 0.829377 0.907154
O O1 0.837201 0.844872 0.829235
O O2 0.859397 0.753541 0.931827
O O3 0.733696 0.892614 0.898354
O O4 0.859370 0.099773 0.897740
O O5 0.750000 0.036950 0.250000
O O6 0.900048 0.042544 0.260075
O O7 0.843350 0.816812 0.198707
O O8 0.904394 0.419059 0.862197
O O9 0.000000 0.242512 0.806726
O O10 0.250000 0.250000 0.000000
O O11 0.120005 0.342516 0.964588
O O12 0.139227 0.000000 0.000000
#
# Coordination Sequence:
#
# PCOD9481752 Si02
#       5
#    16  16  16  16  16
#     4   9  17  28  49  76  99 123 166 216 249 287
#     4  11  21  35  55  76 102 134 179 216 250 300
#     4  11  23  36  51  75 108 140 169 210 263 311
#     4   8  14  26  44  70 100 121 154 205 256 289
#     4   9  17  30  49  72 101 128 164 205 255 298
#
# _framework density 24.630766999999999
#
# number of rings (size 3 to 8) (size 9 to 14) (size 15 to 20)
#    0.000    2.400    2.000    1.200    2.800    0.000 
#    0.000    0.000    0.000   16.200    0.000    0.000 
#    0.000   23.200    0.000    0.000    0.000    0.000 
#
# Total GULP energy -222922.585090 kJ/mol
# GULP energy per Si atom -5573.064627 kJ/mol
# Density = 2.457471 g / cm^3
# Si number density = 24.630767 Si / 1000 Ang^3
#
#
#
# Elastic Constant Matrix: (Units=GPa)
#
#
# Indices 1 2 3 4 5 6 
#
# 1 47.7667 1.4771 47.2965 0.0000 0.0000 0.0000
# 2 1.4771 45.6387 37.9899 0.0000 0.0000 0.0000
# 3 47.2965 37.9899 280.1997 0.0000 0.0000 0.0000
# 4 0.0000 0.0000 0.0000 40.5058 0.0000 0.0000
# 5 0.0000 0.0000 0.0000 0.0000 2.8103 0.0000
# 6 0.0000 0.0000 0.0000 0.0000 0.0000 8.7806
#
#
#
# Elastic Compliance Matrix: (Units=1/GPa)
#
#
# Indices 1 2 3 4 5 6 
#
# 1 0.025522 0.003111 -0.004730 0.000000 0.000000 0.000000
# 2 0.003111 0.025078 -0.003925 0.000000 0.000000 0.000000
# 3 -0.004730 -0.003925 0.004899 0.000000 0.000000 0.000000
# 4 0.000000 0.000000 0.000000 0.024688 0.000000 0.000000
# 5 0.000000 0.000000 0.000000 0.000000 0.355832 0.000000
# 6 0.000000 0.000000 0.000000 0.000000 0.000000 0.113888
#
#
# Mechanical properties :
#
#
# Convention : Reuss Voigt Hill
#
# Bulk Modulus (GPa) = 22.51661 60.79243 41.65452
# Shear Modulus (GPa) = 8.68358 29.54211 19.11285
#
# Velocity S-wave (km/s) = 1.87967 3.46699 2.78865
# Velocity P-wave (km/s) = 3.72456 6.38450 5.22657
#
# Compressibility (1/GPa) = 0.04441165
#
# Stress axis : x y z
#
# Youngs Moduli (GPa) = 39.18158 39.87573 204.10450
#
# Poissons Ratio (x) = -0.12406 0.96538
# Poissons Ratio (y) = -0.12190 0.80116
# Poissons Ratio (z) = 0.18532 0.15652
#
# Static dielectric constant tensor:
#      x y z
#    x 1.869470 0.000000 0.000000 
#    y 0.000000 2.099390 0.000000 
#    z 0.000000 0.000000 2.331640 
# 
# From -- ./inp_files/49891.got.cif
#   From: 2010.05.17/outbox.cif.g08.bks.cpg/sg64_25_cif.got.tgz:49891.got - 2010.06.03 16:29:19.
