data_PCOD9481294
_publ_section_title
;
Structure prediction by ZEFSAII (Michael W. Deem and Ramdas Pophale) SiO2 
 PCOD9481294
Probable space group: C M C A
;
_chemical_formula_sum "Si O2"
_cell_formula_units_Z 112
_cell_length_a 14.035962
_cell_length_b 23.739233
_cell_length_c 15.669535
_cell_angle_alpha 90.000000
_cell_angle_beta 90.000000
_cell_angle_gamma 90.000000
_cell_volume 5221.135637
_symmetry_space_group_name_H-M "C M C A"
_symmetry_group_IT_number 64
_symmetry_cell_setting 'orthorhombic'
loop_
_space_group_symop_operation_xyz
x,y,z
-x,1/2-y,1/2+z
x,-y,-z
-x,1/2+y,1/2-z
-x,-y,-z
x,1/2+y,1/2-z
-x,y,z
x,1/2-y,1/2+z
1/2+x,1/2+y,z
1/2-x,-y,1/2+z
1/2+x,1/2-y,-z
1/2-x,y,1/2-z
1/2-x,1/2-y,-z
1/2+x,y,1/2-z
1/2-x,1/2+y,z
1/2+x,-y,1/2+z
loop_
_atom_site_type_symbol
_atom_site_label
_atom_site_fract_x
_atom_site_fract_y
_atom_site_fract_z
Si Si1 0.245859 0.653004 0.388307
Si Si2 0.114730 0.319985 0.258114
Si Si3 0.613752 0.306335 0.746034
Si Si4 0.398186 0.034176 0.600511
Si Si5 0.388163 0.840117 0.455852
Si Si6 0.204833 0.974501 0.586882
Si Si7 0.607547 0.565336 0.701525
O O1 0.331801 0.687428 0.344130
O O2 0.164463 0.652356 0.313908
O O3 0.189385 0.675073 0.471871
O O4 0.294300 0.592283 0.405457
O O5 0.133936 0.257767 0.223828
O O6 0.138869 0.322182 0.359078
O O7 0.152123 0.371697 0.199940
O O8 0.000000 0.327854 0.257673
O O9 0.500000 0.314444 0.739793
O O10 0.500000 0.006914 0.587241
O O11 0.388258 0.091640 0.547668
O O12 0.395914 0.054390 0.697989
O O13 0.314797 0.991452 0.587256
O O14 0.500000 0.822901 0.472196
O O15 0.161942 0.000000 0.500000
O O16 0.160352 0.012832 0.660559
O O17 0.500000 0.566637 0.666460
#
# Coordination Sequence:
#
# PCOD9481294 Si02
#       7
#    16  16  16  16  16  16  16
#     4  11  24  39  57  92 127 163 209 242 306 380
#     4   8  17  40  69  94 118 152 212 269 311 358
#     4  10  23  43  63  88 127 167 201 252 312 379
#     4   9  19  36  60  88 112 151 205 257 305 342
#     4   9  17  36  64  92 121 150 200 268 308 345
#     4  12  24  39  56  89 132 163 204 257 298 373
#     4   9  20  39  66  92 115 157 206 254 314 362
#
# _framework density 21.451271999999999
#
# number of rings (size 3 to 8) (size 9 to 14) (size 15 to 20)
#    0.000    2.286    1.429    2.571    4.000    2.857 
#   10.286    1.429    0.000    3.429    0.000    0.000 
#    0.000    0.000    0.000    0.000    0.000    0.000 
#
# Total GULP energy -312218.624280 kJ/mol
# GULP energy per Si atom -5575.332576 kJ/mol
# Density = 2.140245 g / cm^3
# Si number density = 21.451272 Si / 1000 Ang^3
#
#
#
# Elastic Constant Matrix: (Units=GPa)
#
#
# Indices 1 2 3 4 5 6 
#
# 1 88.2683 7.6066 10.8238 0.0000 0.0000 0.0000
# 2 7.6066 78.2018 5.8604 0.0000 0.0000 0.0000
# 3 10.8238 5.8604 49.0564 0.0000 0.0000 0.0000
# 4 0.0000 0.0000 0.0000 24.2275 0.0000 0.0000
# 5 0.0000 0.0000 0.0000 0.0000 7.5565 0.0000
# 6 0.0000 0.0000 0.0000 0.0000 0.0000 20.1389
#
#
#
# Elastic Compliance Matrix: (Units=1/GPa)
#
#
# Indices 1 2 3 4 5 6 
#
# 1 0.011714 -0.000954 -0.002471 0.000000 0.000000 0.000000
# 2 -0.000954 0.012981 -0.001340 0.000000 0.000000 0.000000
# 3 -0.002471 -0.001340 0.021090 0.000000 0.000000 0.000000
# 4 0.000000 0.000000 0.000000 0.041275 0.000000 0.000000
# 5 0.000000 0.000000 0.000000 0.000000 0.132337 0.000000
# 6 0.000000 0.000000 0.000000 0.000000 0.000000 0.049655
#
#
# Mechanical properties :
#
#
# Convention : Reuss Voigt Hill
#
# Bulk Modulus (GPa) = 27.58261 29.34535 28.46398
# Shear Modulus (GPa) = 17.20181 23.13362 20.16772
#
# Velocity S-wave (km/s) = 2.83486 3.28750 3.06954
# Velocity P-wave (km/s) = 4.85813 5.30282 5.08534
#
# Compressibility (1/GPa) = 0.03625473
#
# Stress axis : x y z
#
# Youngs Moduli (GPa) = 85.36578 77.03758 47.41603
#
# Poissons Ratio (x) = 0.07352 0.11715
# Poissons Ratio (y) = 0.08146 0.06354
# Poissons Ratio (z) = 0.21091 0.10324
#
# Static dielectric constant tensor:
#      x y z
#    x 1.837960 0.000000 0.000000 
#    y 0.000000 1.814290 0.000000 
#    z 0.000000 0.000000 1.902990 
# 
# From -- ./inp_files/24240.got.cif
#   From: 2010.05.17/outbox.cif.g08.bks.cpg/sg64_13_cif.got.tgz:24240.got - 2010.06.03 16:29:19.
