data_PCOD9481002
_publ_section_title
;
Structure prediction by ZEFSAII (Michael W. Deem and Ramdas Pophale) SiO2 
 PCOD9481002
Probable space group: C M C A
;
_chemical_formula_sum "Si O2"
_cell_formula_units_Z 64
_cell_length_a 20.637694
_cell_length_b 10.430833
_cell_length_c 13.410935
_cell_angle_alpha 90.000000
_cell_angle_beta 90.000000
_cell_angle_gamma 90.000000
_cell_volume 2886.949710
_symmetry_space_group_name_H-M "C M C A"
_symmetry_group_IT_number 64
_symmetry_cell_setting 'orthorhombic'
loop_
_space_group_symop_operation_xyz
x,y,z
-x,1/2-y,1/2+z
x,-y,-z
-x,1/2+y,1/2-z
-x,-y,-z
x,1/2+y,1/2-z
-x,y,z
x,1/2-y,1/2+z
1/2+x,1/2+y,z
1/2-x,-y,1/2+z
1/2+x,1/2-y,-z
1/2-x,y,1/2-z
1/2-x,1/2-y,-z
1/2+x,y,1/2-z
1/2-x,1/2+y,z
1/2+x,-y,1/2+z
loop_
_atom_site_type_symbol
_atom_site_label
_atom_site_fract_x
_atom_site_fract_y
_atom_site_fract_z
Si Si1 0.000000 0.100949 0.864547
Si Si2 0.364687 0.755897 0.609800
Si Si3 0.750000 0.215573 0.250000
Si Si4 0.500000 0.816156 0.711438
Si Si5 0.792995 0.633760 0.043882
Si Si6 0.112050 0.500000 0.500000
O O1 0.000000 0.238437 0.813798
O O2 0.936348 0.083782 0.932156
O O3 0.000000 0.972116 0.793836
O O4 0.309054 0.715971 0.690036
O O5 0.435295 0.766801 0.656414
O O6 0.360087 0.666132 0.512744
O O7 0.351206 0.902105 0.572143
O O8 0.787683 0.139728 0.337473
O O9 0.771827 0.500000 0.000000
O O10 0.750000 0.750000 0.000000
#
# Coordination Sequence:
#
# PCOD9481002 Si02
#       6
#     8  16   8   8  16   8
#     4   9  20  40  68  94 125 173 231 265 338 404
#     4  10  23  43  65  98 134 173 228 277 339 401
#     4  10  24  42  66  98 128 178 216 276 336 402
#     4  10  22  42  67 100 127 179 223 278 338 404
#     4  10  24  43  64  96 133 174 223 280 338 399
#     4   9  20  40  66  90 128 181 214 272 338 417
#
# _framework density 22.168728000000002
#
# number of rings (size 3 to 8) (size 9 to 14) (size 15 to 20)
#    0.000    2.250    0.000    0.750   10.500    8.000 
#    0.000    0.625    0.000    0.000    0.000    0.000 
#    0.000    0.000    0.000    0.000    0.000    0.000 
#
# Total GULP energy -178270.783075 kJ/mol
# GULP energy per Si atom -5570.961971 kJ/mol
# Density = 2.211827 g / cm^3
# Si number density = 22.168728 Si / 1000 Ang^3
#
#
#
# Elastic Constant Matrix: (Units=GPa)
#
#
# Indices 1 2 3 4 5 6 
#
# 1 86.6304 8.3164 12.9195 0.0000 0.0000 0.0000
# 2 8.3164 71.7214 26.9268 0.0000 0.0000 0.0000
# 3 12.9195 26.9268 130.0175 0.0000 0.0000 0.0000
# 4 0.0000 0.0000 0.0000 30.7010 0.0000 0.0000
# 5 0.0000 0.0000 0.0000 0.0000 -10.3500 0.0000
# 6 0.0000 0.0000 0.0000 0.0000 0.0000 32.8657
#
#
#
# Elastic Compliance Matrix: (Units=1/GPa)
#
#
# Indices 1 2 3 4 5 6 
#
# 1 0.011783 -0.001005 -0.000963 0.000000 0.000000 0.000000
# 2 -0.001005 0.015204 -0.003049 0.000000 0.000000 0.000000
# 3 -0.000963 -0.003049 0.008418 0.000000 0.000000 0.000000
# 4 0.000000 0.000000 0.000000 0.032572 0.000000 0.000000
# 5 0.000000 0.000000 0.000000 0.000000 -0.096618 0.000000
# 6 0.000000 0.000000 0.000000 0.000000 0.000000 0.030427
#
#
# Mechanical properties :
#
#
# Convention : Reuss Voigt Hill
#
# Bulk Modulus (GPa) = 39.41254 42.74384 41.07819
# Shear Modulus (GPa) = 246.58433 26.65712 136.62072
#
# Velocity S-wave (km/s) = 10.55804 3.47142 7.85885
# Velocity P-wave (km/s) = 12.90142 5.94901 10.04583
#
# Compressibility (1/GPa) = 0.02537264
#
# Stress axis : x y z
#
# Youngs Moduli (GPa) = 84.86556 65.77198 118.78775
#
# Poissons Ratio (x) = 0.06609 0.11436
# Poissons Ratio (y) = 0.08528 0.36218
# Poissons Ratio (z) = 0.08171 0.20053
#
# Static dielectric constant tensor:
#      x y z
#    x 1.968760 0.000000 0.000000 
#    y 0.000000 1.811520 0.000000 
#    z 0.000000 0.000000 1.871860 
# 
# From -- ./inp_files/17936.got.cif
#   From: 2010.05.17/outbox.cif.g08.bks.cpg/sg64_9_cif.got.tgz:17936.got - 2010.06.03 16:29:19.
