data_PCOD9481337
_publ_section_title
;
Structure prediction by ZEFSAII (Michael W. Deem and Ramdas Pophale) SiO2 
 PCOD9481337
Probable space group: C M C A
;
_chemical_formula_sum "Si O2"
_cell_formula_units_Z 64
_cell_length_a 23.228771
_cell_length_b 11.672396
_cell_length_c 9.147125
_cell_angle_alpha 90.000000
_cell_angle_beta 90.000000
_cell_angle_gamma 90.000000
_cell_volume 2480.109521
_symmetry_space_group_name_H-M "C M C A"
_symmetry_group_IT_number 64
_symmetry_cell_setting 'orthorhombic'
loop_
_space_group_symop_operation_xyz
x,y,z
-x,1/2-y,1/2+z
x,-y,-z
-x,1/2+y,1/2-z
-x,-y,-z
x,1/2+y,1/2-z
-x,y,z
x,1/2-y,1/2+z
1/2+x,1/2+y,z
1/2-x,-y,1/2+z
1/2+x,1/2-y,-z
1/2-x,y,1/2-z
1/2-x,1/2-y,-z
1/2+x,y,1/2-z
1/2-x,1/2+y,z
1/2+x,-y,1/2+z
loop_
_atom_site_type_symbol
_atom_site_label
_atom_site_fract_x
_atom_site_fract_y
_atom_site_fract_z
Si Si1 0.500000 0.505085 0.673739
Si Si2 0.876215 0.901149 0.696620
Si Si3 0.707133 0.426441 0.132142
Si Si4 0.500000 0.867331 0.440696
Si Si5 0.120861 0.260155 0.536482
O O1 0.500000 0.500000 0.500000
O O2 0.440713 0.445808 0.719318
O O3 0.500000 0.623280 0.763785
O O4 0.869880 0.865764 0.527968
O O5 0.832273 0.988287 0.770766
O O6 0.872066 0.784599 0.793063
O O7 0.750000 0.372194 0.250000
O O8 0.667315 0.339687 0.043997
O O9 0.735853 0.500000 0.000000
O O10 0.557245 0.802763 0.491216
O O11 0.500000 0.000000 0.500000
#
# Coordination Sequence:
#
# PCOD9481337 Si02
#       5
#     8  16  16   8  16
#     4  12  25  38  64  97 129 165 209 251 312 376
#     4  11  24  42  63  97 128 167 212 258 317 380
#     4  10  23  44  66  89 123 168 214 266 323 377
#     4  12  19  42  66  85 131 171 198 254 314 374
#     4  11  23  40  66  92 129 169 208 261 318 376
#
# _framework density 25.805311
#
# number of rings (size 3 to 8) (size 9 to 14) (size 15 to 20)
#    0.000    1.000    5.000    1.500    3.500    4.000 
#    0.000    5.000    0.000    0.000    0.000    0.000 
#    0.000    0.000    0.000    0.000    0.000    0.000 
#
# Total GULP energy -179313.528162 kJ/mol
# GULP energy per Si atom -5603.547755 kJ/mol
# Density = 2.574658 g / cm^3
# Si number density = 25.805311 Si / 1000 Ang^3
#
#
#
# Elastic Constant Matrix: (Units=GPa)
#
#
# Indices 1 2 3 4 5 6 
#
# 1 97.2147 7.0753 28.1064 0.0000 0.0000 0.0000
# 2 7.0753 51.0840 -0.8396 0.0000 0.0000 0.0000
# 3 28.1064 -0.8396 118.7831 0.0000 0.0000 0.0000
# 4 0.0000 0.0000 0.0000 51.8839 0.0000 0.0000
# 5 0.0000 0.0000 0.0000 0.0000 26.6380 0.0000
# 6 0.0000 0.0000 0.0000 0.0000 0.0000 -18.6963
#
#
#
# Elastic Compliance Matrix: (Units=1/GPa)
#
#
# Indices 1 2 3 4 5 6 
#
# 1 0.011170 -0.001591 -0.002654 0.000000 0.000000 0.000000
# 2 -0.001591 0.019804 0.000516 0.000000 0.000000 0.000000
# 3 -0.002654 0.000516 0.009050 0.000000 0.000000 0.000000
# 4 0.000000 0.000000 0.000000 0.019274 0.000000 0.000000
# 5 0.000000 0.000000 0.000000 0.000000 0.037540 0.000000
# 6 0.000000 0.000000 0.000000 0.000000 0.000000 -0.053487
#
#
# Mechanical properties :
#
#
# Convention : Reuss Voigt Hill
#
# Bulk Modulus (GPa) = 30.70549 37.30733 34.00641
# Shear Modulus (GPa) = 81.08348 27.48110 54.28229
#
# Velocity S-wave (km/s) = 5.61155 3.26688 4.59140
# Velocity P-wave (km/s) = 7.34239 5.35898 6.42765
#
# Compressibility (1/GPa) = 0.03256746
#
# Stress axis : x y z
#
# Youngs Moduli (GPa) = 89.52826 50.49381 110.49242
#
# Poissons Ratio (x) = 0.08032 0.29327
# Poissons Ratio (y) = 0.14241 -0.05705
# Poissons Ratio (z) = 0.23763 -0.02607
#
# Static dielectric constant tensor:
#      x y z
#    x 2.022820 0.000000 0.000000 
#    y 0.000000 2.048870 0.000000 
#    z 0.000000 0.000000 2.022950 
# 
# From -- ./inp_files/8989.got.cif
#   From: 2010.05.17/outbox.cif.g08.bks.cpg/sg64_5_cif.got.tgz:8989.got - 2010.06.03 16:29:19.
