data_PCOD9481327
_publ_section_title
;
Structure prediction by ZEFSAII (Michael W. Deem and Ramdas Pophale) SiO2 
 PCOD9481327
Probable space group: C M C A
;
_chemical_formula_sum "Si O2"
_cell_formula_units_Z 80
_cell_length_a 23.022046
_cell_length_b 11.935951
_cell_length_c 14.022371
_cell_angle_alpha 90.000000
_cell_angle_beta 90.000000
_cell_angle_gamma 90.000000
_cell_volume 3853.207509
_symmetry_space_group_name_H-M "C M C A"
_symmetry_group_IT_number 64
_symmetry_cell_setting 'orthorhombic'
loop_
_space_group_symop_operation_xyz
x,y,z
-x,1/2-y,1/2+z
x,-y,-z
-x,1/2+y,1/2-z
-x,-y,-z
x,1/2+y,1/2-z
-x,y,z
x,1/2-y,1/2+z
1/2+x,1/2+y,z
1/2-x,-y,1/2+z
1/2+x,1/2-y,-z
1/2-x,y,1/2-z
1/2-x,1/2-y,-z
1/2+x,y,1/2-z
1/2-x,1/2+y,z
1/2+x,-y,1/2+z
loop_
_atom_site_type_symbol
_atom_site_label
_atom_site_fract_x
_atom_site_fract_y
_atom_site_fract_z
Si Si1 0.651285 0.763072 0.889975
Si Si2 0.158371 0.591589 0.291929
Si Si3 0.636522 0.680635 0.600997
Si Si4 0.243552 0.068019 0.901750
Si Si5 0.568085 0.400436 0.227706
O O1 0.670252 0.851840 0.810083
O O2 0.704771 0.680305 0.913170
O O3 0.601039 0.687733 0.841412
O O4 0.630726 0.820309 0.987413
O O5 0.149900 0.693103 0.365701
O O6 0.207950 0.510032 0.330187
O O7 0.099517 0.519192 0.287290
O O8 0.692775 0.607195 0.629041
O O9 0.583462 0.637558 0.664552
O O10 0.248040 0.000000 0.000000
O O11 0.500000 0.403680 0.210362
#
# Coordination Sequence:
#
# PCOD9481327 Si02
#       5
#    16  16  16  16  16
#     4  10  23  43  69 100 134 174 223 271 340 396
#     4  10  24  43  64  95 139 173 218 271 336 391
#     4  11  24  42  66 100 133 174 218 275 335 400
#     4  11  23  41  67  98 139 169 214 264 330 415
#     4  10  25  45  67  95 129 176 234 281 330 390
#
# _framework density 20.761924
#
# number of rings (size 3 to 8) (size 9 to 14) (size 15 to 20)
#    0.000    1.600    2.000    0.600    2.800   12.800 
#    0.000    2.000    0.000    0.000    0.000    0.000 
#    0.000    0.000    0.000    0.000    0.000    0.000 
#
# Total GULP energy -223960.343800 kJ/mol
# GULP energy per Si atom -5599.008595 kJ/mol
# Density = 2.071467 g / cm^3
# Si number density = 20.761924 Si / 1000 Ang^3
#
#
#
# Elastic Constant Matrix: (Units=GPa)
#
#
# Indices 1 2 3 4 5 6 
#
# 1 100.3843 39.1395 10.0173 0.0000 0.0000 0.0000
# 2 39.1395 103.2253 27.2101 0.0000 0.0000 0.0000
# 3 10.0173 27.2101 110.3070 0.0000 0.0000 0.0000
# 4 0.0000 0.0000 0.0000 40.6083 0.0000 0.0000
# 5 0.0000 0.0000 0.0000 0.0000 19.3218 0.0000
# 6 0.0000 0.0000 0.0000 0.0000 0.0000 12.7400
#
#
#
# Elastic Compliance Matrix: (Units=1/GPa)
#
#
# Indices 1 2 3 4 5 6 
#
# 1 0.011690 -0.004441 0.000034 0.000000 0.000000 0.000000
# 2 -0.004441 0.012049 -0.002569 0.000000 0.000000 0.000000
# 3 0.000034 -0.002569 0.009696 0.000000 0.000000 0.000000
# 4 0.000000 0.000000 0.000000 0.024625 0.000000 0.000000
# 5 0.000000 0.000000 0.000000 0.000000 0.051755 0.000000
# 6 0.000000 0.000000 0.000000 0.000000 0.000000 0.078493
#
#
# Mechanical properties :
#
#
# Convention : Reuss Voigt Hill
#
# Bulk Modulus (GPa) = 51.32817 51.85003 51.58910
# Shear Modulus (GPa) = 23.95149 30.37067 27.16108
#
# Velocity S-wave (km/s) = 3.40019 3.82881 3.62085
# Velocity P-wave (km/s) = 6.33964 6.67640 6.51019
#
# Compressibility (1/GPa) = 0.01948248
#
# Stress axis : x y z
#
# Youngs Moduli (GPa) = 85.54311 82.99648 103.13346
#
# Poissons Ratio (x) = 0.36862 -0.00351
# Poissons Ratio (y) = 0.37993 0.26493
# Poissons Ratio (z) = -0.00291 0.21320
#
# Static dielectric constant tensor:
#      x y z
#    x 1.688300 0.000000 0.000000 
#    y 0.000000 1.754120 0.000000 
#    z 0.000000 0.000000 1.760030 
# 
# From -- ./inp_files/27048.got.cif
#   From: 2010.05.17/outbox.cif.g08.bks.cpg/sg64_14_cif.got.tgz:27048.got - 2010.06.03 16:29:19.
