data_PCOD9481864
_publ_section_title
;
Structure prediction by ZEFSAII (Michael W. Deem and Ramdas Pophale) SiO2 
 PCOD9481864
Probable space group: C M C A
;
_chemical_formula_sum "Si O2"
_cell_formula_units_Z 96
_cell_length_a 23.759286
_cell_length_b 17.015831
_cell_length_c 11.010046
_cell_angle_alpha 90.000000
_cell_angle_beta 90.000000
_cell_angle_gamma 90.000000
_cell_volume 4451.185385
_symmetry_space_group_name_H-M "C M C A"
_symmetry_group_IT_number 64
_symmetry_cell_setting 'orthorhombic'
loop_
_space_group_symop_operation_xyz
x,y,z
-x,1/2-y,1/2+z
x,-y,-z
-x,1/2+y,1/2-z
-x,-y,-z
x,1/2+y,1/2-z
-x,y,z
x,1/2-y,1/2+z
1/2+x,1/2+y,z
1/2-x,-y,1/2+z
1/2+x,1/2-y,-z
1/2-x,y,1/2-z
1/2-x,1/2-y,-z
1/2+x,y,1/2-z
1/2-x,1/2+y,z
1/2+x,-y,1/2+z
loop_
_atom_site_type_symbol
_atom_site_label
_atom_site_fract_x
_atom_site_fract_y
_atom_site_fract_z
Si Si1 0.702180 0.790162 0.141061
Si Si2 0.207962 0.420892 0.936687
Si Si3 0.616877 0.383129 0.217130
Si Si4 0.000000 0.045758 0.820232
Si Si5 0.173724 0.544052 0.313172
Si Si6 0.381326 0.165485 0.448131
Si Si7 0.000000 0.627660 0.410331
O O1 0.750000 0.785938 0.250000
O O2 0.643557 0.826900 0.185787
O O3 0.676122 0.708092 0.094456
O O4 0.717067 0.848593 0.028968
O O5 0.172048 0.407447 0.813713
O O6 0.267121 0.447032 0.879328
O O7 0.184722 0.500000 0.000000
O O8 0.556776 0.421893 0.240430
O O9 0.661940 0.453523 0.209444
O O10 0.616172 0.334724 0.092350
O O11 0.000000 0.950929 0.827273
O O12 0.000000 0.086779 0.954779
O O13 0.127294 0.575998 0.404428
O O14 0.443988 0.180960 0.398429
#
# Coordination Sequence:
#
# PCOD9481864 Si02
#       7
#    16  16  16   8  16  16   8
#     4  12  27  42  61  95 140 179 211 260 332 395
#     4  11  23  40  61  91 127 168 215 261 316 387
#     4  11  22  42  67  97 127 168 221 278 319 382
#     4   9  18  37  70  96 121 157 222 282 325 360
#     4  11  22  38  66  92 120 169 217 269 320 376
#     4  11  24  39  66  93 131 165 217 268 330 385
#     4   9  18  39  64  97 119 162 219 277 320 381
#
# _framework density 21.567288999999999
#
# number of rings (size 3 to 8) (size 9 to 14) (size 15 to 20)
#    0.000    1.167    3.333    3.500    4.667    2.000 
#    0.000    0.000    0.000    4.000    0.000    0.000 
#    0.000    0.000    0.000    0.000    0.000    0.000 
#
# Total GULP energy -267622.955222 kJ/mol
# GULP energy per Si atom -5575.478234 kJ/mol
# Density = 2.151820 g / cm^3
# Si number density = 21.567289 Si / 1000 Ang^3
#
#
#
# Elastic Constant Matrix: (Units=GPa)
#
#
# Indices 1 2 3 4 5 6 
#
# 1 116.9900 20.1328 31.0828 0.0000 0.0000 0.0000
# 2 20.1328 63.8574 12.1977 0.0000 0.0000 0.0000
# 3 31.0828 12.1977 59.0279 0.0000 0.0000 0.0000
# 4 0.0000 0.0000 0.0000 26.1668 0.0000 0.0000
# 5 0.0000 0.0000 0.0000 0.0000 21.9484 0.0000
# 6 0.0000 0.0000 0.0000 0.0000 0.0000 37.0376
#
#
#
# Elastic Compliance Matrix: (Units=1/GPa)
#
#
# Indices 1 2 3 4 5 6 
#
# 1 0.010250 -0.002291 -0.004924 0.000000 0.000000 0.000000
# 2 -0.002291 0.016816 -0.002268 0.000000 0.000000 0.000000
# 3 -0.004924 -0.002268 0.020003 0.000000 0.000000 0.000000
# 4 0.000000 0.000000 0.000000 0.038216 0.000000 0.000000
# 5 0.000000 0.000000 0.000000 0.000000 0.045561 0.000000
# 6 0.000000 0.000000 0.000000 0.000000 0.000000 0.027000
#
#
# Mechanical properties :
#
#
# Convention : Reuss Voigt Hill
#
# Bulk Modulus (GPa) = 35.58539 40.74466 38.16502
# Shear Modulus (GPa) = 26.85568 28.79469 27.82519
#
# Velocity S-wave (km/s) = 3.53257 3.65788 3.59577
# Velocity P-wave (km/s) = 5.75971 6.06407 5.91385
#
# Compressibility (1/GPa) = 0.02810142
#
# Stress axis : x y z
#
# Youngs Moduli (GPa) = 97.55813 59.46888 49.99297
#
# Poissons Ratio (x) = 0.13625 0.24617
# Poissons Ratio (y) = 0.22352 0.11340
# Poissons Ratio (z) = 0.48039 0.13490
#
# Static dielectric constant tensor:
#      x y z
#    x 1.846280 0.000000 0.000000 
#    y 0.000000 1.842430 0.000000 
#    z 0.000000 0.000000 1.836120 
# 
# From -- ./inp_files/18411.got.cif
#   From: 2010.05.17/outbox.cif.g08.bks.cpg/sg64_10_cif.got.tgz:18411.got - 2010.06.03 16:29:19.
