data_PCOD9481013
_publ_section_title
;
Structure prediction by ZEFSAII (Michael W. Deem and Ramdas Pophale) SiO2 
 PCOD9481013
Probable space group: C M C A
;
_chemical_formula_sum "Si O2"
_cell_formula_units_Z 80
_cell_length_a 28.993450
_cell_length_b 7.557917
_cell_length_c 13.510675
_cell_angle_alpha 90.000000
_cell_angle_beta 90.000000
_cell_angle_gamma 90.000000
_cell_volume 2960.595410
_symmetry_space_group_name_H-M "C M C A"
_symmetry_group_IT_number 64
_symmetry_cell_setting 'orthorhombic'
loop_
_space_group_symop_operation_xyz
x,y,z
-x,1/2-y,1/2+z
x,-y,-z
-x,1/2+y,1/2-z
-x,-y,-z
x,1/2+y,1/2-z
-x,y,z
x,1/2-y,1/2+z
1/2+x,1/2+y,z
1/2-x,-y,1/2+z
1/2+x,1/2-y,-z
1/2-x,y,1/2-z
1/2-x,1/2-y,-z
1/2+x,y,1/2-z
1/2-x,1/2+y,z
1/2+x,-y,1/2+z
loop_
_atom_site_type_symbol
_atom_site_label
_atom_site_fract_x
_atom_site_fract_y
_atom_site_fract_z
Si Si1 0.300183 0.527374 0.751958
Si Si2 0.052905 0.628458 0.110799
Si Si3 0.603745 0.189261 0.449088
Si Si4 0.901166 0.939556 0.222246
Si Si5 0.205640 0.724646 0.926014
O O1 0.250000 0.616548 0.750000
O O2 0.347670 0.620455 0.784373
O O3 0.302674 0.534608 0.630813
O O4 0.294518 0.375144 0.836487
O O5 0.067592 0.682407 0.000977
O O6 0.086213 0.492971 0.167003
O O7 0.000000 0.577377 0.119551
O O8 0.062632 0.810921 0.171488
O O9 0.598471 0.128385 0.335993
O O10 0.656122 0.241604 0.475442
O O11 0.596577 0.000000 0.500000
O O12 0.250000 0.750000 0.000000
#
# Coordination Sequence:
#
# PCOD9481013 Si02
#       5
#    16  16  16  16  16
#     4  11  25  45  69 105 144 190 241 293 350 438
#     4  11  23  41  68  99 132 177 231 287 351 415
#     4   9  22  42  65  96 131 175 232 284 344 419
#     4  10  22  42  68  93 137 177 227 286 346 412
#     4  11  26  44  72 102 144 192 240 290 360 420
#
# _framework density 27.021592999999999
#
# number of rings (size 3 to 8) (size 9 to 14) (size 15 to 20)
#    0.000    1.600    0.000    3.600   11.200    4.400 
#    0.000    4.000    0.000    6.000    0.000    0.000 
#    0.000    0.000    0.000    0.000    0.000    0.000 
#
# Total GULP energy -223010.795221 kJ/mol
# GULP energy per Si atom -5575.269881 kJ/mol
# Density = 2.696009 g / cm^3
# Si number density = 27.021593 Si / 1000 Ang^3
#
#
#
# Elastic Constant Matrix: (Units=GPa)
#
#
# Indices 1 2 3 4 5 6 
#
# 1 144.0662 5.6054 31.2836 0.0000 0.0000 0.0000
# 2 5.6054 59.6624 19.1184 0.0000 0.0000 0.0000
# 3 31.2836 19.1184 161.7732 0.0000 0.0000 0.0000
# 4 0.0000 0.0000 0.0000 52.3760 0.0000 0.0000
# 5 0.0000 0.0000 0.0000 0.0000 38.8100 0.0000
# 6 0.0000 0.0000 0.0000 0.0000 0.0000 31.1451
#
#
#
# Elastic Compliance Matrix: (Units=1/GPa)
#
#
# Indices 1 2 3 4 5 6 
#
# 1 0.007249 -0.000241 -0.001373 0.000000 0.000000 0.000000
# 2 -0.000241 0.017429 -0.002013 0.000000 0.000000 0.000000
# 3 -0.001373 -0.002013 0.006685 0.000000 0.000000 0.000000
# 4 0.000000 0.000000 0.000000 0.019093 0.000000 0.000000
# 5 0.000000 0.000000 0.000000 0.000000 0.025767 0.000000
# 6 0.000000 0.000000 0.000000 0.000000 0.000000 0.032108
#
#
# Mechanical properties :
#
#
# Convention : Reuss Voigt Hill
#
# Bulk Modulus (GPa) = 41.48048 53.05738 47.26893
# Shear Modulus (GPa) = 40.44643 45.09918 42.77280
#
# Velocity S-wave (km/s) = 3.87307 4.08978 3.98290
# Velocity P-wave (km/s) = 5.94854 6.47916 6.21951
#
# Compressibility (1/GPa) = 0.02410772
#
# Stress axis : x y z
#
# Youngs Moduli (GPa) = 137.95317 57.37657 149.58922
#
# Poissons Ratio (x) = 0.01383 0.20543
# Poissons Ratio (y) = 0.03324 0.30114
# Poissons Ratio (z) = 0.18945 0.11551
#
# Static dielectric constant tensor:
#      x y z
#    x 1.989390 0.000000 0.000000 
#    y 0.000000 2.269770 0.000000 
#    z 0.000000 0.000000 2.416470 
# 
# From -- ./inp_files/19609.got.cif
#   From: 2010.05.17/outbox.cif.g08.bks.cpg/sg64_10_cif.got.tgz:19609.got - 2010.06.03 16:29:19.
