data_PCOD9482894
_publ_section_title
;
Structure prediction by ZEFSAII (Michael W. Deem and Ramdas Pophale) SiO2 
 PCOD9482894
Probable space group: C M M M
;
_chemical_formula_sum "Si O2"
_cell_formula_units_Z 96
_cell_length_a 29.346468
_cell_length_b 7.707545
_cell_length_c 21.685517
_cell_angle_alpha 90.000000
_cell_angle_beta 90.000000
_cell_angle_gamma 90.000000
_cell_volume 4905.030234
_symmetry_space_group_name_H-M "C M M M"
_symmetry_group_IT_number 65
_symmetry_cell_setting 'orthorhombic'
loop_
_space_group_symop_operation_xyz
x,y,z
-x,-y,z
x,-y,-z
-x,y,-z
-x,-y,-z
x,y,-z
-x,y,z
x,-y,z
1/2+x,1/2+y,z
1/2-x,1/2-y,z
1/2+x,1/2-y,-z
1/2-x,1/2+y,-z
1/2-x,1/2-y,-z
1/2+x,1/2+y,-z
1/2-x,1/2+y,z
1/2+x,1/2-y,z
loop_
_atom_site_type_symbol
_atom_site_label
_atom_site_fract_x
_atom_site_fract_y
_atom_site_fract_z
Si Si1 0.947135 0.211787 0.069092
Si Si2 0.396587 0.295779 0.432913
Si Si3 0.552917 0.287398 0.310791
Si Si4 0.698993 0.793031 0.618162
Si Si5 0.300785 0.205991 0.759566
Si Si6 0.104541 0.205265 0.188745
O O1 0.915735 0.275178 0.124912
O O2 0.000000 0.258584 0.080321
O O3 0.945535 0.000000 0.068185
O O4 0.934409 0.269841 0.000000
O O5 0.408139 0.220435 0.500000
O O6 0.407743 0.500000 0.434949
O O7 0.422559 0.224296 0.373107
O O8 0.342656 0.279161 0.420898
O O9 0.500000 0.239467 0.309135
O O10 0.555162 0.500000 0.310859
O O11 0.579271 0.225122 0.249822
O O12 0.750000 0.750000 0.596476
O O13 0.694721 0.725795 0.688990
O O14 0.694429 0.000000 0.618891
O O15 0.250000 0.250000 0.781254
O O16 0.341824 0.271765 0.801198
O O17 0.304778 0.000000 0.756238
O O18 0.094939 0.000000 0.187953
#
# Coordination Sequence:
#
# PCOD9482894 Si02
#       6
#    16  16  16  16  16  16
#     4   8  14  25  44  75 111 140 168 203 242 286
#     4  10  20  33  49  70  98 130 163 202 247 292
#     4   9  17  29  47  72  98 125 163 206 242 281
#     4  10  20  34  53  73  96 125 159 201 250 301
#     4  10  20  33  51  75 101 128 161 203 250 297
#     4  10  17  28  51  77 102 132 165 203 245 287
#
# _framework density 19.571745
#
# number of rings (size 3 to 8) (size 9 to 14) (size 15 to 20)
#    0.000    2.500    1.667    2.000    0.000    4.333 
#    0.000    1.667    0.000    4.500    0.000    2.333 
#    0.000    0.000    0.000    0.000    0.000    0.000 
#
# Total GULP energy -267868.686810 kJ/mol
# GULP energy per Si atom -5580.597642 kJ/mol
# Density = 1.952720 g / cm^3
# Si number density = 19.571745 Si / 1000 Ang^3
#
#
#
# Elastic Constant Matrix: (Units=GPa)
#
#
# Indices 1 2 3 4 5 6 
#
# 1 114.7776 -11.0164 93.4058 0.0000 0.0000 0.0000
# 2 -11.0164 31.6897 8.6178 0.0000 0.0000 0.0000
# 3 93.4058 8.6178 167.4322 0.0000 0.0000 0.0000
# 4 0.0000 0.0000 0.0000 -0.4326 0.0000 0.0000
# 5 0.0000 0.0000 0.0000 0.0000 15.8205 0.0000
# 6 0.0000 0.0000 0.0000 0.0000 0.0000 12.7544
#
#
#
# Elastic Compliance Matrix: (Units=1/GPa)
#
#
# Indices 1 2 3 4 5 6 
#
# 1 0.018296 0.009266 -0.010684 0.000000 0.000000 0.000000
# 2 0.009266 0.036697 -0.007058 0.000000 0.000000 0.000000
# 3 -0.010684 -0.007058 0.012296 0.000000 0.000000 0.000000
# 4 0.000000 0.000000 0.000000 -2.311728 0.000000 0.000000
# 5 0.000000 0.000000 0.000000 0.000000 0.063209 0.000000
# 6 0.000000 0.000000 0.000000 0.000000 0.000000 0.078404
#
#
# Mechanical properties :
#
#
# Convention : Reuss Voigt Hill
#
# Bulk Modulus (GPa) = 19.86609 55.10155 37.48382
# Shear Modulus (GPa) = -2.41652 20.48795 9.03572
#
# Velocity S-wave (km/s) = -1.11237 3.23896 2.15099
# Velocity P-wave (km/s) = 2.91935 6.49635 5.03613
#
# Compressibility (1/GPa) = 0.05033703
#
# Stress axis : x y z
#
# Youngs Moduli (GPa) = 54.65530 27.25051 81.32612
#
# Poissons Ratio (x) = -0.25250 0.86889
# Poissons Ratio (y) = -0.50643 0.57400
# Poissons Ratio (z) = 0.58394 0.19233
#
# Static dielectric constant tensor:
#      x y z
#    x 1.646210 0.000000 0.000000 
#    y 0.000000 1.727520 0.000000 
#    z 0.000000 0.000000 1.705510 
# 
# From -- ./inp_files/60166.got.cif
#   From: 2010.05.17/outbox.cif.g08.bks.cpg/sg65_31_cif.got.tgz:60166.got - 2010.06.03 17:01:31.
