data_PCOD9482474
_publ_section_title
;
Structure prediction by ZEFSAII (Michael W. Deem and Ramdas Pophale) SiO2 
 PCOD9482474
Probable space group: C M C A
;
_chemical_formula_sum "Si O2"
_cell_formula_units_Z 32
_cell_length_a 18.000000
_cell_length_b 12.000000
_cell_length_c 15.000000
_cell_angle_alpha 90.000000
_cell_angle_beta 90.000000
_cell_angle_gamma 90.000000
_cell_volume 3240.000000
_symmetry_space_group_name_H-M "C M C A"
_symmetry_group_IT_number 64
_symmetry_cell_setting 'orthorhombic'
loop_
_space_group_symop_operation_xyz
x,y,z
-x,1/2-y,1/2+z
x,-y,-z
-x,1/2+y,1/2-z
-x,-y,-z
x,1/2+y,1/2-z
-x,y,z
x,1/2-y,1/2+z
1/2+x,1/2+y,z
1/2-x,-y,1/2+z
1/2+x,1/2-y,-z
1/2-x,y,1/2-z
1/2-x,1/2-y,-z
1/2+x,y,1/2-z
1/2-x,1/2+y,z
1/2+x,-y,1/2+z
loop_
_atom_site_type_symbol
_atom_site_label
_atom_site_fract_x
_atom_site_fract_y
_atom_site_fract_z
Si Si1 0.086658 0.781967 0.924476
Si Si2 0.670755 0.098941 0.572959
Si Si3 0.157203 0.552499 0.900908
Si Si4 0.910777 0.472832 0.722535
O O1 0.102378 0.657236 0.893908
O O2 0.103287 0.864849 0.841215
O O3 0.000000 0.800756 0.948463
O O4 0.138689 0.801612 0.011803
O O5 0.757056 0.096268 0.602519
O O6 0.662805 0.000000 0.500000
O O7 0.620229 0.072172 0.658855
O O8 0.134182 0.475424 0.816262
O O9 0.148664 0.500000 0.000000
O O10 0.000000 0.480715 0.736939
#
# Coordination Sequence:
#
# PCOD9482474 Si02
#       4
#    16  16  16  16
#     4  10  21  38  61  87 116 154 198 242 292 348
#     4   9  19  38  61  85 112 148 194 242 289 344
#     4  11  23  38  58  87 122 154 191 243 297 349
#     4  10  21  38  59  83 113 151 195 240 289 349
#
# _framework density 9.8765429999999999
#
# number of rings (size 3 to 8) (size 9 to 14) (size 15 to 20)
#    0.000    2.000    0.000    3.000    0.000    7.000 
#    0.000   10.000    0.000    0.000    0.000    0.000 
#    0.000    0.000    0.000    0.000    0.000    0.000 
#
# Total GULP energy -178501.635032 kJ/mol
# GULP energy per Si atom -5578.176095 kJ/mol
# Density = 0.985406 g / cm^3
# Si number density = 9.876543 Si / 1000 Ang^3
#
#
#
# Elastic Constant Matrix: (Units=GPa)
#
#
# Indices 1 2 3 4 5 6 
#
# 1 108.3491 12.0230 62.2387 0.0000 0.0000 0.0000
# 2 12.0230 51.3674 21.1889 0.0000 0.0000 0.0000
# 3 62.2387 21.1889 142.9736 0.0000 0.0000 0.0000
# 4 0.0000 0.0000 0.0000 26.5348 0.0000 0.0000
# 5 0.0000 0.0000 0.0000 0.0000 42.2335 0.0000
# 6 0.0000 0.0000 0.0000 0.0000 0.0000 26.3826
#
#
#
# Elastic Compliance Matrix: (Units=1/GPa)
#
#
# Indices 1 2 3 4 5 6 
#
# 1 0.012332 -0.000716 -0.005262 0.000000 0.000000 0.000000
# 2 -0.000716 0.020777 -0.002768 0.000000 0.000000 0.000000
# 3 -0.005262 -0.002768 0.009695 0.000000 0.000000 0.000000
# 4 0.000000 0.000000 0.000000 0.037686 0.000000 0.000000
# 5 0.000000 0.000000 0.000000 0.000000 0.023678 0.000000
# 6 0.000000 0.000000 0.000000 0.000000 0.000000 0.037904
#
#
# Mechanical properties :
#
#
# Convention : Reuss Voigt Hill
#
# Bulk Modulus (GPa) = 39.50589 54.84348 47.17469
# Shear Modulus (GPa) = 29.76196 32.84613 31.30405
#
# Velocity S-wave (km/s) = 3.88583 4.08221 3.98523
# Velocity P-wave (km/s) = 6.33847 7.07418 6.71641
#
# Compressibility (1/GPa) = 0.02531268
#
# Stress axis : x y z
#
# Youngs Moduli (GPa) = 81.09311 48.13076 103.14486
#
# Poissons Ratio (x) = 0.03445 0.54275
# Poissons Ratio (y) = 0.05804 0.28546
# Poissons Ratio (z) = 0.42671 0.13321
#
# Static dielectric constant tensor:
#      x y z
#    x 1.701370 0.000000 0.000000 
#    y 0.000000 1.750280 0.000000 
#    z 0.000000 0.000000 1.680280 
# 
# From -- ./inp_files/15466.got.cif
#   From: 2010.05.17/outbox.ucp.g08.bks.cvg/sg64_8_cif.got.tgz:15466.got - 2010.06.11 16:36:46.
