data_PCOD9482826
_publ_section_title
;
Structure prediction by ZEFSAII (Michael W. Deem and Ramdas Pophale) SiO2 
 PCOD9482826
Probable space group: C M M M
;
_chemical_formula_sum "Si O2"
_cell_formula_units_Z 112
_cell_length_a 29.489642
_cell_length_b 14.602946
_cell_length_c 14.349189
_cell_angle_alpha 90.000000
_cell_angle_beta 90.000000
_cell_angle_gamma 90.000000
_cell_volume 6179.272327
_symmetry_space_group_name_H-M "C M M M"
_symmetry_group_IT_number 65
_symmetry_cell_setting 'orthorhombic'
loop_
_space_group_symop_operation_xyz
x,y,z
-x,-y,z
x,-y,-z
-x,y,-z
-x,-y,-z
x,y,-z
-x,y,z
x,-y,z
1/2+x,1/2+y,z
1/2-x,1/2-y,z
1/2+x,1/2-y,-z
1/2-x,1/2+y,-z
1/2-x,1/2-y,-z
1/2+x,1/2+y,-z
1/2-x,1/2+y,z
1/2+x,1/2-y,z
loop_
_atom_site_type_symbol
_atom_site_label
_atom_site_fract_x
_atom_site_fract_y
_atom_site_fract_z
Si Si1 0.208856 0.131953 0.394835
Si Si2 0.687705 0.848696 0.605052
Si Si3 0.411261 0.604880 0.889139
Si Si4 0.274267 0.111734 0.891914
Si Si5 0.865304 0.390823 0.788496
Si Si6 0.948805 0.704442 0.110866
Si Si7 0.818156 0.896863 0.194431
O O1 0.198109 0.101145 0.500000
O O2 0.262062 0.110141 0.376882
O O3 0.198886 0.240555 0.394305
O O4 0.181976 0.098011 0.305655
O O5 0.674045 0.874538 0.500000
O O6 0.650803 0.872359 0.682422
O O7 0.421585 0.500000 0.857465
O O8 0.446743 0.685790 0.872508
O O9 0.364828 0.641599 0.843342
O O10 0.404382 0.599859 0.000000
O O11 0.321407 0.142537 0.847241
O O12 0.229117 0.145774 0.839358
O O13 0.274979 0.000000 0.884254
O O14 0.271514 0.135793 0.000000
O O15 0.870075 0.500000 0.800932
O O16 0.910662 0.343530 0.826297
O O17 0.000000 0.671545 0.129003
O O18 0.938923 0.689736 0.000000
O O19 0.818177 0.000000 0.154779
#
# Coordination Sequence:
#
# PCOD9482826 Si02
#       7
#    16  16  16  16  16  16  16
#     4   9  17  29  45  67 101 143 180 214 252 296
#     4   9  18  32  49  70  99 136 177 219 258 299
#     4   9  18  33  54  79 106 137 172 211 258 313
#     4   9  17  28  42  65 100 139 174 206 241 290
#     4  11  21  34  53  76 104 140 179 219 261 309
#     4  10  22  39  57  78 103 131 170 221 272 322
#     4  10  17  27  45  71 105 140 169 205 249 296
#
# _framework density 18.125112000000001
#
# number of rings (size 3 to 8) (size 9 to 14) (size 15 to 20)
#    0.000    2.429    1.429    2.571    0.000    3.714 
#    0.000    3.571    0.000    3.857    0.000    1.000 
#    0.000    0.000    0.000   12.286    0.000    0.286 
#
# Total GULP energy -312192.222973 kJ/mol
# GULP energy per Si atom -5574.861125 kJ/mol
# Density = 1.808386 g / cm^3
# Si number density = 18.125112 Si / 1000 Ang^3
#
#
#
# Elastic Constant Matrix: (Units=GPa)
#
#
# Indices 1 2 3 4 5 6 
#
# 1 103.4809 25.2690 45.1804 0.0000 0.0000 0.0000
# 2 25.2690 67.3148 13.8901 0.0000 0.0000 0.0000
# 3 45.1804 13.8901 75.0410 0.0000 0.0000 0.0000
# 4 0.0000 0.0000 0.0000 17.9781 0.0000 0.0000
# 5 0.0000 0.0000 0.0000 0.0000 15.0659 0.0000
# 6 0.0000 0.0000 0.0000 0.0000 0.0000 -0.8275
#
#
#
# Elastic Compliance Matrix: (Units=1/GPa)
#
#
# Indices 1 2 3 4 5 6 
#
# 1 0.013915 -0.003634 -0.007705 0.000000 0.000000 0.000000
# 2 -0.003634 0.016394 -0.000847 0.000000 0.000000 0.000000
# 3 -0.007705 -0.000847 0.018122 0.000000 0.000000 0.000000
# 4 0.000000 0.000000 0.000000 0.055623 0.000000 0.000000
# 5 0.000000 0.000000 0.000000 0.000000 0.066375 0.000000
# 6 0.000000 0.000000 0.000000 0.000000 0.000000 -1.208523
#
#
# Mechanical properties :
#
#
# Convention : Reuss Voigt Hill
#
# Bulk Modulus (GPa) = 41.56317 46.05731 43.81024
# Shear Modulus (GPa) = -4.97165 17.20980 6.11907
#
# Velocity S-wave (km/s) = -1.65799 3.08474 1.83939
# Velocity P-wave (km/s) = 4.39498 6.17685 5.36047
#
# Compressibility (1/GPa) = 0.02405976
#
# Stress axis : x y z
#
# Youngs Moduli (GPa) = 71.86415 60.99676 55.18137
#
# Poissons Ratio (x) = 0.22164 0.42520
# Poissons Ratio (y) = 0.26112 0.04673
# Poissons Ratio (z) = 0.55374 0.05166
#
# Static dielectric constant tensor:
#      x y z
#    x 1.606580 0.000000 0.000000 
#    y 0.000000 1.717370 0.000000 
#    z 0.000000 0.000000 1.616580 
# 
# From -- ./inp_files/47084.got.cif
#   From: 2010.05.17/outbox.cif.g08.bks.cpg/sg65_24_cif.got.tgz:47084.got - 2010.06.03 17:01:31.
