data_PCOD9482494
_publ_section_title
;
Structure prediction by ZEFSAII (Michael W. Deem and Ramdas Pophale) SiO2 
 PCOD9482494
Probable space group: C M C A
;
_chemical_formula_sum "Si O2"
_cell_formula_units_Z 44
_cell_length_a 24.000000
_cell_length_b 15.000000
_cell_length_c 12.000000
_cell_angle_alpha 90.000000
_cell_angle_beta 90.000000
_cell_angle_gamma 90.000000
_cell_volume 4320.000000
_symmetry_space_group_name_H-M "C M C A"
_symmetry_group_IT_number 64
_symmetry_cell_setting 'orthorhombic'
loop_
_space_group_symop_operation_xyz
x,y,z
-x,1/2-y,1/2+z
x,-y,-z
-x,1/2+y,1/2-z
-x,-y,-z
x,1/2+y,1/2-z
-x,y,z
x,1/2-y,1/2+z
1/2+x,1/2+y,z
1/2-x,-y,1/2+z
1/2+x,1/2-y,-z
1/2-x,y,1/2-z
1/2-x,1/2-y,-z
1/2+x,y,1/2-z
1/2-x,1/2+y,z
1/2+x,-y,1/2+z
loop_
_atom_site_type_symbol
_atom_site_label
_atom_site_fract_x
_atom_site_fract_y
_atom_site_fract_z
Si Si1 0.123712 0.711395 0.447359
Si Si2 0.683902 0.913023 0.729242
Si Si3 0.000000 0.910232 0.628001
Si Si4 0.887682 0.060489 0.889881
Si Si5 0.000000 0.910900 0.250718
Si Si6 0.378690 0.601587 0.460504
Si Si7 0.500000 0.288653 0.846809
O O1 0.163187 0.661783 0.358592
O O2 0.130476 0.656844 0.563121
O O3 0.136890 0.816107 0.459697
O O4 0.058294 0.700080 0.412838
O O5 0.750000 0.917251 0.750000
O O6 0.654224 0.890863 0.845293
O O7 0.657880 0.005864 0.681664
O O8 0.944037 0.885148 0.564851
O O9 0.000000 0.860332 0.746908
O O10 0.000000 0.015769 0.651713
O O11 0.944316 0.071399 0.820523
O O12 0.898205 0.000000 0.000000
O O13 0.000000 0.810536 0.295250
O O14 0.370112 0.500000 0.500000
#
# Coordination Sequence:
#
# PCOD9482494 Si02
#       7
#    16  16   8  16   8  16   8
#     4  11  24  43  68 100 137 179 218 274 342 404
#     4  11  26  47  69  96 130 176 235 283 326 392
#     4  12  20  40  62  98 139 176 211 276 341 403
#     4  10  21  41  68  98 133 172 224 275 342 407
#     4  12  20  34  70 100 136 180 204 271 353 395
#     4  12  25  42  67  98 138 176 224 276 340 398
#     4  12  22  38  68 102 141 172 216 267 339 423
#
# _framework density 10.185185000000001
#
# number of rings (size 3 to 8) (size 9 to 14) (size 15 to 20)
#    0.000    0.727    3.636    4.909    0.000    2.909 
#    0.000    1.818    0.000    0.000    0.000    0.000 
#    0.000    0.000    0.000    0.000    0.000    0.000 
#
# Total GULP energy -246269.870851 kJ/mol
# GULP energy per Si atom -5597.042519 kJ/mol
# Density = 1.016200 g / cm^3
# Si number density = 10.185185 Si / 1000 Ang^3
#
#
#
# Elastic Constant Matrix: (Units=GPa)
#
#
# Indices 1 2 3 4 5 6 
#
# 1 162.2433 51.6941 59.0444 0.0000 0.0000 0.0000
# 2 51.6941 144.4372 36.9635 0.0000 0.0000 0.0000
# 3 59.0444 36.9635 74.5716 0.0000 0.0000 0.0000
# 4 0.0000 0.0000 0.0000 33.0273 0.0000 0.0000
# 5 0.0000 0.0000 0.0000 0.0000 5.9052 0.0000
# 6 0.0000 0.0000 0.0000 0.0000 0.0000 13.7683
#
#
#
# Elastic Compliance Matrix: (Units=1/GPa)
#
#
# Indices 1 2 3 4 5 6 
#
# 1 0.008968 -0.001595 -0.006310 0.000000 0.000000 0.000000
# 2 -0.001595 0.008213 -0.002808 0.000000 0.000000 0.000000
# 3 -0.006310 -0.002808 0.019798 0.000000 0.000000 0.000000
# 4 0.000000 0.000000 0.000000 0.030278 0.000000 0.000000
# 5 0.000000 0.000000 0.000000 0.000000 0.169342 0.000000
# 6 0.000000 0.000000 0.000000 0.000000 0.000000 0.072630
#
#
# Mechanical properties :
#
#
# Convention : Reuss Voigt Hill
#
# Bulk Modulus (GPa) = 64.29763 75.18402 69.74083
# Shear Modulus (GPa) = 14.88801 26.11017 20.49909
#
# Velocity S-wave (km/s) = 2.70639 3.58407 3.17569
# Velocity P-wave (km/s) = 6.43419 7.35636 6.91068
#
# Compressibility (1/GPa) = 0.01555267
#
# Stress axis : x y z
#
# Youngs Moduli (GPa) = 111.50474 121.76017 50.50938
#
# Poissons Ratio (x) = 0.19419 0.31873
# Poissons Ratio (y) = 0.17783 0.14184
# Poissons Ratio (z) = 0.70363 0.34192
#
# Static dielectric constant tensor:
#      x y z
#    x 1.677450 0.000000 0.000000 
#    y 0.000000 1.745400 0.000000 
#    z 0.000000 0.000000 1.741160 
# 
# From -- ./inp_files/18241.got.cif
#   From: 2010.05.17/outbox.ucp.g08.bks.cvg/sg64_10_cif.got.tgz:18241.got - 2010.06.11 16:36:46.
