data_PCOD9482159
_publ_section_title
;
Structure prediction by ZEFSAII (Michael W. Deem and Ramdas Pophale) SiO2 
 PCOD9482159
Probable space group: C M C A
;
_chemical_formula_sum "Si O2"
_cell_formula_units_Z 56
_cell_length_a 14.894447
_cell_length_b 17.299058
_cell_length_c 9.020321
_cell_angle_alpha 90.000000
_cell_angle_beta 90.000000
_cell_angle_gamma 90.000000
_cell_volume 2324.175030
_symmetry_space_group_name_H-M "C M C A"
_symmetry_group_IT_number 64
_symmetry_cell_setting 'orthorhombic'
loop_
_space_group_symop_operation_xyz
x,y,z
-x,1/2-y,1/2+z
x,-y,-z
-x,1/2+y,1/2-z
-x,-y,-z
x,1/2+y,1/2-z
-x,y,z
x,1/2-y,1/2+z
1/2+x,1/2+y,z
1/2-x,-y,1/2+z
1/2+x,1/2-y,-z
1/2-x,y,1/2-z
1/2-x,1/2-y,-z
1/2+x,y,1/2-z
1/2-x,1/2+y,z
1/2+x,-y,1/2+z
loop_
_atom_site_type_symbol
_atom_site_label
_atom_site_fract_x
_atom_site_fract_y
_atom_site_fract_z
Si Si1 0.403452 0.475889 0.669807
Si Si2 0.750000 0.140680 0.250000
Si Si3 0.101691 0.225271 0.051277
Si Si4 0.356909 0.856033 0.246486
O O1 0.406504 0.500000 0.500000
O O2 0.500000 0.442850 0.713770
O O3 0.323134 0.416546 0.682158
O O4 0.389019 0.555848 0.759716
O O5 0.811723 0.189207 0.136244
O O6 0.109862 0.315387 0.095255
O O7 0.000000 0.202526 0.096660
O O8 0.111254 0.198764 0.881335
O O9 0.250000 0.858404 0.250000
#
# Coordination Sequence:
#
# PCOD9482159 Si02
#       4
#    16   8  16  16
#     4  11  25  45  71 102 141 186 233 292 359 428
#     4  12  26  44  70 102 144 188 236 298 352 430
#     4  12  27  46  74 109 145 191 244 302 359 427
#     4  12  25  49  74 105 146 190 242 298 364 432
#
# _framework density 24.094573
#
# number of rings (size 3 to 8) (size 9 to 14) (size 15 to 20)
#    0.000    0.286    2.857    6.000    4.000    0.000 
#    0.000    2.857    0.000    0.000    0.000    0.000 
#    0.000    0.000    0.000    0.000    0.000    0.000 
#
# Total GULP energy -156701.700289 kJ/mol
# GULP energy per Si atom -5596.489296 kJ/mol
# Density = 2.403973 g / cm^3
# Si number density = 24.094573 Si / 1000 Ang^3
#
#
#
# Elastic Constant Matrix: (Units=GPa)
#
#
# Indices 1 2 3 4 5 6 
#
# 1 232.9566 45.8699 28.5295 0.0000 0.0000 0.0000
# 2 45.8699 81.7776 30.5798 0.0000 0.0000 0.0000
# 3 28.5295 30.5798 65.8065 0.0000 0.0000 0.0000
# 4 0.0000 0.0000 0.0000 34.7419 0.0000 0.0000
# 5 0.0000 0.0000 0.0000 0.0000 17.5271 0.0000
# 6 0.0000 0.0000 0.0000 0.0000 0.0000 -5.8787
#
#
#
# Elastic Compliance Matrix: (Units=1/GPa)
#
#
# Indices 1 2 3 4 5 6 
#
# 1 0.004882 -0.002356 -0.001021 0.000000 0.000000 0.000000
# 2 -0.002356 0.015937 -0.006384 0.000000 0.000000 0.000000
# 3 -0.001021 -0.006384 0.018606 0.000000 0.000000 0.000000
# 4 0.000000 0.000000 0.000000 0.028784 0.000000 0.000000
# 5 0.000000 0.000000 0.000000 0.000000 0.057054 0.000000
# 6 0.000000 0.000000 0.000000 0.000000 0.000000 -0.170106
#
#
# Mechanical properties :
#
#
# Convention : Reuss Voigt Hill
#
# Bulk Modulus (GPa) = 50.25015 65.61101 57.93058
# Shear Modulus (GPa) = -267.58489 27.64884 -119.96803
#
# Velocity S-wave (km/s) = -10.54975 3.39117 -7.06389
# Velocity P-wave (km/s) = 11.29139 6.52864 6.51431
#
# Compressibility (1/GPa) = 0.01990044
#
# Stress axis : x y z
#
# Youngs Moduli (GPa) = 204.84712 62.74579 53.74691
#
# Poissons Ratio (x) = 0.14784 0.05490
# Poissons Ratio (y) = 0.48267 0.34314
# Poissons Ratio (z) = 0.20924 0.40060
#
# Static dielectric constant tensor:
#      x y z
#    x 1.902630 0.000000 0.000000 
#    y 0.000000 1.961750 0.000000 
#    z 0.000000 0.000000 1.931540 
# 
# From -- ./inp_files/5340.got.cif
#   From: 2010.05.17/outbox.cif.g08.bks.cpg/sg64_3_cif.got.tgz:5340.got - 2010.06.03 16:29:19.
