data_PCOD9482216
_publ_section_title
;
Structure prediction by ZEFSAII (Michael W. Deem and Ramdas Pophale) SiO2 
 PCOD9482216
Probable space group: C M C A
;
_chemical_formula_sum "Si O2"
_cell_formula_units_Z 56
_cell_length_a 12.821026
_cell_length_b 13.351463
_cell_length_c 13.191989
_cell_angle_alpha 90.000000
_cell_angle_beta 90.000000
_cell_angle_gamma 90.000000
_cell_volume 2258.197478
_symmetry_space_group_name_H-M "C M C A"
_symmetry_group_IT_number 64
_symmetry_cell_setting 'orthorhombic'
loop_
_space_group_symop_operation_xyz
x,y,z
-x,1/2-y,1/2+z
x,-y,-z
-x,1/2+y,1/2-z
-x,-y,-z
x,1/2+y,1/2-z
-x,y,z
x,1/2-y,1/2+z
1/2+x,1/2+y,z
1/2-x,-y,1/2+z
1/2+x,1/2-y,-z
1/2-x,y,1/2-z
1/2-x,1/2-y,-z
1/2+x,y,1/2-z
1/2-x,1/2+y,z
1/2+x,-y,1/2+z
loop_
_atom_site_type_symbol
_atom_site_label
_atom_site_fract_x
_atom_site_fract_y
_atom_site_fract_z
Si Si1 0.000000 0.828533 0.497279
Si Si2 0.000000 0.005036 0.664345
Si Si3 0.119543 0.178229 0.897419
Si Si4 0.750000 0.190740 0.250000
Si Si5 0.880667 0.532973 0.357324
O O1 0.000000 0.893962 0.398250
O O2 0.100354 0.756264 0.511130
O O3 0.000000 0.908834 0.590013
O O4 0.097785 0.998780 0.739741
O O5 0.170339 0.237742 0.807047
O O6 0.161728 0.066369 0.913655
O O7 0.000000 0.156272 0.866823
O O8 0.803711 0.123996 0.162017
O O9 0.000000 0.560946 0.393700
#
# Coordination Sequence:
#
# PCOD9482216 Si02
#       5
#     8   8  16   8  16
#     4   9  15  30  52  71  97 129 165 199 245 286
#     4   9  15  30  52  71  97 129 165 199 245 286
#     4   9  18  31  47  76  95 126 163 201 242 279
#     4  12  16  28  48  72 102 120 160 204 240 282
#     4   9  18  31  47  76  95 126 163 201 242 279
#
# _framework density 24.798539000000002
#
# number of rings (size 3 to 8) (size 9 to 14) (size 15 to 20)
#    1.714    0.857    2.857    1.714    0.000    0.000 
#    0.000    0.000    0.000   10.286    0.000    2.000 
#    0.000    0.000    0.000    0.000    0.000    0.000 
#
# Total GULP energy -156256.796141 kJ/mol
# GULP energy per Si atom -5580.599862 kJ/mol
# Density = 2.474210 g / cm^3
# Si number density = 24.798539 Si / 1000 Ang^3
#
#
#
# Elastic Constant Matrix: (Units=GPa)
#
#
# Indices 1 2 3 4 5 6 
#
# 1 20.5618 36.2432 8.2886 0.0000 0.0000 0.0000
# 2 36.2432 165.4542 46.8891 0.0000 0.0000 0.0000
# 3 8.2886 46.8891 68.0314 0.0000 0.0000 0.0000
# 4 0.0000 0.0000 0.0000 60.2398 0.0000 0.0000
# 5 0.0000 0.0000 0.0000 0.0000 4.2760 0.0000
# 6 0.0000 0.0000 0.0000 0.0000 0.0000 -18.5730
#
#
#
# Elastic Compliance Matrix: (Units=1/GPa)
#
#
# Indices 1 2 3 4 5 6 
#
# 1 0.079676 -0.018271 0.002885 0.000000 0.000000 0.000000
# 2 -0.018271 0.011701 -0.005839 0.000000 0.000000 0.000000
# 3 0.002885 -0.005839 0.018372 0.000000 0.000000 0.000000
# 4 0.000000 0.000000 0.000000 0.016600 0.000000 0.000000
# 5 0.000000 0.000000 0.000000 0.000000 0.233865 0.000000
# 6 0.000000 0.000000 0.000000 0.000000 0.000000 -0.053842
#
#
# Mechanical properties :
#
#
# Convention : Reuss Voigt Hill
#
# Bulk Modulus (GPa) = 14.85877 48.54325 31.70101
# Shear Modulus (GPa) = 13.46788 20.03032 16.74910
#
# Velocity S-wave (km/s) = 2.33296 2.84513 2.60168
# Velocity P-wave (km/s) = 3.64167 5.51458 4.67292
#
# Compressibility (1/GPa) = 0.06730033
#
# Stress axis : x y z
#
# Youngs Moduli (GPa) = 12.55087 85.46378 54.43187
#
# Poissons Ratio (x) = 1.56150 -0.15706
# Poissons Ratio (y) = 0.22932 0.31780
# Poissons Ratio (z) = -0.03622 0.49898
#
# Static dielectric constant tensor:
#      x y z
#    x 1.958400 0.000000 0.000000 
#    y 0.000000 2.021820 0.000000 
#    z 0.000000 0.000000 2.051470 
# 
# From -- ./inp_files/31749.got.cif
#   From: 2010.05.17/outbox.cif.g08.bks.cpg/sg64_16_cif.got.tgz:31749.got - 2010.06.03 16:29:19.
