data_PCOD9482674
_publ_section_title
;
Structure prediction by ZEFSAII (Michael W. Deem and Ramdas Pophale) SiO2 
 PCOD9482674
Probable space group: C M M M
;
_chemical_formula_sum "Si O2"
_cell_formula_units_Z 80
_cell_length_a 23.949183
_cell_length_b 7.466863
_cell_length_c 21.563027
_cell_angle_alpha 90.000000
_cell_angle_beta 90.000000
_cell_angle_gamma 90.000000
_cell_volume 3856.014091
_symmetry_space_group_name_H-M "C M M M"
_symmetry_group_IT_number 65
_symmetry_cell_setting 'orthorhombic'
loop_
_space_group_symop_operation_xyz
x,y,z
-x,-y,z
x,-y,-z
-x,y,-z
-x,-y,-z
x,y,-z
-x,y,z
x,-y,z
1/2+x,1/2+y,z
1/2-x,1/2-y,z
1/2+x,1/2-y,-z
1/2-x,1/2+y,-z
1/2-x,1/2-y,-z
1/2+x,1/2+y,-z
1/2-x,1/2+y,z
1/2+x,1/2-y,z
loop_
_atom_site_type_symbol
_atom_site_label
_atom_site_fract_x
_atom_site_fract_y
_atom_site_fract_z
Si Si1 0.935241 0.718472 0.569972
Si Si2 0.000000 0.715728 0.234740
Si Si3 0.315248 0.214455 0.809068
Si Si4 0.000000 0.202845 0.092276
Si Si5 0.613640 0.782411 0.695262
Si Si6 0.874519 0.292060 0.067065
O O1 0.921319 0.775623 0.500000
O O2 0.935088 0.500000 0.570325
O O3 0.893858 0.779294 0.624425
O O4 0.000000 0.769768 0.582832
O O5 0.055367 0.763886 0.271591
O O6 0.000000 0.500000 0.227873
O O7 0.000000 0.793056 0.166535
O O8 0.250000 0.250000 0.815278
O O9 0.339140 0.281542 0.743075
O O10 0.348191 0.285024 0.869760
O O11 0.324603 0.000000 0.808189
O O12 0.058356 0.287130 0.071918
O O13 0.000000 0.000000 0.070175
O O14 0.617474 0.000000 0.692352
O O15 0.857317 0.500000 0.065753
O O16 0.858356 0.212702 0.000000
#
# Coordination Sequence:
#
# PCOD9482674 Si02
#       6
#    16   8  16   8  16  16
#     4   8  12  18  34  67 105 130 151 191 246 294
#     4  10  16  29  52  74  98 132 170 202 241 301
#     4  10  21  36  53  72  94 127 172 215 252 291
#     4  12  23  33  50  80 113 134 156 198 250 295
#     4   9  15  26  47  70  96 131 165 199 245 298
#     4  10  21  38  58  76  97 131 168 199 242 306
#
# _framework density 20.746811000000001
#
# number of rings (size 3 to 8) (size 9 to 14) (size 15 to 20)
#    0.000    2.400    3.000    1.800    0.000    2.800 
#    0.000    0.000    0.000    0.600    0.000    0.000 
#    0.000    3.200    0.000    0.000    0.000    0.000 
#
# Total GULP energy -223152.414624 kJ/mol
# GULP energy per Si atom -5578.810366 kJ/mol
# Density = 2.069959 g / cm^3
# Si number density = 20.746811 Si / 1000 Ang^3
#
#
#
# Elastic Constant Matrix: (Units=GPa)
#
#
# Indices 1 2 3 4 5 6 
#
# 1 98.7024 -6.9987 72.3351 0.0000 0.0000 0.0000
# 2 -6.9987 56.2252 7.9650 0.0000 0.0000 0.0000
# 3 72.3351 7.9650 227.4011 0.0000 0.0000 0.0000
# 4 0.0000 0.0000 0.0000 -24.0547 0.0000 0.0000
# 5 0.0000 0.0000 0.0000 0.0000 45.0605 0.0000
# 6 0.0000 0.0000 0.0000 0.0000 0.0000 5.9222
#
#
#
# Elastic Compliance Matrix: (Units=1/GPa)
#
#
# Indices 1 2 3 4 5 6 
#
# 1 0.013501 0.002300 -0.004375 0.000000 0.000000 0.000000
# 2 0.002300 0.018266 -0.001372 0.000000 0.000000 0.000000
# 3 -0.004375 -0.001372 0.005837 0.000000 0.000000 0.000000
# 4 0.000000 0.000000 0.000000 -0.041572 0.000000 0.000000
# 5 0.000000 0.000000 0.000000 0.000000 0.022192 0.000000
# 6 0.000000 0.000000 0.000000 0.000000 0.000000 0.168855
#
#
# Mechanical properties :
#
#
# Convention : Reuss Voigt Hill
#
# Bulk Modulus (GPa) = 32.56076 58.77016 45.66546
# Shear Modulus (GPa) = 24.48462 25.98744 25.23603
#
# Velocity S-wave (km/s) = 3.43908 3.54305 3.49145
# Velocity P-wave (km/s) = 5.61232 6.71762 6.18969
#
# Compressibility (1/GPa) = 0.03071182
#
# Stress axis : x y z
#
# Youngs Moduli (GPa) = 74.06884 54.74576 171.31295
#
# Poissons Ratio (x) = -0.12593 0.74952
# Poissons Ratio (y) = -0.17038 0.23496
# Poissons Ratio (z) = 0.32406 0.07509
#
# Static dielectric constant tensor:
#      x y z
#    x 1.688950 0.000000 0.000000 
#    y 0.000000 1.780120 0.000000 
#    z 0.000000 0.000000 1.786810 
# 
# From -- ./inp_files/65078.got.cif
#   From: 2010.05.17/outbox.cif.g08.bks.cpg/sg65_33_cif.got.tgz:65078.got - 2010.06.03 17:01:31.
