data_PCOD9482372
_publ_section_title
;
Structure prediction by ZEFSAII (Michael W. Deem and Ramdas Pophale) SiO2 
 PCOD9482372
Probable space group: C M C A
;
_chemical_formula_sum "Si O2"
_cell_formula_units_Z 40
_cell_length_a 9.000000
_cell_length_b 27.000000
_cell_length_c 18.000000
_cell_angle_alpha 90.000000
_cell_angle_beta 90.000000
_cell_angle_gamma 90.000000
_cell_volume 4374.000000
_symmetry_space_group_name_H-M "C M C A"
_symmetry_group_IT_number 64
_symmetry_cell_setting 'orthorhombic'
loop_
_space_group_symop_operation_xyz
x,y,z
-x,1/2-y,1/2+z
x,-y,-z
-x,1/2+y,1/2-z
-x,-y,-z
x,1/2+y,1/2-z
-x,y,z
x,1/2-y,1/2+z
1/2+x,1/2+y,z
1/2-x,-y,1/2+z
1/2+x,1/2-y,-z
1/2-x,y,1/2-z
1/2-x,1/2-y,-z
1/2+x,y,1/2-z
1/2-x,1/2+y,z
1/2+x,-y,1/2+z
loop_
_atom_site_type_symbol
_atom_site_label
_atom_site_fract_x
_atom_site_fract_y
_atom_site_fract_z
Si Si1 0.177643 0.883669 0.570918
Si Si2 0.171645 0.091661 0.917184
Si Si3 0.825456 0.493917 0.909983
Si Si4 0.827337 0.693964 0.672899
Si Si5 0.321231 0.224115 0.426838
O O1 0.222923 0.895034 0.486190
O O2 0.217932 0.936899 0.609556
O O3 0.258913 0.831540 0.588095
O O4 0.000000 0.877347 0.578241
O O5 0.175322 0.141564 0.869495
O O6 0.000000 0.083774 0.941487
O O7 0.231004 0.040609 0.880662
O O8 0.000000 0.499888 0.892067
O O9 0.811400 0.500000 0.000000
O O10 0.750000 0.684258 0.750000
O O11 0.733430 0.737820 0.635473
O O12 0.000000 0.709289 0.678103
O O13 0.500000 0.222020 0.434227
O O14 0.250000 0.250000 0.500000
#
# Coordination Sequence:
#
# PCOD9482372 Si02
#       5
#    16  16  16  16  16
#     4  10  19  32  52  79 111 145 181 226 279 332
#     4  10  19  31  51  78 109 142 180 226 276 331
#     4   8  16  29  47  74 107 141 175 215 268 323
#     4  11  24  40  57  81 112 149 190 232 283 341
#     4  12  23  36  57  83 112 148 188 236 285 337
#
# _framework density 9.1449470000000002
#
# number of rings (size 3 to 8) (size 9 to 14) (size 15 to 20)
#    0.000    1.800    2.000    4.800    0.000    6.800 
#    0.000    0.000    0.000    1.200    0.000    2.800 
#    0.000    0.000    0.000    0.000    0.000    0.000 
#
# Total GULP energy -222814.138956 kJ/mol
# GULP energy per Si atom -5570.353474 kJ/mol
# Density = 0.912413 g / cm^3
# Si number density = 9.144947 Si / 1000 Ang^3
#
#
#
# Elastic Constant Matrix: (Units=GPa)
#
#
# Indices 1 2 3 4 5 6 
#
# 1 109.3806 65.3945 2.3534 0.0000 0.0000 0.0000
# 2 65.3945 167.3416 0.6164 0.0000 0.0000 0.0000
# 3 2.3534 0.6164 5.1371 0.0000 0.0000 0.0000
# 4 0.0000 0.0000 0.0000 31.0707 0.0000 0.0000
# 5 0.0000 0.0000 0.0000 0.0000 15.9431 0.0000
# 6 0.0000 0.0000 0.0000 0.0000 0.0000 44.2445
#
#
#
# Elastic Compliance Matrix: (Units=1/GPa)
#
#
# Indices 1 2 3 4 5 6 
#
# 1 0.012055 -0.004692 -0.004959 0.000000 0.000000 0.000000
# 2 -0.004692 0.007805 0.001213 0.000000 0.000000 0.000000
# 3 -0.004959 0.001213 0.196789 0.000000 0.000000 0.000000
# 4 0.000000 0.000000 0.000000 0.032185 0.000000 0.000000
# 5 0.000000 0.000000 0.000000 0.000000 0.062723 0.000000
# 6 0.000000 0.000000 0.000000 0.000000 0.000000 0.022602
#
#
# Mechanical properties :
#
#
# Convention : Reuss Voigt Hill
#
# Bulk Modulus (GPa) = 5.00572 46.50978 25.75775
# Shear Modulus (GPa) = 11.97243 32.48466 22.22855
#
# Velocity S-wave (km/s) = 2.56128 4.21895 3.48996
# Velocity P-wave (km/s) = 3.38964 7.01549 5.50939
#
# Compressibility (1/GPa) = 0.19977142
#
# Stress axis : x y z
#
# Youngs Moduli (GPa) = 82.95629 128.12176 5.08158
#
# Poissons Ratio (x) = 0.60121 0.02520
# Poissons Ratio (y) = 0.38927 -0.00616
# Poissons Ratio (z) = 0.41141 -0.15543
#
# Static dielectric constant tensor:
#      x y z
#    x 1.625970 0.000000 0.000000 
#    y 0.000000 1.558400 0.000000 
#    z 0.000000 0.000000 1.593580 
# 
# From -- ./inp_files/29722.got.cif
#   From: 2010.05.17/outbox.ucp.g08.bks.cvg/sg64_15_cif.got.tgz:29722.got - 2010.06.11 16:36:46.
