data_PCOD9482915
_publ_section_title
;
Structure prediction by ZEFSAII (Michael W. Deem and Ramdas Pophale) SiO2 
 PCOD9482915
Probable space group: C M M M
;
_chemical_formula_sum "Si O2"
_cell_formula_units_Z 80
_cell_length_a 17.302458
_cell_length_b 27.860763
_cell_length_c 9.325505
_cell_angle_alpha 90.000000
_cell_angle_beta 90.000000
_cell_angle_gamma 90.000000
_cell_volume 4495.449972
_symmetry_space_group_name_H-M "C M M M"
_symmetry_group_IT_number 65
_symmetry_cell_setting 'orthorhombic'
loop_
_space_group_symop_operation_xyz
x,y,z
-x,-y,z
x,-y,-z
-x,y,-z
-x,-y,-z
x,y,-z
-x,y,z
x,-y,z
1/2+x,1/2+y,z
1/2-x,1/2-y,z
1/2+x,1/2-y,-z
1/2-x,1/2+y,-z
1/2-x,1/2-y,-z
1/2+x,1/2+y,-z
1/2-x,1/2+y,z
1/2+x,1/2-y,z
loop_
_atom_site_type_symbol
_atom_site_label
_atom_site_fract_x
_atom_site_fract_y
_atom_site_fract_z
Si Si1 0.500000 0.446829 0.737018
Si Si2 0.350207 0.289327 0.328995
Si Si3 0.733203 0.146502 0.827365
Si Si4 0.174521 0.052396 0.832148
Si Si5 0.000000 0.158639 0.340861
Si Si6 0.409049 0.180412 0.669148
O O1 0.500000 0.500000 0.668736
O O2 0.418590 0.443592 0.820200
O O3 0.500000 0.398208 0.648246
O O4 0.334811 0.296983 0.500000
O O5 0.277363 0.307769 0.240526
O O6 0.421326 0.322385 0.274975
O O7 0.379584 0.235202 0.311659
O O8 0.780092 0.098889 0.776260
O O9 0.646755 0.147903 0.765291
O O10 0.734081 0.148971 0.000000
O O11 0.195072 0.000000 0.767789
O O12 0.193385 0.050758 0.000000
O O13 0.000000 0.181128 0.500000
O O14 0.399873 0.169070 0.500000
O O15 0.500000 0.177580 0.704112
#
# Coordination Sequence:
#
# PCOD9482915 Si02
#       6
#     8  16  16  16   8  16
#     4  10  17  29  50  73 101 140 180 215 250 292
#     4  10  19  35  55  75 103 143 182 211 247 302
#     4  11  22  34  53  81 109 135 168 215 267 309
#     4   9  18  32  50  73 103 139 175 208 248 307
#     4  10  18  30  49  72 104 141 178 215 249 295
#     4  10  21  38  58  76  99 137 181 216 253 309
#
# _framework density 17.795771999999999
#
# number of rings (size 3 to 8) (size 9 to 14) (size 15 to 20)
#    0.000    2.000    3.000    1.500    0.000    5.000 
#    0.000    0.500    0.000    3.000    0.000    4.200 
#    0.000    0.000    0.000    0.000    0.000    0.000 
#
# Total GULP energy -222772.599900 kJ/mol
# GULP energy per Si atom -5569.314998 kJ/mol
# Density = 1.775527 g / cm^3
# Si number density = 17.795772 Si / 1000 Ang^3
#
#
#
# Elastic Constant Matrix: (Units=GPa)
#
#
# Indices 1 2 3 4 5 6 
#
# 1 135.2641 50.6324 41.0958 0.0000 0.0000 0.0000
# 2 50.6324 88.7137 25.2772 0.0000 0.0000 0.0000
# 3 41.0958 25.2772 39.4661 0.0000 0.0000 0.0000
# 4 0.0000 0.0000 0.0000 13.9441 0.0000 0.0000
# 5 0.0000 0.0000 0.0000 0.0000 3.7029 0.0000
# 6 0.0000 0.0000 0.0000 0.0000 0.0000 25.9458
#
#
#
# Elastic Compliance Matrix: (Units=1/GPa)
#
#
# Indices 1 2 3 4 5 6 
#
# 1 0.011859 -0.003975 -0.009803 0.000000 0.000000 0.000000
# 2 -0.003975 0.015121 -0.005545 0.000000 0.000000 0.000000
# 3 -0.009803 -0.005545 0.039097 0.000000 0.000000 0.000000
# 4 0.000000 0.000000 0.000000 0.071715 0.000000 0.000000
# 5 0.000000 0.000000 0.000000 0.000000 0.270061 0.000000
# 6 0.000000 0.000000 0.000000 0.000000 0.000000 0.038542
#
#
# Mechanical properties :
#
#
# Convention : Reuss Voigt Hill
#
# Bulk Modulus (GPa) = 36.45521 55.27274 45.86398
# Shear Modulus (GPa) = 10.11765 18.48111 14.29938
#
# Velocity S-wave (km/s) = 2.38700 3.22609 2.83773
# Velocity P-wave (km/s) = 5.30347 6.70849 6.04692
#
# Compressibility (1/GPa) = 0.02743092
#
# Stress axis : x y z
#
# Youngs Moduli (GPa) = 84.32175 66.13249 25.57716
#
# Poissons Ratio (x) = 0.26291 0.25073
# Poissons Ratio (y) = 0.33522 0.14183
# Poissons Ratio (z) = 0.82659 0.36672
#
# Static dielectric constant tensor:
#      x y z
#    x 1.644150 0.000000 0.000000 
#    y 0.000000 1.646220 0.000000 
#    z 0.000000 0.000000 1.604790 
# 
# From -- ./inp_files/9747.got.cif
#   From: 2010.05.17/outbox.cif.g08.bks.cpg/sg65_5_cif.got.tgz:9747.got - 2010.06.03 17:01:31.
