data_PCOD9482822
_publ_section_title
;
Structure prediction by ZEFSAII (Michael W. Deem and Ramdas Pophale) SiO2 
 PCOD9482822
Probable space group: C M M M
;
_chemical_formula_sum "Si O2"
_cell_formula_units_Z 96
_cell_length_a 8.743932
_cell_length_b 19.249963
_cell_length_c 32.342426
_cell_angle_alpha 90.000000
_cell_angle_beta 90.000000
_cell_angle_gamma 90.000000
_cell_volume 5443.889029
_symmetry_space_group_name_H-M "C M M M"
_symmetry_group_IT_number 65
_symmetry_cell_setting 'orthorhombic'
loop_
_space_group_symop_operation_xyz
x,y,z
-x,-y,z
x,-y,-z
-x,y,-z
-x,-y,-z
x,y,-z
-x,y,z
x,-y,z
1/2+x,1/2+y,z
1/2-x,1/2-y,z
1/2+x,1/2-y,-z
1/2-x,1/2+y,-z
1/2-x,1/2-y,-z
1/2+x,1/2+y,-z
1/2-x,1/2+y,z
1/2+x,1/2-y,z
loop_
_atom_site_type_symbol
_atom_site_label
_atom_site_fract_x
_atom_site_fract_y
_atom_site_fract_z
Si Si1 0.816642 0.671660 0.788908
Si Si2 0.682715 0.328679 0.705139
Si Si3 0.317438 0.827496 0.119760
Si Si4 0.315909 0.418620 0.046460
Si Si5 0.181671 0.672577 0.620055
Si Si6 0.317476 0.417655 0.547485
O O1 0.750000 0.750000 0.790511
O O2 0.743737 0.638527 0.747865
O O3 0.779033 0.642534 0.834418
O O4 0.000000 0.674381 0.784130
O O5 0.500000 0.326314 0.705131
O O6 0.750000 0.250000 0.705070
O O7 0.745449 0.358641 0.662157
O O8 0.500000 0.822547 0.117689
O O9 0.250000 0.750000 0.116597
O O10 0.256026 0.873867 0.082675
O O11 0.500000 0.413074 0.048490
O O12 0.276767 0.500000 0.051020
O O13 0.268742 0.396572 0.000000
O O14 0.250000 0.750000 0.614565
O O15 0.227308 0.626628 0.580899
O O16 0.000000 0.677630 0.624985
O O17 0.278393 0.399359 0.500000
O O18 0.500000 0.406265 0.552703
O O19 0.289665 0.500000 0.552633
#
# Coordination Sequence:
#
# PCOD9482822 Si02
#       6
#    16  16  16  16  16  16
#     4   9  16  27  43  67  98 129 162 199 242 292
#     4  10  17  27  45  69  98 131 166 203 246 295
#     4  10  20  32  50  76 104 133 165 205 249 293
#     4   9  19  36  55  73  96 129 167 206 250 301
#     4  11  21  33  51  76 106 136 169 210 252 294
#     4   9  19  37  58  77 100 132 168 206 251 304
#
# _framework density 17.634452
#
# number of rings (size 3 to 8) (size 9 to 14) (size 15 to 20)
#    0.000    2.333    0.000    7.000    0.000    4.000 
#    0.000    1.667    0.000    1.000    0.000    4.667 
#    0.000    0.000    0.000    0.000    0.000    0.000 
#
# Total GULP energy -267592.938182 kJ/mol
# GULP energy per Si atom -5574.852879 kJ/mol
# Density = 1.759431 g / cm^3
# Si number density = 17.634452 Si / 1000 Ang^3
#
#
#
# Elastic Constant Matrix: (Units=GPa)
#
#
# Indices 1 2 3 4 5 6 
#
# 1 108.1764 31.2506 83.0565 0.0000 0.0000 0.0000
# 2 31.2506 28.6433 56.6975 0.0000 0.0000 0.0000
# 3 83.0565 56.6975 191.8624 0.0000 0.0000 0.0000
# 4 0.0000 0.0000 0.0000 -20.1083 0.0000 0.0000
# 5 0.0000 0.0000 0.0000 0.0000 34.9281 0.0000
# 6 0.0000 0.0000 0.0000 0.0000 0.0000 21.2743
#
#
#
# Elastic Compliance Matrix: (Units=1/GPa)
#
#
# Indices 1 2 3 4 5 6 
#
# 1 0.014612 -0.008243 -0.003890 0.000000 0.000000 0.000000
# 2 -0.008243 0.088765 -0.022663 0.000000 0.000000 0.000000
# 3 -0.003890 -0.022663 0.013593 0.000000 0.000000 0.000000
# 4 0.000000 0.000000 0.000000 -0.049731 0.000000 0.000000
# 5 0.000000 0.000000 0.000000 0.000000 0.028630 0.000000
# 6 0.000000 0.000000 0.000000 0.000000 0.000000 0.047005
#
#
# Mechanical properties :
#
#
# Convention : Reuss Voigt Hill
#
# Bulk Modulus (GPa) = 21.10622 74.52125 47.81374
# Shear Modulus (GPa) = 21.90514 17.73065 19.81790
#
# Velocity S-wave (km/s) = 3.52828 3.17433 3.35597
# Velocity P-wave (km/s) = 5.34725 7.46899 6.49534
#
# Compressibility (1/GPa) = 0.04737940
#
# Stress axis : x y z
#
# Youngs Moduli (GPa) = 68.43836 11.26574 73.56752
#
# Poissons Ratio (x) = 0.09286 0.28614
# Poissons Ratio (y) = 0.56411 1.66724
# Poissons Ratio (z) = 0.26619 0.25531
#
# Static dielectric constant tensor:
#      x y z
#    x 1.595440 0.000000 0.000000 
#    y 0.000000 1.569280 0.000000 
#    z 0.000000 0.000000 1.656790 
# 
# From -- ./inp_files/73195.got.cif
#   From: 2010.05.17/outbox.cif.g08.bks.cpg/sg65_37_cif.got.tgz:73195.got - 2010.06.03 17:01:31.
