data_PCOD9482230
_publ_section_title
;
Structure prediction by ZEFSAII (Michael W. Deem and Ramdas Pophale) SiO2 
 PCOD9482230
Probable space group: C M C A
;
_chemical_formula_sum "Si O2"
_cell_formula_units_Z 64
_cell_length_a 19.020201
_cell_length_b 13.803548
_cell_length_c 10.741829
_cell_angle_alpha 90.000000
_cell_angle_beta 90.000000
_cell_angle_gamma 90.000000
_cell_volume 2820.227002
_symmetry_space_group_name_H-M "C M C A"
_symmetry_group_IT_number 64
_symmetry_cell_setting 'orthorhombic'
loop_
_space_group_symop_operation_xyz
x,y,z
-x,1/2-y,1/2+z
x,-y,-z
-x,1/2+y,1/2-z
-x,-y,-z
x,1/2+y,1/2-z
-x,y,z
x,1/2-y,1/2+z
1/2+x,1/2+y,z
1/2-x,-y,1/2+z
1/2+x,1/2-y,-z
1/2-x,y,1/2-z
1/2-x,1/2-y,-z
1/2+x,y,1/2-z
1/2-x,1/2+y,z
1/2+x,-y,1/2+z
loop_
_atom_site_type_symbol
_atom_site_label
_atom_site_fract_x
_atom_site_fract_y
_atom_site_fract_z
Si Si1 0.418682 0.831544 0.930618
Si Si2 0.421297 0.861249 0.290478
Si Si3 0.080086 0.644906 0.423072
Si Si4 0.168101 0.968873 0.720907
O O1 0.500000 0.866409 0.934735
O O2 0.414091 0.753277 0.816385
O O3 0.361051 0.911543 0.899924
O O4 0.407190 0.759978 0.048185
O O5 0.500000 0.882042 0.243784
O O6 0.417784 0.895887 0.435565
O O7 0.364003 0.923536 0.220004
O O8 0.132644 0.589833 0.334783
O O9 0.000000 0.632777 0.378701
O O10 0.250000 0.970146 0.750000
#
# Coordination Sequence:
#
# PCOD9482230 Si02
#       4
#    16  16  16  16
#     4   8  18  34  54  77  97 132 180 219 243 286
#     4   8  17  35  57  76  94 129 184 222 237 282
#     4   8  17  35  57  76  95 131 185 221 236 282
#     4  12  21  28  51  81 110 136 157 207 276 311
#
# _framework density 22.693209
#
# number of rings (size 3 to 8) (size 9 to 14) (size 15 to 20)
#    1.500    1.500    0.000    3.000    0.000    4.000 
#    0.000    0.000    5.500    0.000    0.000    7.000 
#    0.000    0.000    0.000    0.000    0.000    0.000 
#
# Total GULP energy -178492.350585 kJ/mol
# GULP energy per Si atom -5577.885956 kJ/mol
# Density = 2.264156 g / cm^3
# Si number density = 22.693209 Si / 1000 Ang^3
#
#
#
# Elastic Constant Matrix: (Units=GPa)
#
#
# Indices 1 2 3 4 5 6 
#
# 1 159.0659 73.9962 19.6211 0.0000 0.0000 0.0000
# 2 73.9962 86.4639 16.5173 0.0000 0.0000 0.0000
# 3 19.6211 16.5173 62.4224 0.0000 0.0000 0.0000
# 4 0.0000 0.0000 0.0000 37.0726 0.0000 0.0000
# 5 0.0000 0.0000 0.0000 0.0000 17.4435 0.0000
# 6 0.0000 0.0000 0.0000 0.0000 0.0000 234.1138
#
#
#
# Elastic Compliance Matrix: (Units=1/GPa)
#
#
# Indices 1 2 3 4 5 6 
#
# 1 0.010501 -0.008801 -0.000972 0.000000 0.000000 0.000000
# 2 -0.008801 0.019557 -0.002409 0.000000 0.000000 0.000000
# 3 -0.000972 -0.002409 0.016963 0.000000 0.000000 0.000000
# 4 0.000000 0.000000 0.000000 0.026974 0.000000 0.000000
# 5 0.000000 0.000000 0.000000 0.000000 0.057328 0.000000
# 6 0.000000 0.000000 0.000000 0.000000 0.000000 0.004271
#
#
# Mechanical properties :
#
#
# Convention : Reuss Voigt Hill
#
# Bulk Modulus (GPa) = 44.13447 58.69128 51.41287
# Shear Modulus (GPa) = 29.84900 70.91383 50.38141
#
# Velocity S-wave (km/s) = 3.63068 5.59614 4.71692
# Velocity P-wave (km/s) = 6.08821 8.22647 7.23675
#
# Compressibility (1/GPa) = 0.02265803
#
# Stress axis : x y z
#
# Youngs Moduli (GPa) = 95.23197 51.13142 58.95282
#
# Poissons Ratio (x) = 0.45000 0.05730
# Poissons Ratio (y) = 0.83812 0.14200
# Poissons Ratio (z) = 0.09256 0.12316
#
# Static dielectric constant tensor:
#      x y z
#    x 1.733400 0.000000 0.000000 
#    y 0.000000 1.918980 0.000000 
#    z 0.000000 0.000000 2.011260 
# 
# From -- ./inp_files/23396.got.cif
#   From: 2010.05.17/outbox.cif.g08.bks.cpg/sg64_12_cif.got.tgz:23396.got - 2010.06.03 16:29:19.
