data_PCOD9482743
_publ_section_title
;
Structure prediction by ZEFSAII (Michael W. Deem and Ramdas Pophale) SiO2 
 PCOD9482743
Probable space group: C M M M
;
_chemical_formula_sum "Si O2"
_cell_formula_units_Z 72
_cell_length_a 15.444549
_cell_length_b 8.698594
_cell_length_c 25.021965
_cell_angle_alpha 90.000000
_cell_angle_beta 90.000000
_cell_angle_gamma 90.000000
_cell_volume 3361.597438
_symmetry_space_group_name_H-M "C M M M"
_symmetry_group_IT_number 65
_symmetry_cell_setting 'orthorhombic'
loop_
_space_group_symop_operation_xyz
x,y,z
-x,-y,z
x,-y,-z
-x,y,-z
-x,-y,-z
x,y,-z
-x,y,z
x,-y,z
1/2+x,1/2+y,z
1/2-x,1/2-y,z
1/2+x,1/2-y,-z
1/2-x,1/2+y,-z
1/2-x,1/2-y,-z
1/2+x,1/2+y,-z
1/2-x,1/2+y,z
1/2+x,1/2-y,z
loop_
_atom_site_type_symbol
_atom_site_label
_atom_site_fract_x
_atom_site_fract_y
_atom_site_fract_z
Si Si1 0.154170 0.680765 0.832056
Si Si2 0.151355 0.314926 0.615726
Si Si3 0.847870 0.685228 0.500000
Si Si4 0.348737 0.316865 0.275316
Si Si5 0.103254 0.174347 0.058696
O O1 0.155494 0.500000 0.822998
O O2 0.250000 0.750000 0.833582
O O3 0.110484 0.759397 0.780332
O O4 0.119376 0.720630 0.890457
O O5 0.153446 0.500000 0.620418
O O6 0.250000 0.250000 0.613975
O O7 0.112399 0.272130 0.557607
O O8 0.111224 0.245622 0.669568
O O9 0.842785 0.500000 0.500000
O O10 0.750000 0.750000 0.500000
O O11 0.345271 0.500000 0.276155
O O12 0.250000 0.250000 0.275156
O O13 0.000000 0.162948 0.054772
O O14 0.137084 0.000000 0.068385
O O15 0.135372 0.226588 0.000000
#
# Coordination Sequence:
#
# PCOD9482743 Si02
#       5
#    16  16   8  16  16
#     4  11  21  33  50  72  98 127 161 200 238 279
#     4   9  14  21  31  46  69 100 139 180 223 269
#     4   8  14  20  28  42  64  96 135 178 219 264
#     4  10  17  26  39  56  80 111 147 187 232 278
#     4   9  19  37  58  77  99 127 156 188 231 282
#
# _framework density 21.418388
#
# number of rings (size 3 to 8) (size 9 to 14) (size 15 to 20)
#    0.000    2.444    0.000    8.000    0.000    2.222 
#    0.000    1.111    0.000    0.000    0.000    0.000 
#    0.000    0.000    0.000    1.000    0.000   20.444 
#
# Total GULP energy -200624.775366 kJ/mol
# GULP energy per Si atom -5572.910427 kJ/mol
# Density = 2.136964 g / cm^3
# Si number density = 21.418388 Si / 1000 Ang^3
#
#
#
# Elastic Constant Matrix: (Units=GPa)
#
#
# Indices 1 2 3 4 5 6 
#
# 1 24.2415 4.5306 15.9213 0.0000 0.0000 0.0000
# 2 4.5306 142.8145 86.0098 0.0000 0.0000 0.0000
# 3 15.9213 86.0098 232.9367 0.0000 0.0000 0.0000
# 4 0.0000 0.0000 0.0000 34.4798 0.0000 0.0000
# 5 0.0000 0.0000 0.0000 0.0000 37.0163 0.0000
# 6 0.0000 0.0000 0.0000 0.0000 0.0000 3.6980
#
#
#
# Elastic Compliance Matrix: (Units=1/GPa)
#
#
# Indices 1 2 3 4 5 6 
#
# 1 0.043221 0.000525 -0.003148 0.000000 0.000000 0.000000
# 2 0.000525 0.009011 -0.003363 0.000000 0.000000 0.000000
# 3 -0.003148 -0.003363 0.005750 0.000000 0.000000 0.000000
# 4 0.000000 0.000000 0.000000 0.029002 0.000000 0.000000
# 5 0.000000 0.000000 0.000000 0.000000 0.027015 0.000000
# 6 0.000000 0.000000 0.000000 0.000000 0.000000 0.270418
#
#
# Mechanical properties :
#
#
# Convention : Reuss Voigt Hill
#
# Bulk Modulus (GPa) = 21.73474 68.10180 44.91827
# Shear Modulus (GPa) = 12.14398 34.60754 23.37576
#
# Velocity S-wave (km/s) = 2.38373 4.02405 3.30720
# Velocity P-wave (km/s) = 4.21260 7.31133 5.96664
#
# Compressibility (1/GPa) = 0.04600930
#
# Stress axis : x y z
#
# Youngs Moduli (GPa) = 23.13689 110.97763 173.91476
#
# Poissons Ratio (x) = -0.05823 0.54747
# Poissons Ratio (y) = -0.01214 0.58488
# Poissons Ratio (z) = 0.07283 0.37322
#
# Static dielectric constant tensor:
#      x y z
#    x 1.764050 0.000000 0.000000 
#    y 0.000000 1.743590 0.000000 
#    z 0.000000 0.000000 1.916290 
# 
# From -- ./inp_files/70748.got.cif
#   From: 2010.05.17/outbox.cif.g08.bks.cpg/sg65_36_cif.got.tgz:70748.got - 2010.06.03 17:01:31.
