data_PCOD9482209
_publ_section_title
;
Structure prediction by ZEFSAII (Michael W. Deem and Ramdas Pophale) SiO2 
 PCOD9482209
Probable space group: C M C A
;
_chemical_formula_sum "Si O2"
_cell_formula_units_Z 88
_cell_length_a 13.525045
_cell_length_b 18.780190
_cell_length_c 15.879679
_cell_angle_alpha 90.000000
_cell_angle_beta 90.000000
_cell_angle_gamma 90.000000
_cell_volume 4033.484753
_symmetry_space_group_name_H-M "C M C A"
_symmetry_group_IT_number 64
_symmetry_cell_setting 'orthorhombic'
loop_
_space_group_symop_operation_xyz
x,y,z
-x,1/2-y,1/2+z
x,-y,-z
-x,1/2+y,1/2-z
-x,-y,-z
x,1/2+y,1/2-z
-x,y,z
x,1/2-y,1/2+z
1/2+x,1/2+y,z
1/2-x,-y,1/2+z
1/2+x,1/2-y,-z
1/2-x,y,1/2-z
1/2-x,1/2-y,-z
1/2+x,y,1/2-z
1/2-x,1/2+y,z
1/2+x,-y,1/2+z
loop_
_atom_site_type_symbol
_atom_site_label
_atom_site_fract_x
_atom_site_fract_y
_atom_site_fract_z
Si Si1 0.000000 0.793877 0.903541
Si Si2 0.691056 0.604088 0.335671
Si Si3 0.717097 0.868399 0.343272
Si Si4 0.500000 0.305855 0.701719
Si Si5 0.215224 0.269833 0.590933
Si Si6 0.500000 0.154329 0.601386
Si Si7 0.886573 0.961346 0.409881
O O1 0.000000 0.819594 0.804037
O O2 0.100891 0.751743 0.903803
O O3 0.000000 0.832439 0.998232
O O4 0.750000 0.605008 0.250000
O O5 0.595528 0.653888 0.332941
O O6 0.765917 0.646407 0.396808
O O7 0.653068 0.525472 0.352400
O O8 0.750000 0.891844 0.250000
O O9 0.728465 0.782700 0.346416
O O10 0.604135 0.883524 0.372282
O O11 0.801848 0.901655 0.403353
O O12 0.500000 0.226758 0.659748
O O13 0.250000 0.250000 0.500000
O O14 0.000000 0.938813 0.389386
O O15 0.889455 0.000000 0.500000
#
# Coordination Sequence:
#
# PCOD9482209 Si02
#       7
#     8  16  16   8  16   8  16
#     4  12  24  40  68 109 134 186 228 291 357 407
#     4  12  23  44  69 100 135 175 233 288 340 419
#     4  12  26  46  69 103 142 189 232 289 360 426
#     4  12  22  42  71 103 140 179 228 292 350 409
#     4  12  23  41  69 101 140 176 229 286 349 416
#     4  12  26  46  69 109 148 177 239 297 354 424
#     4  11  27  47  70  99 139 186 236 290 354 422
#
# _framework density 21.817360999999998
#
# number of rings (size 3 to 8) (size 9 to 14) (size 15 to 20)
#    0.000    0.182    6.364    3.273    2.545    0.000 
#    0.000    1.364    0.000    0.000    0.000    0.000 
#    0.000    0.000    0.000    0.000    0.000    0.000 
#
# Total GULP energy -245253.183773 kJ/mol
# GULP energy per Si atom -5573.935995 kJ/mol
# Density = 2.176770 g / cm^3
# Si number density = 21.817361 Si / 1000 Ang^3
#
#
#
# Elastic Constant Matrix: (Units=GPa)
#
#
# Indices 1 2 3 4 5 6 
#
# 1 157.3558 38.9427 -21.3423 0.0000 0.0000 0.0000
# 2 38.9427 66.1941 0.1157 0.0000 0.0000 0.0000
# 3 -21.3423 0.1157 56.6668 0.0000 0.0000 0.0000
# 4 0.0000 0.0000 0.0000 21.2274 0.0000 0.0000
# 5 0.0000 0.0000 0.0000 0.0000 16.2380 0.0000
# 6 0.0000 0.0000 0.0000 0.0000 0.0000 -0.8440
#
#
#
# Elastic Compliance Matrix: (Units=1/GPa)
#
#
# Indices 1 2 3 4 5 6 
#
# 1 0.007914 -0.004661 0.002990 0.000000 0.000000 0.000000
# 2 -0.004661 0.017852 -0.001792 0.000000 0.000000 0.000000
# 3 0.002990 -0.001792 0.018777 0.000000 0.000000 0.000000
# 4 0.000000 0.000000 0.000000 0.047109 0.000000 0.000000
# 5 0.000000 0.000000 0.000000 0.000000 0.061584 0.000000
# 6 0.000000 0.000000 0.000000 0.000000 0.000000 -1.184840
#
#
# Mechanical properties :
#
#
# Convention : Reuss Voigt Hill
#
# Bulk Modulus (GPa) = 26.58338 35.07210 30.82774
# Shear Modulus (GPa) = -4.94003 24.82431 9.94214
#
# Velocity S-wave (km/s) = -1.50638 3.37682 2.13703
# Velocity P-wave (km/s) = 3.03074 5.59590 4.49997
#
# Compressibility (1/GPa) = 0.03761749
#
# Stress axis : x y z
#
# Youngs Moduli (GPa) = 126.35594 56.01472 53.25705
#
# Poissons Ratio (x) = 0.26110 -0.15925
# Poissons Ratio (y) = 0.58897 0.09544
# Poissons Ratio (z) = -0.37783 0.10038
#
# Static dielectric constant tensor:
#      x y z
#    x 1.785240 0.000000 0.000000 
#    y 0.000000 1.795060 0.000000 
#    z 0.000000 0.000000 1.874020 
# 
# From -- ./inp_files/30970.got.cif
#   From: 2010.05.17/outbox.cif.g08.bks.cpg/sg64_16_cif.got.tgz:30970.got - 2010.06.03 16:29:19.
