data_PCOD9482154
_publ_section_title
;
Structure prediction by ZEFSAII (Michael W. Deem and Ramdas Pophale) SiO2 
 PCOD9482154
Probable space group: C M C A
;
_chemical_formula_sum "Si O2"
_cell_formula_units_Z 64
_cell_length_a 16.914606
_cell_length_b 19.338404
_cell_length_c 9.223899
_cell_angle_alpha 90.000000
_cell_angle_beta 90.000000
_cell_angle_gamma 90.000000
_cell_volume 3017.151054
_symmetry_space_group_name_H-M "C M C A"
_symmetry_group_IT_number 64
_symmetry_cell_setting 'orthorhombic'
loop_
_space_group_symop_operation_xyz
x,y,z
-x,1/2-y,1/2+z
x,-y,-z
-x,1/2+y,1/2-z
-x,-y,-z
x,1/2+y,1/2-z
-x,y,z
x,1/2-y,1/2+z
1/2+x,1/2+y,z
1/2-x,-y,1/2+z
1/2+x,1/2-y,-z
1/2-x,y,1/2-z
1/2-x,1/2-y,-z
1/2+x,y,1/2-z
1/2-x,1/2+y,z
1/2+x,-y,1/2+z
loop_
_atom_site_type_symbol
_atom_site_label
_atom_site_fract_x
_atom_site_fract_y
_atom_site_fract_z
Si Si1 0.820071 0.043566 0.862302
Si Si2 0.841148 0.690884 0.206494
Si Si3 0.593263 0.180589 0.526309
Si Si4 0.591566 0.049385 0.138564
O O1 0.750000 0.058630 0.750000
O O2 0.862162 0.112786 0.915698
O O3 0.881496 0.994306 0.777700
O O4 0.790119 0.000000 0.000000
O O5 0.750000 0.699353 0.250000
O O6 0.871159 0.752939 0.107272
O O7 0.890332 0.687784 0.355499
O O8 0.855050 0.617555 0.127917
O O9 0.500000 0.175360 0.554062
O O10 0.500000 0.070837 0.151680
O O11 0.598497 0.000000 0.000000
#
# Coordination Sequence:
#
# PCOD9482154 Si02
#       4
#    16  16  16  16
#     4  12  26  45  73 105 145 190 245 300 366 433
#     4  12  27  48  73 107 147 193 245 301 364 434
#     4  12  27  47  74 105 147 192 243 300 365 438
#     4  11  25  44  72 105 146 190 242 300 363 432
#
# _framework density 21.212063000000001
#
# number of rings (size 3 to 8) (size 9 to 14) (size 15 to 20)
#    0.000    0.250    2.500    6.000    7.000    1.000 
#    0.000    0.000    0.000    0.000    0.000    0.000 
#    0.000    0.000    0.000    0.000    0.000    0.000 
#
# Total GULP energy -179389.530599 kJ/mol
# GULP energy per Si atom -5605.922831 kJ/mol
# Density = 2.116378 g / cm^3
# Si number density = 21.212063 Si / 1000 Ang^3
#
#
#
# Elastic Constant Matrix: (Units=GPa)
#
#
# Indices 1 2 3 4 5 6 
#
# 1 112.6330 31.3820 31.1501 0.0000 0.0000 0.0000
# 2 31.3820 159.0308 48.3791 0.0000 0.0000 0.0000
# 3 31.1501 48.3791 93.1835 0.0000 0.0000 0.0000
# 4 0.0000 0.0000 0.0000 43.2406 0.0000 0.0000
# 5 0.0000 0.0000 0.0000 0.0000 34.2698 0.0000
# 6 0.0000 0.0000 0.0000 0.0000 0.0000 35.7382
#
#
#
# Elastic Compliance Matrix: (Units=1/GPa)
#
#
# Indices 1 2 3 4 5 6 
#
# 1 0.009951 -0.001130 -0.002740 0.000000 0.000000 0.000000
# 2 -0.001130 0.007596 -0.003566 0.000000 0.000000 0.000000
# 3 -0.002740 -0.003566 0.013499 0.000000 0.000000 0.000000
# 4 0.000000 0.000000 0.000000 0.023126 0.000000 0.000000
# 5 0.000000 0.000000 0.000000 0.000000 0.029180 0.000000
# 6 0.000000 0.000000 0.000000 0.000000 0.000000 0.027981
#
#
# Mechanical properties :
#
#
# Convention : Reuss Voigt Hill
#
# Bulk Modulus (GPa) = 61.82738 65.18552 63.50645
# Shear Modulus (GPa) = 37.99500 39.57879 38.78690
#
# Velocity S-wave (km/s) = 4.23685 4.32425 4.28077
# Velocity P-wave (km/s) = 7.29006 7.46521 7.37815
#
# Compressibility (1/GPa) = 0.01617407
#
# Stress axis : x y z
#
# Youngs Moduli (GPa) = 100.49247 131.65025 74.08132
#
# Poissons Ratio (x) = 0.14879 0.20296
# Poissons Ratio (y) = 0.11358 0.26416
# Poissons Ratio (z) = 0.27532 0.46944
#
# Static dielectric constant tensor:
#      x y z
#    x 1.751820 0.000000 0.000000 
#    y 0.000000 1.722650 0.000000 
#    z 0.000000 0.000000 1.757550 
# 
# From -- ./inp_files/6581.got.cif
#   From: 2010.05.17/outbox.cif.g08.bks.cpg/sg64_4_cif.got.tgz:6581.got - 2010.06.03 16:29:19.
