data_PCOD9482196
_publ_section_title
;
Structure prediction by ZEFSAII (Michael W. Deem and Ramdas Pophale) SiO2 
 PCOD9482196
Probable space group: C M C A
;
_chemical_formula_sum "Si O2"
_cell_formula_units_Z 72
_cell_length_a 23.373571
_cell_length_b 9.581985
_cell_length_c 14.150755
_cell_angle_alpha 90.000000
_cell_angle_beta 90.000000
_cell_angle_gamma 90.000000
_cell_volume 3169.276769
_symmetry_space_group_name_H-M "C M C A"
_symmetry_group_IT_number 64
_symmetry_cell_setting 'orthorhombic'
loop_
_space_group_symop_operation_xyz
x,y,z
-x,1/2-y,1/2+z
x,-y,-z
-x,1/2+y,1/2-z
-x,-y,-z
x,1/2+y,1/2-z
-x,y,z
x,1/2-y,1/2+z
1/2+x,1/2+y,z
1/2-x,-y,1/2+z
1/2+x,1/2-y,-z
1/2-x,y,1/2-z
1/2-x,1/2-y,-z
1/2+x,y,1/2-z
1/2-x,1/2+y,z
1/2+x,-y,1/2+z
loop_
_atom_site_type_symbol
_atom_site_label
_atom_site_fract_x
_atom_site_fract_y
_atom_site_fract_z
Si Si1 0.651739 0.677695 0.659991
Si Si2 0.000000 0.116149 0.358594
Si Si3 0.593306 0.500000 0.500000
Si Si4 0.000000 0.942384 0.164764
Si Si5 0.761218 0.121635 0.932563
Si Si6 0.624672 0.493293 0.154857
O O1 0.626714 0.613632 0.562891
O O2 0.719226 0.644150 0.655069
O O3 0.625086 0.591563 0.746396
O O4 0.641083 0.843568 0.667294
O O5 0.945928 0.082046 0.424687
O O6 0.000000 0.275688 0.326354
O O7 0.000000 0.019037 0.266410
O O8 0.940021 0.985058 0.116930
O O9 0.825954 0.084630 0.904618
O O10 0.750000 0.250000 0.000000
O O11 0.740392 0.000000 0.000000
#
# Coordination Sequence:
#
# PCOD9482196 Si02
#       6
#    16   8   8   8  16  16
#     4  12  27  48  79 109 157 202 264 322 395 469
#     4  11  26  47  76 110 155 203 255 313 396 459
#     4  11  26  46  76 110 154 207 252 318 392 463
#     4  12  26  47  80 110 160 196 259 313 384 490
#     4  12  27  48  77 111 153 192 255 323 390 464
#     4  12  29  48  78 116 153 210 256 319 399 467
#
# _framework density 22.718115999999998
#
# number of rings (size 3 to 8) (size 9 to 14) (size 15 to 20)
#    0.000    0.222    5.556    2.000    6.222    2.667 
#    0.000    1.667    0.000    0.000    0.000    0.000 
#    0.000    0.000    0.000    0.000    0.000    0.000 
#
# Total GULP energy -201363.359263 kJ/mol
# GULP energy per Si atom -5593.426646 kJ/mol
# Density = 2.266641 g / cm^3
# Si number density = 22.718116 Si / 1000 Ang^3
#
#
#
# Elastic Constant Matrix: (Units=GPa)
#
#
# Indices 1 2 3 4 5 6 
#
# 1 191.0382 67.9147 43.6109 0.0000 0.0000 0.0000
# 2 67.9147 210.1464 62.5251 0.0000 0.0000 0.0000
# 3 43.6109 62.5251 84.0924 0.0000 0.0000 0.0000
# 4 0.0000 0.0000 0.0000 31.7232 0.0000 0.0000
# 5 0.0000 0.0000 0.0000 0.0000 38.8795 0.0000
# 6 0.0000 0.0000 0.0000 0.0000 0.0000 9.0106
#
#
#
# Elastic Compliance Matrix: (Units=1/GPa)
#
#
# Indices 1 2 3 4 5 6 
#
# 1 0.006222 -0.001349 -0.002224 0.000000 0.000000 0.000000
# 2 -0.001349 0.006403 -0.004061 0.000000 0.000000 0.000000
# 3 -0.002224 -0.004061 0.016064 0.000000 0.000000 0.000000
# 4 0.000000 0.000000 0.000000 0.031523 0.000000 0.000000
# 5 0.000000 0.000000 0.000000 0.000000 0.025720 0.000000
# 6 0.000000 0.000000 0.000000 0.000000 0.000000 0.110980
#
#
# Mechanical properties :
#
#
# Convention : Reuss Voigt Hill
#
# Bulk Modulus (GPa) = 74.50716 92.59761 83.55238
# Shear Modulus (GPa) = 23.07828 36.67107 29.87467
#
# Velocity S-wave (km/s) = 3.19070 4.02204 3.63025
# Velocity P-wave (km/s) = 6.81481 7.90044 7.37762
#
# Compressibility (1/GPa) = 0.01342153
#
# Stress axis : x y z
#
# Youngs Moduli (GPa) = 160.72555 156.17913 62.24978
#
# Poissons Ratio (x) = 0.21071 0.13841
# Poissons Ratio (y) = 0.21685 0.25280
# Poissons Ratio (z) = 0.35737 0.63425
#
# Static dielectric constant tensor:
#      x y z
#    x 1.645070 0.000000 0.000000 
#    y 0.000000 1.781480 0.000000 
#    z 0.000000 0.000000 1.969270 
# 
# From -- ./inp_files/27864.got.cif
#   From: 2010.05.17/outbox.cif.g08.bks.cpg/sg64_14_cif.got.tgz:27864.got - 2010.06.03 16:29:19.
