data_PCOD9482177
_publ_section_title
;
Structure prediction by ZEFSAII (Michael W. Deem and Ramdas Pophale) SiO2 
 PCOD9482177
Probable space group: C M C A
;
_chemical_formula_sum "Si O2"
_cell_formula_units_Z 64
_cell_length_a 23.116302
_cell_length_b 14.648560
_cell_length_c 7.776876
_cell_angle_alpha 90.000000
_cell_angle_beta 90.000000
_cell_angle_gamma 90.000000
_cell_volume 2633.409926
_symmetry_space_group_name_H-M "C M C A"
_symmetry_group_IT_number 64
_symmetry_cell_setting 'orthorhombic'
loop_
_space_group_symop_operation_xyz
x,y,z
-x,1/2-y,1/2+z
x,-y,-z
-x,1/2+y,1/2-z
-x,-y,-z
x,1/2+y,1/2-z
-x,y,z
x,1/2-y,1/2+z
1/2+x,1/2+y,z
1/2-x,-y,1/2+z
1/2+x,1/2-y,-z
1/2-x,y,1/2-z
1/2-x,1/2-y,-z
1/2+x,y,1/2-z
1/2-x,1/2+y,z
1/2+x,-y,1/2+z
loop_
_atom_site_type_symbol
_atom_site_label
_atom_site_fract_x
_atom_site_fract_y
_atom_site_fract_z
Si Si1 0.000000 0.184237 0.757324
Si Si2 0.000000 0.887040 0.853934
Si Si3 0.374819 0.866234 0.120014
Si Si4 0.874655 0.940435 0.763518
Si Si5 0.204539 0.802879 0.880466
O O1 0.058381 0.152718 0.663351
O O2 0.000000 0.294155 0.757277
O O3 0.000000 0.146117 0.949831
O O4 0.058020 0.941468 0.812781
O O5 0.337001 0.780034 0.177975
O O6 0.355350 0.958391 0.214708
O O7 0.369211 0.883302 0.915333
O O8 0.839917 0.885596 0.910324
O O9 0.250000 0.847027 0.750000
O O10 0.250000 0.750000 0.000000
#
# Coordination Sequence:
#
# PCOD9482177 Si02
#       5
#     8   8  16  16  16
#     4  12  25  42  73 106 142 186 235 297 370 435
#     4  12  25  42  73 106 144 184 233 297 372 435
#     4  11  25  47  73 106 142 186 238 298 363 435
#     4  11  25  47  73 106 143 186 237 298 367 431
#     4  12  26  47  72 101 143 192 242 293 353 423
#
# _framework density 24.303089
#
# number of rings (size 3 to 8) (size 9 to 14) (size 15 to 20)
#    0.000    0.500    5.000    3.000    3.500    5.000 
#    0.000    0.000    0.000    0.000    0.000    0.000 
#    0.000    0.000    0.000    0.000    0.000    0.000 
#
# Total GULP energy -179039.327120 kJ/mol
# GULP energy per Si atom -5594.978973 kJ/mol
# Density = 2.424777 g / cm^3
# Si number density = 24.303089 Si / 1000 Ang^3
#
#
#
# Elastic Constant Matrix: (Units=GPa)
#
#
# Indices 1 2 3 4 5 6 
#
# 1 154.7305 45.5676 20.4278 0.0000 0.0000 0.0000
# 2 45.5676 129.9087 22.5157 0.0000 0.0000 0.0000
# 3 20.4278 22.5157 88.3157 0.0000 0.0000 0.0000
# 4 0.0000 0.0000 0.0000 32.8089 0.0000 0.0000
# 5 0.0000 0.0000 0.0000 0.0000 40.8630 0.0000
# 6 0.0000 0.0000 0.0000 0.0000 0.0000 -16.8533
#
#
#
# Elastic Compliance Matrix: (Units=1/GPa)
#
#
# Indices 1 2 3 4 5 6 
#
# 1 0.007305 -0.002375 -0.001084 0.000000 0.000000 0.000000
# 2 -0.002375 0.008825 -0.001701 0.000000 0.000000 0.000000
# 3 -0.001084 -0.001701 0.012007 0.000000 0.000000 0.000000
# 4 0.000000 0.000000 0.000000 0.030480 0.000000 0.000000
# 5 0.000000 0.000000 0.000000 0.000000 0.024472 0.000000
# 6 0.000000 0.000000 0.000000 0.000000 0.000000 -0.059336
#
#
# Mechanical properties :
#
#
# Convention : Reuss Voigt Hill
#
# Bulk Modulus (GPa) = 56.12039 61.10856 58.61448
# Shear Modulus (GPa) = 124.95939 30.32665 77.64302
#
# Velocity S-wave (km/s) = 7.17835 3.53633 5.65837
# Velocity P-wave (km/s) = 9.58368 6.47094 8.17680
#
# Compressibility (1/GPa) = 0.01781883
#
# Stress axis : x y z
#
# Youngs Moduli (GPa) = 136.88702 113.30947 83.28176
#
# Poissons Ratio (x) = 0.26905 0.09031
# Poissons Ratio (y) = 0.32504 0.14164
# Poissons Ratio (z) = 0.14844 0.19271
#
# Static dielectric constant tensor:
#      x y z
#    x 1.872030 0.000000 0.000000 
#    y 0.000000 1.866280 0.000000 
#    z 0.000000 0.000000 2.060280 
# 
# From -- ./inp_files/7797.got.cif
#   From: 2010.05.17/outbox.cif.g08.bks.cpg/sg64_4_cif.got.tgz:7797.got - 2010.06.03 16:29:19.
