data_PCOD9482293
_publ_section_title
;
Structure prediction by ZEFSAII (Michael W. Deem and Ramdas Pophale) SiO2 
 PCOD9482293
Probable space group: C M C A
;
_chemical_formula_sum "Si O2"
_cell_formula_units_Z 44
_cell_length_a 8.952656
_cell_length_b 28.361515
_cell_length_c 7.607340
_cell_angle_alpha 90.000000
_cell_angle_beta 90.000000
_cell_angle_gamma 90.000000
_cell_volume 1931.586450
_symmetry_space_group_name_H-M "C M C A"
_symmetry_group_IT_number 64
_symmetry_cell_setting 'orthorhombic'
loop_
_space_group_symop_operation_xyz
x,y,z
-x,1/2-y,1/2+z
x,-y,-z
-x,1/2+y,1/2-z
-x,-y,-z
x,1/2+y,1/2-z
-x,y,z
x,1/2-y,1/2+z
1/2+x,1/2+y,z
1/2-x,-y,1/2+z
1/2+x,1/2-y,-z
1/2-x,y,1/2-z
1/2-x,1/2-y,-z
1/2+x,y,1/2-z
1/2-x,1/2+y,z
1/2+x,-y,1/2+z
loop_
_atom_site_type_symbol
_atom_site_label
_atom_site_fract_x
_atom_site_fract_y
_atom_site_fract_z
Si Si1 0.827251 0.391195 0.081861
Si Si2 0.250000 0.454726 0.750000
Si Si3 0.820615 0.799332 0.939495
Si Si4 0.500000 0.000000 0.500000
O O1 0.750000 0.415312 0.250000
O O2 0.000000 0.381327 0.119978
O O3 0.816821 0.421144 0.903630
O O4 0.734671 0.343074 0.054516
O O5 0.128421 0.484321 0.644522
O O6 0.750000 0.808805 0.750000
O O7 0.000000 0.796586 0.934989
O O8 0.750000 0.750000 0.000000
#
# Coordination Sequence:
#
# PCOD9482293 Si02
#       4
#    16   8  16   4
#     4  12  27  48  80 117 162 215 272 340 419 500
#     4  12  30  54  86 120 162 210 276 350 434 512
#     4  12  25  44  72 111 163 217 277 337 403 491
#     4  12  32  56  88 124 166 218 280 362 436 526
#
# _framework density 22.779201
#
# number of rings (size 3 to 8) (size 9 to 14) (size 15 to 20)
#    0.000    0.000    3.636    5.455    7.636    0.727 
#    0.000    0.000    0.000    0.000    0.000    0.000 
#    0.000    0.000    0.000    0.000    0.000    0.000 
#
# Total GULP energy -122697.891199 kJ/mol
# GULP energy per Si atom -5577.176873 kJ/mol
# Density = 2.272735 g / cm^3
# Si number density = 22.779201 Si / 1000 Ang^3
#
#
#
# Elastic Constant Matrix: (Units=GPa)
#
#
# Indices 1 2 3 4 5 6 
#
# 1 282.8588 78.4484 79.9759 0.0000 0.0000 0.0000
# 2 78.4484 112.6030 61.8892 0.0000 0.0000 0.0000
# 3 79.9759 61.8892 191.5584 0.0000 0.0000 0.0000
# 4 0.0000 0.0000 0.0000 80.0032 0.0000 0.0000
# 5 0.0000 0.0000 0.0000 0.0000 33.6023 0.0000
# 6 0.0000 0.0000 0.0000 0.0000 0.0000 -229.5933
#
#
#
# Elastic Compliance Matrix: (Units=1/GPa)
#
#
# Indices 1 2 3 4 5 6 
#
# 1 0.004554 -0.002587 -0.001065 0.000000 0.000000 0.000000
# 2 -0.002587 0.012268 -0.002883 0.000000 0.000000 0.000000
# 3 -0.001065 -0.002883 0.006597 0.000000 0.000000 0.000000
# 4 0.000000 0.000000 0.000000 0.012499 0.000000 0.000000
# 5 0.000000 0.000000 0.000000 0.000000 0.029760 0.000000
# 6 0.000000 0.000000 0.000000 0.000000 0.000000 -0.004356
#
#
# Mechanical properties :
#
#
# Convention : Reuss Voigt Hill
#
# Bulk Modulus (GPa) = 96.64893 114.18303 105.41598
# Shear Modulus (GPa) = 64.23126 1.24956 32.74041
#
# Velocity S-wave (km/s) = 5.31588 0.74145 3.79528
# Velocity P-wave (km/s) = 8.95538 7.13917 8.09835
#
# Compressibility (1/GPa) = 0.01034673
#
# Stress axis : x y z
#
# Youngs Moduli (GPa) = 219.58172 81.51301 151.58938
#
# Poissons Ratio (x) = 0.21089 0.16152
# Poissons Ratio (y) = 0.56809 0.43710
# Poissons Ratio (z) = 0.23396 0.23504
#
# Static dielectric constant tensor:
#      x y z
#    x 1.770260 0.000000 0.000000 
#    y 0.000000 1.952620 0.000000 
#    z 0.000000 0.000000 1.799920 
# 
# From -- ./inp_files/3907.got.cif
#   From: 2010.05.17/outbox.cif.g08.bks.cpg/sg64_2_cif.got.tgz:3907.got - 2010.06.03 16:29:19.
