data_PCOD9482723
_publ_section_title
;
Structure prediction by ZEFSAII (Michael W. Deem and Ramdas Pophale) SiO2 
 PCOD9482723
Probable space group: C M M M
;
_chemical_formula_sum "Si O2"
_cell_formula_units_Z 80
_cell_length_a 24.656626
_cell_length_b 27.247697
_cell_length_c 7.624136
_cell_angle_alpha 90.000000
_cell_angle_beta 90.000000
_cell_angle_gamma 90.000000
_cell_volume 5122.171125
_symmetry_space_group_name_H-M "C M M M"
_symmetry_group_IT_number 65
_symmetry_cell_setting 'orthorhombic'
loop_
_space_group_symop_operation_xyz
x,y,z
-x,-y,z
x,-y,-z
-x,y,-z
-x,-y,-z
x,y,-z
-x,y,z
x,-y,z
1/2+x,1/2+y,z
1/2-x,1/2-y,z
1/2+x,1/2-y,-z
1/2-x,1/2+y,-z
1/2-x,1/2-y,-z
1/2+x,1/2+y,-z
1/2-x,1/2+y,z
1/2+x,1/2-y,z
loop_
_atom_site_type_symbol
_atom_site_label
_atom_site_fract_x
_atom_site_fract_y
_atom_site_fract_z
Si Si1 0.283805 0.298010 0.211819
Si Si2 0.384112 0.944799 0.714784
Si Si3 0.000000 0.405006 0.290687
Si Si4 0.318852 0.850778 0.706796
Si Si5 0.614525 0.754032 0.203889
Si Si6 0.500000 0.789290 0.787052
O O1 0.250000 0.250000 0.270455
O O2 0.245254 0.342695 0.264794
O O3 0.344711 0.287514 0.277110
O O4 0.285361 0.297509 0.000000
O O5 0.384258 0.944855 0.500000
O O6 0.444371 0.929092 0.774486
O O7 0.342501 0.902399 0.770587
O O8 0.371290 0.000000 0.771458
O O9 0.000000 0.412294 0.500000
O O10 0.000000 0.346889 0.257411
O O11 0.329791 0.847267 0.500000
O O12 0.352032 0.805349 0.789447
O O13 0.555296 0.764358 0.280214
O O14 0.606122 0.741649 0.000000
O O15 0.500000 0.786936 0.000000
#
# Coordination Sequence:
#
# PCOD9482723 Si02
#       6
#    16  16   8  16  16   8
#     4   8  15  27  40  53  72  97 121 146 185 232
#     4   9  17  27  39  55  74  98 129 163 196 228
#     4  10  17  28  42  54  70  98 134 165 195 223
#     4  10  17  25  40  58  73  92 124 162 191 218
#     4   9  17  28  40  54  74 100 124 149 186 229
#     4  10  18  27  41  57  76 100 127 159 190 220
#
# _framework density 15.618377000000001
#
# number of rings (size 3 to 8) (size 9 to 14) (size 15 to 20)
#    0.000    2.800    2.000    2.100    0.000    4.800 
#    0.000    0.000    0.000    6.000    0.000    0.000 
#    0.000    0.000    0.000    0.900    0.000   20.200 
#
# Total GULP energy -222742.859359 kJ/mol
# GULP energy per Si atom -5568.571484 kJ/mol
# Density = 1.558283 g / cm^3
# Si number density = 15.618377 Si / 1000 Ang^3
#
#
#
# Elastic Constant Matrix: (Units=GPa)
#
#
# Indices 1 2 3 4 5 6 
#
# 1 113.1367 67.7521 -7.7876 0.0000 0.0000 0.0000
# 2 67.7521 80.7660 -3.0147 0.0000 0.0000 0.0000
# 3 -7.7876 -3.0147 25.7103 0.0000 0.0000 0.0000
# 4 0.0000 0.0000 0.0000 15.2148 0.0000 0.0000
# 5 0.0000 0.0000 0.0000 0.0000 1.5034 0.0000
# 6 0.0000 0.0000 0.0000 0.0000 0.0000 11.4503
#
#
#
# Elastic Compliance Matrix: (Units=1/GPa)
#
#
# Indices 1 2 3 4 5 6 
#
# 1 0.018109 -0.015052 0.003720 0.000000 0.000000 0.000000
# 2 -0.015052 0.024947 -0.001634 0.000000 0.000000 0.000000
# 3 0.003720 -0.001634 0.039830 0.000000 0.000000 0.000000
# 4 0.000000 0.000000 0.000000 0.065725 0.000000 0.000000
# 5 0.000000 0.000000 0.000000 0.000000 0.665140 0.000000
# 6 0.000000 0.000000 0.000000 0.000000 0.000000 0.087334
#
#
# Mechanical properties :
#
#
# Convention : Reuss Voigt Hill
#
# Bulk Modulus (GPa) = 17.55793 37.05696 27.30745
# Shear Modulus (GPa) = 5.28540 16.47793 10.88166
#
# Velocity S-wave (km/s) = 1.84159 3.25165 2.64241
# Velocity P-wave (km/s) = 3.97343 6.15432 5.17995
#
# Compressibility (1/GPa) = 0.05695431
#
# Stress axis : x y z
#
# Youngs Moduli (GPa) = 55.22132 40.08456 25.10661
#
# Poissons Ratio (x) = 0.60336 -0.09340
# Poissons Ratio (y) = 0.83120 0.04102
# Poissons Ratio (z) = -0.20543 0.06550
#
# Static dielectric constant tensor:
#      x y z
#    x 1.567250 0.000000 0.000000 
#    y 0.000000 1.501690 0.000000 
#    z 0.000000 0.000000 1.584130 
# 
# From -- ./inp_files/14538.got.cif
#   From: 2010.05.17/outbox.cif.g08.bks.cpg/sg65_8_cif.got.tgz:14538.got - 2010.06.03 17:01:31.
