data_PCOD9482544
_publ_section_title
;
Structure prediction by ZEFSAII (Michael W. Deem and Ramdas Pophale) SiO2 
 PCOD9482544
Probable space group: C M M M
;
_chemical_formula_sum "Si O2"
_cell_formula_units_Z 64
_cell_length_a 8.708836
_cell_length_b 15.802646
_cell_length_c 22.204841
_cell_angle_alpha 90.000000
_cell_angle_beta 90.000000
_cell_angle_gamma 90.000000
_cell_volume 3055.889114
_symmetry_space_group_name_H-M "C M M M"
_symmetry_group_IT_number 65
_symmetry_cell_setting 'orthorhombic'
loop_
_space_group_symop_operation_xyz
x,y,z
-x,-y,z
x,-y,-z
-x,y,-z
-x,-y,-z
x,y,-z
-x,y,z
x,-y,z
1/2+x,1/2+y,z
1/2-x,1/2-y,z
1/2+x,1/2-y,-z
1/2-x,1/2+y,-z
1/2-x,1/2-y,-z
1/2+x,1/2+y,-z
1/2-x,1/2+y,z
1/2+x,1/2-y,z
loop_
_atom_site_type_symbol
_atom_site_label
_atom_site_fract_x
_atom_site_fract_y
_atom_site_fract_z
Si Si1 0.184212 0.846032 0.122435
Si Si2 0.182528 0.655590 0.624251
Si Si3 0.316809 0.846475 0.000000
Si Si4 0.816045 0.846027 0.254215
Si Si5 0.329360 0.400599 0.500000
O O1 0.250000 0.750000 0.124555
O O2 0.255868 0.885840 0.062342
O O3 0.219944 0.884297 0.188342
O O4 0.000000 0.842540 0.116096
O O5 0.250000 0.750000 0.625236
O O6 0.247285 0.613279 0.685410
O O7 0.240314 0.620428 0.560950
O O8 0.000000 0.656336 0.626809
O O9 0.250000 0.750000 0.000000
O O10 0.500000 0.843163 0.000000
O O11 0.750000 0.750000 0.252122
O O12 0.000000 0.842027 0.260061
O O13 0.348195 0.500000 0.500000
O O14 0.500000 0.359439 0.500000
#
# Coordination Sequence:
#
# PCOD9482544 Si02
#       5
#    16  16   8  16   8
#     4   9  15  22  32  47  71 104 143 186 227 271
#     4  11  21  34  54  77 102 129 162 202 241 288
#     4  10  16  20  28  42  66 102 143 184 225 274
#     4   9  16  26  41  61  85 114 151 193 236 279
#     4  11  24  41  58  75  99 129 160 197 242 291
#
# _framework density 20.943168
#
# number of rings (size 3 to 8) (size 9 to 14) (size 15 to 20)
#    0.000    2.125    0.000    8.625    0.000    4.000 
#    0.000    0.000    0.000    0.000    0.000    0.000 
#    0.000    0.000    0.000    1.125    0.000   23.000 
#
# Total GULP energy -178433.541043 kJ/mol
# GULP energy per Si atom -5576.048158 kJ/mol
# Density = 2.089550 g / cm^3
# Si number density = 20.943168 Si / 1000 Ang^3
#
#
#
# Elastic Constant Matrix: (Units=GPa)
#
#
# Indices 1 2 3 4 5 6 
#
# 1 169.5374 7.2257 110.1933 0.0000 0.0000 0.0000
# 2 7.2257 17.8340 21.9943 0.0000 0.0000 0.0000
# 3 110.1933 21.9943 285.7223 0.0000 0.0000 0.0000
# 4 0.0000 0.0000 0.0000 245.8606 0.0000 0.0000
# 5 0.0000 0.0000 0.0000 0.0000 45.1576 0.0000
# 6 0.0000 0.0000 0.0000 0.0000 0.0000 1.4462
#
#
#
# Elastic Compliance Matrix: (Units=1/GPa)
#
#
# Indices 1 2 3 4 5 6 
#
# 1 0.007878 0.000613 -0.003085 0.000000 0.000000 0.000000
# 2 0.000613 0.062002 -0.005009 0.000000 0.000000 0.000000
# 3 -0.003085 -0.005009 0.005075 0.000000 0.000000 0.000000
# 4 0.000000 0.000000 0.000000 0.004067 0.000000 0.000000
# 5 0.000000 0.000000 0.000000 0.000000 0.022145 0.000000
# 6 0.000000 0.000000 0.000000 0.000000 0.000000 0.691491
#
#
# Mechanical properties :
#
#
# Convention : Reuss Voigt Hill
#
# Bulk Modulus (GPa) = 16.66874 83.54670 50.10772
# Shear Modulus (GPa) = 6.04143 80.73823 43.38983
#
# Velocity S-wave (km/s) = 1.70028 6.21569 4.55663
# Velocity P-wave (km/s) = 3.43961 9.56513 7.18758
#
# Compressibility (1/GPa) = 0.05999253
#
# Stress axis : x y z
#
# Youngs Moduli (GPa) = 126.94177 16.12847 197.02790
#
# Poissons Ratio (x) = -0.00989 0.60790
# Poissons Ratio (y) = -0.07786 0.98698
# Poissons Ratio (z) = 0.39166 0.08079
#
# Static dielectric constant tensor:
#      x y z
#    x 1.750500 0.000000 0.000000 
#    y 0.000000 1.719070 0.000000 
#    z 0.000000 0.000000 1.890320 
# 
# From -- ./inp_files/59127.got.cif
#   From: 2010.05.17/outbox.cif.g08.bks.cpg/sg65_30_cif.got.tgz:59127.got - 2010.06.03 17:01:31.
