data_PCOD9482003
_publ_section_title
;
Structure prediction by ZEFSAII (Michael W. Deem and Ramdas Pophale) SiO2 
 PCOD9482003
Probable space group: C M C A
;
_chemical_formula_sum "Si O2"
_cell_formula_units_Z 104
_cell_length_a 21.278754
_cell_length_b 13.633369
_cell_length_c 15.462130
_cell_angle_alpha 90.000000
_cell_angle_beta 90.000000
_cell_angle_gamma 90.000000
_cell_volume 4485.581001
_symmetry_space_group_name_H-M "C M C A"
_symmetry_group_IT_number 64
_symmetry_cell_setting 'orthorhombic'
loop_
_space_group_symop_operation_xyz
x,y,z
-x,1/2-y,1/2+z
x,-y,-z
-x,1/2+y,1/2-z
-x,-y,-z
x,1/2+y,1/2-z
-x,y,z
x,1/2-y,1/2+z
1/2+x,1/2+y,z
1/2-x,-y,1/2+z
1/2+x,1/2-y,-z
1/2-x,y,1/2-z
1/2-x,1/2-y,-z
1/2+x,y,1/2-z
1/2-x,1/2+y,z
1/2+x,-y,1/2+z
loop_
_atom_site_type_symbol
_atom_site_label
_atom_site_fract_x
_atom_site_fract_y
_atom_site_fract_z
Si Si1 0.773539 0.510095 0.899929
Si Si2 0.931099 0.616991 0.485365
Si Si3 0.000000 0.632531 0.754089
Si Si4 0.828221 0.647941 0.347003
Si Si5 0.232657 0.220090 0.899689
Si Si6 0.090717 0.739733 0.145282
Si Si7 0.101525 0.035125 0.305207
O O1 0.731267 0.421090 0.867425
O O2 0.729211 0.603906 0.894128
O O3 0.838470 0.514577 0.849731
O O4 0.789781 0.500000 0.000000
O O5 0.923173 0.500000 0.500000
O O6 0.874555 0.653628 0.427831
O O7 0.930936 0.682417 0.571604
O O8 0.000000 0.628979 0.443452
O O9 0.944217 0.713860 0.728099
O O10 0.945936 0.547706 0.774546
O O11 0.791818 0.749777 0.339870
O O12 0.869109 0.598371 0.273396
O O13 0.166394 0.260332 0.866225
O O14 0.250000 0.250000 0.000000
O O15 0.073769 0.624436 0.136319
#
# Coordination Sequence:
#
# PCOD9482003 Si02
#       7
#    16  16   8  16  16  16  16
#     4  12  24  47  75 107 153 204 259 325 393 475
#     4  11  23  41  73 111 144 200 263 317 391 480
#     4  12  28  50  72 106 152 206 260 322 389 475
#     4  12  25  45  73 114 152 190 261 335 388 473
#     4  12  23  43  76 115 149 199 261 323 395 479
#     4  12  24  48  75 104 158 210 254 322 403 474
#     4  12  29  48  73 111 155 205 263 326 405 469
#
# _framework density 23.185403000000001
#
# number of rings (size 3 to 8) (size 9 to 14) (size 15 to 20)
#    0.000    0.154    5.385    4.154    5.385    0.000 
#    0.000    0.385    0.000    0.000    0.000    0.000 
#    0.000    0.000    0.000    0.000    0.000    0.000 
#
# Total GULP energy -289646.645317 kJ/mol
# GULP energy per Si atom -5570.127795 kJ/mol
# Density = 2.313263 g / cm^3
# Si number density = 23.185403 Si / 1000 Ang^3
#
#
#
# Elastic Constant Matrix: (Units=GPa)
#
#
# Indices 1 2 3 4 5 6 
#
# 1 169.0220 19.4291 13.6635 0.0000 0.0000 0.0000
# 2 19.4291 91.0424 -4.5191 0.0000 0.0000 0.0000
# 3 13.6635 -4.5191 27.7750 0.0000 0.0000 0.0000
# 4 0.0000 0.0000 0.0000 23.4228 0.0000 0.0000
# 5 0.0000 0.0000 0.0000 0.0000 23.2927 0.0000
# 6 0.0000 0.0000 0.0000 0.0000 0.0000 52.8554
#
#
#
# Elastic Compliance Matrix: (Units=1/GPa)
#
#
# Indices 1 2 3 4 5 6 
#
# 1 0.006365 -0.001526 -0.003379 0.000000 0.000000 0.000000
# 2 -0.001526 0.011439 0.002612 0.000000 0.000000 0.000000
# 3 -0.003379 0.002612 0.038091 0.000000 0.000000 0.000000
# 4 0.000000 0.000000 0.000000 0.042693 0.000000 0.000000
# 5 0.000000 0.000000 0.000000 0.000000 0.042932 0.000000
# 6 0.000000 0.000000 0.000000 0.000000 0.000000 0.018920
#
#
# Mechanical properties :
#
#
# Convention : Reuss Voigt Hill
#
# Bulk Modulus (GPa) = 19.49015 38.33184 28.91099
# Shear Modulus (GPa) = 27.45291 37.19858 32.32574
#
# Velocity S-wave (km/s) = 3.44475 4.00984 3.73799
# Velocity P-wave (km/s) = 4.92404 6.16498 5.57912
#
# Compressibility (1/GPa) = 0.05130798
#
# Stress axis : x y z
#
# Youngs Moduli (GPa) = 157.10904 87.41857 26.25291
#
# Poissons Ratio (x) = 0.13341 0.08872
# Poissons Ratio (y) = 0.23976 -0.06857
# Poissons Ratio (z) = 0.53094 -0.22833
#
# Static dielectric constant tensor:
#      x y z
#    x 1.847490 0.000000 0.000000 
#    y 0.000000 1.813200 0.000000 
#    z 0.000000 0.000000 1.956530 
# 
# From -- ./inp_files/34362.got.cif
#   From: 2010.05.17/outbox.cif.g08.bks.cpg/sg64_18_cif.got.tgz:34362.got - 2010.06.03 16:29:19.
