data_PCOD9482264
_publ_section_title
;
Structure prediction by ZEFSAII (Michael W. Deem and Ramdas Pophale) SiO2 
 PCOD9482264
Probable space group: C M C A
;
_chemical_formula_sum "Si O2"
_cell_formula_units_Z 80
_cell_length_a 9.027932
_cell_length_b 27.970720
_cell_length_c 18.409817
_cell_angle_alpha 90.000000
_cell_angle_beta 90.000000
_cell_angle_gamma 90.000000
_cell_volume 4648.805717
_symmetry_space_group_name_H-M "C M C A"
_symmetry_group_IT_number 64
_symmetry_cell_setting 'orthorhombic'
loop_
_space_group_symop_operation_xyz
x,y,z
-x,1/2-y,1/2+z
x,-y,-z
-x,1/2+y,1/2-z
-x,-y,-z
x,1/2+y,1/2-z
-x,y,z
x,1/2-y,1/2+z
1/2+x,1/2+y,z
1/2-x,-y,1/2+z
1/2+x,1/2-y,-z
1/2-x,y,1/2-z
1/2-x,1/2-y,-z
1/2+x,y,1/2-z
1/2-x,1/2+y,z
1/2+x,-y,1/2+z
loop_
_atom_site_type_symbol
_atom_site_label
_atom_site_fract_x
_atom_site_fract_y
_atom_site_fract_z
Si Si1 0.821556 0.798929 0.525575
Si Si2 0.677033 0.347290 0.673580
Si Si3 0.176378 0.540746 0.670767
Si Si4 0.323600 0.448732 0.600232
Si Si5 0.822832 0.101955 0.551581
O O1 0.750000 0.750000 0.500000
O O2 0.774540 0.813605 0.607101
O O3 0.785224 0.844548 0.474832
O O4 0.000000 0.794913 0.525468
O O5 0.500000 0.343370 0.679626
O O6 0.750000 0.336383 0.750000
O O7 0.708030 0.401762 0.648623
O O8 0.250000 0.541903 0.750000
O O9 0.231843 0.493047 0.629497
O O10 0.234464 0.584126 0.621027
O O11 0.000000 0.540968 0.677111
O O12 0.500000 0.459282 0.605276
O O13 0.293160 0.433000 0.517275
O O14 0.000000 0.099800 0.564836
#
# Coordination Sequence:
#
# PCOD9482264 Si02
#       5
#    16  16  16  16  16
#     4   9  19  36  57  79 103 133 171 213 258 308
#     4   9  18  32  51  78 107 134 167 207 253 304
#     4  12  24  35  50  75 107 141 178 216 254 303
#     4   9  18  34  55  77 105 139 171 208 255 306
#     4   9  19  37  57  76 103 138 173 212 260 309
#
# _framework density 17.208722000000002
#
# number of rings (size 3 to 8) (size 9 to 14) (size 15 to 20)
#    0.000    2.400    0.000    5.400    0.000    7.200 
#    0.000    5.000    0.000    2.400    0.000    0.000 
#    0.000    0.000    0.000    0.000    0.000    0.000 
#
# Total GULP energy -223275.338241 kJ/mol
# GULP energy per Si atom -5581.883456 kJ/mol
# Density = 1.716955 g / cm^3
# Si number density = 17.208722 Si / 1000 Ang^3
#
#
#
# Elastic Constant Matrix: (Units=GPa)
#
#
# Indices 1 2 3 4 5 6 
#
# 1 65.6896 60.4945 63.3174 0.0000 0.0000 0.0000
# 2 60.4945 108.1449 76.5525 0.0000 0.0000 0.0000
# 3 63.3174 76.5525 102.7960 0.0000 0.0000 0.0000
# 4 0.0000 0.0000 0.0000 13.6198 0.0000 0.0000
# 5 0.0000 0.0000 0.0000 0.0000 33.3311 0.0000
# 6 0.0000 0.0000 0.0000 0.0000 0.0000 24.8352
#
#
#
# Elastic Compliance Matrix: (Units=1/GPa)
#
#
# Indices 1 2 3 4 5 6 
#
# 1 0.043088 -0.011242 -0.018168 0.000000 0.000000 0.000000
# 2 -0.011242 0.022489 -0.009823 0.000000 0.000000 0.000000
# 3 -0.018168 -0.009823 0.028234 0.000000 0.000000 0.000000
# 4 0.000000 0.000000 0.000000 0.073423 0.000000 0.000000
# 5 0.000000 0.000000 0.000000 0.000000 0.030002 0.000000
# 6 0.000000 0.000000 0.000000 0.000000 0.000000 0.040265
#
#
# Mechanical properties :
#
#
# Convention : Reuss Voigt Hill
#
# Bulk Modulus (GPa) = 65.17002 75.26215 70.21608
# Shear Modulus (GPa) = 15.57231 19.44162 17.50697
#
# Velocity S-wave (km/s) = 3.01143 3.36483 3.19302
# Velocity P-wave (km/s) = 7.07419 7.67632 7.38140
#
# Compressibility (1/GPa) = 0.01534448
#
# Stress axis : x y z
#
# Youngs Moduli (GPa) = 23.20816 44.46647 35.41827
#
# Poissons Ratio (x) = 0.49989 0.64349
# Poissons Ratio (y) = 0.26091 0.34791
# Poissons Ratio (z) = 0.42165 0.43679
#
# Static dielectric constant tensor:
#      x y z
#    x 1.569200 0.000000 0.000000 
#    y 0.000000 1.569810 0.000000 
#    z 0.000000 0.000000 1.577920 
# 
# From -- ./inp_files/29699.got.cif
#   From: 2010.05.17/outbox.cif.g08.bks.cpg/sg64_15_cif.got.tgz:29699.got - 2010.06.03 16:29:19.
