data_PCOD9482632
_publ_section_title
;
Structure prediction by ZEFSAII (Michael W. Deem and Ramdas Pophale) SiO2 
 PCOD9482632
Probable space group: C M M M
;
_chemical_formula_sum "Si O2"
_cell_formula_units_Z 88
_cell_length_a 14.462552
_cell_length_b 20.824801
_cell_length_c 14.766102
_cell_angle_alpha 90.000000
_cell_angle_beta 90.000000
_cell_angle_gamma 90.000000
_cell_volume 4447.251165
_symmetry_space_group_name_H-M "C M M M"
_symmetry_group_IT_number 65
_symmetry_cell_setting 'orthorhombic'
loop_
_space_group_symop_operation_xyz
x,y,z
-x,-y,z
x,-y,-z
-x,y,-z
-x,-y,-z
x,y,-z
-x,y,z
x,-y,z
1/2+x,1/2+y,z
1/2-x,1/2-y,z
1/2+x,1/2-y,-z
1/2-x,1/2+y,-z
1/2-x,1/2-y,-z
1/2+x,1/2+y,-z
1/2-x,1/2+y,z
1/2+x,1/2-y,z
loop_
_atom_site_type_symbol
_atom_site_label
_atom_site_fract_x
_atom_site_fract_y
_atom_site_fract_z
Si Si1 0.103714 0.613650 0.000000
Si Si2 0.107717 0.076586 0.095819
Si Si3 0.141609 0.237237 0.000000
Si Si4 0.391024 0.121046 0.202312
Si Si5 0.605560 0.724401 0.792716
Si Si6 0.704939 0.389274 0.718345
Si Si7 0.892484 0.000000 0.608282
O O1 0.140046 0.598545 0.100798
O O2 0.098044 0.691333 0.000000
O O3 0.000000 0.586916 0.000000
O O4 0.162131 0.091407 0.185314
O O5 0.000000 0.095618 0.100828
O O6 0.106271 0.000000 0.091577
O O7 0.149468 0.099230 0.000000
O O8 0.250000 0.250000 0.000000
O O9 0.117968 0.208603 0.099294
O O10 0.500000 0.104672 0.214723
O O11 0.383671 0.198692 0.207468
O O12 0.314634 0.098913 0.274212
O O13 0.500000 0.709251 0.766812
O O14 0.673170 0.685745 0.724847
O O15 0.657266 0.435920 0.646243
O O16 0.890506 0.000000 0.500000
O O17 0.000000 0.000000 0.639186
#
# Coordination Sequence:
#
# PCOD9482632 Si02
#       7
#     8  16   8  16  16  16   8
#     4   8  14  28  44  64 108 164 204 222 248 292
#     4   9  18  31  46  71 110 145 177 221 275 328
#     4  10  16  24  38  66 111 160 198 224 253 308
#     4   9  19  33  51  80 120 160 195 232 262 310
#     4  10  19  30  48  78 116 154 193 229 269 318
#     4  12  21  34  59  82 107 148 193 230 276 338
#     4  11  26  48  68  86 107 132 174 236 299 355
#
# _framework density 19.787503999999998
#
# number of rings (size 3 to 8) (size 9 to 14) (size 15 to 20)
#    0.000    2.091    0.909    6.818    2.545    0.000 
#    0.000    0.455    0.000    3.273    0.000    5.727 
#    0.000    0.000    0.000    0.000    0.000    0.000 
#
# Total GULP energy -245186.278756 kJ/mol
# GULP energy per Si atom -5572.415426 kJ/mol
# Density = 1.974247 g / cm^3
# Si number density = 19.787504 Si / 1000 Ang^3
#
#
#
# Elastic Constant Matrix: (Units=GPa)
#
#
# Indices 1 2 3 4 5 6 
#
# 1 125.9619 6.8778 30.5801 0.0000 0.0000 0.0000
# 2 6.8778 18.8529 14.6902 0.0000 0.0000 0.0000
# 3 30.5801 14.6902 49.3599 0.0000 0.0000 0.0000
# 4 0.0000 0.0000 0.0000 19.1659 0.0000 0.0000
# 5 0.0000 0.0000 0.0000 0.0000 20.1602 0.0000
# 6 0.0000 0.0000 0.0000 0.0000 0.0000 16.2689
#
#
#
# Elastic Compliance Matrix: (Units=1/GPa)
#
#
# Indices 1 2 3 4 5 6 
#
# 1 0.009374 0.001439 -0.006236 0.000000 0.000000 0.000000
# 2 0.001439 0.069277 -0.021510 0.000000 0.000000 0.000000
# 3 -0.006236 -0.021510 0.030524 0.000000 0.000000 0.000000
# 4 0.000000 0.000000 0.000000 0.052176 0.000000 0.000000
# 5 0.000000 0.000000 0.000000 0.000000 0.049603 0.000000
# 6 0.000000 0.000000 0.000000 0.000000 0.000000 0.061467
#
#
# Mechanical properties :
#
#
# Convention : Reuss Voigt Hill
#
# Bulk Modulus (GPa) = 17.67931 33.16343 25.42137
# Shear Modulus (GPa) = 14.53959 20.58744 17.56352
#
# Velocity S-wave (km/s) = 2.71364 3.22906 2.98250
# Velocity P-wave (km/s) = 4.33271 5.54064 4.97348
#
# Compressibility (1/GPa) = 0.05656328
#
# Stress axis : x y z
#
# Youngs Moduli (GPa) = 106.67525 14.43472 32.76080
#
# Poissons Ratio (x) = -0.02077 0.20430
# Poissons Ratio (y) = -0.15353 0.70467
# Poissons Ratio (z) = 0.66522 0.31048
#
# Static dielectric constant tensor:
#      x y z
#    x 1.733480 0.000000 0.000000 
#    y 0.000000 1.840670 0.000000 
#    z 0.000000 0.000000 1.654850 
# 
# From -- ./inp_files/40620.got.cif
#   From: 2010.05.17/outbox.cif.g08.bks.cpg/sg65_21_cif.got.tgz:40620.got - 2010.06.03 17:01:31.
