data_PCOD9482563
_publ_section_title
;
Structure prediction by ZEFSAII (Michael W. Deem and Ramdas Pophale) SiO2 
 PCOD9482563
Probable space group: C M M M
;
_chemical_formula_sum "Si O2"
_cell_formula_units_Z 104
_cell_length_a 27.854913
_cell_length_b 8.800918
_cell_length_c 27.520368
_cell_angle_alpha 90.000000
_cell_angle_beta 90.000000
_cell_angle_gamma 90.000000
_cell_volume 6746.585334
_symmetry_space_group_name_H-M "C M M M"
_symmetry_group_IT_number 65
_symmetry_cell_setting 'orthorhombic'
loop_
_space_group_symop_operation_xyz
x,y,z
-x,-y,z
x,-y,-z
-x,y,-z
-x,-y,-z
x,y,-z
-x,y,z
x,-y,z
1/2+x,1/2+y,z
1/2-x,1/2-y,z
1/2+x,1/2-y,-z
1/2-x,1/2+y,-z
1/2-x,1/2-y,-z
1/2+x,1/2+y,-z
1/2-x,1/2+y,z
1/2+x,1/2-y,z
loop_
_atom_site_type_symbol
_atom_site_label
_atom_site_fract_x
_atom_site_fract_y
_atom_site_fract_z
Si Si1 0.401276 0.816640 0.444819
Si Si2 0.945298 0.181620 0.650482
Si Si3 0.646310 0.182202 0.700811
Si Si4 0.198765 0.681868 0.397886
Si Si5 0.303627 0.318382 0.793846
Si Si6 0.695648 0.181568 0.000000
Si Si7 0.696227 0.318211 0.901984
O O1 0.413363 0.775941 0.500000
O O2 0.433387 0.738652 0.403915
O O3 0.345852 0.776232 0.432506
O O4 0.405280 0.000000 0.439581
O O5 0.905802 0.258313 0.684930
O O6 0.000000 0.221453 0.663050
O O7 0.939939 0.000000 0.652558
O O8 0.682170 0.227506 0.656594
O O9 0.664565 0.250657 0.751019
O O10 0.645939 0.000000 0.703006
O O11 0.202678 0.500000 0.398730
O O12 0.250000 0.750000 0.410755
O O13 0.300156 0.500000 0.789074
O O14 0.250000 0.250000 0.790118
O O15 0.323720 0.285570 0.848156
O O16 0.750000 0.250000 0.000000
O O17 0.673210 0.243029 0.949767
O O18 0.697993 0.000000 0.000000
O O19 0.698652 0.500000 0.908601
O O20 0.750000 0.250000 0.899695
#
# Coordination Sequence:
#
# PCOD9482563 Si02
#       7
#    16  16  16  16  16   8  16
#     4   9  19  35  51  68  92 119 147 178 212 257
#     4  10  21  36  53  72  92 112 138 177 223 270
#     4  10  20  33  49  67  89 117 148 183 221 266
#     4   9  18  30  44  64  88 116 147 176 209 249
#     4  10  19  29  43  64  91 122 155 190 227 266
#     4  10  16  22  34  50  72 106 149 194 231 262
#     4   9  16  25  36  52  77 111 150 189 226 263
#
# _framework density 15.415206
#
# number of rings (size 3 to 8) (size 9 to 14) (size 15 to 20)
#    0.000    2.462    0.000    4.846    0.000    8.308 
#    0.000    1.538    0.000    0.000    0.000    0.000 
#    0.000    0.000    0.000    0.692    0.000   13.462 
#
# Total GULP energy -289836.921892 kJ/mol
# GULP energy per Si atom -5573.786959 kJ/mol
# Density = 1.538012 g / cm^3
# Si number density = 15.415206 Si / 1000 Ang^3
#
#
#
# Elastic Constant Matrix: (Units=GPa)
#
#
# Indices 1 2 3 4 5 6 
#
# 1 50.1320 17.1810 21.1564 0.0000 0.0000 0.0000
# 2 17.1810 51.6700 39.4612 0.0000 0.0000 0.0000
# 3 21.1564 39.4612 118.3194 0.0000 0.0000 0.0000
# 4 0.0000 0.0000 0.0000 24.8889 0.0000 0.0000
# 5 0.0000 0.0000 0.0000 0.0000 9.1035 0.0000
# 6 0.0000 0.0000 0.0000 0.0000 0.0000 20.6818
#
#
#
# Elastic Compliance Matrix: (Units=1/GPa)
#
#
# Indices 1 2 3 4 5 6 
#
# 1 0.022890 -0.006018 -0.002086 0.000000 0.000000 0.000000
# 2 -0.006018 0.027550 -0.008112 0.000000 0.000000 0.000000
# 3 -0.002086 -0.008112 0.011530 0.000000 0.000000 0.000000
# 4 0.000000 0.000000 0.000000 0.040179 0.000000 0.000000
# 5 0.000000 0.000000 0.000000 0.000000 0.109848 0.000000
# 6 0.000000 0.000000 0.000000 0.000000 0.000000 0.048352
#
#
# Mechanical properties :
#
#
# Convention : Reuss Voigt Hill
#
# Bulk Modulus (GPa) = 33.85489 41.74652 37.80070
# Shear Modulus (GPa) = 16.52195 20.42302 18.47248
#
# Velocity S-wave (km/s) = 3.27738 3.64381 3.46544
# Velocity P-wave (km/s) = 6.02755 6.69652 6.37082
#
# Compressibility (1/GPa) = 0.02953783
#
# Stress axis : x y z
#
# Youngs Moduli (GPa) = 43.68698 36.29736 86.72884
#
# Poissons Ratio (x) = 0.21845 0.18089
# Poissons Ratio (y) = 0.26292 0.70357
# Poissons Ratio (z) = 0.09112 0.29445
#
# Static dielectric constant tensor:
#      x y z
#    x 1.484370 0.000000 0.000000 
#    y 0.000000 1.515180 0.000000 
#    z 0.000000 0.000000 1.552070 
# 
# From -- ./inp_files/76052.got.cif
#   From: 2010.05.17/outbox.cif.g08.bks.cpg/sg65_39_cif.got.tgz:76052.got - 2010.06.03 17:01:31.
