data_PCOD9482170
_publ_section_title
;
Structure prediction by ZEFSAII (Michael W. Deem and Ramdas Pophale) SiO2 
 PCOD9482170
Probable space group: C M C A
;
_chemical_formula_sum "Si O2"
_cell_formula_units_Z 64
_cell_length_a 33.839754
_cell_length_b 8.722421
_cell_length_c 9.641235
_cell_angle_alpha 90.000000
_cell_angle_beta 90.000000
_cell_angle_gamma 90.000000
_cell_volume 2845.751088
_symmetry_space_group_name_H-M "C M C A"
_symmetry_group_IT_number 64
_symmetry_cell_setting 'orthorhombic'
loop_
_space_group_symop_operation_xyz
x,y,z
-x,1/2-y,1/2+z
x,-y,-z
-x,1/2+y,1/2-z
-x,-y,-z
x,1/2+y,1/2-z
-x,y,z
x,1/2-y,1/2+z
1/2+x,1/2+y,z
1/2-x,-y,1/2+z
1/2+x,1/2-y,-z
1/2-x,y,1/2-z
1/2-x,1/2-y,-z
1/2+x,y,1/2-z
1/2-x,1/2+y,z
1/2+x,-y,1/2+z
loop_
_atom_site_type_symbol
_atom_site_label
_atom_site_fract_x
_atom_site_fract_y
_atom_site_fract_z
Si Si1 0.824426 0.568528 0.711599
Si Si2 0.205339 0.229319 0.050173
Si Si3 0.912278 0.071605 0.850157
Si Si4 0.045453 0.111649 0.370346
O O1 0.802854 0.419384 0.647987
O O2 0.819478 0.695985 0.589224
O O3 0.806183 0.627795 0.854147
O O4 0.871130 0.547629 0.729739
O O5 0.250000 0.250000 0.000000
O O6 0.925093 0.246179 0.867469
O O7 0.946517 0.984684 0.767840
O O8 0.906131 0.000000 0.000000
O O9 0.000000 0.164450 0.377548
O O10 0.052624 0.000000 0.500000
#
# Coordination Sequence:
#
# PCOD9482170 Si02
#       4
#    16  16  16  16
#     4  11  26  47  69 109 136 190 237 289 361 424
#     4  11  25  46  72  99 146 181 237 294 354 424
#     4  12  24  46  74 103 149 189 241 302 360 434
#     4  11  26  44  71 109 146 192 243 297 364 430
#
# _framework density 22.489668000000002
#
# number of rings (size 3 to 8) (size 9 to 14) (size 15 to 20)
#    0.000    0.750    2.500    4.500    3.500   13.000 
#    0.000    0.000    0.000    0.000    0.000    0.000 
#    0.000    0.000    0.000    0.000    0.000    0.000 
#
# Total GULP energy -179235.458457 kJ/mol
# GULP energy per Si atom -5601.108077 kJ/mol
# Density = 2.243848 g / cm^3
# Si number density = 22.489668 Si / 1000 Ang^3
#
#
#
# Elastic Constant Matrix: (Units=GPa)
#
#
# Indices 1 2 3 4 5 6 
#
# 1 101.2769 58.3580 25.6227 0.0000 0.0000 0.0000
# 2 58.3580 89.7397 16.3899 0.0000 0.0000 0.0000
# 3 25.6227 16.3899 69.1461 0.0000 0.0000 0.0000
# 4 0.0000 0.0000 0.0000 47.7691 0.0000 0.0000
# 5 0.0000 0.0000 0.0000 0.0000 53.5668 0.0000
# 6 0.0000 0.0000 0.0000 0.0000 0.0000 53.2114
#
#
#
# Elastic Compliance Matrix: (Units=1/GPa)
#
#
# Indices 1 2 3 4 5 6 
#
# 1 0.016683 -0.010160 -0.003774 0.000000 0.000000 0.000000
# 2 -0.010160 0.017835 -0.000463 0.000000 0.000000 0.000000
# 3 -0.003774 -0.000463 0.015970 0.000000 0.000000 0.000000
# 4 0.000000 0.000000 0.000000 0.020934 0.000000 0.000000
# 5 0.000000 0.000000 0.000000 0.000000 0.018668 0.000000
# 6 0.000000 0.000000 0.000000 0.000000 0.000000 0.018793
#
#
# Mechanical properties :
#
#
# Convention : Reuss Voigt Hill
#
# Bulk Modulus (GPa) = 46.09245 51.21153 48.65199
# Shear Modulus (GPa) = 34.50477 41.56226 38.03352
#
# Velocity S-wave (km/s) = 3.92120 4.30357 4.11683
# Velocity P-wave (km/s) = 6.40629 6.89310 6.65415
#
# Compressibility (1/GPa) = 0.02169553
#
# Stress axis : x y z
#
# Youngs Moduli (GPa) = 59.94140 56.07029 62.61652
#
# Poissons Ratio (x) = 0.56966 0.23630
# Poissons Ratio (y) = 0.60899 0.02897
# Poissons Ratio (z) = 0.22621 0.02594
#
# Static dielectric constant tensor:
#      x y z
#    x 1.815220 0.000000 0.000000 
#    y 0.000000 1.893650 0.000000 
#    z 0.000000 0.000000 1.793410 
# 
# From -- ./inp_files/19476.got.cif
#   From: 2010.05.17/outbox.cif.g08.bks.cpg/sg64_10_cif.got.tgz:19476.got - 2010.06.03 16:29:19.
