data_PCOD9482149
_publ_section_title
;
Structure prediction by ZEFSAII (Michael W. Deem and Ramdas Pophale) SiO2 
 PCOD9482149
Probable space group: C M C A
;
_chemical_formula_sum "Si O2"
_cell_formula_units_Z 88
_cell_length_a 14.961295
_cell_length_b 18.301298
_cell_length_c 14.693277
_cell_angle_alpha 90.000000
_cell_angle_beta 90.000000
_cell_angle_gamma 90.000000
_cell_volume 4023.182606
_symmetry_space_group_name_H-M "C M C A"
_symmetry_group_IT_number 64
_symmetry_cell_setting 'orthorhombic'
loop_
_space_group_symop_operation_xyz
x,y,z
-x,1/2-y,1/2+z
x,-y,-z
-x,1/2+y,1/2-z
-x,-y,-z
x,1/2+y,1/2-z
-x,y,z
x,1/2-y,1/2+z
1/2+x,1/2+y,z
1/2-x,-y,1/2+z
1/2+x,1/2-y,-z
1/2-x,y,1/2-z
1/2-x,1/2-y,-z
1/2+x,y,1/2-z
1/2-x,1/2+y,z
1/2+x,-y,1/2+z
loop_
_atom_site_type_symbol
_atom_site_label
_atom_site_fract_x
_atom_site_fract_y
_atom_site_fract_z
Si Si1 0.500000 0.793572 0.533324
Si Si2 0.601172 0.451092 0.586396
Si Si3 0.687576 0.722965 0.582857
Si Si4 0.845981 0.417969 0.209172
Si Si5 0.500000 0.310966 0.764530
Si Si6 0.193988 0.839837 0.678056
Si Si7 0.500000 0.346201 0.178809
O O1 0.590039 0.747794 0.548430
O O2 0.500000 0.838236 0.630441
O O3 0.500000 0.826223 0.429754
O O4 0.616586 0.500000 0.500000
O O5 0.500000 0.422209 0.582034
O O6 0.611482 0.508536 0.668290
O O7 0.673397 0.387127 0.589551
O O8 0.750000 0.750000 0.500000
O O9 0.671132 0.644624 0.631244
O O10 0.739583 0.772489 0.658733
O O11 0.750000 0.433577 0.250000
O O12 0.911463 0.388106 0.288233
O O13 0.594157 0.330852 0.717652
O O14 0.500000 0.224163 0.745870
O O15 0.250000 0.886351 0.750000
#
# Coordination Sequence:
#
# PCOD9482149 Si02
#       7
#     8  16  16  16   8  16   8
#     4  12  24  40  65 105 139 184 231 294 350 421
#     4  11  25  44  68  98 133 181 232 284 348 419
#     4  12  24  41  70 108 141 182 236 289 351 420
#     4  12  23  44  68  97 141 183 228 289 355 414
#     4  12  22  43  65 100 139 182 228 286 348 411
#     4  12  23  43  70  95 138 182 230 283 347 417
#     4  12  24  41  66  98 143 180 228 285 358 406
#
# _framework density 21.873231000000001
#
# number of rings (size 3 to 8) (size 9 to 14) (size 15 to 20)
#    0.000    0.182    5.455    5.455    0.000    0.000 
#    0.000    0.000    0.000    1.091    0.000    0.000 
#    0.000    0.000    0.000    0.000    0.000    0.000 
#
# Total GULP energy -245173.601462 kJ/mol
# GULP energy per Si atom -5572.127306 kJ/mol
# Density = 2.182345 g / cm^3
# Si number density = 21.873231 Si / 1000 Ang^3
#
#
#
# Elastic Constant Matrix: (Units=GPa)
#
#
# Indices 1 2 3 4 5 6 
#
# 1 126.4386 7.4563 6.3391 0.0000 0.0000 0.0000
# 2 7.4563 45.5680 -10.7037 0.0000 0.0000 0.0000
# 3 6.3391 -10.7037 100.0084 0.0000 0.0000 0.0000
# 4 0.0000 0.0000 0.0000 21.2017 0.0000 0.0000
# 5 0.0000 0.0000 0.0000 0.0000 41.9108 0.0000
# 6 0.0000 0.0000 0.0000 0.0000 0.0000 28.9009
#
#
#
# Elastic Compliance Matrix: (Units=1/GPa)
#
#
# Indices 1 2 3 4 5 6 
#
# 1 0.008029 -0.001470 -0.000666 0.000000 0.000000 0.000000
# 2 -0.001470 0.022780 0.002531 0.000000 0.000000 0.000000
# 3 -0.000666 0.002531 0.010312 0.000000 0.000000 0.000000
# 4 0.000000 0.000000 0.000000 0.047166 0.000000 0.000000
# 5 0.000000 0.000000 0.000000 0.000000 0.023860 0.000000
# 6 0.000000 0.000000 0.000000 0.000000 0.000000 0.034601
#
#
# Mechanical properties :
#
#
# Convention : Reuss Voigt Hill
#
# Bulk Modulus (GPa) = 23.85991 30.91094 27.38543
# Shear Modulus (GPa) = 31.26367 36.33089 33.79728
#
# Velocity S-wave (km/s) = 3.78473 4.07993 3.93510
# Velocity P-wave (km/s) = 5.48004 6.02967 5.76141
#
# Compressibility (1/GPa) = 0.04191131
#
# Stress axis : x y z
#
# Youngs Moduli (GPa) = 124.54713 43.89731 96.97143
#
# Poissons Ratio (x) = 0.06454 0.06461
# Poissons Ratio (y) = 0.18312 -0.24547
# Poissons Ratio (z) = 0.08299 -0.11112
#
# Static dielectric constant tensor:
#      x y z
#    x 1.509510 0.000000 0.000000 
#    y 0.000000 1.876870 0.000000 
#    z 0.000000 0.000000 2.354030 
# 
# From -- ./inp_files/23813.got.cif
#   From: 2010.05.17/outbox.cif.g08.bks.cpg/sg64_12_cif.got.tgz:23813.got - 2010.06.03 16:29:19.
