data_PCOD9482028
_publ_section_title
;
Structure prediction by ZEFSAII (Michael W. Deem and Ramdas Pophale) SiO2 
 PCOD9482028
Probable space group: C M C A
;
_chemical_formula_sum "Si O2"
_cell_formula_units_Z 72
_cell_length_a 13.638876
_cell_length_b 13.618452
_cell_length_c 15.526532
_cell_angle_alpha 90.000000
_cell_angle_beta 90.000000
_cell_angle_gamma 90.000000
_cell_volume 2883.903925
_symmetry_space_group_name_H-M "C M C A"
_symmetry_group_IT_number 64
_symmetry_cell_setting 'orthorhombic'
loop_
_space_group_symop_operation_xyz
x,y,z
-x,1/2-y,1/2+z
x,-y,-z
-x,1/2+y,1/2-z
-x,-y,-z
x,1/2+y,1/2-z
-x,y,z
x,1/2-y,1/2+z
1/2+x,1/2+y,z
1/2-x,-y,1/2+z
1/2+x,1/2-y,-z
1/2-x,y,1/2-z
1/2-x,1/2-y,-z
1/2+x,y,1/2-z
1/2-x,1/2+y,z
1/2+x,-y,1/2+z
loop_
_atom_site_type_symbol
_atom_site_label
_atom_site_fract_x
_atom_site_fract_y
_atom_site_fract_z
Si Si1 0.162494 0.888546 0.808212
Si Si2 0.500000 0.774309 0.151365
Si Si3 0.365419 0.096614 0.752608
Si Si4 0.211767 0.399576 0.970429
Si Si5 0.390029 0.800645 0.426675
O O1 0.250000 0.844223 0.750000
O O2 0.113221 0.981946 0.762757
O O3 0.222450 0.929497 0.888752
O O4 0.085938 0.809659 0.840072
O O5 0.414921 0.859910 0.163206
O O6 0.250000 0.103466 0.750000
O O7 0.398924 0.165155 0.672310
O O8 0.138294 0.312677 0.943403
O O9 0.163024 0.500000 0.000000
O O10 0.296651 0.357689 0.034070
O O11 0.500000 0.817007 0.466074
#
# Coordination Sequence:
#
# PCOD9482028 Si02
#       5
#    16   8  16  16  16
#     4  11  25  43  66  97 133 180 225 279 341 408
#     4  12  22  38  65  95 127 169 221 276 326 395
#     4  11  23  43  66  95 136 177 225 282 340 403
#     4  11  24  45  69  98 136 183 227 277 347 415
#     4  11  24  43  70 100 137 180 224 289 342 401
#
# _framework density 24.966156999999999
#
# number of rings (size 3 to 8) (size 9 to 14) (size 15 to 20)
#    0.000    0.889    3.333    4.000    1.556    0.889 
#    0.000    0.000    0.000    0.000    0.000    0.000 
#    0.000    0.000    0.000    0.000    0.000    0.000 
#
# Total GULP energy -200451.881016 kJ/mol
# GULP energy per Si atom -5568.107806 kJ/mol
# Density = 2.490933 g / cm^3
# Si number density = 24.966157 Si / 1000 Ang^3
#
#
#
# Elastic Constant Matrix: (Units=GPa)
#
#
# Indices 1 2 3 4 5 6 
#
# 1 133.0980 -15.9105 5.6347 0.0000 0.0000 0.0000
# 2 -15.9105 86.0131 19.8369 0.0000 0.0000 0.0000
# 3 5.6347 19.8369 22.0285 0.0000 0.0000 0.0000
# 4 0.0000 0.0000 0.0000 21.3977 0.0000 0.0000
# 5 0.0000 0.0000 0.0000 0.0000 59.2132 0.0000
# 6 0.0000 0.0000 0.0000 0.0000 0.0000 45.8737
#
#
#
# Elastic Compliance Matrix: (Units=1/GPa)
#
#
# Indices 1 2 3 4 5 6 
#
# 1 0.007988 0.002460 -0.004258 0.000000 0.000000 0.000000
# 2 0.002460 0.015431 -0.014525 0.000000 0.000000 0.000000
# 3 -0.004258 -0.014525 0.059565 0.000000 0.000000 0.000000
# 4 0.000000 0.000000 0.000000 0.046734 0.000000 0.000000
# 5 0.000000 0.000000 0.000000 0.000000 0.016888 0.000000
# 6 0.000000 0.000000 0.000000 0.000000 0.000000 0.021799
#
#
# Mechanical properties :
#
#
# Convention : Reuss Voigt Hill
#
# Bulk Modulus (GPa) = 19.86629 28.91799 24.39214
# Shear Modulus (GPa) = 22.95372 40.73550 31.84461
#
# Velocity S-wave (km/s) = 3.03544 4.04372 3.57530
# Velocity P-wave (km/s) = 4.50108 5.78016 5.18025
#
# Compressibility (1/GPa) = 0.05033653
#
# Stress axis : x y z
#
# Youngs Moduli (GPa) = 125.19505 64.80506 16.78848
#
# Poissons Ratio (x) = -0.15939 0.07149
# Poissons Ratio (y) = -0.30792 0.24385
# Poissons Ratio (z) = 0.53308 0.94128
#
# Static dielectric constant tensor:
#      x y z
#    x 1.905750 0.000000 0.000000 
#    y 0.000000 1.946070 0.000000 
#    z 0.000000 0.000000 2.215630 
# 
# From -- ./inp_files/31877.got.cif
#   From: 2010.05.17/outbox.cif.g08.bks.cpg/sg64_16_cif.got.tgz:31877.got - 2010.06.03 16:29:19.
