data_PCOD9482665
_publ_section_title
;
Structure prediction by ZEFSAII (Michael W. Deem and Ramdas Pophale) SiO2 
 PCOD9482665
Probable space group: C M M M
;
_chemical_formula_sum "Si O2"
_cell_formula_units_Z 88
_cell_length_a 20.810626
_cell_length_b 25.552523
_cell_length_c 9.814285
_cell_angle_alpha 90.000000
_cell_angle_beta 90.000000
_cell_angle_gamma 90.000000
_cell_volume 5218.883444
_symmetry_space_group_name_H-M "C M M M"
_symmetry_group_IT_number 65
_symmetry_cell_setting 'orthorhombic'
loop_
_space_group_symop_operation_xyz
x,y,z
-x,-y,z
x,-y,-z
-x,y,-z
-x,-y,-z
x,y,-z
-x,y,z
x,-y,z
1/2+x,1/2+y,z
1/2-x,1/2-y,z
1/2+x,1/2-y,-z
1/2-x,1/2+y,-z
1/2-x,1/2-y,-z
1/2+x,1/2+y,-z
1/2-x,1/2+y,z
1/2+x,1/2-y,z
loop_
_atom_site_type_symbol
_atom_site_label
_atom_site_fract_x
_atom_site_fract_y
_atom_site_fract_z
Si Si1 0.071195 0.676223 0.836134
Si Si2 0.186555 0.939123 0.838006
Si Si3 0.250000 0.250000 0.744109
Si Si4 0.074896 0.893185 0.660840
Si Si5 0.391443 0.728050 0.346215
Si Si6 0.795247 0.638971 0.841770
O O1 0.078880 0.731801 0.761473
O O2 0.131918 0.641799 0.787122
O O3 0.000000 0.654902 0.808828
O O4 0.077366 0.683255 0.000000
O O5 0.122555 0.925747 0.755022
O O6 0.243816 0.901737 0.783977
O O7 0.203321 0.000000 0.823742
O O8 0.176642 0.928470 0.000000
O O9 0.314331 0.264573 0.662265
O O10 0.232084 0.302095 0.827870
O O11 0.086359 0.903493 0.500000
O O12 0.089754 0.831616 0.683667
O O13 0.000000 0.903250 0.689251
O O14 0.413049 0.740268 0.500000
O O15 0.800861 0.624988 0.000000
#
# Coordination Sequence:
#
# PCOD9482665 Si02
#       6
#    16  16   8  16  16  16
#     4   9  18  31  48  72 102 135 166 196 236 292
#     4  10  21  37  55  74  97 127 166 211 252 289
#     4  10  16  28  50  74  99 130 161 202 243 292
#     4  10  21  36  52  71  99 134 168 204 248 294
#     4  10  19  30  47  73 105 134 162 200 245 292
#     4   9  17  30  50  75 100 128 162 202 246 293
#
# _framework density 16.861844000000001
#
# number of rings (size 3 to 8) (size 9 to 14) (size 15 to 20)
#    0.000    2.364    1.818    1.091    0.000    3.636 
#    0.000    1.818    0.000    0.545    0.000    3.818 
#    0.000    0.000    0.000    6.364    0.000    6.364 
#
# Total GULP energy -245116.727523 kJ/mol
# GULP energy per Si atom -5570.834716 kJ/mol
# Density = 1.682347 g / cm^3
# Si number density = 16.861844 Si / 1000 Ang^3
#
#
#
# Elastic Constant Matrix: (Units=GPa)
#
#
# Indices 1 2 3 4 5 6 
#
# 1 137.6419 47.8580 28.5655 0.0000 0.0000 0.0000
# 2 47.8580 61.3058 19.8981 0.0000 0.0000 0.0000
# 3 28.5655 19.8981 27.1365 0.0000 0.0000 0.0000
# 4 0.0000 0.0000 0.0000 16.1445 0.0000 0.0000
# 5 0.0000 0.0000 0.0000 0.0000 17.8579 0.0000
# 6 0.0000 0.0000 0.0000 0.0000 0.0000 13.3163
#
#
#
# Elastic Compliance Matrix: (Units=1/GPa)
#
#
# Indices 1 2 3 4 5 6 
#
# 1 0.010861 -0.006257 -0.006845 0.000000 0.000000 0.000000
# 2 -0.006257 0.025011 -0.011753 0.000000 0.000000 0.000000
# 3 -0.006845 -0.011753 0.052674 0.000000 0.000000 0.000000
# 4 0.000000 0.000000 0.000000 0.061941 0.000000 0.000000
# 5 0.000000 0.000000 0.000000 0.000000 0.055998 0.000000
# 6 0.000000 0.000000 0.000000 0.000000 0.000000 0.075096
#
#
# Mechanical properties :
#
#
# Convention : Reuss Voigt Hill
#
# Bulk Modulus (GPa) = 25.74919 46.52526 36.13722
# Shear Modulus (GPa) = 14.52489 18.11459 16.31974
#
# Velocity S-wave (km/s) = 2.93816 3.28120 3.11440
# Velocity P-wave (km/s) = 5.17824 6.48128 5.86605
#
# Compressibility (1/GPa) = 0.03883618
#
# Stress axis : x y z
#
# Youngs Moduli (GPa) = 92.06847 39.98254 18.98457
#
# Poissons Ratio (x) = 0.25018 0.12996
# Poissons Ratio (y) = 0.57609 0.22312
# Poissons Ratio (z) = 0.63024 0.46991
#
# Static dielectric constant tensor:
#      x y z
#    x 1.610280 0.000000 0.000000 
#    y 0.000000 1.548510 0.000000 
#    z 0.000000 0.000000 1.565510 
# 
# From -- ./inp_files/12301.got.cif
#   From: 2010.05.17/outbox.cif.g08.bks.cpg/sg65_7_cif.got.tgz:12301.got - 2010.06.03 17:01:31.
