data_PCOD9482840
_publ_section_title
;
Structure prediction by ZEFSAII (Michael W. Deem and Ramdas Pophale) SiO2 
 PCOD9482840
Probable space group: C M M M
;
_chemical_formula_sum "Si O2"
_cell_formula_units_Z 112
_cell_length_a 14.673770
_cell_length_b 16.339069
_cell_length_c 23.694826
_cell_angle_alpha 90.000000
_cell_angle_beta 90.000000
_cell_angle_gamma 90.000000
_cell_volume 5680.970554
_symmetry_space_group_name_H-M "C M M M"
_symmetry_group_IT_number 65
_symmetry_cell_setting 'orthorhombic'
loop_
_space_group_symop_operation_xyz
x,y,z
-x,-y,z
x,-y,-z
-x,y,-z
-x,-y,-z
x,y,-z
-x,y,z
x,-y,z
1/2+x,1/2+y,z
1/2-x,1/2-y,z
1/2+x,1/2-y,-z
1/2-x,1/2+y,-z
1/2-x,1/2-y,-z
1/2+x,1/2+y,-z
1/2-x,1/2+y,z
1/2+x,1/2-y,z
loop_
_atom_site_type_symbol
_atom_site_label
_atom_site_fract_x
_atom_site_fract_y
_atom_site_fract_z
Si Si1 0.138688 0.407606 0.565431
Si Si2 0.860464 0.908757 0.565447
Si Si3 0.639949 0.250515 0.635074
Si Si4 0.295026 0.592155 0.161129
Si Si5 0.100844 0.209040 0.763116
Si Si6 0.602204 0.847806 0.858992
Si Si7 0.891373 0.196881 0.064508
O O1 0.112512 0.393481 0.500000
O O2 0.109866 0.500000 0.581525
O O3 0.249569 0.407917 0.566482
O O4 0.108515 0.333197 0.605071
O O5 0.887174 0.899211 0.500000
O O6 0.891499 0.831758 0.601889
O O7 0.888639 0.000000 0.584633
O O8 0.750000 0.250000 0.632264
O O9 0.613553 0.259420 0.700066
O O10 0.328048 0.500000 0.166467
O O11 0.323639 0.645233 0.215715
O O12 0.186973 0.594134 0.151109
O O13 0.340981 0.637607 0.107978
O O14 0.103399 0.284408 0.806567
O O15 0.000000 0.170966 0.768862
O O16 0.500000 0.882510 0.863405
O O17 0.621103 0.789420 0.912894
O O18 0.000000 0.181087 0.067850
O O19 0.861714 0.187491 0.000000
#
# Coordination Sequence:
#
# PCOD9482840 Si02
#       7
#    16  16  16  16  16  16  16
#     4   8  14  25  43  70 101 128 160 212 277 339
#     4   8  14  24  39  64  96 126 162 211 264 318
#     4  10  17  27  48  73  95 126 171 221 275 331
#     4  11  22  35  55  82 112 145 179 224 283 336
#     4  10  21  37  54  72 100 140 185 229 269 317
#     4   9  19  37  58  79 106 141 181 224 271 327
#     4   9  18  34  58  85 112 148 193 234 269 312
#
# _framework density 19.714941
#
# number of rings (size 3 to 8) (size 9 to 14) (size 15 to 20)
#    0.000    2.714    0.000    5.143    0.000    5.143 
#    0.000    4.286    0.000    3.000    0.000    5.000 
#    0.000    0.000    0.000    0.000    0.000    0.000 
#
# Total GULP energy -312471.314018 kJ/mol
# GULP energy per Si atom -5579.844893 kJ/mol
# Density = 1.967007 g / cm^3
# Si number density = 19.714941 Si / 1000 Ang^3
#
#
#
# Elastic Constant Matrix: (Units=GPa)
#
#
# Indices 1 2 3 4 5 6 
#
# 1 76.7534 25.9420 7.6840 0.0000 0.0000 0.0000
# 2 25.9420 103.9451 67.3782 0.0000 0.0000 0.0000
# 3 7.6840 67.3782 120.4212 0.0000 0.0000 0.0000
# 4 0.0000 0.0000 0.0000 7.4208 0.0000 0.0000
# 5 0.0000 0.0000 0.0000 0.0000 33.1324 0.0000
# 6 0.0000 0.0000 0.0000 0.0000 0.0000 -16.8268
#
#
#
# Elastic Compliance Matrix: (Units=1/GPa)
#
#
# Indices 1 2 3 4 5 6 
#
# 1 0.014452 -0.004722 0.001720 0.000000 0.000000 0.000000
# 2 -0.004722 0.016638 -0.009008 0.000000 0.000000 0.000000
# 3 0.001720 -0.009008 0.013235 0.000000 0.000000 0.000000
# 4 0.000000 0.000000 0.000000 0.134756 0.000000 0.000000
# 5 0.000000 0.000000 0.000000 0.000000 0.030182 0.000000
# 6 0.000000 0.000000 0.000000 0.000000 0.000000 -0.059429
#
#
# Mechanical properties :
#
#
# Convention : Reuss Voigt Hill
#
# Bulk Modulus (GPa) = 49.24887 55.90314 52.57600
# Shear Modulus (GPa) = 27.68216 18.08632 22.88424
#
# Velocity S-wave (km/s) = 3.75123 3.03213 3.41068
# Velocity P-wave (km/s) = 6.61793 6.37775 6.49895
#
# Compressibility (1/GPa) = 0.02030503
#
# Stress axis : x y z
#
# Youngs Moduli (GPa) = 69.19234 60.10356 75.55936
#
# Poissons Ratio (x) = 0.28379 -0.12994
# Poissons Ratio (y) = 0.32670 0.68064
# Poissons Ratio (z) = -0.11899 0.54141
#
# Static dielectric constant tensor:
#      x y z
#    x 1.744920 0.000000 0.000000 
#    y 0.000000 1.664190 0.000000 
#    z 0.000000 0.000000 1.653600 
# 
# From -- ./inp_files/74914.got.cif
#   From: 2010.05.17/outbox.cif.g08.bks.cpg/sg65_38_cif.got.tgz:74914.got - 2010.06.03 17:01:31.
