data_PCOD9482442
_publ_section_title
;
Structure prediction by ZEFSAII (Michael W. Deem and Ramdas Pophale) SiO2 
 PCOD9482442
Probable space group: C M C A
;
_chemical_formula_sum "Si O2"
_cell_formula_units_Z 48
_cell_length_a 9.000000
_cell_length_b 21.000000
_cell_length_c 27.000000
_cell_angle_alpha 90.000000
_cell_angle_beta 90.000000
_cell_angle_gamma 90.000000
_cell_volume 5103.000000
_symmetry_space_group_name_H-M "C M C A"
_symmetry_group_IT_number 64
_symmetry_cell_setting 'orthorhombic'
loop_
_space_group_symop_operation_xyz
x,y,z
-x,1/2-y,1/2+z
x,-y,-z
-x,1/2+y,1/2-z
-x,-y,-z
x,1/2+y,1/2-z
-x,y,z
x,1/2-y,1/2+z
1/2+x,1/2+y,z
1/2-x,-y,1/2+z
1/2+x,1/2-y,-z
1/2-x,y,1/2-z
1/2-x,1/2-y,-z
1/2+x,y,1/2-z
1/2-x,1/2+y,z
1/2+x,-y,1/2+z
loop_
_atom_site_type_symbol
_atom_site_label
_atom_site_fract_x
_atom_site_fract_y
_atom_site_fract_z
Si Si1 0.172354 0.256830 0.946210
Si Si2 0.178837 0.073440 0.300579
Si Si3 0.167755 0.382592 0.407072
Si Si4 0.166163 0.425723 0.995712
Si Si5 0.175755 0.373637 0.600256
Si Si6 0.820894 0.567075 0.700671
O O1 0.164602 0.191920 0.916266
O O2 0.273305 0.303402 0.914306
O O3 0.000000 0.276263 0.952538
O O4 0.250000 0.250000 0.000000
O O5 0.250000 0.101524 0.250000
O O6 0.236820 0.105712 0.350686
O O7 0.000000 0.073349 0.297849
O O8 0.244179 0.001937 0.303089
O O9 0.270919 0.404990 0.451527
O O10 0.212091 0.399048 0.351316
O O11 0.000000 0.408985 0.414348
O O12 0.270397 0.410287 0.949171
O O13 0.000000 0.400483 0.987435
O O14 0.156076 0.500000 0.000000
O O15 0.000000 0.380811 0.607388
O O16 0.750000 0.597703 0.750000
O O17 0.000000 0.561386 0.706082
#
# Coordination Sequence:
#
# PCOD9482442 Si02
#       6
#    16  16  16  16  16  16
#     4  11  22  39  60  85 115 156 201 245 295 351
#     4  11  22  39  62  89 119 154 194 241 292 349
#     4  10  22  38  58  83 115 153 194 239 292 349
#     4  11  23  36  55  85 117 149 189 240 295 352
#     4  12  24  39  59  85 117 156 197 241 293 350
#     4  10  20  37  60  88 119 155 193 236 289 349
#
# _framework density 9.4062319999999993
#
# number of rings (size 3 to 8) (size 9 to 14) (size 15 to 20)
#    0.000    1.167    1.667    6.500    0.000    6.000 
#    0.000    0.833    0.000    2.000    0.000    0.000 
#    0.000    0.000    0.000    0.000    0.000    0.000 
#
# Total GULP energy -267663.339294 kJ/mol
# GULP energy per Si atom -5576.319569 kJ/mol
# Density = 0.938482 g / cm^3
# Si number density = 9.406232 Si / 1000 Ang^3
#
#
#
# Elastic Constant Matrix: (Units=GPa)
#
#
# Indices 1 2 3 4 5 6 
#
# 1 138.9540 33.5178 76.1252 0.0000 0.0000 0.0000
# 2 33.5178 79.1750 57.7531 0.0000 0.0000 0.0000
# 3 76.1252 57.7531 178.2924 0.0000 0.0000 0.0000
# 4 0.0000 0.0000 0.0000 36.3102 0.0000 0.0000
# 5 0.0000 0.0000 0.0000 0.0000 38.7035 0.0000
# 6 0.0000 0.0000 0.0000 0.0000 0.0000 14.3568
#
#
#
# Elastic Compliance Matrix: (Units=1/GPa)
#
#
# Indices 1 2 3 4 5 6 
#
# 1 0.009510 -0.001393 -0.003609 0.000000 0.000000 0.000000
# 2 -0.001393 0.016742 -0.004828 0.000000 0.000000 0.000000
# 3 -0.003609 -0.004828 0.008714 0.000000 0.000000 0.000000
# 4 0.000000 0.000000 0.000000 0.027540 0.000000 0.000000
# 5 0.000000 0.000000 0.000000 0.000000 0.025837 0.000000
# 6 0.000000 0.000000 0.000000 0.000000 0.000000 0.069653
#
#
# Mechanical properties :
#
#
# Convention : Reuss Voigt Hill
#
# Bulk Modulus (GPa) = 65.34094 81.24595 73.29345
# Shear Modulus (GPa) = 27.35835 33.14245 30.25040
#
# Velocity S-wave (km/s) = 3.81762 4.20185 4.01434
# Velocity P-wave (km/s) = 7.36482 8.17446 7.78018
#
# Compressibility (1/GPa) = 0.01530434
#
# Stress axis : x y z
#
# Youngs Moduli (GPa) = 105.15299 59.73016 114.76151
#
# Poissons Ratio (x) = 0.08322 0.41419
# Poissons Ratio (y) = 0.14651 0.55409
# Poissons Ratio (z) = 0.37951 0.28839
#
# Static dielectric constant tensor:
#      x y z
#    x 1.679540 0.000000 0.000000 
#    y 0.000000 1.661080 0.000000 
#    z 0.000000 0.000000 1.638450 
# 
# From -- ./inp_files/48054.got.cif
#   From: 2010.05.17/outbox.ucp.g08.bks.cvg/sg64_25_cif.got.tgz:48054.got - 2010.06.11 16:36:46.
