data_PCOD9482585
_publ_section_title
;
Structure prediction by ZEFSAII (Michael W. Deem and Ramdas Pophale) SiO2 
 PCOD9482585
Probable space group: C M M M
;
_chemical_formula_sum "Si O2"
_cell_formula_units_Z 88
_cell_length_a 8.724128
_cell_length_b 19.679871
_cell_length_c 29.580082
_cell_angle_alpha 90.000000
_cell_angle_beta 90.000000
_cell_angle_gamma 90.000000
_cell_volume 5078.595808
_symmetry_space_group_name_H-M "C M M M"
_symmetry_group_IT_number 65
_symmetry_cell_setting 'orthorhombic'
loop_
_space_group_symop_operation_xyz
x,y,z
-x,-y,z
x,-y,-z
-x,y,-z
-x,-y,-z
x,y,-z
-x,y,z
x,-y,z
1/2+x,1/2+y,z
1/2-x,1/2-y,z
1/2+x,1/2-y,-z
1/2-x,1/2+y,-z
1/2-x,1/2-y,-z
1/2+x,1/2+y,-z
1/2-x,1/2+y,z
1/2+x,1/2-y,z
loop_
_atom_site_type_symbol
_atom_site_label
_atom_site_fract_x
_atom_site_fract_y
_atom_site_fract_z
Si Si1 0.683467 0.173463 0.591686
Si Si2 0.183437 0.673749 0.692166
Si Si3 0.317249 0.672762 0.500000
Si Si4 0.816584 0.079268 0.770157
Si Si5 0.815094 0.578987 0.132784
Si Si6 0.685115 0.825259 0.949092
O O1 0.500000 0.176061 0.586271
O O2 0.750000 0.250000 0.593386
O O3 0.719958 0.145637 0.641623
O O4 0.756533 0.140956 0.546830
O O5 0.250000 0.750000 0.696184
O O6 0.248820 0.625845 0.730932
O O7 0.000000 0.677934 0.695584
O O8 0.500000 0.675979 0.500000
O O9 0.250000 0.750000 0.500000
O O10 0.755690 0.100866 0.819453
O O11 0.000000 0.083190 0.769567
O O12 0.771349 0.000000 0.763927
O O13 0.774030 0.500000 0.125471
O O14 0.764407 0.624483 0.090585
O O15 0.000000 0.582988 0.136115
O O16 0.500000 0.822421 0.947986
O O17 0.750000 0.750000 0.941840
O O18 0.730007 0.847254 0.000000
#
# Coordination Sequence:
#
# PCOD9482585 Si02
#       6
#    16  16   8  16  16  16
#     4   9  16  26  40  61  90 122 156 195 239 286
#     4  10  20  33  51  74 100 130 164 205 250 296
#     4  10  16  22  36  58  87 124 159 192 235 285
#     4  10  21  36  53  73  99 131 166 205 248 296
#     4   9  18  33  52  72  95 125 162 203 243 285
#     4   9  18  32  50  73 100 129 160 195 238 287
#
# _framework density 17.327625000000001
#
# number of rings (size 3 to 8) (size 9 to 14) (size 15 to 20)
#    0.000    2.545    0.000    3.545    0.000    5.091 
#    0.000    3.636    0.000    0.000    0.000    5.727 
#    0.000    5.091    0.000    0.000    0.000    0.000 
#
# Total GULP energy -245216.827116 kJ/mol
# GULP energy per Si atom -5573.109707 kJ/mol
# Density = 1.728819 g / cm^3
# Si number density = 17.327625 Si / 1000 Ang^3
#
#
#
# Elastic Constant Matrix: (Units=GPa)
#
#
# Indices 1 2 3 4 5 6 
#
# 1 52.9231 25.2828 60.9773 0.0000 0.0000 0.0000
# 2 25.2828 46.6192 82.8569 0.0000 0.0000 0.0000
# 3 60.9773 82.8569 219.5345 0.0000 0.0000 0.0000
# 4 0.0000 0.0000 0.0000 -15.2796 0.0000 0.0000
# 5 0.0000 0.0000 0.0000 0.0000 25.0802 0.0000
# 6 0.0000 0.0000 0.0000 0.0000 0.0000 19.8031
#
#
#
# Elastic Compliance Matrix: (Units=1/GPa)
#
#
# Indices 1 2 3 4 5 6 
#
# 1 0.028050 -0.004146 -0.006226 0.000000 0.000000 0.000000
# 2 -0.004146 0.065771 -0.023672 0.000000 0.000000 0.000000
# 3 -0.006226 -0.023672 0.015219 0.000000 0.000000 0.000000
# 4 0.000000 0.000000 0.000000 -0.065447 0.000000 0.000000
# 5 0.000000 0.000000 0.000000 0.000000 0.039872 0.000000
# 6 0.000000 0.000000 0.000000 0.000000 0.000000 0.050497
#
#
# Mechanical properties :
#
#
# Convention : Reuss Voigt Hill
#
# Bulk Modulus (GPa) = 24.41937 73.03455 48.72696
# Shear Modulus (GPa) = 23.18027 15.91808 19.54917
#
# Velocity S-wave (km/s) = 3.66151 3.03422 3.36253
# Velocity P-wave (km/s) = 5.65676 7.38349 6.57704
#
# Compressibility (1/GPa) = 0.04095110
#
# Stress axis : x y z
#
# Youngs Moduli (GPa) = 35.65082 15.20424 65.70895
#
# Poissons Ratio (x) = 0.06304 0.40911
# Poissons Ratio (y) = 0.14783 1.55544
# Poissons Ratio (z) = 0.22196 0.35991
#
# Static dielectric constant tensor:
#      x y z
#    x 1.580400 0.000000 0.000000 
#    y 0.000000 1.556570 0.000000 
#    z 0.000000 0.000000 1.627290 
# 
# From -- ./inp_files/65158.got.cif
#   From: 2010.05.17/outbox.cif.g08.bks.cpg/sg65_33_cif.got.tgz:65158.got - 2010.06.03 17:01:31.
