data_PCOD9482241
_publ_section_title
;
Structure prediction by ZEFSAII (Michael W. Deem and Ramdas Pophale) SiO2 
 PCOD9482241
Probable space group: C M C A
;
_chemical_formula_sum "Si O2"
_cell_formula_units_Z 52
_cell_length_a 19.714691
_cell_length_b 23.594715
_cell_length_c 4.824398
_cell_angle_alpha 90.000000
_cell_angle_beta 90.000000
_cell_angle_gamma 90.000000
_cell_volume 2244.129109
_symmetry_space_group_name_H-M "C M C A"
_symmetry_group_IT_number 64
_symmetry_cell_setting 'orthorhombic'
loop_
_space_group_symop_operation_xyz
x,y,z
-x,1/2-y,1/2+z
x,-y,-z
-x,1/2+y,1/2-z
-x,-y,-z
x,1/2+y,1/2-z
-x,y,z
x,1/2-y,1/2+z
1/2+x,1/2+y,z
1/2-x,-y,1/2+z
1/2+x,1/2-y,-z
1/2-x,y,1/2-z
1/2-x,1/2-y,-z
1/2+x,y,1/2-z
1/2-x,1/2+y,z
1/2+x,-y,1/2+z
loop_
_atom_site_type_symbol
_atom_site_label
_atom_site_fract_x
_atom_site_fract_y
_atom_site_fract_z
Si Si1 0.879115 0.945613 0.625768
Si Si2 0.500000 0.500000 0.000000
Si Si3 0.124788 0.631452 0.610791
Si Si4 0.250000 0.707337 0.750000
Si Si5 0.000000 0.709357 0.421965
O O1 0.901671 0.908235 0.360788
O O2 0.840179 0.000000 0.500000
O O3 0.845542 0.905438 0.855912
O O4 0.941492 0.971529 0.798059
O O5 0.183669 0.669078 0.738804
O O6 0.065188 0.670835 0.489675
O O7 0.250000 0.750000 0.500000
O O8 0.000000 0.734410 0.113752
#
# Coordination Sequence:
#
# PCOD9482241 Si02
#       5
#    16   4  16   8   8
#     4  12  24  42  68 106 141 187 233 289 349 442
#     4  12  22  40  70 100 150 188 228 280 372 424
#     4  12  25  44  72 104 139 192 239 294 366 428
#     4  12  26  50  76 102 142 194 252 302 364 438
#     4  12  24  42  63 101 138 172 231 305 359 408
#
# _framework density 23.171574
#
# number of rings (size 3 to 8) (size 9 to 14) (size 15 to 20)
#    0.000    0.000    3.077    7.846    0.000    0.000 
#    0.000    3.077    3.385    0.000    0.000    0.000 
#    0.000    0.000    0.000    0.000    0.000    0.000 
#
# Total GULP energy -145042.739314 kJ/mol
# GULP energy per Si atom -5578.566897 kJ/mol
# Density = 2.311883 g / cm^3
# Si number density = 23.171574 Si / 1000 Ang^3
#
#
#
# Elastic Constant Matrix: (Units=GPa)
#
#
# Indices 1 2 3 4 5 6 
#
# 1 74.9069 38.2151 -2.5610 0.0000 0.0000 0.0000
# 2 38.2151 130.7071 50.3185 0.0000 0.0000 0.0000
# 3 -2.5610 50.3185 144.2417 0.0000 0.0000 0.0000
# 4 0.0000 0.0000 0.0000 80.2755 0.0000 0.0000
# 5 0.0000 0.0000 0.0000 0.0000 16.1691 0.0000
# 6 0.0000 0.0000 0.0000 0.0000 0.0000 -36.6523
#
#
#
# Elastic Compliance Matrix: (Units=1/GPa)
#
#
# Indices 1 2 3 4 5 6 
#
# 1 0.016301 -0.005634 0.002255 0.000000 0.000000 0.000000
# 2 -0.005634 0.010785 -0.003862 0.000000 0.000000 0.000000
# 3 0.002255 -0.003862 0.008320 0.000000 0.000000 0.000000
# 4 0.000000 0.000000 0.000000 0.012457 0.000000 0.000000
# 5 0.000000 0.000000 0.000000 0.000000 0.061846 0.000000
# 6 0.000000 0.000000 0.000000 0.000000 0.000000 -0.027283
#
#
# Mechanical properties :
#
#
# Convention : Reuss Voigt Hill
#
# Bulk Modulus (GPa) = 47.79364 57.97788 52.88576
# Shear Modulus (GPa) = 48.13069 29.55067 38.84068
#
# Velocity S-wave (km/s) = 4.56251 3.57501 4.09861
# Velocity P-wave (km/s) = 6.95889 6.48971 6.72839
#
# Compressibility (1/GPa) = 0.02092329
#
# Stress axis : x y z
#
# Youngs Moduli (GPa) = 61.34467 92.72293 120.18944
#
# Poissons Ratio (x) = 0.52241 -0.27101
# Poissons Ratio (y) = 0.34562 0.46421
# Poissons Ratio (z) = -0.13832 0.35812
#
# Static dielectric constant tensor:
#      x y z
#    x 1.775140 0.000000 0.000000 
#    y 0.000000 2.185940 0.000000 
#    z 0.000000 0.000000 1.861290 
# 
# From -- ./inp_files/1591.got.cif
#   From: 2010.05.17/outbox.cif.g08.bks.cpg/sg64_1_cif.got.tgz:1591.got - 2010.06.03 16:29:19.
