data_PCOD9482560
_publ_section_title
;
Structure prediction by ZEFSAII (Michael W. Deem and Ramdas Pophale) SiO2 
 PCOD9482560
Probable space group: C M M M
;
_chemical_formula_sum "Si O2"
_cell_formula_units_Z 64
_cell_length_a 8.162994
_cell_length_b 14.672507
_cell_length_c 23.710283
_cell_angle_alpha 90.000000
_cell_angle_beta 90.000000
_cell_angle_gamma 90.000000
_cell_volume 2839.818214
_symmetry_space_group_name_H-M "C M M M"
_symmetry_group_IT_number 65
_symmetry_cell_setting 'orthorhombic'
loop_
_space_group_symop_operation_xyz
x,y,z
-x,-y,z
x,-y,-z
-x,y,-z
-x,-y,-z
x,y,-z
-x,y,z
x,-y,z
1/2+x,1/2+y,z
1/2-x,1/2-y,z
1/2+x,1/2-y,-z
1/2-x,1/2+y,-z
1/2-x,1/2-y,-z
1/2+x,1/2+y,-z
1/2-x,1/2+y,z
1/2+x,1/2-y,z
loop_
_atom_site_type_symbol
_atom_site_label
_atom_site_fract_x
_atom_site_fract_y
_atom_site_fract_z
Si Si1 0.695648 0.856166 0.619510
Si Si2 0.803131 0.644964 0.740751
Si Si3 0.813510 0.605596 0.866994
Si Si4 0.000000 0.888118 0.065599
Si Si5 0.692782 0.644195 0.500000
O O1 0.500000 0.860018 0.619607
O O2 0.750000 0.750000 0.619214
O O3 0.756360 0.892996 0.680197
O O4 0.750576 0.895854 0.559715
O O5 0.750000 0.750000 0.742027
O O6 0.756628 0.606568 0.801515
O O7 0.000000 0.637418 0.739238
O O8 0.828267 0.500000 0.883909
O O9 0.666032 0.645285 0.903925
O O10 0.000000 0.644474 0.870762
O O11 0.000000 0.000000 0.069634
O O12 0.000000 0.863987 0.000000
O O13 0.500000 0.643553 0.500000
O O14 0.750000 0.750000 0.500000
#
# Coordination Sequence:
#
# PCOD9482560 Si02
#       5
#    16  16  16   8   8
#     4   9  15  24  36  54  82 111 149 187 229 276
#     4   9  18  29  45  70  93 124 158 193 237 284
#     4   9  18  33  51  74 101 126 157 196 237 280
#     4   9  18  32  52  78 100 123 158 194 234 281
#     4  10  16  22  32  50  77 112 147 185 230 274
#
# _framework density 22.536655
#
# number of rings (size 3 to 8) (size 9 to 14) (size 15 to 20)
#    0.000    2.875    0.000    3.375    1.750    1.500 
#    0.000    2.500    0.000    0.750    0.000    0.875 
#    0.000    7.000    0.000    0.000    0.000    0.000 
#
# Total GULP energy -178329.599972 kJ/mol
# GULP energy per Si atom -5572.799999 kJ/mol
# Density = 2.248536 g / cm^3
# Si number density = 22.536655 Si / 1000 Ang^3
#
#
#
# Elastic Constant Matrix: (Units=GPa)
#
#
# Indices 1 2 3 4 5 6 
#
# 1 109.4652 6.2997 110.0627 0.0000 0.0000 0.0000
# 2 6.2997 57.5188 6.9310 0.0000 0.0000 0.0000
# 3 110.0627 6.9310 225.3176 0.0000 0.0000 0.0000
# 4 0.0000 0.0000 0.0000 17.1414 0.0000 0.0000
# 5 0.0000 0.0000 0.0000 0.0000 38.3336 0.0000
# 6 0.0000 0.0000 0.0000 0.0000 0.0000 0.4621
#
#
#
# Elastic Compliance Matrix: (Units=1/GPa)
#
#
# Indices 1 2 3 4 5 6 
#
# 1 0.018001 -0.000915 -0.008765 0.000000 0.000000 0.000000
# 2 -0.000915 0.017497 -0.000091 0.000000 0.000000 0.000000
# 3 -0.008765 -0.000091 0.008722 0.000000 0.000000 0.000000
# 4 0.000000 0.000000 0.000000 0.058338 0.000000 0.000000
# 5 0.000000 0.000000 0.000000 0.000000 0.026087 0.000000
# 6 0.000000 0.000000 0.000000 0.000000 0.000000 2.163855
#
#
# Mechanical properties :
#
#
# Convention : Reuss Voigt Hill
#
# Bulk Modulus (GPa) = 40.52284 70.98760 55.75522
# Shear Modulus (GPa) = 2.15492 29.12131 15.63812
#
# Velocity S-wave (km/s) = 0.97891 3.59858 2.63705
# Velocity P-wave (km/s) = 4.39290 6.98810 5.83657
#
# Compressibility (1/GPa) = 0.02467744
#
# Stress axis : x y z
#
# Youngs Moduli (GPa) = 55.55387 57.15317 114.64797
#
# Poissons Ratio (x) = 0.05231 1.00486
# Poissons Ratio (y) = 0.05085 0.01044
# Poissons Ratio (z) = 0.48691 0.00521
#
# Static dielectric constant tensor:
#      x y z
#    x 1.802080 0.000000 0.000000 
#    y 0.000000 1.855100 0.000000 
#    z 0.000000 0.000000 1.888300 
# 
# From -- ./inp_files/59143.got.cif
#   From: 2010.05.17/outbox.cif.g08.bks.cpg/sg65_30_cif.got.tgz:59143.got - 2010.06.03 17:01:31.
