data_PCOD9482394
_publ_section_title
;
Structure prediction by ZEFSAII (Michael W. Deem and Ramdas Pophale) SiO2 
 PCOD9482394
Probable space group: C M C A
;
_chemical_formula_sum "Si O2"
_cell_formula_units_Z 56
_cell_length_a 15.000000
_cell_length_b 24.000000
_cell_length_c 15.000000
_cell_angle_alpha 90.000000
_cell_angle_beta 90.000000
_cell_angle_gamma 90.000000
_cell_volume 5400.000000
_symmetry_space_group_name_H-M "C M C A"
_symmetry_group_IT_number 64
_symmetry_cell_setting 'orthorhombic'
loop_
_space_group_symop_operation_xyz
x,y,z
-x,1/2-y,1/2+z
x,-y,-z
-x,1/2+y,1/2-z
-x,-y,-z
x,1/2+y,1/2-z
-x,y,z
x,1/2-y,1/2+z
1/2+x,1/2+y,z
1/2-x,-y,1/2+z
1/2+x,1/2-y,-z
1/2-x,y,1/2-z
1/2-x,1/2-y,-z
1/2+x,y,1/2-z
1/2-x,1/2+y,z
1/2+x,-y,1/2+z
loop_
_atom_site_type_symbol
_atom_site_label
_atom_site_fract_x
_atom_site_fract_y
_atom_site_fract_z
Si Si1 0.398390 0.687282 0.627383
Si Si2 0.603157 0.212580 0.239330
Si Si3 0.097114 0.523911 0.122746
Si Si4 0.266709 0.082316 0.464727
Si Si5 0.710040 0.421409 0.345657
Si Si6 0.691331 0.295703 0.549336
Si Si7 0.349985 0.911466 0.709627
O O1 0.500000 0.671002 0.648573
O O2 0.377237 0.742442 0.684281
O O3 0.326761 0.640976 0.654344
O O4 0.388936 0.695160 0.520953
O O5 0.500000 0.219367 0.213372
O O6 0.660574 0.218031 0.149166
O O7 0.615767 0.151217 0.279965
O O8 0.175411 0.552516 0.066303
O O9 0.126000 0.460474 0.133642
O O10 0.098436 0.550168 0.221361
O O11 0.000000 0.533131 0.083607
O O12 0.276694 0.071684 0.569893
O O13 0.247088 0.147366 0.449351
O O14 0.341871 0.067976 0.392096
O O15 0.750000 0.436797 0.250000
O O16 0.750000 0.250000 0.500000
O O17 0.250000 0.911573 0.750000
#
# Coordination Sequence:
#
# PCOD9482394 Si02
#       7
#    16  16  16  16  16  16  16
#     4  10  24  39  56  86 124 160 200 249 305 369
#     4  11  22  38  61  87 123 162 201 252 305 362
#     4  11  22  38  64  92 121 155 198 260 317 361
#     4  10  22  37  59  92 115 156 202 252 299 360
#     4  11  24  40  61  86 122 163 206 249 307 378
#     4  11  22  35  62  89 121 159 200 248 300 359
#     4  10  19  36  61  90 118 147 202 257 302 357
#
# _framework density 10.370369999999999
#
# number of rings (size 3 to 8) (size 9 to 14) (size 15 to 20)
#    0.000    1.429    2.857    3.857    4.000    3.429 
#    0.000    0.000    0.000    3.429    0.000    0.000 
#    0.000    0.000    0.000    0.000    0.000    0.000 
#
# Total GULP energy -312709.757237 kJ/mol
# GULP energy per Si atom -5584.102808 kJ/mol
# Density = 1.034677 g / cm^3
# Si number density = 10.370370 Si / 1000 Ang^3
#
#
#
# Elastic Constant Matrix: (Units=GPa)
#
#
# Indices 1 2 3 4 5 6 
#
# 1 40.1776 4.2511 9.2094 0.0000 0.0000 0.0000
# 2 4.2511 70.7634 13.7049 0.0000 0.0000 0.0000
# 3 9.2094 13.7049 153.9744 0.0000 0.0000 0.0000
# 4 0.0000 0.0000 0.0000 29.4902 0.0000 0.0000
# 5 0.0000 0.0000 0.0000 0.0000 17.2697 0.0000
# 6 0.0000 0.0000 0.0000 0.0000 0.0000 18.4588
#
#
#
# Elastic Compliance Matrix: (Units=1/GPa)
#
#
# Indices 1 2 3 4 5 6 
#
# 1 0.025344 -0.001251 -0.001405 0.000000 0.000000 0.000000
# 2 -0.001251 0.014441 -0.001211 0.000000 0.000000 0.000000
# 3 -0.001405 -0.001211 0.006686 0.000000 0.000000 0.000000
# 4 0.000000 0.000000 0.000000 0.033910 0.000000 0.000000
# 5 0.000000 0.000000 0.000000 0.000000 0.057905 0.000000
# 6 0.000000 0.000000 0.000000 0.000000 0.000000 0.054175
#
#
# Mechanical properties :
#
#
# Convention : Reuss Voigt Hill
#
# Bulk Modulus (GPa) = 25.81310 35.47180 30.64245
# Shear Modulus (GPa) = 23.46262 28.89375 26.17818
#
# Velocity S-wave (km/s) = 3.36703 3.73646 3.55655
# Velocity P-wave (km/s) = 5.25247 5.97950 5.62774
#
# Compressibility (1/GPa) = 0.03874002
#
# Stress axis : x y z
#
# Youngs Moduli (GPa) = 39.45744 69.24640 149.55859
#
# Poissons Ratio (x) = 0.08659 0.21006
# Poissons Ratio (y) = 0.04934 0.18105
# Poissons Ratio (z) = 0.05542 0.08383
#
# Static dielectric constant tensor:
#      x y z
#    x 1.740570 0.000000 0.000000 
#    y 0.000000 1.777410 0.000000 
#    z 0.000000 0.000000 1.769870 
# 
# From -- ./inp_files/24210.got.cif
#   From: 2010.05.17/outbox.ucp.g08.bks.cvg/sg64_13_cif.got.tgz:24210.got - 2010.06.11 16:36:46.
