data_PCOD9482223
_publ_section_title
;
Structure prediction by ZEFSAII (Michael W. Deem and Ramdas Pophale) SiO2 
 PCOD9482223
Probable space group: C M C A
;
_chemical_formula_sum "Si O2"
_cell_formula_units_Z 80
_cell_length_a 16.756906
_cell_length_b 10.863264
_cell_length_c 17.926080
_cell_angle_alpha 90.000000
_cell_angle_beta 90.000000
_cell_angle_gamma 90.000000
_cell_volume 3263.168482
_symmetry_space_group_name_H-M "C M C A"
_symmetry_group_IT_number 64
_symmetry_cell_setting 'orthorhombic'
loop_
_space_group_symop_operation_xyz
x,y,z
-x,1/2-y,1/2+z
x,-y,-z
-x,1/2+y,1/2-z
-x,-y,-z
x,1/2+y,1/2-z
-x,y,z
x,1/2-y,1/2+z
1/2+x,1/2+y,z
1/2-x,-y,1/2+z
1/2+x,1/2-y,-z
1/2-x,y,1/2-z
1/2-x,1/2-y,-z
1/2+x,y,1/2-z
1/2-x,1/2+y,z
1/2+x,-y,1/2+z
loop_
_atom_site_type_symbol
_atom_site_label
_atom_site_fract_x
_atom_site_fract_y
_atom_site_fract_z
Si Si1 0.630745 0.322624 0.873550
Si Si2 0.910170 0.176187 0.489830
Si Si3 0.368776 0.583761 0.898863
Si Si4 0.910085 0.482685 0.753839
Si Si5 0.711315 0.958271 0.886658
O O1 0.600959 0.445749 0.918829
O O2 0.596569 0.352402 0.791944
O O3 0.725338 0.348413 0.868625
O O4 0.607618 0.208138 0.923657
O O5 0.901565 0.302740 0.442986
O O6 0.846832 0.090132 0.449767
O O7 0.000000 0.131917 0.482170
O O8 0.390371 0.582419 0.810906
O O9 0.273143 0.566804 0.907580
O O10 0.842437 0.487532 0.815563
O O11 0.000000 0.497252 0.781966
#
# Coordination Sequence:
#
# PCOD9482223 Si02
#       5
#    16  16  16  16  16
#     4   8  19  33  52  77 113 141 176 226 282 319
#     4  12  20  32  58  90 106 135 189 238 265 311
#     4   8  20  33  53  76 112 139 176 223 281 318
#     4   9  16  32  51  72 104 146 178 218 268 319
#     4   9  20  34  49  76 115 145 170 215 279 335
#
# _framework density 24.516048000000001
#
# number of rings (size 3 to 8) (size 9 to 14) (size 15 to 20)
#    2.400    0.000    0.000    5.400    0.000    0.800 
#    0.000    8.000    0.000    0.000    0.000   35.000 
#    0.000    0.000    0.000    0.000    0.000    0.000 
#
# Total GULP energy -223178.599971 kJ/mol
# GULP energy per Si atom -5579.464999 kJ/mol
# Density = 2.446025 g / cm^3
# Si number density = 24.516048 Si / 1000 Ang^3
#
#
#
# Elastic Constant Matrix: (Units=GPa)
#
#
# Indices 1 2 3 4 5 6 
#
# 1 186.9561 22.3465 19.4126 0.0000 0.0000 0.0000
# 2 22.3465 67.3474 39.1412 0.0000 0.0000 0.0000
# 3 19.4126 39.1412 64.9092 0.0000 0.0000 0.0000
# 4 0.0000 0.0000 0.0000 27.4293 0.0000 0.0000
# 5 0.0000 0.0000 0.0000 0.0000 30.4729 0.0000
# 6 0.0000 0.0000 0.0000 0.0000 0.0000 13.1155
#
#
#
# Elastic Compliance Matrix: (Units=1/GPa)
#
#
# Indices 1 2 3 4 5 6 
#
# 1 0.005600 -0.001362 -0.000853 0.000000 0.000000 0.000000
# 2 -0.001362 0.023191 -0.013577 0.000000 0.000000 0.000000
# 3 -0.000853 -0.013577 0.023849 0.000000 0.000000 0.000000
# 4 0.000000 0.000000 0.000000 0.036457 0.000000 0.000000
# 5 0.000000 0.000000 0.000000 0.000000 0.032816 0.000000
# 6 0.000000 0.000000 0.000000 0.000000 0.000000 0.076246
#
#
# Mechanical properties :
#
#
# Convention : Reuss Voigt Hill
#
# Bulk Modulus (GPa) = 47.49613 53.44592 50.47102
# Shear Modulus (GPa) = 21.11812 30.09102 25.60457
#
# Velocity S-wave (km/s) = 2.93815 3.50723 3.23522
# Velocity P-wave (km/s) = 5.56110 6.18454 5.88109
#
# Compressibility (1/GPa) = 0.02105435
#
# Stress axis : x y z
#
# Youngs Moduli (GPa) = 178.56218 43.11971 41.93108
#
# Poissons Ratio (x) = 0.05874 0.03579
# Poissons Ratio (y) = 0.24324 0.56931
# Poissons Ratio (z) = 0.15240 0.58545
#
# Static dielectric constant tensor:
#      x y z
#    x 1.917820 0.000000 0.000000 
#    y 0.000000 2.032030 0.000000 
#    z 0.000000 0.000000 1.985980 
# 
# From -- ./inp_files/40146.got.cif
#   From: 2010.05.17/outbox.cif.g08.bks.cpg/sg64_21_cif.got.tgz:40146.got - 2010.06.03 16:29:19.
