data_PCOD9482638
_publ_section_title
;
Structure prediction by ZEFSAII (Michael W. Deem and Ramdas Pophale) SiO2 
 PCOD9482638
Probable space group: C M M M
;
_chemical_formula_sum "Si O2"
_cell_formula_units_Z 72
_cell_length_a 19.913095
_cell_length_b 31.653722
_cell_length_c 7.505251
_cell_angle_alpha 90.000000
_cell_angle_beta 90.000000
_cell_angle_gamma 90.000000
_cell_volume 4730.736629
_symmetry_space_group_name_H-M "C M M M"
_symmetry_group_IT_number 65
_symmetry_cell_setting 'orthorhombic'
loop_
_space_group_symop_operation_xyz
x,y,z
-x,-y,z
x,-y,-z
-x,y,-z
-x,-y,-z
x,y,-z
-x,y,z
x,-y,z
1/2+x,1/2+y,z
1/2-x,1/2-y,z
1/2+x,1/2-y,-z
1/2-x,1/2+y,-z
1/2-x,1/2-y,-z
1/2+x,1/2+y,-z
1/2-x,1/2+y,z
1/2+x,1/2-y,z
loop_
_atom_site_type_symbol
_atom_site_label
_atom_site_fract_x
_atom_site_fract_y
_atom_site_fract_z
Si Si1 0.853112 0.271070 0.717911
Si Si2 0.000000 0.825262 0.214527
Si Si3 0.217686 0.184641 0.284770
Si Si4 0.000000 0.728361 0.702864
Si Si5 0.121255 0.113446 0.795322
Si Si6 0.580985 0.450063 0.500000
O O1 0.855249 0.270210 0.500000
O O2 0.829896 0.223899 0.773451
O O3 0.792965 0.302388 0.769251
O O4 0.927431 0.282626 0.783001
O O5 0.000000 0.779427 0.299455
O O6 0.064633 0.852755 0.263968
O O7 0.000000 0.819528 0.000000
O O8 0.215885 0.183953 0.500000
O O9 0.189630 0.140180 0.219166
O O10 0.000000 0.712139 0.500000
O O11 0.113039 0.073405 0.669635
O O12 0.108070 0.102266 0.000000
O O13 0.592930 0.500000 0.500000
O O14 0.500000 0.443424 0.500000
#
# Coordination Sequence:
#
# PCOD9482638 Si02
#       6
#    16   8  16   8  16   8
#     4   8  15  23  38  63  89 119 158 198 228 261
#     4  10  20  28  38  63  88 115 157 193 225 262
#     4   9  15  27  43  62  88 119 157 196 230 263
#     4  10  16  24  42  60  85 127 163 194 232 263
#     4  11  21  33  50  70  90 117 156 196 228 269
#     4  11  24  38  54  71  90 119 147 182 239 285
#
# _framework density 15.219617
#
# number of rings (size 3 to 8) (size 9 to 14) (size 15 to 20)
#    0.000    2.333    4.444    1.333    1.556    0.444 
#    0.000    4.444    0.000    0.000    0.000    0.000 
#    0.000    0.000    0.000    2.000    0.000    2.889 
#
# Total GULP energy -200772.998252 kJ/mol
# GULP energy per Si atom -5577.027729 kJ/mol
# Density = 1.518498 g / cm^3
# Si number density = 15.219617 Si / 1000 Ang^3
#
#
#
# Elastic Constant Matrix: (Units=GPa)
#
#
# Indices 1 2 3 4 5 6 
#
# 1 119.8095 37.6354 13.4111 0.0000 0.0000 0.0000
# 2 37.6354 79.7460 24.6376 0.0000 0.0000 0.0000
# 3 13.4111 24.6376 56.6729 0.0000 0.0000 0.0000
# 4 0.0000 0.0000 0.0000 -11.9171 0.0000 0.0000
# 5 0.0000 0.0000 0.0000 0.0000 3.3382 0.0000
# 6 0.0000 0.0000 0.0000 0.0000 0.0000 20.1633
#
#
#
# Elastic Compliance Matrix: (Units=1/GPa)
#
#
# Indices 1 2 3 4 5 6 
#
# 1 0.009806 -0.004518 -0.000356 0.000000 0.000000 0.000000
# 2 -0.004518 0.016567 -0.006133 0.000000 0.000000 0.000000
# 3 -0.000356 -0.006133 0.020396 0.000000 0.000000 0.000000
# 4 0.000000 0.000000 0.000000 -0.083913 0.000000 0.000000
# 5 0.000000 0.000000 0.000000 0.000000 0.299560 0.000000
# 6 0.000000 0.000000 0.000000 0.000000 0.000000 0.049595
#
#
# Mechanical properties :
#
#
# Convention : Reuss Voigt Hill
#
# Bulk Modulus (GPa) = 40.39776 45.28849 42.84313
# Shear Modulus (GPa) = 14.60813 14.35318 14.48065
#
# Velocity S-wave (km/s) = 3.10146 3.07428 3.08790
# Velocity P-wave (km/s) = 6.27903 6.51328 6.39723
#
# Compressibility (1/GPa) = 0.02475384
#
# Stress axis : x y z
#
# Youngs Moduli (GPa) = 101.98299 60.36242 49.02997
#
# Poissons Ratio (x) = 0.27269 0.01748
# Poissons Ratio (y) = 0.46071 0.30070
# Poissons Ratio (z) = 0.03635 0.37020
#
# Static dielectric constant tensor:
#      x y z
#    x 1.553230 0.000000 0.000000 
#    y 0.000000 1.458450 0.000000 
#    z 0.000000 0.000000 1.549520 
# 
# From -- ./inp_files/12065.got.cif
#   From: 2010.05.17/outbox.cif.g08.bks.cpg/sg65_7_cif.got.tgz:12065.got - 2010.06.03 17:01:31.
