data_PCOD9482025
_publ_section_title
;
Structure prediction by ZEFSAII (Michael W. Deem and Ramdas Pophale) SiO2 
 PCOD9482025
Probable space group: C M C A
;
_chemical_formula_sum "Si O2"
_cell_formula_units_Z 96
_cell_length_a 24.643362
_cell_length_b 9.272024
_cell_length_c 21.638562
_cell_angle_alpha 90.000000
_cell_angle_beta 90.000000
_cell_angle_gamma 90.000000
_cell_volume 4944.278208
_symmetry_space_group_name_H-M "C M C A"
_symmetry_group_IT_number 64
_symmetry_cell_setting 'orthorhombic'
loop_
_space_group_symop_operation_xyz
x,y,z
-x,1/2-y,1/2+z
x,-y,-z
-x,1/2+y,1/2-z
-x,-y,-z
x,1/2+y,1/2-z
-x,y,z
x,1/2-y,1/2+z
1/2+x,1/2+y,z
1/2-x,-y,1/2+z
1/2+x,1/2-y,-z
1/2-x,y,1/2-z
1/2-x,1/2-y,-z
1/2+x,y,1/2-z
1/2-x,1/2+y,z
1/2+x,-y,1/2+z
loop_
_atom_site_type_symbol
_atom_site_label
_atom_site_fract_x
_atom_site_fract_y
_atom_site_fract_z
Si Si1 0.794029 0.456192 0.662892
Si Si2 0.884925 0.481828 0.766105
Si Si3 0.313095 0.861405 0.146327
Si Si4 0.062166 0.306401 0.320460
Si Si5 0.807090 0.329851 0.006897
Si Si6 0.372346 0.594782 0.938240
O O1 0.832143 0.495380 0.720994
O O2 0.734742 0.523046 0.654827
O O3 0.788915 0.286129 0.671919
O O4 0.827332 0.507801 0.602070
O O5 0.867314 0.581642 0.822695
O O6 0.901271 0.324452 0.791900
O O7 0.931228 0.558004 0.725847
O O8 0.326625 0.819723 0.076659
O O9 0.082417 0.361923 0.387662
O O10 0.000000 0.258428 0.323612
O O11 0.799727 0.500000 0.000000
O O12 0.750000 0.250000 0.000000
O O13 0.846799 0.245910 0.961264
O O14 0.385917 0.500000 0.000000
#
# Coordination Sequence:
#
# PCOD9482025 Si02
#       6
#    16  16  16  16  16  16
#     4  11  24  37  60  96 135 177 208 252 316 394
#     4  11  24  43  64  95 131 167 217 272 330 391
#     4  12  23  37  62  93 135 174 207 254 311 390
#     4  11  25  46  71  93 122 169 223 284 336 383
#     4  12  22  36  58  92 134 176 214 255 310 389
#     4  11  23  43  64  95 134 170 220 267 327 395
#
# _framework density 19.416383
#
# number of rings (size 3 to 8) (size 9 to 14) (size 15 to 20)
#    0.000    0.667    5.000    3.500    4.667    1.667 
#    0.000    0.000    0.000    5.500    0.000    0.000 
#    0.000    0.000    0.000    0.000    0.000    0.000 
#
# Total GULP energy -267825.095570 kJ/mol
# GULP energy per Si atom -5579.689491 kJ/mol
# Density = 1.937219 g / cm^3
# Si number density = 19.416383 Si / 1000 Ang^3
#
#
#
# Elastic Constant Matrix: (Units=GPa)
#
#
# Indices 1 2 3 4 5 6 
#
# 1 50.6540 3.4738 30.4378 0.0000 0.0000 0.0000
# 2 3.4738 112.1058 21.3280 0.0000 0.0000 0.0000
# 3 30.4378 21.3280 122.9649 0.0000 0.0000 0.0000
# 4 0.0000 0.0000 0.0000 37.1367 0.0000 0.0000
# 5 0.0000 0.0000 0.0000 0.0000 14.0505 0.0000
# 6 0.0000 0.0000 0.0000 0.0000 0.0000 20.4053
#
#
#
# Elastic Compliance Matrix: (Units=1/GPa)
#
#
# Indices 1 2 3 4 5 6 
#
# 1 0.023207 0.000387 -0.005812 0.000000 0.000000 0.000000
# 2 0.000387 0.009231 -0.001697 0.000000 0.000000 0.000000
# 3 -0.005812 -0.001697 0.009865 0.000000 0.000000 0.000000
# 4 0.000000 0.000000 0.000000 0.026928 0.000000 0.000000
# 5 0.000000 0.000000 0.000000 0.000000 0.071172 0.000000
# 6 0.000000 0.000000 0.000000 0.000000 0.000000 0.049007
#
#
# Mechanical properties :
#
#
# Convention : Reuss Voigt Hill
#
# Bulk Modulus (GPa) = 35.63795 44.02264 39.83030
# Shear Modulus (GPa) = 23.47340 29.68417 26.57879
#
# Velocity S-wave (km/s) = 3.48077 3.91426 3.70386
# Velocity P-wave (km/s) = 5.87782 6.56892 6.23295
#
# Compressibility (1/GPa) = 0.02805997
#
# Stress axis : x y z
#
# Youngs Moduli (GPa) = 43.08953 108.33087 101.36565
#
# Poissons Ratio (x) = -0.04187 0.58910
# Poissons Ratio (y) = -0.01666 0.17199
# Poissons Ratio (z) = 0.25042 0.18381
#
# Static dielectric constant tensor:
#      x y z
#    x 1.666620 0.000000 0.000000 
#    y 0.000000 1.673410 0.000000 
#    z 0.000000 0.000000 1.793360 
# 
# From -- ./inp_files/41798.got.cif
#   From: 2010.05.17/outbox.cif.g08.bks.cpg/sg64_21_cif.got.tgz:41798.got - 2010.06.03 16:29:19.
