data_PCOD9482103
_publ_section_title
;
Structure prediction by ZEFSAII (Michael W. Deem and Ramdas Pophale) SiO2 
 PCOD9482103
Probable space group: C M C A
;
_chemical_formula_sum "Si O2"
_cell_formula_units_Z 64
_cell_length_a 22.184855
_cell_length_b 16.392885
_cell_length_c 7.513265
_cell_angle_alpha 90.000000
_cell_angle_beta 90.000000
_cell_angle_gamma 90.000000
_cell_volume 2732.377458
_symmetry_space_group_name_H-M "C M C A"
_symmetry_group_IT_number 64
_symmetry_cell_setting 'orthorhombic'
loop_
_space_group_symop_operation_xyz
x,y,z
-x,1/2-y,1/2+z
x,-y,-z
-x,1/2+y,1/2-z
-x,-y,-z
x,1/2+y,1/2-z
-x,y,z
x,1/2-y,1/2+z
1/2+x,1/2+y,z
1/2-x,-y,1/2+z
1/2+x,1/2-y,-z
1/2-x,y,1/2-z
1/2-x,1/2-y,-z
1/2+x,y,1/2-z
1/2-x,1/2+y,z
1/2+x,-y,1/2+z
loop_
_atom_site_type_symbol
_atom_site_label
_atom_site_fract_x
_atom_site_fract_y
_atom_site_fract_z
Si Si1 0.870394 0.799478 0.409582
Si Si2 0.750000 0.632109 0.750000
Si Si3 0.500000 0.126435 0.853927
Si Si4 0.373705 0.877737 0.697769
Si Si5 0.000000 0.053956 0.242608
Si Si6 0.206272 0.000000 0.000000
O O1 0.812159 0.821845 0.290616
O O2 0.865576 0.702013 0.423030
O O3 0.866559 0.845593 0.599630
O O4 0.937177 0.823632 0.333566
O O5 0.757052 0.572900 0.583138
O O6 0.500000 0.043783 0.739513
O O7 0.500000 0.089340 0.054633
O O8 0.440264 0.909827 0.661674
O O9 0.332409 0.954829 0.651819
#
# Coordination Sequence:
#
# PCOD9482103 Si02
#       6
#    16   8   8  16   8   8
#     4  11  24  43  68  96 135 177 221 271 331 396
#     4  12  26  44  68  98 132 176 222 276 332 394
#     4   9  19  40  66  95 130 172 215 265 323 385
#     4  11  24  43  67  99 134 175 221 274 332 396
#     4   9  19  37  66  98 130 168 215 267 323 384
#     4  12  26  43  66  95 130 170 222 278 334 394
#
# _framework density 23.422823999999999
#
# number of rings (size 3 to 8) (size 9 to 14) (size 15 to 20)
#    0.000    1.250    0.000    5.250    0.000    9.500 
#    0.000    3.750    0.000    0.000    0.000    0.000 
#    0.000    0.000    0.000    0.000    0.000    0.000 
#
# Total GULP energy -178946.720318 kJ/mol
# GULP energy per Si atom -5592.085010 kJ/mol
# Density = 2.336951 g / cm^3
# Si number density = 23.422824 Si / 1000 Ang^3
#
#
#
# Elastic Constant Matrix: (Units=GPa)
#
#
# Indices 1 2 3 4 5 6 
#
# 1 153.6577 55.1064 40.3621 0.0000 0.0000 0.0000
# 2 55.1064 123.6832 16.0558 0.0000 0.0000 0.0000
# 3 40.3621 16.0558 69.3982 0.0000 0.0000 0.0000
# 4 0.0000 0.0000 0.0000 29.7971 0.0000 0.0000
# 5 0.0000 0.0000 0.0000 0.0000 17.5386 0.0000
# 6 0.0000 0.0000 0.0000 0.0000 0.0000 26.6906
#
#
#
# Elastic Compliance Matrix: (Units=1/GPa)
#
#
# Indices 1 2 3 4 5 6 
#
# 1 0.008871 -0.003384 -0.004377 0.000000 0.000000 0.000000
# 2 -0.003384 0.009627 -0.000259 0.000000 0.000000 0.000000
# 3 -0.004377 -0.000259 0.017015 0.000000 0.000000 0.000000
# 4 0.000000 0.000000 0.000000 0.033560 0.000000 0.000000
# 5 0.000000 0.000000 0.000000 0.000000 0.057017 0.000000
# 6 0.000000 0.000000 0.000000 0.000000 0.000000 0.037466
#
#
# Mechanical properties :
#
#
# Convention : Reuss Voigt Hill
#
# Bulk Modulus (GPa) = 51.35242 63.30974 57.33108
# Shear Modulus (GPa) = 26.86910 30.48625 28.67767
#
# Velocity S-wave (km/s) = 3.39061 3.61163 3.50286
# Velocity P-wave (km/s) = 6.10737 6.66930 6.39451
#
# Compressibility (1/GPa) = 0.01947328
#
# Stress axis : x y z
#
# Youngs Moduli (GPa) = 112.72234 103.87783 58.77207
#
# Poissons Ratio (x) = 0.35157 0.25722
# Poissons Ratio (y) = 0.38150 0.01521
# Poissons Ratio (z) = 0.49334 0.02688
#
# Static dielectric constant tensor:
#      x y z
#    x 1.913350 0.000000 0.000000 
#    y 0.000000 1.796200 0.000000 
#    z 0.000000 0.000000 1.960390 
# 
# From -- ./inp_files/9030.got.cif
#   From: 2010.05.17/outbox.cif.g08.bks.cpg/sg64_5_cif.got.tgz:9030.got - 2010.06.03 16:29:19.
