data_PCOD9482799
_publ_section_title
;
Structure prediction by ZEFSAII (Michael W. Deem and Ramdas Pophale) SiO2 
 PCOD9482799
Probable space group: C M M M
;
_chemical_formula_sum "Si O2"
_cell_formula_units_Z 104
_cell_length_a 16.545008
_cell_length_b 25.874257
_cell_length_c 15.979387
_cell_angle_alpha 90.000000
_cell_angle_beta 90.000000
_cell_angle_gamma 90.000000
_cell_volume 6840.612410
_symmetry_space_group_name_H-M "C M M M"
_symmetry_group_IT_number 65
_symmetry_cell_setting 'orthorhombic'
loop_
_space_group_symop_operation_xyz
x,y,z
-x,-y,z
x,-y,-z
-x,y,-z
-x,-y,-z
x,y,-z
-x,y,z
x,-y,z
1/2+x,1/2+y,z
1/2-x,1/2-y,z
1/2+x,1/2-y,-z
1/2-x,1/2+y,-z
1/2-x,1/2-y,-z
1/2+x,1/2+y,-z
1/2-x,1/2+y,z
1/2+x,1/2-y,z
loop_
_atom_site_type_symbol
_atom_site_label
_atom_site_fract_x
_atom_site_fract_y
_atom_site_fract_z
Si Si1 0.405191 0.269897 0.596342
Si Si2 0.089337 0.061662 0.402512
Si Si3 0.098330 0.939703 0.000000
Si Si4 0.822204 0.707373 0.737046
Si Si5 0.596968 0.355229 0.136361
Si Si6 0.313491 0.639566 0.312491
Si Si7 0.597288 0.762938 0.907414
O O1 0.388453 0.255103 0.500000
O O2 0.500000 0.282746 0.603147
O O3 0.382567 0.226658 0.664753
O O4 0.351218 0.318790 0.622943
O O5 0.094257 0.076530 0.500000
O O6 0.163038 0.085298 0.352066
O O7 0.000000 0.079291 0.371220
O O8 0.089992 0.000000 0.398148
O O9 0.122210 0.904045 0.079429
O O10 0.000000 0.941087 0.000000
O O11 0.125147 0.000000 0.000000
O O12 0.750000 0.750000 0.740058
O O13 0.777726 0.655106 0.709037
O O14 0.862484 0.709030 0.828271
O O15 0.500000 0.357581 0.144031
O O16 0.637628 0.356146 0.226267
O O17 0.615898 0.298594 0.098698
O O18 0.500000 0.767658 0.901178
O O19 0.622619 0.781227 0.000000
#
# Coordination Sequence:
#
# PCOD9482799 Si02
#       7
#    16  16   8  16  16  16  16
#     4  10  19  30  45  63  90 129 163 192 228 271
#     4   9  18  32  49  68  90 122 167 207 230 259
#     4   9  18  30  42  61  86 112 155 206 240 267
#     4  10  20  30  41  67  95 120 155 196 233 282
#     4  10  17  27  43  60  82 119 158 190 228 276
#     4  11  20  29  43  67  93 121 154 193 237 276
#     4  10  18  31  49  64  85 121 160 196 232 277
#
# _framework density 15.203317
#
# number of rings (size 3 to 8) (size 9 to 14) (size 15 to 20)
#    0.000    2.077    3.846    2.769    0.000    5.538 
#    1.385    1.538    0.000    0.000    0.000    0.000 
#    0.000    2.462    0.000   10.154    0.000    0.000 
#
# Total GULP energy -289684.579354 kJ/mol
# GULP energy per Si atom -5570.857295 kJ/mol
# Density = 1.516871 g / cm^3
# Si number density = 15.203317 Si / 1000 Ang^3
#
#
#
# Elastic Constant Matrix: (Units=GPa)
#
#
# Indices 1 2 3 4 5 6 
#
# 1 33.8686 19.8978 33.1194 0.0000 0.0000 0.0000
# 2 19.8978 43.2709 23.8551 0.0000 0.0000 0.0000
# 3 33.1194 23.8551 108.1449 0.0000 0.0000 0.0000
# 4 0.0000 0.0000 0.0000 17.2136 0.0000 0.0000
# 5 0.0000 0.0000 0.0000 0.0000 3.3898 0.0000
# 6 0.0000 0.0000 0.0000 0.0000 0.0000 21.4975
#
#
#
# Elastic Compliance Matrix: (Units=1/GPa)
#
#
# Indices 1 2 3 4 5 6 
#
# 1 0.051140 -0.016942 -0.011924 0.000000 0.000000 0.000000
# 2 -0.016942 0.031923 -0.001853 0.000000 0.000000 0.000000
# 3 -0.011924 -0.001853 0.013307 0.000000 0.000000 0.000000
# 4 0.000000 0.000000 0.000000 0.058094 0.000000 0.000000
# 5 0.000000 0.000000 0.000000 0.000000 0.295006 0.000000
# 6 0.000000 0.000000 0.000000 0.000000 0.000000 0.046517
#
#
# Mechanical properties :
#
#
# Convention : Reuss Voigt Hill
#
# Bulk Modulus (GPa) = 28.62833 37.66988 33.14911
# Shear Modulus (GPa) = 8.78627 15.64765 12.21696
#
# Velocity S-wave (km/s) = 2.40660 3.21164 2.83781
# Velocity P-wave (km/s) = 5.15689 6.21160 5.70866
#
# Compressibility (1/GPa) = 0.03493043
#
# Stress axis : x y z
#
# Youngs Moduli (GPa) = 19.55413 31.32572 75.14592
#
# Poissons Ratio (x) = 0.53073 0.89607
# Poissons Ratio (y) = 0.33129 0.13925
# Poissons Ratio (z) = 0.23317 0.05805
#
# Static dielectric constant tensor:
#      x y z
#    x 1.509240 0.000000 0.000000 
#    y 0.000000 1.520350 0.000000 
#    z 0.000000 0.000000 1.529610 
# 
# From -- ./inp_files/43266.got.cif
#   From: 2010.05.17/outbox.cif.g08.bks.cpg/sg65_22_cif.got.tgz:43266.got - 2010.06.03 17:01:31.
