data_PCOD9482224
_publ_section_title
;
Structure prediction by ZEFSAII (Michael W. Deem and Ramdas Pophale) SiO2 
 PCOD9482224
Probable space group: C M C A
;
_chemical_formula_sum "Si O2"
_cell_formula_units_Z 96
_cell_length_a 14.098666
_cell_length_b 23.236126
_cell_length_c 15.051157
_cell_angle_alpha 90.000000
_cell_angle_beta 90.000000
_cell_angle_gamma 90.000000
_cell_volume 4930.734644
_symmetry_space_group_name_H-M "C M C A"
_symmetry_group_IT_number 64
_symmetry_cell_setting 'orthorhombic'
loop_
_space_group_symop_operation_xyz
x,y,z
-x,1/2-y,1/2+z
x,-y,-z
-x,1/2+y,1/2-z
-x,-y,-z
x,1/2+y,1/2-z
-x,y,z
x,1/2-y,1/2+z
1/2+x,1/2+y,z
1/2-x,-y,1/2+z
1/2+x,1/2-y,-z
1/2-x,y,1/2-z
1/2-x,1/2-y,-z
1/2+x,y,1/2-z
1/2-x,1/2+y,z
1/2+x,-y,1/2+z
loop_
_atom_site_type_symbol
_atom_site_label
_atom_site_fract_x
_atom_site_fract_y
_atom_site_fract_z
Si Si1 0.806638 0.136723 0.669382
Si Si2 0.199846 0.745477 0.594845
Si Si3 0.290895 0.861189 0.659286
Si Si4 0.000000 0.396916 0.907446
Si Si5 0.500000 0.769371 0.978492
Si Si6 0.694386 0.434164 0.512457
Si Si7 0.000000 0.206268 0.684549
Si Si8 0.000000 0.166931 0.220055
O O1 0.750000 0.106832 0.750000
O O2 0.739083 0.190056 0.643358
O O3 0.817650 0.097194 0.582513
O O4 0.907114 0.166459 0.693808
O O5 0.250000 0.750000 0.500000
O O6 0.229227 0.802781 0.647431
O O7 0.091138 0.743668 0.568559
O O8 0.250000 0.888694 0.750000
O O9 0.268232 0.899351 0.573541
O O10 0.401520 0.846320 0.669644
O O11 0.905514 0.430410 0.934812
O O12 0.000000 0.373683 0.806994
O O13 0.000000 0.337878 0.963324
O O14 0.500000 0.765696 0.085035
O O15 0.722176 0.500000 0.500000
O O16 0.000000 0.264645 0.742736
#
# Coordination Sequence:
#
# PCOD9482224 Si02
#       8
#    16  16  16   8   8  16   8   8
#     4  12  26  43  64  99 139 178 225 271 344 412
#     4  12  20  37  64  98 139 178 211 266 342 416
#     4  12  22  41  66 101 138 171 219 277 342 404
#     4  12  21  43  70 100 128 171 235 280 327 394
#     4  12  20  35  67  95 139 177 220 255 326 416
#     4  12  26  47  71  92 130 183 240 293 326 379
#     4  12  22  39  64 100 143 175 205 270 339 424
#     4  12  24  35  69 111 138 171 210 271 351 418
#
# _framework density 19.469715000000001
#
# number of rings (size 3 to 8) (size 9 to 14) (size 15 to 20)
#    0.000    0.000   10.000    0.750    2.333    0.667 
#    0.000    1.250    0.000    0.000    0.000    0.000 
#    0.000    0.000    0.000    0.000    0.000    0.000 
#
# Total GULP energy -268467.006861 kJ/mol
# GULP energy per Si atom -5593.062643 kJ/mol
# Density = 1.942540 g / cm^3
# Si number density = 19.469715 Si / 1000 Ang^3
#
#
#
# Elastic Constant Matrix: (Units=GPa)
#
#
# Indices 1 2 3 4 5 6 
#
# 1 169.4191 17.5230 44.5426 0.0000 0.0000 0.0000
# 2 17.5230 77.3505 14.3321 0.0000 0.0000 0.0000
# 3 44.5426 14.3321 95.2643 0.0000 0.0000 0.0000
# 4 0.0000 0.0000 0.0000 4.0171 0.0000 0.0000
# 5 0.0000 0.0000 0.0000 0.0000 34.8712 0.0000
# 6 0.0000 0.0000 0.0000 0.0000 0.0000 41.9377
#
#
#
# Elastic Compliance Matrix: (Units=1/GPa)
#
#
# Indices 1 2 3 4 5 6 
#
# 1 0.006801 -0.000979 -0.003033 0.000000 0.000000 0.000000
# 2 -0.000979 0.013440 -0.001564 0.000000 0.000000 0.000000
# 3 -0.003033 -0.001564 0.012150 0.000000 0.000000 0.000000
# 4 0.000000 0.000000 0.000000 0.248938 0.000000 0.000000
# 5 0.000000 0.000000 0.000000 0.000000 0.028677 0.000000
# 6 0.000000 0.000000 0.000000 0.000000 0.000000 0.023845
#
#
# Mechanical properties :
#
#
# Convention : Reuss Voigt Hill
#
# Bulk Modulus (GPa) = 47.08173 54.98105 51.03139
# Shear Modulus (GPa) = 14.20123 33.87429 24.03776
#
# Velocity S-wave (km/s) = 2.70367 4.17567 3.51753
# Velocity P-wave (km/s) = 5.82932 7.17975 6.53949
#
# Compressibility (1/GPa) = 0.02123966
#
# Stress axis : x y z
#
# Youngs Moduli (GPa) = 147.03493 74.40619 82.30135
#
# Poissons Ratio (x) = 0.07283 0.24960
# Poissons Ratio (y) = 0.14392 0.12874
# Poissons Ratio (z) = 0.44592 0.11639
#
# Static dielectric constant tensor:
#      x y z
#    x 1.643050 0.000000 0.000000 
#    y 0.000000 1.670310 0.000000 
#    z 0.000000 0.000000 1.755930 
# 
# From -- ./inp_files/24174.got.cif
#   From: 2010.05.17/outbox.cif.g08.bks.cpg/sg64_13_cif.got.tgz:24174.got - 2010.06.03 16:29:19.
