data_PCOD9482094
_publ_section_title
;
Structure prediction by ZEFSAII (Michael W. Deem and Ramdas Pophale) SiO2 
 PCOD9482094
Probable space group: C M C A
;
_chemical_formula_sum "Si O2"
_cell_formula_units_Z 48
_cell_length_a 19.274170
_cell_length_b 7.706768
_cell_length_c 12.751059
_cell_angle_alpha 90.000000
_cell_angle_beta 90.000000
_cell_angle_gamma 90.000000
_cell_volume 1894.062152
_symmetry_space_group_name_H-M "C M C A"
_symmetry_group_IT_number 64
_symmetry_cell_setting 'orthorhombic'
loop_
_space_group_symop_operation_xyz
x,y,z
-x,1/2-y,1/2+z
x,-y,-z
-x,1/2+y,1/2-z
-x,-y,-z
x,1/2+y,1/2-z
-x,y,z
x,1/2-y,1/2+z
1/2+x,1/2+y,z
1/2-x,-y,1/2+z
1/2+x,1/2-y,-z
1/2-x,y,1/2-z
1/2-x,1/2-y,-z
1/2+x,y,1/2-z
1/2-x,1/2+y,z
1/2+x,-y,1/2+z
loop_
_atom_site_type_symbol
_atom_site_label
_atom_site_fract_x
_atom_site_fract_y
_atom_site_fract_z
Si Si1 0.646041 0.603185 0.412861
Si Si2 0.925833 0.669689 0.427509
Si Si3 0.672667 0.958536 0.290864
O O1 0.692850 0.500000 0.500000
O O2 0.587668 0.677607 0.490129
O O3 0.671739 0.778903 0.354938
O O4 0.628296 0.474867 0.317045
O O5 0.932572 0.500000 0.500000
O O6 0.859107 0.612981 0.360003
O O7 0.000000 0.691534 0.370416
O O8 0.750000 0.989707 0.250000
#
# Coordination Sequence:
#
# PCOD9482094 Si02
#       3
#    16  16  16
#     4  11  24  42  67 100 140 189 240 295 355 416
#     4   9  21  43  69  99 138 184 234 290 354 424
#     4  11  24  42  67 102 142 186 239 297 357 420
#
# _framework density 25.342358999999998
#
# number of rings (size 3 to 8) (size 9 to 14) (size 15 to 20)
#    0.000    1.667    0.000    3.000    0.000    8.667 
#    0.000    8.333    0.000    0.000    0.000    0.000 
#    0.000    1.333    0.000    0.000    0.000    0.000 
#
# Total GULP energy -133767.880894 kJ/mol
# GULP energy per Si atom -5573.661704 kJ/mol
# Density = 2.528468 g / cm^3
# Si number density = 25.342359 Si / 1000 Ang^3
#
#
#
# Elastic Constant Matrix: (Units=GPa)
#
#
# Indices 1 2 3 4 5 6 
#
# 1 124.1930 39.8674 43.0424 0.0000 0.0000 0.0000
# 2 39.8674 217.4208 69.8690 0.0000 0.0000 0.0000
# 3 43.0424 69.8690 135.9004 0.0000 0.0000 0.0000
# 4 0.0000 0.0000 0.0000 76.3309 0.0000 0.0000
# 5 0.0000 0.0000 0.0000 0.0000 116.1717 0.0000
# 6 0.0000 0.0000 0.0000 0.0000 0.0000 -35.1155
#
#
#
# Elastic Compliance Matrix: (Units=1/GPa)
#
#
# Indices 1 2 3 4 5 6 
#
# 1 0.009189 -0.000898 -0.002449 0.000000 0.000000 0.000000
# 2 -0.000898 0.005597 -0.002593 0.000000 0.000000 0.000000
# 3 -0.002449 -0.002593 0.009467 0.000000 0.000000 0.000000
# 4 0.000000 0.000000 0.000000 0.013101 0.000000 0.000000
# 5 0.000000 0.000000 0.000000 0.000000 0.008608 0.000000
# 6 0.000000 0.000000 0.000000 0.000000 0.000000 -0.028477
#
#
# Mechanical properties :
#
#
# Convention : Reuss Voigt Hill
#
# Bulk Modulus (GPa) = 80.81783 87.00796 83.91290
# Shear Modulus (GPa) = 149.30174 53.12645 101.21409
#
# Velocity S-wave (km/s) = 7.68387 4.58356 6.32656
# Velocity P-wave (km/s) = 10.52055 7.90061 9.30327
#
# Compressibility (1/GPa) = 0.01237351
#
# Stress axis : x y z
#
# Youngs Moduli (GPa) = 108.82693 178.65384 105.62876
#
# Poissons Ratio (x) = 0.16044 0.25864
# Poissons Ratio (y) = 0.09773 0.27393
# Poissons Ratio (z) = 0.26647 0.46330
#
# Static dielectric constant tensor:
#      x y z
#    x 2.025040 0.000000 0.000000 
#    y 0.000000 2.142530 0.000000 
#    z 0.000000 0.000000 2.109660 
# 
# From -- ./inp_files/26839.got.cif
#   From: 2010.05.17/outbox.cif.g08.bks.cpg/sg64_14_cif.got.tgz:26839.got - 2010.06.03 16:29:19.
