data_PCOD9482444
_publ_section_title
;
Structure prediction by ZEFSAII (Michael W. Deem and Ramdas Pophale) SiO2 
 PCOD9482444
Probable space group: C M C A
;
_chemical_formula_sum "Si O2"
_cell_formula_units_Z 48
_cell_length_a 21.000000
_cell_length_b 27.000000
_cell_length_c 9.000000
_cell_angle_alpha 90.000000
_cell_angle_beta 90.000000
_cell_angle_gamma 90.000000
_cell_volume 5103.000000
_symmetry_space_group_name_H-M "C M C A"
_symmetry_group_IT_number 64
_symmetry_cell_setting 'orthorhombic'
loop_
_space_group_symop_operation_xyz
x,y,z
-x,1/2-y,1/2+z
x,-y,-z
-x,1/2+y,1/2-z
-x,-y,-z
x,1/2+y,1/2-z
-x,y,z
x,1/2-y,1/2+z
1/2+x,1/2+y,z
1/2-x,-y,1/2+z
1/2+x,1/2-y,-z
1/2-x,y,1/2-z
1/2-x,1/2-y,-z
1/2+x,y,1/2-z
1/2-x,1/2+y,z
1/2+x,-y,1/2+z
loop_
_atom_site_type_symbol
_atom_site_label
_atom_site_fract_x
_atom_site_fract_y
_atom_site_fract_z
Si Si1 0.674556 0.881030 0.735748
Si Si2 0.423990 0.722020 0.738769
Si Si3 0.074572 0.358267 0.996308
Si Si4 0.314455 0.002636 0.324483
Si Si5 0.571511 0.534558 0.642666
Si Si6 0.422232 0.180429 0.436872
O O1 0.750000 0.864610 0.750000
O O2 0.677677 0.940360 0.724975
O O3 0.630409 0.861356 0.599050
O O4 0.628764 0.866183 0.873226
O O5 0.500000 0.718831 0.738576
O O6 0.404305 0.684975 0.607767
O O7 0.409756 0.777655 0.688474
O O8 0.406145 0.704519 0.903132
O O9 0.071296 0.409215 0.087906
O O10 0.000000 0.348895 0.943524
O O11 0.250000 0.982717 0.250000
O O12 0.308244 0.000000 0.500000
O O13 0.375933 0.974050 0.266045
O O14 0.586055 0.500000 0.500000
O O15 0.500000 0.521246 0.693452
O O16 0.500000 0.168219 0.435037
#
# Coordination Sequence:
#
# PCOD9482444 Si02
#       6
#    16  16  16  16  16  16
#     4  11  24  39  57  87 120 155 198 244 293 355
#     4   9  19  36  63  92 115 153 199 241 291 356
#     4  10  20  38  63  87 118 155 193 242 295 349
#     4  11  25  41  61  83 118 164 204 244 297 363
#     4  10  20  37  61  90 120 152 195 246 300 355
#     4  10  20  38  62  88 119 153 198 245 294 350
#
# _framework density 9.4062319999999993
#
# number of rings (size 3 to 8) (size 9 to 14) (size 15 to 20)
#    0.000    1.833    1.667    2.000    4.667    3.667 
#    0.000    4.167    0.000    0.000    0.000    0.000 
#    0.000    0.000    0.000    0.000    0.000    0.000 
#
# Total GULP energy -267579.283572 kJ/mol
# GULP energy per Si atom -5574.568408 kJ/mol
# Density = 0.938482 g / cm^3
# Si number density = 9.406232 Si / 1000 Ang^3
#
#
#
# Elastic Constant Matrix: (Units=GPa)
#
#
# Indices 1 2 3 4 5 6 
#
# 1 121.1646 10.5267 62.2168 0.0000 0.0000 0.0000
# 2 10.5267 41.4687 -2.3889 0.0000 0.0000 0.0000
# 3 62.2168 -2.3889 92.9201 0.0000 0.0000 0.0000
# 4 0.0000 0.0000 0.0000 28.2124 0.0000 0.0000
# 5 0.0000 0.0000 0.0000 0.0000 18.0648 0.0000
# 6 0.0000 0.0000 0.0000 0.0000 0.0000 0.9500
#
#
#
# Elastic Compliance Matrix: (Units=1/GPa)
#
#
# Indices 1 2 3 4 5 6 
#
# 1 0.013166 -0.003856 -0.008915 0.000000 0.000000 0.000000
# 2 -0.003856 0.025279 0.003232 0.000000 0.000000 0.000000
# 3 -0.008915 0.003232 0.016814 0.000000 0.000000 0.000000
# 4 0.000000 0.000000 0.000000 0.035445 0.000000 0.000000
# 5 0.000000 0.000000 0.000000 0.000000 0.055356 0.000000
# 6 0.000000 0.000000 0.000000 0.000000 0.000000 1.052683
#
#
# Mechanical properties :
#
#
# Convention : Reuss Voigt Hill
#
# Bulk Modulus (GPa) = 27.63813 44.02917 35.83365
# Shear Modulus (GPa) = 4.06543 21.79203 12.92873
#
# Velocity S-wave (km/s) = 1.47164 3.40719 2.62438
# Velocity P-wave (km/s) = 4.19654 6.23969 5.31717
#
# Compressibility (1/GPa) = 0.03618190
#
# Stress axis : x y z
#
# Youngs Moduli (GPa) = 75.95462 39.55781 59.47437
#
# Poissons Ratio (x) = 0.15252 0.53019
# Poissons Ratio (y) = 0.29285 -0.19219
# Poissons Ratio (z) = 0.67710 -0.12783
#
# Static dielectric constant tensor:
#      x y z
#    x 1.641750 0.000000 0.000000 
#    y 0.000000 1.700700 0.000000 
#    z 0.000000 0.000000 1.695900 
# 
# From -- ./inp_files/8374.got.cif
#   From: 2010.05.17/outbox.ucp.g08.bks.cvg/sg64_5_cif.got.tgz:8374.got - 2010.06.11 16:36:46.
