data_PCOD9482633
_publ_section_title
;
Structure prediction by ZEFSAII (Michael W. Deem and Ramdas Pophale) SiO2 
 PCOD9482633
Probable space group: C M M M
;
_chemical_formula_sum "Si O2"
_cell_formula_units_Z 96
_cell_length_a 25.390743
_cell_length_b 31.315176
_cell_length_c 7.301904
_cell_angle_alpha 90.000000
_cell_angle_beta 90.000000
_cell_angle_gamma 90.000000
_cell_volume 5805.857677
_symmetry_space_group_name_H-M "C M M M"
_symmetry_group_IT_number 65
_symmetry_cell_setting 'orthorhombic'
loop_
_space_group_symop_operation_xyz
x,y,z
-x,-y,z
x,-y,-z
-x,y,-z
-x,-y,-z
x,y,-z
-x,y,z
x,-y,z
1/2+x,1/2+y,z
1/2-x,1/2-y,z
1/2+x,1/2-y,-z
1/2-x,1/2+y,-z
1/2-x,1/2-y,-z
1/2+x,1/2+y,-z
1/2-x,1/2+y,z
1/2+x,1/2-y,z
loop_
_atom_site_type_symbol
_atom_site_label
_atom_site_fract_x
_atom_site_fract_y
_atom_site_fract_z
Si Si1 0.942176 0.816007 0.219659
Si Si2 0.217314 0.185908 0.723451
Si Si3 0.942478 0.715621 0.711367
Si Si4 0.328556 0.776968 0.276626
Si Si5 0.940875 0.049810 0.722897
Si Si6 0.143453 0.884062 0.705019
O O1 0.940715 0.767251 0.283369
O O2 0.898071 0.845196 0.304289
O O3 0.000000 0.833123 0.266459
O O4 0.936508 0.816255 0.000000
O O5 0.215450 0.185165 0.500000
O O6 0.277339 0.195842 0.775951
O O7 0.183549 0.227857 0.780074
O O8 0.193187 0.141017 0.788232
O O9 0.943138 0.701609 0.500000
O O10 0.884732 0.705077 0.788570
O O11 0.000000 0.703529 0.790936
O O12 0.330327 0.776196 0.500000
O O13 0.940862 0.053020 0.500000
O O14 0.892133 0.078468 0.789515
O O15 0.000000 0.062959 0.782929
O O16 0.934373 0.000000 0.769142
O O17 0.158516 0.898233 0.500000
#
# Coordination Sequence:
#
# PCOD9482633 Si02
#       6
#    16  16  16  16  16  16
#     4  10  19  26  31  44  67  87 101 129 171 196
#     4   8  13  19  31  49  65  81 100 126 159 186
#     4   9  15  23  36  49  59  78 110 137 155 183
#     4   8  12  20  31  46  67  82  97 128 162 185
#     4   8  14  23  34  50  69  82  95 127 170 195
#     4  10  16  24  39  53  60  77 111 135 151 190
#
# _framework density 16.535025000000001
#
# number of rings (size 3 to 8) (size 9 to 14) (size 15 to 20)
#    0.000    3.167    1.667    2.500    0.000    1.667 
#    0.000    0.000    0.000    2.500    0.000    2.333 
#    0.000    0.000    0.000    0.000    0.000    0.833 
#
# Total GULP energy -267279.339562 kJ/mol
# GULP energy per Si atom -5568.319574 kJ/mol
# Density = 1.649739 g / cm^3
# Si number density = 16.535025 Si / 1000 Ang^3
#
#
#
# Elastic Constant Matrix: (Units=GPa)
#
#
# Indices 1 2 3 4 5 6 
#
# 1 151.3066 41.8889 5.2536 0.0000 0.0000 0.0000
# 2 41.8889 62.1272 -0.7214 0.0000 0.0000 0.0000
# 3 5.2536 -0.7214 70.9672 0.0000 0.0000 0.0000
# 4 0.0000 0.0000 0.0000 52.8918 0.0000 0.0000
# 5 0.0000 0.0000 0.0000 0.0000 -19.6307 0.0000
# 6 0.0000 0.0000 0.0000 0.0000 0.0000 32.9716
#
#
#
# Elastic Compliance Matrix: (Units=1/GPa)
#
#
# Indices 1 2 3 4 5 6 
#
# 1 0.008157 -0.005507 -0.000660 0.000000 0.000000 0.000000
# 2 -0.005507 0.019816 0.000609 0.000000 0.000000 0.000000
# 3 -0.000660 0.000609 0.014146 0.000000 0.000000 0.000000
# 4 0.000000 0.000000 0.000000 0.018907 0.000000 0.000000
# 5 0.000000 0.000000 0.000000 0.000000 -0.050941 0.000000
# 6 0.000000 0.000000 0.000000 0.000000 0.000000 0.030329
#
#
# Mechanical properties :
#
#
# Convention : Reuss Voigt Hill
#
# Bulk Modulus (GPa) = 32.25473 41.91590 37.08531
# Shear Modulus (GPa) = 80.82203 29.11186 54.96694
#
# Velocity S-wave (km/s) = 6.99896 4.20052 5.77191
# Velocity P-wave (km/s) = 9.21212 6.99505 8.17905
#
# Compressibility (1/GPa) = 0.03100321
#
# Stress axis : x y z
#
# Youngs Moduli (GPa) = 122.59886 50.46341 70.69106
#
# Poissons Ratio (x) = 0.27792 0.04664
# Poissons Ratio (y) = 0.67518 -0.04306
# Poissons Ratio (z) = 0.08089 -0.03074
#
# Static dielectric constant tensor:
#      x y z
#    x 1.636930 0.000000 0.000000 
#    y 0.000000 1.530530 0.000000 
#    z 0.000000 0.000000 1.614190 
# 
# From -- ./inp_files/16931.got.cif
#   From: 2010.05.17/outbox.cif.g08.bks.cpg/sg65_9_cif.got.tgz:16931.got - 2010.06.03 17:01:31.
