data_PCOD9482260
_publ_section_title
;
Structure prediction by ZEFSAII (Michael W. Deem and Ramdas Pophale) SiO2 
 PCOD9482260
Probable space group: C M C A
;
_chemical_formula_sum "Si O2"
_cell_formula_units_Z 64
_cell_length_a 17.885381
_cell_length_b 14.487089
_cell_length_c 11.597729
_cell_angle_alpha 90.000000
_cell_angle_beta 90.000000
_cell_angle_gamma 90.000000
_cell_volume 3005.054001
_symmetry_space_group_name_H-M "C M C A"
_symmetry_group_IT_number 64
_symmetry_cell_setting 'orthorhombic'
loop_
_space_group_symop_operation_xyz
x,y,z
-x,1/2-y,1/2+z
x,-y,-z
-x,1/2+y,1/2-z
-x,-y,-z
x,1/2+y,1/2-z
-x,y,z
x,1/2-y,1/2+z
1/2+x,1/2+y,z
1/2-x,-y,1/2+z
1/2+x,1/2-y,-z
1/2-x,y,1/2-z
1/2-x,1/2-y,-z
1/2+x,y,1/2-z
1/2-x,1/2+y,z
1/2+x,-y,1/2+z
loop_
_atom_site_type_symbol
_atom_site_label
_atom_site_fract_x
_atom_site_fract_y
_atom_site_fract_z
Si Si1 0.788435 0.846094 0.542624
Si Si2 0.168703 0.879708 0.294154
Si Si3 0.915997 0.799267 0.726782
Si Si4 0.142521 0.046226 0.120650
O O1 0.750000 0.750000 0.500000
O O2 0.820717 0.895552 0.429262
O O3 0.854584 0.826117 0.631398
O O4 0.723180 0.906977 0.598421
O O5 0.250000 0.845254 0.250000
O O6 0.108422 0.800468 0.273071
O O7 0.149624 0.968105 0.217817
O O8 0.908822 0.872755 0.830270
O O9 0.000000 0.798504 0.680901
O O10 0.118673 0.000000 0.000000
#
# Coordination Sequence:
#
# PCOD9482260 Si02
#       4
#    16  16  16  16
#     4  12  23  46  76 103 139 188 250 300 342 427
#     4  12  23  44  73 106 139 186 247 299 352 426
#     4  12  28  46  68 108 155 189 231 300 377 437
#     4  12  25  44  79 108 137 187 250 304 352 430
#
# _framework density 21.297456
#
# number of rings (size 3 to 8) (size 9 to 14) (size 15 to 20)
#    0.000    0.000    7.500    2.250    0.000    2.500 
#    0.000    1.250    0.000    0.000    0.000    0.000 
#    0.000    0.000    0.000    0.000    0.000    0.000 
#
# Total GULP energy -179265.983894 kJ/mol
# GULP energy per Si atom -5602.061997 kJ/mol
# Density = 2.124898 g / cm^3
# Si number density = 21.297456 Si / 1000 Ang^3
#
#
#
# Elastic Constant Matrix: (Units=GPa)
#
#
# Indices 1 2 3 4 5 6 
#
# 1 71.8990 36.2681 15.7276 0.0000 0.0000 0.0000
# 2 36.2681 152.5237 54.1628 0.0000 0.0000 0.0000
# 3 15.7276 54.1628 92.2661 0.0000 0.0000 0.0000
# 4 0.0000 0.0000 0.0000 39.9170 0.0000 0.0000
# 5 0.0000 0.0000 0.0000 0.0000 17.0087 0.0000
# 6 0.0000 0.0000 0.0000 0.0000 0.0000 -13.4514
#
#
#
# Elastic Compliance Matrix: (Units=1/GPa)
#
#
# Indices 1 2 3 4 5 6 
#
# 1 0.015832 -0.003545 -0.000617 0.000000 0.000000 0.000000
# 2 -0.003545 0.009077 -0.004724 0.000000 0.000000 0.000000
# 3 -0.000617 -0.004724 0.013717 0.000000 0.000000 0.000000
# 4 0.000000 0.000000 0.000000 0.025052 0.000000 0.000000
# 5 0.000000 0.000000 0.000000 0.000000 0.058793 0.000000
# 6 0.000000 0.000000 0.000000 0.000000 0.000000 -0.074342
#
#
# Mechanical properties :
#
#
# Convention : Reuss Voigt Hill
#
# Bulk Modulus (GPa) = 47.95784 58.77843 53.36813
# Shear Modulus (GPa) = 68.63091 22.73022 45.68057
#
# Velocity S-wave (km/s) = 5.68286 3.27046 4.63631
# Velocity P-wave (km/s) = 8.10104 6.47456 7.33303
#
# Compressibility (1/GPa) = 0.02085165
#
# Stress axis : x y z
#
# Youngs Moduli (GPa) = 63.16387 110.16894 72.90405
#
# Poissons Ratio (x) = 0.39058 0.04502
# Poissons Ratio (y) = 0.22394 0.34441
# Poissons Ratio (z) = 0.03900 0.52045
#
# Static dielectric constant tensor:
#      x y z
#    x 1.719900 0.000000 0.000000 
#    y 0.000000 1.798300 0.000000 
#    z 0.000000 0.000000 1.779280 
# 
# From -- ./inp_files/15452.got.cif
#   From: 2010.05.17/outbox.cif.g08.bks.cpg/sg64_8_cif.got.tgz:15452.got - 2010.06.03 16:29:19.
