data_PCOD9482551
_publ_section_title
;
Structure prediction by ZEFSAII (Michael W. Deem and Ramdas Pophale) SiO2 
 PCOD9482551
Probable space group: C M M M
;
_chemical_formula_sum "Si O2"
_cell_formula_units_Z 88
_cell_length_a 15.163938
_cell_length_b 8.611973
_cell_length_c 30.420593
_cell_angle_alpha 90.000000
_cell_angle_beta 90.000000
_cell_angle_gamma 90.000000
_cell_volume 3972.668578
_symmetry_space_group_name_H-M "C M M M"
_symmetry_group_IT_number 65
_symmetry_cell_setting 'orthorhombic'
loop_
_space_group_symop_operation_xyz
x,y,z
-x,-y,z
x,-y,-z
-x,y,-z
-x,-y,-z
x,y,-z
-x,y,z
x,-y,z
1/2+x,1/2+y,z
1/2-x,1/2-y,z
1/2+x,1/2-y,-z
1/2-x,1/2+y,-z
1/2-x,1/2-y,-z
1/2+x,1/2+y,-z
1/2-x,1/2+y,z
1/2+x,1/2-y,z
loop_
_atom_site_type_symbol
_atom_site_label
_atom_site_fract_x
_atom_site_fract_y
_atom_site_fract_z
Si Si1 0.149085 0.315062 0.227887
Si Si2 0.851024 0.314063 0.590854
Si Si3 0.351040 0.686001 0.500000
Si Si4 0.847892 0.182123 0.139102
Si Si5 0.895064 0.324306 0.048130
Si Si6 0.350959 0.685679 0.318375
O O1 0.151300 0.500000 0.231026
O O2 0.250000 0.250000 0.226695
O O3 0.107970 0.263835 0.181352
O O4 0.109040 0.244524 0.272439
O O5 0.849912 0.500000 0.590366
O O6 0.750000 0.250000 0.591089
O O7 0.890841 0.249386 0.545502
O O8 0.890855 0.252254 0.636516
O O9 0.349992 0.500000 0.500000
O O10 0.250000 0.750000 0.500000
O O11 0.750000 0.250000 0.137815
O O12 0.881154 0.219616 0.090487
O O13 0.848089 0.000000 0.147398
O O14 0.859675 0.500000 0.055953
O O15 0.000000 0.337529 0.044538
O O16 0.862294 0.269866 0.000000
O O17 0.349593 0.500000 0.319688
O O18 0.250000 0.750000 0.317779
#
# Coordination Sequence:
#
# PCOD9482551 Si02
#       6
#    16  16   8  16  16  16
#     4  10  17  27  41  58  81 108 138 174 218 266
#     4  10  16  22  29  39  54  77 110 150 197 248
#     4  10  16  22  28  36  50  72 104 148 199 246
#     4  11  21  33  50  73 100 128 159 196 237 280
#     4   9  19  37  58  77  99 128 160 194 234 280
#     4  10  16  23  33  47  66  90 121 158 203 255
#
# _framework density 22.151357999999998
#
# number of rings (size 3 to 8) (size 9 to 14) (size 15 to 20)
#    0.000    2.000    0.000   12.273    0.000    1.091 
#    0.000    0.909    0.000    0.000    0.000    0.000 
#    0.000    0.000    0.000    0.000    0.000    0.000 
#
# Total GULP energy -245541.747626 kJ/mol
# GULP energy per Si atom -5580.494264 kJ/mol
# Density = 2.210094 g / cm^3
# Si number density = 22.151358 Si / 1000 Ang^3
#
#
#
# Elastic Constant Matrix: (Units=GPa)
#
#
# Indices 1 2 3 4 5 6 
#
# 1 38.9546 6.2477 16.9269 0.0000 0.0000 0.0000
# 2 6.2477 226.8076 93.7734 0.0000 0.0000 0.0000
# 3 16.9269 93.7734 234.3702 0.0000 0.0000 0.0000
# 4 0.0000 0.0000 0.0000 47.2811 0.0000 0.0000
# 5 0.0000 0.0000 0.0000 0.0000 21.5068 0.0000
# 6 0.0000 0.0000 0.0000 0.0000 0.0000 -1.2312
#
#
#
# Elastic Compliance Matrix: (Units=1/GPa)
#
#
# Indices 1 2 3 4 5 6 
#
# 1 0.026504 0.000073 -0.001944 0.000000 0.000000 0.000000
# 2 0.000073 0.005283 -0.002119 0.000000 0.000000 0.000000
# 3 -0.001944 -0.002119 0.005255 0.000000 0.000000 0.000000
# 4 0.000000 0.000000 0.000000 0.021150 0.000000 0.000000
# 5 0.000000 0.000000 0.000000 0.000000 0.046497 0.000000
# 6 0.000000 0.000000 0.000000 0.000000 0.000000 -0.812231
#
#
# Mechanical properties :
#
#
# Convention : Reuss Voigt Hill
#
# Bulk Modulus (GPa) = 34.40759 81.55872 57.98316
# Shear Modulus (GPa) = -7.24768 39.05696 15.90464
#
# Velocity S-wave (km/s) = -1.81080 4.20359 2.68246
# Velocity P-wave (km/s) = 3.34585 7.77554 5.98555
#
# Compressibility (1/GPa) = 0.02906335
#
# Stress axis : x y z
#
# Youngs Moduli (GPa) = 37.73067 189.28076 190.29455
#
# Poissons Ratio (x) = -0.01391 0.36985
# Poissons Ratio (y) = -0.00277 0.40326
# Poissons Ratio (z) = 0.07333 0.40111
#
# Static dielectric constant tensor:
#      x y z
#    x 1.854720 0.000000 0.000000 
#    y 0.000000 1.756210 0.000000 
#    z 0.000000 0.000000 1.950550 
# 
# From -- ./inp_files/78139.got.cif
#   From: 2010.05.17/outbox.cif.g08.bks.cpg/sg65_40_cif.got.tgz:78139.got - 2010.06.03 17:01:31.
