data_PCOD9482701
_publ_section_title
;
Structure prediction by ZEFSAII (Michael W. Deem and Ramdas Pophale) SiO2 
 PCOD9482701
Probable space group: C M M M
;
_chemical_formula_sum "Si O2"
_cell_formula_units_Z 80
_cell_length_a 8.537107
_cell_length_b 14.583049
_cell_length_c 28.378257
_cell_angle_alpha 90.000000
_cell_angle_beta 90.000000
_cell_angle_gamma 90.000000
_cell_volume 3533.009272
_symmetry_space_group_name_H-M "C M M M"
_symmetry_group_IT_number 65
_symmetry_cell_setting 'orthorhombic'
loop_
_space_group_symop_operation_xyz
x,y,z
-x,-y,z
x,-y,-z
-x,y,-z
-x,-y,-z
x,y,-z
-x,y,z
x,-y,z
1/2+x,1/2+y,z
1/2-x,1/2-y,z
1/2+x,1/2-y,-z
1/2-x,1/2+y,-z
1/2-x,1/2-y,-z
1/2+x,1/2+y,-z
1/2-x,1/2+y,z
1/2+x,1/2-y,z
loop_
_atom_site_type_symbol
_atom_site_label
_atom_site_fract_x
_atom_site_fract_y
_atom_site_fract_z
Si Si1 0.315039 0.645447 0.800949
Si Si2 0.812157 0.354933 0.898080
Si Si3 0.675241 0.105204 0.402301
Si Si4 0.689537 0.854760 0.000000
Si Si5 0.317486 0.148167 0.705243
Si Si6 0.500000 0.388916 0.555635
O O1 0.500000 0.647896 0.804453
O O2 0.250000 0.750000 0.799104
O O3 0.248954 0.604036 0.849265
O O4 0.265852 0.605048 0.750593
O O5 0.750000 0.250000 0.898407
O O6 0.762352 0.394332 0.949111
O O7 0.000000 0.354783 0.896239
O O8 0.500000 0.145150 0.411720
O O9 0.695871 0.102942 0.345753
O O10 0.835475 0.146776 0.423008
O O11 0.668894 0.000000 0.419766
O O12 0.750000 0.750000 0.000000
O O13 0.500000 0.854757 0.000000
O O14 0.500000 0.153913 0.717362
O O15 0.250000 0.250000 0.698577
O O16 0.500000 0.500000 0.564400
O O17 0.500000 0.373700 0.500000
#
# Coordination Sequence:
#
# PCOD9482701 Si02
#       6
#    16  16  16   8  16   8
#     4  10  17  24  35  52  77 105 141 181 222 267
#     4   9  14  21  30  42  63  92 129 174 217 263
#     4   9  19  34  52  76 102 128 160 197 236 277
#     4   8  14  20  28  40  56  86 127 168 215 262
#     4  10  19  30  47  69  92 124 158 193 233 278
#     4   9  18  32  54  80 102 128 159 194 236 276
#
# _framework density 22.643588000000001
#
# number of rings (size 3 to 8) (size 9 to 14) (size 15 to 20)
#    0.000    2.700    0.000    5.400    2.800    1.200 
#    0.000    2.000    0.000    0.600    0.000    0.000 
#    0.000    0.000    0.000    0.900    0.000   21.600 
#
# Total GULP energy -223054.237634 kJ/mol
# GULP energy per Si atom -5576.355941 kJ/mol
# Density = 2.259205 g / cm^3
# Si number density = 22.643588 Si / 1000 Ang^3
#
#
#
# Elastic Constant Matrix: (Units=GPa)
#
#
# Indices 1 2 3 4 5 6 
#
# 1 186.5584 15.1617 94.9494 0.0000 0.0000 0.0000
# 2 15.1617 69.4004 1.5922 0.0000 0.0000 0.0000
# 3 94.9494 1.5922 102.9211 0.0000 0.0000 0.0000
# 4 0.0000 0.0000 0.0000 4.5607 0.0000 0.0000
# 5 0.0000 0.0000 0.0000 0.0000 37.8497 0.0000
# 6 0.0000 0.0000 0.0000 0.0000 0.0000 -3.4628
#
#
#
# Elastic Compliance Matrix: (Units=1/GPa)
#
#
# Indices 1 2 3 4 5 6 
#
# 1 0.010388 -0.002050 -0.009552 0.000000 0.000000 0.000000
# 2 -0.002050 0.014819 0.001662 0.000000 0.000000 0.000000
# 3 -0.009552 0.001662 0.018503 0.000000 0.000000 0.000000
# 4 0.000000 0.000000 0.000000 0.219267 0.000000 0.000000
# 5 0.000000 0.000000 0.000000 0.000000 0.026420 0.000000
# 6 0.000000 0.000000 0.000000 0.000000 0.000000 -0.288784
#
#
# Mechanical properties :
#
#
# Convention : Reuss Voigt Hill
#
# Bulk Modulus (GPa) = 41.96432 64.69851 53.33142
# Shear Modulus (GPa) = 175.82716 24.26794 100.04755
#
# Velocity S-wave (km/s) = 8.82148 3.27729 6.65429
# Velocity P-wave (km/s) = 11.06032 6.55404 9.09082
#
# Compressibility (1/GPa) = 0.02382977
#
# Stress axis : x y z
#
# Youngs Moduli (GPa) = 96.26066 67.48125 54.04607
#
# Poissons Ratio (x) = 0.13836 0.51625
# Poissons Ratio (y) = 0.19737 -0.08984
# Poissons Ratio (z) = 0.91949 -0.11218
#
# Static dielectric constant tensor:
#      x y z
#    x 1.798390 0.000000 0.000000 
#    y 0.000000 1.880000 0.000000 
#    z 0.000000 0.000000 1.876370 
# 
# From -- ./inp_files/67788.got.cif
#   From: 2010.05.17/outbox.cif.g08.bks.cpg/sg65_34_cif.got.tgz:67788.got - 2010.06.03 17:01:31.
