data_PCOD9482004
_publ_section_title
;
Structure prediction by ZEFSAII (Michael W. Deem and Ramdas Pophale) SiO2 
 PCOD9482004
Probable space group: C M C A
;
_chemical_formula_sum "Si O2"
_cell_formula_units_Z 112
_cell_length_a 29.619153
_cell_length_b 14.241399
_cell_length_c 14.663861
_cell_angle_alpha 90.000000
_cell_angle_beta 90.000000
_cell_angle_gamma 90.000000
_cell_volume 6185.483099
_symmetry_space_group_name_H-M "C M C A"
_symmetry_group_IT_number 64
_symmetry_cell_setting 'orthorhombic'
loop_
_space_group_symop_operation_xyz
x,y,z
-x,1/2-y,1/2+z
x,-y,-z
-x,1/2+y,1/2-z
-x,-y,-z
x,1/2+y,1/2-z
-x,y,z
x,1/2-y,1/2+z
1/2+x,1/2+y,z
1/2-x,-y,1/2+z
1/2+x,1/2-y,-z
1/2-x,y,1/2-z
1/2-x,1/2-y,-z
1/2+x,y,1/2-z
1/2-x,1/2+y,z
1/2+x,-y,1/2+z
loop_
_atom_site_type_symbol
_atom_site_label
_atom_site_fract_x
_atom_site_fract_y
_atom_site_fract_z
Si Si1 0.357467 0.840188 0.334414
Si Si2 0.051106 0.114653 0.111253
Si Si3 0.299806 0.989584 0.231235
Si Si4 0.219305 0.398387 0.042153
Si Si5 0.313629 0.189914 0.478849
Si Si6 0.449720 0.111663 0.600792
Si Si7 0.143045 0.156108 0.215300
O O1 0.348591 0.827895 0.441137
O O2 0.410672 0.858854 0.330502
O O3 0.348680 0.750511 0.271766
O O4 0.324107 0.923588 0.305054
O O5 0.091439 0.144486 0.179284
O O6 0.000000 0.142884 0.139389
O O7 0.051681 0.001517 0.104123
O O8 0.057266 0.143927 0.004764
O O9 0.250000 0.031770 0.250000
O O10 0.336238 0.072802 0.222479
O O11 0.288519 0.920256 0.147985
O O12 0.192982 0.302507 0.020838
O O13 0.207248 0.500000 0.000000
O O14 0.269077 0.368051 0.008426
O O15 0.328769 0.157629 0.379109
O O16 0.500000 0.142377 0.627451
#
# Coordination Sequence:
#
# PCOD9482004 Si02
#       7
#    16  16  16  16  16  16  16
#     4  12  23  38  60  88 119 155 208 252 297 373
#     4   9  18  35  61  90 116 149 198 250 311 375
#     4  12  24  39  58  86 120 156 204 254 297 354
#     4  11  23  42  59  82 120 165 203 254 302 350
#     4  11  24  39  60  87 119 160 212 250 301 368
#     4   9  18  35  62  89 117 151 192 252 315 367
#     4  12  24  38  63  90 118 167 209 252 308 366
#
# _framework density 18.106912999999999
#
# number of rings (size 3 to 8) (size 9 to 14) (size 15 to 20)
#    0.000    1.143    5.714    2.571    0.000    2.286 
#    0.000    0.000    0.000    0.000    0.000    0.000 
#    0.000    9.143    0.000    0.000    0.000    0.000 
#
# Total GULP energy -311823.309689 kJ/mol
# GULP energy per Si atom -5568.273387 kJ/mol
# Density = 1.806570 g / cm^3
# Si number density = 18.106913 Si / 1000 Ang^3
#
#
#
# Elastic Constant Matrix: (Units=GPa)
#
#
# Indices 1 2 3 4 5 6 
#
# 1 87.7194 0.9124 4.9610 0.0000 0.0000 0.0000
# 2 0.9124 45.4052 -5.5371 0.0000 0.0000 0.0000
# 3 4.9610 -5.5371 33.4076 0.0000 0.0000 0.0000
# 4 0.0000 0.0000 0.0000 14.7733 0.0000 0.0000
# 5 0.0000 0.0000 0.0000 0.0000 30.2265 0.0000
# 6 0.0000 0.0000 0.0000 0.0000 0.0000 20.4808
#
#
#
# Elastic Compliance Matrix: (Units=1/GPa)
#
#
# Indices 1 2 3 4 5 6 
#
# 1 0.011505 -0.000449 -0.001783 0.000000 0.000000 0.000000
# 2 -0.000449 0.022496 0.003795 0.000000 0.000000 0.000000
# 3 -0.001783 0.003795 0.030827 0.000000 0.000000 0.000000
# 4 0.000000 0.000000 0.000000 0.067690 0.000000 0.000000
# 5 0.000000 0.000000 0.000000 0.000000 0.033084 0.000000
# 6 0.000000 0.000000 0.000000 0.000000 0.000000 0.048826
#
#
# Mechanical properties :
#
#
# Convention : Reuss Voigt Hill
#
# Bulk Modulus (GPa) = 14.71551 18.57831 16.64691
# Shear Modulus (GPa) = 21.37188 24.17585 22.77387
#
# Velocity S-wave (km/s) = 3.43930 3.65797 3.55032
# Velocity P-wave (km/s) = 4.89044 5.30317 5.10098
#
# Compressibility (1/GPa) = 0.06795553
#
# Stress axis : x y z
#
# Youngs Moduli (GPa) = 86.91507 44.45290 32.43904
#
# Poissons Ratio (x) = 0.01994 0.05784
# Poissons Ratio (y) = 0.03899 -0.12311
# Poissons Ratio (z) = 0.15496 -0.16871
#
# Static dielectric constant tensor:
#      x y z
#    x 1.680960 0.000000 0.000000 
#    y 0.000000 1.606370 0.000000 
#    z 0.000000 0.000000 1.682710 
# 
# From -- ./inp_files/28417.got.cif
#   From: 2010.05.17/outbox.cif.g08.bks.cpg/sg64_15_cif.got.tgz:28417.got - 2010.06.03 16:29:19.
