data_PCOD9482409
_publ_section_title
;
Structure prediction by ZEFSAII (Michael W. Deem and Ramdas Pophale) SiO2 
 PCOD9482409
Probable space group: C M C A
;
_chemical_formula_sum "Si O2"
_cell_formula_units_Z 48
_cell_length_a 15.000000
_cell_length_b 21.000000
_cell_length_c 15.000000
_cell_angle_alpha 90.000000
_cell_angle_beta 90.000000
_cell_angle_gamma 90.000000
_cell_volume 4725.000000
_symmetry_space_group_name_H-M "C M C A"
_symmetry_group_IT_number 64
_symmetry_cell_setting 'orthorhombic'
loop_
_space_group_symop_operation_xyz
x,y,z
-x,1/2-y,1/2+z
x,-y,-z
-x,1/2+y,1/2-z
-x,-y,-z
x,1/2+y,1/2-z
-x,y,z
x,1/2-y,1/2+z
1/2+x,1/2+y,z
1/2-x,-y,1/2+z
1/2+x,1/2-y,-z
1/2-x,y,1/2-z
1/2-x,1/2-y,-z
1/2+x,y,1/2-z
1/2-x,1/2+y,z
1/2+x,-y,1/2+z
loop_
_atom_site_type_symbol
_atom_site_label
_atom_site_fract_x
_atom_site_fract_y
_atom_site_fract_z
Si Si1 0.104866 0.264633 0.113228
Si Si2 0.100449 0.167312 0.426625
Si Si3 0.605769 0.950065 0.625216
Si Si4 0.774262 0.347007 0.656444
Si Si5 0.608010 0.912253 0.423730
Si Si6 0.394837 0.796923 0.311461
O O1 0.168220 0.203797 0.100528
O O2 0.132448 0.294235 0.208294
O O3 0.000000 0.243976 0.119822
O O4 0.109938 0.310788 0.028905
O O5 0.187099 0.129399 0.395441
O O6 0.108673 0.230806 0.365223
O O7 0.000000 0.141410 0.413497
O O8 0.500000 0.942123 0.635669
O O9 0.661176 0.903851 0.686420
O O10 0.632686 0.926319 0.525703
O O11 0.627663 0.023995 0.631333
O O12 0.750000 0.314802 0.750000
O O13 0.500000 0.907289 0.428964
O O14 0.646325 0.851024 0.374463
O O15 0.500000 0.812185 0.305051
#
# Coordination Sequence:
#
# PCOD9482409 Si02
#       6
#    16  16  16  16  16  16
#     4  10  20  34  53  79 111 145 177 218 272 327
#     4  10  21  36  53  78 112 146 181 220 265 321
#     4   9  18  33  56  83 107 138 177 224 278 323
#     4  12  22  33  53  77 115 144 180 216 273 322
#     4   8  15  31  57  83 105 132 174 227 278 320
#     4   9  16  30  53  80 106 135 174 219 267 321
#
# _framework density 10.15873
#
# number of rings (size 3 to 8) (size 9 to 14) (size 15 to 20)
#    0.000    2.333    1.667    3.000    0.000    3.333 
#    0.000    0.000   11.000    0.000    0.000    2.333 
#    0.000    0.000    0.000    0.000    0.000    0.000 
#
# Total GULP energy -267380.725939 kJ/mol
# GULP energy per Si atom -5570.431790 kJ/mol
# Density = 1.013561 g / cm^3
# Si number density = 10.158730 Si / 1000 Ang^3
#
#
#
# Elastic Constant Matrix: (Units=GPa)
#
#
# Indices 1 2 3 4 5 6 
#
# 1 61.1750 21.9266 6.1322 0.0000 0.0000 0.0000
# 2 21.9266 20.9586 -5.7283 0.0000 0.0000 0.0000
# 3 6.1322 -5.7283 68.9344 0.0000 0.0000 0.0000
# 4 0.0000 0.0000 0.0000 17.6535 0.0000 0.0000
# 5 0.0000 0.0000 0.0000 0.0000 23.4072 0.0000
# 6 0.0000 0.0000 0.0000 0.0000 0.0000 8.5470
#
#
#
# Elastic Compliance Matrix: (Units=1/GPa)
#
#
# Indices 1 2 3 4 5 6 
#
# 1 0.027737 -0.030382 -0.004992 0.000000 0.000000 0.000000
# 2 -0.030382 0.082102 0.009525 0.000000 0.000000 0.000000
# 3 -0.004992 0.009525 0.015742 0.000000 0.000000 0.000000
# 4 0.000000 0.000000 0.000000 0.056646 0.000000 0.000000
# 5 0.000000 0.000000 0.000000 0.000000 0.042722 0.000000
# 6 0.000000 0.000000 0.000000 0.000000 0.000000 0.117001
#
#
# Mechanical properties :
#
#
# Convention : Reuss Voigt Hill
#
# Bulk Modulus (GPa) = 13.53498 21.74767 17.64132
# Shear Modulus (GPa) = 11.95387 18.50404 15.22895
#
# Velocity S-wave (km/s) = 2.42823 3.02113 2.74076
# Velocity P-wave (km/s) = 3.81287 4.78506 4.32636
#
# Compressibility (1/GPa) = 0.07388266
#
# Stress axis : x y z
#
# Youngs Moduli (GPa) = 36.05341 12.18000 63.52378
#
# Poissons Ratio (x) = 0.37005 0.31711
# Poissons Ratio (y) = 1.09538 -0.60508
# Poissons Ratio (z) = 0.17998 -0.11602
#
# Static dielectric constant tensor:
#      x y z
#    x 1.778330 0.000000 0.000000 
#    y 0.000000 1.757240 0.000000 
#    z 0.000000 0.000000 1.768780 
# 
# From -- ./inp_files/23888.got.cif
#   From: 2010.05.17/outbox.ucp.g08.bks.cvg/sg64_12_cif.got.tgz:23888.got - 2010.06.11 16:36:46.
