data_PCOD9482197
_publ_section_title
;
Structure prediction by ZEFSAII (Michael W. Deem and Ramdas Pophale) SiO2 
 PCOD9482197
Probable space group: C M C A
;
_chemical_formula_sum "Si O2"
_cell_formula_units_Z 88
_cell_length_a 14.680280
_cell_length_b 22.324988
_cell_length_c 13.997817
_cell_angle_alpha 90.000000
_cell_angle_beta 90.000000
_cell_angle_gamma 90.000000
_cell_volume 4587.603598
_symmetry_space_group_name_H-M "C M C A"
_symmetry_group_IT_number 64
_symmetry_cell_setting 'orthorhombic'
loop_
_space_group_symop_operation_xyz
x,y,z
-x,1/2-y,1/2+z
x,-y,-z
-x,1/2+y,1/2-z
-x,-y,-z
x,1/2+y,1/2-z
-x,y,z
x,1/2-y,1/2+z
1/2+x,1/2+y,z
1/2-x,-y,1/2+z
1/2+x,1/2-y,-z
1/2-x,y,1/2-z
1/2-x,1/2-y,-z
1/2+x,y,1/2-z
1/2-x,1/2+y,z
1/2+x,-y,1/2+z
loop_
_atom_site_type_symbol
_atom_site_label
_atom_site_fract_x
_atom_site_fract_y
_atom_site_fract_z
Si Si1 0.835812 0.869728 0.297879
Si Si2 0.604346 0.071413 0.993384
Si Si3 0.000000 0.822173 0.744177
Si Si4 0.500000 0.294384 0.952225
Si Si5 0.303826 0.751873 0.597289
Si Si6 0.694972 0.366337 0.667198
Si Si7 0.000000 0.182286 0.822290
O O1 0.750000 0.902027 0.250000
O O2 0.876545 0.906039 0.386481
O O3 0.796159 0.808109 0.342450
O O4 0.912211 0.850921 0.221466
O O5 0.500000 0.089077 0.018192
O O6 0.675039 0.100316 0.067939
O O7 0.610352 0.000000 0.000000
O O8 0.094449 0.846739 0.702068
O O9 0.000000 0.750674 0.719013
O O10 0.000000 0.836636 0.858047
O O11 0.500000 0.316419 0.061835
O O12 0.591151 0.257336 0.932927
O O13 0.250000 0.750000 0.500000
O O14 0.261013 0.809387 0.648903
O O15 0.750000 0.401481 0.750000
#
# Coordination Sequence:
#
# PCOD9482197 Si02
#       7
#    16  16   8   8  16  16   8
#     4  12  23  40  64  96 132 169 214 267 327 392
#     4  11  26  47  69  91 120 174 236 279 318 379
#     4  12  22  38  58  93 134 172 207 249 322 393
#     4  12  24  36  56  90 146 172 203 253 316 406
#     4  12  22  37  60  97 134 170 207 252 322 404
#     4  12  23  39  66  97 129 168 215 268 326 395
#     4  12  24  36  56  95 136 172 205 247 322 391
#
# _framework density 19.182127999999999
#
# number of rings (size 3 to 8) (size 9 to 14) (size 15 to 20)
#    0.000    0.182    7.273    3.818    0.000    0.727 
#    0.000    0.000    0.000    0.000    0.000    3.182 
#    0.000    0.000    0.000    0.000    0.000    0.000 
#
# Total GULP energy -245719.443529 kJ/mol
# GULP energy per Si atom -5584.532807 kJ/mol
# Density = 1.913847 g / cm^3
# Si number density = 19.182128 Si / 1000 Ang^3
#
#
#
# Elastic Constant Matrix: (Units=GPa)
#
#
# Indices 1 2 3 4 5 6 
#
# 1 125.4772 17.3634 37.1653 0.0000 0.0000 0.0000
# 2 17.3634 43.7428 28.3335 0.0000 0.0000 0.0000
# 3 37.1653 28.3335 146.8531 0.0000 0.0000 0.0000
# 4 0.0000 0.0000 0.0000 -0.0494 0.0000 0.0000
# 5 0.0000 0.0000 0.0000 0.0000 49.3263 0.0000
# 6 0.0000 0.0000 0.0000 0.0000 0.0000 -13.1345
#
#
#
# Elastic Compliance Matrix: (Units=1/GPa)
#
#
# Indices 1 2 3 4 5 6 
#
# 1 0.008822 -0.002349 -0.001779 0.000000 0.000000 0.000000
# 2 -0.002349 0.026751 -0.004567 0.000000 0.000000 0.000000
# 3 -0.001779 -0.004567 0.008141 0.000000 0.000000 0.000000
# 4 0.000000 0.000000 0.000000-20.261521 0.000000 0.000000
# 5 0.000000 0.000000 0.000000 0.000000 0.020273 0.000000
# 6 0.000000 0.000000 0.000000 0.000000 0.000000 -0.076136
#
#
# Mechanical properties :
#
#
# Convention : Reuss Voigt Hill
#
# Bulk Modulus (GPa) = 37.98903 53.53304 45.76104
# Shear Modulus (GPa) = -0.24694 22.77590 11.26448
#
# Velocity S-wave (km/s) = -0.35919 3.44953 2.42593
# Velocity P-wave (km/s) = 4.43569 6.62073 5.63513
#
# Compressibility (1/GPa) = 0.02632339
#
# Stress axis : x y z
#
# Youngs Moduli (GPa) = 113.35720 37.38117 122.83581
#
# Poissons Ratio (x) = 0.08782 0.21857
# Poissons Ratio (y) = 0.26630 0.56097
# Poissons Ratio (z) = 0.20170 0.17071
#
# Static dielectric constant tensor:
#      x y z
#    x 1.690350 0.000000 0.000000 
#    y 0.000000 1.658500 0.000000 
#    z 0.000000 0.000000 1.748940 
# 
# From -- ./inp_files/23812.got.cif
#   From: 2010.05.17/outbox.cif.g08.bks.cpg/sg64_12_cif.got.tgz:23812.got - 2010.06.03 16:29:19.
