data_PCOD9482640
_publ_section_title
;
Structure prediction by ZEFSAII (Michael W. Deem and Ramdas Pophale) SiO2 
 PCOD9482640
Probable space group: C M M M
;
_chemical_formula_sum "Si O2"
_cell_formula_units_Z 48
_cell_length_a 25.359809
_cell_length_b 25.973527
_cell_length_c 5.448551
_cell_angle_alpha 90.000000
_cell_angle_beta 90.000000
_cell_angle_gamma 90.000000
_cell_volume 3588.871644
_symmetry_space_group_name_H-M "C M M M"
_symmetry_group_IT_number 65
_symmetry_cell_setting 'orthorhombic'
loop_
_space_group_symop_operation_xyz
x,y,z
-x,-y,z
x,-y,-z
-x,y,-z
-x,-y,-z
x,y,-z
-x,y,z
x,-y,z
1/2+x,1/2+y,z
1/2-x,1/2-y,z
1/2+x,1/2-y,-z
1/2-x,1/2+y,-z
1/2-x,1/2-y,-z
1/2+x,1/2+y,-z
1/2-x,1/2+y,z
1/2+x,1/2-y,z
loop_
_atom_site_type_symbol
_atom_site_label
_atom_site_fract_x
_atom_site_fract_y
_atom_site_fract_z
Si Si1 0.437776 0.890553 0.500000
Si Si2 0.392480 0.938861 0.000000
Si Si3 0.217678 0.556390 0.500000
Si Si4 0.713370 0.799652 0.000000
Si Si5 0.339995 0.830871 0.500000
Si Si6 0.233511 0.413583 0.000000
O O1 0.500000 0.882945 0.500000
O O2 0.420634 0.919421 0.248337
O O3 0.402405 0.839122 0.500000
O O4 0.331212 0.920429 0.000000
O O5 0.392055 0.000000 0.000000
O O6 0.189590 0.500000 0.500000
O O7 0.183888 0.609951 0.500000
O O8 0.250266 0.560302 0.250927
O O9 0.750000 0.750000 0.000000
O O10 0.679870 0.803788 0.748226
O O11 0.745788 0.853343 0.000000
#
# Coordination Sequence:
#
# PCOD9482640 Si02
#       6
#     8   8   8   8   8   8
#     4  12  23  34  44  57  82 111 141 177 212 248
#     4  12  21  33  45  56  81 112 142 178 213 241
#     4  10  16  25  41  55  74 102 124 153 199 232
#     4  10  18  31  48  61  74  94 120 166 222 257
#     4  10  19  32  42  62  80  97 132 168 204 254
#     4  10  18  27  41  58  75  94 125 164 204 248
#
# _framework density 13.374677
#
# number of rings (size 3 to 8) (size 9 to 14) (size 15 to 20)
#    0.000    1.333    6.667    3.000    0.000    2.000 
#    0.000    0.000    0.000    0.000    0.000    0.000 
#    0.000    0.000    0.000    0.000    0.000    0.000 
#
# Total GULP energy -133605.023818 kJ/mol
# GULP energy per Si atom -5566.875992 kJ/mol
# Density = 1.334424 g / cm^3
# Si number density = 13.374677 Si / 1000 Ang^3
#
#
#
# Elastic Constant Matrix: (Units=GPa)
#
#
# Indices 1 2 3 4 5 6 
#
# 1 38.6938 45.2009 29.7614 0.0000 0.0000 0.0000
# 2 45.2009 84.3550 42.2526 0.0000 0.0000 0.0000
# 3 29.7614 42.2526 157.7761 0.0000 0.0000 0.0000
# 4 0.0000 0.0000 0.0000 11.1242 0.0000 0.0000
# 5 0.0000 0.0000 0.0000 0.0000 11.0073 0.0000
# 6 0.0000 0.0000 0.0000 0.0000 0.0000 10.2226
#
#
#
# Elastic Compliance Matrix: (Units=1/GPa)
#
#
# Indices 1 2 3 4 5 6 
#
# 1 0.070911 -0.036146 -0.003696 0.000000 0.000000 0.000000
# 2 -0.036146 0.032116 -0.001782 0.000000 0.000000 0.000000
# 3 -0.003696 -0.001782 0.007513 0.000000 0.000000 0.000000
# 4 0.000000 0.000000 0.000000 0.089894 0.000000 0.000000
# 5 0.000000 0.000000 0.000000 0.000000 0.090849 0.000000
# 6 0.000000 0.000000 0.000000 0.000000 0.000000 0.097822
#
#
# Mechanical properties :
#
#
# Convention : Reuss Voigt Hill
#
# Bulk Modulus (GPa) = 36.64216 57.25053 46.94634
# Shear Modulus (GPa) = 10.38526 17.37814 13.88170
#
# Velocity S-wave (km/s) = 2.78957 3.60854 3.22515
# Velocity P-wave (km/s) = 6.15075 7.76274 7.00328
#
# Compressibility (1/GPa) = 0.02729097
#
# Stress axis : x y z
#
# Youngs Moduli (GPa) = 14.10210 31.13711 133.10890
#
# Poissons Ratio (x) = 1.12548 0.49199
# Poissons Ratio (y) = 0.50973 0.23726
# Poissons Ratio (z) = 0.05212 0.05550
#
# Static dielectric constant tensor:
#      x y z
#    x 1.409070 0.000000 0.000000 
#    y 0.000000 1.446820 0.000000 
#    z 0.000000 0.000000 1.534480 
# 
# From -- ./inp_files/1468.got.cif
#   From: 2010.05.17/outbox.cif.g08.bks.cpg/sg65_1_cif.got.tgz:1468.got - 2010.06.03 17:01:31.
