data_PCOD9482364
_publ_section_title
;
Structure prediction by ZEFSAII (Michael W. Deem and Ramdas Pophale) SiO2 
 PCOD9482364
Probable space group: C M C A
;
_chemical_formula_sum "Si O2"
_cell_formula_units_Z 48
_cell_length_a 9.000000
_cell_length_b 24.000000
_cell_length_c 27.000000
_cell_angle_alpha 90.000000
_cell_angle_beta 90.000000
_cell_angle_gamma 90.000000
_cell_volume 5832.000000
_symmetry_space_group_name_H-M "C M C A"
_symmetry_group_IT_number 64
_symmetry_cell_setting 'orthorhombic'
loop_
_space_group_symop_operation_xyz
x,y,z
-x,1/2-y,1/2+z
x,-y,-z
-x,1/2+y,1/2-z
-x,-y,-z
x,1/2+y,1/2-z
-x,y,z
x,1/2-y,1/2+z
1/2+x,1/2+y,z
1/2-x,-y,1/2+z
1/2+x,1/2-y,-z
1/2-x,y,1/2-z
1/2-x,1/2-y,-z
1/2+x,y,1/2-z
1/2-x,1/2+y,z
1/2+x,-y,1/2+z
loop_
_atom_site_type_symbol
_atom_site_label
_atom_site_fract_x
_atom_site_fract_y
_atom_site_fract_z
Si Si1 0.680187 0.726225 0.550515
Si Si2 0.819606 0.410650 0.696235
Si Si3 0.823589 0.401041 0.066112
Si Si4 0.825634 0.423673 0.533829
Si Si5 0.173789 0.009095 0.875275
Si Si6 0.320195 0.829568 0.609708
O O1 0.500000 0.727628 0.545658
O O2 0.750000 0.750000 0.500000
O O3 0.726472 0.663109 0.561691
O O4 0.723669 0.767321 0.595592
O O5 0.750000 0.405891 0.750000
O O6 0.776547 0.468699 0.669200
O O7 0.770330 0.360409 0.659599
O O8 0.000000 0.409848 0.698682
O O9 0.759764 0.434740 0.112576
O O10 0.000000 0.402205 0.068054
O O11 0.767837 0.429663 0.015467
O O12 0.812967 0.471008 0.575342
O O13 0.777963 0.367951 0.562893
O O14 0.000000 0.419882 0.520054
O O15 0.000000 0.021173 0.868239
O O16 0.500000 0.831596 0.611466
#
# Coordination Sequence:
#
# PCOD9482364 Si02
#       6
#    16  16  16  16  16  16
#     4  10  19  31  47  68  97 134 169 198 232 281
#     4   9  18  34  56  77  92 115 155 203 252 295
#     4  11  21  28  41  70 102 129 160 198 241 274
#     4   9  16  29  48  65  88 130 170 192 222 281
#     4   9  19  33  48  67  92 127 166 192 229 296
#     4   8  15  30  50  69  93 126 162 195 233 286
#
# _framework density 8.2304530000000007
#
# number of rings (size 3 to 8) (size 9 to 14) (size 15 to 20)
#    0.000    2.667    1.667    3.000    0.000    4.000 
#    0.000    3.333    0.000    1.000    0.000    4.667 
#    0.000    0.000    0.000    0.000    0.000    0.000 
#
# Total GULP energy -267364.629796 kJ/mol
# GULP energy per Si atom -5570.096454 kJ/mol
# Density = 0.821172 g / cm^3
# Si number density = 8.230453 Si / 1000 Ang^3
#
#
#
# Elastic Constant Matrix: (Units=GPa)
#
#
# Indices 1 2 3 4 5 6 
#
# 1 12.8224 24.2780 19.8730 0.0000 0.0000 0.0000
# 2 24.2780 65.5439 39.4033 0.0000 0.0000 0.0000
# 3 19.8730 39.4033 99.7321 0.0000 0.0000 0.0000
# 4 0.0000 0.0000 0.0000 14.6404 0.0000 0.0000
# 5 0.0000 0.0000 0.0000 0.0000 26.5963 0.0000
# 6 0.0000 0.0000 0.0000 0.0000 0.0000 16.6129
#
#
#
# Elastic Compliance Matrix: (Units=1/GPa)
#
#
# Indices 1 2 3 4 5 6 
#
# 1 0.288737 -0.094903 -0.020039 0.000000 0.000000 0.000000
# 2 -0.094903 0.051203 -0.001319 0.000000 0.000000 0.000000
# 3 -0.020039 -0.001319 0.014541 0.000000 0.000000 0.000000
# 4 0.000000 0.000000 0.000000 0.068304 0.000000 0.000000
# 5 0.000000 0.000000 0.000000 0.000000 0.037599 0.000000
# 6 0.000000 0.000000 0.000000 0.000000 0.000000 0.060194
#
#
# Mechanical properties :
#
#
# Convention : Reuss Voigt Hill
#
# Bulk Modulus (GPa) = 8.19957 38.35631 23.27794
# Shear Modulus (GPa) = 6.29918 17.87288 12.08603
#
# Velocity S-wave (km/s) = 1.95833 3.29869 2.71260
# Velocity P-wave (km/s) = 3.17891 6.15309 4.89724
#
# Compressibility (1/GPa) = 0.12195767
#
# Stress axis : x y z
#
# Youngs Moduli (GPa) = 3.46336 19.53017 68.77067
#
# Poissons Ratio (x) = 1.85348 1.37811
# Poissons Ratio (y) = 0.32868 0.09071
# Poissons Ratio (z) = 0.06940 0.02576
#
# Static dielectric constant tensor:
#      x y z
#    x 1.550750 0.000000 0.000000 
#    y 0.000000 1.609880 0.000000 
#    z 0.000000 0.000000 1.528840 
# 
# From -- ./inp_files/48359.got.cif
#   From: 2010.05.17/outbox.ucp.g08.bks.cvg/sg64_25_cif.got.tgz:48359.got - 2010.06.11 16:36:46.
