data_PCOD9482181
_publ_section_title
;
Structure prediction by ZEFSAII (Michael W. Deem and Ramdas Pophale) SiO2 
 PCOD9482181
Probable space group: C M C A
;
_chemical_formula_sum "Si O2"
_cell_formula_units_Z 48
_cell_length_a 22.169727
_cell_length_b 17.230416
_cell_length_c 5.493927
_cell_angle_alpha 90.000000
_cell_angle_beta 90.000000
_cell_angle_gamma 90.000000
_cell_volume 2098.645056
_symmetry_space_group_name_H-M "C M C A"
_symmetry_group_IT_number 64
_symmetry_cell_setting 'orthorhombic'
loop_
_space_group_symop_operation_xyz
x,y,z
-x,1/2-y,1/2+z
x,-y,-z
-x,1/2+y,1/2-z
-x,-y,-z
x,1/2+y,1/2-z
-x,y,z
x,1/2-y,1/2+z
1/2+x,1/2+y,z
1/2-x,-y,1/2+z
1/2+x,1/2-y,-z
1/2-x,y,1/2-z
1/2-x,1/2-y,-z
1/2+x,y,1/2-z
1/2-x,1/2+y,z
1/2+x,-y,1/2+z
loop_
_atom_site_type_symbol
_atom_site_label
_atom_site_fract_x
_atom_site_fract_y
_atom_site_fract_z
Si Si1 0.069326 0.416710 0.635926
Si Si2 0.750000 0.907669 0.250000
Si Si3 0.167385 0.701618 0.503468
Si Si4 0.852505 0.500000 0.000000
O O1 0.069886 0.500000 0.500000
O O2 0.107932 0.352310 0.497982
O O3 0.105231 0.434886 0.883387
O O4 0.000000 0.394203 0.673821
O O5 0.726243 0.853171 0.467094
O O6 0.806773 0.960573 0.312649
O O7 0.167397 0.752229 0.750245
#
# Coordination Sequence:
#
# PCOD9482181 Si02
#       4
#    16   8  16   8
#     4  11  25  48  75 104 140 195 256 313 374 448
#     4  12  24  44  74 110 154 200 252 312 388 458
#     4  12  27  48  72 110 153 196 246 307 381 456
#     4  12  23  46  74 114 147 192 258 326 370 454
#
# _framework density 22.871898999999999
#
# number of rings (size 3 to 8) (size 9 to 14) (size 15 to 20)
#    0.000    0.333    3.333    5.500    0.000    4.000 
#    0.000    0.000    0.000    0.000    0.000    0.000 
#    0.000    0.000    0.000    0.000    0.000    0.000 
#
# Total GULP energy -134415.478281 kJ/mol
# GULP energy per Si atom -5600.644928 kJ/mol
# Density = 2.281984 g / cm^3
# Si number density = 22.871899 Si / 1000 Ang^3
#
#
#
# Elastic Constant Matrix: (Units=GPa)
#
#
# Indices 1 2 3 4 5 6 
#
# 1 182.7455 41.6346 38.4816 0.0000 0.0000 0.0000
# 2 41.6346 80.1869 43.4190 0.0000 0.0000 0.0000
# 3 38.4816 43.4190 112.6351 0.0000 0.0000 0.0000
# 4 0.0000 0.0000 0.0000 50.4917 0.0000 0.0000
# 5 0.0000 0.0000 0.0000 0.0000 20.4046 0.0000
# 6 0.0000 0.0000 0.0000 0.0000 0.0000 44.6738
#
#
#
# Elastic Compliance Matrix: (Units=1/GPa)
#
#
# Indices 1 2 3 4 5 6 
#
# 1 0.006318 -0.002669 -0.001130 0.000000 0.000000 0.000000
# 2 -0.002669 0.016888 -0.005598 0.000000 0.000000 0.000000
# 3 -0.001130 -0.005598 0.011422 0.000000 0.000000 0.000000
# 4 0.000000 0.000000 0.000000 0.019805 0.000000 0.000000
# 5 0.000000 0.000000 0.000000 0.000000 0.049009 0.000000
# 6 0.000000 0.000000 0.000000 0.000000 0.000000 0.022384
#
#
# Mechanical properties :
#
#
# Convention : Reuss Voigt Hill
#
# Bulk Modulus (GPa) = 63.15272 69.18199 66.16735
# Shear Modulus (GPa) = 33.35603 39.91617 36.63610
#
# Velocity S-wave (km/s) = 3.82302 4.18210 4.00659
# Velocity P-wave (km/s) = 6.86722 7.32347 7.09901
#
# Compressibility (1/GPa) = 0.01583463
#
# Stress axis : x y z
#
# Youngs Moduli (GPa) = 158.27794 59.21451 87.54852
#
# Poissons Ratio (x) = 0.15802 0.09891
# Poissons Ratio (y) = 0.42239 0.49011
# Poissons Ratio (z) = 0.17882 0.33149
#
# Static dielectric constant tensor:
#      x y z
#    x 1.791780 0.000000 0.000000 
#    y 0.000000 1.906150 0.000000 
#    z 0.000000 0.000000 1.886890 
# 
# From -- ./inp_files/1534.got.cif
#   From: 2010.05.17/outbox.cif.g08.bks.cpg/sg64_1_cif.got.tgz:1534.got - 2010.06.03 16:29:19.
