data_PCOD9482307
_publ_section_title
;
Structure prediction by ZEFSAII (Michael W. Deem and Ramdas Pophale) SiO2 
 PCOD9482307
Probable space group: C M C A
;
_chemical_formula_sum "Si O2"
_cell_formula_units_Z 68
_cell_length_a 19.886102
_cell_length_b 21.241041
_cell_length_c 7.471772
_cell_angle_alpha 90.000000
_cell_angle_beta 90.000000
_cell_angle_gamma 90.000000
_cell_volume 3156.087760
_symmetry_space_group_name_H-M "C M C A"
_symmetry_group_IT_number 64
_symmetry_cell_setting 'orthorhombic'
loop_
_space_group_symop_operation_xyz
x,y,z
-x,1/2-y,1/2+z
x,-y,-z
-x,1/2+y,1/2-z
-x,-y,-z
x,1/2+y,1/2-z
-x,y,z
x,1/2-y,1/2+z
1/2+x,1/2+y,z
1/2-x,-y,1/2+z
1/2+x,1/2-y,-z
1/2-x,y,1/2-z
1/2-x,1/2-y,-z
1/2+x,y,1/2-z
1/2-x,1/2+y,z
1/2+x,-y,1/2+z
loop_
_atom_site_type_symbol
_atom_site_label
_atom_site_fract_x
_atom_site_fract_y
_atom_site_fract_z
Si Si1 0.603252 0.606758 0.058096
Si Si2 0.500000 0.500000 0.000000
Si Si3 0.922709 0.783955 0.218900
Si Si4 0.376009 0.341045 0.587580
Si Si5 0.745819 0.926852 0.037001
O O1 0.558258 0.553375 0.973021
O O2 0.585740 0.615728 0.267551
O O3 0.588948 0.669623 0.946678
O O4 0.681283 0.588297 0.043867
O O5 0.910833 0.822218 0.401493
O O6 0.871948 0.725650 0.192125
O O7 0.000000 0.760650 0.215658
O O8 0.308314 0.378027 0.539937
O O9 0.750000 0.918360 0.250000
O O10 0.727787 0.000000 0.000000
#
# Coordination Sequence:
#
# PCOD9482307 Si02
#       5
#    16   4  16  16  16
#     4  12  26  50  75 110 154 198 251 319 379 458
#     4  12  28  48  78 112 152 202 252 308 388 454
#     4  12  26  46  74 112 151 197 255 315 379 456
#     4  12  27  47  80 109 152 205 251 316 384 454
#     4  12  26  50  76 110 156 200 258 319 385 454
#
# _framework density 21.545662
#
# number of rings (size 3 to 8) (size 9 to 14) (size 15 to 20)
#    0.000    0.000    7.059    2.824    3.294    0.941 
#    4.235    1.176    0.000    0.000    0.000    0.000 
#    0.000    0.000    0.000    0.000    0.000    0.000 
#
# Total GULP energy -189620.551804 kJ/mol
# GULP energy per Si atom -5577.075053 kJ/mol
# Density = 2.149662 g / cm^3
# Si number density = 21.545662 Si / 1000 Ang^3
#
#
#
# Elastic Constant Matrix: (Units=GPa)
#
#
# Indices 1 2 3 4 5 6 
#
# 1 115.1433 58.4598 20.7818 0.0000 0.0000 0.0000
# 2 58.4598 97.1441 8.0267 0.0000 0.0000 0.0000
# 3 20.7818 8.0267 138.4901 0.0000 0.0000 0.0000
# 4 0.0000 0.0000 0.0000 17.4220 0.0000 0.0000
# 5 0.0000 0.0000 0.0000 0.0000 6.3805 0.0000
# 6 0.0000 0.0000 0.0000 0.0000 0.0000 35.6234
#
#
#
# Elastic Compliance Matrix: (Units=1/GPa)
#
#
# Indices 1 2 3 4 5 6 
#
# 1 0.012801 -0.007581 -0.001482 0.000000 0.000000 0.000000
# 2 -0.007581 0.014833 0.000278 0.000000 0.000000 0.000000
# 3 -0.001482 0.000278 0.007427 0.000000 0.000000 0.000000
# 4 0.000000 0.000000 0.000000 0.057399 0.000000 0.000000
# 5 0.000000 0.000000 0.000000 0.000000 0.156727 0.000000
# 6 0.000000 0.000000 0.000000 0.000000 0.000000 0.028071
#
#
# Mechanical properties :
#
#
# Convention : Reuss Voigt Hill
#
# Bulk Modulus (GPa) = 57.16958 58.36823 57.76891
# Shear Modulus (GPa) = 16.63012 29.45245 23.04129
#
# Velocity S-wave (km/s) = 2.78124 3.70128 3.27374
# Velocity P-wave (km/s) = 6.07499 6.73908 6.41563
#
# Compressibility (1/GPa) = 0.01749182
#
# Stress axis : x y z
#
# Youngs Moduli (GPa) = 78.11700 67.41605 134.64475
#
# Poissons Ratio (x) = 0.51109 0.19949
# Poissons Ratio (y) = 0.59222 -0.03742
# Poissons Ratio (z) = 0.11574 -0.01874
#
# Static dielectric constant tensor:
#      x y z
#    x 1.734130 0.000000 0.000000 
#    y 0.000000 1.803270 0.000000 
#    z 0.000000 0.000000 1.822580 
# 
# From -- ./inp_files/6730.got.cif
#   From: 2010.05.17/outbox.cif.g08.bks.cpg/sg64_4_cif.got.tgz:6730.got - 2010.06.03 16:29:19.
