data_PCOD9482185
_publ_section_title
;
Structure prediction by ZEFSAII (Michael W. Deem and Ramdas Pophale) SiO2 
 PCOD9482185
Probable space group: C M C A
;
_chemical_formula_sum "Si O2"
_cell_formula_units_Z 88
_cell_length_a 14.668393
_cell_length_b 21.256088
_cell_length_c 11.081540
_cell_angle_alpha 90.000000
_cell_angle_beta 90.000000
_cell_angle_gamma 90.000000
_cell_volume 3455.142750
_symmetry_space_group_name_H-M "C M C A"
_symmetry_group_IT_number 64
_symmetry_cell_setting 'orthorhombic'
loop_
_space_group_symop_operation_xyz
x,y,z
-x,1/2-y,1/2+z
x,-y,-z
-x,1/2+y,1/2-z
-x,-y,-z
x,1/2+y,1/2-z
-x,y,z
x,1/2-y,1/2+z
1/2+x,1/2+y,z
1/2-x,-y,1/2+z
1/2+x,1/2-y,-z
1/2-x,y,1/2-z
1/2-x,1/2-y,-z
1/2+x,y,1/2-z
1/2-x,1/2+y,z
1/2+x,-y,1/2+z
loop_
_atom_site_type_symbol
_atom_site_label
_atom_site_fract_x
_atom_site_fract_y
_atom_site_fract_z
Si Si1 0.347868 0.078864 0.708549
Si Si2 0.106313 0.036516 0.375436
Si Si3 0.344122 0.158276 0.206065
Si Si4 0.500000 0.826647 0.176824
Si Si5 0.637641 0.752631 0.995009
Si Si6 0.399770 0.890181 0.536276
O O1 0.250000 0.101617 0.750000
O O2 0.421946 0.127235 0.760138
O O3 0.344258 0.072368 0.563774
O O4 0.368251 0.011428 0.769842
O O5 0.168253 0.098522 0.381106
O O6 0.000000 0.057309 0.365465
O O7 0.113527 0.000000 0.500000
O O8 0.250000 0.186858 0.250000
O O9 0.391867 0.210626 0.126932
O O10 0.382564 0.123474 0.323228
O O11 0.581816 0.786001 0.103501
O O12 0.606167 0.681285 0.987819
O O13 0.750000 0.750000 0.000000
O O14 0.500000 0.917314 0.527057
#
# Coordination Sequence:
#
# PCOD9482185 Si02
#       6
#    16  16  16   8  16  16
#     4  12  27  50  80 116 158 211 274 333 408 499
#     4  11  25  48  80 115 150 204 274 337 410 493
#     4  12  28  47  74 115 155 203 265 331 411 492
#     4  12  26  50  85 111 164 222 271 340 411 485
#     4  12  27  48  76 113 158 211 271 339 401 487
#     4  12  27  47  72 110 156 205 256 328 408 479
#
# _framework density 25.469280999999999
#
# number of rings (size 3 to 8) (size 9 to 14) (size 15 to 20)
#    0.000    0.182    4.545    3.273   10.182    1.455 
#    0.000    1.818    0.000    0.000    0.000    0.000 
#    0.000    0.000    0.000    0.000    0.000    0.000 
#
# Total GULP energy -245063.741593 kJ/mol
# GULP energy per Si atom -5569.630491 kJ/mol
# Density = 2.541131 g / cm^3
# Si number density = 25.469281 Si / 1000 Ang^3
#
#
#
# Elastic Constant Matrix: (Units=GPa)
#
#
# Indices 1 2 3 4 5 6 
#
# 1 152.5630 -13.9560 9.4541 0.0000 0.0000 0.0000
# 2 -13.9560 77.3020 28.8095 0.0000 0.0000 0.0000
# 3 9.4541 28.8095 114.9386 0.0000 0.0000 0.0000
# 4 0.0000 0.0000 0.0000 11.9333 0.0000 0.0000
# 5 0.0000 0.0000 0.0000 0.0000 35.1314 0.0000
# 6 0.0000 0.0000 0.0000 0.0000 0.0000 20.4334
#
#
#
# Elastic Compliance Matrix: (Units=1/GPa)
#
#
# Indices 1 2 3 4 5 6 
#
# 1 0.006758 0.001574 -0.000950 0.000000 0.000000 0.000000
# 2 0.001574 0.014636 -0.003798 0.000000 0.000000 0.000000
# 3 -0.000950 -0.003798 0.009730 0.000000 0.000000 0.000000
# 4 0.000000 0.000000 0.000000 0.083799 0.000000 0.000000
# 5 0.000000 0.000000 0.000000 0.000000 0.028465 0.000000
# 6 0.000000 0.000000 0.000000 0.000000 0.000000 0.048939
#
#
# Mechanical properties :
#
#
# Convention : Reuss Voigt Hill
#
# Bulk Modulus (GPa) = 40.36237 43.71321 42.03779
# Shear Modulus (GPa) = 24.16232 34.86603 29.51417
#
# Velocity S-wave (km/s) = 3.08341 3.70394 3.40783
# Velocity P-wave (km/s) = 5.34401 5.95757 5.65911
#
# Compressibility (1/GPa) = 0.02477555
#
# Stress axis : x y z
#
# Youngs Moduli (GPa) = 147.98226 68.32486 102.77017
#
# Poissons Ratio (x) = -0.10756 0.09767
# Poissons Ratio (y) = -0.23295 0.39032
# Poissons Ratio (z) = 0.14064 0.25950
#
# Static dielectric constant tensor:
#      x y z
#    x 2.064350 0.000000 0.000000 
#    y 0.000000 1.947720 0.000000 
#    z 0.000000 0.000000 2.166040 
# 
# From -- ./inp_files/14578.got.cif
#   From: 2010.05.17/outbox.cif.g08.bks.cpg/sg64_8_cif.got.tgz:14578.got - 2010.06.03 16:29:19.
