data_PCOD9482728
_publ_section_title
;
Structure prediction by ZEFSAII (Michael W. Deem and Ramdas Pophale) SiO2 
 PCOD9482728
Probable space group: C M M M
;
_chemical_formula_sum "Si O2"
_cell_formula_units_Z 80
_cell_length_a 25.974958
_cell_length_b 7.756666
_cell_length_c 24.372453
_cell_angle_alpha 90.000000
_cell_angle_beta 90.000000
_cell_angle_gamma 90.000000
_cell_volume 4910.539251
_symmetry_space_group_name_H-M "C M M M"
_symmetry_group_IT_number 65
_symmetry_cell_setting 'orthorhombic'
loop_
_space_group_symop_operation_xyz
x,y,z
-x,-y,z
x,-y,-z
-x,y,-z
-x,-y,-z
x,y,-z
-x,y,z
x,-y,z
1/2+x,1/2+y,z
1/2-x,1/2-y,z
1/2+x,1/2-y,-z
1/2-x,1/2+y,-z
1/2-x,1/2-y,-z
1/2+x,1/2+y,-z
1/2-x,1/2+y,z
1/2+x,1/2-y,z
loop_
_atom_site_type_symbol
_atom_site_label
_atom_site_fract_x
_atom_site_fract_y
_atom_site_fract_z
Si Si1 0.368074 0.805957 0.288337
Si Si2 0.310804 0.707340 0.058935
Si Si3 0.939215 0.000000 0.325490
Si Si4 0.309362 0.799665 0.599656
Si Si5 0.382726 0.500000 0.439472
Si Si6 0.189385 0.793100 0.821020
O O1 0.411975 0.665877 0.298593
O O2 0.325480 0.779501 0.336280
O O3 0.341562 0.783728 0.229582
O O4 0.387957 0.000000 0.294600
O O5 0.316056 0.500000 0.058974
O O6 0.250000 0.750000 0.058685
O O7 0.329380 0.768590 0.118601
O O8 0.331739 0.771639 0.000000
O O9 0.922976 0.000000 0.389629
O O10 0.000000 0.000000 0.318762
O O11 0.250000 0.750000 0.591916
O O12 0.346190 0.667155 0.568184
O O13 0.317143 0.000000 0.584565
O O14 0.405831 0.500000 0.500000
O O15 0.250000 0.750000 0.816187
O O16 0.184355 0.000000 0.818652
#
# Coordination Sequence:
#
# PCOD9482728 Si02
#       6
#    16  16   8  16   8  16
#     4  10  20  33  52  75 101 127 163 208 249 302
#     4   8  14  23  34  52  86 132 175 206 232 270
#     4  10  22  41  60  76  97 124 160 208 258 300
#     4  10  19  32  49  73 105 141 167 193 235 283
#     4  10  22  37  54  78 104 131 166 200 234 286
#     4  10  17  25  41  68 101 138 172 204 243 289
#
# _framework density 16.291488999999999
#
# number of rings (size 3 to 8) (size 9 to 14) (size 15 to 20)
#    0.000    2.400    2.000    1.200    0.000    3.800 
#    0.000    0.000    0.000    0.000    0.000    5.600 
#    0.000    1.600    0.000    1.800    0.000    0.000 
#
# Total GULP energy -222906.905114 kJ/mol
# GULP energy per Si atom -5572.672628 kJ/mol
# Density = 1.625441 g / cm^3
# Si number density = 16.291489 Si / 1000 Ang^3
#
#
#
# Elastic Constant Matrix: (Units=GPa)
#
#
# Indices 1 2 3 4 5 6 
#
# 1 56.1992 21.1470 18.3341 0.0000 0.0000 0.0000
# 2 21.1470 82.8837 22.9472 0.0000 0.0000 0.0000
# 3 18.3341 22.9472 122.5809 0.0000 0.0000 0.0000
# 4 0.0000 0.0000 0.0000 -3.9532 0.0000 0.0000
# 5 0.0000 0.0000 0.0000 0.0000 5.7923 0.0000
# 6 0.0000 0.0000 0.0000 0.0000 0.0000 6.8330
#
#
#
# Elastic Compliance Matrix: (Units=1/GPa)
#
#
# Indices 1 2 3 4 5 6 
#
# 1 0.020217 -0.004557 -0.002171 0.000000 0.000000 0.000000
# 2 -0.004557 0.013752 -0.001893 0.000000 0.000000 0.000000
# 3 -0.002171 -0.001893 0.008837 0.000000 0.000000 0.000000
# 4 0.000000 0.000000 0.000000 -0.252958 0.000000 0.000000
# 5 0.000000 0.000000 0.000000 0.000000 0.172642 0.000000
# 6 0.000000 0.000000 0.000000 0.000000 0.000000 0.146349
#
#
# Mechanical properties :
#
#
# Convention : Reuss Voigt Hill
#
# Bulk Modulus (GPa) = 39.11698 42.94672 41.03185
# Shear Modulus (GPa) = 37.14659 15.01678 26.08168
#
# Velocity S-wave (km/s) = 4.78024 3.03934 4.00551
# Velocity P-wave (km/s) = 7.38447 6.22378 6.82883
#
# Compressibility (1/GPa) = 0.02556435
#
# Stress axis : x y z
#
# Youngs Moduli (GPa) = 49.46381 72.71755 113.16230
#
# Poissons Ratio (x) = 0.33139 0.24564
# Poissons Ratio (y) = 0.22541 0.21419
# Poissons Ratio (z) = 0.10737 0.13764
#
# Static dielectric constant tensor:
#      x y z
#    x 1.473100 0.000000 0.000000 
#    y 0.000000 1.572450 0.000000 
#    z 0.000000 0.000000 1.601080 
# 
# From -- ./inp_files/67785.got.cif
#   From: 2010.05.17/outbox.cif.g08.bks.cpg/sg65_34_cif.got.tgz:67785.got - 2010.06.03 17:01:31.
