data_PCOD9482076
_publ_section_title
;
Structure prediction by ZEFSAII (Michael W. Deem and Ramdas Pophale) SiO2 
 PCOD9482076
Probable space group: C M C A
;
_chemical_formula_sum "Si O2"
_cell_formula_units_Z 48
_cell_length_a 7.604557
_cell_length_b 18.905096
_cell_length_c 19.400969
_cell_angle_alpha 90.000000
_cell_angle_beta 90.000000
_cell_angle_gamma 90.000000
_cell_volume 2789.177983
_symmetry_space_group_name_H-M "C M C A"
_symmetry_group_IT_number 64
_symmetry_cell_setting 'orthorhombic'
loop_
_space_group_symop_operation_xyz
x,y,z
-x,1/2-y,1/2+z
x,-y,-z
-x,1/2+y,1/2-z
-x,-y,-z
x,1/2+y,1/2-z
-x,y,z
x,1/2-y,1/2+z
1/2+x,1/2+y,z
1/2-x,-y,1/2+z
1/2+x,1/2-y,-z
1/2-x,y,1/2-z
1/2-x,1/2-y,-z
1/2+x,y,1/2-z
1/2-x,1/2+y,z
1/2+x,-y,1/2+z
loop_
_atom_site_type_symbol
_atom_site_label
_atom_site_fract_x
_atom_site_fract_y
_atom_site_fract_z
Si Si1 0.000000 0.561437 0.901730
Si Si2 0.705842 0.214291 0.426238
Si Si3 0.500000 0.900221 0.936417
Si Si4 0.293910 0.846371 0.330627
O O1 0.000000 0.476814 0.901586
O O2 0.829866 0.594596 0.864947
O O3 0.000000 0.586973 0.981132
O O4 0.500000 0.196774 0.424647
O O5 0.750000 0.250000 0.500000
O O6 0.748448 0.272880 0.368696
O O7 0.830079 0.146592 0.418258
O O8 0.500000 0.861398 0.340179
O O9 0.250000 0.841326 0.250000
#
# Coordination Sequence:
#
# PCOD9482076 Si02
#       4
#     8  16   8  16
#     4  11  24  41  58  96 125 159 202 259 305 366
#     4  12  20  37  64  95 120 160 205 255 300 361
#     4  11  24  39  62  92 130 153 204 261 310 354
#     4  12  22  39  67  90 120 164 211 249 304 372
#
# _framework density 17.20937
#
# number of rings (size 3 to 8) (size 9 to 14) (size 15 to 20)
#    0.000    0.333   10.000    0.000    0.000    1.333 
#    0.000    5.000    0.000    0.000    0.000    0.000 
#    0.000    0.000    0.000    0.000    0.000    0.000 
#
# Total GULP energy -134167.528423 kJ/mol
# GULP energy per Si atom -5590.313684 kJ/mol
# Density = 1.717020 g / cm^3
# Si number density = 17.209370 Si / 1000 Ang^3
#
#
#
# Elastic Constant Matrix: (Units=GPa)
#
#
# Indices 1 2 3 4 5 6 
#
# 1 225.5737 103.7184 51.8045 0.0000 0.0000 0.0000
# 2 103.7184 182.7428 75.5435 0.0000 0.0000 0.0000
# 3 51.8045 75.5435 107.6641 0.0000 0.0000 0.0000
# 4 0.0000 0.0000 0.0000 24.7974 0.0000 0.0000
# 5 0.0000 0.0000 0.0000 0.0000 21.5774 0.0000
# 6 0.0000 0.0000 0.0000 0.0000 0.0000 29.5712
#
#
#
# Elastic Compliance Matrix: (Units=1/GPa)
#
#
# Indices 1 2 3 4 5 6 
#
# 1 0.006036 -0.003135 -0.000705 0.000000 0.000000 0.000000
# 2 -0.003135 0.009336 -0.005042 0.000000 0.000000 0.000000
# 3 -0.000705 -0.005042 0.013165 0.000000 0.000000 0.000000
# 4 0.000000 0.000000 0.000000 0.040327 0.000000 0.000000
# 5 0.000000 0.000000 0.000000 0.000000 0.046345 0.000000
# 6 0.000000 0.000000 0.000000 0.000000 0.000000 0.033817
#
#
# Mechanical properties :
#
#
# Convention : Reuss Voigt Hill
#
# Bulk Modulus (GPa) = 92.81945 108.67926 100.74936
# Shear Modulus (GPa) = 29.34612 34.18349 31.76480
#
# Velocity S-wave (km/s) = 4.13394 4.46166 4.30092
# Velocity P-wave (km/s) = 8.76575 9.47788 9.12876
#
# Compressibility (1/GPa) = 0.01077360
#
# Stress axis : x y z
#
# Youngs Moduli (GPa) = 165.66386 107.11711 75.95720
#
# Poissons Ratio (x) = 0.33576 0.05356
# Poissons Ratio (y) = 0.51928 0.38299
# Poissons Ratio (z) = 0.11681 0.54010
#
# Static dielectric constant tensor:
#      x y z
#    x 1.580180 0.000000 0.000000 
#    y 0.000000 1.552760 0.000000 
#    z 0.000000 0.000000 1.568320 
# 
# From -- ./inp_files/29003.got.cif
#   From: 2010.05.17/outbox.cif.g08.bks.cpg/sg64_15_cif.got.tgz:29003.got - 2010.06.03 16:29:19.
