data_PCOD9482997
_publ_section_title
;
Structure prediction by ZEFSAII (Michael W. Deem and Ramdas Pophale) SiO2 
 PCOD9482997
Probable space group: C M M M
;
_chemical_formula_sum "Si O2"
_cell_formula_units_Z 104
_cell_length_a 18.050795
_cell_length_b 18.329014
_cell_length_c 18.397287
_cell_angle_alpha 90.000000
_cell_angle_beta 90.000000
_cell_angle_gamma 90.000000
_cell_volume 6086.802642
_symmetry_space_group_name_H-M "C M M M"
_symmetry_group_IT_number 65
_symmetry_cell_setting 'orthorhombic'
loop_
_space_group_symop_operation_xyz
x,y,z
-x,-y,z
x,-y,-z
-x,y,-z
-x,-y,-z
x,y,-z
-x,y,z
x,-y,z
1/2+x,1/2+y,z
1/2-x,1/2-y,z
1/2+x,1/2-y,-z
1/2-x,1/2+y,-z
1/2-x,1/2-y,-z
1/2+x,1/2+y,-z
1/2-x,1/2+y,z
1/2+x,1/2-y,z
loop_
_atom_site_type_symbol
_atom_site_label
_atom_site_fract_x
_atom_site_fract_y
_atom_site_fract_z
Si Si1 0.270426 0.837003 0.417444
Si Si2 0.183940 0.804935 0.175708
Si Si3 0.500000 0.414715 0.417616
Si Si4 0.283708 0.915296 0.913131
Si Si5 0.630858 0.650647 0.673955
Si Si6 0.086847 0.331247 0.161067
Si Si7 0.085111 0.679731 0.333271
O O1 0.264460 0.862783 0.500000
O O2 0.250000 0.750000 0.418167
O O3 0.207966 0.867279 0.364797
O O4 0.351208 0.852030 0.384536
O O5 0.250000 0.750000 0.204695
O O6 0.223357 0.859483 0.120089
O O7 0.147031 0.851215 0.240318
O O8 0.122966 0.748444 0.145491
O O9 0.500000 0.500000 0.427555
O O10 0.500000 0.380755 0.500000
O O11 0.569859 0.394452 0.368318
O O12 0.362283 0.889419 0.880054
O O13 0.269018 0.000000 0.894607
O O14 0.285183 0.908449 0.000000
O O15 0.602380 0.733888 0.663672
O O16 0.093844 0.341906 0.248572
O O17 0.000000 0.333883 0.142849
O O18 0.000000 0.665988 0.354903
#
# Coordination Sequence:
#
# PCOD9482997 Si02
#       7
#    16  16   8  16  16  16  16
#     4   9  16  24  39  65  93 123 161 200 249 308
#     4   9  18  33  57  80 101 136 180 220 261 308
#     4  11  24  36  46  68 103 143 182 217 261 317
#     4  10  21  36  53  77 110 141 169 210 265 323
#     4  10  17  32  49  66  94 132 173 217 261 299
#     4   9  18  32  53  78 103 135 174 216 264 311
#     4   9  16  29  47  71  99 129 163 209 262 308
#
# _framework density 17.086147
#
# number of rings (size 3 to 8) (size 9 to 14) (size 15 to 20)
#    0.000    2.538    0.769    3.692    1.077    4.923 
#    0.000    0.769    0.000    0.000    0.000    1.077 
#    0.000    0.000    0.000   11.231    0.000    0.462 
#
# Total GULP energy -289511.166617 kJ/mol
# GULP energy per Si atom -5567.522435 kJ/mol
# Density = 1.704726 g / cm^3
# Si number density = 17.086147 Si / 1000 Ang^3
#
#
#
# Elastic Constant Matrix: (Units=GPa)
#
#
# Indices 1 2 3 4 5 6 
#
# 1 75.8226 1.5509 30.6488 0.0000 0.0000 0.0000
# 2 1.5509 30.8062 35.3430 0.0000 0.0000 0.0000
# 3 30.6488 35.3430 66.1357 0.0000 0.0000 0.0000
# 4 0.0000 0.0000 0.0000 16.1589 0.0000 0.0000
# 5 0.0000 0.0000 0.0000 0.0000 131.2715 0.0000
# 6 0.0000 0.0000 0.0000 0.0000 0.0000 -0.8649
#
#
#
# Elastic Compliance Matrix: (Units=1/GPa)
#
#
# Indices 1 2 3 4 5 6 
#
# 1 0.023163 0.028816 -0.026134 0.000000 0.000000 0.000000
# 2 0.028816 0.119750 -0.077348 0.000000 0.000000 0.000000
# 3 -0.026134 -0.077348 0.068566 0.000000 0.000000 0.000000
# 4 0.000000 0.000000 0.000000 0.061885 0.000000 0.000000
# 5 0.000000 0.000000 0.000000 0.000000 0.007618 0.000000
# 6 0.000000 0.000000 0.000000 0.000000 0.000000 -1.156198
#
#
# Mechanical properties :
#
#
# Convention : Reuss Voigt Hill
#
# Bulk Modulus (GPa) = 16.09086 34.20555 25.14821
# Shear Modulus (GPa) = -7.09050 36.32788 14.61869
#
# Velocity S-wave (km/s) = -2.03933 4.61603 2.92822
# Velocity P-wave (km/s) = 1.97301 6.96227 5.11694
#
# Compressibility (1/GPa) = 0.06214710
#
# Stress axis : x y z
#
# Youngs Moduli (GPa) = 43.17257 8.35076 14.58441
#
# Poissons Ratio (x) = -0.24064 0.38114
# Poissons Ratio (y) = -1.24406 1.12808
# Poissons Ratio (z) = 1.12825 0.64592
#
# Static dielectric constant tensor:
#      x y z
#    x 1.548910 0.000000 0.000000 
#    y 0.000000 1.636880 0.000000 
#    z 0.000000 0.000000 1.580840 
# 
# From -- ./inp_files/54622.got.cif
#   From: 2010.05.17/outbox.cif.g08.bks.cpg/sg65_28_cif.got.tgz:54622.got - 2010.06.03 17:01:31.
