data_PCOD9482754
_publ_section_title
;
Structure prediction by ZEFSAII (Michael W. Deem and Ramdas Pophale) SiO2 
 PCOD9482754
Probable space group: C M M M
;
_chemical_formula_sum "Si O2"
_cell_formula_units_Z 88
_cell_length_a 31.163000
_cell_length_b 24.769389
_cell_length_c 8.609465
_cell_angle_alpha 90.000000
_cell_angle_beta 90.000000
_cell_angle_gamma 90.000000
_cell_volume 6645.546761
_symmetry_space_group_name_H-M "C M M M"
_symmetry_group_IT_number 65
_symmetry_cell_setting 'orthorhombic'
loop_
_space_group_symop_operation_xyz
x,y,z
-x,-y,z
x,-y,-z
-x,y,-z
-x,-y,-z
x,y,-z
-x,y,z
x,-y,z
1/2+x,1/2+y,z
1/2-x,1/2-y,z
1/2+x,1/2-y,-z
1/2-x,1/2+y,-z
1/2-x,1/2-y,-z
1/2+x,1/2+y,-z
1/2-x,1/2+y,z
1/2+x,1/2-y,z
loop_
_atom_site_type_symbol
_atom_site_label
_atom_site_fract_x
_atom_site_fract_y
_atom_site_fract_z
Si Si1 0.794621 0.216321 0.321532
Si Si2 0.000000 0.563722 0.313536
Si Si3 0.838339 0.322214 0.687018
Si Si4 0.753059 0.380500 0.185197
Si Si5 0.910734 0.394688 0.813117
Si Si6 0.358176 0.000000 0.811798
Si Si7 0.240574 0.500000 0.811051
O O1 0.804720 0.202427 0.500000
O O2 0.750000 0.250000 0.322691
O O3 0.828409 0.260557 0.261763
O O4 0.783571 0.162371 0.229321
O O5 0.042010 0.594308 0.251287
O O6 0.000000 0.500000 0.262537
O O7 0.000000 0.563826 0.500000
O O8 0.837652 0.322923 0.500000
O O9 0.798364 0.359210 0.744951
O O10 0.883123 0.344775 0.749889
O O11 0.742267 0.441436 0.238953
O O12 0.758945 0.381160 0.000000
O O13 0.883207 0.446979 0.762043
O O14 0.912043 0.392736 0.000000
O O15 0.309221 0.000000 0.761905
O O16 0.357773 0.000000 0.000000
O O17 0.242586 0.500000 0.000000
#
# Coordination Sequence:
#
# PCOD9482754 Si02
#       7
#    16   8  16  16  16   8   8
#     4   8  16  29  40  53  77 102 124 159 204 239
#     4  11  23  35  45  61  83 105 131 164 205 252
#     4  10  19  30  42  57  78 101 127 165 208 243
#     4  10  17  26  41  58  77 102 133 164 197 240
#     4  11  20  32  48  61  75 101 135 169 206 245
#     4   9  16  27  41  56  77  99 126 166 207 239
#     4   9  16  26  37  57  82 103 126 164 208 237
#
# _framework density 13.241951
#
# number of rings (size 3 to 8) (size 9 to 14) (size 15 to 20)
#    0.000    2.273    2.727    3.000    0.000    4.364 
#    0.000    2.727    0.000    0.000    0.000    0.000 
#    0.000    0.000    0.000    0.000    0.000    0.909 
#
# Total GULP energy -245066.783498 kJ/mol
# GULP energy per Si atom -5569.699625 kJ/mol
# Density = 1.321181 g / cm^3
# Si number density = 13.241951 Si / 1000 Ang^3
#
#
#
# Elastic Constant Matrix: (Units=GPa)
#
#
# Indices 1 2 3 4 5 6 
#
# 1 65.9643 51.9744 19.3317 0.0000 0.0000 0.0000
# 2 51.9744 111.7992 28.8418 0.0000 0.0000 0.0000
# 3 19.3317 28.8418 36.1004 0.0000 0.0000 0.0000
# 4 0.0000 0.0000 0.0000 -104.5682 0.0000 0.0000
# 5 0.0000 0.0000 0.0000 0.0000 17.2221 0.0000
# 6 0.0000 0.0000 0.0000 0.0000 0.0000 18.8844
#
#
#
# Elastic Compliance Matrix: (Units=1/GPa)
#
#
# Indices 1 2 3 4 5 6 
#
# 1 0.024644 -0.010143 -0.005093 0.000000 0.000000 0.000000
# 2 -0.010143 0.015441 -0.006905 0.000000 0.000000 0.000000
# 3 -0.005093 -0.006905 0.035945 0.000000 0.000000 0.000000
# 4 0.000000 0.000000 0.000000 -0.009563 0.000000 0.000000
# 5 0.000000 0.000000 0.000000 0.000000 0.058065 0.000000
# 6 0.000000 0.000000 0.000000 0.000000 0.000000 0.052954
#
#
# Mechanical properties :
#
#
# Convention : Reuss Voigt Hill
#
# Bulk Modulus (GPa) = 31.49856 46.01774 38.75815
# Shear Modulus (GPa) = 21.51915 -6.11129 7.70393
#
# Velocity S-wave (km/s) = 4.03559 -2.15061 2.41463
# Velocity P-wave (km/s) = 6.74932 5.35351 6.09153
#
# Compressibility (1/GPa) = 0.03174749
#
# Stress axis : x y z
#
# Youngs Moduli (GPa) = 40.57760 64.76137 27.82044
#
# Poissons Ratio (x) = 0.65686 0.14170
# Poissons Ratio (y) = 0.41157 0.19210
# Poissons Ratio (z) = 0.20668 0.44719
#
# Static dielectric constant tensor:
#      x y z
#    x 1.414050 0.000000 0.000000 
#    y 0.000000 1.463070 0.000000 
#    z 0.000000 0.000000 1.452520 
# 
# From -- ./inp_files/18823.got.cif
#   From: 2010.05.17/outbox.cif.g08.bks.cpg/sg65_10_cif.got.tgz:18823.got - 2010.06.03 17:01:31.
