data_PCOD9482791
_publ_section_title
;
Structure prediction by ZEFSAII (Michael W. Deem and Ramdas Pophale) SiO2 
 PCOD9482791
Probable space group: C M M M
;
_chemical_formula_sum "Si O2"
_cell_formula_units_Z 72
_cell_length_a 20.104860
_cell_length_b 28.926153
_cell_length_c 7.448207
_cell_angle_alpha 90.000000
_cell_angle_beta 90.000000
_cell_angle_gamma 90.000000
_cell_volume 4331.551380
_symmetry_space_group_name_H-M "C M M M"
_symmetry_group_IT_number 65
_symmetry_cell_setting 'orthorhombic'
loop_
_space_group_symop_operation_xyz
x,y,z
-x,-y,z
x,-y,-z
-x,y,-z
-x,-y,-z
x,y,-z
-x,y,z
x,-y,z
1/2+x,1/2+y,z
1/2-x,1/2-y,z
1/2+x,1/2-y,-z
1/2-x,1/2+y,-z
1/2-x,1/2-y,-z
1/2+x,1/2+y,-z
1/2-x,1/2+y,z
1/2+x,1/2-y,z
loop_
_atom_site_type_symbol
_atom_site_label
_atom_site_fract_x
_atom_site_fract_y
_atom_site_fract_z
Si Si1 0.000000 0.346448 0.780530
Si Si2 0.923738 0.500000 0.711386
Si Si3 0.353484 0.271192 0.218796
Si Si4 0.130081 0.400077 0.785943
Si Si5 0.276953 0.822057 0.218724
Si Si6 0.000000 0.760800 0.218742
O O1 0.935004 0.373292 0.717745
O O2 0.000000 0.293160 0.730073
O O3 0.000000 0.347350 0.000000
O O4 0.931820 0.500000 0.500000
O O5 0.882565 0.546051 0.755660
O O6 0.000000 0.500000 0.788880
O O7 0.327286 0.219792 0.268553
O O8 0.296462 0.306801 0.278504
O O9 0.428783 0.280373 0.278936
O O10 0.354137 0.271540 0.000000
O O11 0.193897 0.371192 0.720196
O O12 0.130780 0.394304 0.000000
O O13 0.274859 0.821910 0.000000
O O14 0.000000 0.762951 0.000000
#
# Coordination Sequence:
#
# PCOD9482791 Si02
#       6
#     8   8  16  16  16   8
#     4   9  14  19  32  55  76  98 129 159 182 212
#     4  11  23  33  39  53  77 100 125 162 202 231
#     4   8  12  17  27  48  78 105 125 150 186 223
#     4  10  17  27  42  56  73 100 135 166 188 216
#     4   8  13  20  31  50  75 100 127 158 187 215
#     4   9  12  16  27  48  81 111 127 146 185 228
#
# _framework density 16.622221
#
# number of rings (size 3 to 8) (size 9 to 14) (size 15 to 20)
#    0.000    3.000    3.333    1.667    0.000    0.444 
#    0.000    0.000    0.000    0.000    0.000    3.111 
#    0.000    0.889    0.000   11.333    0.000    1.111 
#
# Total GULP energy -200546.222174 kJ/mol
# GULP energy per Si atom -5570.728394 kJ/mol
# Density = 1.658439 g / cm^3
# Si number density = 16.622221 Si / 1000 Ang^3
#
#
#
# Elastic Constant Matrix: (Units=GPa)
#
#
# Indices 1 2 3 4 5 6 
#
# 1 164.0255 79.1722 5.9598 0.0000 0.0000 0.0000
# 2 79.1722 111.8948 1.6706 0.0000 0.0000 0.0000
# 3 5.9598 1.6706 47.2496 0.0000 0.0000 0.0000
# 4 0.0000 0.0000 0.0000 -263.2363 0.0000 0.0000
# 5 0.0000 0.0000 0.0000 0.0000 -5.3988 0.0000
# 6 0.0000 0.0000 0.0000 0.0000 0.0000 36.5536
#
#
#
# Elastic Compliance Matrix: (Units=1/GPa)
#
#
# Indices 1 2 3 4 5 6 
#
# 1 0.009300 -0.006566 -0.000941 0.000000 0.000000 0.000000
# 2 -0.006566 0.013578 0.000348 0.000000 0.000000 0.000000
# 3 -0.000941 0.000348 0.021271 0.000000 0.000000 0.000000
# 4 0.000000 0.000000 0.000000 -0.003799 0.000000 0.000000
# 5 0.000000 0.000000 0.000000 0.000000 -0.185226 0.000000
# 6 0.000000 0.000000 0.000000 0.000000 0.000000 0.027357
#
#
# Mechanical properties :
#
#
# Convention : Reuss Voigt Hill
#
# Bulk Modulus (GPa) = 33.52285 55.19723 44.36004
# Shear Modulus (GPa) = -53.61515 -30.65848 -42.13681
#
# Velocity S-wave (km/s) = -5.68552 -4.29934 -5.04031
# Velocity P-wave (km/s) = 4.78423 2.93824 2.66980
#
# Compressibility (1/GPa) = 0.02983040
#
# Stress axis : x y z
#
# Youngs Moduli (GPa) = 107.52311 73.64880 47.01335
#
# Poissons Ratio (x) = 0.48361 0.04424
# Poissons Ratio (y) = 0.70605 -0.01637
# Poissons Ratio (z) = 0.10117 -0.02564
#
# Static dielectric constant tensor:
#      x y z
#    x 1.593090 0.000000 0.000000 
#    y 0.000000 1.582040 0.000000 
#    z 0.000000 0.000000 1.626230 
# 
# From -- ./inp_files/12068.got.cif
#   From: 2010.05.17/outbox.cif.g08.bks.cpg/sg65_7_cif.got.tgz:12068.got - 2010.06.03 17:01:31.
