data_PCOD9482994
_publ_section_title
;
Structure prediction by ZEFSAII (Michael W. Deem and Ramdas Pophale) SiO2 
 PCOD9482994
Probable space group: C M M M
;
_chemical_formula_sum "Si O2"
_cell_formula_units_Z 64
_cell_length_a 14.986791
_cell_length_b 23.779560
_cell_length_c 9.530177
_cell_angle_alpha 90.000000
_cell_angle_beta 90.000000
_cell_angle_gamma 90.000000
_cell_volume 3396.357768
_symmetry_space_group_name_H-M "C M M M"
_symmetry_group_IT_number 65
_symmetry_cell_setting 'orthorhombic'
loop_
_space_group_symop_operation_xyz
x,y,z
-x,-y,z
x,-y,-z
-x,y,-z
-x,-y,-z
x,y,-z
-x,y,z
x,-y,z
1/2+x,1/2+y,z
1/2-x,1/2-y,z
1/2+x,1/2-y,-z
1/2-x,1/2+y,-z
1/2-x,1/2-y,-z
1/2+x,1/2+y,-z
1/2-x,1/2+y,z
1/2+x,1/2-y,z
loop_
_atom_site_type_symbol
_atom_site_label
_atom_site_fract_x
_atom_site_fract_y
_atom_site_fract_z
Si Si1 0.097798 0.500000 0.760466
Si Si2 0.600566 0.128463 0.841564
Si Si3 0.395451 0.385274 0.164772
Si Si4 0.785901 0.000000 0.166866
Si Si5 0.257376 0.316728 0.665318
O O1 0.096479 0.560451 0.836585
O O2 0.203509 0.500000 0.722705
O O3 0.000000 0.500000 0.681779
O O4 0.500000 0.148430 0.809889
O O5 0.673099 0.152167 0.735774
O O6 0.624618 0.145174 0.000000
O O7 0.500000 0.390350 0.196368
O O8 0.345231 0.444623 0.184845
O O9 0.345194 0.340259 0.259488
O O10 0.386175 0.370543 0.000000
O O11 0.755905 0.000000 0.000000
O O12 0.259464 0.328515 0.500000
O O13 0.250000 0.250000 0.686068
#
# Coordination Sequence:
#
# PCOD9482994 Si02
#       5
#     8  16  16   8  16
#     4  10  18  30  57  95 126 150 179 226 293 357
#     4  10  20  36  61  91 119 148 186 233 285 344
#     4  10  21  38  62  90 117 149 193 242 289 341
#     4  10  17  31  58  90 123 151 180 229 292 352
#     4  11  25  42  58  79 113 157 199 240 289 343
#
# _framework density 18.843716000000001
#
# number of rings (size 3 to 8) (size 9 to 14) (size 15 to 20)
#    0.000    1.750    2.500    2.250    0.000    8.250 
#    0.000    7.500    0.000    3.750    0.000    0.000 
#    0.000    0.000    0.000    0.000    0.000    0.000 
#
# Total GULP energy -178303.619373 kJ/mol
# GULP energy per Si atom -5571.988105 kJ/mol
# Density = 1.880083 g / cm^3
# Si number density = 18.843716 Si / 1000 Ang^3
#
#
#
# Elastic Constant Matrix: (Units=GPa)
#
#
# Indices 1 2 3 4 5 6 
#
# 1 169.2769 63.2140 77.2378 0.0000 0.0000 0.0000
# 2 63.2140 79.2249 60.1754 0.0000 0.0000 0.0000
# 3 77.2378 60.1754 71.0843 0.0000 0.0000 0.0000
# 4 0.0000 0.0000 0.0000 9.2622 0.0000 0.0000
# 5 0.0000 0.0000 0.0000 0.0000 5.7405 0.0000
# 6 0.0000 0.0000 0.0000 0.0000 0.0000 6.9498
#
#
#
# Elastic Compliance Matrix: (Units=1/GPa)
#
#
# Indices 1 2 3 4 5 6 
#
# 1 0.011739 0.000901 -0.013518 0.000000 0.000000 0.000000
# 2 0.000901 0.035424 -0.030967 0.000000 0.000000 0.000000
# 3 -0.013518 -0.030967 0.054970 0.000000 0.000000 0.000000
# 4 0.000000 0.000000 0.000000 0.107966 0.000000 0.000000
# 5 0.000000 0.000000 0.000000 0.000000 0.174201 0.000000
# 6 0.000000 0.000000 0.000000 0.000000 0.000000 0.143888
#
#
# Mechanical properties :
#
#
# Convention : Reuss Voigt Hill
#
# Bulk Modulus (GPa) = 66.81758 80.09339 73.45548
# Shear Modulus (GPa) = 8.06003 12.32110 10.19057
#
# Velocity S-wave (km/s) = 2.07041 2.55984 2.32802
# Velocity P-wave (km/s) = 6.42271 7.16473 6.80384
#
# Compressibility (1/GPa) = 0.01496612
#
# Stress axis : x y z
#
# Youngs Moduli (GPa) = 85.18644 28.22907 18.19164
#
# Poissons Ratio (x) = -0.02543 0.24591
# Poissons Ratio (y) = -0.07674 0.56334
# Poissons Ratio (z) = 1.15153 0.87417
#
# Static dielectric constant tensor:
#      x y z
#    x 1.686870 0.000000 0.000000 
#    y 0.000000 1.632040 0.000000 
#    z 0.000000 0.000000 1.631460 
# 
# From -- ./inp_files/6751.got.cif
#   From: 2010.05.17/outbox.cif.g08.bks.cpg/sg65_4_cif.got.tgz:6751.got - 2010.06.03 17:01:31.
