data_PCOD9482088
_publ_section_title
;
Structure prediction by ZEFSAII (Michael W. Deem and Ramdas Pophale) SiO2 
 PCOD9482088
Probable space group: C M C A
;
_chemical_formula_sum "Si O2"
_cell_formula_units_Z 64
_cell_length_a 26.767910
_cell_length_b 9.144539
_cell_length_c 10.464159
_cell_angle_alpha 90.000000
_cell_angle_beta 90.000000
_cell_angle_gamma 90.000000
_cell_volume 2561.418901
_symmetry_space_group_name_H-M "C M C A"
_symmetry_group_IT_number 64
_symmetry_cell_setting 'orthorhombic'
loop_
_space_group_symop_operation_xyz
x,y,z
-x,1/2-y,1/2+z
x,-y,-z
-x,1/2+y,1/2-z
-x,-y,-z
x,1/2+y,1/2-z
-x,y,z
x,1/2-y,1/2+z
1/2+x,1/2+y,z
1/2-x,-y,1/2+z
1/2+x,1/2-y,-z
1/2-x,y,1/2-z
1/2-x,1/2-y,-z
1/2+x,y,1/2-z
1/2-x,1/2+y,z
1/2+x,-y,1/2+z
loop_
_atom_site_type_symbol
_atom_site_label
_atom_site_fract_x
_atom_site_fract_y
_atom_site_fract_z
Si Si1 0.906517 0.192381 0.425026
Si Si2 0.301793 0.008319 0.369953
Si Si3 0.302030 0.824286 0.869197
Si Si4 0.058343 0.119073 0.691403
O O1 0.847954 0.172398 0.465254
O O2 0.912793 0.316619 0.315489
O O3 0.933740 0.213348 0.560773
O O4 0.926234 0.043383 0.357115
O O5 0.291195 0.842263 0.336081
O O6 0.332149 0.000000 0.500000
O O7 0.324044 0.093883 0.253505
O O8 0.250030 0.096520 0.398740
O O9 0.000000 0.119378 0.724911
#
# Coordination Sequence:
#
# PCOD9482088 Si02
#       4
#    16  16  16  16
#     4  11  25  43  74  97 142 177 231 283 338 425
#     4  11  24  41  67  89 139 175 229 285 330 401
#     4  11  24  42  63 100 129 184 231 270 343 389
#     4  11  24  46  71 104 135 178 222 289 356 412
#
# _framework density 24.986153999999999
#
# number of rings (size 3 to 8) (size 9 to 14) (size 15 to 20)
#    0.000    1.000    0.000    8.250    7.000    1.000 
#    0.000    2.500    0.000    0.000    0.000    0.000 
#    0.000    0.000    0.000    0.000    0.000    0.000 
#
# Total GULP energy -178897.380792 kJ/mol
# GULP energy per Si atom -5590.543150 kJ/mol
# Density = 2.492928 g / cm^3
# Si number density = 24.986154 Si / 1000 Ang^3
#
#
#
# Elastic Constant Matrix: (Units=GPa)
#
#
# Indices 1 2 3 4 5 6 
#
# 1 112.1193 -11.0603 -25.6845 0.0000 0.0000 0.0000
# 2 -11.0603 138.9588 17.0506 0.0000 0.0000 0.0000
# 3 -25.6845 17.0506 99.4637 0.0000 0.0000 0.0000
# 4 0.0000 0.0000 0.0000 44.0634 0.0000 0.0000
# 5 0.0000 0.0000 0.0000 0.0000 34.3530 0.0000
# 6 0.0000 0.0000 0.0000 0.0000 0.0000 25.7984
#
#
#
# Elastic Compliance Matrix: (Units=1/GPa)
#
#
# Indices 1 2 3 4 5 6 
#
# 1 0.009509 0.000465 0.002376 0.000000 0.000000 0.000000
# 2 0.000465 0.007374 -0.001144 0.000000 0.000000 0.000000
# 3 0.002376 -0.001144 0.010864 0.000000 0.000000 0.000000
# 4 0.000000 0.000000 0.000000 0.022695 0.000000 0.000000
# 5 0.000000 0.000000 0.000000 0.000000 0.029110 0.000000
# 6 0.000000 0.000000 0.000000 0.000000 0.000000 0.038762
#
#
# Mechanical properties :
#
#
# Convention : Reuss Voigt Hill
#
# Bulk Modulus (GPa) = 32.11194 34.57260 33.34227
# Shear Modulus (GPa) = 39.90471 45.52536 42.71503
#
# Velocity S-wave (km/s) = 4.00067 4.27315 4.13915
# Velocity P-wave (km/s) = 5.84981 6.18168 6.01803
#
# Compressibility (1/GPa) = 0.03114106
#
# Stress axis : x y z
#
# Youngs Moduli (GPa) = 105.16098 135.61575 92.05125
#
# Poissons Ratio (x) = -0.06311 -0.21869
# Poissons Ratio (y) = -0.04894 0.10530
# Poissons Ratio (z) = -0.24984 0.15513
#
# Static dielectric constant tensor:
#      x y z
#    x 1.939930 0.000000 0.000000 
#    y 0.000000 1.989800 0.000000 
#    z 0.000000 0.000000 2.027080 
# 
# From -- ./inp_files/19475.got.cif
#   From: 2010.05.17/outbox.cif.g08.bks.cpg/sg64_10_cif.got.tgz:19475.got - 2010.06.03 16:29:19.
