data_PCOD9482312
_publ_section_title
;
Structure prediction by ZEFSAII (Michael W. Deem and Ramdas Pophale) SiO2 
 PCOD9482312
Probable space group: C M C A
;
_chemical_formula_sum "Si O2"
_cell_formula_units_Z 40
_cell_length_a 16.380091
_cell_length_b 12.024276
_cell_length_c 6.984752
_cell_angle_alpha 90.000000
_cell_angle_beta 90.000000
_cell_angle_gamma 90.000000
_cell_volume 1375.707919
_symmetry_space_group_name_H-M "C M C A"
_symmetry_group_IT_number 64
_symmetry_cell_setting 'orthorhombic'
loop_
_space_group_symop_operation_xyz
x,y,z
-x,1/2-y,1/2+z
x,-y,-z
-x,1/2+y,1/2-z
-x,-y,-z
x,1/2+y,1/2-z
-x,y,z
x,1/2-y,1/2+z
1/2+x,1/2+y,z
1/2-x,-y,1/2+z
1/2+x,1/2-y,-z
1/2-x,y,1/2-z
1/2-x,1/2-y,-z
1/2+x,y,1/2-z
1/2-x,1/2+y,z
1/2+x,-y,1/2+z
loop_
_atom_site_type_symbol
_atom_site_label
_atom_site_fract_x
_atom_site_fract_y
_atom_site_fract_z
Si Si1 0.908421 0.141921 0.429948
Si Si2 0.613800 0.398583 0.124899
Si Si3 0.250000 0.020591 0.250000
O O1 0.903322 0.275440 0.444448
O O2 0.907283 0.099463 0.649449
O O3 0.828442 0.094834 0.316946
O O4 0.000000 0.119269 0.351760
O O5 0.709860 0.424343 0.113464
O O6 0.579710 0.500000 0.000000
#
# Coordination Sequence:
#
# PCOD9482312 Si02
#       3
#    16  16   8
#     4  12  29  52  82 124 167 215 280 342 407 495
#     4  12  27  50  84 119 164 221 274 340 419 491
#     4  12  28  52  86 122 170 220 270 340 416 492
#
# _framework density 29.075942000000001
#
# number of rings (size 3 to 8) (size 9 to 14) (size 15 to 20)
#    0.000    0.000    0.000    8.400    0.000   12.800 
#    0.000    0.000    0.000    9.600    0.000    0.000 
#    0.000    0.000    0.000    0.000    0.000    0.000 
#
# Total GULP energy -111738.451994 kJ/mol
# GULP energy per Si atom -5586.922600 kJ/mol
# Density = 2.900976 g / cm^3
# Si number density = 29.075942 Si / 1000 Ang^3
#
#
#
# Elastic Constant Matrix: (Units=GPa)
#
#
# Indices 1 2 3 4 5 6 
#
# 1 284.7997 128.9509 76.6036 0.0000 0.0000 0.0000
# 2 128.9509 270.9473 86.4089 0.0000 0.0000 0.0000
# 3 76.6036 86.4089 167.3011 0.0000 0.0000 0.0000
# 4 0.0000 0.0000 0.0000 68.9259 0.0000 0.0000
# 5 0.0000 0.0000 0.0000 0.0000 -14.2076 0.0000
# 6 0.0000 0.0000 0.0000 0.0000 0.0000 15.8197
#
#
#
# Elastic Compliance Matrix: (Units=1/GPa)
#
#
# Indices 1 2 3 4 5 6 
#
# 1 0.004664 -0.001842 -0.001184 0.000000 0.000000 0.000000
# 2 -0.001842 0.005146 -0.001814 0.000000 0.000000 0.000000
# 3 -0.001184 -0.001814 0.007457 0.000000 0.000000 0.000000
# 4 0.000000 0.000000 0.000000 0.014508 0.000000 0.000000
# 5 0.000000 0.000000 0.000000 0.000000 -0.070385 0.000000
# 6 0.000000 0.000000 0.000000 0.000000 0.000000 0.063212
#
#
# Mechanical properties :
#
#
# Convention : Reuss Voigt Hill
#
# Bulk Modulus (GPa) = 131.83360 145.21942 138.52651
# Shear Modulus (GPa) = 135.82782 42.84658 89.33720
#
# Velocity S-wave (km/s) = 6.84224 3.84293 5.54907
# Velocity P-wave (km/s) = 10.38563 8.35129 9.42352
#
# Compressibility (1/GPa) = 0.00758532
#
# Stress axis : x y z
#
# Youngs Moduli (GPa) = 214.42075 194.32340 134.11011
#
# Poissons Ratio (x) = 0.35794 0.15880
# Poissons Ratio (y) = 0.39496 0.24334
# Poissons Ratio (z) = 0.25389 0.35259
#
# Static dielectric constant tensor:
#      x y z
#    x 2.337640 0.000000 0.000000 
#    y 0.000000 2.226300 0.000000 
#    z 0.000000 0.000000 3.656700 
# 
# From -- ./inp_files/6096.got.cif
#   From: 2010.05.17/outbox.cif.g08.bks.cpg/sg64_4_cif.got.tgz:6096.got - 2010.06.03 16:29:19.
