data_PCOD9482366
_publ_section_title
;
Structure prediction by ZEFSAII (Michael W. Deem and Ramdas Pophale) SiO2 
 PCOD9482366
Probable space group: C M C A
;
_chemical_formula_sum "Si O2"
_cell_formula_units_Z 40
_cell_length_a 9.000000
_cell_length_b 27.000000
_cell_length_c 18.000000
_cell_angle_alpha 90.000000
_cell_angle_beta 90.000000
_cell_angle_gamma 90.000000
_cell_volume 4374.000000
_symmetry_space_group_name_H-M "C M C A"
_symmetry_group_IT_number 64
_symmetry_cell_setting 'orthorhombic'
loop_
_space_group_symop_operation_xyz
x,y,z
-x,1/2-y,1/2+z
x,-y,-z
-x,1/2+y,1/2-z
-x,-y,-z
x,1/2+y,1/2-z
-x,y,z
x,1/2-y,1/2+z
1/2+x,1/2+y,z
1/2-x,-y,1/2+z
1/2+x,1/2-y,-z
1/2-x,y,1/2-z
1/2-x,1/2-y,-z
1/2+x,y,1/2-z
1/2-x,1/2+y,z
1/2+x,-y,1/2+z
loop_
_atom_site_type_symbol
_atom_site_label
_atom_site_fract_x
_atom_site_fract_y
_atom_site_fract_z
Si Si1 0.323235 0.204698 0.321977
Si Si2 0.179795 0.841186 0.979504
Si Si3 0.177910 0.311282 0.127284
Si Si4 0.330643 0.910682 0.317648
Si Si5 0.827493 0.948577 0.019723
O O1 0.500000 0.204289 0.313472
O O2 0.250000 0.181814 0.250000
O O3 0.287039 0.178115 0.398479
O O4 0.274221 0.261507 0.331844
O O5 0.000000 0.839783 0.992220
O O6 0.258447 0.810424 0.043936
O O7 0.233909 0.897632 0.987891
O O8 0.245253 0.359896 0.164726
O O9 0.000000 0.313667 0.125922
O O10 0.500000 0.898811 0.298975
O O11 0.250000 0.936657 0.250000
O O12 0.328511 0.942160 0.392142
O O13 0.000000 0.950155 0.993465
O O14 0.753012 0.000000 0.000000
#
# Coordination Sequence:
#
# PCOD9482366 Si02
#       5
#    16  16  16  16  16
#     4  10  21  33  46  68  98 131 162 194 232 278
#     4   9  18  33  51  71  95 124 161 200 238 283
#     4  10  19  31  49  72  97 126 160 195 236 284
#     4  10  19  31  49  73 100 126 156 198 243 285
#     4   8  15  30  52  72  90 120 159 195 235 284
#
# _framework density 9.1449470000000002
#
# number of rings (size 3 to 8) (size 9 to 14) (size 15 to 20)
#    0.000    2.600    0.000    3.600    0.000    4.000 
#    0.000    1.000    0.000   15.000    0.000    0.000 
#    0.000    0.000    0.000    0.000    0.000    0.000 
#
# Total GULP energy -222797.190023 kJ/mol
# GULP energy per Si atom -5569.929751 kJ/mol
# Density = 0.912413 g / cm^3
# Si number density = 9.144947 Si / 1000 Ang^3
#
#
#
# Elastic Constant Matrix: (Units=GPa)
#
#
# Indices 1 2 3 4 5 6 
#
# 1 31.0634 20.3933 36.5039 0.0000 0.0000 0.0000
# 2 20.3933 48.7041 37.0460 0.0000 0.0000 0.0000
# 3 36.5039 37.0460 90.4598 0.0000 0.0000 0.0000
# 4 0.0000 0.0000 0.0000 -7.9347 0.0000 0.0000
# 5 0.0000 0.0000 0.0000 0.0000 30.6104 0.0000
# 6 0.0000 0.0000 0.0000 0.0000 0.0000 2.9933
#
#
#
# Elastic Compliance Matrix: (Units=1/GPa)
#
#
# Indices 1 2 3 4 5 6 
#
# 1 0.064730 -0.010508 -0.021817 0.000000 0.000000 0.000000
# 2 -0.010508 0.031528 -0.008671 0.000000 0.000000 0.000000
# 3 -0.021817 -0.008671 0.023410 0.000000 0.000000 0.000000
# 4 0.000000 0.000000 0.000000 -0.126029 0.000000 0.000000
# 5 0.000000 0.000000 0.000000 0.000000 0.032669 0.000000
# 6 0.000000 0.000000 0.000000 0.000000 0.000000 0.334076
#
#
# Mechanical properties :
#
#
# Convention : Reuss Voigt Hill
#
# Bulk Modulus (GPa) = 26.54382 39.79040 33.16711
# Shear Modulus (GPa) = 10.99061 10.21941 10.60501
#
# Velocity S-wave (km/s) = 2.45401 2.36635 2.41058
# Velocity P-wave (km/s) = 4.75120 5.41006 5.09130
#
# Compressibility (1/GPa) = 0.03767356
#
# Stress axis : x y z
#
# Youngs Moduli (GPa) = 15.44890 31.71822 42.71732
#
# Poissons Ratio (x) = 0.33331 0.93197
# Poissons Ratio (y) = 0.16234 0.37040
# Poissons Ratio (z) = 0.33705 0.27503
#
# Static dielectric constant tensor:
#      x y z
#    x 1.624070 0.000000 0.000000 
#    y 0.000000 1.655120 0.000000 
#    z 0.000000 0.000000 1.497880 
# 
# From -- ./inp_files/29711.got.cif
#   From: 2010.05.17/outbox.ucp.g08.bks.cvg/sg64_15_cif.got.tgz:29711.got - 2010.06.11 16:36:46.
