data_PCOD9482163
_publ_section_title
;
Structure prediction by ZEFSAII (Michael W. Deem and Ramdas Pophale) SiO2 
 PCOD9482163
Probable space group: C M C A
;
_chemical_formula_sum "Si O2"
_cell_formula_units_Z 72
_cell_length_a 23.771163
_cell_length_b 10.261482
_cell_length_c 12.319473
_cell_angle_alpha 90.000000
_cell_angle_beta 90.000000
_cell_angle_gamma 90.000000
_cell_volume 3005.056541
_symmetry_space_group_name_H-M "C M C A"
_symmetry_group_IT_number 64
_symmetry_cell_setting 'orthorhombic'
loop_
_space_group_symop_operation_xyz
x,y,z
-x,1/2-y,1/2+z
x,-y,-z
-x,1/2+y,1/2-z
-x,-y,-z
x,1/2+y,1/2-z
-x,y,z
x,1/2-y,1/2+z
1/2+x,1/2+y,z
1/2-x,-y,1/2+z
1/2+x,1/2-y,-z
1/2-x,y,1/2-z
1/2-x,1/2-y,-z
1/2+x,y,1/2-z
1/2-x,1/2+y,z
1/2+x,-y,1/2+z
loop_
_atom_site_type_symbol
_atom_site_label
_atom_site_fract_x
_atom_site_fract_y
_atom_site_fract_z
Si Si1 0.000000 0.662512 0.538261
Si Si2 0.312491 0.141773 0.002576
Si Si3 0.591174 0.523541 0.806667
Si Si4 0.410314 0.238357 0.870616
Si Si5 0.790616 0.853312 0.147517
O O1 0.951280 0.423287 0.397613
O O2 0.847795 0.769817 0.419863
O O3 0.250140 0.123862 0.954626
O O4 0.420767 0.110506 0.799223
O O5 0.312152 0.207158 0.120499
O O6 0.339933 0.000000 0.000000
O O7 0.548623 0.256935 0.971294
O O8 0.582495 0.368828 0.798457
O O9 0.344567 0.055945 0.659986
O O10 0.750000 0.862603 0.250000
#
# Coordination Sequence:
#
# PCOD9482163 Si02
#       5
#     8  16  16  16  16
#     4  12  27  52  77 102 147 200 254 312 377 438
#     4  11  27  43  72 113 148 195 249 304 377 455
#     4  12  27  47  76 109 146 198 251 304 382 443
#     4  12  27  49  76 108 148 196 251 315 373 453
#     4  11  25  45  73 104 155 192 241 303 380 444
#
# _framework density 23.959614999999999
#
# number of rings (size 3 to 8) (size 9 to 14) (size 15 to 20)
#    0.000    0.444    4.444    2.667    9.333    0.889 
#    0.000    3.889    0.000    0.000    0.000    0.000 
#    0.000    0.000    0.000    0.000    0.000    0.000 
#
# Total GULP energy -200470.707179 kJ/mol
# GULP energy per Si atom -5568.630755 kJ/mol
# Density = 2.390508 g / cm^3
# Si number density = 23.959615 Si / 1000 Ang^3
#
#
#
# Elastic Constant Matrix: (Units=GPa)
#
#
# Indices 1 2 3 4 5 6 
#
# 1 116.6670 7.0324 21.7611 0.0000 0.0000 0.0000
# 2 7.0324 84.5702 12.2094 0.0000 0.0000 0.0000
# 3 21.7611 12.2094 39.4489 0.0000 0.0000 0.0000
# 4 0.0000 0.0000 0.0000 31.9767 0.0000 0.0000
# 5 0.0000 0.0000 0.0000 0.0000 65.2004 0.0000
# 6 0.0000 0.0000 0.0000 0.0000 0.0000 16.1488
#
#
#
# Elastic Compliance Matrix: (Units=1/GPa)
#
#
# Indices 1 2 3 4 5 6 
#
# 1 0.009555 -0.000035 -0.005260 0.000000 0.000000 0.000000
# 2 -0.000035 0.012378 -0.003811 0.000000 0.000000 0.000000
# 3 -0.005260 -0.003811 0.029430 0.000000 0.000000 0.000000
# 4 0.000000 0.000000 0.000000 0.031273 0.000000 0.000000
# 5 0.000000 0.000000 0.000000 0.000000 0.015337 0.000000
# 6 0.000000 0.000000 0.000000 0.000000 0.000000 0.061924
#
#
# Mechanical properties :
#
#
# Convention : Reuss Voigt Hill
#
# Bulk Modulus (GPa) = 30.16601 35.85465 33.01033
# Shear Modulus (GPa) = 26.43275 35.97740 31.20507
#
# Velocity S-wave (km/s) = 3.32508 3.87923 3.61280
# Velocity P-wave (km/s) = 5.23061 5.92129 5.58663
#
# Compressibility (1/GPa) = 0.03314989
#
# Stress axis : x y z
#
# Youngs Moduli (GPa) = 104.66185 80.79057 33.97859
#
# Poissons Ratio (x) = 0.00284 0.17872
# Poissons Ratio (y) = 0.00368 0.12951
# Poissons Ratio (z) = 0.55049 0.30793
#
# Static dielectric constant tensor:
#      x y z
#    x 1.903900 0.000000 0.000000 
#    y 0.000000 2.044820 0.000000 
#    z 0.000000 0.000000 1.931910 
# 
# From -- ./inp_files/34003.got.cif
#   From: 2010.05.17/outbox.cif.g08.bks.cpg/sg64_18_cif.got.tgz:34003.got - 2010.06.03 16:29:19.
