data_PCOD9482503
_publ_section_title
;
Structure prediction by ZEFSAII (Michael W. Deem and Ramdas Pophale) SiO2 
 PCOD9482503
Probable space group: C M C A
;
_chemical_formula_sum "Si O2"
_cell_formula_units_Z 52
_cell_length_a 9.000000
_cell_length_b 27.000000
_cell_length_c 21.000000
_cell_angle_alpha 90.000000
_cell_angle_beta 90.000000
_cell_angle_gamma 90.000000
_cell_volume 5103.000000
_symmetry_space_group_name_H-M "C M C A"
_symmetry_group_IT_number 64
_symmetry_cell_setting 'orthorhombic'
loop_
_space_group_symop_operation_xyz
x,y,z
-x,1/2-y,1/2+z
x,-y,-z
-x,1/2+y,1/2-z
-x,-y,-z
x,1/2+y,1/2-z
-x,y,z
x,1/2-y,1/2+z
1/2+x,1/2+y,z
1/2-x,-y,1/2+z
1/2+x,1/2-y,-z
1/2-x,y,1/2-z
1/2-x,1/2-y,-z
1/2+x,y,1/2-z
1/2-x,1/2+y,z
1/2+x,-y,1/2+z
loop_
_atom_site_type_symbol
_atom_site_label
_atom_site_fract_x
_atom_site_fract_y
_atom_site_fract_z
Si Si1 0.669720 0.604345 0.934135
Si Si2 0.816873 0.961422 0.872587
Si Si3 0.222491 0.500000 0.500000
Si Si4 0.179463 0.444952 0.186286
Si Si5 0.821725 0.206653 0.544347
Si Si6 0.821100 0.743566 0.319201
Si Si7 0.318897 0.637384 0.320265
O O1 0.500000 0.616547 0.915342
O O2 0.658043 0.553764 0.976420
O O3 0.769604 0.588037 0.873911
O O4 0.744455 0.652843 0.965927
O O5 0.760310 0.906484 0.859107
O O6 0.000000 0.964085 0.881824
O O7 0.765369 0.002058 0.821176
O O8 0.720376 0.980940 0.932890
O O9 0.250000 0.422066 0.250000
O O10 0.000000 0.450002 0.189109
O O11 0.750000 0.250000 0.500000
O O12 0.800932 0.220754 0.619611
O O13 0.000000 0.204116 0.532543
O O14 0.750000 0.758104 0.250000
O O15 0.739662 0.691995 0.338290
O O16 0.000000 0.735954 0.310594
O O17 0.500000 0.634476 0.321099
O O18 0.250000 0.630114 0.250000
#
# Coordination Sequence:
#
# PCOD9482503 Si02
#       7
#    16  16   8  16  16  16  16
#     4  11  23  43  68  96 129 171 217 268 328 395
#     4  11  21  37  59  86 123 167 214 265 323 388
#     4  10  23  42  65  92 125 170 217 262 325 392
#     4  11  22  39  61  90 125 164 211 265 323 387
#     4  11  26  46  68  99 136 179 227 279 337 400
#     4  10  22  42  67  95 130 171 219 274 334 398
#     4  11  22  37  59  91 125 164 212 266 326 389
#
# _framework density 10.190084000000001
#
# number of rings (size 3 to 8) (size 9 to 14) (size 15 to 20)
#    0.000    1.231    0.000    8.308    2.154    3.077 
#    0.000   14.615    0.000    0.000    0.000    0.000 
#    0.000    0.000    0.000    0.000    0.000    0.000 
#
# Total GULP energy -289788.834961 kJ/mol
# GULP energy per Si atom -5572.862211 kJ/mol
# Density = 1.016689 g / cm^3
# Si number density = 10.190084 Si / 1000 Ang^3
#
#
#
# Elastic Constant Matrix: (Units=GPa)
#
#
# Indices 1 2 3 4 5 6 
#
# 1 155.4630 37.9048 17.4512 0.0000 0.0000 0.0000
# 2 37.9048 119.0545 29.3790 0.0000 0.0000 0.0000
# 3 17.4512 29.3790 76.0000 0.0000 0.0000 0.0000
# 4 0.0000 0.0000 0.0000 32.2025 0.0000 0.0000
# 5 0.0000 0.0000 0.0000 0.0000 19.6503 0.0000
# 6 0.0000 0.0000 0.0000 0.0000 0.0000 24.0470
#
#
#
# Elastic Compliance Matrix: (Units=1/GPa)
#
#
# Indices 1 2 3 4 5 6 
#
# 1 0.007020 -0.002031 -0.000827 0.000000 0.000000 0.000000
# 2 -0.002031 0.009873 -0.003350 0.000000 0.000000 0.000000
# 3 -0.000827 -0.003350 0.014643 0.000000 0.000000 0.000000
# 4 0.000000 0.000000 0.000000 0.031053 0.000000 0.000000
# 5 0.000000 0.000000 0.000000 0.000000 0.050890 0.000000
# 6 0.000000 0.000000 0.000000 0.000000 0.000000 0.041585
#
#
# Mechanical properties :
#
#
# Convention : Reuss Voigt Hill
#
# Bulk Modulus (GPa) = 52.30160 57.77638 55.03899
# Shear Modulus (GPa) = 28.75973 32.89881 30.82927
#
# Velocity S-wave (km/s) = 3.76062 4.02214 3.89358
# Velocity P-wave (km/s) = 6.67645 7.06972 6.87590
#
# Compressibility (1/GPa) = 0.01911987
#
# Stress axis : x y z
#
# Youngs Moduli (GPa) = 142.44110 101.28740 68.29286
#
# Poissons Ratio (x) = 0.20573 0.05647
# Poissons Ratio (y) = 0.28932 0.22879
# Poissons Ratio (z) = 0.11778 0.33933
#
# Static dielectric constant tensor:
#      x y z
#    x 1.691950 0.000000 0.000000 
#    y 0.000000 1.737720 0.000000 
#    z 0.000000 0.000000 1.805850 
# 
# From -- ./inp_files/37256.got.cif
#   From: 2010.05.17/outbox.ucp.g08.bks.cvg/sg64_19_cif.got.tgz:37256.got - 2010.06.11 16:36:46.
