data_PCOD9482218
_publ_section_title
;
Structure prediction by ZEFSAII (Michael W. Deem and Ramdas Pophale) SiO2 
 PCOD9482218
Probable space group: C M C A
;
_chemical_formula_sum "Si O2"
_cell_formula_units_Z 72
_cell_length_a 20.834701
_cell_length_b 8.829276
_cell_length_c 20.067917
_cell_angle_alpha 90.000000
_cell_angle_beta 90.000000
_cell_angle_gamma 90.000000
_cell_volume 3691.600204
_symmetry_space_group_name_H-M "C M C A"
_symmetry_group_IT_number 64
_symmetry_cell_setting 'orthorhombic'
loop_
_space_group_symop_operation_xyz
x,y,z
-x,1/2-y,1/2+z
x,-y,-z
-x,1/2+y,1/2-z
-x,-y,-z
x,1/2+y,1/2-z
-x,y,z
x,1/2-y,1/2+z
1/2+x,1/2+y,z
1/2-x,-y,1/2+z
1/2+x,1/2-y,-z
1/2-x,y,1/2-z
1/2-x,1/2-y,-z
1/2+x,y,1/2-z
1/2-x,1/2+y,z
1/2+x,-y,1/2+z
loop_
_atom_site_type_symbol
_atom_site_label
_atom_site_fract_x
_atom_site_fract_y
_atom_site_fract_z
Si Si1 0.250000 0.759184 0.750000
Si Si2 0.572683 0.564313 0.675745
Si Si3 0.620267 0.598990 0.194918
Si Si4 0.299543 0.605649 0.885636
Si Si5 0.672781 0.933902 0.930247
O O1 0.311315 0.854571 0.727410
O O2 0.272485 0.665968 0.814444
O O3 0.500000 0.533728 0.654311
O O4 0.583263 0.498047 0.749906
O O5 0.585986 0.743960 0.677819
O O6 0.624535 0.485437 0.627932
O O7 0.639498 0.498134 0.131595
O O8 0.317873 0.753502 0.927664
O O9 0.242289 0.509083 0.917038
O O10 0.648891 0.000000 0.000000
#
# Coordination Sequence:
#
# PCOD9482218 Si02
#       5
#     8  16  16  16  16
#     4  12  18  32  66  88 120 142 174 254 324 356
#     4  12  24  40  59  87 123 163 203 244 294 360
#     4  12  21  37  64  94 120 148 194 254 318 366
#     4  12  21  37  64  94 122 149 192 255 320 364
#     4  12  24  40  60  88 124 165 205 246 296 359
#
# _framework density 19.503737999999998
#
# number of rings (size 3 to 8) (size 9 to 14) (size 15 to 20)
#    0.000    0.000    8.889    2.000    0.000    0.444 
#    0.000    1.111    0.000    1.333    0.000    0.000 
#    0.000    0.000    0.000    0.000    0.000    0.000 
#
# Total GULP energy -201401.225916 kJ/mol
# GULP energy per Si atom -5594.478498 kJ/mol
# Density = 1.945935 g / cm^3
# Si number density = 19.503738 Si / 1000 Ang^3
#
#
#
# Elastic Constant Matrix: (Units=GPa)
#
#
# Indices 1 2 3 4 5 6 
#
# 1 69.0663 21.4046 6.5695 0.0000 0.0000 0.0000
# 2 21.4046 94.0754 -7.9924 0.0000 0.0000 0.0000
# 3 6.5695 -7.9924 19.4036 0.0000 0.0000 0.0000
# 4 0.0000 0.0000 0.0000 17.0257 0.0000 0.0000
# 5 0.0000 0.0000 0.0000 0.0000 8.2889 0.0000
# 6 0.0000 0.0000 0.0000 0.0000 0.0000 -17.5800
#
#
#
# Elastic Compliance Matrix: (Units=1/GPa)
#
#
# Indices 1 2 3 4 5 6 
#
# 1 0.016546 -0.004394 -0.007412 0.000000 0.000000 0.000000
# 2 -0.004394 0.012182 0.006506 0.000000 0.000000 0.000000
# 3 -0.007412 0.006506 0.056726 0.000000 0.000000 0.000000
# 4 0.000000 0.000000 0.000000 0.058735 0.000000 0.000000
# 5 0.000000 0.000000 0.000000 0.000000 0.120644 0.000000
# 6 0.000000 0.000000 0.000000 0.000000 0.000000 -0.056883
#
#
# Mechanical properties :
#
#
# Convention : Reuss Voigt Hill
#
# Bulk Modulus (GPa) = 13.35949 24.72318 19.04134
# Shear Modulus (GPa) = 20.53376 12.38450 16.45913
#
# Velocity S-wave (km/s) = 3.24823 2.52262 2.90814
# Velocity P-wave (km/s) = 4.57521 4.60309 4.58917
#
# Compressibility (1/GPa) = 0.07485314
#
# Stress axis : x y z
#
# Youngs Moduli (GPa) = 60.43867 82.08637 17.62858
#
# Poissons Ratio (x) = 0.36071 0.13066
# Poissons Ratio (y) = 0.26558 -0.11469
# Poissons Ratio (z) = 0.44797 -0.53403
#
# Static dielectric constant tensor:
#      x y z
#    x 1.650700 0.000000 0.000000 
#    y 0.000000 1.714540 0.000000 
#    z 0.000000 0.000000 1.689870 
# 
# From -- ./inp_files/40708.got.cif
#   From: 2010.05.17/outbox.cif.g08.bks.cpg/sg64_21_cif.got.tgz:40708.got - 2010.06.03 16:29:19.
