data_PCOD9482844
_publ_section_title
;
Structure prediction by ZEFSAII (Michael W. Deem and Ramdas Pophale) SiO2 
 PCOD9482844
Probable space group: C M M M
;
_chemical_formula_sum "Si O2"
_cell_formula_units_Z 96
_cell_length_a 21.406770
_cell_length_b 28.959413
_cell_length_c 7.458658
_cell_angle_alpha 90.000000
_cell_angle_beta 90.000000
_cell_angle_gamma 90.000000
_cell_volume 4623.827158
_symmetry_space_group_name_H-M "C M M M"
_symmetry_group_IT_number 65
_symmetry_cell_setting 'orthorhombic'
loop_
_space_group_symop_operation_xyz
x,y,z
-x,-y,z
x,-y,-z
-x,y,-z
-x,-y,-z
x,y,-z
-x,y,z
x,-y,z
1/2+x,1/2+y,z
1/2-x,1/2-y,z
1/2+x,1/2-y,-z
1/2-x,1/2+y,-z
1/2-x,1/2-y,-z
1/2+x,1/2+y,-z
1/2-x,1/2+y,z
1/2+x,1/2-y,z
loop_
_atom_site_type_symbol
_atom_site_label
_atom_site_fract_x
_atom_site_fract_y
_atom_site_fract_z
Si Si1 0.834908 0.947213 0.780721
Si Si2 0.933604 0.555173 0.790298
Si Si3 0.844433 0.780752 0.715115
Si Si4 0.429333 0.632581 0.788047
Si Si5 0.802027 0.581359 0.204589
Si Si6 0.794593 0.313522 0.717592
O O1 0.883337 0.907809 0.717772
O O2 0.764439 0.934937 0.719416
O O3 0.850822 0.000000 0.730922
O O4 0.834333 0.945231 0.000000
O O5 0.936166 0.500000 0.789889
O O6 0.867119 0.567163 0.707206
O O7 0.000000 0.572291 0.714286
O O8 0.932188 0.570316 0.000000
O O9 0.845730 0.779727 0.500000
O O10 0.896837 0.817307 0.769374
O O11 0.842019 0.727220 0.774303
O O12 0.776156 0.799656 0.768001
O O13 0.500000 0.631748 0.714830
O O14 0.433956 0.623917 0.000000
O O15 0.804799 0.636465 0.204196
O O16 0.802704 0.562888 0.000000
O O17 0.796557 0.316543 0.500000
#
# Coordination Sequence:
#
# PCOD9482844 Si02
#       6
#    16  16  16  16  16  16
#     4   9  17  29  46  71 101 130 165 206 244 288
#     4   8  14  25  42  66  96 127 158 193 234 282
#     4   9  18  34  53  71  93 126 164 198 239 295
#     4  10  20  33  50  74 103 132 165 208 253 290
#     4  10  17  27  48  76  99 126 161 200 242 287
#     4   9  18  32  51  73  96 122 156 200 246 290
#
# _framework density 20.762022000000002
#
# number of rings (size 3 to 8) (size 9 to 14) (size 15 to 20)
#    0.000    2.833    1.667    2.000    0.000    3.333 
#    0.000    4.167    0.000    7.000    0.000    2.333 
#    0.000    0.000    0.000    0.000    0.000    0.000 
#
# Total GULP energy -267452.974637 kJ/mol
# GULP energy per Si atom -5571.936972 kJ/mol
# Density = 2.071477 g / cm^3
# Si number density = 20.762022 Si / 1000 Ang^3
#
#
#
# Elastic Constant Matrix: (Units=GPa)
#
#
# Indices 1 2 3 4 5 6 
#
# 1 166.3882 50.5764 9.1786 0.0000 0.0000 0.0000
# 2 50.5764 88.7689 -2.8251 0.0000 0.0000 0.0000
# 3 9.1786 -2.8251 61.2214 0.0000 0.0000 0.0000
# 4 0.0000 0.0000 0.0000 37.4447 0.0000 0.0000
# 5 0.0000 0.0000 0.0000 0.0000 -0.7904 0.0000
# 6 0.0000 0.0000 0.0000 0.0000 0.0000 20.3062
#
#
#
# Elastic Compliance Matrix: (Units=1/GPa)
#
#
# Indices 1 2 3 4 5 6 
#
# 1 0.007371 -0.004241 -0.001301 0.000000 0.000000 0.000000
# 2 -0.004241 0.013722 0.001269 0.000000 0.000000 0.000000
# 3 -0.001301 0.001269 0.016588 0.000000 0.000000 0.000000
# 4 0.000000 0.000000 0.000000 0.026706 0.000000 0.000000
# 5 0.000000 0.000000 0.000000 0.000000 -1.265205 0.000000
# 6 0.000000 0.000000 0.000000 0.000000 0.000000 0.049246
#
#
# Mechanical properties :
#
#
# Convention : Reuss Voigt Hill
#
# Bulk Modulus (GPa) = 34.32290 47.80426 41.06358
# Shear Modulus (GPa) = -4.41184 28.68867 12.13842
#
# Velocity S-wave (km/s) = -1.45930 3.72127 2.42057
# Velocity P-wave (km/s) = 3.70514 6.44505 5.25674
#
# Compressibility (1/GPa) = 0.02913506
#
# Stress axis : x y z
#
# Youngs Moduli (GPa) = 135.66820 72.87603 60.28552
#
# Poissons Ratio (x) = 0.30907 0.07842
# Poissons Ratio (y) = 0.57537 -0.07650
# Poissons Ratio (z) = 0.17648 -0.09248
#
# Static dielectric constant tensor:
#      x y z
#    x 1.773240 0.000000 0.000000 
#    y 0.000000 1.729370 0.000000 
#    z 0.000000 0.000000 1.809040 
# 
# From -- ./inp_files/12296.got.cif
#   From: 2010.05.17/outbox.cif.g08.bks.cpg/sg65_7_cif.got.tgz:12296.got - 2010.06.03 17:01:31.
