data_PCOD9482651
_publ_section_title
;
Structure prediction by ZEFSAII (Michael W. Deem and Ramdas Pophale) SiO2 
 PCOD9482651
Probable space group: C M M M
;
_chemical_formula_sum "Si O2"
_cell_formula_units_Z 72
_cell_length_a 28.568869
_cell_length_b 20.062284
_cell_length_c 7.444635
_cell_angle_alpha 90.000000
_cell_angle_beta 90.000000
_cell_angle_gamma 90.000000
_cell_volume 4266.942902
_symmetry_space_group_name_H-M "C M M M"
_symmetry_group_IT_number 65
_symmetry_cell_setting 'orthorhombic'
loop_
_space_group_symop_operation_xyz
x,y,z
-x,-y,z
x,-y,-z
-x,y,-z
-x,-y,-z
x,y,-z
-x,y,z
x,-y,z
1/2+x,1/2+y,z
1/2-x,1/2-y,z
1/2+x,1/2-y,-z
1/2-x,1/2+y,-z
1/2-x,1/2-y,-z
1/2+x,1/2+y,-z
1/2-x,1/2+y,z
1/2+x,1/2-y,z
loop_
_atom_site_type_symbol
_atom_site_label
_atom_site_fract_x
_atom_site_fract_y
_atom_site_fract_z
Si Si1 0.179121 0.220465 0.214666
Si Si2 0.727558 0.146051 0.779851
Si Si3 0.000000 0.078274 0.280414
Si Si4 0.228464 0.500000 0.794217
Si Si5 0.399699 0.376297 0.713097
Si Si6 0.162827 0.000000 0.718992
O O1 0.220510 0.170453 0.278087
O O2 0.192701 0.294678 0.275783
O O3 0.128339 0.191857 0.257921
O O4 0.183133 0.221580 0.000000
O O5 0.715508 0.071995 0.714899
O O6 0.728223 0.143484 0.000000
O O7 0.047728 0.113658 0.218170
O O8 0.000000 0.079334 0.500000
O O9 0.000000 0.000000 0.229879
O O10 0.284981 0.500000 0.792103
O O11 0.211524 0.500000 0.000000
O O12 0.402782 0.386288 0.500000
O O13 0.366073 0.435425 0.779869
O O14 0.165932 0.000000 0.500000
#
# Coordination Sequence:
#
# PCOD9482651 Si02
#       6
#    16  16   8   8  16   8
#     4   9  16  28  41  56  80 106 130 162 201 234
#     4   8  15  25  40  59  78 103 134 162 192 233
#     4   9  16  28  43  57  77 106 137 168 198 229
#     4  10  16  26  43  59  75 105 143 164 183 229
#     4  10  18  28  42  58  77 105 139 168 196 232
#     4  10  18  25  36  58  82 102 131 169 202 225
#
# _framework density 16.873908
#
# number of rings (size 3 to 8) (size 9 to 14) (size 15 to 20)
#    0.000    2.778    3.333    1.333    0.000    0.000 
#    0.000    3.889    0.000    0.667    0.000    0.000 
#    0.000    0.889    0.000   11.111    0.000    0.889 
#
# Total GULP energy -200661.199378 kJ/mol
# GULP energy per Si atom -5573.922205 kJ/mol
# Density = 1.683550 g / cm^3
# Si number density = 16.873908 Si / 1000 Ang^3
#
#
#
# Elastic Constant Matrix: (Units=GPa)
#
#
# Indices 1 2 3 4 5 6 
#
# 1 98.2186 58.1640 -4.8209 0.0000 0.0000 0.0000
# 2 58.1640 143.3477 -0.9538 0.0000 0.0000 0.0000
# 3 -4.8209 -0.9538 49.6507 0.0000 0.0000 0.0000
# 4 0.0000 0.0000 0.0000 8.2729 0.0000 0.0000
# 5 0.0000 0.0000 0.0000 0.0000 14.3570 0.0000
# 6 0.0000 0.0000 0.0000 0.0000 0.0000 25.6898
#
#
#
# Elastic Compliance Matrix: (Units=1/GPa)
#
#
# Indices 1 2 3 4 5 6 
#
# 1 0.013473 -0.005459 0.001203 0.000000 0.000000 0.000000
# 2 -0.005459 0.009189 -0.000354 0.000000 0.000000 0.000000
# 3 0.001203 -0.000354 0.020251 0.000000 0.000000 0.000000
# 4 0.000000 0.000000 0.000000 0.120877 0.000000 0.000000
# 5 0.000000 0.000000 0.000000 0.000000 0.069652 0.000000
# 6 0.000000 0.000000 0.000000 0.000000 0.000000 0.038926
#
#
# Mechanical properties :
#
#
# Convention : Reuss Voigt Hill
#
# Bulk Modulus (GPa) = 29.67840 43.99951 36.83896
# Shear Modulus (GPa) = 17.07553 25.58579 21.33066
#
# Velocity S-wave (km/s) = 3.18457 3.89819 3.55931
# Velocity P-wave (km/s) = 5.58108 6.81126 6.22662
#
# Compressibility (1/GPa) = 0.03369453
#
# Stress axis : x y z
#
# Youngs Moduli (GPa) = 74.22224 108.83046 49.38091
#
# Poissons Ratio (x) = 0.59408 -0.05942
# Poissons Ratio (y) = 0.40516 0.01746
# Poissons Ratio (z) = -0.08931 0.03847
#
# Static dielectric constant tensor:
#      x y z
#    x 1.558290 0.000000 0.000000 
#    y 0.000000 1.606960 0.000000 
#    z 0.000000 0.000000 1.640250 
# 
# From -- ./inp_files/11488.got.cif
#   From: 2010.05.17/outbox.cif.g08.bks.cpg/sg65_6_cif.got.tgz:11488.got - 2010.06.03 17:01:31.
