data_PCOD9482770
_publ_section_title
;
Structure prediction by ZEFSAII (Michael W. Deem and Ramdas Pophale) SiO2 
 PCOD9482770
Probable space group: C M M M
;
_chemical_formula_sum "Si O2"
_cell_formula_units_Z 56
_cell_length_a 14.845068
_cell_length_b 8.560219
_cell_length_c 21.289610
_cell_angle_alpha 90.000000
_cell_angle_beta 90.000000
_cell_angle_gamma 90.000000
_cell_volume 2705.420476
_symmetry_space_group_name_H-M "C M M M"
_symmetry_group_IT_number 65
_symmetry_cell_setting 'orthorhombic'
loop_
_space_group_symop_operation_xyz
x,y,z
-x,-y,z
x,-y,-z
-x,y,-z
-x,-y,-z
x,y,-z
-x,y,z
x,-y,z
1/2+x,1/2+y,z
1/2-x,1/2-y,z
1/2+x,1/2-y,-z
1/2-x,1/2+y,-z
1/2-x,1/2-y,-z
1/2+x,1/2+y,-z
1/2-x,1/2+y,z
1/2+x,1/2-y,z
loop_
_atom_site_type_symbol
_atom_site_label
_atom_site_fract_x
_atom_site_fract_y
_atom_site_fract_z
Si Si1 0.852936 0.313949 0.698020
Si Si2 0.000000 0.809638 0.071546
Si Si3 0.147020 0.187423 0.568539
Si Si4 0.148643 0.812568 0.829643
O O1 0.852204 0.500000 0.698990
O O2 0.750000 0.250000 0.697857
O O3 0.893953 0.255587 0.632351
O O4 0.890347 0.249610 0.763487
O O5 0.086900 0.762947 0.112129
O O6 0.000000 0.000000 0.069835
O O7 0.000000 0.753370 0.000000
O O8 0.107639 0.229064 0.500000
O O9 0.250000 0.250000 0.567026
O O10 0.148176 0.000000 0.573383
O O11 0.250000 0.750000 0.836679
O O12 0.150885 0.000000 0.826448
#
# Coordination Sequence:
#
# PCOD9482770 Si02
#       4
#    16   8  16  16
#     4  10  17  26  42  65  96 133 174 217 261 311
#     4   9  20  38  59  83 110 141 176 213 259 320
#     4   9  15  22  34  56  89 128 170 216 263 309
#     4  10  19  34  56  80 108 141 178 219 263 313
#
# _framework density 20.699185
#
# number of rings (size 3 to 8) (size 9 to 14) (size 15 to 20)
#    0.000    2.429    0.000    7.714    0.000    2.286 
#    0.000    2.857    0.000    6.000    0.000    1.000 
#    0.000    8.000    0.000    0.000    0.000    0.000 
#
# Total GULP energy -156241.155942 kJ/mol
# GULP energy per Si atom -5580.041284 kJ/mol
# Density = 2.065207 g / cm^3
# Si number density = 20.699185 Si / 1000 Ang^3
#
#
#
# Elastic Constant Matrix: (Units=GPa)
#
#
# Indices 1 2 3 4 5 6 
#
# 1 89.7885 21.2893 69.1350 0.0000 0.0000 0.0000
# 2 21.2893 106.3182 65.5878 0.0000 0.0000 0.0000
# 3 69.1350 65.5878 266.9339 0.0000 0.0000 0.0000
# 4 0.0000 0.0000 0.0000 26.6351 0.0000 0.0000
# 5 0.0000 0.0000 0.0000 0.0000 270.7716 0.0000
# 6 0.0000 0.0000 0.0000 0.0000 0.0000 -0.1209
#
#
#
# Elastic Compliance Matrix: (Units=1/GPa)
#
#
# Indices 1 2 3 4 5 6 
#
# 1 0.013951 -0.000665 -0.003450 0.000000 0.000000 0.000000
# 2 -0.000665 0.011118 -0.002559 0.000000 0.000000 0.000000
# 3 -0.003450 -0.002559 0.005269 0.000000 0.000000 0.000000
# 4 0.000000 0.000000 0.000000 0.037544 0.000000 0.000000
# 5 0.000000 0.000000 0.000000 0.000000 0.003693 0.000000
# 6 0.000000 0.000000 0.000000 0.000000 0.000000 -8.269561
#
#
# Mechanical properties :
#
#
# Convention : Reuss Voigt Hill
#
# Bulk Modulus (GPa) = 58.86343 86.11833 72.49088
# Shear Modulus (GPa) = -0.61132 79.92572 39.65720
#
# Velocity S-wave (km/s) = -0.54404 6.22068 4.38183
# Velocity P-wave (km/s) = 5.30138 9.65871 7.79087
#
# Compressibility (1/GPa) = 0.01698848
#
# Stress axis : x y z
#
# Youngs Moduli (GPa) = 71.67759 89.94524 189.80319
#
# Poissons Ratio (x) = 0.05985 0.65479
# Poissons Ratio (y) = 0.04770 0.48578
# Poissons Ratio (z) = 0.24728 0.23021
#
# Static dielectric constant tensor:
#      x y z
#    x 1.656070 0.000000 0.000000 
#    y 0.000000 1.690400 0.000000 
#    z 0.000000 0.000000 1.790860 
# 
# From -- ./inp_files/58567.got.cif
#   From: 2010.05.17/outbox.cif.g08.bks.cpg/sg65_30_cif.got.tgz:58567.got - 2010.06.03 17:01:31.
