data_PCOD9482808
_publ_section_title
;
Structure prediction by ZEFSAII (Michael W. Deem and Ramdas Pophale) SiO2 
 PCOD9482808
Probable space group: C M M M
;
_chemical_formula_sum "Si O2"
_cell_formula_units_Z 120
_cell_length_a 25.276254
_cell_length_b 22.969751
_cell_length_c 13.575348
_cell_angle_alpha 90.000000
_cell_angle_beta 90.000000
_cell_angle_gamma 90.000000
_cell_volume 7881.701258
_symmetry_space_group_name_H-M "C M M M"
_symmetry_group_IT_number 65
_symmetry_cell_setting 'orthorhombic'
loop_
_space_group_symop_operation_xyz
x,y,z
-x,-y,z
x,-y,-z
-x,y,-z
-x,-y,-z
x,y,-z
-x,y,z
x,-y,z
1/2+x,1/2+y,z
1/2-x,1/2-y,z
1/2+x,1/2-y,-z
1/2-x,1/2+y,-z
1/2-x,1/2-y,-z
1/2+x,1/2+y,-z
1/2-x,1/2+y,z
1/2+x,1/2-y,z
loop_
_atom_site_type_symbol
_atom_site_label
_atom_site_fract_x
_atom_site_fract_y
_atom_site_fract_z
Si Si1 0.889895 0.430519 0.785152
Si Si2 0.442407 0.320147 0.381076
Si Si3 0.382899 0.434258 0.618010
Si Si4 0.331276 0.267669 0.381881
Si Si5 0.222225 0.120310 0.701872
Si Si6 0.000000 0.429150 0.113717
Si Si7 0.777864 0.569042 0.114716
Si Si8 0.330937 0.869159 0.613639
O O1 0.892719 0.500000 0.766428
O O2 0.945732 0.411753 0.831752
O O3 0.839650 0.421169 0.857623
O O4 0.873686 0.397024 0.686136
O O5 0.444765 0.317000 0.500000
O O6 0.500000 0.303637 0.342067
O O7 0.426702 0.386337 0.355685
O O8 0.391879 0.281885 0.353695
O O9 0.373800 0.428979 0.500000
O O10 0.398820 0.500000 0.639546
O O11 0.328547 0.417389 0.671536
O O12 0.323860 0.279237 0.500000
O O13 0.295063 0.313428 0.323453
O O14 0.323292 0.199585 0.365760
O O15 0.241707 0.106919 0.812198
O O16 0.273414 0.103887 0.636530
O O17 0.000000 0.500000 0.112272
O O18 0.000000 0.409768 0.000000
O O19 0.767614 0.500000 0.132537
O O20 0.769000 0.581175 0.000000
O O21 0.345373 0.876160 0.500000
#
# Coordination Sequence:
#
# PCOD9482808 Si02
#       8
#    16  16  16  16  16   8  16  16
#     4   9  18  31  47  68  90 112 144 186 227 271
#     4   8  14  25  39  55  79 110 143 178 212 246
#     4   9  16  24  36  59  88 114 141 173 212 257
#     4   9  17  29  44  63  86 116 154 187 214 254
#     4  10  17  27  44  62  86 116 150 184 217 253
#     4   9  16  30  53  71  83 107 144 184 228 273
#     4   9  17  29  45  66  91 116 144 182 229 277
#     4  10  19  30  44  64  90 122 153 178 215 265
#
# _framework density 15.225139
#
# number of rings (size 3 to 8) (size 9 to 14) (size 15 to 20)
#    0.000    2.867    0.000    3.200    0.000    3.733 
#    1.200    1.667    0.000    8.400    0.000    0.000 
#    0.000    5.200    0.000   29.333    0.000    0.533 
#
# Total GULP energy -334056.537884 kJ/mol
# GULP energy per Si atom -5567.608965 kJ/mol
# Density = 1.519049 g / cm^3
# Si number density = 15.225139 Si / 1000 Ang^3
#
#
#
# Elastic Constant Matrix: (Units=GPa)
#
#
# Indices 1 2 3 4 5 6 
#
# 1 98.0717 12.4386 39.8268 0.0000 0.0000 0.0000
# 2 12.4386 26.9545 29.9509 0.0000 0.0000 0.0000
# 3 39.8268 29.9509 83.6188 0.0000 0.0000 0.0000
# 4 0.0000 0.0000 0.0000 16.5962 0.0000 0.0000
# 5 0.0000 0.0000 0.0000 0.0000 16.2141 0.0000
# 6 0.0000 0.0000 0.0000 0.0000 0.0000 12.4972
#
#
#
# Elastic Compliance Matrix: (Units=1/GPa)
#
#
# Indices 1 2 3 4 5 6 
#
# 1 0.012675 0.001427 -0.006548 0.000000 0.000000 0.000000
# 2 0.001427 0.061788 -0.022811 0.000000 0.000000 0.000000
# 3 -0.006548 -0.022811 0.023248 0.000000 0.000000 0.000000
# 4 0.000000 0.000000 0.000000 0.060255 0.000000 0.000000
# 5 0.000000 0.000000 0.000000 0.000000 0.061675 0.000000
# 6 0.000000 0.000000 0.000000 0.000000 0.000000 0.080018
#
#
# Mechanical properties :
#
#
# Convention : Reuss Voigt Hill
#
# Bulk Modulus (GPa) = 23.89669 41.45306 32.67487
# Shear Modulus (GPa) = 13.53285 17.49008 15.51146
#
# Velocity S-wave (km/s) = 2.98459 3.39302 3.19534
# Velocity P-wave (km/s) = 5.25420 6.52962 5.92632
#
# Compressibility (1/GPa) = 0.04184679
#
# Stress axis : x y z
#
# Youngs Moduli (GPa) = 78.89689 16.18440 43.01392
#
# Poissons Ratio (x) = -0.02309 0.28165
# Poissons Ratio (y) = -0.11258 0.98119
# Poissons Ratio (z) = 0.51661 0.36918
#
# Static dielectric constant tensor:
#      x y z
#    x 1.519740 0.000000 0.000000 
#    y 0.000000 1.513180 0.000000 
#    z 0.000000 0.000000 1.483170 
# 
# From -- ./inp_files/31327.got.cif
#   From: 2010.05.17/outbox.cif.g08.bks.cpg/sg65_16_cif.got.tgz:31327.got - 2010.06.03 17:01:31.
