data_PCOD9482332
_publ_section_title
;
Structure prediction by ZEFSAII (Michael W. Deem and Ramdas Pophale) SiO2 
 PCOD9482332
Probable space group: C M C A
;
_chemical_formula_sum "Si O2"
_cell_formula_units_Z 64
_cell_length_a 18.239982
_cell_length_b 12.113945
_cell_length_c 12.689696
_cell_angle_alpha 90.000000
_cell_angle_beta 90.000000
_cell_angle_gamma 90.000000
_cell_volume 2803.891609
_symmetry_space_group_name_H-M "C M C A"
_symmetry_group_IT_number 64
_symmetry_cell_setting 'orthorhombic'
loop_
_space_group_symop_operation_xyz
x,y,z
-x,1/2-y,1/2+z
x,-y,-z
-x,1/2+y,1/2-z
-x,-y,-z
x,1/2+y,1/2-z
-x,y,z
x,1/2-y,1/2+z
1/2+x,1/2+y,z
1/2-x,-y,1/2+z
1/2+x,1/2-y,-z
1/2-x,y,1/2-z
1/2-x,1/2-y,-z
1/2+x,y,1/2-z
1/2-x,1/2+y,z
1/2+x,-y,1/2+z
loop_
_atom_site_type_symbol
_atom_site_label
_atom_site_fract_x
_atom_site_fract_y
_atom_site_fract_z
Si Si1 0.822043 0.175324 0.931780
Si Si2 0.082884 0.190213 0.752325
Si Si3 0.297387 0.836924 0.659368
Si Si4 0.415709 0.117725 0.983485
O O1 0.871635 0.124006 0.840390
O O2 0.749790 0.226166 0.875485
O O3 0.809107 0.114644 0.042865
O O4 0.870870 0.282447 0.966245
O O5 0.128838 0.299203 0.718488
O O6 0.080130 0.129239 0.641628
O O7 0.000000 0.212179 0.786806
O O8 0.250000 0.895866 0.750000
O O9 0.500000 0.117379 0.023517
O O10 0.379158 0.000000 0.000000
#
# Coordination Sequence:
#
# PCOD9482332 Si02
#       4
#    16  16  16  16
#     4   9  15  26  45  65  88 123 162 196 237 288
#     4   9  16  26  43  67  92 122 162 202 241 289
#     4   8  15  26  42  63  89 116 153 196 238 280
#     4   9  17  28  43  68  99 125 156 205 258 301
#
# _framework density 22.825419
#
# number of rings (size 3 to 8) (size 9 to 14) (size 15 to 20)
#    0.000    3.250    0.000    0.750    0.000    1.000 
#    0.000    0.000    0.000   45.000    0.000    8.750 
#    0.000   65.000    0.000    0.000    0.000    0.000 
#
# Total GULP energy -178253.756640 kJ/mol
# GULP energy per Si atom -5570.429895 kJ/mol
# Density = 2.277347 g / cm^3
# Si number density = 22.825419 Si / 1000 Ang^3
#
#
#
# Elastic Constant Matrix: (Units=GPa)
#
#
# Indices 1 2 3 4 5 6 
#
# 1 111.3660 -6.3340 15.3253 0.0000 0.0000 0.0000
# 2 -6.3340 32.5324 1.9128 0.0000 0.0000 0.0000
# 3 15.3253 1.9128 123.0996 0.0000 0.0000 0.0000
# 4 0.0000 0.0000 0.0000 5.7826 0.0000 0.0000
# 5 0.0000 0.0000 0.0000 0.0000 46.2069 0.0000
# 6 0.0000 0.0000 0.0000 0.0000 0.0000 1.6726
#
#
#
# Elastic Compliance Matrix: (Units=1/GPa)
#
#
# Indices 1 2 3 4 5 6 
#
# 1 0.009248 0.001870 -0.001180 0.000000 0.000000 0.000000
# 2 0.001870 0.031145 -0.000717 0.000000 0.000000 0.000000
# 3 -0.001180 -0.000717 0.008282 0.000000 0.000000 0.000000
# 4 0.000000 0.000000 0.000000 0.172933 0.000000 0.000000
# 5 0.000000 0.000000 0.000000 0.000000 0.021642 0.000000
# 6 0.000000 0.000000 0.000000 0.000000 0.000000 0.597876
#
#
# Mechanical properties :
#
#
# Convention : Reuss Voigt Hill
#
# Bulk Modulus (GPa) = 20.56755 32.08958 26.32857
# Shear Modulus (GPa) = 5.83168 27.80535 16.81852
#
# Velocity S-wave (km/s) = 1.60014 3.49402 2.71741
# Velocity P-wave (km/s) = 3.52765 5.51061 4.62661
#
# Compressibility (1/GPa) = 0.04862027
#
# Stress axis : x y z
#
# Youngs Moduli (GPa) = 108.12914 32.10811 120.74970
#
# Poissons Ratio (x) = -0.06004 0.14253
# Poissons Ratio (y) = -0.20220 0.08655
# Poissons Ratio (z) = 0.12764 0.02301
#
# Static dielectric constant tensor:
#      x y z
#    x 1.904270 0.000000 0.000000 
#    y 0.000000 1.865390 0.000000 
#    z 0.000000 0.000000 1.915220 
# 
# From -- ./inp_files/15861.got.cif
#   From: 2010.05.17/outbox.cif.g08.bks.cpg/sg64_8_cif.got.tgz:15861.got - 2010.06.03 16:29:19.
