data_PCOD9482074
_publ_section_title
;
Structure prediction by ZEFSAII (Michael W. Deem and Ramdas Pophale) SiO2 
 PCOD9482074
Probable space group: C M C A
;
_chemical_formula_sum "Si O2"
_cell_formula_units_Z 88
_cell_length_a 19.591945
_cell_length_b 23.769863
_cell_length_c 9.430796
_cell_angle_alpha 90.000000
_cell_angle_beta 90.000000
_cell_angle_gamma 90.000000
_cell_volume 4391.901407
_symmetry_space_group_name_H-M "C M C A"
_symmetry_group_IT_number 64
_symmetry_cell_setting 'orthorhombic'
loop_
_space_group_symop_operation_xyz
x,y,z
-x,1/2-y,1/2+z
x,-y,-z
-x,1/2+y,1/2-z
-x,-y,-z
x,1/2+y,1/2-z
-x,y,z
x,1/2-y,1/2+z
1/2+x,1/2+y,z
1/2-x,-y,1/2+z
1/2+x,1/2-y,-z
1/2-x,y,1/2-z
1/2-x,1/2-y,-z
1/2+x,y,1/2-z
1/2-x,1/2+y,z
1/2+x,-y,1/2+z
loop_
_atom_site_type_symbol
_atom_site_label
_atom_site_fract_x
_atom_site_fract_y
_atom_site_fract_z
Si Si1 0.220399 0.000000 0.500000
Si Si2 0.275874 0.303010 0.589223
Si Si3 0.880003 0.956223 0.735821
Si Si4 0.923402 0.144057 0.447921
Si Si5 0.813814 0.905879 0.020084
Si Si6 0.076765 0.085389 0.753803
O O1 0.177264 0.967151 0.616456
O O2 0.266749 0.955262 0.419309
O O3 0.250000 0.296270 0.750000
O O4 0.250000 0.250000 0.500000
O O5 0.357316 0.316333 0.579090
O O6 0.235074 0.356228 0.527323
O O7 0.922931 0.905304 0.669601
O O8 0.849940 0.933610 0.882988
O O9 0.914708 0.017375 0.750699
O O10 0.913520 0.112177 0.598663
O O11 0.000000 0.170156 0.449165
O O12 0.869093 0.890070 0.136511
O O13 0.000000 0.097996 0.800448
#
# Coordination Sequence:
#
# PCOD9482074 Si02
#       6
#     8  16  16  16  16  16
#     4  12  20  34  66  96 130 174 224 274 332 408
#     4  12  27  50  74 100 127 174 236 288 337 398
#     4  12  20  38  63  96 140 183 219 266 330 409
#     4  11  24  44  70  99 138 178 221 275 339 406
#     4  12  24  39  65  98 140 174 224 283 334 399
#     4  11  24  39  62 104 144 183 221 266 336 408
#
# _framework density 20.036878000000002
#
# number of rings (size 3 to 8) (size 9 to 14) (size 15 to 20)
#    0.000    0.364    7.273    1.091    2.545    5.091 
#    0.000    1.818    0.000    0.000    0.000    0.000 
#    0.000    0.000    0.000    0.000    0.000    0.000 
#
# Total GULP energy -245922.727709 kJ/mol
# GULP energy per Si atom -5589.152902 kJ/mol
# Density = 1.999127 g / cm^3
# Si number density = 20.036878 Si / 1000 Ang^3
#
#
#
# Elastic Constant Matrix: (Units=GPa)
#
#
# Indices 1 2 3 4 5 6 
#
# 1 161.5485 48.0618 62.3517 0.0000 0.0000 0.0000
# 2 48.0618 82.8413 26.2619 0.0000 0.0000 0.0000
# 3 62.3517 26.2619 81.9645 0.0000 0.0000 0.0000
# 4 0.0000 0.0000 0.0000 25.7082 0.0000 0.0000
# 5 0.0000 0.0000 0.0000 0.0000 25.0241 0.0000
# 6 0.0000 0.0000 0.0000 0.0000 0.0000 12.5468
#
#
#
# Elastic Compliance Matrix: (Units=1/GPa)
#
#
# Indices 1 2 3 4 5 6 
#
# 1 0.009660 -0.003645 -0.006181 0.000000 0.000000 0.000000
# 2 -0.003645 0.014811 -0.001973 0.000000 0.000000 0.000000
# 3 -0.006181 -0.001973 0.017534 0.000000 0.000000 0.000000
# 4 0.000000 0.000000 0.000000 0.038898 0.000000 0.000000
# 5 0.000000 0.000000 0.000000 0.000000 0.039961 0.000000
# 6 0.000000 0.000000 0.000000 0.000000 0.000000 0.079701
#
#
# Mechanical properties :
#
#
# Convention : Reuss Voigt Hill
#
# Bulk Modulus (GPa) = 54.32228 66.63390 60.47809
# Shear Modulus (GPa) = 21.71084 25.30110 23.50597
#
# Velocity S-wave (km/s) = 3.29529 3.55734 3.42882
# Velocity P-wave (km/s) = 6.45357 7.08525 6.77677
#
# Compressibility (1/GPa) = 0.01840865
#
# Stress axis : x y z
#
# Youngs Moduli (GPa) = 103.51938 67.51538 57.03141
#
# Poissons Ratio (x) = 0.24610 0.35249
# Poissons Ratio (y) = 0.37734 0.11251
# Poissons Ratio (z) = 0.63982 0.13319
#
# Static dielectric constant tensor:
#      x y z
#    x 1.779190 0.000000 0.000000 
#    y 0.000000 1.718830 0.000000 
#    z 0.000000 0.000000 1.687400 
# 
# From -- ./inp_files/8240.got.cif
#   From: 2010.05.17/outbox.cif.g08.bks.cpg/sg64_5_cif.got.tgz:8240.got - 2010.06.03 16:29:19.
