data_PCOD9482626
_publ_section_title
;
Structure prediction by ZEFSAII (Michael W. Deem and Ramdas Pophale) SiO2 
 PCOD9482626
Probable space group: C M M M
;
_chemical_formula_sum "Si O2"
_cell_formula_units_Z 80
_cell_length_a 18.378536
_cell_length_b 8.542996
_cell_length_c 27.004483
_cell_angle_alpha 90.000000
_cell_angle_beta 90.000000
_cell_angle_gamma 90.000000
_cell_volume 4239.913373
_symmetry_space_group_name_H-M "C M M M"
_symmetry_group_IT_number 65
_symmetry_cell_setting 'orthorhombic'
loop_
_space_group_symop_operation_xyz
x,y,z
-x,-y,z
x,-y,-z
-x,y,-z
-x,-y,-z
x,y,-z
-x,y,z
x,-y,z
1/2+x,1/2+y,z
1/2-x,1/2-y,z
1/2+x,1/2-y,-z
1/2-x,1/2+y,-z
1/2-x,1/2-y,-z
1/2+x,1/2+y,-z
1/2-x,1/2+y,z
1/2+x,1/2-y,z
loop_
_atom_site_type_symbol
_atom_site_label
_atom_site_fract_x
_atom_site_fract_y
_atom_site_fract_z
Si Si1 0.832561 0.188287 0.793793
Si Si2 0.833258 0.686677 0.897506
Si Si3 0.833435 0.813393 0.000000
Si Si4 0.168077 0.188123 0.596126
Si Si5 0.916614 0.190753 0.694791
Si Si6 0.084612 0.687827 0.500000
O O1 0.750000 0.250000 0.788416
O O2 0.864397 0.253096 0.845474
O O3 0.878329 0.238041 0.745908
O O4 0.830560 0.000000 0.796466
O O5 0.832002 0.500000 0.898823
O O6 0.750000 0.750000 0.896692
O O7 0.866663 0.751548 0.948545
O O8 0.750000 0.750000 0.000000
O O9 0.831601 0.000000 0.000000
O O10 0.250000 0.250000 0.594612
O O11 0.128638 0.241053 0.646716
O O12 0.124162 0.248198 0.548711
O O13 0.168949 0.000000 0.595367
O O14 0.000000 0.243664 0.692057
O O15 0.917016 0.000000 0.694506
O O16 0.088718 0.500000 0.500000
O O17 0.000000 0.735046 0.500000
#
# Coordination Sequence:
#
# PCOD9482626 Si02
#       6
#    16  16   8  16  16   8
#     4  10  18  30  49  72 100 132 168 211 257 308
#     4  10  17  26  40  62  94 129 166 206 253 307
#     4  10  16  24  38  60  91 126 165 206 255 307
#     4  11  22  38  61  86 114 147 185 226 270 321
#     4   9  19  35  55  79 105 136 176 220 265 315
#     4  11  24  41  60  85 117 149 184 227 272 319
#
# _framework density 18.868310000000001
#
# number of rings (size 3 to 8) (size 9 to 14) (size 15 to 20)
#    0.000    1.900    0.000    8.100    0.000    1.600 
#    0.000    3.000    0.000    7.200    0.000    0.700 
#    0.000    5.600    0.000    0.000    0.000    0.000 
#
# Total GULP energy -223313.735673 kJ/mol
# GULP energy per Si atom -5582.843392 kJ/mol
# Density = 1.882536 g / cm^3
# Si number density = 18.868310 Si / 1000 Ang^3
#
#
#
# Elastic Constant Matrix: (Units=GPa)
#
#
# Indices 1 2 3 4 5 6 
#
# 1 110.6032 32.2449 92.2313 0.0000 0.0000 0.0000
# 2 32.2449 100.5504 60.6460 0.0000 0.0000 0.0000
# 3 92.2313 60.6460 240.2707 0.0000 0.0000 0.0000
# 4 0.0000 0.0000 0.0000 58.9509 0.0000 0.0000
# 5 0.0000 0.0000 0.0000 0.0000 -6.5477 0.0000
# 6 0.0000 0.0000 0.0000 0.0000 0.0000 7.3470
#
#
#
# Elastic Compliance Matrix: (Units=1/GPa)
#
#
# Indices 1 2 3 4 5 6 
#
# 1 0.013467 -0.001416 -0.004812 0.000000 0.000000 0.000000
# 2 -0.001416 0.011880 -0.002455 0.000000 0.000000 0.000000
# 3 -0.004812 -0.002455 0.006629 0.000000 0.000000 0.000000
# 4 0.000000 0.000000 0.000000 0.016963 0.000000 0.000000
# 5 0.000000 0.000000 0.000000 0.000000 -0.152725 0.000000
# 6 0.000000 0.000000 0.000000 0.000000 0.000000 0.136109
#
#
# Mechanical properties :
#
#
# Convention : Reuss Voigt Hill
#
# Bulk Modulus (GPa) = 68.44952 91.29651 79.87302
# Shear Modulus (GPa) = 91.64349 29.70351 60.67350
#
# Velocity S-wave (km/s) = 6.97678 3.97199 5.67680
# Velocity P-wave (km/s) = 10.06265 8.33827 9.24077
#
# Compressibility (1/GPa) = 0.01460931
#
# Stress axis : x y z
#
# Youngs Moduli (GPa) = 74.25601 84.17408 150.85768
#
# Poissons Ratio (x) = 0.11922 0.72592
# Poissons Ratio (y) = 0.10517 0.37035
# Poissons Ratio (z) = 0.35732 0.20664
#
# Static dielectric constant tensor:
#      x y z
#    x 1.623370 0.000000 0.000000 
#    y 0.000000 1.633330 0.000000 
#    z 0.000000 0.000000 1.687490 
# 
# From -- ./inp_files/75063.got.cif
#   From: 2010.05.17/outbox.cif.g08.bks.cpg/sg65_38_cif.got.tgz:75063.got - 2010.06.03 17:01:31.
