data_PCOD9482552
_publ_section_title
;
Structure prediction by ZEFSAII (Michael W. Deem and Ramdas Pophale) SiO2 
 PCOD9482552
Probable space group: C M M M
;
_chemical_formula_sum "Si O2"
_cell_formula_units_Z 80
_cell_length_a 14.961929
_cell_length_b 8.670544
_cell_length_c 28.075786
_cell_angle_alpha 90.000000
_cell_angle_beta 90.000000
_cell_angle_gamma 90.000000
_cell_volume 3642.217355
_symmetry_space_group_name_H-M "C M M M"
_symmetry_group_IT_number 65
_symmetry_cell_setting 'orthorhombic'
loop_
_space_group_symop_operation_xyz
x,y,z
-x,-y,z
x,-y,-z
-x,y,-z
-x,-y,-z
x,y,-z
-x,y,z
x,-y,z
1/2+x,1/2+y,z
1/2-x,1/2-y,z
1/2+x,1/2-y,-z
1/2-x,1/2+y,-z
1/2-x,1/2-y,-z
1/2+x,1/2+y,-z
1/2-x,1/2+y,z
1/2+x,1/2-y,z
loop_
_atom_site_type_symbol
_atom_site_label
_atom_site_fract_x
_atom_site_fract_y
_atom_site_fract_z
Si Si1 0.147976 0.184606 0.597995
Si Si2 0.352024 0.186101 0.304252
Si Si3 0.352049 0.184839 0.500000
Si Si4 0.109718 0.825340 0.000000
Si Si5 0.349933 0.813033 0.798951
Si Si6 0.893894 0.671925 0.902881
O O1 0.250000 0.250000 0.598762
O O2 0.107329 0.242746 0.647822
O O3 0.107654 0.251929 0.549263
O O4 0.149630 0.000000 0.596292
O O5 0.250000 0.250000 0.302778
O O6 0.391994 0.228853 0.252399
O O7 0.350657 0.000000 0.308468
O O8 0.250000 0.250000 0.500000
O O9 0.350701 0.000000 0.500000
O O10 0.140457 0.751826 0.049577
O O11 0.000000 0.820619 0.000000
O O12 0.138287 0.000000 0.000000
O O13 0.250000 0.750000 0.797006
O O14 0.383691 0.756279 0.850326
O O15 0.353631 0.000000 0.799970
O O16 0.854611 0.500000 0.901127
O O17 0.000000 0.659624 0.909589
#
# Coordination Sequence:
#
# PCOD9482552 Si02
#       6
#    16  16   8   8  16  16
#     4  10  16  22  31  45  65  92 128 166 204 245
#     4   9  15  24  36  51  72  99 132 166 202 245
#     4  10  16  22  30  42  62  90 125 166 209 246
#     4   9  17  29  46  69  92 113 141 177 216 257
#     4   9  18  30  45  65  88 115 146 180 216 256
#     4   9  17  31  50  69  89 115 146 178 214 257
#
# _framework density 21.964642000000001
#
# number of rings (size 3 to 8) (size 9 to 14) (size 15 to 20)
#    0.000    2.700    0.000    6.000    0.000    2.800 
#    0.000    0.500    0.000    0.000    0.000    0.000 
#    0.000    0.000    0.000    0.900    0.000   22.200 
#
# Total GULP energy -222827.403722 kJ/mol
# GULP energy per Si atom -5570.685093 kJ/mol
# Density = 2.191465 g / cm^3
# Si number density = 21.964642 Si / 1000 Ang^3
#
#
#
# Elastic Constant Matrix: (Units=GPa)
#
#
# Indices 1 2 3 4 5 6 
#
# 1 43.1137 3.3972 16.3849 0.0000 0.0000 0.0000
# 2 3.3972 113.6735 93.2215 0.0000 0.0000 0.0000
# 3 16.3849 93.2215 310.3664 0.0000 0.0000 0.0000
# 4 0.0000 0.0000 0.0000 17.3893 0.0000 0.0000
# 5 0.0000 0.0000 0.0000 0.0000 20.7815 0.0000
# 6 0.0000 0.0000 0.0000 0.0000 0.0000 -3.1694
#
#
#
# Elastic Compliance Matrix: (Units=1/GPa)
#
#
# Indices 1 2 3 4 5 6 
#
# 1 0.023685 0.000421 -0.001377 0.000000 0.000000 0.000000
# 2 0.000421 0.011680 -0.003530 0.000000 0.000000 0.000000
# 3 -0.001377 -0.003530 0.004355 0.000000 0.000000 0.000000
# 4 0.000000 0.000000 0.000000 0.057507 0.000000 0.000000
# 5 0.000000 0.000000 0.000000 0.000000 0.048120 0.000000
# 6 0.000000 0.000000 0.000000 0.000000 0.000000 -0.315513
#
#
# Mechanical properties :
#
#
# Convention : Reuss Voigt Hill
#
# Bulk Modulus (GPa) = 32.52294 77.01786 54.77040
# Shear Modulus (GPa) = -33.12445 30.61027 -1.25709
#
# Velocity S-wave (km/s) = -3.88761 3.73717 -0.75734
# Velocity P-wave (km/s) = 2.30484 7.33229 4.92190
#
# Compressibility (1/GPa) = 0.03074753
#
# Stress axis : x y z
#
# Youngs Moduli (GPa) = 42.22157 85.61851 229.61765
#
# Poissons Ratio (x) = -0.03608 0.31616
# Poissons Ratio (y) = -0.01779 0.81063
# Poissons Ratio (z) = 0.05814 0.30226
#
# Static dielectric constant tensor:
#      x y z
#    x 1.842590 0.000000 0.000000 
#    y 0.000000 1.760720 0.000000 
#    z 0.000000 0.000000 1.927790 
# 
# From -- ./inp_files/75297.got.cif
#   From: 2010.05.17/outbox.cif.g08.bks.cpg/sg65_38_cif.got.tgz:75297.got - 2010.06.03 17:01:31.
