data_PCOD9482011
_publ_section_title
;
Structure prediction by ZEFSAII (Michael W. Deem and Ramdas Pophale) SiO2 
 PCOD9482011
Probable space group: C M C A
;
_chemical_formula_sum "Si O2"
_cell_formula_units_Z 80
_cell_length_a 23.473234
_cell_length_b 8.856090
_cell_length_c 18.663418
_cell_angle_alpha 90.000000
_cell_angle_beta 90.000000
_cell_angle_gamma 90.000000
_cell_volume 3879.771358
_symmetry_space_group_name_H-M "C M C A"
_symmetry_group_IT_number 64
_symmetry_cell_setting 'orthorhombic'
loop_
_space_group_symop_operation_xyz
x,y,z
-x,1/2-y,1/2+z
x,-y,-z
-x,1/2+y,1/2-z
-x,-y,-z
x,1/2+y,1/2-z
-x,y,z
x,1/2-y,1/2+z
1/2+x,1/2+y,z
1/2-x,-y,1/2+z
1/2+x,1/2-y,-z
1/2-x,y,1/2-z
1/2-x,1/2-y,-z
1/2+x,y,1/2-z
1/2-x,1/2+y,z
1/2+x,-y,1/2+z
loop_
_atom_site_type_symbol
_atom_site_label
_atom_site_fract_x
_atom_site_fract_y
_atom_site_fract_z
Si Si1 0.671658 0.297492 0.616604
Si Si2 0.852010 0.842591 0.972496
Si Si3 0.284990 0.373037 0.365606
Si Si4 0.121678 0.331684 0.253938
Si Si5 0.566463 0.603693 0.155999
O O1 0.639076 0.253466 0.544441
O O2 0.702790 0.457054 0.610024
O O3 0.719027 0.170768 0.635750
O O4 0.631173 0.294702 0.685042
O O5 0.811619 0.744356 0.921981
O O6 0.905621 0.884326 0.922781
O O7 0.825985 0.000000 0.000000
O O8 0.319906 0.354210 0.291333
O O9 0.078052 0.262553 0.196297
O O10 0.099411 0.475758 0.298003
O O11 0.500000 0.569358 0.152872
#
# Coordination Sequence:
#
# PCOD9482011 Si02
#       5
#    16  16  16  16  16
#     4  12  23  41  63  98 135 174 213 260 330 386
#     4  11  23  42  65  96 131 171 218 263 318 389
#     4  11  25  39  68  94 138 175 213 259 323 396
#     4  11  23  42  68  96 130 168 218 274 321 390
#     4  11  24  45  69  95 126 170 223 275 330 380
#
# _framework density 20.619771
#
# number of rings (size 3 to 8) (size 9 to 14) (size 15 to 20)
#    0.000    0.800    4.000    3.600    2.800    2.000 
#    0.000    0.000    0.000    2.400    0.000    0.000 
#    0.000    0.000    0.000    0.000    0.000    0.000 
#
# Total GULP energy -223473.094150 kJ/mol
# GULP energy per Si atom -5586.827354 kJ/mol
# Density = 2.057284 g / cm^3
# Si number density = 20.619771 Si / 1000 Ang^3
#
#
#
# Elastic Constant Matrix: (Units=GPa)
#
#
# Indices 1 2 3 4 5 6 
#
# 1 74.1672 16.8103 51.3047 0.0000 0.0000 0.0000
# 2 16.8103 97.4766 50.0065 0.0000 0.0000 0.0000
# 3 51.3047 50.0065 162.0810 0.0000 0.0000 0.0000
# 4 0.0000 0.0000 0.0000 33.6359 0.0000 0.0000
# 5 0.0000 0.0000 0.0000 0.0000 14.7237 0.0000
# 6 0.0000 0.0000 0.0000 0.0000 0.0000 18.1064
#
#
#
# Elastic Compliance Matrix: (Units=1/GPa)
#
#
# Indices 1 2 3 4 5 6 
#
# 1 0.017266 -0.000207 -0.005402 0.000000 0.000000 0.000000
# 2 -0.000207 0.012190 -0.003696 0.000000 0.000000 0.000000
# 3 -0.005402 -0.003696 0.009020 0.000000 0.000000 0.000000
# 4 0.000000 0.000000 0.000000 0.029730 0.000000 0.000000
# 5 0.000000 0.000000 0.000000 0.000000 0.067918 0.000000
# 6 0.000000 0.000000 0.000000 0.000000 0.000000 0.055229
#
#
# Mechanical properties :
#
#
# Convention : Reuss Voigt Hill
#
# Bulk Modulus (GPa) = 50.33031 63.32977 56.83004
# Shear Modulus (GPa) = 23.08568 27.66676 25.37622
#
# Velocity S-wave (km/s) = 3.34966 3.66698 3.51190
# Velocity P-wave (km/s) = 6.27870 6.97917 6.63818
#
# Compressibility (1/GPa) = 0.01986874
#
# Stress axis : x y z
#
# Youngs Moduli (GPa) = 57.91563 82.03155 110.86657
#
# Poissons Ratio (x) = 0.01694 0.59888
# Poissons Ratio (y) = 0.01196 0.40973
# Poissons Ratio (z) = 0.31285 0.30317
#
# Static dielectric constant tensor:
#      x y z
#    x 1.701480 0.000000 0.000000 
#    y 0.000000 1.761780 0.000000 
#    z 0.000000 0.000000 1.748940 
# 
# From -- ./inp_files/35328.got.cif
#   From: 2010.05.17/outbox.cif.g08.bks.cpg/sg64_18_cif.got.tgz:35328.got - 2010.06.03 16:29:19.
