data_PCOD9482631
_publ_section_title
;
Structure prediction by ZEFSAII (Michael W. Deem and Ramdas Pophale) SiO2 
 PCOD9482631
Probable space group: C M M M
;
_chemical_formula_sum "Si O2"
_cell_formula_units_Z 72
_cell_length_a 8.583949
_cell_length_b 18.876196
_cell_length_c 24.253062
_cell_angle_alpha 90.000000
_cell_angle_beta 90.000000
_cell_angle_gamma 90.000000
_cell_volume 3929.779510
_symmetry_space_group_name_H-M "C M M M"
_symmetry_group_IT_number 65
_symmetry_cell_setting 'orthorhombic'
loop_
_space_group_symop_operation_xyz
x,y,z
-x,-y,z
x,-y,-z
-x,y,-z
-x,-y,-z
x,y,-z
-x,y,z
x,-y,z
1/2+x,1/2+y,z
1/2-x,1/2-y,z
1/2+x,1/2-y,-z
1/2-x,1/2+y,-z
1/2-x,1/2-y,-z
1/2+x,1/2+y,-z
1/2-x,1/2+y,z
1/2+x,1/2-y,z
loop_
_atom_site_type_symbol
_atom_site_label
_atom_site_fract_x
_atom_site_fract_y
_atom_site_fract_z
Si Si1 0.185502 0.170007 0.771044
Si Si2 0.811976 0.671053 0.562084
Si Si3 0.314104 0.668916 0.000000
Si Si4 0.185918 0.330815 0.113796
Si Si5 0.688448 0.082547 0.331798
O O1 0.250000 0.250000 0.763921
O O2 0.255229 0.139064 0.828112
O O3 0.237014 0.123980 0.719087
O O4 0.000000 0.173618 0.775825
O O5 0.762075 0.650341 0.500000
O O6 0.750000 0.750000 0.572877
O O7 0.762674 0.618703 0.610641
O O8 0.000000 0.673236 0.562321
O O9 0.250000 0.750000 0.000000
O O10 0.251976 0.636503 0.942787
O O11 0.500000 0.670905 0.000000
O O12 0.500000 0.170455 0.111859
O O13 0.250000 0.250000 0.114834
O O14 0.500000 0.088419 0.327691
O O15 0.729382 0.000000 0.330860
#
# Coordination Sequence:
#
# PCOD9482631 Si02
#       5
#    16  16   8  16  16
#     4  11  21  34  52  74 101 134 174 217 262 311
#     4   9  18  33  54  79 105 135 171 210 253 303
#     4  10  16  24  38  62  97 132 165 204 255 308
#     4  10  17  27  43  66  96 130 168 209 257 308
#     4  10  21  36  53  75 104 137 173 214 260 308
#
# _framework density 18.321638
#
# number of rings (size 3 to 8) (size 9 to 14) (size 15 to 20)
#    0.000    2.000    0.000    8.333    0.000    3.556 
#    0.000    2.222    0.000    0.000    0.000    5.444 
#    0.000    6.222    0.000    0.000    0.000    0.000 
#
# Total GULP energy -200867.049296 kJ/mol
# GULP energy per Si atom -5579.640258 kJ/mol
# Density = 1.827994 g / cm^3
# Si number density = 18.321638 Si / 1000 Ang^3
#
#
#
# Elastic Constant Matrix: (Units=GPa)
#
#
# Indices 1 2 3 4 5 6 
#
# 1 116.8719 37.4798 72.0612 0.0000 0.0000 0.0000
# 2 37.4798 60.2927 81.2694 0.0000 0.0000 0.0000
# 3 72.0612 81.2694 204.1037 0.0000 0.0000 0.0000
# 4 0.0000 0.0000 0.0000 -4.6209 0.0000 0.0000
# 5 0.0000 0.0000 0.0000 0.0000 29.0633 0.0000
# 6 0.0000 0.0000 0.0000 0.0000 0.0000 16.6258
#
#
#
# Elastic Compliance Matrix: (Units=1/GPa)
#
#
# Indices 1 2 3 4 5 6 
#
# 1 0.011278 -0.003548 -0.002569 0.000000 0.000000 0.000000
# 2 -0.003548 0.036916 -0.013446 0.000000 0.000000 0.000000
# 3 -0.002569 -0.013446 0.011161 0.000000 0.000000 0.000000
# 4 0.000000 0.000000 0.000000 -0.216407 0.000000 0.000000
# 5 0.000000 0.000000 0.000000 0.000000 0.034408 0.000000
# 6 0.000000 0.000000 0.000000 0.000000 0.000000 0.060147
#
#
# Mechanical properties :
#
#
# Convention : Reuss Voigt Hill
#
# Bulk Modulus (GPa) = 49.43696 84.76546 67.10121
# Shear Modulus (GPa) = -300.71218 20.91083 -139.90068
#
# Velocity S-wave (km/s) = -12.82520 3.38201 -8.74780
# Velocity P-wave (km/s) = 13.86626 7.84960 8.08260
#
# Compressibility (1/GPa) = 0.02022778
#
# Stress axis : x y z
#
# Youngs Moduli (GPa) = 88.66590 27.08867 89.60037
#
# Poissons Ratio (x) = 0.09610 0.23021
# Poissons Ratio (y) = 0.31456 1.20481
# Poissons Ratio (z) = 0.22781 0.36425
#
# Static dielectric constant tensor:
#      x y z
#    x 1.616130 0.000000 0.000000 
#    y 0.000000 1.590250 0.000000 
#    z 0.000000 0.000000 1.686690 
# 
# From -- ./inp_files/67021.got.cif
#   From: 2010.05.17/outbox.cif.g08.bks.cpg/sg65_34_cif.got.tgz:67021.got - 2010.06.03 17:01:31.
