data_PCOD9482525
_publ_section_title
;
Structure prediction by ZEFSAII (Michael W. Deem and Ramdas Pophale) SiO2 
 PCOD9482525
Probable space group: C M C A
;
_chemical_formula_sum "Si O2"
_cell_formula_units_Z 32
_cell_length_a 24.000000
_cell_length_b 9.000000
_cell_length_c 15.000000
_cell_angle_alpha 90.000000
_cell_angle_beta 90.000000
_cell_angle_gamma 90.000000
_cell_volume 3240.000000
_symmetry_space_group_name_H-M "C M C A"
_symmetry_group_IT_number 64
_symmetry_cell_setting 'orthorhombic'
loop_
_space_group_symop_operation_xyz
x,y,z
-x,1/2-y,1/2+z
x,-y,-z
-x,1/2+y,1/2-z
-x,-y,-z
x,1/2+y,1/2-z
-x,y,z
x,1/2-y,1/2+z
1/2+x,1/2+y,z
1/2-x,-y,1/2+z
1/2+x,1/2-y,-z
1/2-x,y,1/2-z
1/2-x,1/2-y,-z
1/2+x,y,1/2-z
1/2-x,1/2+y,z
1/2+x,-y,1/2+z
loop_
_atom_site_type_symbol
_atom_site_label
_atom_site_fract_x
_atom_site_fract_y
_atom_site_fract_z
Si Si1 0.125102 0.828834 0.035781
Si Si2 0.500000 0.031280 0.805234
Si Si3 0.500000 0.305953 0.122290
Si Si4 0.185212 0.170981 0.296062
Si Si5 0.874917 0.140464 0.646329
O O1 0.059658 0.819329 0.069539
O O2 0.167644 0.777070 0.117122
O O3 0.132262 0.712962 0.952521
O O4 0.134631 0.000000 0.000000
O O5 0.500000 0.856976 0.830867
O O6 0.500000 0.069127 0.699870
O O7 0.559173 0.098606 0.841422
O O8 0.250000 0.169989 0.250000
O O9 0.145636 0.235162 0.217380
O O10 0.162962 0.006909 0.328796
#
# Coordination Sequence:
#
# PCOD9482525 Si02
#       5
#    16   8   8  16  16
#     4  12  27  47  78 117 156 200 255 319 387 461
#     4  12  23  43  79 112 159 198 243 310 396 454
#     4  12  26  45  76 119 159 203 247 317 394 464
#     4  12  27  50  76 108 151 205 260 314 375 451
#     4  12  25  47  78 110 155 199 253 321 386 452
#
# _framework density 9.8765429999999999
#
# number of rings (size 3 to 8) (size 9 to 14) (size 15 to 20)
#    0.000    0.000    5.000    4.125    3.500    2.000 
#    0.000    3.750    0.000    0.000    0.000    0.000 
#    0.000    0.000    0.000    0.000    0.000    0.000 
#
# Total GULP energy -178670.976877 kJ/mol
# GULP energy per Si atom -5583.468027 kJ/mol
# Density = 0.985406 g / cm^3
# Si number density = 9.876543 Si / 1000 Ang^3
#
#
#
# Elastic Constant Matrix: (Units=GPa)
#
#
# Indices 1 2 3 4 5 6 
#
# 1 158.2679 44.6266 49.6093 0.0000 0.0000 0.0000
# 2 44.6266 143.2843 57.4216 0.0000 0.0000 0.0000
# 3 49.6093 57.4216 168.9445 0.0000 0.0000 0.0000
# 4 0.0000 0.0000 0.0000 58.7094 0.0000 0.0000
# 5 0.0000 0.0000 0.0000 0.0000 48.5651 0.0000
# 6 0.0000 0.0000 0.0000 0.0000 0.0000 39.8817
#
#
#
# Elastic Compliance Matrix: (Units=1/GPa)
#
#
# Indices 1 2 3 4 5 6 
#
# 1 0.007274 -0.001632 -0.001581 0.000000 0.000000 0.000000
# 2 -0.001632 0.008446 -0.002391 0.000000 0.000000 0.000000
# 3 -0.001581 -0.002391 0.007196 0.000000 0.000000 0.000000
# 4 0.000000 0.000000 0.000000 0.017033 0.000000 0.000000
# 5 0.000000 0.000000 0.000000 0.000000 0.020591 0.000000
# 6 0.000000 0.000000 0.000000 0.000000 0.000000 0.025074
#
#
# Mechanical properties :
#
#
# Convention : Reuss Voigt Hill
#
# Bulk Modulus (GPa) = 85.41918 85.97907 85.69912
# Shear Modulus (GPa) = 49.63967 50.68719 50.16343
#
# Velocity S-wave (km/s) = 5.01843 5.07110 5.04484
# Velocity P-wave (km/s) = 8.77023 8.82664 8.79848
#
# Compressibility (1/GPa) = 0.01170697
#
# Stress axis : x y z
#
# Youngs Moduli (GPa) = 137.47188 118.40294 138.96107
#
# Poissons Ratio (x) = 0.19322 0.21975
# Poissons Ratio (y) = 0.22433 0.33231
# Poissons Ratio (z) = 0.21740 0.28315
#
# Static dielectric constant tensor:
#      x y z
#    x 1.718540 0.000000 0.000000 
#    y 0.000000 1.731010 0.000000 
#    z 0.000000 0.000000 1.724020 
# 
# From -- ./inp_files/26941.got.cif
#   From: 2010.05.17/outbox.ucp.g08.bks.cvg/sg64_14_cif.got.tgz:26941.got - 2010.06.11 16:36:46.
