data_PCOD9482947
_publ_section_title
;
Structure prediction by ZEFSAII (Michael W. Deem and Ramdas Pophale) SiO2 
 PCOD9482947
Probable space group: C M M M
;
_chemical_formula_sum "Si O2"
_cell_formula_units_Z 120
_cell_length_a 28.218446
_cell_length_b 25.899494
_cell_length_c 7.591695
_cell_angle_alpha 90.000000
_cell_angle_beta 90.000000
_cell_angle_gamma 90.000000
_cell_volume 5548.340739
_symmetry_space_group_name_H-M "C M M M"
_symmetry_group_IT_number 65
_symmetry_cell_setting 'orthorhombic'
loop_
_space_group_symop_operation_xyz
x,y,z
-x,-y,z
x,-y,-z
-x,y,-z
-x,-y,-z
x,y,-z
-x,y,z
x,-y,z
1/2+x,1/2+y,z
1/2-x,1/2-y,z
1/2+x,1/2-y,-z
1/2-x,1/2+y,-z
1/2-x,1/2-y,-z
1/2+x,1/2+y,-z
1/2-x,1/2+y,z
1/2+x,1/2-y,z
loop_
_atom_site_type_symbol
_atom_site_label
_atom_site_fract_x
_atom_site_fract_y
_atom_site_fract_z
Si Si1 0.385320 0.263282 0.284780
Si Si2 0.945286 0.557374 0.284749
Si Si3 0.411104 0.372935 0.710685
Si Si4 0.000000 0.940455 0.283986
Si Si5 0.726087 0.104906 0.194145
Si Si6 0.782182 0.800151 0.701768
Si Si7 0.877091 0.353765 0.291349
Si Si8 0.820194 0.057353 0.212580
O O1 0.388226 0.261192 0.500000
O O2 0.415541 0.313268 0.226164
O O3 0.332895 0.282064 0.236862
O O4 0.388053 0.203996 0.221390
O O5 0.943938 0.557781 0.500000
O O6 0.929754 0.500000 0.229757
O O7 0.912283 0.602999 0.218766
O O8 0.000000 0.564437 0.234269
O O9 0.415711 0.370199 0.500000
O O10 0.453028 0.409953 0.775535
O O11 0.359909 0.399890 0.742863
O O12 0.000000 0.940633 0.500000
O O13 0.000000 0.000000 0.227625
O O14 0.757073 0.156850 0.186263
O O15 0.676462 0.124393 0.273381
O O16 0.766259 0.067972 0.278589
O O17 0.714504 0.084533 0.000000
O O18 0.786221 0.819803 0.500000
O O19 0.750000 0.750000 0.697113
O O20 0.885549 0.349909 0.500000
O O21 0.835808 0.000000 0.269612
O O22 0.816775 0.057762 0.000000
#
# Coordination Sequence:
#
# PCOD9482947 Si02
#       8
#    16  16  16   8  16  16  16  16
#     4   9  17  29  48  74 103 133 167 206 251 299
#     4   8  15  30  53  80 106 132 169 218 261 296
#     4  10  19  34  55  76 100 132 169 211 255 308
#     4   9  18  32  51  77 103 125 158 212 266 299
#     4  11  22  33  48  73 103 134 170 211 253 301
#     4  10  17  30  50  69  97 136 170 205 246 294
#     4  10  19  33  52  76 107 140 170 206 254 307
#     4  10  22  38  52  70 100 135 171 214 260 302
#
# _framework density 21.628087000000001
#
# number of rings (size 3 to 8) (size 9 to 14) (size 15 to 20)
#    0.000    2.333    2.667    1.200    0.000    2.133 
#    1.200    1.000    0.000    1.600    0.000    0.933 
#    0.000    0.000    0.000    0.000    0.000    0.000 
#
# Total GULP energy -334383.465212 kJ/mol
# GULP energy per Si atom -5573.057754 kJ/mol
# Density = 2.157886 g / cm^3
# Si number density = 21.628087 Si / 1000 Ang^3
#
#
#
# Elastic Constant Matrix: (Units=GPa)
#
#
# Indices 1 2 3 4 5 6 
#
# 1 95.8401 102.5213 1.7566 0.0000 0.0000 0.0000
# 2 102.5213 183.1115 5.7779 0.0000 0.0000 0.0000
# 3 1.7566 5.7779 41.9182 0.0000 0.0000 0.0000
# 4 0.0000 0.0000 0.0000 -0.9219 0.0000 0.0000
# 5 0.0000 0.0000 0.0000 0.0000 -42.1852 0.0000
# 6 0.0000 0.0000 0.0000 0.0000 0.0000 38.4063
#
#
#
# Elastic Compliance Matrix: (Units=1/GPa)
#
#
# Indices 1 2 3 4 5 6 
#
# 1 0.026050 -0.014614 0.000923 0.000000 0.000000 0.000000
# 2 -0.014614 0.013684 -0.001274 0.000000 0.000000 0.000000
# 3 0.000923 -0.001274 0.023993 0.000000 0.000000 0.000000
# 4 0.000000 0.000000 0.000000 -1.084709 0.000000 0.000000
# 5 0.000000 0.000000 0.000000 0.000000 -0.023705 0.000000
# 6 0.000000 0.000000 0.000000 0.000000 0.000000 0.026037
#
#
# Mechanical properties :
#
#
# Convention : Reuss Voigt Hill
#
# Bulk Modulus (GPa) = 29.58902 60.10902 44.84902
# Shear Modulus (GPa) = -5.11533 13.11411 3.99939
#
# Velocity S-wave (km/s) = -1.53957 2.46508 1.36131
# Velocity P-wave (km/s) = 3.24810 5.99622 4.82207
#
# Compressibility (1/GPa) = 0.03379632
#
# Stress axis : x y z
#
# Youngs Moduli (GPa) = 38.38762 73.08030 41.67905
#
# Poissons Ratio (x) = 1.06801 -0.03846
# Poissons Ratio (y) = 0.56100 0.05309
# Poissons Ratio (z) = -0.03542 0.09308
#
# Static dielectric constant tensor:
#      x y z
#    x 1.764960 0.000000 0.000000 
#    y 0.000000 1.770220 0.000000 
#    z 0.000000 0.000000 1.141320 
# 
# From -- ./inp_files/17073.got.cif
#   From: 2010.05.17/outbox.cif.g08.bks.cpg/sg65_9_cif.got.tgz:17073.got - 2010.06.03 17:01:31.
