data_PCOD9482227
_publ_section_title
;
Structure prediction by ZEFSAII (Michael W. Deem and Ramdas Pophale) SiO2 
 PCOD9482227
Probable space group: C M C A
;
_chemical_formula_sum "Si O2"
_cell_formula_units_Z 60
_cell_length_a 24.608769
_cell_length_b 14.881936
_cell_length_c 7.688757
_cell_angle_alpha 90.000000
_cell_angle_beta 90.000000
_cell_angle_gamma 90.000000
_cell_volume 2815.823684
_symmetry_space_group_name_H-M "C M C A"
_symmetry_group_IT_number 64
_symmetry_cell_setting 'orthorhombic'
loop_
_space_group_symop_operation_xyz
x,y,z
-x,1/2-y,1/2+z
x,-y,-z
-x,1/2+y,1/2-z
-x,-y,-z
x,1/2+y,1/2-z
-x,y,z
x,1/2-y,1/2+z
1/2+x,1/2+y,z
1/2-x,-y,1/2+z
1/2+x,1/2-y,-z
1/2-x,y,1/2-z
1/2-x,1/2-y,-z
1/2+x,y,1/2-z
1/2-x,1/2+y,z
1/2+x,-y,1/2+z
loop_
_atom_site_type_symbol
_atom_site_label
_atom_site_fract_x
_atom_site_fract_y
_atom_site_fract_z
Si Si1 0.088904 0.852633 0.961543
Si Si2 0.562603 0.153159 0.855312
Si Si3 0.193891 0.939299 0.828493
Si Si4 0.000000 0.500000 0.500000
Si Si5 0.130408 0.000000 0.500000
O O1 0.091415 0.854892 0.170093
O O2 0.064963 0.756089 0.912277
O O3 0.147927 0.867679 0.880537
O O4 0.047853 0.933509 0.917857
O O5 0.500000 0.124037 0.826106
O O6 0.592324 0.087559 0.988454
O O7 0.250000 0.902314 0.750000
O O8 0.167215 0.995584 0.671199
O O9 0.203305 0.000000 0.000000
#
# Coordination Sequence:
#
# PCOD9482227 Si02
#       5
#    16  16  16   4   8
#     4  12  25  43  71 109 151 191 251 300 369 441
#     4  12  24  45  69 113 156 196 235 303 374 453
#     4  12  25  48  75 104 146 197 255 307 363 436
#     4  12  20  42  72 104 150 196 234 310 364 456
#     4  12  25  45  76 106 147 195 248 298 372 438
#
# _framework density 21.308152
#
# number of rings (size 3 to 8) (size 9 to 14) (size 15 to 20)
#    0.000    0.000    8.000    2.000    0.000    0.000 
#    7.200    6.667    0.000    0.000    0.000    0.000 
#    0.000    0.000    0.000    0.000    0.000    0.000 
#
# Total GULP energy -167325.152461 kJ/mol
# GULP energy per Si atom -5577.505082 kJ/mol
# Density = 2.125965 g / cm^3
# Si number density = 21.308152 Si / 1000 Ang^3
#
#
#
# Elastic Constant Matrix: (Units=GPa)
#
#
# Indices 1 2 3 4 5 6 
#
# 1 156.5032 54.5945 45.0103 0.0000 0.0000 0.0000
# 2 54.5945 88.5547 13.3177 0.0000 0.0000 0.0000
# 3 45.0103 13.3177 116.7801 0.0000 0.0000 0.0000
# 4 0.0000 0.0000 0.0000 29.1884 0.0000 0.0000
# 5 0.0000 0.0000 0.0000 0.0000 87.4095 0.0000
# 6 0.0000 0.0000 0.0000 0.0000 0.0000 20.4763
#
#
#
# Elastic Compliance Matrix: (Units=1/GPa)
#
#
# Indices 1 2 3 4 5 6 
#
# 1 0.009005 -0.005118 -0.002887 0.000000 0.000000 0.000000
# 2 -0.005118 0.014398 0.000331 0.000000 0.000000 0.000000
# 3 -0.002887 0.000331 0.009638 0.000000 0.000000 0.000000
# 4 0.000000 0.000000 0.000000 0.034260 0.000000 0.000000
# 5 0.000000 0.000000 0.000000 0.000000 0.011440 0.000000
# 6 0.000000 0.000000 0.000000 0.000000 0.000000 0.048837
#
#
# Mechanical properties :
#
#
# Convention : Reuss Voigt Hill
#
# Bulk Modulus (GPa) = 56.52070 65.29811 60.90940
# Shear Modulus (GPa) = 33.59655 44.00921 38.80288
#
# Velocity S-wave (km/s) = 3.97507 4.54956 4.27199
# Velocity P-wave (km/s) = 6.90299 7.63605 7.27875
#
# Compressibility (1/GPa) = 0.01769263
#
# Stress axis : x y z
#
# Youngs Moduli (GPa) = 111.04656 69.45518 103.75342
#
# Poissons Ratio (x) = 0.35544 0.29956
# Poissons Ratio (y) = 0.56829 -0.03429
# Poissons Ratio (z) = 0.32062 -0.02296
#
# Static dielectric constant tensor:
#      x y z
#    x 1.751760 0.000000 0.000000 
#    y 0.000000 1.768190 0.000000 
#    z 0.000000 0.000000 1.782180 
# 
# From -- ./inp_files/8918.got.cif
#   From: 2010.05.17/outbox.cif.g08.bks.cpg/sg64_5_cif.got.tgz:8918.got - 2010.06.03 16:29:19.
