data_PCOD9482527
_publ_section_title
;
Structure prediction by ZEFSAII (Michael W. Deem and Ramdas Pophale) SiO2 
 PCOD9482527
Probable space group: C M M M
;
_chemical_formula_sum "Si O2"
_cell_formula_units_Z 88
_cell_length_a 15.518430
_cell_length_b 14.760488
_cell_length_c 18.074420
_cell_angle_alpha 90.000000
_cell_angle_beta 90.000000
_cell_angle_gamma 90.000000
_cell_volume 4140.119412
_symmetry_space_group_name_H-M "C M M M"
_symmetry_group_IT_number 65
_symmetry_cell_setting 'orthorhombic'
loop_
_space_group_symop_operation_xyz
x,y,z
-x,-y,z
x,-y,-z
-x,y,-z
-x,-y,-z
x,y,-z
-x,y,z
x,-y,z
1/2+x,1/2+y,z
1/2-x,1/2-y,z
1/2+x,1/2-y,-z
1/2-x,1/2+y,-z
1/2-x,1/2-y,-z
1/2+x,1/2+y,-z
1/2-x,1/2+y,z
1/2+x,1/2-y,z
loop_
_atom_site_type_symbol
_atom_site_label
_atom_site_fract_x
_atom_site_fract_y
_atom_site_fract_z
Si Si1 0.748506 0.357890 0.762024
Si Si2 0.814410 0.891265 0.082997
Si Si3 0.903051 0.371919 0.500000
Si Si4 0.000000 0.897520 0.089714
Si Si5 0.599965 0.645866 0.654239
Si Si6 0.164569 0.815738 0.500000
Si Si7 0.900658 0.366207 0.338882
O O1 0.750000 0.250000 0.751041
O O2 0.748041 0.373980 0.849374
O O3 0.661406 0.389572 0.720053
O O4 0.833177 0.395385 0.722445
O O5 0.908551 0.853017 0.106999
O O6 0.825136 0.000000 0.077773
O O7 0.791899 0.859546 0.000000
O O8 0.907133 0.262919 0.500000
O O9 0.866156 0.395477 0.420110
O O10 0.000000 0.405344 0.500000
O O11 0.000000 0.000000 0.120715
O O12 0.000000 0.904405 0.000000
O O13 0.500000 0.615120 0.655340
O O14 0.648144 0.630267 0.575537
O O15 0.597616 0.756015 0.661324
O O16 0.250000 0.750000 0.500000
O O17 0.000000 0.394981 0.329728
#
# Coordination Sequence:
#
# PCOD9482527 Si02
#       7
#    16  16   8   8  16   8  16
#     4  10  19  28  43  70  97 123 148 187 243 288
#     4   9  18  33  52  70  90 118 154 194 234 281
#     4   8  12  20  36  54  78 117 157 188 221 256
#     4   7  12  26  48  70  86 105 140 186 228 265
#     4   9  16  24  36  59  93 125 153 188 233 278
#     4  10  14  20  34  52  84 127 167 190 212 260
#     4   8  14  25  39  60  91 123 155 190 227 268
#
# _framework density 21.255426
#
# number of rings (size 3 to 8) (size 9 to 14) (size 15 to 20)
#    0.000    3.182    0.000    5.727    1.273    0.364 
#    0.000    0.000    0.000    1.091    0.000    3.818 
#    0.000    3.636    0.000    0.000    0.000    0.000 
#
# Total GULP energy -245017.233315 kJ/mol
# GULP energy per Si atom -5568.573484 kJ/mol
# Density = 2.120705 g / cm^3
# Si number density = 21.255426 Si / 1000 Ang^3
#
#
#
# Elastic Constant Matrix: (Units=GPa)
#
#
# Indices 1 2 3 4 5 6 
#
# 1 136.2039 -1.8912 90.4172 0.0000 0.0000 0.0000
# 2 -1.8912 44.7004 -6.7667 0.0000 0.0000 0.0000
# 3 90.4172 -6.7667 176.3632 0.0000 0.0000 0.0000
# 4 0.0000 0.0000 0.0000 28.1801 0.0000 0.0000
# 5 0.0000 0.0000 0.0000 0.0000 31.6771 0.0000
# 6 0.0000 0.0000 0.0000 0.0000 0.0000 -12.7244
#
#
#
# Elastic Compliance Matrix: (Units=1/GPa)
#
#
# Indices 1 2 3 4 5 6 
#
# 1 0.011137 -0.000395 -0.005725 0.000000 0.000000 0.000000
# 2 -0.000395 0.022516 0.001067 0.000000 0.000000 0.000000
# 3 -0.005725 0.001067 0.008646 0.000000 0.000000 0.000000
# 4 0.000000 0.000000 0.000000 0.035486 0.000000 0.000000
# 5 0.000000 0.000000 0.000000 0.000000 0.031569 0.000000
# 6 0.000000 0.000000 0.000000 0.000000 0.000000 -0.078589
#
#
# Mechanical properties :
#
#
# Convention : Reuss Voigt Hill
#
# Bulk Modulus (GPa) = 31.06404 57.86513 44.46459
# Shear Modulus (GPa) = 96.89641 27.79377 62.34509
#
# Velocity S-wave (km/s) = 6.75911 3.62001 5.42172
# Velocity P-wave (km/s) = 8.69256 6.68995 7.75616
#
# Compressibility (1/GPa) = 0.03219156
#
# Stress axis : x y z
#
# Youngs Moduli (GPa) = 89.79318 44.41302 115.66102
#
# Poissons Ratio (x) = 0.01756 0.66212
# Poissons Ratio (y) = 0.03551 -0.12337
# Poissons Ratio (z) = 0.51404 -0.04737
#
# Static dielectric constant tensor:
#      x y z
#    x 1.834440 0.000000 0.000000 
#    y 0.000000 1.825090 0.000000 
#    z 0.000000 0.000000 1.787110 
# 
# From -- ./inp_files/43034.got.cif
#   From: 2010.05.17/outbox.cif.g08.bks.cpg/sg65_22_cif.got.tgz:43034.got - 2010.06.03 17:01:31.
