data_PCOD9482101
_publ_section_title
;
Structure prediction by ZEFSAII (Michael W. Deem and Ramdas Pophale) SiO2 
 PCOD9482101
Probable space group: C M C A
;
_chemical_formula_sum "Si O2"
_cell_formula_units_Z 68
_cell_length_a 24.793081
_cell_length_b 12.260078
_cell_length_c 10.510679
_cell_angle_alpha 90.000000
_cell_angle_beta 90.000000
_cell_angle_gamma 90.000000
_cell_volume 3194.879666
_symmetry_space_group_name_H-M "C M C A"
_symmetry_group_IT_number 64
_symmetry_cell_setting 'orthorhombic'
loop_
_space_group_symop_operation_xyz
x,y,z
-x,1/2-y,1/2+z
x,-y,-z
-x,1/2+y,1/2-z
-x,-y,-z
x,1/2+y,1/2-z
-x,y,z
x,1/2-y,1/2+z
1/2+x,1/2+y,z
1/2-x,-y,1/2+z
1/2+x,1/2-y,-z
1/2-x,y,1/2-z
1/2-x,1/2-y,-z
1/2+x,y,1/2-z
1/2-x,1/2+y,z
1/2+x,-y,1/2+z
loop_
_atom_site_type_symbol
_atom_site_label
_atom_site_fract_x
_atom_site_fract_y
_atom_site_fract_z
Si Si1 0.500000 0.000000 0.000000
Si Si2 0.691663 0.642185 0.267374
Si Si3 0.061881 0.879743 0.062401
Si Si4 0.600150 0.970612 0.176908
Si Si5 0.654517 0.778786 0.032225
O O1 0.547758 0.981739 0.892053
O O2 0.750000 0.586686 0.250000
O O3 0.641327 0.559709 0.268508
O O4 0.685390 0.722993 0.148518
O O5 0.687237 0.704708 0.402019
O O6 0.078708 0.894835 0.208661
O O7 0.000000 0.842176 0.050573
O O8 0.102673 0.795969 0.998491
O O9 0.065786 0.000000 0.000000
O O10 0.633274 0.894696 0.080630
#
# Coordination Sequence:
#
# PCOD9482101 Si02
#       5
#     4  16  16  16  16
#     4  12  24  44  74 104 146 186 250 304 362 454
#     4  12  27  48  72 104 144 193 246 308 361 436
#     4  11  24  42  70 106 144 186 231 295 369 442
#     4  12  25  46  72 105 146 190 239 301 370 435
#     4  12  25  47  72 107 141 190 246 294 367 436
#
# _framework density 21.284057000000001
#
# number of rings (size 3 to 8) (size 9 to 14) (size 15 to 20)
#    0.000    0.235    8.235    0.706    1.647    0.941 
#    8.471    0.000    0.000    0.000    0.000    0.000 
#    0.000    0.000    0.000    0.000    0.000    0.000 
#
# Total GULP energy -189683.342371 kJ/mol
# GULP energy per Si atom -5578.921834 kJ/mol
# Density = 2.123561 g / cm^3
# Si number density = 21.284057 Si / 1000 Ang^3
#
#
#
# Elastic Constant Matrix: (Units=GPa)
#
#
# Indices 1 2 3 4 5 6 
#
# 1 147.3845 24.2369 33.8243 0.0000 0.0000 0.0000
# 2 24.2369 43.5594 5.4550 0.0000 0.0000 0.0000
# 3 33.8243 5.4550 120.5241 0.0000 0.0000 0.0000
# 4 0.0000 0.0000 0.0000 35.6467 0.0000 0.0000
# 5 0.0000 0.0000 0.0000 0.0000 9.7171 0.0000
# 6 0.0000 0.0000 0.0000 0.0000 0.0000 19.6881
#
#
#
# Elastic Compliance Matrix: (Units=1/GPa)
#
#
# Indices 1 2 3 4 5 6 
#
# 1 0.007937 -0.004161 -0.002039 0.000000 0.000000 0.000000
# 2 -0.004161 0.025269 0.000024 0.000000 0.000000 0.000000
# 3 -0.002039 0.000024 0.008868 0.000000 0.000000 0.000000
# 4 0.000000 0.000000 0.000000 0.028053 0.000000 0.000000
# 5 0.000000 0.000000 0.000000 0.000000 0.102911 0.000000
# 6 0.000000 0.000000 0.000000 0.000000 0.000000 0.050792
#
#
# Mechanical properties :
#
#
# Convention : Reuss Voigt Hill
#
# Bulk Modulus (GPa) = 33.64443 48.72226 41.18335
# Shear Modulus (GPa) = 20.31771 29.54052 24.92911
#
# Velocity S-wave (km/s) = 3.09301 3.72952 3.42608
# Velocity P-wave (km/s) = 5.34764 6.44103 5.91963
#
# Compressibility (1/GPa) = 0.02972260
#
# Stress axis : x y z
#
# Youngs Moduli (GPa) = 125.98859 39.57362 112.76124
#
# Poissons Ratio (x) = 0.16467 0.22994
# Poissons Ratio (y) = 0.52424 -0.00271
# Poissons Ratio (z) = 0.25692 -0.00095
#
# Static dielectric constant tensor:
#      x y z
#    x 1.718480 0.000000 0.000000 
#    y 0.000000 1.765820 0.000000 
#    z 0.000000 0.000000 1.757960 
# 
# From -- ./inp_files/16951.got.cif
#   From: 2010.05.17/outbox.cif.g08.bks.cpg/sg64_9_cif.got.tgz:16951.got - 2010.06.03 16:29:19.
