data_PCOD9482070
_publ_section_title
;
Structure prediction by ZEFSAII (Michael W. Deem and Ramdas Pophale) SiO2 
 PCOD9482070
Probable space group: C M C A
;
_chemical_formula_sum "Si O2"
_cell_formula_units_Z 48
_cell_length_a 17.863129
_cell_length_b 9.457825
_cell_length_c 12.118831
_cell_angle_alpha 90.000000
_cell_angle_beta 90.000000
_cell_angle_gamma 90.000000
_cell_volume 2047.432240
_symmetry_space_group_name_H-M "C M C A"
_symmetry_group_IT_number 64
_symmetry_cell_setting 'orthorhombic'
loop_
_space_group_symop_operation_xyz
x,y,z
-x,1/2-y,1/2+z
x,-y,-z
-x,1/2+y,1/2-z
-x,-y,-z
x,1/2+y,1/2-z
-x,y,z
x,1/2-y,1/2+z
1/2+x,1/2+y,z
1/2-x,-y,1/2+z
1/2+x,1/2-y,-z
1/2-x,y,1/2-z
1/2-x,1/2-y,-z
1/2+x,y,1/2-z
1/2-x,1/2+y,z
1/2+x,-y,1/2+z
loop_
_atom_site_type_symbol
_atom_site_label
_atom_site_fract_x
_atom_site_fract_y
_atom_site_fract_z
Si Si1 0.915641 0.728689 0.723449
Si Si2 0.370773 0.051646 0.376285
Si Si3 0.790530 0.627707 0.072013
O O1 0.902680 0.562219 0.709366
O O2 0.852184 0.800633 0.647932
O O3 0.000000 0.760914 0.687935
O O4 0.902633 0.795722 0.843929
O O5 0.281130 0.058123 0.367894
O O6 0.389560 0.000000 0.500000
O O7 0.823239 0.500000 0.000000
O O8 0.750000 0.750000 0.000000
#
# Coordination Sequence:
#
# PCOD9482070 Si02
#       3
#    16  16  16
#     4  12  27  45  73 111 149 194 247 314 380 435
#     4  11  26  50  74 106 152 201 249 308 371 458
#     4  11  23  47  76 109 141 201 249 304 371 455
#
# _framework density 23.443999999999999
#
# number of rings (size 3 to 8) (size 9 to 14) (size 15 to 20)
#    0.000    0.667    6.667    2.000    4.667    6.000 
#    0.000    0.000    0.000    0.000    0.000    0.000 
#    0.000    0.000    0.000    0.000    0.000    0.000 
#
# Total GULP energy -134320.323949 kJ/mol
# GULP energy per Si atom -5596.680165 kJ/mol
# Density = 2.339064 g / cm^3
# Si number density = 23.444000 Si / 1000 Ang^3
#
#
#
# Elastic Constant Matrix: (Units=GPa)
#
#
# Indices 1 2 3 4 5 6 
#
# 1 129.9948 8.7756 25.0990 0.0000 0.0000 0.0000
# 2 8.7756 97.4160 39.7586 0.0000 0.0000 0.0000
# 3 25.0990 39.7586 84.7968 0.0000 0.0000 0.0000
# 4 0.0000 0.0000 0.0000 46.8532 0.0000 0.0000
# 5 0.0000 0.0000 0.0000 0.0000 10.2067 0.0000
# 6 0.0000 0.0000 0.0000 0.0000 0.0000 25.2747
#
#
#
# Elastic Compliance Matrix: (Units=1/GPa)
#
#
# Indices 1 2 3 4 5 6 
#
# 1 0.008166 0.000310 -0.002563 0.000000 0.000000 0.000000
# 2 0.000310 0.012706 -0.006049 0.000000 0.000000 0.000000
# 3 -0.002563 -0.006049 0.015388 0.000000 0.000000 0.000000
# 4 0.000000 0.000000 0.000000 0.021343 0.000000 0.000000
# 5 0.000000 0.000000 0.000000 0.000000 0.097975 0.000000
# 6 0.000000 0.000000 0.000000 0.000000 0.000000 0.039565
#
#
# Mechanical properties :
#
#
# Convention : Reuss Voigt Hill
#
# Bulk Modulus (GPa) = 50.87277 51.05267 50.96272
# Shear Modulus (GPa) = 22.90432 32.37190 27.63811
#
# Velocity S-wave (km/s) = 3.12906 3.71997 3.43723
# Velocity P-wave (km/s) = 5.89928 6.34623 6.12683
#
# Compressibility (1/GPa) = 0.01965688
#
# Stress axis : x y z
#
# Youngs Moduli (GPa) = 122.45203 78.70132 64.98661
#
# Poissons Ratio (x) = -0.02442 0.16654
# Poissons Ratio (y) = -0.03799 0.39313
# Poissons Ratio (z) = 0.31380 0.47610
#
# Static dielectric constant tensor:
#      x y z
#    x 1.851380 0.000000 0.000000 
#    y 0.000000 1.924840 0.000000 
#    z 0.000000 0.000000 1.972190 
# 
# From -- ./inp_files/15198.got.cif
#   From: 2010.05.17/outbox.cif.g08.bks.cpg/sg64_8_cif.got.tgz:15198.got - 2010.06.03 16:29:19.
