data_PCOD9482506
_publ_section_title
;
Structure prediction by ZEFSAII (Michael W. Deem and Ramdas Pophale) SiO2 
 PCOD9482506
Probable space group: C M C A
;
_chemical_formula_sum "Si O2"
_cell_formula_units_Z 48
_cell_length_a 24.000000
_cell_length_b 12.000000
_cell_length_c 18.000000
_cell_angle_alpha 90.000000
_cell_angle_beta 90.000000
_cell_angle_gamma 90.000000
_cell_volume 5184.000000
_symmetry_space_group_name_H-M "C M C A"
_symmetry_group_IT_number 64
_symmetry_cell_setting 'orthorhombic'
loop_
_space_group_symop_operation_xyz
x,y,z
-x,1/2-y,1/2+z
x,-y,-z
-x,1/2+y,1/2-z
-x,-y,-z
x,1/2+y,1/2-z
-x,y,z
x,1/2-y,1/2+z
1/2+x,1/2+y,z
1/2-x,-y,1/2+z
1/2+x,1/2-y,-z
1/2-x,y,1/2-z
1/2-x,1/2-y,-z
1/2+x,y,1/2-z
1/2-x,1/2+y,z
1/2+x,-y,1/2+z
loop_
_atom_site_type_symbol
_atom_site_label
_atom_site_fract_x
_atom_site_fract_y
_atom_site_fract_z
Si Si1 0.000000 0.332501 0.286911
Si Si2 0.096060 0.559971 0.426131
Si Si3 0.874206 0.863403 0.165677
Si Si4 0.820353 0.735303 0.934911
Si Si5 0.301036 0.335508 0.597348
Si Si6 0.000000 0.407764 0.695529
Si Si7 0.806047 0.559325 0.802260
O O1 0.939852 0.328872 0.329413
O O2 0.000000 0.468299 0.262056
O O3 0.000000 0.214346 0.238088
O O4 0.071365 0.500000 0.500000
O O5 0.134518 0.460615 0.394573
O O6 0.130924 0.672343 0.438741
O O7 0.052393 0.586013 0.360676
O O8 0.834673 0.760841 0.142185
O O9 0.855389 0.919706 0.243025
O O10 0.762784 0.802903 0.921229
O O11 0.817643 0.652950 0.864612
O O12 0.824198 0.665678 0.012286
O O13 0.303994 0.444519 0.650063
O O14 0.750000 0.569044 0.750000
#
# Coordination Sequence:
#
# PCOD9482506 Si02
#       7
#     8  16  16  16  16   8  16
#     4  10  24  42  66  96 136 177 219 293 333 394
#     4  11  22  42  67  96 129 172 220 275 326 405
#     4  11  24  42  66  97 128 173 220 277 332 394
#     4  11  24  42  64  90 135 170 217 268 335 391
#     4  11  25  41  62  91 133 176 215 268 329 399
#     4  10  23  42  70 100 133 173 231 277 348 395
#     4  12  25  39  64  96 130 170 222 268 333 395
#
# _framework density 9.2592590000000001
#
# number of rings (size 3 to 8) (size 9 to 14) (size 15 to 20)
#    0.000    1.000    3.333    2.750    9.333    0.000 
#    0.000    0.000    0.000    0.000    0.000    7.000 
#    0.000    0.000    0.000    0.000    0.000    0.000 
#
# Total GULP energy -267247.060043 kJ/mol
# GULP energy per Si atom -5567.647084 kJ/mol
# Density = 0.923818 g / cm^3
# Si number density = 9.259259 Si / 1000 Ang^3
#
#
#
# Elastic Constant Matrix: (Units=GPa)
#
#
# Indices 1 2 3 4 5 6 
#
# 1 74.0452 17.1272 6.4471 0.0000 0.0000 0.0000
# 2 17.1272 114.9772 50.7650 0.0000 0.0000 0.0000
# 3 6.4471 50.7650 111.7885 0.0000 0.0000 0.0000
# 4 0.0000 0.0000 0.0000 51.6282 0.0000 0.0000
# 5 0.0000 0.0000 0.0000 0.0000 29.0693 0.0000
# 6 0.0000 0.0000 0.0000 0.0000 0.0000 27.7186
#
#
#
# Elastic Compliance Matrix: (Units=1/GPa)
#
#
# Indices 1 2 3 4 5 6 
#
# 1 0.013990 -0.002161 0.000175 0.000000 0.000000 0.000000
# 2 -0.002161 0.011212 -0.004967 0.000000 0.000000 0.000000
# 3 0.000175 -0.004967 0.011191 0.000000 0.000000 0.000000
# 4 0.000000 0.000000 0.000000 0.019369 0.000000 0.000000
# 5 0.000000 0.000000 0.000000 0.000000 0.034401 0.000000
# 6 0.000000 0.000000 0.000000 0.000000 0.000000 0.036077
#
#
# Mechanical properties :
#
#
# Convention : Reuss Voigt Hill
#
# Bulk Modulus (GPa) = 44.47180 49.94328 47.20754
# Shear Modulus (GPa) = 33.86557 36.78132 35.32345
#
# Velocity S-wave (km/s) = 4.28102 4.46151 4.37219
# Velocity P-wave (km/s) = 6.96441 7.31901 7.14391
#
# Compressibility (1/GPa) = 0.02248616
#
# Stress axis : x y z
#
# Youngs Moduli (GPa) = 71.47999 89.18729 89.35730
#
# Poissons Ratio (x) = 0.19274 -0.01560
# Poissons Ratio (y) = 0.15447 0.44385
# Poissons Ratio (z) = -0.01248 0.44300
#
# Static dielectric constant tensor:
#      x y z
#    x 1.662260 0.000000 0.000000 
#    y 0.000000 1.651990 0.000000 
#    z 0.000000 0.000000 1.674330 
# 
# From -- ./inp_files/34993.got.cif
#   From: 2010.05.17/outbox.ucp.g08.bks.cvg/sg64_18_cif.got.tgz:34993.got - 2010.06.11 16:36:46.
