data_PCOD9482558
_publ_section_title
;
Structure prediction by ZEFSAII (Michael W. Deem and Ramdas Pophale) SiO2 
 PCOD9482558
Probable space group: C M M M
;
_chemical_formula_sum "Si O2"
_cell_formula_units_Z 104
_cell_length_a 28.245569
_cell_length_b 8.487863
_cell_length_c 27.970915
_cell_angle_alpha 90.000000
_cell_angle_beta 90.000000
_cell_angle_gamma 90.000000
_cell_volume 6705.873591
_symmetry_space_group_name_H-M "C M M M"
_symmetry_group_IT_number 65
_symmetry_cell_setting 'orthorhombic'
loop_
_space_group_symop_operation_xyz
x,y,z
-x,-y,z
x,-y,-z
-x,y,-z
-x,-y,-z
x,y,-z
-x,y,z
x,-y,z
1/2+x,1/2+y,z
1/2-x,1/2-y,z
1/2+x,1/2-y,-z
1/2-x,1/2+y,-z
1/2-x,1/2-y,-z
1/2+x,1/2+y,-z
1/2-x,1/2+y,z
1/2+x,1/2-y,z
loop_
_atom_site_type_symbol
_atom_site_label
_atom_site_fract_x
_atom_site_fract_y
_atom_site_fract_z
Si Si1 0.894205 0.309571 0.553476
Si Si2 0.648090 0.191039 0.301118
Si Si3 0.552954 0.807982 0.351451
Si Si4 0.304124 0.811342 0.098891
Si Si5 0.195745 0.813337 0.000000
Si Si6 0.197956 0.187532 0.395438
Si Si7 0.803850 0.309688 0.796175
O O1 0.906383 0.256694 0.500000
O O2 0.893713 0.500000 0.553868
O O3 0.930053 0.259465 0.595433
O O4 0.842333 0.251796 0.569037
O O5 0.594887 0.240483 0.315565
O O6 0.682438 0.253433 0.342728
O O7 0.665491 0.243376 0.249079
O O8 0.649707 0.000000 0.302770
O O9 0.500000 0.752631 0.340667
O O10 0.552171 0.000000 0.350939
O O11 0.250000 0.750000 0.099784
O O12 0.323145 0.763504 0.151210
O O13 0.303732 0.000000 0.095663
O O14 0.326138 0.745449 0.049979
O O15 0.250000 0.750000 0.000000
O O16 0.197555 0.000000 0.000000
O O17 0.250000 0.250000 0.407057
O O18 0.197819 0.000000 0.396227
O O19 0.802348 0.500000 0.795493
O O20 0.750000 0.250000 0.791208
#
# Coordination Sequence:
#
# PCOD9482558 Si02
#       7
#    16  16  16  16   8  16  16
#     4   9  18  32  48  66  87 108 133 166 200 236
#     4   9  17  30  45  63  86 109 137 171 203 239
#     4   8  14  26  46  69  88 106 130 162 200 241
#     4   9  15  23  33  47  68  97 133 168 201 233
#     4  10  16  22  32  46  66  96 133 170 203 231
#     4  11  21  32  46  63  84 111 140 167 199 239
#     4   9  17  26  38  56  79 107 137 170 203 235
#
# _framework density 15.508792
#
# number of rings (size 3 to 8) (size 9 to 14) (size 15 to 20)
#    0.000    2.769    0.000    4.846    0.000    3.385 
#    0.000    1.538    0.000    7.385    0.000    4.308 
#    0.000    0.000    0.000    0.692    0.000   18.846 
#
# Total GULP energy -289590.068341 kJ/mol
# GULP energy per Si atom -5569.039776 kJ/mol
# Density = 1.547349 g / cm^3
# Si number density = 15.508792 Si / 1000 Ang^3
#
#
#
# Elastic Constant Matrix: (Units=GPa)
#
#
# Indices 1 2 3 4 5 6 
#
# 1 62.0433 2.8101 28.7636 0.0000 0.0000 0.0000
# 2 2.8101 24.3588 19.2461 0.0000 0.0000 0.0000
# 3 28.7636 19.2461 134.4748 0.0000 0.0000 0.0000
# 4 0.0000 0.0000 0.0000 16.2909 0.0000 0.0000
# 5 0.0000 0.0000 0.0000 0.0000 9.8919 0.0000
# 6 0.0000 0.0000 0.0000 0.0000 0.0000 10.3459
#
#
#
# Elastic Compliance Matrix: (Units=1/GPa)
#
#
# Indices 1 2 3 4 5 6 
#
# 1 0.017917 0.001084 -0.003988 0.000000 0.000000 0.000000
# 2 0.001084 0.046353 -0.006866 0.000000 0.000000 0.000000
# 3 -0.003988 -0.006866 0.009272 0.000000 0.000000 0.000000
# 4 0.000000 0.000000 0.000000 0.061384 0.000000 0.000000
# 5 0.000000 0.000000 0.000000 0.000000 0.101093 0.000000
# 6 0.000000 0.000000 0.000000 0.000000 0.000000 0.096656
#
#
# Mechanical properties :
#
#
# Convention : Reuss Voigt Hill
#
# Bulk Modulus (GPa) = 18.51772 35.83518 27.17645
# Shear Modulus (GPa) = 13.50567 18.64289 16.07428
#
# Velocity S-wave (km/s) = 2.95420 3.47087 3.22291
# Velocity P-wave (km/s) = 4.85824 6.26252 5.60453
#
# Compressibility (1/GPa) = 0.05400234
#
# Stress axis : x y z
#
# Youngs Moduli (GPa) = 55.81183 21.57379 107.85288
#
# Poissons Ratio (x) = -0.02338 0.43007
# Poissons Ratio (y) = -0.06048 0.74049
# Poissons Ratio (z) = 0.22255 0.14812
#
# Static dielectric constant tensor:
#      x y z
#    x 1.486420 0.000000 0.000000 
#    y 0.000000 1.522700 0.000000 
#    z 0.000000 0.000000 1.567330 
# 
# From -- ./inp_files/78468.got.cif
#   From: 2010.05.17/outbox.cif.g08.bks.cpg/sg65_40_cif.got.tgz:78468.got - 2010.06.03 17:01:31.
