data_PCOD9482950
_publ_section_title
;
Structure prediction by ZEFSAII (Michael W. Deem and Ramdas Pophale) SiO2 
 PCOD9482950
Probable space group: C M M M
;
_chemical_formula_sum "Si O2"
_cell_formula_units_Z 60
_cell_length_a 19.609190
_cell_length_b 14.589118
_cell_length_c 13.169403
_cell_angle_alpha 90.000000
_cell_angle_beta 90.000000
_cell_angle_gamma 90.000000
_cell_volume 3767.513172
_symmetry_space_group_name_H-M "C M M M"
_symmetry_group_IT_number 65
_symmetry_cell_setting 'orthorhombic'
loop_
_space_group_symop_operation_xyz
x,y,z
-x,-y,z
x,-y,-z
-x,y,-z
-x,-y,-z
x,y,-z
-x,y,z
x,-y,z
1/2+x,1/2+y,z
1/2-x,1/2-y,z
1/2+x,1/2-y,-z
1/2-x,1/2+y,-z
1/2-x,1/2-y,-z
1/2+x,1/2+y,-z
1/2-x,1/2+y,z
1/2+x,1/2-y,z
loop_
_atom_site_type_symbol
_atom_site_label
_atom_site_fract_x
_atom_site_fract_y
_atom_site_fract_z
Si Si1 0.131994 0.500000 0.500000
Si Si2 0.822785 0.201384 0.881332
Si Si3 0.079044 0.701540 0.500000
Si Si4 0.269664 0.500000 0.118016
Si Si5 0.353898 0.000000 0.724313
Si Si6 0.081769 0.699330 0.723678
O O1 0.086353 0.591085 0.500000
O O2 0.171681 0.500000 0.606700
O O3 0.750000 0.250000 0.859509
O O4 0.879626 0.242944 0.808608
O O5 0.812133 0.092906 0.867157
O O6 0.838361 0.219031 0.000000
O O7 0.106599 0.729849 0.610298
O O8 0.000000 0.727078 0.500000
O O9 0.206623 0.500000 0.194913
O O10 0.245693 0.500000 0.000000
O O11 0.397600 0.092614 0.736538
O O12 0.000000 0.708024 0.728689
#
# Coordination Sequence:
#
# PCOD9482950 Si02
#       6
#     4  16   8   8   8  16
#     4   8  15  24  42  72 104 134 159 194 244 298
#     4  10  20  35  53  73 100 134 169 206 250 301
#     4   8  15  28  46  70 103 137 163 194 247 306
#     4  10  20  35  54  71  97 137 173 199 244 307
#     4  10  17  30  50  77 106 132 163 203 251 302
#     4  10  19  32  52  78 105 133 167 208 252 297
#
# _framework density 15.925625
#
# number of rings (size 3 to 8) (size 9 to 14) (size 15 to 20)
#    0.000    2.400    2.667    0.600    0.000    3.733 
#    0.000    2.667    0.000    4.800    0.000    2.800 
#    0.000    0.000    0.000    0.000    0.000    0.000 
#
# Total GULP energy -167025.003446 kJ/mol
# GULP energy per Si atom -5567.500115 kJ/mol
# Density = 1.588938 g / cm^3
# Si number density = 15.925625 Si / 1000 Ang^3
#
#
#
# Elastic Constant Matrix: (Units=GPa)
#
#
# Indices 1 2 3 4 5 6 
#
# 1 68.5533 35.5907 78.1803 0.0000 0.0000 0.0000
# 2 35.5907 85.7036 60.4612 0.0000 0.0000 0.0000
# 3 78.1803 60.4612 132.6428 0.0000 0.0000 0.0000
# 4 0.0000 0.0000 0.0000 24.7162 0.0000 0.0000
# 5 0.0000 0.0000 0.0000 0.0000 25.2722 0.0000
# 6 0.0000 0.0000 0.0000 0.0000 0.0000 18.6491
#
#
#
# Elastic Compliance Matrix: (Units=1/GPa)
#
#
# Indices 1 2 3 4 5 6 
#
# 1 0.044497 0.000035 -0.026243 0.000000 0.000000 0.000000
# 2 0.000035 0.017199 -0.007860 0.000000 0.000000 0.000000
# 3 -0.026243 -0.007860 0.026589 0.000000 0.000000 0.000000
# 4 0.000000 0.000000 0.000000 0.040459 0.000000 0.000000
# 5 0.000000 0.000000 0.000000 0.000000 0.039569 0.000000
# 6 0.000000 0.000000 0.000000 0.000000 0.000000 0.053622
#
#
# Mechanical properties :
#
#
# Convention : Reuss Voigt Hill
#
# Bulk Modulus (GPa) = 49.62942 70.59600 60.11271
# Shear Modulus (GPa) = 16.84707 21.23867 19.04287
#
# Velocity S-wave (km/s) = 3.25600 3.65583 3.46170
# Velocity P-wave (km/s) = 6.73545 7.88955 7.33523
#
# Compressibility (1/GPa) = 0.02014934
#
# Stress axis : x y z
#
# Youngs Moduli (GPa) = 22.47340 58.14411 37.60910
#
# Poissons Ratio (x) = -0.00202 0.98696
# Poissons Ratio (y) = -0.00078 0.29561
# Poissons Ratio (z) = 0.58976 0.45701
#
# Static dielectric constant tensor:
#      x y z
#    x 1.495710 0.000000 0.000000 
#    y 0.000000 1.524650 0.000000 
#    z 0.000000 0.000000 1.570600 
# 
# From -- ./inp_files/23872.got.cif
#   From: 2010.05.17/outbox.cif.g08.bks.cpg/sg65_12_cif.got.tgz:23872.got - 2010.06.03 17:01:31.
