data_PCOD9482923
_publ_section_title
;
Structure prediction by ZEFSAII (Michael W. Deem and Ramdas Pophale) SiO2 
 PCOD9482923
Probable space group: C M M M
;
_chemical_formula_sum "Si O2"
_cell_formula_units_Z 88
_cell_length_a 32.021020
_cell_length_b 7.890268
_cell_length_c 17.647022
_cell_angle_alpha 90.000000
_cell_angle_beta 90.000000
_cell_angle_gamma 90.000000
_cell_volume 4458.598275
_symmetry_space_group_name_H-M "C M M M"
_symmetry_group_IT_number 65
_symmetry_cell_setting 'orthorhombic'
loop_
_space_group_symop_operation_xyz
x,y,z
-x,-y,z
x,-y,-z
-x,y,-z
-x,-y,-z
x,y,-z
-x,y,z
x,-y,z
1/2+x,1/2+y,z
1/2-x,1/2-y,z
1/2+x,1/2-y,-z
1/2-x,1/2+y,-z
1/2-x,1/2-y,-z
1/2+x,1/2+y,-z
1/2-x,1/2+y,z
1/2+x,1/2-y,z
loop_
_atom_site_type_symbol
_atom_site_label
_atom_site_fract_x
_atom_site_fract_y
_atom_site_fract_z
Si Si1 0.625312 0.296076 0.262520
Si Si2 0.591620 0.299633 0.414859
Si Si3 0.796924 0.298645 0.839319
Si Si4 0.072119 0.203472 0.000000
Si Si5 0.500000 0.195119 0.408060
Si Si6 0.169690 0.705001 0.000000
Si Si7 0.545875 0.292585 0.165726
O O1 0.621661 0.500000 0.265592
O O2 0.620856 0.230322 0.348410
O O3 0.668019 0.256705 0.220043
O O4 0.585544 0.233353 0.213949
O O5 0.595493 0.226103 0.500000
O O6 0.599295 0.500000 0.421462
O O7 0.543758 0.278754 0.386526
O O8 0.798997 0.500000 0.843903
O O9 0.750000 0.250000 0.818644
O O10 0.808812 0.230235 0.923065
O O11 0.052117 0.263487 0.921405
O O12 0.121133 0.245895 0.000000
O O13 0.067682 0.000000 0.000000
O O14 0.500000 0.202631 0.500000
O O15 0.500000 0.000000 0.384692
O O16 0.172071 0.500000 0.000000
O O17 0.500000 0.240333 0.193789
O O18 0.546667 0.500000 0.166318
#
# Coordination Sequence:
#
# PCOD9482923 Si02
#       7
#    16  16  16   8   8   8  16
#     4  10  20  34  55  80 107 139 178 224 270 317
#     4   9  18  32  51  76 107 143 181 222 269 320
#     4  11  23  39  59  81 108 137 172 216 267 322
#     4  10  17  29  51  73 101 141 182 220 256 305
#     4   9  17  29  47  73 105 142 183 224 265 313
#     4  10  21  36  54  78 108 139 168 212 266 317
#     4   9  17  28  46  74 104 138 181 222 256 297
#
# _framework density 19.737145000000002
#
# number of rings (size 3 to 8) (size 9 to 14) (size 15 to 20)
#    0.000    2.273    1.818    1.364    1.273    3.636 
#    0.000    0.000    0.000    2.727    0.000    0.000 
#    0.000    0.000    0.000    0.000    0.000    0.000 
#
# Total GULP energy -245581.944262 kJ/mol
# GULP energy per Si atom -5581.407824 kJ/mol
# Density = 1.969222 g / cm^3
# Si number density = 19.737145 Si / 1000 Ang^3
#
#
#
# Elastic Constant Matrix: (Units=GPa)
#
#
# Indices 1 2 3 4 5 6 
#
# 1 150.9598 -5.4038 81.9599 0.0000 0.0000 0.0000
# 2 -5.4038 16.8799 10.5641 0.0000 0.0000 0.0000
# 3 81.9599 10.5641 138.7991 0.0000 0.0000 0.0000
# 4 0.0000 0.0000 0.0000 7.6729 0.0000 0.0000
# 5 0.0000 0.0000 0.0000 0.0000 3.9828 0.0000
# 6 0.0000 0.0000 0.0000 0.0000 0.0000 19.7699
#
#
#
# Elastic Compliance Matrix: (Units=1/GPa)
#
#
# Indices 1 2 3 4 5 6 
#
# 1 0.010623 0.007693 -0.006859 0.000000 0.000000 0.000000
# 2 0.007693 0.067777 -0.009701 0.000000 0.000000 0.000000
# 3 -0.006859 -0.009701 0.011993 0.000000 0.000000 0.000000
# 4 0.000000 0.000000 0.000000 0.130328 0.000000 0.000000
# 5 0.000000 0.000000 0.000000 0.000000 0.251080 0.000000
# 6 0.000000 0.000000 0.000000 0.000000 0.000000 0.050582
#
#
# Mechanical properties :
#
#
# Convention : Reuss Voigt Hill
#
# Bulk Modulus (GPa) = 13.76280 53.43103 33.59691
# Shear Modulus (GPa) = 8.85996 20.91970 14.88983
#
# Velocity S-wave (km/s) = 2.12102 3.25917 2.74963
# Velocity P-wave (km/s) = 3.60368 6.42596 5.20958
#
# Compressibility (1/GPa) = 0.07265964
#
# Stress axis : x y z
#
# Youngs Moduli (GPa) = 94.13220 14.75436 83.38219
#
# Poissons Ratio (x) = -0.11351 0.57188
# Poissons Ratio (y) = -0.72418 0.80892
# Poissons Ratio (z) = 0.64561 0.14314
#
# Static dielectric constant tensor:
#      x y z
#    x 1.615760 0.000000 0.000000 
#    y 0.000000 1.705350 0.000000 
#    z 0.000000 0.000000 1.752360 
# 
# From -- ./inp_files/58078.got.cif
#   From: 2010.05.17/outbox.cif.g08.bks.cpg/sg65_30_cif.got.tgz:58078.got - 2010.06.03 17:01:31.
