data_PCOD9482793
_publ_section_title
;
Structure prediction by ZEFSAII (Michael W. Deem and Ramdas Pophale) SiO2 
 PCOD9482793
Probable space group: C M M M
;
_chemical_formula_sum "Si O2"
_cell_formula_units_Z 80
_cell_length_a 14.806838
_cell_length_b 27.906541
_cell_length_c 13.817607
_cell_angle_alpha 90.000000
_cell_angle_beta 90.000000
_cell_angle_gamma 90.000000
_cell_volume 5709.540665
_symmetry_space_group_name_H-M "C M M M"
_symmetry_group_IT_number 65
_symmetry_cell_setting 'orthorhombic'
loop_
_space_group_symop_operation_xyz
x,y,z
-x,-y,z
x,-y,-z
-x,y,-z
-x,-y,-z
x,y,-z
-x,y,z
x,-y,z
1/2+x,1/2+y,z
1/2-x,1/2-y,z
1/2+x,1/2-y,-z
1/2-x,1/2+y,-z
1/2-x,1/2-y,-z
1/2+x,1/2+y,-z
1/2-x,1/2+y,z
1/2+x,1/2-y,z
loop_
_atom_site_type_symbol
_atom_site_label
_atom_site_fract_x
_atom_site_fract_y
_atom_site_fract_z
Si Si1 0.159990 0.141278 0.242084
Si Si2 0.315971 0.792433 0.719963
Si Si3 0.108112 0.056244 0.887506
Si Si4 0.000000 0.724392 0.613171
Si Si5 0.107576 0.767339 0.888105
Si Si6 0.000000 0.160055 0.385630
O O1 0.257102 0.159768 0.277240
O O2 0.157941 0.091657 0.184994
O O3 0.127605 0.182979 0.167386
O O4 0.088162 0.141099 0.329481
O O5 0.250000 0.750000 0.680316
O O6 0.408546 0.794567 0.661529
O O7 0.343073 0.774042 0.827270
O O8 0.000000 0.064038 0.876167
O O9 0.125544 0.000000 0.870339
O O10 0.129712 0.066720 0.000000
O O11 0.000000 0.782154 0.626336
O O12 0.000000 0.714082 0.500000
O O13 0.000000 0.759303 0.883541
O O14 0.134747 0.769456 0.000000
O O15 0.000000 0.149388 0.500000
#
# Coordination Sequence:
#
# PCOD9482793 Si02
#       6
#    16  16  16   8  16   8
#     4  11  18  30  46  65  92 121 154 185 225 272
#     4  10  19  30  43  66  89 121 157 187 223 271
#     4   9  17  29  48  73  97 122 151 183 224 274
#     4  11  20  34  46  61  94 125 157 200 231 256
#     4  10  17  27  42  60  89 122 148 178 217 264
#     4  11  20  30  45  65  92 122 156 194 227 264
#
# _framework density 14.011635999999999
#
# number of rings (size 3 to 8) (size 9 to 14) (size 15 to 20)
#    0.000    1.800    7.000    1.200    0.000    7.200 
#    0.000    0.000    0.000    1.200    0.000    0.700 
#    0.000    2.400    0.000    0.000    0.000    0.000 
#
# Total GULP energy -223030.982138 kJ/mol
# GULP energy per Si atom -5575.774553 kJ/mol
# Density = 1.397974 g / cm^3
# Si number density = 14.011636 Si / 1000 Ang^3
#
#
#
# Elastic Constant Matrix: (Units=GPa)
#
#
# Indices 1 2 3 4 5 6 
#
# 1 98.8405 31.7121 48.6712 0.0000 0.0000 0.0000
# 2 31.7121 57.8029 35.4926 0.0000 0.0000 0.0000
# 3 48.6712 35.4926 99.2251 0.0000 0.0000 0.0000
# 4 0.0000 0.0000 0.0000 17.4562 0.0000 0.0000
# 5 0.0000 0.0000 0.0000 0.0000 1.5290 0.0000
# 6 0.0000 0.0000 0.0000 0.0000 0.0000 15.3294
#
#
#
# Elastic Compliance Matrix: (Units=1/GPa)
#
#
# Indices 1 2 3 4 5 6 
#
# 1 0.014198 -0.004502 -0.005354 0.000000 0.000000 0.000000
# 2 -0.004502 0.023597 -0.006232 0.000000 0.000000 0.000000
# 3 -0.005354 -0.006232 0.014934 0.000000 0.000000 0.000000
# 4 0.000000 0.000000 0.000000 0.057286 0.000000 0.000000
# 5 0.000000 0.000000 0.000000 0.000000 0.654020 0.000000
# 6 0.000000 0.000000 0.000000 0.000000 0.000000 0.065234
#
#
# Mechanical properties :
#
#
# Convention : Reuss Voigt Hill
#
# Bulk Modulus (GPa) = 48.65688 54.18004 51.41846
# Shear Modulus (GPa) = 5.75840 16.19576 10.97708
#
# Velocity S-wave (km/s) = 2.02945 3.40351 2.80201
# Velocity P-wave (km/s) = 6.34767 7.36186 6.87350
#
# Compressibility (1/GPa) = 0.02055208
#
# Stress axis : x y z
#
# Youngs Moduli (GPa) = 70.43159 42.37855 66.96306
#
# Poissons Ratio (x) = 0.19079 0.35852
# Poissons Ratio (y) = 0.31708 0.41733
# Poissons Ratio (z) = 0.37710 0.26412
#
# Static dielectric constant tensor:
#      x y z
#    x 1.476600 0.000000 0.000000 
#    y 0.000000 1.438860 0.000000 
#    z 0.000000 0.000000 1.472470 
# 
# From -- ./inp_files/41213.got.cif
#   From: 2010.05.17/outbox.cif.g08.bks.cpg/sg65_21_cif.got.tgz:41213.got - 2010.06.03 17:01:31.
