data_PCOD9482119
_publ_section_title
;
Structure prediction by ZEFSAII (Michael W. Deem and Ramdas Pophale) SiO2 
 PCOD9482119
Probable space group: C M C A
;
_chemical_formula_sum "Si O2"
_cell_formula_units_Z 48
_cell_length_a 14.968333
_cell_length_b 8.771174
_cell_length_c 15.851654
_cell_angle_alpha 90.000000
_cell_angle_beta 90.000000
_cell_angle_gamma 90.000000
_cell_volume 2081.161327
_symmetry_space_group_name_H-M "C M C A"
_symmetry_group_IT_number 64
_symmetry_cell_setting 'orthorhombic'
loop_
_space_group_symop_operation_xyz
x,y,z
-x,1/2-y,1/2+z
x,-y,-z
-x,1/2+y,1/2-z
-x,-y,-z
x,1/2+y,1/2-z
-x,y,z
x,1/2-y,1/2+z
1/2+x,1/2+y,z
1/2-x,-y,1/2+z
1/2+x,1/2-y,-z
1/2-x,y,1/2-z
1/2-x,1/2-y,-z
1/2+x,y,1/2-z
1/2-x,1/2+y,z
1/2+x,-y,1/2+z
loop_
_atom_site_type_symbol
_atom_site_label
_atom_site_fract_x
_atom_site_fract_y
_atom_site_fract_z
Si Si1 0.500000 0.215307 0.928530
Si Si2 0.172788 0.084388 0.088888
Si Si3 0.315850 0.267085 0.171825
Si Si4 0.500000 0.867808 0.872922
O O1 0.588043 0.306506 0.901918
O O2 0.500000 0.048648 0.887272
O O3 0.500000 0.200398 0.031127
O O4 0.262623 0.182768 0.096564
O O5 0.173938 0.946211 0.155273
O O6 0.166258 0.000000 0.000000
O O7 0.250000 0.243971 0.250000
O O8 0.412264 0.190191 0.174923
#
# Coordination Sequence:
#
# PCOD9482119 Si02
#       4
#     8  16  16   8
#     4  11  24  44  79 115 144 187 253 311 363 437
#     4  12  24  45  74 112 147 198 247 306 361 441
#     4  12  27  46  73 109 154 198 244 306 377 445
#     4  11  25  47  76 112 149 190 249 309 373 441
#
# _framework density 23.064046000000001
#
# number of rings (size 3 to 8) (size 9 to 14) (size 15 to 20)
#    0.000    0.333    3.333    5.500    4.667    1.333 
#    0.000    6.667    0.000    0.000    0.000    0.000 
#    0.000    0.000    0.000    0.000    0.000    0.000 
#
# Total GULP energy -134591.190845 kJ/mol
# GULP energy per Si atom -5607.966285 kJ/mol
# Density = 2.301155 g / cm^3
# Si number density = 23.064046 Si / 1000 Ang^3
#
#
#
# Elastic Constant Matrix: (Units=GPa)
#
#
# Indices 1 2 3 4 5 6 
#
# 1 237.3758 99.6385 48.1021 0.0000 0.0000 0.0000
# 2 99.6385 178.2324 47.5454 0.0000 0.0000 0.0000
# 3 48.1021 47.5454 71.5697 0.0000 0.0000 0.0000
# 4 0.0000 0.0000 0.0000 24.9498 0.0000 0.0000
# 5 0.0000 0.0000 0.0000 0.0000 35.2580 0.0000
# 6 0.0000 0.0000 0.0000 0.0000 0.0000 52.3882
#
#
#
# Elastic Compliance Matrix: (Units=1/GPa)
#
#
# Indices 1 2 3 4 5 6 
#
# 1 0.005753 -0.002655 -0.002103 0.000000 0.000000 0.000000
# 2 -0.002655 0.008045 -0.003560 0.000000 0.000000 0.000000
# 3 -0.002103 -0.003560 0.017750 0.000000 0.000000 0.000000
# 4 0.000000 0.000000 0.000000 0.040081 0.000000 0.000000
# 5 0.000000 0.000000 0.000000 0.000000 0.028362 0.000000
# 6 0.000000 0.000000 0.000000 0.000000 0.000000 0.019088
#
#
# Mechanical properties :
#
#
# Convention : Reuss Voigt Hill
#
# Bulk Modulus (GPa) = 67.05601 97.52776 82.29189
# Shear Modulus (GPa) = 35.54005 41.97866 38.75935
#
# Velocity S-wave (km/s) = 3.92972 4.27088 4.10385
# Velocity P-wave (km/s) = 7.05176 8.16688 7.62972
#
# Compressibility (1/GPa) = 0.01491291
#
# Stress axis : x y z
#
# Youngs Moduli (GPa) = 173.80791 124.30559 56.33669
#
# Poissons Ratio (x) = 0.33009 0.11847
# Poissons Ratio (y) = 0.46154 0.20053
# Poissons Ratio (z) = 0.36549 0.44247
#
# Static dielectric constant tensor:
#      x y z
#    x 1.791640 0.000000 0.000000 
#    y 0.000000 1.806420 0.000000 
#    z 0.000000 0.000000 1.960680 
# 
# From -- ./inp_files/31457.got.cif
#   From: 2010.05.17/outbox.cif.g08.bks.cpg/sg64_16_cif.got.tgz:31457.got - 2010.06.03 16:29:19.
