data_PCOD9482759
_publ_section_title
;
Structure prediction by ZEFSAII (Michael W. Deem and Ramdas Pophale) SiO2 
 PCOD9482759
Probable space group: C M M M
;
_chemical_formula_sum "Si O2"
_cell_formula_units_Z 80
_cell_length_a 8.714142
_cell_length_b 18.350609
_cell_length_c 26.949706
_cell_angle_alpha 90.000000
_cell_angle_beta 90.000000
_cell_angle_gamma 90.000000
_cell_volume 4309.522436
_symmetry_space_group_name_H-M "C M M M"
_symmetry_group_IT_number 65
_symmetry_cell_setting 'orthorhombic'
loop_
_space_group_symop_operation_xyz
x,y,z
-x,-y,z
x,-y,-z
-x,y,-z
-x,-y,-z
x,y,-z
-x,y,z
x,-y,z
1/2+x,1/2+y,z
1/2-x,1/2-y,z
1/2+x,1/2-y,-z
1/2-x,1/2+y,-z
1/2-x,1/2-y,-z
1/2+x,1/2+y,-z
1/2-x,1/2+y,z
1/2+x,1/2-y,z
loop_
_atom_site_type_symbol
_atom_site_label
_atom_site_fract_x
_atom_site_fract_y
_atom_site_fract_z
Si Si1 0.817639 0.331458 0.257305
Si Si2 0.320308 0.586732 0.649543
Si Si3 0.316148 0.832494 0.054411
Si Si4 0.683187 0.667303 0.155213
Si Si5 0.316303 0.168833 0.556805
O O1 0.750000 0.250000 0.263481
O O2 0.770828 0.377132 0.305217
O O3 0.745684 0.364422 0.206772
O O4 0.000000 0.326619 0.251842
O O5 0.500000 0.605985 0.654421
O O6 0.304957 0.500000 0.651143
O O7 0.257004 0.617245 0.597790
O O8 0.500000 0.828870 0.059809
O O9 0.250000 0.750000 0.052671
O O10 0.244013 0.866942 0.103857
O O11 0.281229 0.865394 0.000000
O O12 0.500000 0.669759 0.155231
O O13 0.750000 0.750000 0.155418
O O14 0.281030 0.146601 0.500000
O O15 0.500000 0.170626 0.562497
O O16 0.250000 0.250000 0.563877
#
# Coordination Sequence:
#
# PCOD9482759 Si02
#       5
#    16  16  16  16  16
#     4  11  21  35  55  76 102 135 175 219 263 313
#     4  11  24  40  57  79 109 142 176 216 263 313
#     4   9  15  22  33  52  82 120 160 201 249 305
#     4  10  17  26  41  62  90 123 164 209 255 307
#     4  10  21  38  61  87 114 144 179 217 256 303
#
# _framework density 18.563542000000002
#
# number of rings (size 3 to 8) (size 9 to 14) (size 15 to 20)
#    0.000    1.800    0.000    8.400    0.000    4.400 
#    0.000    2.000    0.000    0.000    0.000    0.000 
#    0.000    0.800    0.000    8.400    0.000    7.000 
#
# Total GULP energy -223239.372368 kJ/mol
# GULP energy per Si atom -5580.984309 kJ/mol
# Density = 1.852129 g / cm^3
# Si number density = 18.563542 Si / 1000 Ang^3
#
#
#
# Elastic Constant Matrix: (Units=GPa)
#
#
# Indices 1 2 3 4 5 6 
#
# 1 150.2752 26.7428 73.2611 0.0000 0.0000 0.0000
# 2 26.7428 16.8255 35.6436 0.0000 0.0000 0.0000
# 3 73.2611 35.6436 153.4325 0.0000 0.0000 0.0000
# 4 0.0000 0.0000 0.0000 -8.7514 0.0000 0.0000
# 5 0.0000 0.0000 0.0000 0.0000 38.7754 0.0000
# 6 0.0000 0.0000 0.0000 0.0000 0.0000 17.3383
#
#
#
# Elastic Compliance Matrix: (Units=1/GPa)
#
#
# Indices 1 2 3 4 5 6 
#
# 1 0.009594 -0.010917 -0.002045 0.000000 0.000000 0.000000
# 2 -0.010917 0.129447 -0.024859 0.000000 0.000000 0.000000
# 3 -0.002045 -0.024859 0.013269 0.000000 0.000000 0.000000
# 4 0.000000 0.000000 0.000000 -0.114267 0.000000 0.000000
# 5 0.000000 0.000000 0.000000 0.000000 0.025790 0.000000
# 6 0.000000 0.000000 0.000000 0.000000 0.000000 0.057676
#
#
# Mechanical properties :
#
#
# Convention : Reuss Voigt Hill
#
# Bulk Modulus (GPa) = 13.04319 65.75868 39.40094
# Shear Modulus (GPa) = 22.45106 21.79818 22.12462
#
# Velocity S-wave (km/s) = 3.48144 3.43045 3.45604
# Velocity P-wave (km/s) = 4.81685 7.15479 6.09890
#
# Compressibility (1/GPa) = 0.07666836
#
# Stress axis : x y z
#
# Youngs Moduli (GPa) = 104.22974 7.72515 75.36474
#
# Poissons Ratio (x) = 0.08434 0.15411
# Poissons Ratio (y) = 1.13791 1.87348
# Poissons Ratio (z) = 0.21314 0.19204
#
# Static dielectric constant tensor:
#      x y z
#    x 1.621950 0.000000 0.000000 
#    y 0.000000 1.600650 0.000000 
#    z 0.000000 0.000000 1.701490 
# 
# From -- ./inp_files/72716.got.cif
#   From: 2010.05.17/outbox.cif.g08.bks.cpg/sg65_37_cif.got.tgz:72716.got - 2010.06.03 17:01:31.
