data_PCOD9482715
_publ_section_title
;
Structure prediction by ZEFSAII (Michael W. Deem and Ramdas Pophale) SiO2 
 PCOD9482715
Probable space group: C M M M
;
_chemical_formula_sum "Si O2"
_cell_formula_units_Z 104
_cell_length_a 29.087670
_cell_length_b 8.722080
_cell_length_c 27.190149
_cell_angle_alpha 90.000000
_cell_angle_beta 90.000000
_cell_angle_gamma 90.000000
_cell_volume 6898.276337
_symmetry_space_group_name_H-M "C M M M"
_symmetry_group_IT_number 65
_symmetry_cell_setting 'orthorhombic'
loop_
_space_group_symop_operation_xyz
x,y,z
-x,-y,z
x,-y,-z
-x,y,-z
-x,-y,-z
x,y,-z
-x,y,z
x,-y,z
1/2+x,1/2+y,z
1/2-x,1/2-y,z
1/2+x,1/2-y,-z
1/2-x,1/2+y,-z
1/2-x,1/2-y,-z
1/2+x,1/2+y,-z
1/2-x,1/2+y,z
1/2+x,1/2-y,z
loop_
_atom_site_type_symbol
_atom_site_label
_atom_site_fract_x
_atom_site_fract_y
_atom_site_fract_z
Si Si1 0.360731 0.815405 0.851595
Si Si2 0.055817 0.673194 0.000000
Si Si3 0.697939 0.683202 0.653953
Si Si4 0.698621 0.185057 0.945297
Si Si5 0.552917 0.682912 0.104357
Si Si6 0.301938 0.183639 0.554015
Si Si7 0.801567 0.684402 0.756079
O O1 0.332297 0.763183 0.899772
O O2 0.411395 0.747015 0.856294
O O3 0.332918 0.773986 0.802598
O O4 0.363807 0.000000 0.853337
O O5 0.067976 0.755677 0.050636
O O6 0.074254 0.500000 0.000000
O O7 0.000000 0.667353 0.000000
O O8 0.699391 0.500000 0.654283
O O9 0.750000 0.750000 0.653868
O O10 0.676335 0.743568 0.602964
O O11 0.678689 0.747651 0.705143
O O12 0.750000 0.250000 0.940118
O O13 0.700804 0.000000 0.943687
O O14 0.681410 0.229122 0.000000
O O15 0.500000 0.732696 0.112532
O O16 0.553867 0.500000 0.103693
O O17 0.322635 0.217971 0.500000
O O18 0.250000 0.250000 0.552183
O O19 0.299558 0.000000 0.559565
O O20 0.798599 0.500000 0.752301
O O21 0.750000 0.750000 0.763108
#
# Coordination Sequence:
#
# PCOD9482715 Si02
#       7
#    16   8  16  16  16  16  16
#     4  10  21  33  48  68  86 112 144 175 212 257
#     4   9  17  31  51  69  86 109 132 157 195 245
#     4  10  17  25  38  54  75 105 140 177 219 256
#     4   9  18  32  47  64  86 109 136 170 207 251
#     4  10  21  35  50  70  93 112 135 170 209 253
#     4   9  15  22  33  50  73 101 134 173 215 254
#     4  10  19  31  45  62  85 111 147 186 219 256
#
# _framework density 15.076231
#
# number of rings (size 3 to 8) (size 9 to 14) (size 15 to 20)
#    0.000    2.385    0.000    5.308    1.077    4.615 
#    0.000    0.000    0.000    0.000    0.000    0.000 
#    0.000    0.000    0.000    0.000    0.000    0.769 
#
# Total GULP energy -289837.449774 kJ/mol
# GULP energy per Si atom -5573.797111 kJ/mol
# Density = 1.504192 g / cm^3
# Si number density = 15.076231 Si / 1000 Ang^3
#
#
#
# Elastic Constant Matrix: (Units=GPa)
#
#
# Indices 1 2 3 4 5 6 
#
# 1 50.1139 21.1466 51.4890 0.0000 0.0000 0.0000
# 2 21.1466 56.3146 50.4051 0.0000 0.0000 0.0000
# 3 51.4890 50.4051 148.8824 0.0000 0.0000 0.0000
# 4 0.0000 0.0000 0.0000 23.1021 0.0000 0.0000
# 5 0.0000 0.0000 0.0000 0.0000 5.6330 0.0000
# 6 0.0000 0.0000 0.0000 0.0000 0.0000 16.4003
#
#
#
# Elastic Compliance Matrix: (Units=1/GPa)
#
#
# Indices 1 2 3 4 5 6 
#
# 1 0.031293 -0.002962 -0.009820 0.000000 0.000000 0.000000
# 2 -0.002962 0.025758 -0.007696 0.000000 0.000000 0.000000
# 3 -0.009820 -0.007696 0.012718 0.000000 0.000000 0.000000
# 4 0.000000 0.000000 0.000000 0.043286 0.000000 0.000000
# 5 0.000000 0.000000 0.000000 0.000000 0.177524 0.000000
# 6 0.000000 0.000000 0.000000 0.000000 0.000000 0.060975
#
#
# Mechanical properties :
#
#
# Convention : Reuss Voigt Hill
#
# Bulk Modulus (GPa) = 34.70474 55.71025 45.20749
# Shear Modulus (GPa) = 12.43424 17.84510 15.13967
#
# Velocity S-wave (km/s) = 2.87498 3.44417 3.17236
# Velocity P-wave (km/s) = 5.83868 7.26973 6.59314
#
# Compressibility (1/GPa) = 0.02881451
#
# Stress axis : x y z
#
# Youngs Moduli (GPa) = 31.95559 38.82250 78.62643
#
# Poissons Ratio (x) = 0.11498 0.77209
# Poissons Ratio (y) = 0.09464 0.60514
# Poissons Ratio (z) = 0.31379 0.29879
#
# Static dielectric constant tensor:
#      x y z
#    x 1.482260 0.000000 0.000000 
#    y 0.000000 1.501380 0.000000 
#    z 0.000000 0.000000 1.552500 
# 
# From -- ./inp_files/76250.got.cif
#   From: 2010.05.17/outbox.cif.g08.bks.cpg/sg65_39_cif.got.tgz:76250.got - 2010.06.03 17:01:31.
