data_PCOD9482056
_publ_section_title
;
Structure prediction by ZEFSAII (Michael W. Deem and Ramdas Pophale) SiO2 
 PCOD9482056
Probable space group: C M C A
;
_chemical_formula_sum "Si O2"
_cell_formula_units_Z 96
_cell_length_a 24.265059
_cell_length_b 18.474957
_cell_length_c 10.374034
_cell_angle_alpha 90.000000
_cell_angle_beta 90.000000
_cell_angle_gamma 90.000000
_cell_volume 4650.637133
_symmetry_space_group_name_H-M "C M C A"
_symmetry_group_IT_number 64
_symmetry_cell_setting 'orthorhombic'
loop_
_space_group_symop_operation_xyz
x,y,z
-x,1/2-y,1/2+z
x,-y,-z
-x,1/2+y,1/2-z
-x,-y,-z
x,1/2+y,1/2-z
-x,y,z
x,1/2-y,1/2+z
1/2+x,1/2+y,z
1/2-x,-y,1/2+z
1/2+x,1/2-y,-z
1/2-x,y,1/2-z
1/2-x,1/2-y,-z
1/2+x,y,1/2-z
1/2-x,1/2+y,z
1/2+x,-y,1/2+z
loop_
_atom_site_type_symbol
_atom_site_label
_atom_site_fract_x
_atom_site_fract_y
_atom_site_fract_z
Si Si1 0.118548 0.437599 0.237877
Si Si2 0.297902 0.175532 0.819386
Si Si3 0.683037 0.912722 0.749576
Si Si4 0.385601 0.639049 0.010271
Si Si5 0.000000 0.514562 0.847578
Si Si6 0.829174 0.778547 0.583761
Si Si7 0.000000 0.573217 0.406920
O O1 0.148550 0.372977 0.165395
O O2 0.153827 0.510578 0.225855
O O3 0.119760 0.412008 0.385851
O O4 0.056554 0.445600 0.189361
O O5 0.250000 0.129091 0.750000
O O6 0.193974 0.235843 0.791149
O O7 0.290446 0.206024 0.960962
O O8 0.750000 0.915009 0.750000
O O9 0.661027 0.883087 0.612661
O O10 0.659650 0.856790 0.855696
O O11 0.445414 0.619567 0.065516
O O12 0.375417 0.722544 0.969263
O O13 0.000000 0.449367 0.743052
O O14 0.000000 0.500000 0.000000
O O15 0.000000 0.500000 0.500000
#
# Coordination Sequence:
#
# PCOD9482056 Si02
#       7
#    16  16  16  16   8  16   8
#     4  11  25  45  70 103 139 181 244 299 354 436
#     4  11  24  42  68  98 140 190 236 292 358 431
#     4  12  25  41  69 107 143 183 237 297 358 429
#     4  11  23  45  74 102 134 192 248 285 350 443
#     4  12  26  44  70 108 140 178 225 308 385 411
#     4  11  25  42  66  97 144 186 233 284 362 428
#     4  12  20  46  78  98 134 189 244 295 351 424
#
# _framework density 20.642333000000001
#
# number of rings (size 3 to 8) (size 9 to 14) (size 15 to 20)
#    0.000    0.667    5.000    2.000    7.000    0.000 
#    3.000    2.500    0.000    0.000    0.000    0.000 
#    0.000    0.000    0.000    0.000    0.000    0.000 
#
# Total GULP energy -267853.212209 kJ/mol
# GULP energy per Si atom -5580.275254 kJ/mol
# Density = 2.059535 g / cm^3
# Si number density = 20.642333 Si / 1000 Ang^3
#
#
#
# Elastic Constant Matrix: (Units=GPa)
#
#
# Indices 1 2 3 4 5 6 
#
# 1 161.2161 64.1573 54.5483 0.0000 0.0000 0.0000
# 2 64.1573 108.1872 62.8326 0.0000 0.0000 0.0000
# 3 54.5483 62.8326 169.1287 0.0000 0.0000 0.0000
# 4 0.0000 0.0000 0.0000 19.5018 0.0000 0.0000
# 5 0.0000 0.0000 0.0000 0.0000 32.1158 0.0000
# 6 0.0000 0.0000 0.0000 0.0000 0.0000 -24.5954
#
#
#
# Elastic Compliance Matrix: (Units=1/GPa)
#
#
# Indices 1 2 3 4 5 6 
#
# 1 0.008270 -0.004278 -0.001078 0.000000 0.000000 0.000000
# 2 -0.004278 0.014000 -0.003821 0.000000 0.000000 0.000000
# 3 -0.001078 -0.003821 0.007680 0.000000 0.000000 0.000000
# 4 0.000000 0.000000 0.000000 0.051277 0.000000 0.000000
# 5 0.000000 0.000000 0.000000 0.000000 0.031137 0.000000
# 6 0.000000 0.000000 0.000000 0.000000 0.000000 -0.040658
#
#
# Mechanical properties :
#
#
# Convention : Reuss Voigt Hill
#
# Bulk Modulus (GPa) = 86.24438 89.06758 87.65598
# Shear Modulus (GPa) = 53.23357 22.53739 37.88548
#
# Velocity S-wave (km/s) = 5.08375 3.30783 4.28872
# Velocity P-wave (km/s) = 8.73673 7.60465 8.19027
#
# Compressibility (1/GPa) = 0.01159496
#
# Stress axis : x y z
#
# Youngs Moduli (GPa) = 120.91642 71.43067 130.21073
#
# Poissons Ratio (x) = 0.30561 0.14035
# Poissons Ratio (y) = 0.51733 0.49754
# Poissons Ratio (z) = 0.13033 0.27294
#
# Static dielectric constant tensor:
#      x y z
#    x 1.753490 0.000000 0.000000 
#    y 0.000000 1.764800 0.000000 
#    z 0.000000 0.000000 1.751940 
# 
# From -- ./inp_files/18396.got.cif
#   From: 2010.05.17/outbox.cif.g08.bks.cpg/sg64_10_cif.got.tgz:18396.got - 2010.06.03 16:29:19.
