data_PCOD9482146
_publ_section_title
;
Structure prediction by ZEFSAII (Michael W. Deem and Ramdas Pophale) SiO2 
 PCOD9482146
Probable space group: C M C A
;
_chemical_formula_sum "Si O2"
_cell_formula_units_Z 72
_cell_length_a 18.731808
_cell_length_b 18.603504
_cell_length_c 9.144667
_cell_angle_alpha 90.000000
_cell_angle_beta 90.000000
_cell_angle_gamma 90.000000
_cell_volume 3186.708546
_symmetry_space_group_name_H-M "C M C A"
_symmetry_group_IT_number 64
_symmetry_cell_setting 'orthorhombic'
loop_
_space_group_symop_operation_xyz
x,y,z
-x,1/2-y,1/2+z
x,-y,-z
-x,1/2+y,1/2-z
-x,-y,-z
x,1/2+y,1/2-z
-x,y,z
x,1/2-y,1/2+z
1/2+x,1/2+y,z
1/2-x,-y,1/2+z
1/2+x,1/2-y,-z
1/2-x,y,1/2-z
1/2-x,1/2-y,-z
1/2+x,y,1/2-z
1/2-x,1/2+y,z
1/2+x,-y,1/2+z
loop_
_atom_site_type_symbol
_atom_site_label
_atom_site_fract_x
_atom_site_fract_y
_atom_site_fract_z
Si Si1 0.250000 0.422343 0.250000
Si Si2 0.766602 0.667570 0.029621
Si Si3 0.000000 0.775318 0.930060
Si Si4 0.000000 0.356852 0.261205
Si Si5 0.895706 0.515554 0.667465
Si Si6 0.127884 0.638294 0.282117
O O1 0.279666 0.373135 0.379346
O O2 0.187741 0.470040 0.315677
O O3 0.834725 0.664198 0.134605
O O4 0.695768 0.634359 0.106593
O O5 0.750000 0.750000 0.000000
O O6 0.930079 0.809764 0.853929
O O7 0.000000 0.691414 0.884752
O O8 0.000000 0.801929 0.099076
O O9 0.065273 0.412976 0.277313
O O10 0.915859 0.500000 0.500000
O O11 0.907831 0.439277 0.744616
#
# Coordination Sequence:
#
# PCOD9482146 Si02
#       6
#     8  16   8   8  16  16
#     4  12  24  40  74 106 134 182 240 288 350 426
#     4  11  25  43  70 107 146 185 230 297 360 424
#     4  12  27  46  69 108 135 191 241 299 359 438
#     4  12  28  47  76  99 147 191 245 297 373 435
#     4  12  24  46  73 104 136 193 237 291 357 429
#     4  11  25  45  73 100 146 188 240 290 359 431
#
# _framework density 22.593845999999999
#
# number of rings (size 3 to 8) (size 9 to 14) (size 15 to 20)
#    0.000    0.444    4.444    3.667    9.333    0.000 
#    0.000    0.000    0.000    4.000    0.000    0.000 
#    0.000    0.000    0.000    0.000    0.000    0.000 
#
# Total GULP energy -201485.080657 kJ/mol
# GULP energy per Si atom -5596.807796 kJ/mol
# Density = 2.254242 g / cm^3
# Si number density = 22.593846 Si / 1000 Ang^3
#
#
#
# Elastic Constant Matrix: (Units=GPa)
#
#
# Indices 1 2 3 4 5 6 
#
# 1 92.7607 13.0347 9.2578 0.0000 0.0000 0.0000
# 2 13.0347 152.6777 21.4878 0.0000 0.0000 0.0000
# 3 9.2578 21.4878 75.8824 0.0000 0.0000 0.0000
# 4 0.0000 0.0000 0.0000 45.7275 0.0000 0.0000
# 5 0.0000 0.0000 0.0000 0.0000 13.1919 0.0000
# 6 0.0000 0.0000 0.0000 0.0000 0.0000 73.6956
#
#
#
# Elastic Compliance Matrix: (Units=1/GPa)
#
#
# Indices 1 2 3 4 5 6 
#
# 1 0.011002 -0.000782 -0.001121 0.000000 0.000000 0.000000
# 2 -0.000782 0.006877 -0.001852 0.000000 0.000000 0.000000
# 3 -0.001121 -0.001852 0.013840 0.000000 0.000000 0.000000
# 4 0.000000 0.000000 0.000000 0.021869 0.000000 0.000000
# 5 0.000000 0.000000 0.000000 0.000000 0.075804 0.000000
# 6 0.000000 0.000000 0.000000 0.000000 0.000000 0.013569
#
#
# Mechanical properties :
#
#
# Convention : Reuss Voigt Hill
#
# Bulk Modulus (GPa) = 41.30590 45.43128 43.36859
# Shear Modulus (GPa) = 31.53784 45.02568 38.28176
#
# Velocity S-wave (km/s) = 3.74017 4.46895 4.12071
# Velocity P-wave (km/s) = 6.08058 6.83961 6.47123
#
# Compressibility (1/GPa) = 0.02420961
#
# Stress axis : x y z
#
# Youngs Moduli (GPa) = 90.89158 145.40955 72.25690
#
# Poissons Ratio (x) = 0.11364 0.08100
# Poissons Ratio (y) = 0.07103 0.13382
# Poissons Ratio (z) = 0.10189 0.26931
#
# Static dielectric constant tensor:
#      x y z
#    x 1.865410 0.000000 0.000000 
#    y 0.000000 1.860110 0.000000 
#    z 0.000000 0.000000 1.828850 
# 
# From -- ./inp_files/9189.got.cif
#   From: 2010.05.17/outbox.cif.g08.bks.cpg/sg64_5_cif.got.tgz:9189.got - 2010.06.03 16:29:19.
