data_PCOD9482319
_publ_section_title
;
Structure prediction by ZEFSAII (Michael W. Deem and Ramdas Pophale) SiO2 
 PCOD9482319
Probable space group: C M C A
;
_chemical_formula_sum "Si O2"
_cell_formula_units_Z 112
_cell_length_a 7.384362
_cell_length_b 28.372306
_cell_length_c 29.625877
_cell_angle_alpha 90.000000
_cell_angle_beta 90.000000
_cell_angle_gamma 90.000000
_cell_volume 6206.958323
_symmetry_space_group_name_H-M "C M C A"
_symmetry_group_IT_number 64
_symmetry_cell_setting 'orthorhombic'
loop_
_space_group_symop_operation_xyz
x,y,z
-x,1/2-y,1/2+z
x,-y,-z
-x,1/2+y,1/2-z
-x,-y,-z
x,1/2+y,1/2-z
-x,y,z
x,1/2-y,1/2+z
1/2+x,1/2+y,z
1/2-x,-y,1/2+z
1/2+x,1/2-y,-z
1/2-x,y,1/2-z
1/2-x,1/2-y,-z
1/2+x,y,1/2-z
1/2-x,1/2+y,z
1/2+x,-y,1/2+z
loop_
_atom_site_type_symbol
_atom_site_label
_atom_site_fract_x
_atom_site_fract_y
_atom_site_fract_z
Si Si1 0.783734 0.197673 0.517063
Si Si2 0.719268 0.350401 0.393969
Si Si3 0.278981 0.894354 0.965176
Si Si4 0.718730 0.053560 0.945959
Si Si5 0.716125 0.991593 0.199023
Si Si6 0.778594 0.961883 0.608468
Si Si7 0.716475 0.883509 0.199093
O O1 0.750000 0.250000 0.500000
O O2 0.715903 0.186036 0.567778
O O3 0.717945 0.156737 0.482873
O O4 0.000000 0.191685 0.518894
O O5 0.500000 0.346058 0.392758
O O6 0.761723 0.402038 0.414166
O O7 0.783683 0.351561 0.342323
O O8 0.500000 0.893628 0.965064
O O9 0.221050 0.914195 0.916763
O O10 0.223366 0.931784 0.003970
O O11 0.500000 0.050461 0.947799
O O12 0.779684 0.005508 0.923274
O O13 0.500000 0.988411 0.193437
O O14 0.750000 0.008020 0.250000
O O15 0.785979 0.937601 0.195182
O O16 0.782315 0.025171 0.158901
O O17 0.000000 0.961359 0.608988
O O18 0.500000 0.886447 0.194094
O O19 0.750000 0.866840 0.250000
#
# Coordination Sequence:
#
# PCOD9482319 Si02
#       7
#    16  16  16  16  16  16  16
#     4   9  17  29  44  61  81 104 130 164 204 245
#     4   8  13  23  38  56  80 108 132 156 194 239
#     4   8  14  21  34  57  80  99 125 160 194 228
#     4   8  11  17  30  52  81 105 124 151 189 227
#     4   9  16  24  36  54  79 109 137 161 187 223
#     4   9  13  19  33  55  80 104 129 159 192 222
#     4   9  15  24  37  55  80 108 135 160 187 226
#
# _framework density 18.044264999999999
#
# number of rings (size 3 to 8) (size 9 to 14) (size 15 to 20)
#    0.000    3.429    1.429    2.143    0.000    1.714 
#    0.000    0.714    0.000    0.857    0.000    1.000 
#    0.000   10.571    0.000    0.000    0.000    0.000 
#
# Total GULP energy -311883.499596 kJ/mol
# GULP energy per Si atom -5569.348207 kJ/mol
# Density = 1.800320 g / cm^3
# Si number density = 18.044265 Si / 1000 Ang^3
#
#
#
# Elastic Constant Matrix: (Units=GPa)
#
#
# Indices 1 2 3 4 5 6 
#
# 1 59.9351 1.7929 3.8073 0.0000 0.0000 0.0000
# 2 1.7929 87.0937 90.1647 0.0000 0.0000 0.0000
# 3 3.8073 90.1647 180.4439 0.0000 0.0000 0.0000
# 4 0.0000 0.0000 0.0000 16.5193 0.0000 0.0000
# 5 0.0000 0.0000 0.0000 0.0000 7.6388 0.0000
# 6 0.0000 0.0000 0.0000 0.0000 0.0000 4.2999
#
#
#
# Elastic Compliance Matrix: (Units=1/GPa)
#
#
# Indices 1 2 3 4 5 6 
#
# 1 0.016707 0.000044 -0.000374 0.000000 0.000000 0.000000
# 2 0.000044 0.023787 -0.011887 0.000000 0.000000 0.000000
# 3 -0.000374 -0.011887 0.011489 0.000000 0.000000 0.000000
# 4 0.000000 0.000000 0.000000 0.060535 0.000000 0.000000
# 5 0.000000 0.000000 0.000000 0.000000 0.130911 0.000000
# 6 0.000000 0.000000 0.000000 0.000000 0.000000 0.232563
#
#
# Mechanical properties :
#
#
# Convention : Reuss Voigt Hill
#
# Bulk Modulus (GPa) = 36.29968 57.66693 46.98331
# Shear Modulus (GPa) = 9.81141 21.13878 15.47509
#
# Velocity S-wave (km/s) = 2.33436 3.42643 2.93169
# Velocity P-wave (km/s) = 5.23701 6.90520 6.12814
#
# Compressibility (1/GPa) = 0.02754845
#
# Stress axis : x y z
#
# Youngs Moduli (GPa) = 59.85444 42.03977 87.03636
#
# Poissons Ratio (x) = -0.00183 0.03258
# Poissons Ratio (y) = -0.00261 1.03459
# Poissons Ratio (z) = 0.02240 0.49972
#
# Static dielectric constant tensor:
#      x y z
#    x 1.743960 0.000000 0.000000 
#    y 0.000000 1.591520 0.000000 
#    z 0.000000 0.000000 1.663810 
# 
# From -- ./inp_files/44535.got.cif
#   From: 2010.05.17/outbox.cif.g08.bks.cpg/sg64_23_cif.got.tgz:44535.got - 2010.06.03 16:29:19.
