data_PCOD9482596
_publ_section_title
;
Structure prediction by ZEFSAII (Michael W. Deem and Ramdas Pophale) SiO2 
 PCOD9482596
Probable space group: C M M M
;
_chemical_formula_sum "Si O2"
_cell_formula_units_Z 80
_cell_length_a 34.508558
_cell_length_b 20.121831
_cell_length_c 7.405437
_cell_angle_alpha 90.000000
_cell_angle_beta 90.000000
_cell_angle_gamma 90.000000
_cell_volume 5142.153073
_symmetry_space_group_name_H-M "C M M M"
_symmetry_group_IT_number 65
_symmetry_cell_setting 'orthorhombic'
loop_
_space_group_symop_operation_xyz
x,y,z
-x,-y,z
x,-y,-z
-x,y,-z
-x,-y,-z
x,y,-z
-x,y,z
x,-y,z
1/2+x,1/2+y,z
1/2-x,1/2-y,z
1/2+x,1/2-y,-z
1/2-x,1/2+y,-z
1/2-x,1/2-y,-z
1/2+x,1/2+y,-z
1/2-x,1/2+y,z
1/2+x,1/2-y,z
loop_
_atom_site_type_symbol
_atom_site_label
_atom_site_fract_x
_atom_site_fract_y
_atom_site_fract_z
Si Si1 0.956456 0.075166 0.283767
Si Si2 0.622984 0.634289 0.785524
Si Si3 0.746167 0.000000 0.219990
Si Si4 0.336387 0.500000 0.779378
Si Si5 0.689229 0.273875 0.780143
Si Si6 0.233661 0.646038 0.780102
O O1 0.958077 0.071432 0.500000
O O2 0.922764 0.127074 0.241712
O O3 0.000000 0.091007 0.219669
O O4 0.946481 0.000000 0.218038
O O5 0.642155 0.566181 0.715331
O O6 0.648310 0.696303 0.718009
O O7 0.628963 0.633877 0.000000
O O8 0.791467 0.000000 0.270616
O O9 0.728679 0.929699 0.280614
O O10 0.744739 0.000000 0.000000
O O11 0.337539 0.500000 0.000000
O O12 0.723981 0.324697 0.730462
O O13 0.702403 0.200737 0.719823
O O14 0.689181 0.271450 0.000000
O O15 0.233210 0.645331 0.000000
#
# Coordination Sequence:
#
# PCOD9482596 Si02
#       6
#    16  16   8   8  16  16
#     4   9  18  30  39  48  66  90 113 139 172 207
#     4  10  16  23  36  52  69  88 114 148 177 199
#     4   9  12  16  26  40  66  97 119 141 170 201
#     4   9  14  18  26  48  71  86 110 145 175 192
#     4   8  13  19  27  43  67  90 112 141 175 202
#     4   8  12  17  25  40  65  94 117 138 169 204
#
# _framework density 15.557684999999999
#
# number of rings (size 3 to 8) (size 9 to 14) (size 15 to 20)
#    0.000    3.200    3.000    1.800    0.000    0.400 
#    0.000    1.000    0.000    0.000    0.000    2.800 
#    0.000    0.000    0.000    0.900    0.000   22.000 
#
# Total GULP energy -222828.132054 kJ/mol
# GULP energy per Si atom -5570.703301 kJ/mol
# Density = 1.552228 g / cm^3
# Si number density = 15.557685 Si / 1000 Ang^3
#
#
#
# Elastic Constant Matrix: (Units=GPa)
#
#
# Indices 1 2 3 4 5 6 
#
# 1 110.2291 66.8991 0.0336 0.0000 0.0000 0.0000
# 2 66.8991 128.1256 3.8434 0.0000 0.0000 0.0000
# 3 0.0336 3.8434 48.9272 0.0000 0.0000 0.0000
# 4 0.0000 0.0000 0.0000 -3.6541 0.0000 0.0000
# 5 0.0000 0.0000 0.0000 0.0000 21.8089 0.0000
# 6 0.0000 0.0000 0.0000 0.0000 0.0000 26.9206
#
#
#
# Elastic Compliance Matrix: (Units=1/GPa)
#
#
# Indices 1 2 3 4 5 6 
#
# 1 0.013295 -0.006958 0.000537 0.000000 0.000000 0.000000
# 2 -0.006958 0.011465 -0.000896 0.000000 0.000000 0.000000
# 3 0.000537 -0.000896 0.020509 0.000000 0.000000 0.000000
# 4 0.000000 0.000000 0.000000 -0.273667 0.000000 0.000000
# 5 0.000000 0.000000 0.000000 0.000000 0.045853 0.000000
# 6 0.000000 0.000000 0.000000 0.000000 0.000000 0.037146
#
#
# Mechanical properties :
#
#
# Convention : Reuss Voigt Hill
#
# Bulk Modulus (GPa) = 32.64188 47.64824 40.14506
# Shear Modulus (GPa) = -41.47446 23.44881 -9.01282
#
# Velocity S-wave (km/s) = -5.16879 3.88650 -2.40951
# Velocity P-wave (km/s) = 3.82035 7.12974 4.25665
#
# Compressibility (1/GPa) = 0.03063549
#
# Stress axis : x y z
#
# Youngs Moduli (GPa) = 75.21883 87.22514 48.76023
#
# Poissons Ratio (x) = 0.60689 -0.02620
# Poissons Ratio (y) = 0.52335 0.04368
# Poissons Ratio (z) = -0.04042 0.07814
#
# Static dielectric constant tensor:
#      x y z
#    x 1.527050 0.000000 0.000000 
#    y 0.000000 1.530050 0.000000 
#    z 0.000000 0.000000 1.599380 
# 
# From -- ./inp_files/18445.got.cif
#   From: 2010.05.17/outbox.cif.g08.bks.cpg/sg65_10_cif.got.tgz:18445.got - 2010.06.03 17:01:31.
