data_PCOD9482066
_publ_section_title
;
Structure prediction by ZEFSAII (Michael W. Deem and Ramdas Pophale) SiO2 
 PCOD9482066
Probable space group: C M C A
;
_chemical_formula_sum "Si O2"
_cell_formula_units_Z 56
_cell_length_a 9.773975
_cell_length_b 18.194160
_cell_length_c 12.157646
_cell_angle_alpha 90.000000
_cell_angle_beta 90.000000
_cell_angle_gamma 90.000000
_cell_volume 2161.985252
_symmetry_space_group_name_H-M "C M C A"
_symmetry_group_IT_number 64
_symmetry_cell_setting 'orthorhombic'
loop_
_space_group_symop_operation_xyz
x,y,z
-x,1/2-y,1/2+z
x,-y,-z
-x,1/2+y,1/2-z
-x,-y,-z
x,1/2+y,1/2-z
-x,y,z
x,1/2-y,1/2+z
1/2+x,1/2+y,z
1/2-x,-y,1/2+z
1/2+x,1/2-y,-z
1/2-x,y,1/2-z
1/2-x,1/2-y,-z
1/2+x,y,1/2-z
1/2-x,1/2+y,z
1/2+x,-y,1/2+z
loop_
_atom_site_type_symbol
_atom_site_label
_atom_site_fract_x
_atom_site_fract_y
_atom_site_fract_z
Si Si1 0.500000 0.119763 0.587170
Si Si2 0.000000 0.703859 0.787287
Si Si3 0.000000 0.877267 0.825672
Si Si4 0.834858 0.925108 0.658167
Si Si5 0.301350 0.591335 0.600191
O O1 0.500000 0.195864 0.654758
O O2 0.500000 0.115601 0.457999
O O3 0.640545 0.083942 0.623177
O O4 0.872200 0.659477 0.838849
O O5 0.000000 0.788419 0.815062
O O6 0.163431 0.910552 0.805147
O O7 0.821762 0.897270 0.530156
O O8 0.000000 0.896599 0.682243
O O9 0.853622 0.012804 0.640644
#
# Coordination Sequence:
#
# PCOD9482066 Si02
#       5
#     8   8   8  16  16
#     4  12  26  49  76 116 151 208 259 318 386 473
#     4  12  28  48  74 115 160 211 257 313 388 469
#     4  12  28  46  76 113 160 206 265 316 389 469
#     4  11  23  46  76 112 150 198 260 328 379 459
#     4  11  26  49  80 112 157 205 260 324 396 453
#
# _framework density 25.902121000000001
#
# number of rings (size 3 to 8) (size 9 to 14) (size 15 to 20)
#    0.000    0.571    2.857    4.286    4.000    9.143 
#    0.000    0.000    0.000    1.714    0.000    0.000 
#    0.000    0.000    0.000    0.000    0.000    0.000 
#
# Total GULP energy -156477.772744 kJ/mol
# GULP energy per Si atom -5588.491884 kJ/mol
# Density = 2.584317 g / cm^3
# Si number density = 25.902121 Si / 1000 Ang^3
#
#
#
# Elastic Constant Matrix: (Units=GPa)
#
#
# Indices 1 2 3 4 5 6 
#
# 1 242.0147 84.4289 92.9487 0.0000 0.0000 0.0000
# 2 84.4289 150.0515 28.5668 0.0000 0.0000 0.0000
# 3 92.9487 28.5668 212.5615 0.0000 0.0000 0.0000
# 4 0.0000 0.0000 0.0000 29.0313 0.0000 0.0000
# 5 0.0000 0.0000 0.0000 0.0000 62.5102 0.0000
# 6 0.0000 0.0000 0.0000 0.0000 0.0000 20.3238
#
#
#
# Elastic Compliance Matrix: (Units=1/GPa)
#
#
# Indices 1 2 3 4 5 6 
#
# 1 0.006025 -0.002964 -0.002236 0.000000 0.000000 0.000000
# 2 -0.002964 0.008298 0.000181 0.000000 0.000000 0.000000
# 3 -0.002236 0.000181 0.005658 0.000000 0.000000 0.000000
# 4 0.000000 0.000000 0.000000 0.034446 0.000000 0.000000
# 5 0.000000 0.000000 0.000000 0.000000 0.015997 0.000000
# 6 0.000000 0.000000 0.000000 0.000000 0.000000 0.049203
#
#
# Mechanical properties :
#
#
# Convention : Reuss Voigt Hill
#
# Bulk Modulus (GPa) = 100.58435 112.94629 106.76532
# Shear Modulus (GPa) = 37.59965 48.95195 43.27580
#
# Velocity S-wave (km/s) = 3.81413 4.35199 4.09191
# Velocity P-wave (km/s) = 7.63633 8.30378 7.97704
#
# Compressibility (1/GPa) = 0.00994190
#
# Stress axis : x y z
#
# Youngs Moduli (GPa) = 165.97668 120.51352 176.73995
#
# Poissons Ratio (x) = 0.35724 0.39523
# Poissons Ratio (y) = 0.49201 -0.03200
# Poissons Ratio (z) = 0.37116 -0.02182
#
# Static dielectric constant tensor:
#      x y z
#    x 2.192900 0.000000 0.000000 
#    y 0.000000 1.837190 0.000000 
#    z 0.000000 0.000000 2.048240 
# 
# From -- ./inp_files/20721.got.cif
#   From: 2010.05.17/outbox.cif.g08.bks.cpg/sg64_11_cif.got.tgz:20721.got - 2010.06.03 16:29:19.
