data_PCOD9482125
_publ_section_title
;
Structure prediction by ZEFSAII (Michael W. Deem and Ramdas Pophale) SiO2 
 PCOD9482125
Probable space group: C M C A
;
_chemical_formula_sum "Si O2"
_cell_formula_units_Z 72
_cell_length_a 27.027457
_cell_length_b 16.860070
_cell_length_c 7.888045
_cell_angle_alpha 90.000000
_cell_angle_beta 90.000000
_cell_angle_gamma 90.000000
_cell_volume 3594.462342
_symmetry_space_group_name_H-M "C M C A"
_symmetry_group_IT_number 64
_symmetry_cell_setting 'orthorhombic'
loop_
_space_group_symop_operation_xyz
x,y,z
-x,1/2-y,1/2+z
x,-y,-z
-x,1/2+y,1/2-z
-x,-y,-z
x,1/2+y,1/2-z
-x,y,z
x,1/2-y,1/2+z
1/2+x,1/2+y,z
1/2-x,-y,1/2+z
1/2+x,1/2-y,-z
1/2-x,y,1/2-z
1/2-x,1/2-y,-z
1/2+x,y,1/2-z
1/2-x,1/2+y,z
1/2+x,-y,1/2+z
loop_
_atom_site_type_symbol
_atom_site_label
_atom_site_fract_x
_atom_site_fract_y
_atom_site_fract_z
Si Si1 0.055115 0.435306 0.850712
Si Si2 0.138126 0.670349 0.980280
Si Si3 0.908092 0.000000 0.000000
Si Si4 0.653681 0.348249 0.089355
Si Si5 0.243916 0.407261 0.951521
O O1 0.062615 0.481754 0.673171
O O2 0.000000 0.399115 0.849888
O O3 0.057646 0.500000 0.000000
O O4 0.097194 0.371725 0.901419
O O5 0.133648 0.654200 0.780884
O O6 0.140102 0.764255 0.008552
O O7 0.191509 0.633027 0.017320
O O8 0.873406 0.923368 0.010885
O O9 0.712046 0.364772 0.056762
O O10 0.250000 0.400942 0.750000
O O11 0.243160 0.500000 0.000000
#
# Coordination Sequence:
#
# PCOD9482125 Si02
#       5
#    16  16   8  16  16
#     4  11  24  46  73 102 136 181 233 287 348 410
#     4  12  25  45  67 101 140 182 230 294 344 415
#     4  12  23  46  72 104 138 184 231 286 352 420
#     4  12  25  43  68 101 139 182 231 282 355 419
#     4  12  24  40  65 100 137 184 231 280 348 424
#
# _framework density 20.030812000000001
#
# number of rings (size 3 to 8) (size 9 to 14) (size 15 to 20)
#    0.000    0.222    3.333    7.667    0.000    0.000 
#    0.000    5.556    0.000    0.000    0.000    0.000 
#    0.000    0.000    0.000    0.000    0.000    0.000 
#
# Total GULP energy -201214.261653 kJ/mol
# GULP energy per Si atom -5589.285046 kJ/mol
# Density = 1.998522 g / cm^3
# Si number density = 20.030812 Si / 1000 Ang^3
#
#
#
# Elastic Constant Matrix: (Units=GPa)
#
#
# Indices 1 2 3 4 5 6 
#
# 1 136.2443 59.8879 35.3462 0.0000 0.0000 0.0000
# 2 59.8879 125.7737 23.3224 0.0000 0.0000 0.0000
# 3 35.3462 23.3224 112.7486 0.0000 0.0000 0.0000
# 4 0.0000 0.0000 0.0000 88.3137 0.0000 0.0000
# 5 0.0000 0.0000 0.0000 0.0000 32.2592 0.0000
# 6 0.0000 0.0000 0.0000 0.0000 0.0000 35.4095
#
#
#
# Elastic Compliance Matrix: (Units=1/GPa)
#
#
# Indices 1 2 3 4 5 6 
#
# 1 0.009774 -0.004249 -0.002185 0.000000 0.000000 0.000000
# 2 -0.004249 0.010115 -0.000760 0.000000 0.000000 0.000000
# 3 -0.002185 -0.000760 0.009712 0.000000 0.000000 0.000000
# 4 0.000000 0.000000 0.000000 0.011323 0.000000 0.000000
# 5 0.000000 0.000000 0.000000 0.000000 0.030999 0.000000
# 6 0.000000 0.000000 0.000000 0.000000 0.000000 0.028241
#
#
# Mechanical properties :
#
#
# Convention : Reuss Voigt Hill
#
# Bulk Modulus (GPa) = 65.73801 67.98663 66.86232
# Shear Modulus (GPa) = 41.79772 48.27715 45.03744
#
# Velocity S-wave (km/s) = 4.57297 4.91465 4.74688
# Velocity P-wave (km/s) = 7.79566 8.13755 7.96844
#
# Compressibility (1/GPa) = 0.01521190
#
# Stress axis : x y z
#
# Youngs Moduli (GPa) = 102.30856 98.86404 102.96909
#
# Poissons Ratio (x) = 0.42006 0.22502
# Poissons Ratio (y) = 0.43470 0.07829
# Poissons Ratio (z) = 0.22358 0.07517
#
# Static dielectric constant tensor:
#      x y z
#    x 1.713980 0.000000 0.000000 
#    y 0.000000 1.691190 0.000000 
#    z 0.000000 0.000000 1.779200 
# 
# From -- ./inp_files/10017.got.cif
#   From: 2010.05.17/outbox.cif.g08.bks.cpg/sg64_6_cif.got.tgz:10017.got - 2010.06.03 16:29:19.
