data_PCOD9482843
_publ_section_title
;
Structure prediction by ZEFSAII (Michael W. Deem and Ramdas Pophale) SiO2 
 PCOD9482843
Probable space group: C M M M
;
_chemical_formula_sum "Si O2"
_cell_formula_units_Z 72
_cell_length_a 13.438237
_cell_length_b 13.945176
_cell_length_c 18.467450
_cell_angle_alpha 90.000000
_cell_angle_beta 90.000000
_cell_angle_gamma 90.000000
_cell_volume 3460.773908
_symmetry_space_group_name_H-M "C M M M"
_symmetry_group_IT_number 65
_symmetry_cell_setting 'orthorhombic'
loop_
_space_group_symop_operation_xyz
x,y,z
-x,-y,z
x,-y,-z
-x,y,-z
-x,-y,-z
x,y,-z
-x,y,z
x,-y,z
1/2+x,1/2+y,z
1/2-x,1/2-y,z
1/2+x,1/2-y,-z
1/2-x,1/2+y,-z
1/2-x,1/2-y,-z
1/2+x,1/2+y,-z
1/2-x,1/2+y,z
1/2+x,1/2-y,z
loop_
_atom_site_type_symbol
_atom_site_label
_atom_site_fract_x
_atom_site_fract_y
_atom_site_fract_z
Si Si1 0.118859 0.102334 0.648244
Si Si2 0.880887 0.310011 0.668958
Si Si3 0.887791 0.883272 0.916649
Si Si4 0.251550 0.390322 0.788130
Si Si5 0.878535 0.500000 0.417583
O O1 0.146314 0.211329 0.627625
O O2 0.157947 0.101267 0.730613
O O3 0.000000 0.100615 0.645218
O O4 0.151801 0.000000 0.614211
O O5 0.829336 0.325358 0.746941
O O6 0.849147 0.403767 0.624288
O O7 0.000000 0.311247 0.677216
O O8 0.800640 0.854979 0.862070
O O9 0.000000 0.852025 0.895125
O O10 0.888846 0.000000 0.914692
O O11 0.871286 0.854553 0.000000
O O12 0.212153 0.500000 0.797226
O O13 0.845050 0.500000 0.500000
O O14 0.000000 0.500000 0.418100
#
# Coordination Sequence:
#
# PCOD9482843 Si02
#       5
#    16  16  16  16   8
#     4   9  18  31  49  75 103 134 173 222 271 314
#     4  10  19  32  51  77 107 136 173 222 271 318
#     4   8  14  25  43  71 109 148 185 226 268 312
#     4  10  17  27  48  76 106 139 174 220 270 317
#     4   9  18  34  56  80 104 135 178 222 264 313
#
# _framework density 20.804594000000002
#
# number of rings (size 3 to 8) (size 9 to 14) (size 15 to 20)
#    0.000    2.778    1.111    2.000    0.000    2.667 
#    0.000    0.000    0.000    6.667    0.000   10.889 
#    0.000    5.333    0.000    2.444    0.000    0.222 
#
# Total GULP energy -200561.420822 kJ/mol
# GULP energy per Si atom -5571.150578 kJ/mol
# Density = 2.075724 g / cm^3
# Si number density = 20.804594 Si / 1000 Ang^3
#
#
#
# Elastic Constant Matrix: (Units=GPa)
#
#
# Indices 1 2 3 4 5 6 
#
# 1 84.4248 51.4468 28.9694 0.0000 0.0000 0.0000
# 2 51.4468 182.0750 37.0622 0.0000 0.0000 0.0000
# 3 28.9694 37.0622 71.8097 0.0000 0.0000 0.0000
# 4 0.0000 0.0000 0.0000 0.1758 0.0000 0.0000
# 5 0.0000 0.0000 0.0000 0.0000 21.0983 0.0000
# 6 0.0000 0.0000 0.0000 0.0000 0.0000 32.6126
#
#
#
# Elastic Compliance Matrix: (Units=1/GPa)
#
#
# Indices 1 2 3 4 5 6 
#
# 1 0.015488 -0.003469 -0.004458 0.000000 0.000000 0.000000
# 2 -0.003469 0.006914 -0.002169 0.000000 0.000000 0.000000
# 3 -0.004458 -0.002169 0.016844 0.000000 0.000000 0.000000
# 4 0.000000 0.000000 0.000000 5.686852 0.000000 0.000000
# 5 0.000000 0.000000 0.000000 0.000000 0.047397 0.000000
# 6 0.000000 0.000000 0.000000 0.000000 0.000000 0.030663
#
#
# Mechanical properties :
#
#
# Convention : Reuss Voigt Hill
#
# Bulk Modulus (GPa) = 52.48183 63.69627 58.08905
# Shear Modulus (GPa) = 0.85753 25.49943 13.17848
#
# Velocity S-wave (km/s) = 0.64271 3.50475 2.51956
# Velocity P-wave (km/s) = 5.08248 6.86007 6.03706
#
# Compressibility (1/GPa) = 0.01905421
#
# Stress axis : x y z
#
# Youngs Moduli (GPa) = 64.56415 144.63559 59.36993
#
# Poissons Ratio (x) = 0.50174 0.26467
# Poissons Ratio (y) = 0.22397 0.12877
# Poissons Ratio (z) = 0.28782 0.31371
#
# Static dielectric constant tensor:
#      x y z
#    x 1.776560 0.000000 0.000000 
#    y 0.000000 1.881730 0.000000 
#    z 0.000000 0.000000 1.707980 
# 
# From -- ./inp_files/52722.got.cif
#   From: 2010.05.17/outbox.cif.g08.bks.cpg/sg65_27_cif.got.tgz:52722.got - 2010.06.03 17:01:31.
