data_PCOD9482267
_publ_section_title
;
Structure prediction by ZEFSAII (Michael W. Deem and Ramdas Pophale) SiO2 
 PCOD9482267
Probable space group: C M C A
;
_chemical_formula_sum "Si O2"
_cell_formula_units_Z 96
_cell_length_a 15.214621
_cell_length_b 19.081259
_cell_length_c 15.391627
_cell_angle_alpha 90.000000
_cell_angle_beta 90.000000
_cell_angle_gamma 90.000000
_cell_volume 4468.406708
_symmetry_space_group_name_H-M "C M C A"
_symmetry_group_IT_number 64
_symmetry_cell_setting 'orthorhombic'
loop_
_space_group_symop_operation_xyz
x,y,z
-x,1/2-y,1/2+z
x,-y,-z
-x,1/2+y,1/2-z
-x,-y,-z
x,1/2+y,1/2-z
-x,y,z
x,1/2-y,1/2+z
1/2+x,1/2+y,z
1/2-x,-y,1/2+z
1/2+x,1/2-y,-z
1/2-x,y,1/2-z
1/2-x,1/2-y,-z
1/2+x,y,1/2-z
1/2-x,1/2+y,z
1/2+x,-y,1/2+z
loop_
_atom_site_type_symbol
_atom_site_label
_atom_site_fract_x
_atom_site_fract_y
_atom_site_fract_z
Si Si1 0.900553 0.723234 0.709826
Si Si2 0.606049 0.871958 0.138585
Si Si3 0.775970 0.917263 0.519794
Si Si4 0.103486 0.489711 0.282145
Si Si5 0.665958 0.130517 0.207886
Si Si6 0.395058 0.881585 0.435653
O O1 0.865270 0.693441 0.800884
O O2 0.901635 0.806166 0.703896
O O3 0.866871 0.685688 0.622592
O O4 0.000000 0.694201 0.711827
O O5 0.500000 0.870065 0.119516
O O6 0.624760 0.938486 0.201577
O O7 0.663848 0.879886 0.053093
O O8 0.815291 0.899244 0.613025
O O9 0.674911 0.891580 0.511771
O O10 0.779907 0.000000 0.500000
O O11 0.147021 0.564366 0.269044
O O12 0.120834 0.447342 0.370357
O O13 0.000000 0.501875 0.278760
O O14 0.750000 0.167344 0.250000
O O15 0.500000 0.879245 0.458343
#
# Coordination Sequence:
#
# PCOD9482267 Si02
#       6
#    16  16  16  16  16  16
#     4   9  21  43  65  88 123 172 213 253 319 389
#     4   9  20  39  65  95 124 164 210 259 322 386
#     4  12  24  39  65 101 129 165 214 273 327 373
#     4   9  18  37  64  90 123 165 209 262 320 382
#     4  12  25  38  58  94 131 166 213 266 323 385
#     4   9  21  42  68  92 123 171 219 259 316 389
#
# _framework density 21.484166999999999
#
# number of rings (size 3 to 8) (size 9 to 14) (size 15 to 20)
#    0.000    2.000    1.667    3.500    2.333    4.000 
#    0.000    1.667    0.000    0.000    0.000    0.000 
#    0.000    0.000    0.000    0.000    0.000    0.000 
#
# Total GULP energy -267932.973208 kJ/mol
# GULP energy per Si atom -5581.936942 kJ/mol
# Density = 2.143527 g / cm^3
# Si number density = 21.484167 Si / 1000 Ang^3
#
#
#
# Elastic Constant Matrix: (Units=GPa)
#
#
# Indices 1 2 3 4 5 6 
#
# 1 50.4731 24.1493 14.0491 0.0000 0.0000 0.0000
# 2 24.1493 85.4122 0.1225 0.0000 0.0000 0.0000
# 3 14.0491 0.1225 31.2717 0.0000 0.0000 0.0000
# 4 0.0000 0.0000 0.0000 13.5424 0.0000 0.0000
# 5 0.0000 0.0000 0.0000 0.0000 12.3218 0.0000
# 6 0.0000 0.0000 0.0000 0.0000 0.0000 13.3136
#
#
#
# Elastic Compliance Matrix: (Units=1/GPa)
#
#
# Indices 1 2 3 4 5 6 
#
# 1 0.026763 -0.007550 -0.011994 0.000000 0.000000 0.000000
# 2 -0.007550 0.013838 0.003338 0.000000 0.000000 0.000000
# 3 -0.011994 0.003338 0.037353 0.000000 0.000000 0.000000
# 4 0.000000 0.000000 0.000000 0.073842 0.000000 0.000000
# 5 0.000000 0.000000 0.000000 0.000000 0.081157 0.000000
# 6 0.000000 0.000000 0.000000 0.000000 0.000000 0.075111
#
#
# Mechanical properties :
#
#
# Convention : Reuss Voigt Hill
#
# Bulk Modulus (GPa) = 21.95790 27.08876 24.52333
# Shear Modulus (GPa) = 14.05847 16.42464 15.24156
#
# Velocity S-wave (km/s) = 2.56083 2.76796 2.66641
# Velocity P-wave (km/s) = 4.35735 4.78033 4.57373
#
# Compressibility (1/GPa) = 0.04554169
#
# Stress axis : x y z
#
# Youngs Moduli (GPa) = 37.36451 72.26600 26.77148
#
# Poissons Ratio (x) = 0.54560 0.32110
# Poissons Ratio (y) = 0.28210 -0.08935
# Poissons Ratio (z) = 0.44815 -0.24120
#
# Static dielectric constant tensor:
#      x y z
#    x 1.826460 0.000000 0.000000 
#    y 0.000000 1.768790 0.000000 
#    z 0.000000 0.000000 1.764490 
# 
# From -- ./inp_files/23950.got.cif
#   From: 2010.05.17/outbox.cif.g08.bks.cpg/sg64_12_cif.got.tgz:23950.got - 2010.06.03 16:29:19.
