data_PCOD9482381
_publ_section_title
;
Structure prediction by ZEFSAII (Michael W. Deem and Ramdas Pophale) SiO2 
 PCOD9482381
Probable space group: C M C A
;
_chemical_formula_sum "Si O2"
_cell_formula_units_Z 58
_cell_length_a 18.000000
_cell_length_b 27.000000
_cell_length_c 12.000000
_cell_angle_alpha 90.000000
_cell_angle_beta 90.000000
_cell_angle_gamma 90.000000
_cell_volume 5832.000000
_symmetry_space_group_name_H-M "C M C A"
_symmetry_group_IT_number 64
_symmetry_cell_setting 'orthorhombic'
loop_
_space_group_symop_operation_xyz
x,y,z
-x,1/2-y,1/2+z
x,-y,-z
-x,1/2+y,1/2-z
-x,-y,-z
x,1/2+y,1/2-z
-x,y,z
x,1/2-y,1/2+z
1/2+x,1/2+y,z
1/2-x,-y,1/2+z
1/2+x,1/2-y,-z
1/2-x,y,1/2-z
1/2-x,1/2-y,-z
1/2+x,y,1/2-z
1/2-x,1/2+y,z
1/2+x,-y,1/2+z
loop_
_atom_site_type_symbol
_atom_site_label
_atom_site_fract_x
_atom_site_fract_y
_atom_site_fract_z
Si Si1 0.500000 0.500000 0.500000
Si Si2 0.340177 0.679910 0.380840
Si Si3 0.201900 0.573060 0.923520
Si Si4 0.586701 0.840117 0.108576
Si Si5 0.355120 0.975474 0.852542
Si Si6 0.330471 0.289219 0.198487
Si Si7 0.910825 0.395060 0.704377
Si Si8 0.813163 0.644183 0.491675
O O1 0.565503 0.511078 0.407044
O O2 0.385604 0.686492 0.495816
O O3 0.333801 0.730711 0.315181
O O4 0.384389 0.641452 0.303781
O O5 0.257681 0.662288 0.417810
O O6 0.137092 0.610798 0.888531
O O7 0.193100 0.524932 0.848840
O O8 0.184093 0.557484 0.051480
O O9 0.279718 0.600985 0.929416
O O10 0.500000 0.851999 0.101857
O O11 0.607735 0.808494 0.216417
O O12 0.370588 0.946146 0.739885
O O13 0.250000 0.303026 0.250000
O O14 0.337064 0.313118 0.076503
O O15 0.876838 0.374564 0.590023
O O16 0.000000 0.399102 0.702185
#
# Coordination Sequence:
#
# PCOD9482381 Si02
#       8
#     4  16  16  16  16  16  16  16
#     4   8  16  28  56  92 124 158 206 252 320 384
#     4  11  24  40  68  92 127 172 228 279 325 394
#     4   9  20  37  63  94 122 164 220 274 313 382
#     4  11  24  40  64  93 127 166 221 279 329 391
#     4  10  19  33  63  97 127 158 210 270 328 371
#     4  12  24  44  65  91 126 178 224 272 333 400
#     4  12  24  39  63 103 144 175 210 274 346 401
#     4  11  23  43  66  93 132 172 223 272 332 400
#
# _framework density 9.9451300000000007
#
# number of rings (size 3 to 8) (size 9 to 14) (size 15 to 20)
#    0.000    1.379    6.207    2.069    5.793    1.655 
#    0.000    5.517    0.000    0.000    0.000    3.862 
#    0.000    0.000    0.000    0.000    0.000    0.000 
#
# Total GULP energy -323457.144641 kJ/mol
# GULP energy per Si atom -5576.847321 kJ/mol
# Density = 0.992249 g / cm^3
# Si number density = 9.945130 Si / 1000 Ang^3
#
#
#
# Elastic Constant Matrix: (Units=GPa)
#
#
# Indices 1 2 3 4 5 6 
#
# 1 62.2259 16.3726 26.4676 0.0000 0.0000 0.0000
# 2 16.3726 84.4157 30.6522 0.0000 0.0000 0.0000
# 3 26.4676 30.6522 60.2358 0.0000 0.0000 0.0000
# 4 0.0000 0.0000 0.0000 -11.1430 0.0000 0.0000
# 5 0.0000 0.0000 0.0000 0.0000 7.4785 0.0000
# 6 0.0000 0.0000 0.0000 0.0000 0.0000 9.3261
#
#
#
# Elastic Compliance Matrix: (Units=1/GPa)
#
#
# Indices 1 2 3 4 5 6 
#
# 1 0.019812 -0.000836 -0.008280 0.000000 0.000000 0.000000
# 2 -0.000836 0.014566 -0.007045 0.000000 0.000000 0.000000
# 3 -0.008280 -0.007045 0.023825 0.000000 0.000000 0.000000
# 4 0.000000 0.000000 0.000000 -0.089742 0.000000 0.000000
# 5 0.000000 0.000000 0.000000 0.000000 0.133717 0.000000
# 6 0.000000 0.000000 0.000000 0.000000 0.000000 0.107226
#
#
# Mechanical properties :
#
#
# Convention : Reuss Voigt Hill
#
# Bulk Modulus (GPa) = 38.63828 39.31803 38.97815
# Shear Modulus (GPa) = 19.97174 10.02464 14.99819
#
# Velocity S-wave (km/s) = 3.17219 2.24742 2.74897
# Velocity P-wave (km/s) = 5.73454 5.15218 5.45114
#
# Compressibility (1/GPa) = 0.02588107
#
# Stress axis : x y z
#
# Youngs Moduli (GPa) = 50.47350 68.65101 41.97325
#
# Poissons Ratio (x) = 0.05740 0.34754
# Poissons Ratio (y) = 0.04220 0.29570
# Poissons Ratio (z) = 0.41793 0.48365
#
# Static dielectric constant tensor:
#      x y z
#    x 1.663550 0.000000 0.000000 
#    y 0.000000 1.762580 0.000000 
#    z 0.000000 0.000000 1.697570 
# 
# From -- ./inp_files/16499.got.cif
#   From: 2010.05.17/outbox.ucp.g08.bks.cvg/sg64_9_cif.got.tgz:16499.got - 2010.06.11 16:36:46.
