data_PCOD9482664
_publ_section_title
;
Structure prediction by ZEFSAII (Michael W. Deem and Ramdas Pophale) SiO2 
 PCOD9482664
Probable space group: C M M M
;
_chemical_formula_sum "Si O2"
_cell_formula_units_Z 88
_cell_length_a 20.854459
_cell_length_b 19.936968
_cell_length_c 12.153951
_cell_angle_alpha 90.000000
_cell_angle_beta 90.000000
_cell_angle_gamma 90.000000
_cell_volume 5053.305109
_symmetry_space_group_name_H-M "C M M M"
_symmetry_group_IT_number 65
_symmetry_cell_setting 'orthorhombic'
loop_
_space_group_symop_operation_xyz
x,y,z
-x,-y,z
x,-y,-z
-x,y,-z
-x,-y,-z
x,y,-z
-x,y,z
x,-y,z
1/2+x,1/2+y,z
1/2-x,1/2-y,z
1/2+x,1/2-y,-z
1/2-x,1/2+y,-z
1/2-x,1/2-y,-z
1/2+x,1/2+y,-z
1/2-x,1/2+y,z
1/2+x,1/2-y,z
loop_
_atom_site_type_symbol
_atom_site_label
_atom_site_fract_x
_atom_site_fract_y
_atom_site_fract_z
Si Si1 0.312654 0.922734 0.236503
Si Si2 0.074806 0.182491 0.629651
Si Si3 0.162685 0.922117 0.244700
Si Si4 0.098233 0.728148 0.000000
Si Si5 0.207497 0.629878 0.000000
Si Si6 0.427941 0.822092 0.755822
Si Si7 0.355629 0.374242 0.000000
O O1 0.238344 0.905105 0.264205
O O2 0.370578 0.873804 0.270993
O O3 0.324004 0.000000 0.267778
O O4 0.311047 0.913778 0.104971
O O5 0.087099 0.188794 0.500000
O O6 0.119736 0.127275 0.684200
O O7 0.084306 0.253627 0.689569
O O8 0.000000 0.164142 0.644946
O O9 0.154635 0.000000 0.273568
O O10 0.141294 0.913057 0.116294
O O11 0.169987 0.699309 0.000000
O O12 0.071807 0.698311 0.885672
O O13 0.099162 0.808751 0.000000
O O14 0.281577 0.647461 0.000000
O O15 0.500000 0.846871 0.728841
#
# Coordination Sequence:
#
# PCOD9482664 Si02
#       7
#    16  16  16   8   8  16   8
#     4   9  18  32  52  79 111 144 177 215 260 311
#     4  10  22  40  59  77 101 138 179 219 264 314
#     4  10  20  35  55  81 110 140 176 216 261 315
#     4  10  16  28  49  77 107 139 175 218 263 305
#     4   8  16  25  45  75 108 144 179 208 248 311
#     4  10  20  34  53  79 110 142 179 220 262 311
#     4  10  16  29  50  77 110 141 167 210 264 313
#
# _framework density 17.414345000000001
#
# number of rings (size 3 to 8) (size 9 to 14) (size 15 to 20)
#    0.000    2.364    1.818    1.091    0.000    4.000 
#    0.000    3.182    0.000    6.000    0.000    2.545 
#    0.000    0.000    0.000    0.000    0.000    0.000 
#
# Total GULP energy -244982.373200 kJ/mol
# GULP energy per Si atom -5567.781209 kJ/mol
# Density = 1.737471 g / cm^3
# Si number density = 17.414345 Si / 1000 Ang^3
#
#
#
# Elastic Constant Matrix: (Units=GPa)
#
#
# Indices 1 2 3 4 5 6 
#
# 1 100.2093 81.9584 58.9084 0.0000 0.0000 0.0000
# 2 81.9584 103.7120 47.1086 0.0000 0.0000 0.0000
# 3 58.9084 47.1086 77.4294 0.0000 0.0000 0.0000
# 4 0.0000 0.0000 0.0000 -1.3561 0.0000 0.0000
# 5 0.0000 0.0000 0.0000 0.0000 -8.0825 0.0000
# 6 0.0000 0.0000 0.0000 0.0000 0.0000 28.2626
#
#
#
# Elastic Compliance Matrix: (Units=1/GPa)
#
#
# Indices 1 2 3 4 5 6 
#
# 1 0.036965 -0.022715 -0.014303 0.000000 0.000000 0.000000
# 2 -0.022715 0.027282 0.000683 0.000000 0.000000 0.000000
# 3 -0.014303 0.000683 0.023382 0.000000 0.000000 0.000000
# 4 0.000000 0.000000 0.000000 -0.737429 0.000000 0.000000
# 5 0.000000 0.000000 0.000000 0.000000 -0.123724 0.000000
# 6 0.000000 0.000000 0.000000 0.000000 0.000000 0.035382
#
#
# Mechanical properties :
#
#
# Convention : Reuss Voigt Hill
#
# Bulk Modulus (GPa) = 66.85260 73.03350 69.94305
# Shear Modulus (GPa) = -7.57019 9.98984 1.20982
#
# Velocity S-wave (km/s) = -2.08723 2.39771 0.83441
# Velocity P-wave (km/s) = 5.71524 7.04947 6.41713
#
# Compressibility (1/GPa) = 0.01495828
#
# Stress axis : x y z
#
# Youngs Moduli (GPa) = 27.05255 36.65377 42.76864
#
# Poissons Ratio (x) = 0.83258 0.61173
# Poissons Ratio (y) = 0.61449 -0.02920
# Poissons Ratio (z) = 0.38694 -0.02502
#
# Static dielectric constant tensor:
#      x y z
#    x 1.611020 0.000000 0.000000 
#    y 0.000000 1.576880 0.000000 
#    z 0.000000 0.000000 1.589210 
# 
# From -- ./inp_files/28767.got.cif
#   From: 2010.05.17/outbox.cif.g08.bks.cpg/sg65_15_cif.got.tgz:28767.got - 2010.06.03 17:01:31.
