data_PCOD9482450
_publ_section_title
;
Structure prediction by ZEFSAII (Michael W. Deem and Ramdas Pophale) SiO2 
 PCOD9482450
Probable space group: C M C A
;
_chemical_formula_sum "Si O2"
_cell_formula_units_Z 40
_cell_length_a 9.000000
_cell_length_b 27.000000
_cell_length_c 18.000000
_cell_angle_alpha 90.000000
_cell_angle_beta 90.000000
_cell_angle_gamma 90.000000
_cell_volume 4374.000000
_symmetry_space_group_name_H-M "C M C A"
_symmetry_group_IT_number 64
_symmetry_cell_setting 'orthorhombic'
loop_
_space_group_symop_operation_xyz
x,y,z
-x,1/2-y,1/2+z
x,-y,-z
-x,1/2+y,1/2-z
-x,-y,-z
x,1/2+y,1/2-z
-x,y,z
x,1/2-y,1/2+z
1/2+x,1/2+y,z
1/2-x,-y,1/2+z
1/2+x,1/2-y,-z
1/2-x,y,1/2-z
1/2-x,1/2-y,-z
1/2+x,y,1/2-z
1/2-x,1/2+y,z
1/2+x,-y,1/2+z
loop_
_atom_site_type_symbol
_atom_site_label
_atom_site_fract_x
_atom_site_fract_y
_atom_site_fract_z
Si Si1 0.675943 0.589666 0.092164
Si Si2 0.179711 0.984184 0.168398
Si Si3 0.176352 0.383989 0.419570
Si Si4 0.679724 0.314824 0.669107
Si Si5 0.681082 0.273875 0.424720
O O1 0.500000 0.596901 0.110559
O O2 0.718077 0.534543 0.121833
O O3 0.769595 0.635310 0.125739
O O4 0.690511 0.595359 0.003522
O O5 0.250000 0.988426 0.250000
O O6 0.223451 0.930900 0.131922
O O7 0.000000 0.983538 0.172697
O O8 0.261837 0.330915 0.413679
O O9 0.000000 0.374240 0.406169
O O10 0.500000 0.310862 0.669010
O O11 0.750000 0.320718 0.750000
O O12 0.753839 0.264889 0.635465
O O13 0.500000 0.273030 0.426672
O O14 0.750000 0.250000 0.500000
#
# Coordination Sequence:
#
# PCOD9482450 Si02
#       5
#    16  16  16  16  16
#     4  10  20  38  64  91 122 161 208 259 310 367
#     4  10  22  39  60  89 124 166 207 253 311 371
#     4  10  21  39  64  90 122 163 211 257 308 370
#     4  12  25  41  63  93 127 164 207 257 314 371
#     4  12  24  41  64  92 125 163 206 255 311 370
#
# _framework density 9.1449470000000002
#
# number of rings (size 3 to 8) (size 9 to 14) (size 15 to 20)
#    0.000    1.200    2.000    4.800    0.000    6.400 
#    0.000    2.000    0.000    3.600    0.000    0.000 
#    0.000    0.000    0.000    0.000    0.000    0.000 
#
# Total GULP energy -223312.727687 kJ/mol
# GULP energy per Si atom -5582.818192 kJ/mol
# Density = 0.912413 g / cm^3
# Si number density = 9.144947 Si / 1000 Ang^3
#
#
#
# Elastic Constant Matrix: (Units=GPa)
#
#
# Indices 1 2 3 4 5 6 
#
# 1 120.2652 64.4054 30.6805 0.0000 0.0000 0.0000
# 2 64.4054 191.1072 43.8491 0.0000 0.0000 0.0000
# 3 30.6805 43.8491 71.4968 0.0000 0.0000 0.0000
# 4 0.0000 0.0000 0.0000 43.8057 0.0000 0.0000
# 5 0.0000 0.0000 0.0000 0.0000 30.0229 0.0000
# 6 0.0000 0.0000 0.0000 0.0000 0.0000 41.0819
#
#
#
# Elastic Compliance Matrix: (Units=1/GPa)
#
#
# Indices 1 2 3 4 5 6 
#
# 1 0.010588 -0.002940 -0.002741 0.000000 0.000000 0.000000
# 2 -0.002940 0.006906 -0.002974 0.000000 0.000000 0.000000
# 3 -0.002741 -0.002974 0.016987 0.000000 0.000000 0.000000
# 4 0.000000 0.000000 0.000000 0.022828 0.000000 0.000000
# 5 0.000000 0.000000 0.000000 0.000000 0.033308 0.000000
# 6 0.000000 0.000000 0.000000 0.000000 0.000000 0.024342
#
#
# Mechanical properties :
#
#
# Convention : Reuss Voigt Hill
#
# Bulk Modulus (GPa) = 58.23350 73.41549 65.82449
# Shear Modulus (GPa) = 36.23431 39.24439 37.73935
#
# Velocity S-wave (km/s) = 4.45580 4.63718 4.54739
# Velocity P-wave (km/s) = 7.64071 8.30050 7.97743
#
# Compressibility (1/GPa) = 0.01717225
#
# Stress axis : x y z
#
# Youngs Moduli (GPa) = 94.44335 144.80860 58.86980
#
# Poissons Ratio (x) = 0.42567 0.16135
# Poissons Ratio (y) = 0.27762 0.17507
# Poissons Ratio (z) = 0.25885 0.43064
#
# Static dielectric constant tensor:
#      x y z
#    x 1.620790 0.000000 0.000000 
#    y 0.000000 1.628190 0.000000 
#    z 0.000000 0.000000 1.667010 
# 
# From -- ./inp_files/29725.got.cif
#   From: 2010.05.17/outbox.ucp.g08.bks.cvg/sg64_15_cif.got.tgz:29725.got - 2010.06.11 16:36:46.
