data_PCOD9482469
_publ_section_title
;
Structure prediction by ZEFSAII (Michael W. Deem and Ramdas Pophale) SiO2 
 PCOD9482469
Probable space group: C M C A
;
_chemical_formula_sum "Si O2"
_cell_formula_units_Z 48
_cell_length_a 21.000000
_cell_length_b 15.000000
_cell_length_c 15.000000
_cell_angle_alpha 90.000000
_cell_angle_beta 90.000000
_cell_angle_gamma 90.000000
_cell_volume 4725.000000
_symmetry_space_group_name_H-M "C M C A"
_symmetry_group_IT_number 64
_symmetry_cell_setting 'orthorhombic'
loop_
_space_group_symop_operation_xyz
x,y,z
-x,1/2-y,1/2+z
x,-y,-z
-x,1/2+y,1/2-z
-x,-y,-z
x,1/2+y,1/2-z
-x,y,z
x,1/2-y,1/2+z
1/2+x,1/2+y,z
1/2-x,-y,1/2+z
1/2+x,1/2-y,-z
1/2-x,y,1/2-z
1/2-x,1/2-y,-z
1/2+x,y,1/2-z
1/2-x,1/2+y,z
1/2+x,-y,1/2+z
loop_
_atom_site_type_symbol
_atom_site_label
_atom_site_fract_x
_atom_site_fract_y
_atom_site_fract_z
Si Si1 0.791343 0.968701 0.842938
Si Si2 0.144832 0.779897 0.461977
Si Si3 0.575760 0.284373 0.273739
Si Si4 0.574738 0.358136 0.622827
Si Si5 0.574529 0.994117 0.262850
Si Si6 0.221029 0.866930 0.022869
O O1 0.750000 0.966342 0.750000
O O2 0.866922 0.965241 0.819657
O O3 0.770324 0.897757 0.918985
O O4 0.783766 0.057741 0.902161
O O5 0.110158 0.769253 0.368081
O O6 0.110050 0.846640 0.529588
O O7 0.155737 0.688618 0.516574
O O8 0.216746 0.812908 0.447915
O O9 0.500000 0.270508 0.285966
O O10 0.596798 0.214569 0.197236
O O11 0.584803 0.387974 0.246250
O O12 0.500000 0.340813 0.607478
O O13 0.580902 0.455003 0.668102
O O14 0.500000 0.009423 0.291959
#
# Coordination Sequence:
#
# PCOD9482469 Si02
#       6
#    16  16  16  16  16  16
#     4  11  21  40  61  82 115 152 189 243 296 338
#     4  11  21  38  55  80 119 150 184 241 284 334
#     4  10  21  37  59  86 114 149 191 234 290 352
#     4  10  21  37  59  86 114 149 191 234 290 352
#     4  10  21  37  59  86 114 149 195 238 285 348
#     4  10  24  36  55  86 110 147 202 230 280 361
#
# _framework density 10.15873
#
# number of rings (size 3 to 8) (size 9 to 14) (size 15 to 20)
#    0.000    1.667    0.000    4.500    0.000    2.000 
#    0.000    9.167    0.000    0.000    0.000    0.000 
#    0.000    0.000    0.000    0.000    0.000    0.000 
#
# Total GULP energy -267793.185707 kJ/mol
# GULP energy per Si atom -5579.024702 kJ/mol
# Density = 1.013561 g / cm^3
# Si number density = 10.158730 Si / 1000 Ang^3
#
#
#
# Elastic Constant Matrix: (Units=GPa)
#
#
# Indices 1 2 3 4 5 6 
#
# 1 59.7761 -6.4549 20.1168 0.0000 0.0000 0.0000
# 2 -6.4549 46.2590 -13.4317 0.0000 0.0000 0.0000
# 3 20.1168 -13.4317 74.9264 0.0000 0.0000 0.0000
# 4 0.0000 0.0000 0.0000 23.5036 0.0000 0.0000
# 5 0.0000 0.0000 0.0000 0.0000 35.1388 0.0000
# 6 0.0000 0.0000 0.0000 0.0000 0.0000 22.2219
#
#
#
# Elastic Compliance Matrix: (Units=1/GPa)
#
#
# Indices 1 2 3 4 5 6 
#
# 1 0.018454 0.001199 -0.004740 0.000000 0.000000 0.000000
# 2 0.001199 0.022882 0.003780 0.000000 0.000000 0.000000
# 3 -0.004740 0.003780 0.015297 0.000000 0.000000 0.000000
# 4 0.000000 0.000000 0.000000 0.042547 0.000000 0.000000
# 5 0.000000 0.000000 0.000000 0.000000 0.028459 0.000000
# 6 0.000000 0.000000 0.000000 0.000000 0.000000 0.045001
#
#
# Mechanical properties :
#
#
# Convention : Reuss Voigt Hill
#
# Bulk Modulus (GPa) = 17.50976 20.15800 18.83388
# Shear Modulus (GPa) = 26.15103 28.22160 27.18631
#
# Velocity S-wave (km/s) = 3.59154 3.73101 3.66194
# Velocity P-wave (km/s) = 5.08288 5.33888 5.21245
#
# Compressibility (1/GPa) = 0.05711099
#
# Stress axis : x y z
#
# Youngs Moduli (GPa) = 54.19000 43.70195 65.37390
#
# Poissons Ratio (x) = -0.05239 0.30985
# Poissons Ratio (y) = -0.06496 -0.24712
# Poissons Ratio (z) = 0.25684 -0.16520
#
# Static dielectric constant tensor:
#      x y z
#    x 1.718610 0.000000 0.000000 
#    y 0.000000 1.822840 0.000000 
#    z 0.000000 0.000000 1.679830 
# 
# From -- ./inp_files/26357.got.cif
#   From: 2010.05.17/outbox.ucp.g08.bks.cvg/sg64_14_cif.got.tgz:26357.got - 2010.06.11 16:36:46.
