data_PCOD9482567
_publ_section_title
;
Structure prediction by ZEFSAII (Michael W. Deem and Ramdas Pophale) SiO2 
 PCOD9482567
Probable space group: C M M M
;
_chemical_formula_sum "Si O2"
_cell_formula_units_Z 72
_cell_length_a 8.546373
_cell_length_b 24.106903
_cell_length_c 21.671550
_cell_angle_alpha 90.000000
_cell_angle_beta 90.000000
_cell_angle_gamma 90.000000
_cell_volume 4464.915436
_symmetry_space_group_name_H-M "C M M M"
_symmetry_group_IT_number 65
_symmetry_cell_setting 'orthorhombic'
loop_
_space_group_symop_operation_xyz
x,y,z
-x,-y,z
x,-y,-z
-x,y,-z
-x,-y,-z
x,y,-z
-x,y,z
x,-y,z
1/2+x,1/2+y,z
1/2-x,1/2-y,z
1/2+x,1/2-y,-z
1/2-x,1/2+y,-z
1/2-x,1/2-y,-z
1/2+x,1/2+y,-z
1/2-x,1/2+y,z
1/2+x,1/2-y,z
loop_
_atom_site_type_symbol
_atom_site_label
_atom_site_fract_x
_atom_site_fract_y
_atom_site_fract_z
Si Si1 0.689766 0.619828 0.616990
Si Si2 0.690614 0.500000 0.571869
Si Si3 0.814348 0.686552 0.000000
Si Si4 0.687388 0.686846 0.127005
Si Si5 0.688912 0.312936 0.263245
Si Si6 0.186708 0.312321 0.500000
O O1 0.500000 0.620803 0.615695
O O2 0.740362 0.556442 0.605475
O O3 0.741327 0.647708 0.681097
O O4 0.751038 0.656062 0.560212
O O5 0.500000 0.500000 0.571066
O O6 0.740919 0.500000 0.500000
O O7 0.750000 0.750000 0.000000
O O8 0.755122 0.660792 0.935641
O O9 0.000000 0.688861 0.000000
O O10 0.500000 0.687510 0.122075
O O11 0.750000 0.750000 0.128273
O O12 0.732776 0.665031 0.194860
O O13 0.500000 0.310076 0.264647
O O14 0.750000 0.250000 0.271128
O O15 0.250000 0.250000 0.500000
O O16 0.000000 0.311922 0.500000
#
# Coordination Sequence:
#
# PCOD9482567 Si02
#       6
#    16   8   8  16  16   8
#     4  10  19  34  52  70  91 118 153 189 226 274
#     4   9  16  30  54  74  88 115 150 187 231 274
#     4  10  16  22  34  54  78 111 148 179 207 246
#     4   9  15  24  36  54  80 112 144 177 214 253
#     4   9  18  29  44  64  89 118 149 183 222 268
#     4  12  24  35  48  69  93 120 150 186 227 272
#
# _framework density 16.125726
#
# number of rings (size 3 to 8) (size 9 to 14) (size 15 to 20)
#    0.000    2.333    1.111    4.667    0.000    3.556 
#    0.000    1.111    0.000    0.000    0.000    0.000 
#    0.000    0.889    0.000   11.333    0.000    2.222 
#
# Total GULP energy -200565.514039 kJ/mol
# GULP energy per Si atom -5571.264279 kJ/mol
# Density = 1.608902 g / cm^3
# Si number density = 16.125726 Si / 1000 Ang^3
#
#
#
# Elastic Constant Matrix: (Units=GPa)
#
#
# Indices 1 2 3 4 5 6 
#
# 1 39.1669 16.5708 37.5872 0.0000 0.0000 0.0000
# 2 16.5708 93.4012 70.3345 0.0000 0.0000 0.0000
# 3 37.5872 70.3345 200.5796 0.0000 0.0000 0.0000
# 4 0.0000 0.0000 0.0000 0.6922 0.0000 0.0000
# 5 0.0000 0.0000 0.0000 0.0000 17.6979 0.0000
# 6 0.0000 0.0000 0.0000 0.0000 0.0000 10.8512
#
#
#
# Elastic Compliance Matrix: (Units=1/GPa)
#
#
# Indices 1 2 3 4 5 6 
#
# 1 0.031293 -0.001544 -0.005323 0.000000 0.000000 0.000000
# 2 -0.001544 0.014624 -0.004839 0.000000 0.000000 0.000000
# 3 -0.005323 -0.004839 0.007680 0.000000 0.000000 0.000000
# 4 0.000000 0.000000 0.000000 1.444577 0.000000 0.000000
# 5 0.000000 0.000000 0.000000 0.000000 0.056504 0.000000
# 6 0.000000 0.000000 0.000000 0.000000 0.000000 0.092156
#
#
# Mechanical properties :
#
#
# Convention : Reuss Voigt Hill
#
# Bulk Modulus (GPa) = 33.12740 64.68140 48.90440
# Shear Modulus (GPa) = 2.97565 19.75862 11.36713
#
# Velocity S-wave (km/s) = 1.35988 3.50421 2.65789
# Velocity P-wave (km/s) = 4.80141 7.52133 6.30967
#
# Compressibility (1/GPa) = 0.03018649
#
# Stress axis : x y z
#
# Youngs Moduli (GPa) = 31.95611 68.38012 130.21237
#
# Poissons Ratio (x) = 0.10555 0.69310
# Poissons Ratio (y) = 0.04933 0.63007
# Poissons Ratio (z) = 0.17010 0.33088
#
# Static dielectric constant tensor:
#      x y z
#    x 1.541710 0.000000 0.000000 
#    y 0.000000 1.500640 0.000000 
#    z 0.000000 0.000000 1.599550 
# 
# From -- ./inp_files/59573.got.cif
#   From: 2010.05.17/outbox.cif.g08.bks.cpg/sg65_30_cif.got.tgz:59573.got - 2010.06.03 17:01:31.
