data_PCOD9482065
_publ_section_title
;
Structure prediction by ZEFSAII (Michael W. Deem and Ramdas Pophale) SiO2 
 PCOD9482065
Probable space group: C M C A
;
_chemical_formula_sum "Si O2"
_cell_formula_units_Z 88
_cell_length_a 20.763805
_cell_length_b 13.183409
_cell_length_c 13.981251
_cell_angle_alpha 90.000000
_cell_angle_beta 90.000000
_cell_angle_gamma 90.000000
_cell_volume 3827.195963
_symmetry_space_group_name_H-M "C M C A"
_symmetry_group_IT_number 64
_symmetry_cell_setting 'orthorhombic'
loop_
_space_group_symop_operation_xyz
x,y,z
-x,1/2-y,1/2+z
x,-y,-z
-x,1/2+y,1/2-z
-x,-y,-z
x,1/2+y,1/2-z
-x,y,z
x,1/2-y,1/2+z
1/2+x,1/2+y,z
1/2-x,-y,1/2+z
1/2+x,1/2-y,-z
1/2-x,y,1/2-z
1/2-x,1/2-y,-z
1/2+x,y,1/2-z
1/2-x,1/2+y,z
1/2+x,-y,1/2+z
loop_
_atom_site_type_symbol
_atom_site_label
_atom_site_fract_x
_atom_site_fract_y
_atom_site_fract_z
Si Si1 0.500000 0.797671 0.784157
Si Si2 0.884579 0.863554 0.449314
Si Si3 0.000000 0.583818 0.601081
Si Si4 0.881108 0.442501 0.846379
Si Si5 0.500000 0.730119 0.058200
Si Si6 0.701082 0.690923 0.068777
Si Si7 0.250000 0.576458 0.250000
Si Si8 0.386031 0.000000 0.500000
O O1 0.500000 0.685266 0.833702
O O2 0.435681 0.865461 0.807887
O O3 0.500000 0.778244 0.670907
O O4 0.855566 0.902544 0.549480
O O5 0.941144 0.792035 0.482062
O O6 0.840767 0.785230 0.392916
O O7 0.911159 0.951496 0.381873
O O8 0.000000 0.623862 0.491952
O O9 0.930913 0.525779 0.594682
O O10 0.819940 0.469873 0.779256
O O11 0.735193 0.641922 0.157786
O O12 0.750000 0.750000 0.000000
O O13 0.658259 0.600176 0.020761
#
# Coordination Sequence:
#
# PCOD9482065 Si02
#       8
#     8  16   8  16   8  16   8   8
#     4  12  24  45  76 105 149 187 249 310 376 447
#     4  11  23  46  73 103 148 194 240 301 384 441
#     4  11  24  48  74 110 143 186 242 310 386 447
#     4  11  24  44  73 107 145 194 244 310 373 454
#     4  12  22  43  71 105 144 187 243 307 364 449
#     4  12  26  47  71 103 149 197 245 302 368 442
#     4  12  28  44  70 110 148 190 260 304 364 456
#     4  11  26  48  76  98 150 195 240 308 376 445
#
# _framework density 22.993335999999999
#
# number of rings (size 3 to 8) (size 9 to 14) (size 15 to 20)
#    0.000    0.545    5.455    1.636    2.545    3.636 
#    3.273    0.000    0.000    0.000    0.000    0.000 
#    0.000    0.000    0.000    0.000    0.000    0.000 
#
# Total GULP energy -245035.191249 kJ/mol
# GULP energy per Si atom -5568.981619 kJ/mol
# Density = 2.294100 g / cm^3
# Si number density = 22.993336 Si / 1000 Ang^3
#
#
#
# Elastic Constant Matrix: (Units=GPa)
#
#
# Indices 1 2 3 4 5 6 
#
# 1 85.3699 26.1325 13.9483 0.0000 0.0000 0.0000
# 2 26.1325 105.4400 15.7170 0.0000 0.0000 0.0000
# 3 13.9483 15.7170 82.4873 0.0000 0.0000 0.0000
# 4 0.0000 0.0000 0.0000 21.9341 0.0000 0.0000
# 5 0.0000 0.0000 0.0000 0.0000 33.4169 0.0000
# 6 0.0000 0.0000 0.0000 0.0000 0.0000 52.8645
#
#
#
# Elastic Compliance Matrix: (Units=1/GPa)
#
#
# Indices 1 2 3 4 5 6 
#
# 1 0.012881 -0.002952 -0.001616 0.000000 0.000000 0.000000
# 2 -0.002952 0.010438 -0.001490 0.000000 0.000000 0.000000
# 3 -0.001616 -0.001490 0.012680 0.000000 0.000000 0.000000
# 4 0.000000 0.000000 0.000000 0.045591 0.000000 0.000000
# 5 0.000000 0.000000 0.000000 0.000000 0.029925 0.000000
# 6 0.000000 0.000000 0.000000 0.000000 0.000000 0.018916
#
#
# Mechanical properties :
#
#
# Convention : Reuss Voigt Hill
#
# Bulk Modulus (GPa) = 41.86754 42.76588 42.31671
# Shear Modulus (GPa) = 33.22098 36.14305 34.68202
#
# Velocity S-wave (km/s) = 3.80519 3.96901 3.88796
# Velocity P-wave (km/s) = 6.12813 6.29632 6.21280
#
# Compressibility (1/GPa) = 0.02388485
#
# Stress axis : x y z
#
# Youngs Moduli (GPa) = 77.63220 95.80684 78.86349
#
# Poissons Ratio (x) = 0.28279 0.12743
# Poissons Ratio (y) = 0.22914 0.11748
# Poissons Ratio (z) = 0.12544 0.14272
#
# Static dielectric constant tensor:
#      x y z
#    x 2.001890 0.000000 0.000000 
#    y 0.000000 1.883060 0.000000 
#    z 0.000000 0.000000 1.857370 
# 
# From -- ./inp_files/26285.got.cif
#   From: 2010.05.17/outbox.cif.g08.bks.cpg/sg64_14_cif.got.tgz:26285.got - 2010.06.03 16:29:19.
