data_PCOD9482513
_publ_section_title
;
Structure prediction by ZEFSAII (Michael W. Deem and Ramdas Pophale) SiO2 
 PCOD9482513
Probable space group: C M C A
;
_chemical_formula_sum "Si O2"
_cell_formula_units_Z 48
_cell_length_a 9.000000
_cell_length_b 24.000000
_cell_length_c 27.000000
_cell_angle_alpha 90.000000
_cell_angle_beta 90.000000
_cell_angle_gamma 90.000000
_cell_volume 5832.000000
_symmetry_space_group_name_H-M "C M C A"
_symmetry_group_IT_number 64
_symmetry_cell_setting 'orthorhombic'
loop_
_space_group_symop_operation_xyz
x,y,z
-x,1/2-y,1/2+z
x,-y,-z
-x,1/2+y,1/2-z
-x,-y,-z
x,1/2+y,1/2-z
-x,y,z
x,1/2-y,1/2+z
1/2+x,1/2+y,z
1/2-x,-y,1/2+z
1/2+x,1/2-y,-z
1/2-x,y,1/2-z
1/2-x,1/2-y,-z
1/2+x,y,1/2-z
1/2-x,1/2+y,z
1/2+x,-y,1/2+z
loop_
_atom_site_type_symbol
_atom_site_label
_atom_site_fract_x
_atom_site_fract_y
_atom_site_fract_z
Si Si1 0.326274 0.921392 0.612689
Si Si2 0.179085 0.833673 0.803961
Si Si3 0.819613 0.261758 0.118671
Si Si4 0.179447 0.860820 0.070984
Si Si5 0.326319 0.821179 0.535022
Si Si6 0.322565 0.980369 0.056192
O O1 0.500000 0.937718 0.618249
O O2 0.279498 0.886628 0.661397
O O3 0.319543 0.876792 0.567963
O O4 0.228112 0.972810 0.595257
O O5 0.250000 0.835381 0.750000
O O6 0.218299 0.777388 0.834512
O O7 0.000000 0.834548 0.800367
O O8 0.745177 0.321879 0.114122
O O9 0.764527 0.226828 0.070401
O O10 0.000000 0.265922 0.117072
O O11 0.240495 0.923278 0.069931
O O12 0.000000 0.861023 0.071909
O O13 0.235898 0.834127 0.018788
O O14 0.500000 0.807517 0.527814
O O15 0.500000 0.972742 0.057115
O O16 0.281692 0.000000 0.000000
#
# Coordination Sequence:
#
# PCOD9482513 Si02
#       6
#    16  16  16  16  16  16
#     4   9  17  33  53  74 101 136 174 211 251 300
#     4   9  19  35  58  81 103 131 165 211 266 311
#     4   9  18  33  49  71 103 134 165 208 255 301
#     4  11  20  30  48  72 100 140 177 206 244 296
#     4   8  15  28  47  69  98 134 169 202 243 292
#     4  11  22  33  47  72 105 141 177 213 252 297
#
# _framework density 8.2304530000000007
#
# number of rings (size 3 to 8) (size 9 to 14) (size 15 to 20)
#    0.000    2.500    1.667    3.500    0.000    2.000 
#    0.000    3.333    0.000    1.000    0.000    7.000 
#    0.000    0.000    0.000    0.000    0.000    0.000 
#
# Total GULP energy -267438.130744 kJ/mol
# GULP energy per Si atom -5571.627724 kJ/mol
# Density = 0.821172 g / cm^3
# Si number density = 8.230453 Si / 1000 Ang^3
#
#
#
# Elastic Constant Matrix: (Units=GPa)
#
#
# Indices 1 2 3 4 5 6 
#
# 1 39.3230 39.4309 33.4491 0.0000 0.0000 0.0000
# 2 39.4309 105.6858 62.1725 0.0000 0.0000 0.0000
# 3 33.4491 62.1725 106.4079 0.0000 0.0000 0.0000
# 4 0.0000 0.0000 0.0000 6.9040 0.0000 0.0000
# 5 0.0000 0.0000 0.0000 0.0000 24.4423 0.0000
# 6 0.0000 0.0000 0.0000 0.0000 0.0000 21.8071
#
#
#
# Elastic Compliance Matrix: (Units=1/GPa)
#
#
# Indices 1 2 3 4 5 6 
#
# 1 0.043278 -0.012409 -0.006354 0.000000 0.000000 0.000000
# 2 -0.012409 0.017976 -0.006602 0.000000 0.000000 0.000000
# 3 -0.006354 -0.006602 0.015253 0.000000 0.000000 0.000000
# 4 0.000000 0.000000 0.000000 0.144845 0.000000 0.000000
# 5 0.000000 0.000000 0.000000 0.000000 0.040913 0.000000
# 6 0.000000 0.000000 0.000000 0.000000 0.000000 0.045857
#
#
# Mechanical properties :
#
#
# Convention : Reuss Voigt Hill
#
# Bulk Modulus (GPa) = 38.79532 57.94684 48.37108
# Shear Modulus (GPa) = 13.60754 18.38829 15.99792
#
# Velocity S-wave (km/s) = 2.87829 3.34591 3.12087
# Velocity P-wave (km/s) = 5.88773 7.08562 6.51427
#
# Compressibility (1/GPa) = 0.02577631
#
# Stress axis : x y z
#
# Youngs Moduli (GPa) = 23.10621 55.63083 65.56207
#
# Poissons Ratio (x) = 0.69032 0.41659
# Poissons Ratio (y) = 0.28673 0.43285
# Poissons Ratio (z) = 0.14682 0.36728
#
# Static dielectric constant tensor:
#      x y z
#    x 1.549910 0.000000 0.000000 
#    y 0.000000 1.575680 0.000000 
#    z 0.000000 0.000000 1.543770 
# 
# From -- ./inp_files/43073.got.cif
#   From: 2010.05.17/outbox.ucp.g08.bks.cvg/sg64_22_cif.got.tgz:43073.got - 2010.06.11 16:36:46.
