data_PCOD9482749
_publ_section_title
;
Structure prediction by ZEFSAII (Michael W. Deem and Ramdas Pophale) SiO2 
 PCOD9482749
Probable space group: C M M M
;
_chemical_formula_sum "Si O2"
_cell_formula_units_Z 88
_cell_length_a 8.749730
_cell_length_b 15.008474
_cell_length_c 30.515880
_cell_angle_alpha 90.000000
_cell_angle_beta 90.000000
_cell_angle_gamma 90.000000
_cell_volume 4007.348267
_symmetry_space_group_name_H-M "C M M M"
_symmetry_group_IT_number 65
_symmetry_cell_setting 'orthorhombic'
loop_
_space_group_symop_operation_xyz
x,y,z
-x,-y,z
x,-y,-z
-x,y,-z
-x,-y,-z
x,y,-z
-x,y,z
x,-y,z
1/2+x,1/2+y,z
1/2-x,1/2-y,z
1/2+x,1/2-y,-z
1/2-x,1/2+y,-z
1/2-x,1/2-y,-z
1/2+x,1/2+y,-z
1/2-x,1/2+y,z
1/2+x,1/2-y,z
loop_
_atom_site_type_symbol
_atom_site_label
_atom_site_fract_x
_atom_site_fract_y
_atom_site_fract_z
Si Si1 0.683777 0.105149 0.590354
Si Si2 0.820660 0.108078 0.500000
Si Si3 0.183310 0.149286 0.951917
Si Si4 0.819450 0.151352 0.774863
Si Si5 0.317540 0.851310 0.863040
Si Si6 0.172319 0.394442 0.684795
O O1 0.500000 0.110986 0.589525
O O2 0.749549 0.142982 0.545313
O O3 0.732864 0.141390 0.638098
O O4 0.726068 0.000000 0.589695
O O5 0.000000 0.124422 0.500000
O O6 0.795478 0.000000 0.500000
O O7 0.250000 0.250000 0.953637
O O8 0.256087 0.107707 0.908362
O O9 0.000000 0.152909 0.946896
O O10 0.216865 0.109318 0.000000
O O11 0.750000 0.250000 0.773610
O O12 0.742389 0.107298 0.817634
O O13 0.775445 0.115225 0.727345
O O14 0.000000 0.152352 0.781252
O O15 0.500000 0.848166 0.863161
O O16 0.250000 0.750000 0.863085
O O17 0.156033 0.500000 0.677936
O O18 0.000000 0.358332 0.693461
#
# Coordination Sequence:
#
# PCOD9482749 Si02
#       6
#    16   8  16  16  16  16
#     4   8  14  25  41  60  85 118 150 180 220 271
#     4   9  15  21  33  57  88 117 146 183 222 261
#     4   9  15  22  33  51  77 108 141 177 220 270
#     4  11  21  33  49  68  93 124 160 197 234 278
#     4  10  17  26  40  57  81 112 148 187 227 271
#     4   9  18  33  51  71  96 124 155 193 236 279
#
# _framework density 21.959657
#
# number of rings (size 3 to 8) (size 9 to 14) (size 15 to 20)
#    0.000    2.636    0.000    7.364    0.000    3.273 
#    0.000    1.818    0.000    0.000    0.000    0.636 
#    0.000    0.727    0.000    7.636    0.000    6.364 
#
# Total GULP energy -245328.001532 kJ/mol
# GULP energy per Si atom -5575.636398 kJ/mol
# Density = 2.190968 g / cm^3
# Si number density = 21.959657 Si / 1000 Ang^3
#
#
#
# Elastic Constant Matrix: (Units=GPa)
#
#
# Indices 1 2 3 4 5 6 
#
# 1 115.7719 9.5607 91.1168 0.0000 0.0000 0.0000
# 2 9.5607 45.5480 19.2205 0.0000 0.0000 0.0000
# 3 91.1168 19.2205 265.3340 0.0000 0.0000 0.0000
# 4 0.0000 0.0000 0.0000 8.9234 0.0000 0.0000
# 5 0.0000 0.0000 0.0000 0.0000 11.5337 0.0000
# 6 0.0000 0.0000 0.0000 0.0000 0.0000 2.9584
#
#
#
# Elastic Compliance Matrix: (Units=1/GPa)
#
#
# Indices 1 2 3 4 5 6 
#
# 1 0.011865 -0.000795 -0.004017 0.000000 0.000000 0.000000
# 2 -0.000795 0.022700 -0.001371 0.000000 0.000000 0.000000
# 3 -0.004017 -0.001371 0.005248 0.000000 0.000000 0.000000
# 4 0.000000 0.000000 0.000000 0.112065 0.000000 0.000000
# 5 0.000000 0.000000 0.000000 0.000000 0.086702 0.000000
# 6 0.000000 0.000000 0.000000 0.000000 0.000000 0.338022
#
#
# Mechanical properties :
#
#
# Convention : Reuss Voigt Hill
#
# Bulk Modulus (GPa) = 36.43545 74.05000 55.24272
# Shear Modulus (GPa) = 8.35956 25.13349 16.74652
#
# Velocity S-wave (km/s) = 1.95321 3.38676 2.76452
# Velocity P-wave (km/s) = 4.65991 7.00626 5.94989
#
# Compressibility (1/GPa) = 0.02744580
#
# Stress axis : x y z
#
# Youngs Moduli (GPa) = 84.28359 44.05197 190.56546
#
# Poissons Ratio (x) = 0.03504 0.76546
# Poissons Ratio (y) = 0.06704 0.26131
# Poissons Ratio (z) = 0.33855 0.06041
#
# Static dielectric constant tensor:
#      x y z
#    x 1.744550 0.000000 0.000000 
#    y 0.000000 1.924910 0.000000 
#    z 0.000000 0.000000 1.916250 
# 
# From -- ./inp_files/76804.got.cif
#   From: 2010.05.17/outbox.cif.g08.bks.cpg/sg65_39_cif.got.tgz:76804.got - 2010.06.03 17:01:31.
