data_PCOD9482649
_publ_section_title
;
Structure prediction by ZEFSAII (Michael W. Deem and Ramdas Pophale) SiO2 
 PCOD9482649
Probable space group: C M M M
;
_chemical_formula_sum "Si O2"
_cell_formula_units_Z 88
_cell_length_a 18.457449
_cell_length_b 16.613454
_cell_length_c 16.997935
_cell_angle_alpha 90.000000
_cell_angle_beta 90.000000
_cell_angle_gamma 90.000000
_cell_volume 5212.280443
_symmetry_space_group_name_H-M "C M M M"
_symmetry_group_IT_number 65
_symmetry_cell_setting 'orthorhombic'
loop_
_space_group_symop_operation_xyz
x,y,z
-x,-y,z
x,-y,-z
-x,y,-z
-x,-y,-z
x,y,-z
-x,y,z
x,-y,z
1/2+x,1/2+y,z
1/2-x,1/2-y,z
1/2+x,1/2-y,-z
1/2-x,1/2+y,-z
1/2-x,1/2-y,-z
1/2+x,1/2+y,-z
1/2-x,1/2+y,z
1/2+x,1/2-y,z
loop_
_atom_site_type_symbol
_atom_site_label
_atom_site_fract_x
_atom_site_fract_y
_atom_site_fract_z
Si Si1 0.587476 0.656556 0.167502
Si Si2 0.201850 0.824810 0.593627
Si Si3 0.088613 0.094960 0.000000
Si Si4 0.198973 0.000000 0.406715
Si Si5 0.587020 0.244612 0.309375
Si Si6 0.911785 0.407684 0.588900
Si Si7 0.086068 0.000000 0.728563
O O1 0.500000 0.660210 0.162070
O O2 0.609950 0.733250 0.220249
O O3 0.605120 0.578036 0.219463
O O4 0.613673 0.640079 0.079181
O O5 0.193551 0.818287 0.500000
O O6 0.250000 0.750000 0.621148
O O7 0.125002 0.810266 0.634832
O O8 0.234212 0.913152 0.610491
O O9 0.000000 0.095000 0.000000
O O10 0.109040 0.000000 0.000000
O O11 0.127896 0.000000 0.353064
O O12 0.183816 0.000000 0.500000
O O13 0.500000 0.251897 0.313789
O O14 0.607181 0.158034 0.345721
O O15 0.886875 0.384261 0.500000
O O16 0.889269 0.500000 0.603166
O O17 0.000000 0.408341 0.586227
O O18 0.000000 0.000000 0.716501
#
# Coordination Sequence:
#
# PCOD9482649 Si02
#       7
#    16  16   8   8  16  16   8
#     4   9  16  24  39  64  94 125 152 182 224 274
#     4  10  21  35  47  63  90 125 160 193 230 276
#     4   9  14  22  36  58  92 129 155 177 218 274
#     4  10  20  33  47  61  87 126 163 194 227 273
#     4  10  18  29  47  70  94 119 151 195 240 277
#     4   8  14  25  40  59  84 113 146 187 234 274
#     4  10  16  26  42  66  97 124 153 184 219 272
#
# _framework density 16.883205
#
# number of rings (size 3 to 8) (size 9 to 14) (size 15 to 20)
#    0.000    2.636    2.727    1.091    0.000    1.273 
#    1.636    1.818    0.000    0.000    0.000    1.273 
#    0.000    5.091    0.000    0.000    0.000    0.000 
#
# Total GULP energy -244978.955816 kJ/mol
# GULP energy per Si atom -5567.703541 kJ/mol
# Density = 1.684478 g / cm^3
# Si number density = 16.883205 Si / 1000 Ang^3
#
#
#
# Elastic Constant Matrix: (Units=GPa)
#
#
# Indices 1 2 3 4 5 6 
#
# 1 26.7566 17.8863 20.6802 0.0000 0.0000 0.0000
# 2 17.8863 136.4078 82.3175 0.0000 0.0000 0.0000
# 3 20.6802 82.3175 95.8279 0.0000 0.0000 0.0000
# 4 0.0000 0.0000 0.0000 22.0925 0.0000 0.0000
# 5 0.0000 0.0000 0.0000 0.0000 6.0134 0.0000
# 6 0.0000 0.0000 0.0000 0.0000 0.0000 18.4520
#
#
#
# Elastic Compliance Matrix: (Units=1/GPa)
#
#
# Indices 1 2 3 4 5 6 
#
# 1 0.044856 -0.000083 -0.009609 0.000000 0.000000 0.000000
# 2 -0.000083 0.015222 -0.013058 0.000000 0.000000 0.000000
# 3 -0.009609 -0.013058 0.023726 0.000000 0.000000 0.000000
# 4 0.000000 0.000000 0.000000 0.045264 0.000000 0.000000
# 5 0.000000 0.000000 0.000000 0.000000 0.166296 0.000000
# 6 0.000000 0.000000 0.000000 0.000000 0.000000 0.054195
#
#
# Mechanical properties :
#
#
# Convention : Reuss Voigt Hill
#
# Bulk Modulus (GPa) = 26.10666 55.64003 40.87334
# Shear Modulus (GPa) = 12.26013 18.51880 15.38947
#
# Velocity S-wave (km/s) = 2.69768 3.31551 3.02242
# Velocity P-wave (km/s) = 5.01996 6.90537 6.03673
#
# Compressibility (1/GPa) = 0.03830441
#
# Stress axis : x y z
#
# Youngs Moduli (GPa) = 22.29343 65.69528 42.14818
#
# Poissons Ratio (x) = 0.00546 0.40499
# Poissons Ratio (y) = 0.00185 0.55036
# Poissons Ratio (z) = 0.21421 0.85783
#
# Static dielectric constant tensor:
#      x y z
#    x 1.595840 0.000000 0.000000 
#    y 0.000000 1.623890 0.000000 
#    z 0.000000 0.000000 1.563940 
# 
# From -- ./inp_files/44358.got.cif
#   From: 2010.05.17/outbox.cif.g08.bks.cpg/sg65_23_cif.got.tgz:44358.got - 2010.06.03 17:01:31.
