data_PCOD9482942
_publ_section_title
;
Structure prediction by ZEFSAII (Michael W. Deem and Ramdas Pophale) SiO2 
 PCOD9482942
Probable space group: C M M M
;
_chemical_formula_sum "Si O2"
_cell_formula_units_Z 84
_cell_length_a 14.177391
_cell_length_b 23.053880
_cell_length_c 15.476500
_cell_angle_alpha 90.000000
_cell_angle_beta 90.000000
_cell_angle_gamma 90.000000
_cell_volume 5058.399167
_symmetry_space_group_name_H-M "C M M M"
_symmetry_group_IT_number 65
_symmetry_cell_setting 'orthorhombic'
loop_
_space_group_symop_operation_xyz
x,y,z
-x,-y,z
x,-y,-z
-x,y,-z
-x,-y,-z
x,y,-z
-x,y,z
x,-y,z
1/2+x,1/2+y,z
1/2-x,1/2-y,z
1/2+x,1/2-y,-z
1/2-x,1/2+y,-z
1/2-x,1/2-y,-z
1/2+x,1/2+y,-z
1/2-x,1/2+y,z
1/2+x,1/2-y,z
loop_
_atom_site_type_symbol
_atom_site_label
_atom_site_fract_x
_atom_site_fract_y
_atom_site_fract_z
Si Si1 0.890352 0.109814 0.405541
Si Si2 0.891485 0.729478 0.160916
Si Si3 0.216996 0.158155 0.100567
Si Si4 0.388029 0.568032 0.221207
Si Si5 0.861249 0.244511 0.362998
Si Si6 0.000000 0.706777 0.500000
O O1 0.847755 0.096886 0.500000
O O2 0.852254 0.080719 0.318810
O O3 0.888602 0.179060 0.390409
O O4 0.000000 0.091776 0.409605
O O5 0.851447 0.786089 0.112120
O O6 0.818051 0.678587 0.138032
O O7 0.884269 0.744415 0.262764
O O8 0.000000 0.717552 0.138803
O O9 0.170773 0.106911 0.155547
O O10 0.225485 0.143862 0.000000
O O11 0.500000 0.584263 0.217378
O O12 0.380918 0.500000 0.202731
O O13 0.750000 0.250000 0.374547
O O14 0.918363 0.287137 0.424474
#
# Coordination Sequence:
#
# PCOD9482942 Si02
#       6
#    16  16  16  16  16   4
#     4  10  17  30  48  72 105 140 178 216 259 317
#     4  11  20  35  57  79 111 144 176 220 277 329
#     4  11  23  37  55  80 107 140 184 230 280 333
#     4  10  21  36  55  78 107 143 182 227 280 333
#     4  12  19  31  49  74 111 151 180 218 260 316
#     4  12  22  28  44  82 107 152 193 210 256 320
#
# _framework density 16.606043
#
# number of rings (size 3 to 8) (size 9 to 14) (size 15 to 20)
#    0.000    1.143    6.667    2.000    0.000    3.429 
#    0.000    2.857    0.000    0.571    0.000    1.333 
#    0.000    0.000    0.000    7.429    0.000    0.190 
#
# Total GULP energy -233821.077029 kJ/mol
# GULP energy per Si atom -5567.168501 kJ/mol
# Density = 1.656825 g / cm^3
# Si number density = 16.606043 Si / 1000 Ang^3
#
#
#
# Elastic Constant Matrix: (Units=GPa)
#
#
# Indices 1 2 3 4 5 6 
#
# 1 120.3819 25.5000 43.1296 0.0000 0.0000 0.0000
# 2 25.5000 49.0493 32.9153 0.0000 0.0000 0.0000
# 3 43.1296 32.9153 132.4024 0.0000 0.0000 0.0000
# 4 0.0000 0.0000 0.0000 -6.7043 0.0000 0.0000
# 5 0.0000 0.0000 0.0000 0.0000 26.2118 0.0000
# 6 0.0000 0.0000 0.0000 0.0000 0.0000 19.8764
#
#
#
# Elastic Compliance Matrix: (Units=1/GPa)
#
#
# Indices 1 2 3 4 5 6 
#
# 1 0.009902 -0.003581 -0.002335 0.000000 0.000000 0.000000
# 2 -0.003581 0.025765 -0.005239 0.000000 0.000000 0.000000
# 3 -0.002335 -0.005239 0.009616 0.000000 0.000000 0.000000
# 4 0.000000 0.000000 0.000000 -0.149158 0.000000 0.000000
# 5 0.000000 0.000000 0.000000 0.000000 0.038151 0.000000
# 6 0.000000 0.000000 0.000000 0.000000 0.000000 0.050311
#
#
# Mechanical properties :
#
#
# Convention : Reuss Voigt Hill
#
# Bulk Modulus (GPa) = 43.52942 56.10259 49.81601
# Shear Modulus (GPa) = 343.54977 21.22936 182.38956
#
# Velocity S-wave (km/s) = 14.39901 3.57937 10.49151
# Velocity P-wave (km/s) = 17.39862 7.13725 13.29760
#
# Compressibility (1/GPa) = 0.02297297
#
# Stress axis : x y z
#
# Youngs Moduli (GPa) = 100.98860 38.81271 103.99523
#
# Poissons Ratio (x) = 0.13898 0.24287
# Poissons Ratio (y) = 0.36162 0.54480
# Poissons Ratio (z) = 0.23585 0.20333
#
# Static dielectric constant tensor:
#      x y z
#    x 1.559650 0.000000 0.000000 
#    y 0.000000 1.545040 0.000000 
#    z 0.000000 0.000000 1.592270 
# 
# From -- ./inp_files/40228.got.cif
#   From: 2010.05.17/outbox.cif.g08.bks.cpg/sg65_21_cif.got.tgz:40228.got - 2010.06.03 17:01:31.
