data_PCOD9482118
_publ_section_title
;
Structure prediction by ZEFSAII (Michael W. Deem and Ramdas Pophale) SiO2 
 PCOD9482118
Probable space group: C M C A
;
_chemical_formula_sum "Si O2"
_cell_formula_units_Z 64
_cell_length_a 15.353799
_cell_length_b 15.849364
_cell_length_c 11.679973
_cell_angle_alpha 90.000000
_cell_angle_beta 90.000000
_cell_angle_gamma 90.000000
_cell_volume 2842.297475
_symmetry_space_group_name_H-M "C M C A"
_symmetry_group_IT_number 64
_symmetry_cell_setting 'orthorhombic'
loop_
_space_group_symop_operation_xyz
x,y,z
-x,1/2-y,1/2+z
x,-y,-z
-x,1/2+y,1/2-z
-x,-y,-z
x,1/2+y,1/2-z
-x,y,z
x,1/2-y,1/2+z
1/2+x,1/2+y,z
1/2-x,-y,1/2+z
1/2+x,1/2-y,-z
1/2-x,y,1/2-z
1/2-x,1/2-y,-z
1/2+x,y,1/2-z
1/2-x,1/2+y,z
1/2+x,-y,1/2+z
loop_
_atom_site_type_symbol
_atom_site_label
_atom_site_fract_x
_atom_site_fract_y
_atom_site_fract_z
Si Si1 0.596312 0.688700 0.506248
Si Si2 0.842567 0.601686 0.777832
Si Si3 0.599676 0.888560 0.478248
Si Si4 0.767144 0.075728 0.373751
O O1 0.500000 0.667770 0.462402
O O2 0.603291 0.660259 0.638164
O O3 0.610657 0.787530 0.489005
O O4 0.667737 0.633790 0.442820
O O5 0.750000 0.644528 0.750000
O O6 0.887490 0.587650 0.655476
O O7 0.813138 0.514867 0.843867
O O8 0.500000 0.907757 0.514035
O O9 0.675957 0.925710 0.558154
O O10 0.750000 0.114522 0.250000
#
# Coordination Sequence:
#
# PCOD9482118 Si02
#       4
#    16  16  16  16
#     4  11  25  44  73 107 142 186 239 300 363 421
#     4  11  24  44  73 103 141 189 238 292 357 424
#     4  11  26  47  74 109 146 188 238 298 361 425
#     4  11  26  44  72 105 144 191 242 291 356 429
#
# _framework density 22.516995999999999
#
# number of rings (size 3 to 8) (size 9 to 14) (size 15 to 20)
#    0.000    1.000    2.500    2.250    7.000    4.000 
#    0.000   12.500    0.000    0.000    0.000    0.000 
#    0.000    0.000    0.000    0.000    0.000    0.000 
#
# Total GULP energy -178952.370611 kJ/mol
# GULP energy per Si atom -5592.261582 kJ/mol
# Density = 2.246575 g / cm^3
# Si number density = 22.516996 Si / 1000 Ang^3
#
#
#
# Elastic Constant Matrix: (Units=GPa)
#
#
# Indices 1 2 3 4 5 6 
#
# 1 164.2675 65.1195 69.2497 0.0000 0.0000 0.0000
# 2 65.1195 131.6830 66.6631 0.0000 0.0000 0.0000
# 3 69.2497 66.6631 151.5052 0.0000 0.0000 0.0000
# 4 0.0000 0.0000 0.0000 18.8186 0.0000 0.0000
# 5 0.0000 0.0000 0.0000 0.0000 11.5602 0.0000
# 6 0.0000 0.0000 0.0000 0.0000 0.0000 29.7231
#
#
#
# Elastic Compliance Matrix: (Units=1/GPa)
#
#
# Indices 1 2 3 4 5 6 
#
# 1 0.008272 -0.002800 -0.002549 0.000000 0.000000 0.000000
# 2 -0.002800 0.010718 -0.003436 0.000000 0.000000 0.000000
# 3 -0.002549 -0.003436 0.009277 0.000000 0.000000 0.000000
# 4 0.000000 0.000000 0.000000 0.053139 0.000000 0.000000
# 5 0.000000 0.000000 0.000000 0.000000 0.086504 0.000000
# 6 0.000000 0.000000 0.000000 0.000000 0.000000 0.033644
#
#
# Mechanical properties :
#
#
# Convention : Reuss Voigt Hill
#
# Bulk Modulus (GPa) = 93.48271 94.39114 93.93693
# Shear Modulus (GPa) = 22.45265 28.44862 25.45063
#
# Velocity S-wave (km/s) = 3.16118 3.55833 3.36562
# Velocity P-wave (km/s) = 7.41153 7.67419 7.54400
#
# Compressibility (1/GPa) = 0.01069717
#
# Stress axis : x y z
#
# Youngs Moduli (GPa) = 120.88501 93.29778 107.78908
#
# Poissons Ratio (x) = 0.26128 0.27474
# Poissons Ratio (y) = 0.33853 0.37038
# Poissons Ratio (z) = 0.30812 0.32058
#
# Static dielectric constant tensor:
#      x y z
#    x 1.811720 0.000000 0.000000 
#    y 0.000000 1.853130 0.000000 
#    z 0.000000 0.000000 1.854250 
# 
# From -- ./inp_files/14037.got.cif
#   From: 2010.05.17/outbox.cif.g08.bks.cpg/sg64_8_cif.got.tgz:14037.got - 2010.06.03 16:29:19.
