data_PCOD9482872
_publ_section_title
;
Structure prediction by ZEFSAII (Michael W. Deem and Ramdas Pophale) SiO2 
 PCOD9482872
Probable space group: C M M M
;
_chemical_formula_sum "Si O2"
_cell_formula_units_Z 88
_cell_length_a 23.300122
_cell_length_b 25.690470
_cell_length_c 7.579949
_cell_angle_alpha 90.000000
_cell_angle_beta 90.000000
_cell_angle_gamma 90.000000
_cell_volume 4537.289898
_symmetry_space_group_name_H-M "C M M M"
_symmetry_group_IT_number 65
_symmetry_cell_setting 'orthorhombic'
loop_
_space_group_symop_operation_xyz
x,y,z
-x,-y,z
x,-y,-z
-x,y,-z
-x,-y,-z
x,y,-z
-x,y,z
x,-y,z
1/2+x,1/2+y,z
1/2-x,1/2-y,z
1/2+x,1/2-y,-z
1/2-x,1/2+y,-z
1/2-x,1/2-y,-z
1/2+x,1/2+y,-z
1/2-x,1/2+y,z
1/2+x,1/2-y,z
loop_
_atom_site_type_symbol
_atom_site_label
_atom_site_fract_x
_atom_site_fract_y
_atom_site_fract_z
Si Si1 0.500000 0.940030 0.716253
Si Si2 0.650494 0.558577 0.709143
Si Si3 0.932958 0.264464 0.714540
Si Si4 0.933539 0.851781 0.715762
Si Si5 0.890923 0.626667 0.289824
Si Si6 0.218515 0.558613 0.210115
O O1 0.500000 0.940282 0.500000
O O2 0.443134 0.909463 0.775990
O O3 0.500000 0.000000 0.772869
O O4 0.639365 0.555482 0.500000
O O5 0.642547 0.500000 0.782322
O O6 0.608207 0.602755 0.779912
O O7 0.717314 0.572694 0.731139
O O8 0.930218 0.263295 0.500000
O O9 0.916264 0.206508 0.773959
O O10 0.897530 0.314347 0.777916
O O11 0.000000 0.272765 0.759696
O O12 0.932055 0.851667 0.500000
O O13 0.000000 0.860345 0.765520
O O14 0.899148 0.629866 0.500000
O O15 0.830538 0.599020 0.259771
O O16 0.205580 0.500000 0.278805
O O17 0.219521 0.555909 0.000000
#
# Coordination Sequence:
#
# PCOD9482872 Si02
#       6
#     8  16  16  16  16  16
#     4   9  16  24  39  67  95 113 140 190 238 267
#     4   9  17  30  49  72  95 121 155 191 228 274
#     4   8  13  24  43  69  98 124 150 183 228 278
#     4   8  14  25  45  74 103 123 143 183 235 279
#     4  10  17  28  48  71  92 119 156 194 230 272
#     4  10  21  35  48  63  89 126 161 193 234 279
#
# _framework density 19.394836999999999
#
# number of rings (size 3 to 8) (size 9 to 14) (size 15 to 20)
#    0.000    3.000    0.909    2.182    0.000    2.182 
#    0.000    3.182    0.000    8.727    0.000    5.091 
#    0.000    0.000    0.000    0.000    0.000    0.000 
#
# Total GULP energy -245340.669530 kJ/mol
# GULP energy per Si atom -5575.924308 kJ/mol
# Density = 1.935069 g / cm^3
# Si number density = 19.394837 Si / 1000 Ang^3
#
#
#
# Elastic Constant Matrix: (Units=GPa)
#
#
# Indices 1 2 3 4 5 6 
#
# 1 124.3345 136.7276 -3.0881 0.0000 0.0000 0.0000
# 2 136.7276 207.3132 7.8014 0.0000 0.0000 0.0000
# 3 -3.0881 7.8014 40.4123 0.0000 0.0000 0.0000
# 4 0.0000 0.0000 0.0000 -3.5695 0.0000 0.0000
# 5 0.0000 0.0000 0.0000 0.0000 -110.9860 0.0000
# 6 0.0000 0.0000 0.0000 0.0000 0.0000 30.9593
#
#
#
# Elastic Compliance Matrix: (Units=1/GPa)
#
#
# Indices 1 2 3 4 5 6 
#
# 1 0.030798 -0.020550 0.006320 0.000000 0.000000 0.000000
# 2 -0.020550 0.018571 -0.005155 0.000000 0.000000 0.000000
# 3 0.006320 -0.005155 0.026223 0.000000 0.000000 0.000000
# 4 0.000000 0.000000 0.000000 -0.280155 0.000000 0.000000
# 5 0.000000 0.000000 0.000000 0.000000 -0.009010 0.000000
# 6 0.000000 0.000000 0.000000 0.000000 0.000000 0.032300
#
#
# Mechanical properties :
#
#
# Convention : Reuss Voigt Hill
#
# Bulk Modulus (GPa) = 27.15739 72.77134 49.96437
# Shear Modulus (GPa) = -38.39357 -1.34463 -19.86910
#
# Velocity S-wave (km/s) = -4.45407 -0.83355 -3.20418
# Velocity P-wave (km/s) = 3.52404 6.05607 3.48261
#
# Compressibility (1/GPa) = 0.03682239
#
# Stress axis : x y z
#
# Youngs Moduli (GPa) = 32.47000 53.84882 38.13435
#
# Poissons Ratio (x) = 1.10657 -0.24102
# Poissons Ratio (y) = 0.66724 0.19659
# Poissons Ratio (z) = -0.20522 0.27760
#
# Static dielectric constant tensor:
#      x y z
#    x 1.640750 0.000000 0.000000 
#    y 0.000000 1.692920 0.000000 
#    z 0.000000 0.000000 1.715120 
# 
# From -- ./inp_files/13979.got.cif
#   From: 2010.05.17/outbox.cif.g08.bks.cpg/sg65_7_cif.got.tgz:13979.got - 2010.06.03 17:01:31.
