data_PCOD9482188
_publ_section_title
;
Structure prediction by ZEFSAII (Michael W. Deem and Ramdas Pophale) SiO2 
 PCOD9482188
Probable space group: C M C A
;
_chemical_formula_sum "Si O2"
_cell_formula_units_Z 80
_cell_length_a 30.651529
_cell_length_b 11.637119
_cell_length_c 11.697097
_cell_angle_alpha 90.000000
_cell_angle_beta 90.000000
_cell_angle_gamma 90.000000
_cell_volume 4172.301752
_symmetry_space_group_name_H-M "C M C A"
_symmetry_group_IT_number 64
_symmetry_cell_setting 'orthorhombic'
loop_
_space_group_symop_operation_xyz
x,y,z
-x,1/2-y,1/2+z
x,-y,-z
-x,1/2+y,1/2-z
-x,-y,-z
x,1/2+y,1/2-z
-x,y,z
x,1/2-y,1/2+z
1/2+x,1/2+y,z
1/2-x,-y,1/2+z
1/2+x,1/2-y,-z
1/2-x,y,1/2-z
1/2-x,1/2-y,-z
1/2+x,y,1/2-z
1/2-x,1/2+y,z
1/2+x,-y,1/2+z
loop_
_atom_site_type_symbol
_atom_site_label
_atom_site_fract_x
_atom_site_fract_y
_atom_site_fract_z
Si Si1 0.293479 0.683573 0.031500
Si Si2 0.551152 0.595426 0.598609
Si Si3 0.889640 0.692429 0.470281
Si Si4 0.293928 0.521484 0.812153
Si Si5 0.610082 0.533650 0.809851
O O1 0.340467 0.744105 0.038292
O O2 0.287818 0.609612 0.146472
O O3 0.250000 0.750000 0.000000
O O4 0.298889 0.595300 0.926809
O O5 0.555436 0.500000 0.500000
O O6 0.500000 0.616814 0.618588
O O7 0.575420 0.711139 0.558501
O O8 0.574451 0.549200 0.712726
O O9 0.892275 0.586221 0.380277
O O10 0.894895 0.634391 0.595235
O O11 0.250000 0.559081 0.750000
O O12 0.341137 0.535664 0.754842
#
# Coordination Sequence:
#
# PCOD9482188 Si02
#       5
#    16  16  16  16  16
#     4   9  19  35  54  83 119 153 196 236 283 352
#     4  11  26  42  62  95 125 153 202 260 314 368
#     4   9  21  43  65  87 121 166 205 250 307 365
#     4   9  19  35  54  83 119 153 195 236 283 350
#     4   9  21  43  65  86 122 165 205 250 303 367
#
# _framework density 19.174068999999999
#
# number of rings (size 3 to 8) (size 9 to 14) (size 15 to 20)
#    0.000    2.600    0.000    2.400    5.600    4.000 
#    7.200    2.000    0.000    0.000    0.000    0.000 
#    0.000    0.000    0.000    0.000    0.000    0.000 
#
# Total GULP energy -223008.570701 kJ/mol
# GULP energy per Si atom -5575.214268 kJ/mol
# Density = 1.913043 g / cm^3
# Si number density = 19.174069 Si / 1000 Ang^3
#
#
#
# Elastic Constant Matrix: (Units=GPa)
#
#
# Indices 1 2 3 4 5 6 
#
# 1 202.6986 66.1865 73.5562 0.0000 0.0000 0.0000
# 2 66.1865 58.2672 15.0890 0.0000 0.0000 0.0000
# 3 73.5562 15.0890 77.9398 0.0000 0.0000 0.0000
# 4 0.0000 0.0000 0.0000 11.7262 0.0000 0.0000
# 5 0.0000 0.0000 0.0000 0.0000 34.6700 0.0000
# 6 0.0000 0.0000 0.0000 0.0000 0.0000 28.2143
#
#
#
# Elastic Compliance Matrix: (Units=1/GPa)
#
#
# Indices 1 2 3 4 5 6 
#
# 1 0.011831 -0.011104 -0.009016 0.000000 0.000000 0.000000
# 2 -0.011104 0.028490 0.004964 0.000000 0.000000 0.000000
# 3 -0.009016 0.004964 0.020378 0.000000 0.000000 0.000000
# 4 0.000000 0.000000 0.000000 0.085279 0.000000 0.000000
# 5 0.000000 0.000000 0.000000 0.000000 0.028843 0.000000
# 6 0.000000 0.000000 0.000000 0.000000 0.000000 0.035443
#
#
# Mechanical properties :
#
#
# Convention : Reuss Voigt Hill
#
# Bulk Modulus (GPa) = 32.90849 72.06322 52.48585
# Shear Modulus (GPa) = 19.94368 27.19368 23.56868
#
# Velocity S-wave (km/s) = 3.22862 3.77006 3.50979
# Velocity P-wave (km/s) = 5.57664 7.52438 6.62251
#
# Compressibility (1/GPa) = 0.03038729
#
# Stress axis : x y z
#
# Youngs Moduli (GPa) = 84.52436 35.09985 49.07230
#
# Poissons Ratio (x) = 0.38975 0.44242
# Poissons Ratio (y) = 0.93857 -0.24359
# Poissons Ratio (z) = 0.76205 -0.17423
#
# Static dielectric constant tensor:
#      x y z
#    x 1.690110 0.000000 0.000000 
#    y 0.000000 1.692730 0.000000 
#    z 0.000000 0.000000 1.517910 
# 
# From -- ./inp_files/19606.got.cif
#   From: 2010.05.17/outbox.cif.g08.bks.cpg/sg64_10_cif.got.tgz:19606.got - 2010.06.03 16:29:19.
