data_PCOD9482377
_publ_section_title
;
Structure prediction by ZEFSAII (Michael W. Deem and Ramdas Pophale) SiO2 
 PCOD9482377
Probable space group: C M C A
;
_chemical_formula_sum "Si O2"
_cell_formula_units_Z 40
_cell_length_a 9.000000
_cell_length_b 27.000000
_cell_length_c 18.000000
_cell_angle_alpha 90.000000
_cell_angle_beta 90.000000
_cell_angle_gamma 90.000000
_cell_volume 4374.000000
_symmetry_space_group_name_H-M "C M C A"
_symmetry_group_IT_number 64
_symmetry_cell_setting 'orthorhombic'
loop_
_space_group_symop_operation_xyz
x,y,z
-x,1/2-y,1/2+z
x,-y,-z
-x,1/2+y,1/2-z
-x,-y,-z
x,1/2+y,1/2-z
-x,y,z
x,1/2-y,1/2+z
1/2+x,1/2+y,z
1/2-x,-y,1/2+z
1/2+x,1/2-y,-z
1/2-x,y,1/2-z
1/2-x,1/2-y,-z
1/2+x,y,1/2-z
1/2-x,1/2+y,z
1/2+x,-y,1/2+z
loop_
_atom_site_type_symbol
_atom_site_label
_atom_site_fract_x
_atom_site_fract_y
_atom_site_fract_z
Si Si1 0.674283 0.050751 0.083963
Si Si2 0.828607 0.101717 0.949700
Si Si3 0.827282 0.296098 0.537277
Si Si4 0.824163 0.951960 0.329210
Si Si5 0.672987 0.847180 0.828432
O O1 0.500000 0.046706 0.062355
O O2 0.688250 0.097289 0.139150
O O3 0.720600 0.001282 0.125691
O O4 0.769801 0.064165 0.012481
O O5 0.730093 0.094000 0.877592
O O6 0.000000 0.091900 0.932570
O O7 0.813980 0.155995 0.984356
O O8 0.750000 0.250000 0.500000
O O9 0.749007 0.310872 0.613395
O O10 0.000000 0.286392 0.549861
O O11 0.750000 0.952313 0.250000
O O12 0.000000 0.952653 0.322028
O O13 0.500000 0.835955 0.822579
O O14 0.750000 0.844240 0.750000
#
# Coordination Sequence:
#
# PCOD9482377 Si02
#       5
#    16  16  16  16  16
#     4   9  19  34  53  78 108 143 179 215 258 308
#     4  10  21  36  55  79 106 137 175 218 263 314
#     4  10  21  38  59  81 105 136 176 220 268 321
#     4  11  22  35  52  76 109 146 182 218 257 305
#     4  10  19  33  54  81 112 141 173 217 266 313
#
# _framework density 9.1449470000000002
#
# number of rings (size 3 to 8) (size 9 to 14) (size 15 to 20)
#    0.000    2.000    0.000    3.600    0.000    7.200 
#    0.000    1.000    0.000    4.800    0.000    0.000 
#    0.000    0.000    0.000    0.000    0.000    0.000 
#
# Total GULP energy -223346.242925 kJ/mol
# GULP energy per Si atom -5583.656073 kJ/mol
# Density = 0.912413 g / cm^3
# Si number density = 9.144947 Si / 1000 Ang^3
#
#
#
# Elastic Constant Matrix: (Units=GPa)
#
#
# Indices 1 2 3 4 5 6 
#
# 1 91.4533 60.8191 83.7355 0.0000 0.0000 0.0000
# 2 60.8191 8.1966 69.8829 0.0000 0.0000 0.0000
# 3 83.7355 69.8829 80.1312 0.0000 0.0000 0.0000
# 4 0.0000 0.0000 0.0000 3.4338 0.0000 0.0000
# 5 0.0000 0.0000 0.0000 0.0000 33.6918 0.0000
# 6 0.0000 0.0000 0.0000 0.0000 0.0000 62.8465
#
#
#
# Elastic Compliance Matrix: (Units=1/GPa)
#
#
# Indices 1 2 3 4 5 6 
#
# 1 0.147569 -0.034150 -0.124424 0.000000 0.000000 0.000000
# 2 -0.034150 -0.011055 0.045327 0.000000 0.000000 0.000000
# 3 -0.124424 0.045327 0.102969 0.000000 0.000000 0.000000
# 4 0.000000 0.000000 0.000000 0.291222 0.000000 0.000000
# 5 0.000000 0.000000 0.000000 0.000000 0.029681 0.000000
# 6 0.000000 0.000000 0.000000 0.000000 0.000000 0.015912
#
#
# Mechanical properties :
#
#
# Convention : Reuss Voigt Hill
#
# Bulk Modulus (GPa) = 76.98137 67.62846 72.30492
# Shear Modulus (GPa) = 6.19485 17.68398 11.93942
#
# Velocity S-wave (km/s) = 1.84239 3.11283 2.55774
# Velocity P-wave (km/s) = 6.83424 7.06935 6.95279
#
# Compressibility (1/GPa) = 0.01299016
#
# Stress axis : x y z
#
# Youngs Moduli (GPa) = 6.77650 -90.45919 9.71164
#
# Poissons Ratio (x) = -3.08922 1.20836
# Poissons Ratio (y) = 0.23142 -0.44020
# Poissons Ratio (z) = 0.84316 4.10027
#
# Static dielectric constant tensor:
#      x y z
#    x 1.605620 0.000000 0.000000 
#    y 0.000000 1.605500 0.000000 
#    z 0.000000 0.000000 1.593370 
# 
# From -- ./inp_files/29693.got.cif
#   From: 2010.05.17/outbox.ucp.g08.bks.cvg/sg64_15_cif.got.tgz:29693.got - 2010.06.11 16:36:46.
