data_PCOD9482536
_publ_section_title
;
Structure prediction by ZEFSAII (Michael W. Deem and Ramdas Pophale) SiO2 
 PCOD9482536
Probable space group: C M M M
;
_chemical_formula_sum "Si O2"
_cell_formula_units_Z 120
_cell_length_a 21.845727
_cell_length_b 25.707676
_cell_length_c 14.521292
_cell_angle_alpha 90.000000
_cell_angle_beta 90.000000
_cell_angle_gamma 90.000000
_cell_volume 8155.199288
_symmetry_space_group_name_H-M "C M M M"
_symmetry_group_IT_number 65
_symmetry_cell_setting 'orthorhombic'
loop_
_space_group_symop_operation_xyz
x,y,z
-x,-y,z
x,-y,-z
-x,y,-z
-x,-y,-z
x,y,-z
-x,y,z
x,-y,z
1/2+x,1/2+y,z
1/2-x,1/2-y,z
1/2+x,1/2-y,-z
1/2-x,1/2+y,-z
1/2-x,1/2-y,-z
1/2+x,1/2+y,-z
1/2-x,1/2+y,z
1/2+x,1/2-y,z
loop_
_atom_site_type_symbol
_atom_site_label
_atom_site_fract_x
_atom_site_fract_y
_atom_site_fract_z
Si Si1 0.244918 0.361429 0.106277
Si Si2 0.250000 0.250000 0.646738
Si Si3 0.632937 0.061548 0.893333
Si Si4 0.337699 0.321675 0.763681
Si Si5 0.625196 0.802600 0.600398
Si Si6 0.572003 0.311869 0.394068
Si Si7 0.429088 0.143640 0.226721
Si Si8 0.359690 0.776001 0.891434
O O1 0.197866 0.408990 0.117342
O O2 0.301928 0.363280 0.174742
O O3 0.203469 0.309182 0.122375
O O4 0.264999 0.359225 0.000000
O O5 0.285687 0.292748 0.705015
O O6 0.305225 0.218772 0.599183
O O7 0.588851 0.089273 0.820371
O O8 0.637430 0.000000 0.880796
O O9 0.613437 0.071603 0.000000
O O10 0.388844 0.336964 0.688773
O O11 0.360482 0.277078 0.834258
O O12 0.610372 0.824818 0.500000
O O13 0.585052 0.750172 0.614786
O O14 0.611449 0.840854 0.684534
O O15 0.590743 0.325527 0.500000
O O16 0.500000 0.321821 0.384780
O O17 0.500000 0.145857 0.251233
O O18 0.411598 0.186593 0.149846
O O19 0.366078 0.767495 0.000000
#
# Coordination Sequence:
#
# PCOD9482536 Si02
#       8
#    16   8  16  16  16  16  16  16
#     4   9  16  27  44  64  85 111 142 176 219 275
#     4  10  15  26  41  62  86 112 147 188 221 254
#     4   9  19  35  51  67  88 114 146 190 239 274
#     4  11  16  25  42  63  88 116 145 179 214 261
#     4  10  19  29  44  63  86 116 151 190 226 262
#     4   9  18  30  41  56  85 125 159 180 205 246
#     4  11  20  31  45  64  89 118 157 194 222 258
#     4  10  18  27  38  58  88 119 144 175 217 263
#
# _framework density 14.71454
#
# number of rings (size 3 to 8) (size 9 to 14) (size 15 to 20)
#    0.000    2.133    4.000    3.000    0.000    3.733 
#    0.000    0.667    0.000    1.600    0.000    0.933 
#    0.000    0.533    0.000    4.800    0.000    0.133 
#
# Total GULP energy -334078.291112 kJ/mol
# GULP energy per Si atom -5567.971519 kJ/mol
# Density = 1.468105 g / cm^3
# Si number density = 14.714540 Si / 1000 Ang^3
#
#
#
# Elastic Constant Matrix: (Units=GPa)
#
#
# Indices 1 2 3 4 5 6 
#
# 1 68.3241 15.3054 45.9971 0.0000 0.0000 0.0000
# 2 15.3054 30.2579 22.0427 0.0000 0.0000 0.0000
# 3 45.9971 22.0427 106.5788 0.0000 0.0000 0.0000
# 4 0.0000 0.0000 0.0000 3.9925 0.0000 0.0000
# 5 0.0000 0.0000 0.0000 0.0000 13.9325 0.0000
# 6 0.0000 0.0000 0.0000 0.0000 0.0000 7.7124
#
#
#
# Elastic Compliance Matrix: (Units=1/GPa)
#
#
# Indices 1 2 3 4 5 6 
#
# 1 0.021201 -0.004778 -0.008162 0.000000 0.000000 0.000000
# 2 -0.004778 0.039989 -0.006208 0.000000 0.000000 0.000000
# 3 -0.008162 -0.006208 0.014189 0.000000 0.000000 0.000000
# 4 0.000000 0.000000 0.000000 0.250472 0.000000 0.000000
# 5 0.000000 0.000000 0.000000 0.000000 0.071774 0.000000
# 6 0.000000 0.000000 0.000000 0.000000 0.000000 0.129662
#
#
# Mechanical properties :
#
#
# Convention : Reuss Voigt Hill
#
# Bulk Modulus (GPa) = 26.96689 41.31680 34.14184
# Shear Modulus (GPa) = 8.65134 13.24851 10.94992
#
# Velocity S-wave (km/s) = 2.42739 3.00387 2.73088
# Velocity P-wave (km/s) = 5.12082 6.33805 5.76167
#
# Compressibility (1/GPa) = 0.03708251
#
# Stress axis : x y z
#
# Youngs Moduli (GPa) = 47.16725 25.00683 70.47637
#
# Poissons Ratio (x) = 0.11949 0.57521
# Poissons Ratio (y) = 0.22539 0.43754
# Poissons Ratio (z) = 0.38496 0.15525
#
# Static dielectric constant tensor:
#      x y z
#    x 1.509510 0.000000 0.000000 
#    y 0.000000 1.460060 0.000000 
#    z 0.000000 0.000000 1.520360 
# 
# From -- ./inp_files/46164.got.cif
#   From: 2010.05.17/outbox.cif.g08.bks.cpg/sg65_24_cif.got.tgz:46164.got - 2010.06.03 17:01:31.
