data_PCOD9482739
_publ_section_title
;
Structure prediction by ZEFSAII (Michael W. Deem and Ramdas Pophale) SiO2 
 PCOD9482739
Probable space group: C M M M
;
_chemical_formula_sum "Si O2"
_cell_formula_units_Z 88
_cell_length_a 22.215526
_cell_length_b 15.713342
_cell_length_c 12.435919
_cell_angle_alpha 90.000000
_cell_angle_beta 90.000000
_cell_angle_gamma 90.000000
_cell_volume 4341.132566
_symmetry_space_group_name_H-M "C M M M"
_symmetry_group_IT_number 65
_symmetry_cell_setting 'orthorhombic'
loop_
_space_group_symop_operation_xyz
x,y,z
-x,-y,z
x,-y,-z
-x,y,-z
-x,-y,-z
x,y,-z
-x,y,z
x,-y,z
1/2+x,1/2+y,z
1/2-x,1/2-y,z
1/2+x,1/2-y,-z
1/2-x,1/2+y,-z
1/2-x,1/2-y,-z
1/2+x,1/2+y,-z
1/2-x,1/2+y,z
1/2+x,1/2-y,z
loop_
_atom_site_type_symbol
_atom_site_label
_atom_site_fract_x
_atom_site_fract_y
_atom_site_fract_z
Si Si1 0.380482 0.845764 0.237787
Si Si2 0.241280 0.852618 0.000000
Si Si3 0.887983 0.845551 0.765404
Si Si4 0.571171 0.000000 0.621733
Si Si5 0.928722 0.000000 0.619395
Si Si6 0.399086 0.601473 0.000000
Si Si7 0.249049 0.598260 0.230197
Si Si8 0.427438 0.897278 0.000000
O O1 0.401360 0.750870 0.264029
O O2 0.410657 0.918415 0.308519
O O3 0.309659 0.853162 0.271347
O O4 0.397394 0.861589 0.110818
O O5 0.250000 0.750000 0.000000
O O6 0.171054 0.873932 0.000000
O O7 0.266176 0.897740 0.104043
O O8 0.910381 0.916749 0.684720
O O9 0.917266 0.863426 0.883394
O O10 0.814788 0.858718 0.764507
O O11 0.500000 0.000000 0.612585
O O12 0.596968 0.000000 0.500000
O O13 0.901656 0.000000 0.500000
O O14 0.000000 0.000000 0.611245
O O15 0.407425 0.500000 0.000000
O O16 0.252372 0.500000 0.266747
O O17 0.500000 0.878704 0.000000
O O18 0.420919 0.000000 0.000000
#
# Coordination Sequence:
#
# PCOD9482739 Si02
#       8
#    16   8  16   8   8   8  16   8
#     4  12  23  39  66 100 131 168 212 258 319 388
#     4  10  17  25  44  84 128 165 202 236 276 361
#     4  11  22  41  65  98 134 168 206 262 319 380
#     4  11  26  48  68  87 118 164 218 271 318 370
#     4  11  26  48  70  91 118 164 225 275 319 376
#     4  10  17  34  59  87 126 169 199 234 303 374
#     4  11  19  35  59  91 131 170 205 249 314 385
#     4  11  22  39  62  93 137 178 213 261 319 373
#
# _framework density 20.271208000000001
#
# number of rings (size 3 to 8) (size 9 to 14) (size 15 to 20)
#    0.000    1.000    3.636    6.273    0.000    2.182 
#    0.000    4.545    0.000    2.182    0.000    0.000 
#    0.000    0.000    0.000    0.000    0.000    0.000 
#
# Total GULP energy -245390.147971 kJ/mol
# GULP energy per Si atom -5577.048818 kJ/mol
# Density = 2.022507 g / cm^3
# Si number density = 20.271208 Si / 1000 Ang^3
#
#
#
# Elastic Constant Matrix: (Units=GPa)
#
#
# Indices 1 2 3 4 5 6 
#
# 1 67.4027 13.5993 23.0359 0.0000 0.0000 0.0000
# 2 13.5993 186.8554 64.5043 0.0000 0.0000 0.0000
# 3 23.0359 64.5043 121.9418 0.0000 0.0000 0.0000
# 4 0.0000 0.0000 0.0000 -1.6223 0.0000 0.0000
# 5 0.0000 0.0000 0.0000 0.0000 22.6456 0.0000
# 6 0.0000 0.0000 0.0000 0.0000 0.0000 -116.7513
#
#
#
# Elastic Compliance Matrix: (Units=1/GPa)
#
#
# Indices 1 2 3 4 5 6 
#
# 1 0.015863 -0.000147 -0.002919 0.000000 0.000000 0.000000
# 2 -0.000147 0.006549 -0.003436 0.000000 0.000000 0.000000
# 3 -0.002919 -0.003436 0.010570 0.000000 0.000000 0.000000
# 4 0.000000 0.000000 0.000000 -0.616391 0.000000 0.000000
# 5 0.000000 0.000000 0.000000 0.000000 0.044159 0.000000
# 6 0.000000 0.000000 0.000000 0.000000 0.000000 -0.008565
#
#
# Mechanical properties :
#
#
# Convention : Reuss Voigt Hill
#
# Bulk Modulus (GPa) = 50.05651 64.27543 57.16597
# Shear Modulus (GPa) = -9.46698 -0.80826 -5.13762
#
# Velocity S-wave (km/s) = -2.16340 -0.63213 -1.59372
# Velocity P-wave (km/s) = 4.30193 5.58961 4.98750
#
# Compressibility (1/GPa) = 0.01997742
#
# Stress axis : x y z
#
# Youngs Moduli (GPa) = 63.03794 152.70254 94.60899
#
# Poissons Ratio (x) = 0.02243 0.27617
# Poissons Ratio (y) = 0.00926 0.32511
# Poissons Ratio (z) = 0.18401 0.52474
#
# Static dielectric constant tensor:
#      x y z
#    x 1.764580 0.000000 0.000000 
#    y 0.000000 1.695520 0.000000 
#    z 0.000000 0.000000 1.870720 
# 
# From -- ./inp_files/30607.got.cif
#   From: 2010.05.17/outbox.cif.g08.bks.cpg/sg65_16_cif.got.tgz:30607.got - 2010.06.03 17:01:31.
