data_PCOD9482718
_publ_section_title
;
Structure prediction by ZEFSAII (Michael W. Deem and Ramdas Pophale) SiO2 
 PCOD9482718
Probable space group: C M M M
;
_chemical_formula_sum "Si O2"
_cell_formula_units_Z 104
_cell_length_a 8.455593
_cell_length_b 28.103599
_cell_length_c 27.628827
_cell_angle_alpha 90.000000
_cell_angle_beta 90.000000
_cell_angle_gamma 90.000000
_cell_volume 6565.509856
_symmetry_space_group_name_H-M "C M M M"
_symmetry_group_IT_number 65
_symmetry_cell_setting 'orthorhombic'
loop_
_space_group_symop_operation_xyz
x,y,z
-x,-y,z
x,-y,-z
-x,y,-z
-x,-y,-z
x,y,-z
-x,y,z
x,-y,z
1/2+x,1/2+y,z
1/2-x,1/2-y,z
1/2+x,1/2-y,-z
1/2-x,1/2+y,-z
1/2-x,1/2-y,-z
1/2+x,1/2+y,-z
1/2-x,1/2+y,z
1/2+x,1/2-y,z
loop_
_atom_site_type_symbol
_atom_site_label
_atom_site_fract_x
_atom_site_fract_y
_atom_site_fract_z
Si Si1 0.807472 0.852141 0.252801
Si Si2 0.691317 0.553415 0.303935
Si Si3 0.810531 0.197361 0.352272
Si Si4 0.306919 0.055126 0.500000
Si Si5 0.810228 0.396556 0.400106
Si Si6 0.689438 0.804541 0.052579
Si Si7 0.689508 0.695758 0.154113
O O1 0.757083 0.905583 0.266551
O O2 0.758846 0.818879 0.298035
O O3 0.753010 0.832832 0.201176
O O4 0.000000 0.851600 0.251973
O O5 0.500000 0.553669 0.304418
O O6 0.745459 0.500000 0.293108
O O7 0.748560 0.570335 0.356562
O O8 0.750000 0.250000 0.363037
O O9 0.748997 0.156543 0.388272
O O10 0.000000 0.196831 0.353168
O O11 0.500000 0.054786 0.500000
O O12 0.256393 0.082403 0.548546
O O13 0.255750 0.000000 0.500000
O O14 0.000000 0.396641 0.399221
O O15 0.500000 0.804020 0.055047
O O16 0.750000 0.750000 0.052167
O O17 0.755005 0.825212 0.102580
O O18 0.736468 0.825387 0.000000
O O19 0.500000 0.696907 0.154197
O O20 0.750000 0.750000 0.157809
#
# Coordination Sequence:
#
# PCOD9482718 Si02
#       7
#    16  16  16   8  16  16  16
#     4   8  16  28  42  63  88 113 142 176 212 255
#     4   9  17  31  49  67  90 118 145 176 217 262
#     4  10  19  33  50  68  92 120 151 182 216 257
#     4   9  18  32  50  71  94 117 142 179 224 265
#     4  10  19  32  50  71  93 117 147 180 217 261
#     4   9  16  25  36  51  74 105 140 174 208 246
#     4  10  17  25  38  56  81 110 141 174 207 245
#
# _framework density 15.840355000000001
#
# number of rings (size 3 to 8) (size 9 to 14) (size 15 to 20)
#    0.000    2.692    0.000    4.615    0.000    1.846 
#    0.000    8.846    0.000    2.769    0.000    0.000 
#    0.000    0.615    0.000    7.692    0.000    1.231 
#
# Total GULP energy -289713.999777 kJ/mol
# GULP energy per Si atom -5571.423073 kJ/mol
# Density = 1.580430 g / cm^3
# Si number density = 15.840355 Si / 1000 Ang^3
#
#
#
# Elastic Constant Matrix: (Units=GPa)
#
#
# Indices 1 2 3 4 5 6 
#
# 1 26.1239 17.1875 21.2713 0.0000 0.0000 0.0000
# 2 17.1875 112.2477 71.9023 0.0000 0.0000 0.0000
# 3 21.2713 71.9023 158.3276 0.0000 0.0000 0.0000
# 4 0.0000 0.0000 0.0000 16.5727 0.0000 0.0000
# 5 0.0000 0.0000 0.0000 0.0000 17.2079 0.0000
# 6 0.0000 0.0000 0.0000 0.0000 0.0000 16.5819
#
#
#
# Elastic Compliance Matrix: (Units=1/GPa)
#
#
# Indices 1 2 3 4 5 6 
#
# 1 0.044338 -0.004193 -0.004052 0.000000 0.000000 0.000000
# 2 -0.004193 0.012960 -0.005322 0.000000 0.000000 0.000000
# 3 -0.004052 -0.005322 0.009278 0.000000 0.000000 0.000000
# 4 0.000000 0.000000 0.000000 0.060340 0.000000 0.000000
# 5 0.000000 0.000000 0.000000 0.000000 0.058113 0.000000
# 6 0.000000 0.000000 0.000000 0.000000 0.000000 0.060307
#
#
# Mechanical properties :
#
#
# Convention : Reuss Voigt Hill
#
# Bulk Modulus (GPa) = 25.35538 57.49127 41.42333
# Shear Modulus (GPa) = 17.50594 22.49505 20.00050
#
# Velocity S-wave (km/s) = 3.32798 3.77252 3.55720
# Velocity P-wave (km/s) = 5.55057 7.43968 6.56345
#
# Compressibility (1/GPa) = 0.03943936
#
# Stress axis : x y z
#
# Youngs Moduli (GPa) = 22.55427 77.15878 107.78693
#
# Poissons Ratio (x) = 0.32354 0.43680
# Poissons Ratio (y) = 0.09457 0.57368
# Poissons Ratio (z) = 0.09140 0.41067
#
# Static dielectric constant tensor:
#      x y z
#    x 1.585890 0.000000 0.000000 
#    y 0.000000 1.515800 0.000000 
#    z 0.000000 0.000000 1.553880 
# 
# From -- ./inp_files/73770.got.cif
#   From: 2010.05.17/outbox.cif.g08.bks.cpg/sg65_37_cif.got.tgz:73770.got - 2010.06.03 17:01:31.
