data_PCOD9482951
_publ_section_title
;
Structure prediction by ZEFSAII (Michael W. Deem and Ramdas Pophale) SiO2 
 PCOD9482951
Probable space group: C M M M
;
_chemical_formula_sum "Si O2"
_cell_formula_units_Z 128
_cell_length_a 23.398014
_cell_length_b 18.607198
_cell_length_c 17.053769
_cell_angle_alpha 90.000000
_cell_angle_beta 90.000000
_cell_angle_gamma 90.000000
_cell_volume 7424.724637
_symmetry_space_group_name_H-M "C M M M"
_symmetry_group_IT_number 65
_symmetry_cell_setting 'orthorhombic'
loop_
_space_group_symop_operation_xyz
x,y,z
-x,-y,z
x,-y,-z
-x,y,-z
-x,-y,-z
x,y,-z
-x,y,z
x,-y,z
1/2+x,1/2+y,z
1/2-x,1/2-y,z
1/2+x,1/2-y,-z
1/2-x,1/2+y,-z
1/2-x,1/2-y,-z
1/2+x,1/2+y,-z
1/2-x,1/2+y,z
1/2+x,1/2-y,z
loop_
_atom_site_type_symbol
_atom_site_label
_atom_site_fract_x
_atom_site_fract_y
_atom_site_fract_z
Si Si1 0.064891 0.354141 0.235819
Si Si2 0.337395 0.418389 0.198801
Si Si3 0.732086 0.829535 0.150233
Si Si4 0.874991 0.584085 0.089190
Si Si5 0.676456 0.154563 0.322130
Si Si6 0.865761 0.206327 0.412056
Si Si7 0.065840 0.815436 0.256760
Si Si8 0.215266 0.920851 0.374198
O O1 0.079279 0.390802 0.153377
O O2 0.114974 0.376292 0.295995
O O3 0.071352 0.267403 0.228901
O O4 0.000000 0.368960 0.260870
O O5 0.349814 0.500000 0.173343
O O6 0.288074 0.379529 0.149350
O O7 0.392424 0.367592 0.208670
O O8 0.310219 0.422526 0.285977
O O9 0.750000 0.750000 0.124539
O O10 0.681159 0.867507 0.103418
O O11 0.708028 0.824093 0.240225
O O12 0.860832 0.500000 0.102433
O O13 0.895019 0.592235 0.000000
O O14 0.665270 0.224210 0.375111
O O15 0.718664 0.100570 0.365720
O O16 0.887158 0.220155 0.500000
O O17 0.913474 0.185498 0.347584
O O18 0.820150 0.142022 0.414323
O O19 0.000000 0.837035 0.250784
O O20 0.207866 0.000000 0.408058
#
# Coordination Sequence:
#
# PCOD9482951 Si02
#       8
#    16  16  16  16  16  16  16  16
#     4   9  18  33  51  68  91 126 165 200 234 277
#     4   9  16  27  46  70  92 119 157 197 236 278
#     4  10  17  30  51  71  97 131 163 196 234 277
#     4  10  21  34  48  73 108 136 157 187 229 278
#     4   9  17  30  47  68  91 120 157 198 241 281
#     4  10  19  30  45  66  92 121 154 194 241 291
#     4   9  18  33  50  68  92 123 161 203 242 282
#     4   9  17  28  42  62  89 119 151 189 233 283
#
# _framework density 17.239695999999999
#
# number of rings (size 3 to 8) (size 9 to 14) (size 15 to 20)
#    0.000    2.625    0.000    4.500    0.000    5.500 
#    0.000    0.625    0.000    0.000    0.000    3.500 
#    0.000    0.000    0.000   42.375    0.000    1.375 
#
# Total GULP energy -356665.201307 kJ/mol
# GULP energy per Si atom -5572.893770 kJ/mol
# Density = 1.720046 g / cm^3
# Si number density = 17.239696 Si / 1000 Ang^3
#
#
#
# Elastic Constant Matrix: (Units=GPa)
#
#
# Indices 1 2 3 4 5 6 
#
# 1 87.7405 12.5347 1.0398 0.0000 0.0000 0.0000
# 2 12.5347 47.5624 24.5564 0.0000 0.0000 0.0000
# 3 1.0398 24.5564 36.4259 0.0000 0.0000 0.0000
# 4 0.0000 0.0000 0.0000 -425.7887 0.0000 0.0000
# 5 0.0000 0.0000 0.0000 0.0000 6.4847 0.0000
# 6 0.0000 0.0000 0.0000 0.0000 0.0000 11.0681
#
#
#
# Elastic Compliance Matrix: (Units=1/GPa)
#
#
# Indices 1 2 3 4 5 6 
#
# 1 0.012020 -0.004587 0.002749 0.000000 0.000000 0.000000
# 2 -0.004587 0.034001 -0.022790 0.000000 0.000000 0.000000
# 3 0.002749 -0.022790 0.042739 0.000000 0.000000 0.000000
# 4 0.000000 0.000000 0.000000 -0.002349 0.000000 0.000000
# 5 0.000000 0.000000 0.000000 0.000000 0.154208 0.000000
# 6 0.000000 0.000000 0.000000 0.000000 0.000000 0.090350
#
#
# Mechanical properties :
#
#
# Convention : Reuss Voigt Hill
#
# Bulk Modulus (GPa) = 25.31482 27.55450 26.43466
# Shear Modulus (GPa) = 12.70994 -72.74065 -30.01535
#
# Velocity S-wave (km/s) = 2.71818 -6.50271 -4.17713
# Velocity P-wave (km/s) = 4.95653 6.35315 2.81028
#
# Compressibility (1/GPa) = 0.03950256
#
# Stress axis : x y z
#
# Youngs Moduli (GPa) = 83.19470 29.41122 23.39802
#
# Poissons Ratio (x) = 0.13492 -0.06433
# Poissons Ratio (y) = 0.38164 0.53325
# Poissons Ratio (z) = -0.22873 0.67030
#
# Static dielectric constant tensor:
#      x y z
#    x 1.581280 0.000000 0.000000 
#    y 0.000000 1.587150 0.000000 
#    z 0.000000 0.000000 1.576230 
# 
# From -- ./inp_files/56973.got.cif
#   From: 2010.05.17/outbox.cif.g08.bks.cpg/sg65_29_cif.got.tgz:56973.got - 2010.06.03 17:01:31.
