data_PCOD9482966
_publ_section_title
;
Structure prediction by ZEFSAII (Michael W. Deem and Ramdas Pophale) SiO2 
 PCOD9482966
Probable space group: C M M M
;
_chemical_formula_sum "Si O2"
_cell_formula_units_Z 80
_cell_length_a 18.456466
_cell_length_b 14.847136
_cell_length_c 14.407458
_cell_angle_alpha 90.000000
_cell_angle_beta 90.000000
_cell_angle_gamma 90.000000
_cell_volume 3948.013199
_symmetry_space_group_name_H-M "C M M M"
_symmetry_group_IT_number 65
_symmetry_cell_setting 'orthorhombic'
loop_
_space_group_symop_operation_xyz
x,y,z
-x,-y,z
x,-y,-z
-x,y,-z
-x,-y,-z
x,y,-z
-x,y,z
x,-y,z
1/2+x,1/2+y,z
1/2-x,1/2-y,z
1/2+x,1/2-y,-z
1/2-x,1/2+y,-z
1/2-x,1/2-y,-z
1/2+x,1/2+y,-z
1/2-x,1/2+y,z
1/2+x,1/2-y,z
loop_
_atom_site_type_symbol
_atom_site_label
_atom_site_fract_x
_atom_site_fract_y
_atom_site_fract_z
Si Si1 0.271631 0.849322 0.393378
Si Si2 0.607801 0.398314 0.394016
Si Si3 0.419501 0.295742 0.208638
Si Si4 0.222081 0.146968 0.105146
Si Si5 0.359369 0.097576 0.223134
O O1 0.295500 0.839849 0.500000
O O2 0.250000 0.750000 0.356396
O O3 0.195343 0.899916 0.391459
O O4 0.331565 0.891813 0.328601
O O5 0.587927 0.373508 0.500000
O O6 0.582256 0.500000 0.375158
O O7 0.583519 0.328968 0.315530
O O8 0.500000 0.314468 0.172210
O O9 0.355182 0.348642 0.156295
O O10 0.403225 0.188690 0.201315
O O11 0.250000 0.250000 0.100982
O O12 0.285054 0.099591 0.163405
O O13 0.215909 0.113142 0.000000
O O14 0.395078 0.000000 0.209137
#
# Coordination Sequence:
#
# PCOD9482966 Si02
#       5
#    16  16  16  16  16
#     4  10  17  30  55  84 113 144 187 244 292 327
#     4  10  20  35  56  82 112 147 189 238 291 340
#     4  11  23  38  56  84 121 155 189 230 279 342
#     4   9  19  38  61  83 107 140 185 235 284 329
#     4  11  21  36  59  85 115 152 193 235 279 332
#
# _framework density 20.263356999999999
#
# number of rings (size 3 to 8) (size 9 to 14) (size 15 to 20)
#    0.000    1.800    4.000    1.200    0.000    3.200 
#    0.000    1.000    0.000    0.000    0.000   11.200 
#    0.000    0.000    0.000    0.000    0.000    0.000 
#
# Total GULP energy -223264.746434 kJ/mol
# GULP energy per Si atom -5581.618661 kJ/mol
# Density = 2.021724 g / cm^3
# Si number density = 20.263357 Si / 1000 Ang^3
#
#
#
# Elastic Constant Matrix: (Units=GPa)
#
#
# Indices 1 2 3 4 5 6 
#
# 1 78.9999 -1.0531 18.5273 0.0000 0.0000 0.0000
# 2 -1.0531 103.2558 16.6801 0.0000 0.0000 0.0000
# 3 18.5273 16.6801 86.7940 0.0000 0.0000 0.0000
# 4 0.0000 0.0000 0.0000 -21.9492 0.0000 0.0000
# 5 0.0000 0.0000 0.0000 0.0000 1.9860 0.0000
# 6 0.0000 0.0000 0.0000 0.0000 0.0000 -16.1025
#
#
#
# Elastic Compliance Matrix: (Units=1/GPa)
#
#
# Indices 1 2 3 4 5 6 
#
# 1 0.013363 0.000616 -0.002971 0.000000 0.000000 0.000000
# 2 0.000616 0.010023 -0.002058 0.000000 0.000000 0.000000
# 3 -0.002971 -0.002058 0.012551 0.000000 0.000000 0.000000
# 4 0.000000 0.000000 0.000000 -0.045560 0.000000 0.000000
# 5 0.000000 0.000000 0.000000 0.000000 0.503524 0.000000
# 6 0.000000 0.000000 0.000000 0.000000 0.000000 -0.062102
#
#
# Mechanical properties :
#
#
# Convention : Reuss Voigt Hill
#
# Bulk Modulus (GPa) = 36.88318 37.48427 37.18373
# Shear Modulus (GPa) = 11.11945 8.44655 9.78300
#
# Velocity S-wave (km/s) = 2.34508 2.04388 2.19964
# Velocity P-wave (km/s) = 5.05707 4.91005 4.98410
#
# Compressibility (1/GPa) = 0.02711263
#
# Stress axis : x y z
#
# Youngs Moduli (GPa) = 74.83220 99.76653 79.67363
#
# Poissons Ratio (x) = -0.06148 0.23671
# Poissons Ratio (y) = -0.04611 0.16396
# Poissons Ratio (z) = 0.22233 0.20530
#
# Static dielectric constant tensor:
#      x y z
#    x 1.715230 0.000000 0.000000 
#    y 0.000000 1.767800 0.000000 
#    z 0.000000 0.000000 1.724450 
# 
# From -- ./inp_files/40032.got.cif
#   From: 2010.05.17/outbox.cif.g08.bks.cpg/sg65_21_cif.got.tgz:40032.got - 2010.06.03 17:01:31.
