data_PCOD9482487
_publ_section_title
;
Structure prediction by ZEFSAII (Michael W. Deem and Ramdas Pophale) SiO2 
 PCOD9482487
Probable space group: C M C A
;
_chemical_formula_sum "Si O2"
_cell_formula_units_Z 56
_cell_length_a 15.000000
_cell_length_b 30.000000
_cell_length_c 12.000000
_cell_angle_alpha 90.000000
_cell_angle_beta 90.000000
_cell_angle_gamma 90.000000
_cell_volume 5400.000000
_symmetry_space_group_name_H-M "C M C A"
_symmetry_group_IT_number 64
_symmetry_cell_setting 'orthorhombic'
loop_
_space_group_symop_operation_xyz
x,y,z
-x,1/2-y,1/2+z
x,-y,-z
-x,1/2+y,1/2-z
-x,-y,-z
x,1/2+y,1/2-z
-x,y,z
x,1/2-y,1/2+z
1/2+x,1/2+y,z
1/2-x,-y,1/2+z
1/2+x,1/2-y,-z
1/2-x,y,1/2-z
1/2-x,1/2-y,-z
1/2+x,y,1/2-z
1/2-x,1/2+y,z
1/2+x,-y,1/2+z
loop_
_atom_site_type_symbol
_atom_site_label
_atom_site_fract_x
_atom_site_fract_y
_atom_site_fract_z
Si Si1 0.173961 0.235727 0.345570
Si Si2 0.223164 0.183118 0.974866
Si Si3 0.904079 0.550082 0.545369
Si Si4 0.596243 0.664076 0.182823
Si Si5 0.151104 0.574764 0.199161
Si Si6 0.599095 0.528484 0.695914
Si Si7 0.783225 0.410542 0.040220
O O1 0.250000 0.239535 0.250000
O O2 0.165142 0.286506 0.390692
O O3 0.200460 0.211570 0.461937
O O4 0.109476 0.201775 0.279244
O O5 0.266933 0.139737 0.918629
O O6 0.166758 0.168727 0.083609
O O7 0.903388 0.500000 0.500000
O O8 0.898743 0.547251 0.678875
O O9 0.815080 0.573082 0.505346
O O10 0.000000 0.570368 0.513311
O O11 0.500000 0.670963 0.132285
O O12 0.604322 0.615123 0.236517
O O13 0.250000 0.571937 0.250000
O O14 0.112609 0.524806 0.203793
O O15 0.157853 0.589090 0.070605
O O16 0.500000 0.536884 0.648713
O O17 0.673427 0.554055 0.624577
#
# Coordination Sequence:
#
# PCOD9482487 Si02
#       7
#    16  16  16  16  16  16  16
#     4   9  19  41  64  90 120 162 208 261 324 402
#     4  10  21  39  65  91 122 163 215 262 325 404
#     4  10  22  40  59  85 121 166 215 262 319 385
#     4  11  22  38  63  97 131 165 216 276 333 401
#     4  12  21  39  62  90 126 170 225 268 325 396
#     4  11  25  40  59  91 131 172 220 274 333 394
#     4  12  22  38  63  91 126 168 215 270 325 390
#
# _framework density 10.370369999999999
#
# number of rings (size 3 to 8) (size 9 to 14) (size 15 to 20)
#    0.000    1.286    2.857    4.286    0.000    4.000 
#    0.000    0.000    0.000    4.286    0.000    0.000 
#    0.000    0.000    0.000    0.000    0.000    0.000 
#
# Total GULP energy -312334.980537 kJ/mol
# GULP energy per Si atom -5577.410367 kJ/mol
# Density = 1.034677 g / cm^3
# Si number density = 10.370370 Si / 1000 Ang^3
#
#
#
# Elastic Constant Matrix: (Units=GPa)
#
#
# Indices 1 2 3 4 5 6 
#
# 1 56.0451 11.9632 3.1409 0.0000 0.0000 0.0000
# 2 11.9632 110.0785 17.5893 0.0000 0.0000 0.0000
# 3 3.1409 17.5893 52.5245 0.0000 0.0000 0.0000
# 4 0.0000 0.0000 0.0000 32.2908 0.0000 0.0000
# 5 0.0000 0.0000 0.0000 0.0000 38.8052 0.0000
# 6 0.0000 0.0000 0.0000 0.0000 0.0000 3.2257
#
#
#
# Elastic Compliance Matrix: (Units=1/GPa)
#
#
# Indices 1 2 3 4 5 6 
#
# 1 0.018277 -0.001914 -0.000452 0.000000 0.000000 0.000000
# 2 -0.001914 0.009798 -0.003167 0.000000 0.000000 0.000000
# 3 -0.000452 -0.003167 0.020126 0.000000 0.000000 0.000000
# 4 0.000000 0.000000 0.000000 0.030969 0.000000 0.000000
# 5 0.000000 0.000000 0.000000 0.000000 0.025770 0.000000
# 6 0.000000 0.000000 0.000000 0.000000 0.000000 0.310012
#
#
# Mechanical properties :
#
#
# Convention : Reuss Voigt Hill
#
# Bulk Modulus (GPa) = 26.92825 31.55943 29.24384
# Shear Modulus (GPa) = 11.40522 27.26131 19.33326
#
# Velocity S-wave (km/s) = 2.34753 3.62938 3.05641
# Velocity P-wave (km/s) = 4.51213 5.72821 5.15614
#
# Compressibility (1/GPa) = 0.03713572
#
# Stress axis : x y z
#
# Youngs Moduli (GPa) = 54.71455 102.05671 49.68628
#
# Poissons Ratio (x) = 0.19534 0.02246
# Poissons Ratio (y) = 0.10473 0.15735
# Poissons Ratio (z) = 0.02473 0.32320
#
# Static dielectric constant tensor:
#      x y z
#    x 1.762570 0.000000 0.000000 
#    y 0.000000 1.788170 0.000000 
#    z 0.000000 0.000000 1.769840 
# 
# From -- ./inp_files/14965.got.cif
#   From: 2010.05.17/outbox.ucp.g08.bks.cvg/sg64_8_cif.got.tgz:14965.got - 2010.06.11 16:36:46.
