data_PCOD9482795
_publ_section_title
;
Structure prediction by ZEFSAII (Michael W. Deem and Ramdas Pophale) SiO2 
 PCOD9482795
Probable space group: C M M M
;
_chemical_formula_sum "Si O2"
_cell_formula_units_Z 128
_cell_length_a 23.135771
_cell_length_b 20.163111
_cell_length_c 18.029176
_cell_angle_alpha 90.000000
_cell_angle_beta 90.000000
_cell_angle_gamma 90.000000
_cell_volume 8410.414424
_symmetry_space_group_name_H-M "C M M M"
_symmetry_group_IT_number 65
_symmetry_cell_setting 'orthorhombic'
loop_
_space_group_symop_operation_xyz
x,y,z
-x,-y,z
x,-y,-z
-x,y,-z
-x,-y,-z
x,y,-z
-x,y,z
x,-y,z
1/2+x,1/2+y,z
1/2-x,1/2-y,z
1/2+x,1/2-y,-z
1/2-x,1/2+y,-z
1/2-x,1/2-y,-z
1/2+x,1/2+y,-z
1/2-x,1/2+y,z
1/2+x,1/2-y,z
loop_
_atom_site_type_symbol
_atom_site_label
_atom_site_fract_x
_atom_site_fract_y
_atom_site_fract_z
Si Si1 0.563853 0.421480 0.373623
Si Si2 0.874269 0.922212 0.914679
Si Si3 0.188914 0.289115 0.079689
Si Si4 0.239114 0.574559 0.124796
Si Si5 0.566160 0.350504 0.777691
Si Si6 0.840930 0.249064 0.760698
Si Si7 0.808084 0.079840 0.583913
Si Si8 0.257375 0.142135 0.278725
O O1 0.500000 0.395178 0.397519
O O2 0.562554 0.500000 0.387848
O O3 0.568564 0.406659 0.285978
O O4 0.624788 0.397390 0.407040
O O5 0.805331 0.918202 0.901805
O O6 0.903928 0.877902 0.851895
O O7 0.890508 0.000000 0.904906
O O8 0.887143 0.903555 0.000000
O O9 0.250000 0.250000 0.082776
O O10 0.203285 0.366720 0.087433
O O11 0.155628 0.268012 0.152807
O O12 0.161895 0.274109 0.000000
O O13 0.220132 0.500000 0.107679
O O14 0.236928 0.588392 0.213262
O O15 0.500000 0.334643 0.792934
O O16 0.599685 0.287549 0.743203
O O17 0.791902 0.192873 0.750318
O O18 0.815674 0.313326 0.718262
O O19 0.789398 0.094407 0.500000
O O20 0.766977 0.112347 0.645442
O O21 0.807592 0.000000 0.594428
#
# Coordination Sequence:
#
# PCOD9482795 Si02
#       8
#    16  16  16  16  16  16  16  16
#     4   9  17  29  45  63  87 123 161 191 215 242
#     4  10  19  28  38  57  89 123 154 191 232 266
#     4  10  17  27  42  61  87 118 150 189 232 273
#     4  10  17  27  45  67  89 119 155 190 227 267
#     4  11  20  31  46  60  80 114 160 201 223 255
#     4  10  18  31  45  64  82 118 156 185 226 277
#     4  10  19  30  47  71  96 119 144 179 223 266
#     4  10  17  31  47  64  90 115 146 187 225 277
#
# _framework density 15.219226000000001
#
# number of rings (size 3 to 8) (size 9 to 14) (size 15 to 20)
#    0.000    2.000    5.000    1.125    0.000    5.500 
#    0.000    3.125    0.000    0.000    0.000    0.000 
#    0.000   12.500    0.000    5.875    0.000    0.000 
#
# Total GULP energy -356454.140763 kJ/mol
# GULP energy per Si atom -5569.595949 kJ/mol
# Density = 1.518459 g / cm^3
# Si number density = 15.219226 Si / 1000 Ang^3
#
#
#
# Elastic Constant Matrix: (Units=GPa)
#
#
# Indices 1 2 3 4 5 6 
#
# 1 30.7483 10.5756 8.9330 0.0000 0.0000 0.0000
# 2 10.5756 50.9013 14.0362 0.0000 0.0000 0.0000
# 3 8.9330 14.0362 80.4160 0.0000 0.0000 0.0000
# 4 0.0000 0.0000 0.0000 1.0365 0.0000 0.0000
# 5 0.0000 0.0000 0.0000 0.0000 3.3444 0.0000
# 6 0.0000 0.0000 0.0000 0.0000 0.0000 16.9977
#
#
#
# Elastic Compliance Matrix: (Units=1/GPa)
#
#
# Indices 1 2 3 4 5 6 
#
# 1 0.035615 -0.006628 -0.002799 0.000000 0.000000 0.000000
# 2 -0.006628 0.021873 -0.003082 0.000000 0.000000 0.000000
# 3 -0.002799 -0.003082 0.013284 0.000000 0.000000 0.000000
# 4 0.000000 0.000000 0.000000 0.964768 0.000000 0.000000
# 5 0.000000 0.000000 0.000000 0.000000 0.299006 0.000000
# 6 0.000000 0.000000 0.000000 0.000000 0.000000 0.058832
#
#
# Mechanical properties :
#
#
# Convention : Reuss Voigt Hill
#
# Bulk Modulus (GPa) = 21.85578 25.46168 23.65873
# Shear Modulus (GPa) = 3.48761 12.84378 8.16570
#
# Velocity S-wave (km/s) = 1.51544 2.90818 2.31884
# Velocity P-wave (km/s) = 4.17779 5.29556 4.76953
#
# Compressibility (1/GPa) = 0.04575449
#
# Stress axis : x y z
#
# Youngs Moduli (GPa) = 28.07810 45.71933 75.27755
#
# Poissons Ratio (x) = 0.30301 0.21074
# Poissons Ratio (y) = 0.18609 0.23197
# Poissons Ratio (z) = 0.07860 0.14088
#
# Static dielectric constant tensor:
#      x y z
#    x 1.508300 0.000000 0.000000 
#    y 0.000000 1.523350 0.000000 
#    z 0.000000 0.000000 1.524130 
# 
# From -- ./inp_files/56322.got.cif
#   From: 2010.05.17/outbox.cif.g08.bks.cpg/sg65_29_cif.got.tgz:56322.got - 2010.06.03 17:01:31.
