data_PCOD9482477
_publ_section_title
;
Structure prediction by ZEFSAII (Michael W. Deem and Ramdas Pophale) SiO2 
 PCOD9482477
Probable space group: C M C A
;
_chemical_formula_sum "Si O2"
_cell_formula_units_Z 40
_cell_length_a 15.000000
_cell_length_b 24.000000
_cell_length_c 12.000000
_cell_angle_alpha 90.000000
_cell_angle_beta 90.000000
_cell_angle_gamma 90.000000
_cell_volume 4320.000000
_symmetry_space_group_name_H-M "C M C A"
_symmetry_group_IT_number 64
_symmetry_cell_setting 'orthorhombic'
loop_
_space_group_symop_operation_xyz
x,y,z
-x,1/2-y,1/2+z
x,-y,-z
-x,1/2+y,1/2-z
-x,-y,-z
x,1/2+y,1/2-z
-x,y,z
x,1/2-y,1/2+z
1/2+x,1/2+y,z
1/2-x,-y,1/2+z
1/2+x,1/2-y,-z
1/2-x,y,1/2-z
1/2-x,1/2-y,-z
1/2+x,y,1/2-z
1/2-x,1/2+y,z
1/2+x,-y,1/2+z
loop_
_atom_site_type_symbol
_atom_site_label
_atom_site_fract_x
_atom_site_fract_y
_atom_site_fract_z
Si Si1 0.396263 0.185912 0.283319
Si Si2 0.276092 0.160844 0.067933
Si Si3 0.163527 0.805207 0.330434
Si Si4 0.895386 0.926084 0.263768
Si Si5 0.745121 0.552175 0.928223
O O1 0.500000 0.166595 0.293280
O O2 0.349070 0.169259 0.165908
O O3 0.322125 0.169234 0.377169
O O4 0.394407 0.252648 0.295259
O O5 0.303031 0.197228 0.958808
O O6 0.273497 0.099880 0.014144
O O7 0.250000 0.805262 0.250000
O O8 0.112569 0.862759 0.308183
O O9 0.831917 0.959697 0.350506
O O10 0.837463 0.928998 0.149882
O O11 0.000000 0.941882 0.255384
O O12 0.717225 0.500000 0.000000
#
# Coordination Sequence:
#
# PCOD9482477 Si02
#       5
#    16  16  16  16  16
#     4  11  24  36  58  91 124 159 192 236 296 354
#     4  10  22  41  58  82 123 154 198 242 292 353
#     4  11  19  40  62  85 117 160 195 240 287 352
#     4  10  21  38  61  89 114 148 202 244 287 354
#     4  10  22  41  62  83 115 156 193 249 304 340
#
# _framework density 9.2592590000000001
#
# number of rings (size 3 to 8) (size 9 to 14) (size 15 to 20)
#    0.000    1.600    6.000    1.200    0.000    8.800 
#    0.000    2.000    0.000    0.000    0.000    0.000 
#    0.000    0.000    0.000    0.000    0.000    0.000 
#
# Total GULP energy -222882.887503 kJ/mol
# GULP energy per Si atom -5572.072188 kJ/mol
# Density = 0.923818 g / cm^3
# Si number density = 9.259259 Si / 1000 Ang^3
#
#
#
# Elastic Constant Matrix: (Units=GPa)
#
#
# Indices 1 2 3 4 5 6 
#
# 1 168.9459 12.6270 56.2754 0.0000 0.0000 0.0000
# 2 12.6270 49.9711 39.4944 0.0000 0.0000 0.0000
# 3 56.2754 39.4944 141.0886 0.0000 0.0000 0.0000
# 4 0.0000 0.0000 0.0000 16.6793 0.0000 0.0000
# 5 0.0000 0.0000 0.0000 0.0000 12.6910 0.0000
# 6 0.0000 0.0000 0.0000 0.0000 0.0000 12.5628
#
#
#
# Elastic Compliance Matrix: (Units=1/GPa)
#
#
# Indices 1 2 3 4 5 6 
#
# 1 0.006838 0.000549 -0.002881 0.000000 0.000000 0.000000
# 2 0.000549 0.025741 -0.007425 0.000000 0.000000 0.000000
# 3 -0.002881 -0.007425 0.010315 0.000000 0.000000 0.000000
# 4 0.000000 0.000000 0.000000 0.059955 0.000000 0.000000
# 5 0.000000 0.000000 0.000000 0.000000 0.078796 0.000000
# 6 0.000000 0.000000 0.000000 0.000000 0.000000 0.079600
#
#
# Mechanical properties :
#
#
# Convention : Reuss Voigt Hill
#
# Bulk Modulus (GPa) = 42.76997 64.08880 53.42938
# Shear Modulus (GPa) = 17.32799 25.16055 21.24427
#
# Velocity S-wave (km/s) = 3.06226 3.69001 3.39069
# Velocity P-wave (km/s) = 5.97069 7.26898 6.65158
#
# Compressibility (1/GPa) = 0.02338089
#
# Stress axis : x y z
#
# Youngs Moduli (GPa) = 146.24845 38.84882 96.94387
#
# Poissons Ratio (x) = -0.02134 0.27930
# Poissons Ratio (y) = -0.08033 0.71977
# Poissons Ratio (z) = 0.42135 0.28844
#
# Static dielectric constant tensor:
#      x y z
#    x 1.624770 0.000000 0.000000 
#    y 0.000000 1.682070 0.000000 
#    z 0.000000 0.000000 1.644300 
# 
# From -- ./inp_files/14413.got.cif
#   From: 2010.05.17/outbox.ucp.g08.bks.cvg/sg64_8_cif.got.tgz:14413.got - 2010.06.11 16:36:46.
