data_PCOD9482420
_publ_section_title
;
Structure prediction by ZEFSAII (Michael W. Deem and Ramdas Pophale) SiO2 
 PCOD9482420
Probable space group: C M C A
;
_chemical_formula_sum "Si O2"
_cell_formula_units_Z 52
_cell_length_a 9.000000
_cell_length_b 21.000000
_cell_length_c 27.000000
_cell_angle_alpha 90.000000
_cell_angle_beta 90.000000
_cell_angle_gamma 90.000000
_cell_volume 5103.000000
_symmetry_space_group_name_H-M "C M C A"
_symmetry_group_IT_number 64
_symmetry_cell_setting 'orthorhombic'
loop_
_space_group_symop_operation_xyz
x,y,z
-x,1/2-y,1/2+z
x,-y,-z
-x,1/2+y,1/2-z
-x,-y,-z
x,1/2+y,1/2-z
-x,y,z
x,1/2-y,1/2+z
1/2+x,1/2+y,z
1/2-x,-y,1/2+z
1/2+x,1/2-y,-z
1/2-x,y,1/2-z
1/2-x,1/2-y,-z
1/2+x,y,1/2-z
1/2-x,1/2+y,z
1/2+x,-y,1/2+z
loop_
_atom_site_type_symbol
_atom_site_label
_atom_site_fract_x
_atom_site_fract_y
_atom_site_fract_z
Si Si1 0.333351 0.040785 0.392297
Si Si2 0.840104 0.141032 0.520866
Si Si3 0.173143 0.828539 0.590120
Si Si4 0.661551 0.644803 0.704482
Si Si5 0.326205 0.811455 0.388931
Si Si6 0.661567 0.505124 0.296615
Si Si7 0.245959 0.000000 0.500000
O O1 0.500000 0.037771 0.374170
O O2 0.275372 0.112664 0.396505
O O3 0.233754 0.009143 0.350471
O O4 0.326261 0.010826 0.447336
O O5 0.823037 0.177564 0.469423
O O6 0.712950 0.158250 0.558599
O O7 0.838851 0.066303 0.507677
O O8 0.000000 0.157287 0.543739
O O9 0.222190 0.761941 0.612295
O O10 0.000000 0.841635 0.602771
O O11 0.500000 0.674033 0.700449
O O12 0.750000 0.674086 0.750000
O O13 0.746688 0.651093 0.653800
O O14 0.646333 0.569764 0.714096
O O15 0.500000 0.813033 0.381079
O O16 0.500000 0.535337 0.298919
O O17 0.750000 0.533097 0.250000
#
# Coordination Sequence:
#
# PCOD9482420 Si02
#       7
#    16  16  16  16  16  16   8
#     4  11  22  36  57  84 114 148 186 230 278 330
#     4  10  20  35  56  80 109 147 188 227 270 323
#     4   9  21  39  55  76 110 149 187 228 272 322
#     4  10  21  37  58  83 110 141 178 223 273 324
#     4  11  22  36  56  81 110 145 184 227 275 326
#     4  10  21  38  60  85 114 147 184 228 279 334
#     4  10  22  36  54  84 120 152 184 226 280 338
#
# _framework density 10.190084000000001
#
# number of rings (size 3 to 8) (size 9 to 14) (size 15 to 20)
#    0.000    1.846    0.000    3.692    0.000   10.462 
#    0.000    0.769    0.000    3.692    0.000    0.000 
#    0.000    0.000    0.000    0.000    0.000    0.000 
#
# Total GULP energy -289710.931326 kJ/mol
# GULP energy per Si atom -5571.364064 kJ/mol
# Density = 1.016689 g / cm^3
# Si number density = 10.190084 Si / 1000 Ang^3
#
#
#
# Elastic Constant Matrix: (Units=GPa)
#
#
# Indices 1 2 3 4 5 6 
#
# 1 76.6223 33.4721 46.8289 0.0000 0.0000 0.0000
# 2 33.4721 13.0034 6.0986 0.0000 0.0000 0.0000
# 3 46.8289 6.0986 60.5212 0.0000 0.0000 0.0000
# 4 0.0000 0.0000 0.0000 -65.5020 0.0000 0.0000
# 5 0.0000 0.0000 0.0000 0.0000 16.6691 0.0000
# 6 0.0000 0.0000 0.0000 0.0000 0.0000 0.0763
#
#
#
# Elastic Compliance Matrix: (Units=1/GPa)
#
#
# Indices 1 2 3 4 5 6 
#
# 1 -0.037957 0.088095 0.020493 0.000000 0.000000 0.000000
# 2 0.088095 -0.123742 -0.055695 0.000000 0.000000 0.000000
# 3 0.020493 -0.055695 0.006279 0.000000 0.000000 0.000000
# 4 0.000000 0.000000 0.000000 -0.015267 0.000000 0.000000
# 5 0.000000 0.000000 0.000000 0.000000 0.059991 0.000000
# 6 0.000000 0.000000 0.000000 0.000000 0.000000 13.103020
#
#
# Mechanical properties :
#
#
# Convention : Reuss Voigt Hill
#
# Bulk Modulus (GPa) = -20.14708 35.88293 7.86792
# Shear Modulus (GPa) = 0.38850 -5.50150 -2.55650
#
# Velocity S-wave (km/s) = 0.43708 -1.64478 -1.12122
# Velocity P-wave (km/s) = 3.10683 3.74672 1.48081
#
# Compressibility (1/GPa) = -0.04963498
#
# Stress axis : x y z
#
# Youngs Moduli (GPa) = -26.34537 -8.08134 159.26025
#
# Poissons Ratio (x) = 0.71193 -3.26367
# Poissons Ratio (y) = 2.32090 8.87002
# Poissons Ratio (z) = 0.53989 -0.45009
#
# Static dielectric constant tensor:
#      x y z
#    x 1.759580 0.000000 0.000000 
#    y 0.000000 1.704730 0.000000 
#    z 0.000000 0.000000 1.649440 
# 
# From -- ./inp_files/48230.got.cif
#   From: 2010.05.17/outbox.ucp.g08.bks.cvg/sg64_25_cif.got.tgz:48230.got - 2010.06.11 16:36:46.
