data_PCOD9482206
_publ_section_title
;
Structure prediction by ZEFSAII (Michael W. Deem and Ramdas Pophale) SiO2 
 PCOD9482206
Probable space group: C M C A
;
_chemical_formula_sum "Si O2"
_cell_formula_units_Z 48
_cell_length_a 25.771418
_cell_length_b 8.610319
_cell_length_c 8.338792
_cell_angle_alpha 90.000000
_cell_angle_beta 90.000000
_cell_angle_gamma 90.000000
_cell_volume 1850.379029
_symmetry_space_group_name_H-M "C M C A"
_symmetry_group_IT_number 64
_symmetry_cell_setting 'orthorhombic'
loop_
_space_group_symop_operation_xyz
x,y,z
-x,1/2-y,1/2+z
x,-y,-z
-x,1/2+y,1/2-z
-x,-y,-z
x,1/2+y,1/2-z
-x,y,z
x,1/2-y,1/2+z
1/2+x,1/2+y,z
1/2-x,-y,1/2+z
1/2+x,1/2-y,-z
1/2-x,y,1/2-z
1/2-x,1/2-y,-z
1/2+x,y,1/2-z
1/2-x,1/2+y,z
1/2+x,-y,1/2+z
loop_
_atom_site_type_symbol
_atom_site_label
_atom_site_fract_x
_atom_site_fract_y
_atom_site_fract_z
Si Si1 0.714001 0.136455 0.611443
Si Si2 0.128054 0.402821 0.144039
Si Si3 0.057910 0.620555 0.356655
O O1 0.750000 0.064909 0.750000
O O2 0.750000 0.250000 0.500000
O O3 0.665856 0.181237 0.726074
O O4 0.693803 0.000000 0.500000
O O5 0.091214 0.528381 0.226717
O O6 0.090450 0.267611 0.084246
O O7 0.155402 0.500000 0.000000
O O8 0.052910 0.500000 0.500000
O O9 0.000000 0.665738 0.300200
#
# Coordination Sequence:
#
# PCOD9482206 Si02
#       3
#    16  16  16
#     4  12  30  52  79 114 155 210 273 335 405 477
#     4  12  28  48  80 118 163 213 269 338 408 481
#     4  11  26  49  80 118 164 215 268 328 410 493
#
# _framework density 25.940632000000001
#
# number of rings (size 3 to 8) (size 9 to 14) (size 15 to 20)
#    0.000    0.333    0.000    6.000   18.667    5.333 
#    0.000    0.000    0.000    0.000    0.000    0.000 
#    0.000    0.000    0.000    0.000    0.000    0.000 
#
# Total GULP energy -134256.252579 kJ/mol
# GULP energy per Si atom -5594.010524 kJ/mol
# Density = 2.588159 g / cm^3
# Si number density = 25.940632 Si / 1000 Ang^3
#
#
#
# Elastic Constant Matrix: (Units=GPa)
#
#
# Indices 1 2 3 4 5 6 
#
# 1 144.5957 48.6897 55.6620 0.0000 0.0000 0.0000
# 2 48.6897 122.6189 49.4525 0.0000 0.0000 0.0000
# 3 55.6620 49.4525 128.2764 0.0000 0.0000 0.0000
# 4 0.0000 0.0000 0.0000 48.8816 0.0000 0.0000
# 5 0.0000 0.0000 0.0000 0.0000 33.7278 0.0000
# 6 0.0000 0.0000 0.0000 0.0000 0.0000 32.8359
#
#
#
# Elastic Compliance Matrix: (Units=1/GPa)
#
#
# Indices 1 2 3 4 5 6 
#
# 1 0.008828 -0.002321 -0.002936 0.000000 0.000000 0.000000
# 2 -0.002321 0.010267 -0.002951 0.000000 0.000000 0.000000
# 3 -0.002936 -0.002951 0.010207 0.000000 0.000000 0.000000
# 4 0.000000 0.000000 0.000000 0.020458 0.000000 0.000000
# 5 0.000000 0.000000 0.000000 0.000000 0.029649 0.000000
# 6 0.000000 0.000000 0.000000 0.000000 0.000000 0.030454
#
#
# Mechanical properties :
#
#
# Convention : Reuss Voigt Hill
#
# Bulk Modulus (GPa) = 77.60194 78.12215 77.86204
# Shear Modulus (GPa) = 38.29248 39.20152 38.74700
#
# Velocity S-wave (km/s) = 3.84625 3.89163 3.86901
# Velocity P-wave (km/s) = 7.05018 7.09748 7.07387
#
# Compressibility (1/GPa) = 0.01288628
#
# Stress axis : x y z
#
# Youngs Moduli (GPa) = 113.28184 97.39748 97.97124
#
# Poissons Ratio (x) = 0.22609 0.28760
# Poissons Ratio (y) = 0.26296 0.28910
# Poissons Ratio (z) = 0.33255 0.28741
#
# Static dielectric constant tensor:
#      x y z
#    x 2.092200 0.000000 0.000000 
#    y 0.000000 1.982280 0.000000 
#    z 0.000000 0.000000 2.068090 
# 
# From -- ./inp_files/10792.got.cif
#   From: 2010.05.17/outbox.cif.g08.bks.cpg/sg64_6_cif.got.tgz:10792.got - 2010.06.03 16:29:19.
