data_PCOD9482605
_publ_section_title
;
Structure prediction by ZEFSAII (Michael W. Deem and Ramdas Pophale) SiO2 
 PCOD9482605
Probable space group: C M M M
;
_chemical_formula_sum "Si O2"
_cell_formula_units_Z 80
_cell_length_a 34.262053
_cell_length_b 19.952769
_cell_length_c 7.609852
_cell_angle_alpha 90.000000
_cell_angle_beta 90.000000
_cell_angle_gamma 90.000000
_cell_volume 5202.268552
_symmetry_space_group_name_H-M "C M M M"
_symmetry_group_IT_number 65
_symmetry_cell_setting 'orthorhombic'
loop_
_space_group_symop_operation_xyz
x,y,z
-x,-y,z
x,-y,-z
-x,y,-z
-x,-y,-z
x,y,-z
-x,y,z
x,-y,z
1/2+x,1/2+y,z
1/2-x,1/2-y,z
1/2+x,1/2-y,-z
1/2-x,1/2+y,-z
1/2-x,1/2-y,-z
1/2+x,1/2+y,-z
1/2-x,1/2+y,z
1/2+x,1/2-y,z
loop_
_atom_site_type_symbol
_atom_site_label
_atom_site_fract_x
_atom_site_fract_y
_atom_site_fract_z
Si Si1 0.687705 0.733213 0.797558
Si Si2 0.043718 0.077840 0.214288
Si Si3 0.328995 0.500000 0.786956
Si Si4 0.738989 0.000000 0.701154
Si Si5 0.260845 0.854766 0.703898
Si Si6 0.375830 0.633832 0.214865
O O1 0.705045 0.799825 0.711879
O O2 0.722818 0.678520 0.791149
O O3 0.649274 0.697341 0.723474
O O4 0.680611 0.750200 0.000000
O O5 0.079594 0.123832 0.272517
O O6 0.000000 0.096657 0.271351
O O7 0.050673 0.000000 0.264629
O O8 0.043844 0.078434 0.000000
O O9 0.286036 0.500000 0.708141
O O10 0.352587 0.433630 0.736405
O O11 0.325277 0.500000 0.000000
O O12 0.728066 0.927506 0.778861
O O13 0.724400 0.000000 0.500000
O O14 0.250024 0.864356 0.500000
O O15 0.375580 0.636256 0.000000
#
# Coordination Sequence:
#
# PCOD9482605 Si02
#       6
#    16  16   8   8  16  16
#     4  10  18  27  39  55  74  97 124 153 187 222
#     4   8  12  18  29  47  73 101 124 148 181 215
#     4  10  16  24  37  54  74  98 126 159 189 212
#     4  10  20  30  40  53  71  95 125 159 192 223
#     4  10  19  30  40  52  72  95 122 156 190 223
#     4   9  15  22  34  52  74  98 126 157 186 214
#
# _framework density 15.377907
#
# number of rings (size 3 to 8) (size 9 to 14) (size 15 to 20)
#    0.000    2.600    3.000    3.000    0.000    0.800 
#    0.000    0.000    0.000    0.000    0.000    0.000 
#    0.000    8.000    0.000    0.900    0.000   20.800 
#
# Total GULP energy -222903.495068 kJ/mol
# GULP energy per Si atom -5572.587377 kJ/mol
# Density = 1.534291 g / cm^3
# Si number density = 15.377907 Si / 1000 Ang^3
#
#
#
# Elastic Constant Matrix: (Units=GPa)
#
#
# Indices 1 2 3 4 5 6 
#
# 1 106.5476 47.9309 -2.9409 0.0000 0.0000 0.0000
# 2 47.9309 105.4485 -0.4764 0.0000 0.0000 0.0000
# 3 -2.9409 -0.4764 32.9480 0.0000 0.0000 0.0000
# 4 0.0000 0.0000 0.0000 15.5936 0.0000 0.0000
# 5 0.0000 0.0000 0.0000 0.0000 -116.5347 0.0000
# 6 0.0000 0.0000 0.0000 0.0000 0.0000 26.0476
#
#
#
# Elastic Compliance Matrix: (Units=1/GPa)
#
#
# Indices 1 2 3 4 5 6 
#
# 1 0.011829 -0.005373 0.000978 0.000000 0.000000 0.000000
# 2 -0.005373 0.011924 -0.000307 0.000000 0.000000 0.000000
# 3 0.000978 -0.000307 0.030434 0.000000 0.000000 0.000000
# 4 0.000000 0.000000 0.000000 0.064129 0.000000 0.000000
# 5 0.000000 0.000000 0.000000 0.000000 -0.008581 0.000000
# 6 0.000000 0.000000 0.000000 0.000000 0.000000 0.038391
#
#
# Mechanical properties :
#
#
# Convention : Reuss Voigt Hill
#
# Bulk Modulus (GPa) = 22.32937 37.10791 29.71864
# Shear Modulus (GPa) = 28.99273 -1.61668 13.68803
#
# Velocity S-wave (km/s) = 4.34677 -1.02644 2.98671
# Velocity P-wave (km/s) = 6.30433 4.77266 5.59119
#
# Compressibility (1/GPa) = 0.04478406
#
# Stress axis : x y z
#
# Youngs Moduli (GPa) = 84.53561 83.86473 32.85831
#
# Poissons Ratio (x) = 0.45057 -0.03214
# Poissons Ratio (y) = 0.45417 0.01009
# Poissons Ratio (z) = -0.08269 0.02576
#
# Static dielectric constant tensor:
#      x y z
#    x 1.510210 0.000000 0.000000 
#    y 0.000000 1.534490 0.000000 
#    z 0.000000 0.000000 1.567550 
# 
# From -- ./inp_files/18454.got.cif
#   From: 2010.05.17/outbox.cif.g08.bks.cpg/sg65_10_cif.got.tgz:18454.got - 2010.06.03 17:01:31.
