data_PCOD9482920
_publ_section_title
;
Structure prediction by ZEFSAII (Michael W. Deem and Ramdas Pophale) SiO2 
 PCOD9482920
Probable space group: C M M M
;
_chemical_formula_sum "Si O2"
_cell_formula_units_Z 96
_cell_length_a 22.143639
_cell_length_b 14.970638
_cell_length_c 16.282739
_cell_angle_alpha 90.000000
_cell_angle_beta 90.000000
_cell_angle_gamma 90.000000
_cell_volume 5397.799679
_symmetry_space_group_name_H-M "C M M M"
_symmetry_group_IT_number 65
_symmetry_cell_setting 'orthorhombic'
loop_
_space_group_symop_operation_xyz
x,y,z
-x,-y,z
x,-y,-z
-x,y,-z
-x,-y,-z
x,y,-z
-x,y,z
x,-y,z
1/2+x,1/2+y,z
1/2-x,1/2-y,z
1/2+x,1/2-y,-z
1/2-x,1/2+y,-z
1/2-x,1/2-y,-z
1/2+x,1/2+y,-z
1/2-x,1/2+y,z
1/2+x,1/2-y,z
loop_
_atom_site_type_symbol
_atom_site_label
_atom_site_fract_x
_atom_site_fract_y
_atom_site_fract_z
Si Si1 0.568292 0.754621 0.905389
Si Si2 0.163669 0.099443 0.905222
Si Si3 0.742974 0.857340 0.412049
Si Si4 0.099207 0.606097 0.411511
Si Si5 0.399471 0.104884 0.230727
Si Si6 0.243501 0.642547 0.233495
O O1 0.500000 0.719747 0.900649
O O2 0.615875 0.676812 0.886144
O O3 0.575346 0.835389 0.842192
O O4 0.578907 0.783478 0.000000
O O5 0.218393 0.105851 0.841812
O O6 0.136710 0.000000 0.899557
O O7 0.183829 0.111878 0.000000
O O8 0.767917 0.890066 0.500000
O O9 0.750000 0.750000 0.412190
O O10 0.671752 0.880230 0.411935
O O11 0.766853 0.888272 0.323638
O O12 0.076801 0.642213 0.500000
O O13 0.087325 0.500000 0.411782
O O14 0.079184 0.638014 0.321439
O O15 0.326601 0.115779 0.228029
O O16 0.414191 0.000000 0.222737
O O17 0.250000 0.750000 0.230717
#
# Coordination Sequence:
#
# PCOD9482920 Si02
#       6
#    16  16  16  16  16  16
#     4  10  22  39  56  73  94 124 166 212 253 295
#     4  10  21  36  54  75  98 127 165 209 254 297
#     4   8  14  23  38  64  97 132 164 191 225 277
#     4   8  14  25  42  65  94 129 165 196 228 273
#     4  10  19  31  50  77 107 137 164 194 241 298
#     4  10  17  29  50  75 107 138 162 196 243 295
#
# _framework density 17.785025000000001
#
# number of rings (size 3 to 8) (size 9 to 14) (size 15 to 20)
#    0.000    2.667    1.667    0.500    0.000    2.667 
#    0.000    2.500    0.000    0.500    0.000    2.333 
#    0.000    0.000    0.000    3.000    0.000    0.333 
#
# Total GULP energy -267250.264376 kJ/mol
# GULP energy per Si atom -5567.713841 kJ/mol
# Density = 1.774455 g / cm^3
# Si number density = 17.785025 Si / 1000 Ang^3
#
#
#
# Elastic Constant Matrix: (Units=GPa)
#
#
# Indices 1 2 3 4 5 6 
#
# 1 42.7363 5.8554 37.8736 0.0000 0.0000 0.0000
# 2 5.8554 59.3826 38.2894 0.0000 0.0000 0.0000
# 3 37.8736 38.2894 133.5757 0.0000 0.0000 0.0000
# 4 0.0000 0.0000 0.0000 10.4537 0.0000 0.0000
# 5 0.0000 0.0000 0.0000 0.0000 1.3240 0.0000
# 6 0.0000 0.0000 0.0000 0.0000 0.0000 -52.8053
#
#
#
# Elastic Compliance Matrix: (Units=1/GPa)
#
#
# Indices 1 2 3 4 5 6 
#
# 1 0.031765 0.003282 -0.009947 0.000000 0.000000 0.000000
# 2 0.003282 0.020997 -0.006949 0.000000 0.000000 0.000000
# 3 -0.009947 -0.006949 0.012299 0.000000 0.000000 0.000000
# 4 0.000000 0.000000 0.000000 0.095660 0.000000 0.000000
# 5 0.000000 0.000000 0.000000 0.000000 0.755279 0.000000
# 6 0.000000 0.000000 0.000000 0.000000 0.000000 -0.018937
#
#
# Mechanical properties :
#
#
# Convention : Reuss Voigt Hill
#
# Bulk Modulus (GPa) = 26.43307 44.41462 35.42384
# Shear Modulus (GPa) = 5.33673 2.03956 3.68815
#
# Velocity S-wave (km/s) = 1.73413 1.07204 1.44161
# Velocity P-wave (km/s) = 4.34792 5.15360 4.76781
#
# Compressibility (1/GPa) = 0.03783140
#
# Stress axis : x y z
#
# Youngs Moduli (GPa) = 31.48106 47.62532 81.30848
#
# Poissons Ratio (x) = -0.15629 0.80880
# Poissons Ratio (y) = -0.10331 0.56504
# Poissons Ratio (z) = 0.31315 0.33096
#
# Static dielectric constant tensor:
#      x y z
#    x 1.586150 0.000000 0.000000 
#    y 0.000000 1.603350 0.000000 
#    z 0.000000 0.000000 1.673200 
# 
# From -- ./inp_files/44139.got.cif
#   From: 2010.05.17/outbox.cif.g08.bks.cpg/sg65_23_cif.got.tgz:44139.got - 2010.06.03 17:01:31.
