data_PCOD9482713
_publ_section_title
;
Structure prediction by ZEFSAII (Michael W. Deem and Ramdas Pophale) SiO2 
 PCOD9482713
Probable space group: C M M M
;
_chemical_formula_sum "Si O2"
_cell_formula_units_Z 104
_cell_length_a 8.404019
_cell_length_b 28.134524
_cell_length_c 27.953629
_cell_angle_alpha 90.000000
_cell_angle_beta 90.000000
_cell_angle_gamma 90.000000
_cell_volume 6609.441977
_symmetry_space_group_name_H-M "C M M M"
_symmetry_group_IT_number 65
_symmetry_cell_setting 'orthorhombic'
loop_
_space_group_symop_operation_xyz
x,y,z
-x,-y,z
x,-y,-z
-x,y,-z
-x,-y,-z
x,y,-z
-x,y,z
x,-y,z
1/2+x,1/2+y,z
1/2-x,1/2-y,z
1/2+x,1/2-y,-z
1/2-x,1/2+y,-z
1/2-x,1/2-y,-z
1/2+x,1/2+y,-z
1/2-x,1/2+y,z
1/2+x,1/2-y,z
loop_
_atom_site_type_symbol
_atom_site_label
_atom_site_fract_x
_atom_site_fract_y
_atom_site_fract_z
Si Si1 0.190795 0.195311 0.103371
Si Si2 0.190805 0.302578 0.600250
Si Si3 0.190353 0.897611 0.553701
Si Si4 0.191729 0.553007 0.648204
Si Si5 0.809505 0.695669 0.204265
Si Si6 0.193759 0.352144 0.301616
Si Si7 0.692141 0.695326 0.000000
O O1 0.250000 0.250000 0.103059
O O2 0.255226 0.174973 0.153089
O O3 0.000000 0.195182 0.105439
O O4 0.242480 0.174570 0.051616
O O5 0.250000 0.250000 0.588892
O O6 0.260365 0.343693 0.566612
O O7 0.238700 0.317368 0.654554
O O8 0.000000 0.304398 0.597476
O O9 0.243473 0.909568 0.500000
O O10 0.262846 0.930680 0.594818
O O11 0.000000 0.901335 0.555851
O O12 0.251261 0.500000 0.658547
O O13 0.248180 0.595134 0.683294
O O14 0.000000 0.552408 0.651121
O O15 0.750000 0.750000 0.208032
O O16 0.750978 0.666685 0.250437
O O17 0.000000 0.696706 0.204745
O O18 0.000000 0.352721 0.300465
O O19 0.750000 0.750000 0.000000
O O20 0.500000 0.695611 0.000000
#
# Coordination Sequence:
#
# PCOD9482713 Si02
#       7
#    16  16  16  16  16  16   8
#     4   9  15  23  33  48  70  99 137 173 205 236
#     4  10  19  32  49  67  88 115 146 176 206 243
#     4  10  21  35  49  67  91 115 139 169 205 245
#     4   9  18  34  54  71  86 107 136 169 207 252
#     4  10  17  25  37  55  81 109 137 168 201 236
#     4   8  16  29  44  63  85 108 135 168 204 244
#     4   8  14  22  32  44  64  96 133 174 207 233
#
# _framework density 15.735065000000001
#
# number of rings (size 3 to 8) (size 9 to 14) (size 15 to 20)
#    0.000    2.769    0.000    4.154    0.000    2.769 
#    0.000    8.462    0.000    0.000    0.000    0.000 
#    0.000    0.000    0.000    0.692    0.000   16.077 
#
# Total GULP energy -289589.951177 kJ/mol
# GULP energy per Si atom -5569.037523 kJ/mol
# Density = 1.569925 g / cm^3
# Si number density = 15.735065 Si / 1000 Ang^3
#
#
#
# Elastic Constant Matrix: (Units=GPa)
#
#
# Indices 1 2 3 4 5 6 
#
# 1 18.3855 2.6335 10.0837 0.0000 0.0000 0.0000
# 2 2.6335 58.7744 21.8046 0.0000 0.0000 0.0000
# 3 10.0837 21.8046 124.2364 0.0000 0.0000 0.0000
# 4 0.0000 0.0000 0.0000 8.7125 0.0000 0.0000
# 5 0.0000 0.0000 0.0000 0.0000 8.7668 0.0000
# 6 0.0000 0.0000 0.0000 0.0000 0.0000 12.8091
#
#
#
# Elastic Compliance Matrix: (Units=1/GPa)
#
#
# Indices 1 2 3 4 5 6 
#
# 1 0.056969 -0.000895 -0.004467 0.000000 0.000000 0.000000
# 2 -0.000895 0.018213 -0.003124 0.000000 0.000000 0.000000
# 3 -0.004467 -0.003124 0.008960 0.000000 0.000000 0.000000
# 4 0.000000 0.000000 0.000000 0.114778 0.000000 0.000000
# 5 0.000000 0.000000 0.000000 0.000000 0.114067 0.000000
# 6 0.000000 0.000000 0.000000 0.000000 0.000000 0.078070
#
#
# Mechanical properties :
#
#
# Convention : Reuss Voigt Hill
#
# Bulk Modulus (GPa) = 14.88763 30.04885 22.46824
# Shear Modulus (GPa) = 11.61660 17.18264 14.39962
#
# Velocity S-wave (km/s) = 2.72005 3.30812 3.02839
# Velocity P-wave (km/s) = 4.39850 5.80773 5.15153
#
# Compressibility (1/GPa) = 0.06716988
#
# Stress axis : x y z
#
# Youngs Moduli (GPa) = 17.55347 54.90504 111.60728
#
# Poissons Ratio (x) = 0.04916 0.49852
# Poissons Ratio (y) = 0.01572 0.34865
# Poissons Ratio (z) = 0.07841 0.17152
#
# Static dielectric constant tensor:
#      x y z
#    x 1.592320 0.000000 0.000000 
#    y 0.000000 1.503630 0.000000 
#    z 0.000000 0.000000 1.573740 
# 
# From -- ./inp_files/73812.got.cif
#   From: 2010.05.17/outbox.cif.g08.bks.cpg/sg65_37_cif.got.tgz:73812.got - 2010.06.03 17:01:31.
