data_PCOD9482497
_publ_section_title
;
Structure prediction by ZEFSAII (Michael W. Deem and Ramdas Pophale) SiO2 
 PCOD9482497
Probable space group: C M C A
;
_chemical_formula_sum "Si O2"
_cell_formula_units_Z 52
_cell_length_a 27.000000
_cell_length_b 9.000000
_cell_length_c 21.000000
_cell_angle_alpha 90.000000
_cell_angle_beta 90.000000
_cell_angle_gamma 90.000000
_cell_volume 5103.000000
_symmetry_space_group_name_H-M "C M C A"
_symmetry_group_IT_number 64
_symmetry_cell_setting 'orthorhombic'
loop_
_space_group_symop_operation_xyz
x,y,z
-x,1/2-y,1/2+z
x,-y,-z
-x,1/2+y,1/2-z
-x,-y,-z
x,1/2+y,1/2-z
-x,y,z
x,1/2-y,1/2+z
1/2+x,1/2+y,z
1/2-x,-y,1/2+z
1/2+x,1/2-y,-z
1/2-x,y,1/2-z
1/2-x,1/2-y,-z
1/2+x,y,1/2-z
1/2-x,1/2+y,z
1/2+x,-y,1/2+z
loop_
_atom_site_type_symbol
_atom_site_label
_atom_site_fract_x
_atom_site_fract_y
_atom_site_fract_z
Si Si1 0.440930 0.182670 0.165910
Si Si2 0.806926 0.000000 0.500000
Si Si3 0.252609 0.909106 0.616840
Si Si4 0.395215 0.472041 0.223615
Si Si5 0.136534 0.092342 0.090851
Si Si6 0.710004 0.830357 0.299595
Si Si7 0.880174 0.234138 0.962330
O O1 0.500000 0.150585 0.161485
O O2 0.432816 0.343310 0.200168
O O3 0.416608 0.201479 0.094116
O O4 0.413329 0.061824 0.213218
O O5 0.770788 0.005927 0.560485
O O6 0.841684 0.138269 0.481726
O O7 0.266578 0.020589 0.672743
O O8 0.306790 0.847459 0.595227
O O9 0.212879 0.790822 0.643796
O O10 0.386401 0.582443 0.162304
O O11 0.342945 0.379721 0.228881
O O12 0.140415 0.918885 0.068955
O O13 0.105535 0.175149 0.034729
O O14 0.750000 0.770834 0.250000
#
# Coordination Sequence:
#
# PCOD9482497 Si02
#       7
#    16   8  16  16  16  16  16
#     4  11  24  46  70  95 125 170 227 285 345 397
#     4  12  22  34  61  92 128 174 217 264 318 382
#     4  11  22  37  59  92 133 179 221 254 306 394
#     4  10  24  41  68  95 133 173 218 277 331 399
#     4   9  20  41  61  92 132 177 217 265 323 396
#     4  11  25  38  62  96 139 174 217 254 321 391
#     4  10  22  39  63  91 127 167 222 276 332 387
#
# _framework density 10.190084000000001
#
# number of rings (size 3 to 8) (size 9 to 14) (size 15 to 20)
#    0.000    1.538    0.000    5.538    8.615    3.077 
#    0.000    7.308    0.000    0.000    0.000    0.000 
#    0.000    0.000    0.000    0.000    0.000    0.000 
#
# Total GULP energy -289959.115933 kJ/mol
# GULP energy per Si atom -5576.136845 kJ/mol
# Density = 1.016689 g / cm^3
# Si number density = 10.190084 Si / 1000 Ang^3
#
#
#
# Elastic Constant Matrix: (Units=GPa)
#
#
# Indices 1 2 3 4 5 6 
#
# 1 116.8456 33.8744 58.4116 0.0000 0.0000 0.0000
# 2 33.8744 67.5984 36.8654 0.0000 0.0000 0.0000
# 3 58.4116 36.8654 138.8019 0.0000 0.0000 0.0000
# 4 0.0000 0.0000 0.0000 46.0822 0.0000 0.0000
# 5 0.0000 0.0000 0.0000 0.0000 31.3795 0.0000
# 6 0.0000 0.0000 0.0000 0.0000 0.0000 27.8825
#
#
#
# Elastic Compliance Matrix: (Units=1/GPa)
#
#
# Indices 1 2 3 4 5 6 
#
# 1 0.011570 -0.003675 -0.003893 0.000000 0.000000 0.000000
# 2 -0.003675 0.018466 -0.003358 0.000000 0.000000 0.000000
# 3 -0.003893 -0.003358 0.009735 0.000000 0.000000 0.000000
# 4 0.000000 0.000000 0.000000 0.021700 0.000000 0.000000
# 5 0.000000 0.000000 0.000000 0.000000 0.031868 0.000000
# 6 0.000000 0.000000 0.000000 0.000000 0.000000 0.035865
#
#
# Mechanical properties :
#
#
# Convention : Reuss Voigt Hill
#
# Bulk Modulus (GPa) = 55.80655 64.61652 60.21154
# Shear Modulus (GPa) = 31.84148 34.00845 32.92496
#
# Velocity S-wave (km/s) = 3.95698 4.08941 4.02374
# Velocity P-wave (km/s) = 6.95120 7.35337 7.15511
#
# Compressibility (1/GPa) = 0.01791904
#
# Stress axis : x y z
#
# Youngs Moduli (GPa) = 86.43286 54.15332 102.72594
#
# Poissons Ratio (x) = 0.19900 0.39990
# Poissons Ratio (y) = 0.31762 0.34497
# Poissons Ratio (z) = 0.33647 0.18185
#
# Static dielectric constant tensor:
#      x y z
#    x 1.743450 0.000000 0.000000 
#    y 0.000000 1.751320 0.000000 
#    z 0.000000 0.000000 1.817810 
# 
# From -- ./inp_files/41878.got.cif
#   From: 2010.05.17/outbox.ucp.g08.bks.cvg/sg64_21_cif.got.tgz:41878.got - 2010.06.11 16:36:46.
