data_PCOD9482945
_publ_section_title
;
Structure prediction by ZEFSAII (Michael W. Deem and Ramdas Pophale) SiO2 
 PCOD9482945
Probable space group: C M M M
;
_chemical_formula_sum "Si O2"
_cell_formula_units_Z 112
_cell_length_a 21.039940
_cell_length_b 19.486736
_cell_length_c 17.234810
_cell_angle_alpha 90.000000
_cell_angle_beta 90.000000
_cell_angle_gamma 90.000000
_cell_volume 7066.267899
_symmetry_space_group_name_H-M "C M M M"
_symmetry_group_IT_number 65
_symmetry_cell_setting 'orthorhombic'
loop_
_space_group_symop_operation_xyz
x,y,z
-x,-y,z
x,-y,-z
-x,y,-z
-x,-y,-z
x,y,-z
-x,y,z
x,-y,z
1/2+x,1/2+y,z
1/2-x,1/2-y,z
1/2+x,1/2-y,-z
1/2-x,1/2+y,-z
1/2-x,1/2-y,-z
1/2+x,1/2+y,-z
1/2-x,1/2+y,z
1/2+x,1/2-y,z
loop_
_atom_site_type_symbol
_atom_site_label
_atom_site_fract_x
_atom_site_fract_y
_atom_site_fract_z
Si Si1 0.314192 0.202667 0.749148
Si Si2 0.215216 0.323444 0.915541
Si Si3 0.337887 0.418209 0.912819
Si Si4 0.427719 0.325252 0.500000
Si Si5 0.070940 0.784723 0.672549
Si Si6 0.251028 0.079120 0.333908
Si Si7 0.305640 0.581594 0.500000
Si Si8 0.613474 0.579013 0.748376
O O1 0.250000 0.250000 0.746754
O O2 0.326134 0.181451 0.838427
O O3 0.372683 0.244344 0.714246
O O4 0.298540 0.134223 0.701374
O O5 0.250000 0.250000 0.920057
O O6 0.271300 0.378827 0.903653
O O7 0.184870 0.336220 0.000000
O O8 0.327198 0.500000 0.908874
O O9 0.382408 0.401633 0.839584
O O10 0.362048 0.401889 0.000000
O O11 0.500000 0.353023 0.500000
O O12 0.420265 0.283394 0.420318
O O13 0.373489 0.382240 0.500000
O O14 0.076282 0.864040 0.700250
O O15 0.000000 0.759508 0.691127
O O16 0.231865 0.098950 0.421549
O O17 0.185815 0.081173 0.283916
O O18 0.273424 0.000000 0.332993
O O19 0.315156 0.500000 0.500000
O O20 0.591218 0.500000 0.740223
#
# Coordination Sequence:
#
# PCOD9482945 Si02
#       8
#    16  16  16   8  16  16   8  16
#     4  11  18  32  53  72  95 131 165 201 248 298
#     4   9  16  25  41  67  95 121 155 198 242 283
#     4   9  16  26  44  72 102 128 158 200 243 283
#     4  10  20  34  47  65  96 132 168 203 238 287
#     4  11  23  36  50  72  99 130 170 210 245 289
#     4  10  19  30  48  74 100 127 161 203 247 291
#     4  10  18  30  45  71 106 130 158 204 247 294
#     4  10  17  30  49  70 101 133 161 194 240 293
#
# _framework density 15.849951000000001
#
# number of rings (size 3 to 8) (size 9 to 14) (size 15 to 20)
#    0.000    2.000    4.286    0.857    0.000    1.000 
#    0.000    2.857    0.000    2.143    0.000    2.000 
#    0.000    3.429    0.000    4.857    0.000    0.000 
#
# Total GULP energy -312026.165577 kJ/mol
# GULP energy per Si atom -5571.895814 kJ/mol
# Density = 1.581388 g / cm^3
# Si number density = 15.849951 Si / 1000 Ang^3
#
#
#
# Elastic Constant Matrix: (Units=GPa)
#
#
# Indices 1 2 3 4 5 6 
#
# 1 61.4939 26.0960 35.5922 0.0000 0.0000 0.0000
# 2 26.0960 46.2810 30.4014 0.0000 0.0000 0.0000
# 3 35.5922 30.4014 127.5249 0.0000 0.0000 0.0000
# 4 0.0000 0.0000 0.0000 19.9631 0.0000 0.0000
# 5 0.0000 0.0000 0.0000 0.0000 0.9905 0.0000
# 6 0.0000 0.0000 0.0000 0.0000 0.0000 13.9015
#
#
#
# Elastic Compliance Matrix: (Units=1/GPa)
#
#
# Indices 1 2 3 4 5 6 
#
# 1 0.022928 -0.010345 -0.003933 0.000000 0.000000 0.000000
# 2 -0.010345 0.030286 -0.004333 0.000000 0.000000 0.000000
# 3 -0.003933 -0.004333 0.009972 0.000000 0.000000 0.000000
# 4 0.000000 0.000000 0.000000 0.050092 0.000000 0.000000
# 5 0.000000 0.000000 0.000000 0.000000 1.009564 0.000000
# 6 0.000000 0.000000 0.000000 0.000000 0.000000 0.071935
#
#
# Mechanical properties :
#
#
# Convention : Reuss Voigt Hill
#
# Bulk Modulus (GPa) = 38.51283 46.60875 42.56079
# Shear Modulus (GPa) = 4.03013 16.51837 10.27425
#
# Velocity S-wave (km/s) = 1.59631 3.23177 2.54878
# Velocity P-wave (km/s) = 5.26771 6.58755 5.96425
#
# Compressibility (1/GPa) = 0.02596537
#
# Stress axis : x y z
#
# Youngs Moduli (GPa) = 43.61450 33.01817 100.27775
#
# Poissons Ratio (x) = 0.34156 0.39440
# Poissons Ratio (y) = 0.45118 0.43450
# Poissons Ratio (z) = 0.17154 0.14307
#
# Static dielectric constant tensor:
#      x y z
#    x 1.491150 0.000000 0.000000 
#    y 0.000000 1.951160 0.000000 
#    z 0.000000 0.000000 1.595190 
# 
# From -- ./inp_files/56198.got.cif
#   From: 2010.05.17/outbox.cif.g08.bks.cpg/sg65_29_cif.got.tgz:56198.got - 2010.06.03 17:01:31.
