data_PCOD9482620
_publ_section_title
;
Structure prediction by ZEFSAII (Michael W. Deem and Ramdas Pophale) SiO2 
 PCOD9482620
Probable space group: C M M M
;
_chemical_formula_sum "Si O2"
_cell_formula_units_Z 64
_cell_length_a 15.117076
_cell_length_b 8.729480
_cell_length_c 21.805803
_cell_angle_alpha 90.000000
_cell_angle_beta 90.000000
_cell_angle_gamma 90.000000
_cell_volume 2877.585623
_symmetry_space_group_name_H-M "C M M M"
_symmetry_group_IT_number 65
_symmetry_cell_setting 'orthorhombic'
loop_
_space_group_symop_operation_xyz
x,y,z
-x,-y,z
x,-y,-z
-x,y,-z
-x,-y,-z
x,y,-z
-x,y,z
x,-y,z
1/2+x,1/2+y,z
1/2-x,1/2-y,z
1/2+x,1/2-y,-z
1/2-x,1/2+y,-z
1/2-x,1/2-y,-z
1/2+x,1/2+y,-z
1/2-x,1/2+y,z
1/2+x,1/2-y,z
loop_
_atom_site_type_symbol
_atom_site_label
_atom_site_fract_x
_atom_site_fract_y
_atom_site_fract_z
Si Si1 0.104453 0.169923 0.875176
Si Si2 0.848298 0.681360 0.250313
Si Si3 0.350776 0.316495 0.374402
Si Si4 0.108769 0.323982 0.000000
Si Si5 0.149182 0.683894 0.500000
O O1 0.113255 0.274268 0.815394
O O2 0.139781 0.241786 0.937940
O O3 0.000000 0.153880 0.885386
O O4 0.142362 0.000000 0.863206
O O5 0.847216 0.500000 0.259481
O O6 0.750000 0.750000 0.247270
O O7 0.891360 0.760011 0.310187
O O8 0.348658 0.500000 0.377252
O O9 0.250000 0.250000 0.373076
O O10 0.390947 0.247585 0.436746
O O11 0.136366 0.500000 0.000000
O O12 0.000000 0.322883 0.000000
O O13 0.150959 0.500000 0.500000
O O14 0.250000 0.750000 0.500000
#
# Coordination Sequence:
#
# PCOD9482620 Si02
#       5
#    16  16  16   8   8
#     4  10  20  35  55  78 103 132 167 206 248 295
#     4  11  21  34  51  73 103 136 169 206 252 301
#     4  10  17  27  42  63  92 126 163 202 247 294
#     4   9  17  31  52  77 102 129 164 205 247 291
#     4  10  16  24  38  60  89 122 161 202 245 290
#
# _framework density 22.240867000000001
#
# number of rings (size 3 to 8) (size 9 to 14) (size 15 to 20)
#    0.000    1.875    0.000    9.750    0.000    3.000 
#    0.000    0.625    0.000    0.000    0.000    0.875 
#    0.000    7.000    0.000    0.000    0.000    0.000 
#
# Total GULP energy -178718.004924 kJ/mol
# GULP energy per Si atom -5584.937654 kJ/mol
# Density = 2.219025 g / cm^3
# Si number density = 22.240867 Si / 1000 Ang^3
#
#
#
# Elastic Constant Matrix: (Units=GPa)
#
#
# Indices 1 2 3 4 5 6 
#
# 1 37.8179 8.7244 12.1974 0.0000 0.0000 0.0000
# 2 8.7244 233.2350 90.4938 0.0000 0.0000 0.0000
# 3 12.1974 90.4938 221.2706 0.0000 0.0000 0.0000
# 4 0.0000 0.0000 0.0000 -25.0143 0.0000 0.0000
# 5 0.0000 0.0000 0.0000 0.0000 35.3457 0.0000
# 6 0.0000 0.0000 0.0000 0.0000 0.0000 8.3585
#
#
#
# Elastic Compliance Matrix: (Units=1/GPa)
#
#
# Indices 1 2 3 4 5 6 
#
# 1 0.026973 -0.000514 -0.001277 0.000000 0.000000 0.000000
# 2 -0.000514 0.005106 -0.002060 0.000000 0.000000 0.000000
# 3 -0.001277 -0.002060 0.005432 0.000000 0.000000 0.000000
# 4 0.000000 0.000000 0.000000 -0.039977 0.000000 0.000000
# 5 0.000000 0.000000 0.000000 0.000000 0.028292 0.000000
# 6 0.000000 0.000000 0.000000 0.000000 0.000000 0.119639
#
#
# Mechanical properties :
#
#
# Convention : Reuss Voigt Hill
#
# Bulk Modulus (GPa) = 33.54537 79.46163 56.50350
# Shear Modulus (GPa) = 30.65569 29.13185 29.89377
#
# Velocity S-wave (km/s) = 3.71664 3.62309 3.67016
# Velocity P-wave (km/s) = 5.79080 7.30121 6.58943
#
# Compressibility (1/GPa) = 0.02981037
#
# Stress axis : x y z
#
# Youngs Moduli (GPa) = 37.07444 195.84966 184.08821
#
# Poissons Ratio (x) = 0.10058 0.23505
# Poissons Ratio (y) = 0.01904 0.37920
# Poissons Ratio (z) = 0.04734 0.40343
#
# Static dielectric constant tensor:
#      x y z
#    x 1.862170 0.000000 0.000000 
#    y 0.000000 1.775020 0.000000 
#    z 0.000000 0.000000 1.885110 
# 
# From -- ./inp_files/63260.got.cif
#   From: 2010.05.17/outbox.cif.g08.bks.cpg/sg65_32_cif.got.tgz:63260.got - 2010.06.03 17:01:31.
