data_PCOD9482001
_publ_section_title
;
Structure prediction by ZEFSAII (Michael W. Deem and Ramdas Pophale) SiO2 
 PCOD9482001
Probable space group: C M C A
;
_chemical_formula_sum "Si O2"
_cell_formula_units_Z 72
_cell_length_a 21.930517
_cell_length_b 9.700943
_cell_length_c 14.187099
_cell_angle_alpha 90.000000
_cell_angle_beta 90.000000
_cell_angle_gamma 90.000000
_cell_volume 3018.258429
_symmetry_space_group_name_H-M "C M C A"
_symmetry_group_IT_number 64
_symmetry_cell_setting 'orthorhombic'
loop_
_space_group_symop_operation_xyz
x,y,z
-x,1/2-y,1/2+z
x,-y,-z
-x,1/2+y,1/2-z
-x,-y,-z
x,1/2+y,1/2-z
-x,y,z
x,1/2-y,1/2+z
1/2+x,1/2+y,z
1/2-x,-y,1/2+z
1/2+x,1/2-y,-z
1/2-x,y,1/2-z
1/2-x,1/2-y,-z
1/2+x,y,1/2-z
1/2-x,1/2+y,z
1/2+x,-y,1/2+z
loop_
_atom_site_type_symbol
_atom_site_label
_atom_site_fract_x
_atom_site_fract_y
_atom_site_fract_z
Si Si1 0.129832 0.846442 0.157320
Si Si2 0.663218 0.000000 0.000000
Si Si3 0.731896 0.557291 0.145760
Si Si4 0.931752 0.893511 0.760649
Si Si5 0.617328 0.287874 0.945855
O O1 0.113853 0.697867 0.198445
O O2 0.198386 0.907309 0.154750
O O3 0.093293 0.953435 0.223077
O O4 0.107524 0.851149 0.049246
O O5 0.709276 0.050777 0.080855
O O6 0.624083 0.874290 0.038723
O O7 0.750000 0.602414 0.250000
O O8 0.681413 0.653053 0.095673
O O9 0.929781 0.828833 0.865635
O O10 0.000000 0.890660 0.722072
#
# Coordination Sequence:
#
# PCOD9482001 Si02
#       5
#    16   8  16  16  16
#     4  11  25  46  68 102 138 177 231 289 343 420
#     4  12  24  42  65 106 141 182 230 282 340 414
#     4  11  23  41  69  99 137 187 224 278 343 414
#     4  11  25  46  72  98 130 179 234 294 357 405
#     4  11  26  43  67 100 140 182 234 286 342 418
#
# _framework density 23.854814999999999
#
# number of rings (size 3 to 8) (size 9 to 14) (size 15 to 20)
#    0.000    0.889    2.222    4.667    9.333    3.556 
#    0.000    0.556    0.000    0.000    0.000    0.000 
#    0.000    0.000    0.000    0.000    0.000    0.000 
#
# Total GULP energy -201708.577605 kJ/mol
# GULP energy per Si atom -5603.016045 kJ/mol
# Density = 2.380052 g / cm^3
# Si number density = 23.854815 Si / 1000 Ang^3
#
#
#
# Elastic Constant Matrix: (Units=GPa)
#
#
# Indices 1 2 3 4 5 6 
#
# 1 63.5478 14.2875 2.1979 0.0000 0.0000 0.0000
# 2 14.2875 73.4425 19.0519 0.0000 0.0000 0.0000
# 3 2.1979 19.0519 131.9665 0.0000 0.0000 0.0000
# 4 0.0000 0.0000 0.0000 42.8797 0.0000 0.0000
# 5 0.0000 0.0000 0.0000 0.0000 16.5210 0.0000
# 6 0.0000 0.0000 0.0000 0.0000 0.0000 9.9628
#
#
#
# Elastic Compliance Matrix: (Units=1/GPa)
#
#
# Indices 1 2 3 4 5 6 
#
# 1 0.016461 -0.003253 0.000195 0.000000 0.000000 0.000000
# 2 -0.003253 0.014789 -0.002081 0.000000 0.000000 0.000000
# 3 0.000195 -0.002081 0.007875 0.000000 0.000000 0.000000
# 4 0.000000 0.000000 0.000000 0.023321 0.000000 0.000000
# 5 0.000000 0.000000 0.000000 0.000000 0.060529 0.000000
# 6 0.000000 0.000000 0.000000 0.000000 0.000000 0.100374
#
#
# Mechanical properties :
#
#
# Convention : Reuss Voigt Hill
#
# Bulk Modulus (GPa) = 34.66491 37.78127 36.22309
# Shear Modulus (GPa) = 20.55578 29.43400 24.99489
#
# Velocity S-wave (km/s) = 2.93866 3.51647 3.24047
# Velocity P-wave (km/s) = 5.10661 5.68857 5.40543
#
# Compressibility (1/GPa) = 0.02884762
#
# Stress axis : x y z
#
# Youngs Moduli (GPa) = 60.75046 67.61904 126.98677
#
# Poissons Ratio (x) = 0.21996 -0.02482
# Poissons Ratio (y) = 0.19762 0.26424
# Poissons Ratio (z) = -0.01188 0.14071
#
# Static dielectric constant tensor:
#      x y z
#    x 1.853200 0.000000 0.000000 
#    y 0.000000 1.947800 0.000000 
#    z 0.000000 0.000000 1.887620 
# 
# From -- ./inp_files/27817.got.cif
#   From: 2010.05.17/outbox.cif.g08.bks.cpg/sg64_14_cif.got.tgz:27817.got - 2010.06.03 16:29:19.
