data_PCOD9482522
_publ_section_title
;
Structure prediction by ZEFSAII (Michael W. Deem and Ramdas Pophale) SiO2 
 PCOD9482522
Probable space group: C M C A
;
_chemical_formula_sum "Si O2"
_cell_formula_units_Z 44
_cell_length_a 21.000000
_cell_length_b 24.000000
_cell_length_c 9.000000
_cell_angle_alpha 90.000000
_cell_angle_beta 90.000000
_cell_angle_gamma 90.000000
_cell_volume 4536.000000
_symmetry_space_group_name_H-M "C M C A"
_symmetry_group_IT_number 64
_symmetry_cell_setting 'orthorhombic'
loop_
_space_group_symop_operation_xyz
x,y,z
-x,1/2-y,1/2+z
x,-y,-z
-x,1/2+y,1/2-z
-x,-y,-z
x,1/2+y,1/2-z
-x,y,z
x,1/2-y,1/2+z
1/2+x,1/2+y,z
1/2-x,-y,1/2+z
1/2+x,1/2-y,-z
1/2-x,y,1/2-z
1/2-x,1/2-y,-z
1/2+x,y,1/2-z
1/2-x,1/2+y,z
1/2+x,-y,1/2+z
loop_
_atom_site_type_symbol
_atom_site_label
_atom_site_fract_x
_atom_site_fract_y
_atom_site_fract_z
Si Si1 0.279504 0.000000 0.000000
Si Si2 0.278410 0.305032 0.419703
Si Si3 0.874702 0.939935 0.718400
Si Si4 0.923993 0.145375 0.508504
Si Si5 0.810315 0.908391 0.024817
Si Si6 0.071175 0.061513 0.781194
O O1 0.323934 0.962002 0.900449
O O2 0.232279 0.040958 0.914505
O O3 0.250000 0.301421 0.250000
O O4 0.250000 0.250000 0.500000
O O5 0.356555 0.318607 0.448467
O O6 0.237100 0.356668 0.480386
O O7 0.911051 0.887038 0.646654
O O8 0.915242 0.995612 0.758416
O O9 0.835926 0.921466 0.861913
O O10 0.926423 0.095028 0.627009
O O11 0.000000 0.168367 0.509183
O O12 0.873793 0.908872 0.123572
O O13 0.000000 0.067836 0.845333
#
# Coordination Sequence:
#
# PCOD9482522 Si02
#       6
#     8  16  16  16  16  16
#     4  12  22  34  62  98 138 176 222 272 322 400
#     4  12  28  49  75  99 128 172 236 292 343 404
#     4  12  22  36  63  99 142 184 226 264 328 405
#     4  11  24  43  69  99 140 179 220 274 341 408
#     4  12  25  39  65  98 136 177 226 290 333 395
#     4  11  22  40  62  98 144 184 217 265 337 404
#
# _framework density 9.7001760000000008
#
# number of rings (size 3 to 8) (size 9 to 14) (size 15 to 20)
#    0.000    0.364    7.273    1.091    2.545    3.636 
#    0.000    1.818    0.000    0.000    0.000    0.000 
#    0.000    0.000    0.000    0.000    0.000    0.000 
#
# Total GULP energy -245072.623878 kJ/mol
# GULP energy per Si atom -5569.832361 kJ/mol
# Density = 0.967810 g / cm^3
# Si number density = 9.700176 Si / 1000 Ang^3
#
#
#
# Elastic Constant Matrix: (Units=GPa)
#
#
# Indices 1 2 3 4 5 6 
#
# 1 174.8257 42.0106 26.1957 0.0000 0.0000 0.0000
# 2 42.0106 94.1822 10.0019 0.0000 0.0000 0.0000
# 3 26.1957 10.0019 81.9893 0.0000 0.0000 0.0000
# 4 0.0000 0.0000 0.0000 26.4446 0.0000 0.0000
# 5 0.0000 0.0000 0.0000 0.0000 27.3951 0.0000
# 6 0.0000 0.0000 0.0000 0.0000 0.0000 25.1932
#
#
#
# Elastic Compliance Matrix: (Units=1/GPa)
#
#
# Indices 1 2 3 4 5 6 
#
# 1 0.006656 -0.002779 -0.001787 0.000000 0.000000 0.000000
# 2 -0.002779 0.011917 -0.000566 0.000000 0.000000 0.000000
# 3 -0.001787 -0.000566 0.012837 0.000000 0.000000 0.000000
# 4 0.000000 0.000000 0.000000 0.037815 0.000000 0.000000
# 5 0.000000 0.000000 0.000000 0.000000 0.036503 0.000000
# 6 0.000000 0.000000 0.000000 0.000000 0.000000 0.039693
#
#
# Mechanical properties :
#
#
# Convention : Reuss Voigt Hill
#
# Bulk Modulus (GPa) = 47.29217 56.37928 51.83572
# Shear Modulus (GPa) = 30.72501 33.99252 32.35877
#
# Velocity S-wave (km/s) = 3.98393 4.19042 4.08848
# Velocity P-wave (km/s) = 6.75220 7.24823 7.00461
#
# Compressibility (1/GPa) = 0.02114515
#
# Stress axis : x y z
#
# Youngs Moduli (GPa) = 150.24957 83.91102 77.90074
#
# Poissons Ratio (x) = 0.23318 0.13924
# Poissons Ratio (y) = 0.41754 0.04409
# Poissons Ratio (z) = 0.26857 0.04749
#
# Static dielectric constant tensor:
#      x y z
#    x 1.738830 0.000000 0.000000 
#    y 0.000000 1.697620 0.000000 
#    z 0.000000 0.000000 1.748620 
# 
# From -- ./inp_files/8241.got.cif
#   From: 2010.05.17/outbox.ucp.g08.bks.cvg/sg64_5_cif.got.tgz:8241.got - 2010.06.11 16:36:46.
