data_PCOD9482235
_publ_section_title
;
Structure prediction by ZEFSAII (Michael W. Deem and Ramdas Pophale) SiO2 
 PCOD9482235
Probable space group: C M C A
;
_chemical_formula_sum "Si O2"
_cell_formula_units_Z 56
_cell_length_a 23.387057
_cell_length_b 17.411920
_cell_length_c 6.369549
_cell_angle_alpha 90.000000
_cell_angle_beta 90.000000
_cell_angle_gamma 90.000000
_cell_volume 2593.766759
_symmetry_space_group_name_H-M "C M C A"
_symmetry_group_IT_number 64
_symmetry_cell_setting 'orthorhombic'
loop_
_space_group_symop_operation_xyz
x,y,z
-x,1/2-y,1/2+z
x,-y,-z
-x,1/2+y,1/2-z
-x,-y,-z
x,1/2+y,1/2-z
-x,y,z
x,1/2-y,1/2+z
1/2+x,1/2+y,z
1/2-x,-y,1/2+z
1/2+x,1/2-y,-z
1/2-x,y,1/2-z
1/2-x,1/2-y,-z
1/2+x,y,1/2-z
1/2-x,1/2+y,z
1/2+x,-y,1/2+z
loop_
_atom_site_type_symbol
_atom_site_label
_atom_site_fract_x
_atom_site_fract_y
_atom_site_fract_z
Si Si1 0.689997 0.555654 0.325900
Si Si2 0.874615 0.650829 0.494039
Si Si3 0.500000 0.287313 0.959620
Si Si4 0.690954 0.191967 0.871674
O O1 0.664583 0.500000 0.500000
O O2 0.750000 0.519878 0.250000
O O3 0.648492 0.580348 0.140699
O O4 0.705478 0.636440 0.436816
O O5 0.841738 0.730044 0.428839
O O6 0.853498 0.643781 0.731035
O O7 0.941123 0.666082 0.465229
O O8 0.500000 0.251482 0.708764
O O9 0.750000 0.206111 0.750000
#
# Coordination Sequence:
#
# PCOD9482235 Si02
#       4
#    16  16   8  16
#     4  12  26  42  64 101 142 181 227 289 366 432
#     4  12  24  40  69 102 136 183 234 294 349 426
#     4  12  24  44  71 107 147 189 244 302 354 414
#     4  12  21  39  66 100 136 171 228 292 355 420
#
# _framework density 21.590221
#
# number of rings (size 3 to 8) (size 9 to 14) (size 15 to 20)
#    0.000    0.000    8.571    2.571    0.000    0.000 
#    0.000    0.714    0.000    1.714    0.000    0.000 
#    0.000    0.000    0.000    0.000    0.000    0.000 
#
# Total GULP energy -156271.838387 kJ/mol
# GULP energy per Si atom -5581.137085 kJ/mol
# Density = 2.154108 g / cm^3
# Si number density = 21.590221 Si / 1000 Ang^3
#
#
#
# Elastic Constant Matrix: (Units=GPa)
#
#
# Indices 1 2 3 4 5 6 
#
# 1 138.1223 16.1847 15.0674 0.0000 0.0000 0.0000
# 2 16.1847 64.5746 32.4595 0.0000 0.0000 0.0000
# 3 15.0674 32.4595 99.9967 0.0000 0.0000 0.0000
# 4 0.0000 0.0000 0.0000 54.4421 0.0000 0.0000
# 5 0.0000 0.0000 0.0000 0.0000 23.0318 0.0000
# 6 0.0000 0.0000 0.0000 0.0000 0.0000 10.4291
#
#
#
# Elastic Compliance Matrix: (Units=1/GPa)
#
#
# Indices 1 2 3 4 5 6 
#
# 1 0.007491 -0.001566 -0.000621 0.000000 0.000000 0.000000
# 2 -0.001566 0.018833 -0.005877 0.000000 0.000000 0.000000
# 3 -0.000621 -0.005877 0.012002 0.000000 0.000000 0.000000
# 4 0.000000 0.000000 0.000000 0.018368 0.000000 0.000000
# 5 0.000000 0.000000 0.000000 0.000000 0.043418 0.000000
# 6 0.000000 0.000000 0.000000 0.000000 0.000000 0.095886
#
#
# Mechanical properties :
#
#
# Convention : Reuss Voigt Hill
#
# Bulk Modulus (GPa) = 45.04804 47.79076 46.41940
# Shear Modulus (GPa) = 22.77653 33.51272 28.14462
#
# Velocity S-wave (km/s) = 3.25152 3.94409 3.61443
# Velocity P-wave (km/s) = 5.91665 6.55169 6.24225
#
# Compressibility (1/GPa) = 0.02219852
#
# Stress axis : x y z
#
# Youngs Moduli (GPa) = 133.49159 53.09919 83.32193
#
# Poissons Ratio (x) = 0.08313 0.05171
# Poissons Ratio (y) = 0.20900 0.48971
# Poissons Ratio (z) = 0.08284 0.31208
#
# Static dielectric constant tensor:
#      x y z
#    x 1.726990 0.000000 0.000000 
#    y 0.000000 1.793620 0.000000 
#    z 0.000000 0.000000 1.964060 
# 
# From -- ./inp_files/2106.got.cif
#   From: 2010.05.17/outbox.cif.g08.bks.cpg/sg64_2_cif.got.tgz:2106.got - 2010.06.03 16:29:19.
