data_PCOD9482809
_publ_section_title
;
Structure prediction by ZEFSAII (Michael W. Deem and Ramdas Pophale) SiO2 
 PCOD9482809
Probable space group: C M M M
;
_chemical_formula_sum "Si O2"
_cell_formula_units_Z 80
_cell_length_a 7.713998
_cell_length_b 29.279309
_cell_length_c 23.551147
_cell_angle_alpha 90.000000
_cell_angle_beta 90.000000
_cell_angle_gamma 90.000000
_cell_volume 5319.274569
_symmetry_space_group_name_H-M "C M M M"
_symmetry_group_IT_number 65
_symmetry_cell_setting 'orthorhombic'
loop_
_space_group_symop_operation_xyz
x,y,z
-x,-y,z
x,-y,-z
-x,y,-z
-x,-y,-z
x,y,-z
-x,y,z
x,-y,z
1/2+x,1/2+y,z
1/2-x,1/2-y,z
1/2+x,1/2-y,-z
1/2-x,1/2+y,-z
1/2-x,1/2-y,-z
1/2+x,1/2+y,-z
1/2-x,1/2+y,z
1/2+x,1/2-y,z
loop_
_atom_site_type_symbol
_atom_site_label
_atom_site_fract_x
_atom_site_fract_y
_atom_site_fract_z
Si Si1 0.500000 0.555704 0.434791
Si Si2 0.212404 0.446937 0.000000
Si Si3 0.199001 0.555579 0.350445
Si Si4 0.788170 0.552750 0.223901
Si Si5 0.205143 0.604109 0.886994
Si Si6 0.206101 0.198650 0.935291
O O1 0.500000 0.500000 0.435289
O O2 0.500000 0.570881 0.500000
O O3 0.330499 0.570087 0.399395
O O4 0.274304 0.421364 0.943223
O O5 0.261316 0.500000 0.000000
O O6 0.000000 0.445157 0.000000
O O7 0.196431 0.500000 0.349964
O O8 0.262165 0.568398 0.287134
O O9 0.000000 0.570570 0.359104
O O10 0.734934 0.500000 0.215190
O O11 0.726031 0.583584 0.171786
O O12 0.000000 0.552769 0.224899
O O13 0.228799 0.657871 0.896162
O O14 0.000000 0.594582 0.886176
O O15 0.250000 0.250000 0.916868
O O16 0.000000 0.194773 0.937968
O O17 0.276085 0.192791 0.000000
#
# Coordination Sequence:
#
# PCOD9482809 Si02
#       6
#     8   8  16  16  16  16
#     4   9  16  24  36  56  78 101 137 181 217 248
#     4   9  16  24  38  61  84 105 132 169 210 249
#     4   8  14  25  38  52  75 107 141 176 210 244
#     4   8  14  25  41  59  80 109 142 173 202 242
#     4  10  17  27  44  63  81 102 134 172 210 252
#     4  10  20  33  47  60  77  99 128 169 216 262
#
# _framework density 15.039645
#
# number of rings (size 3 to 8) (size 9 to 14) (size 15 to 20)
#    0.000    3.000    1.000    2.400    0.000    3.600 
#    1.800    2.000    0.000    2.400    0.000    0.000 
#    0.000    0.000    0.000    0.000    0.000    1.000 
#
# Total GULP energy -222840.759328 kJ/mol
# GULP energy per Si atom -5571.018983 kJ/mol
# Density = 1.500541 g / cm^3
# Si number density = 15.039645 Si / 1000 Ang^3
#
#
#
# Elastic Constant Matrix: (Units=GPa)
#
#
# Indices 1 2 3 4 5 6 
#
# 1 43.4495 3.7902 41.0489 0.0000 0.0000 0.0000
# 2 3.7902 58.0214 52.0063 0.0000 0.0000 0.0000
# 3 41.0489 52.0063 150.5056 0.0000 0.0000 0.0000
# 4 0.0000 0.0000 0.0000 3.6844 0.0000 0.0000
# 5 0.0000 0.0000 0.0000 0.0000 2.5491 0.0000
# 6 0.0000 0.0000 0.0000 0.0000 0.0000 9.0855
#
#
#
# Elastic Compliance Matrix: (Units=1/GPa)
#
#
# Indices 1 2 3 4 5 6 
#
# 1 0.033834 0.008781 -0.012262 0.000000 0.000000 0.000000
# 2 0.008781 0.027247 -0.011810 0.000000 0.000000 0.000000
# 3 -0.012262 -0.011810 0.014069 0.000000 0.000000 0.000000
# 4 0.000000 0.000000 0.000000 0.271411 0.000000 0.000000
# 5 0.000000 0.000000 0.000000 0.000000 0.392296 0.000000
# 6 0.000000 0.000000 0.000000 0.000000 0.000000 0.110066
#
#
# Mechanical properties :
#
#
# Convention : Reuss Voigt Hill
#
# Bulk Modulus (GPa) = 22.43778 49.51860 35.97819
# Shear Modulus (GPa) = 5.59058 13.40587 9.49823
#
# Velocity S-wave (km/s) = 1.93010 2.98882 2.51578
# Velocity P-wave (km/s) = 4.46302 6.70131 5.69325
#
# Compressibility (1/GPa) = 0.04456769
#
# Stress axis : x y z
#
# Youngs Moduli (GPa) = 29.55637 36.70136 71.07629
#
# Poissons Ratio (x) = -0.32226 0.87153
# Poissons Ratio (y) = -0.25952 0.83940
# Poissons Ratio (z) = 0.36242 0.43344
#
# Static dielectric constant tensor:
#      x y z
#    x 1.552620 0.000000 0.000000 
#    y 0.000000 1.469360 0.000000 
#    z 0.000000 0.000000 1.512750 
# 
# From -- ./inp_files/60558.got.cif
#   From: 2010.05.17/outbox.cif.g08.bks.cpg/sg65_31_cif.got.tgz:60558.got - 2010.06.03 17:01:31.
