data_PCOD9482029
_publ_section_title
;
Structure prediction by ZEFSAII (Michael W. Deem and Ramdas Pophale) SiO2 
 PCOD9482029
Probable space group: C M C A
;
_chemical_formula_sum "Si O2"
_cell_formula_units_Z 96
_cell_length_a 23.247337
_cell_length_b 9.359477
_cell_length_c 21.296889
_cell_angle_alpha 90.000000
_cell_angle_beta 90.000000
_cell_angle_gamma 90.000000
_cell_volume 4633.839210
_symmetry_space_group_name_H-M "C M C A"
_symmetry_group_IT_number 64
_symmetry_cell_setting 'orthorhombic'
loop_
_space_group_symop_operation_xyz
x,y,z
-x,1/2-y,1/2+z
x,-y,-z
-x,1/2+y,1/2-z
-x,-y,-z
x,1/2+y,1/2-z
-x,y,z
x,1/2-y,1/2+z
1/2+x,1/2+y,z
1/2-x,-y,1/2+z
1/2+x,1/2-y,-z
1/2-x,y,1/2-z
1/2-x,1/2-y,-z
1/2+x,y,1/2-z
1/2-x,1/2+y,z
1/2+x,-y,1/2+z
loop_
_atom_site_type_symbol
_atom_site_label
_atom_site_fract_x
_atom_site_fract_y
_atom_site_fract_z
Si Si1 0.121585 0.888726 0.207118
Si Si2 0.500000 0.074992 0.837923
Si Si3 0.897648 0.037365 0.568288
Si Si4 0.841933 0.919258 0.685100
Si Si5 0.278771 0.546539 0.138749
Si Si6 0.778221 0.818792 0.439831
Si Si7 0.000000 0.236619 0.792193
O O1 0.153800 0.737740 0.213370
O O2 0.161106 0.988992 0.164012
O O3 0.058205 0.841686 0.184529
O O4 0.120804 0.973384 0.272639
O O5 0.553915 0.094082 0.884905
O O6 0.500000 0.193099 0.782188
O O7 0.500000 0.907053 0.810536
O O8 0.844224 0.138684 0.551021
O O9 0.922642 0.000000 0.500000
O O10 0.866051 0.919430 0.613525
O O11 0.776354 0.971297 0.683920
O O12 0.260050 0.453569 0.079027
O O13 0.278604 0.709937 0.118301
O O14 0.750000 0.750000 0.500000
#
# Coordination Sequence:
#
# PCOD9482029 Si02
#       7
#    16   8  16  16  16  16   8
#     4  12  24  41  67  95 142 179 232 288 357 423
#     4  12  25  48  70 106 135 192 240 288 360 412
#     4  11  24  43  72  98 138 181 243 289 345 423
#     4  11  24  42  65 101 132 180 228 290 360 416
#     4  11  24  40  66  99 138 179 230 293 354 428
#     4  11  23  43  67 100 138 186 232 293 363 427
#     4  12  24  44  70 100 150 184 234 296 348 426
#
# _framework density 20.717161999999998
#
# number of rings (size 3 to 8) (size 9 to 14) (size 15 to 20)
#    0.000    0.667    5.000    3.250    4.667    2.667 
#    0.000    0.000    0.000    0.000    0.000    4.667 
#    0.000    0.000    0.000    0.000    0.000    0.000 
#
# Total GULP energy -267853.471188 kJ/mol
# GULP energy per Si atom -5580.280650 kJ/mol
# Density = 2.067001 g / cm^3
# Si number density = 20.717162 Si / 1000 Ang^3
#
#
#
# Elastic Constant Matrix: (Units=GPa)
#
#
# Indices 1 2 3 4 5 6 
#
# 1 122.3343 4.2027 29.1249 0.0000 0.0000 0.0000
# 2 4.2027 75.0329 18.1047 0.0000 0.0000 0.0000
# 3 29.1249 18.1047 74.2822 0.0000 0.0000 0.0000
# 4 0.0000 0.0000 0.0000 27.9525 0.0000 0.0000
# 5 0.0000 0.0000 0.0000 0.0000 36.8569 0.0000
# 6 0.0000 0.0000 0.0000 0.0000 0.0000 23.7239
#
#
#
# Elastic Compliance Matrix: (Units=1/GPa)
#
#
# Indices 1 2 3 4 5 6 
#
# 1 0.009026 0.000370 -0.003629 0.000000 0.000000 0.000000
# 2 0.000370 0.014175 -0.003600 0.000000 0.000000 0.000000
# 3 -0.003629 -0.003600 0.015762 0.000000 0.000000 0.000000
# 4 0.000000 0.000000 0.000000 0.035775 0.000000 0.000000
# 5 0.000000 0.000000 0.000000 0.000000 0.027132 0.000000
# 6 0.000000 0.000000 0.000000 0.000000 0.000000 0.042152
#
#
# Mechanical properties :
#
#
# Convention : Reuss Voigt Hill
#
# Bulk Modulus (GPa) = 39.61090 41.61266 40.61178
# Shear Modulus (GPa) = 30.09238 32.38781 31.24009
#
# Velocity S-wave (km/s) = 3.81535 3.95819 3.88742
# Velocity P-wave (km/s) = 6.21052 6.40464 6.30832
#
# Compressibility (1/GPa) = 0.02524557
#
# Stress axis : x y z
#
# Youngs Moduli (GPa) = 110.79617 70.54467 63.44178
#
# Poissons Ratio (x) = -0.02611 0.23023
# Poissons Ratio (y) = -0.04101 0.22839
# Poissons Ratio (z) = 0.40208 0.25397
#
# Static dielectric constant tensor:
#      x y z
#    x 1.821770 0.000000 0.000000 
#    y 0.000000 1.728210 0.000000 
#    z 0.000000 0.000000 1.773560 
# 
# From -- ./inp_files/46631.got.cif
#   From: 2010.05.17/outbox.cif.g08.bks.cpg/sg64_24_cif.got.tgz:46631.got - 2010.06.03 16:29:19.
