data_PCOD9482485
_publ_section_title
;
Structure prediction by ZEFSAII (Michael W. Deem and Ramdas Pophale) SiO2 
 PCOD9482485
Probable space group: C M C A
;
_chemical_formula_sum "Si O2"
_cell_formula_units_Z 56
_cell_length_a 15.000000
_cell_length_b 24.000000
_cell_length_c 15.000000
_cell_angle_alpha 90.000000
_cell_angle_beta 90.000000
_cell_angle_gamma 90.000000
_cell_volume 5400.000000
_symmetry_space_group_name_H-M "C M C A"
_symmetry_group_IT_number 64
_symmetry_cell_setting 'orthorhombic'
loop_
_space_group_symop_operation_xyz
x,y,z
-x,1/2-y,1/2+z
x,-y,-z
-x,1/2+y,1/2-z
-x,-y,-z
x,1/2+y,1/2-z
-x,y,z
x,1/2-y,1/2+z
1/2+x,1/2+y,z
1/2-x,-y,1/2+z
1/2+x,1/2-y,-z
1/2-x,y,1/2-z
1/2-x,1/2-y,-z
1/2+x,y,1/2-z
1/2-x,1/2+y,z
1/2+x,-y,1/2+z
loop_
_atom_site_type_symbol
_atom_site_label
_atom_site_fract_x
_atom_site_fract_y
_atom_site_fract_z
Si Si1 0.606196 0.752216 0.078912
Si Si2 0.176595 0.883519 0.178283
Si Si3 0.103477 0.967778 0.310699
Si Si4 0.652997 0.819659 0.750326
Si Si5 0.327158 0.876417 0.055108
Si Si6 0.601473 0.273915 0.120391
Si Si7 0.899254 0.413083 0.870644
O O1 0.500000 0.762063 0.080869
O O2 0.627381 0.709446 0.157986
O O3 0.651100 0.813066 0.083852
O O4 0.630205 0.726922 0.982324
O O5 0.250000 0.862468 0.250000
O O6 0.143749 0.940262 0.222104
O O7 0.227322 0.890352 0.085522
O O8 0.106772 0.834651 0.163820
O O9 0.116378 0.921010 0.387162
O O10 0.000000 0.976618 0.294060
O O11 0.140259 0.027387 0.341583
O O12 0.750000 0.845597 0.750000
O O13 0.656463 0.769234 0.821419
O O14 0.595286 0.869460 0.789897
O O15 0.346464 0.885015 0.951780
O O16 0.500000 0.253298 0.124112
O O17 0.000000 0.423046 0.904687
#
# Coordination Sequence:
#
# PCOD9482485 Si02
#       7
#    16  16  16  16  16  16  16
#     4  11  23  38  62  92 126 165 208 255 307 376
#     4  10  22  37  60  91 125 160 202 259 314 374
#     4  10  21  39  64  90 121 161 211 259 310 375
#     4  12  25  38  59  91 129 168 202 259 321 375
#     4  11  21  37  64  93 126 157 206 267 316 371
#     4  11  22  39  63  87 124 168 211 255 304 379
#     4  11  23  41  64  91 125 166 214 262 312 371
#
# _framework density 10.370369999999999
#
# number of rings (size 3 to 8) (size 9 to 14) (size 15 to 20)
#    0.000    1.143    1.429    6.429    2.000    4.000 
#    0.000    0.000    0.000    0.000    0.000    4.000 
#    0.000    0.000    0.000    0.000    0.000    0.000 
#
# Total GULP energy -312586.232379 kJ/mol
# GULP energy per Si atom -5581.897007 kJ/mol
# Density = 1.034677 g / cm^3
# Si number density = 10.370370 Si / 1000 Ang^3
#
#
#
# Elastic Constant Matrix: (Units=GPa)
#
#
# Indices 1 2 3 4 5 6 
#
# 1 54.6475 -3.6542 4.7663 0.0000 0.0000 0.0000
# 2 -3.6542 82.1675 17.5868 0.0000 0.0000 0.0000
# 3 4.7663 17.5868 69.5827 0.0000 0.0000 0.0000
# 4 0.0000 0.0000 0.0000 29.1559 0.0000 0.0000
# 5 0.0000 0.0000 0.0000 0.0000 15.5847 0.0000
# 6 0.0000 0.0000 0.0000 0.0000 0.0000 22.9735
#
#
#
# Elastic Compliance Matrix: (Units=1/GPa)
#
#
# Indices 1 2 3 4 5 6 
#
# 1 0.018513 0.001157 -0.001561 0.000000 0.000000 0.000000
# 2 0.001157 0.012939 -0.003349 0.000000 0.000000 0.000000
# 3 -0.001561 -0.003349 0.015325 0.000000 0.000000 0.000000
# 4 0.000000 0.000000 0.000000 0.034298 0.000000 0.000000
# 5 0.000000 0.000000 0.000000 0.000000 0.064166 0.000000
# 6 0.000000 0.000000 0.000000 0.000000 0.000000 0.043528
#
#
# Mechanical properties :
#
#
# Convention : Reuss Voigt Hill
#
# Bulk Modulus (GPa) = 25.46434 27.08840 26.27637
# Shear Modulus (GPa) = 23.88182 26.05606 24.96894
#
# Velocity S-wave (km/s) = 3.39698 3.54824 3.47343
# Velocity P-wave (km/s) = 5.26213 5.46585 5.36496
#
# Compressibility (1/GPa) = 0.03927061
#
# Stress axis : x y z
#
# Youngs Moduli (GPa) = 54.01721 77.28792 65.25344
#
# Poissons Ratio (x) = -0.08945 0.10183
# Poissons Ratio (y) = -0.06252 0.21856
# Poissons Ratio (z) = 0.08430 0.25887
#
# Static dielectric constant tensor:
#      x y z
#    x 1.776370 0.000000 0.000000 
#    y 0.000000 1.735700 0.000000 
#    z 0.000000 0.000000 1.751200 
# 
# From -- ./inp_files/24248.got.cif
#   From: 2010.05.17/outbox.ucp.g08.bks.cvg/sg64_13_cif.got.tgz:24248.got - 2010.06.11 16:36:46.
