data_PCOD9482294
_publ_section_title
;
Structure prediction by ZEFSAII (Michael W. Deem and Ramdas Pophale) SiO2 
 PCOD9482294
Probable space group: C M C A
;
_chemical_formula_sum "Si O2"
_cell_formula_units_Z 48
_cell_length_a 17.533682
_cell_length_b 7.429605
_cell_length_c 15.877831
_cell_angle_alpha 90.000000
_cell_angle_beta 90.000000
_cell_angle_gamma 90.000000
_cell_volume 2068.378552
_symmetry_space_group_name_H-M "C M C A"
_symmetry_group_IT_number 64
_symmetry_cell_setting 'orthorhombic'
loop_
_space_group_symop_operation_xyz
x,y,z
-x,1/2-y,1/2+z
x,-y,-z
-x,1/2+y,1/2-z
-x,-y,-z
x,1/2+y,1/2-z
-x,y,z
x,1/2-y,1/2+z
1/2+x,1/2+y,z
1/2-x,-y,1/2+z
1/2+x,1/2-y,-z
1/2-x,y,1/2-z
1/2-x,1/2-y,-z
1/2+x,y,1/2-z
1/2-x,1/2+y,z
1/2+x,-y,1/2+z
loop_
_atom_site_type_symbol
_atom_site_label
_atom_site_fract_x
_atom_site_fract_y
_atom_site_fract_z
Si Si1 0.201856 0.244142 0.585200
Si Si2 0.587993 0.522058 0.346562
Si Si3 0.152739 0.603969 0.666004
O O1 0.250000 0.250000 0.500000
O O2 0.138990 0.089553 0.588615
O O3 0.161573 0.567890 0.394184
O O4 0.264481 0.199304 0.657378
O O5 0.500000 0.468183 0.348217
O O6 0.596610 0.735160 0.359641
O O7 0.624443 0.471631 0.255468
#
# Coordination Sequence:
#
# PCOD9482294 Si02
#       3
#    16  16  16
#     4  12  27  47  77 115 153 207 261 315 381 468
#     4  12  27  46  76 116 155 198 259 329 388 452
#     4  12  25  44  77 109 148 204 262 312 376 461
#
# _framework density 23.206582999999998
#
# number of rings (size 3 to 8) (size 9 to 14) (size 15 to 20)
#    0.000    0.000    6.667    3.000    0.000    1.333 
#    0.000    5.000    0.000   10.000    0.000    0.000 
#    0.000    0.000    0.000    0.000    0.000    0.000 
#
# Total GULP energy -134412.143382 kJ/mol
# GULP energy per Si atom -5600.505974 kJ/mol
# Density = 2.315376 g / cm^3
# Si number density = 23.206583 Si / 1000 Ang^3
#
#
#
# Elastic Constant Matrix: (Units=GPa)
#
#
# Indices 1 2 3 4 5 6 
#
# 1 165.5177 41.6626 79.9676 0.0000 0.0000 0.0000
# 2 41.6626 174.6804 73.4611 0.0000 0.0000 0.0000
# 3 79.9676 73.4611 154.6538 0.0000 0.0000 0.0000
# 4 0.0000 0.0000 0.0000 31.8208 0.0000 0.0000
# 5 0.0000 0.0000 0.0000 0.0000 13.2308 0.0000
# 6 0.0000 0.0000 0.0000 0.0000 0.0000 34.2907
#
#
#
# Elastic Compliance Matrix: (Units=1/GPa)
#
#
# Indices 1 2 3 4 5 6 
#
# 1 0.008060 -0.000212 -0.004067 0.000000 0.000000 0.000000
# 2 -0.000212 0.007159 -0.003291 0.000000 0.000000 0.000000
# 3 -0.004067 -0.003291 0.010132 0.000000 0.000000 0.000000
# 4 0.000000 0.000000 0.000000 0.031426 0.000000 0.000000
# 5 0.000000 0.000000 0.000000 0.000000 0.075581 0.000000
# 6 0.000000 0.000000 0.000000 0.000000 0.000000 0.029162
#
#
# Mechanical properties :
#
#
# Convention : Reuss Voigt Hill
#
# Bulk Modulus (GPa) = 97.92885 98.33717 98.13301
# Shear Modulus (GPa) = 27.76784 35.85253 31.81019
#
# Velocity S-wave (km/s) = 3.46287 3.93482 3.70637
# Velocity P-wave (km/s) = 7.63407 7.94421 7.79068
#
# Compressibility (1/GPa) = 0.01021150
#
# Stress axis : x y z
#
# Youngs Moduli (GPa) = 124.07171 139.67726 98.69548
#
# Poissons Ratio (x) = 0.02962 0.40138
# Poissons Ratio (y) = 0.02631 0.32481
# Poissons Ratio (z) = 0.50458 0.45969
#
# Static dielectric constant tensor:
#      x y z
#    x 1.816460 0.000000 0.000000 
#    y 0.000000 1.894480 0.000000 
#    z 0.000000 0.000000 1.920230 
# 
# From -- ./inp_files/15214.got.cif
#   From: 2010.05.17/outbox.cif.g08.bks.cpg/sg64_8_cif.got.tgz:15214.got - 2010.06.03 16:29:19.
