data_PCOD9482354
_publ_section_title
;
Structure prediction by ZEFSAII (Michael W. Deem and Ramdas Pophale) SiO2 
 PCOD9482354
Probable space group: C M C A
;
_chemical_formula_sum "Si O2"
_cell_formula_units_Z 40
_cell_length_a 18.000000
_cell_length_b 27.000000
_cell_length_c 9.000000
_cell_angle_alpha 90.000000
_cell_angle_beta 90.000000
_cell_angle_gamma 90.000000
_cell_volume 4374.000000
_symmetry_space_group_name_H-M "C M C A"
_symmetry_group_IT_number 64
_symmetry_cell_setting 'orthorhombic'
loop_
_space_group_symop_operation_xyz
x,y,z
-x,1/2-y,1/2+z
x,-y,-z
-x,1/2+y,1/2-z
-x,-y,-z
x,1/2+y,1/2-z
-x,y,z
x,1/2-y,1/2+z
1/2+x,1/2+y,z
1/2-x,-y,1/2+z
1/2+x,1/2-y,-z
1/2-x,y,1/2-z
1/2-x,1/2-y,-z
1/2+x,y,1/2-z
1/2-x,1/2+y,z
1/2+x,-y,1/2+z
loop_
_atom_site_type_symbol
_atom_site_label
_atom_site_fract_x
_atom_site_fract_y
_atom_site_fract_z
Si Si1 0.664133 0.801753 0.429862
Si Si2 0.320488 0.380593 0.847627
Si Si3 0.411415 0.601170 0.439572
Si Si4 0.772962 0.947177 0.423838
Si Si5 0.843479 0.803177 0.416641
O O1 0.636829 0.840654 0.552750
O O2 0.753846 0.811241 0.424465
O O3 0.637762 0.804411 0.259286
O O4 0.647246 0.748821 0.501024
O O5 0.250000 0.359938 0.750000
O O6 0.375202 0.404644 0.725510
O O7 0.281241 0.414817 0.971107
O O8 0.500000 0.591958 0.443589
O O9 0.358405 0.569555 0.549868
O O10 0.390827 0.656479 0.494529
O O11 0.750000 0.945056 0.250000
O O12 0.766414 0.000000 0.500000
#
# Coordination Sequence:
#
# PCOD9482354 Si02
#       5
#    16  16  16  16  16
#     4  10  18  31  56  83 110 152 207 249 283 339
#     4  10  19  35  58  85 115 153 197 241 288 344
#     4  11  23  39  58  88 128 159 191 242 306 357
#     4  11  22  41  68  93 115 150 201 250 289 347
#     4  10  19  31  54  84 115 153 199 248 289 342
#
# _framework density 9.1449470000000002
#
# number of rings (size 3 to 8) (size 9 to 14) (size 15 to 20)
#    0.000    1.600    4.000    4.200    2.800    0.400 
#    0.000    8.000    0.000    2.400    0.000    0.000 
#    0.000    0.000    0.000    0.000    0.000    0.000 
#
# Total GULP energy -222906.601191 kJ/mol
# GULP energy per Si atom -5572.665030 kJ/mol
# Density = 0.912413 g / cm^3
# Si number density = 9.144947 Si / 1000 Ang^3
#
#
#
# Elastic Constant Matrix: (Units=GPa)
#
#
# Indices 1 2 3 4 5 6 
#
# 1 42.1190 10.9387 54.8108 0.0000 0.0000 0.0000
# 2 10.9387 89.2663 44.2651 0.0000 0.0000 0.0000
# 3 54.8108 44.2651 171.2305 0.0000 0.0000 0.0000
# 4 0.0000 0.0000 0.0000 31.6096 0.0000 0.0000
# 5 0.0000 0.0000 0.0000 0.0000 17.1367 0.0000
# 6 0.0000 0.0000 0.0000 0.0000 0.0000 1.1782
#
#
#
# Elastic Compliance Matrix: (Units=1/GPa)
#
#
# Indices 1 2 3 4 5 6 
#
# 1 0.040917 0.001699 -0.013536 0.000000 0.000000 0.000000
# 2 0.001699 0.012920 -0.003884 0.000000 0.000000 0.000000
# 3 -0.013536 -0.003884 0.011177 0.000000 0.000000 0.000000
# 4 0.000000 0.000000 0.000000 0.031636 0.000000 0.000000
# 5 0.000000 0.000000 0.000000 0.000000 0.058354 0.000000
# 6 0.000000 0.000000 0.000000 0.000000 0.000000 0.848739
#
#
# Mechanical properties :
#
#
# Convention : Reuss Voigt Hill
#
# Bulk Modulus (GPa) = 29.78805 58.07166 43.92986
# Shear Modulus (GPa) = 4.77839 22.82497 13.80168
#
# Velocity S-wave (km/s) = 1.61810 3.53647 2.74999
# Velocity P-wave (km/s) = 4.45118 6.96384 5.84415
#
# Compressibility (1/GPa) = 0.03357051
#
# Stress axis : x y z
#
# Youngs Moduli (GPa) = 24.43995 77.39860 89.46878
#
# Poissons Ratio (x) = -0.13146 1.21109
# Poissons Ratio (y) = -0.04151 0.34747
# Poissons Ratio (z) = 0.33083 0.30059
#
# Static dielectric constant tensor:
#      x y z
#    x 1.608320 0.000000 0.000000 
#    y 0.000000 1.819780 0.000000 
#    z 0.000000 0.000000 1.627760 
# 
# From -- ./inp_files/7127.got.cif
#   From: 2010.05.17/outbox.ucp.g08.bks.cvg/sg64_4_cif.got.tgz:7127.got - 2010.06.11 16:36:46.
