data_PCOD9482297
_publ_section_title
;
Structure prediction by ZEFSAII (Michael W. Deem and Ramdas Pophale) SiO2 
 PCOD9482297
Probable space group: C M C A
;
_chemical_formula_sum "Si O2"
_cell_formula_units_Z 64
_cell_length_a 10.306159
_cell_length_b 9.336696
_cell_length_c 32.157671
_cell_angle_alpha 90.000000
_cell_angle_beta 90.000000
_cell_angle_gamma 90.000000
_cell_volume 3094.387119
_symmetry_space_group_name_H-M "C M C A"
_symmetry_group_IT_number 64
_symmetry_cell_setting 'orthorhombic'
loop_
_space_group_symop_operation_xyz
x,y,z
-x,1/2-y,1/2+z
x,-y,-z
-x,1/2+y,1/2-z
-x,-y,-z
x,1/2+y,1/2-z
-x,y,z
x,1/2-y,1/2+z
1/2+x,1/2+y,z
1/2-x,-y,1/2+z
1/2+x,1/2-y,-z
1/2-x,y,1/2-z
1/2-x,1/2-y,-z
1/2+x,y,1/2-z
1/2-x,1/2+y,z
1/2+x,-y,1/2+z
loop_
_atom_site_type_symbol
_atom_site_label
_atom_site_fract_x
_atom_site_fract_y
_atom_site_fract_z
Si Si1 0.000000 0.833406 0.211345
Si Si2 0.500000 0.074901 0.454798
Si Si3 0.000000 0.820221 0.799912
Si Si4 0.752435 0.036401 0.903319
Si Si5 0.000000 0.084286 0.542723
Si Si6 0.270977 0.211928 0.154810
O O1 0.124688 0.768967 0.187503
O O2 0.000000 0.771172 0.257713
O O3 0.000000 0.007253 0.209027
O O4 0.500000 0.244563 0.462114
O O5 0.500000 0.000000 0.500000
O O6 0.625648 0.030183 0.427643
O O7 0.127690 0.781342 0.825995
O O8 0.628367 0.042284 0.932351
O O9 0.786175 0.193303 0.886592
O O10 0.715426 0.949075 0.861686
O O11 0.000000 0.000000 0.500000
#
# Coordination Sequence:
#
# PCOD9482297 Si02
#       6
#     8   8   8  16   8  16
#     4  12  28  46  70 103 141 183 225 284 345 404
#     4  12  28  47  68 104 145 177 227 289 341 408
#     4  12  28  47  68 105 143 178 231 282 341 412
#     4  12  25  47  74 100 138 182 230 285 341 404
#     4  12  28  46  70 104 139 184 231 277 347 414
#     4  12  25  47  74 100 138 182 230 285 341 403
#
# _framework density 20.682608999999999
#
# number of rings (size 3 to 8) (size 9 to 14) (size 15 to 20)
#    0.000    0.000    5.000    4.500    7.000    4.000 
#    0.000    0.000    0.000    0.000    0.000    0.000 
#    0.000    0.000    0.000    0.000    0.000    0.000 
#
# Total GULP energy -179136.234242 kJ/mol
# GULP energy per Si atom -5598.007320 kJ/mol
# Density = 2.063553 g / cm^3
# Si number density = 20.682609 Si / 1000 Ang^3
#
#
#
# Elastic Constant Matrix: (Units=GPa)
#
#
# Indices 1 2 3 4 5 6 
#
# 1 144.5114 67.5280 56.5785 0.0000 0.0000 0.0000
# 2 67.5280 82.6587 26.0312 0.0000 0.0000 0.0000
# 3 56.5785 26.0312 104.0501 0.0000 0.0000 0.0000
# 4 0.0000 0.0000 0.0000 51.5751 0.0000 0.0000
# 5 0.0000 0.0000 0.0000 0.0000 174.9012 0.0000
# 6 0.0000 0.0000 0.0000 0.0000 0.0000 25.9031
#
#
#
# Elastic Compliance Matrix: (Units=1/GPa)
#
#
# Indices 1 2 3 4 5 6 
#
# 1 0.013100 -0.009182 -0.004826 0.000000 0.000000 0.000000
# 2 -0.009182 0.019569 0.000097 0.000000 0.000000 0.000000
# 3 -0.004826 0.000097 0.012211 0.000000 0.000000 0.000000
# 4 0.000000 0.000000 0.000000 0.019389 0.000000 0.000000
# 5 0.000000 0.000000 0.000000 0.000000 0.005718 0.000000
# 6 0.000000 0.000000 0.000000 0.000000 0.000000 0.038605
#
#
# Mechanical properties :
#
#
# Convention : Reuss Voigt Hill
#
# Bulk Modulus (GPa) = 58.62595 70.16619 64.39607
# Shear Modulus (GPa) = 35.18658 62.54805 48.86731
#
# Velocity S-wave (km/s) = 4.12911 5.50523 4.86606
# Velocity P-wave (km/s) = 7.15121 8.62606 7.92303
#
# Compressibility (1/GPa) = 0.01705729
#
# Stress axis : x y z
#
# Youngs Moduli (GPa) = 76.33531 51.10193 81.89545
#
# Poissons Ratio (x) = 0.46923 0.39524
# Poissons Ratio (y) = 0.70093 -0.00797
# Poissons Ratio (z) = 0.36840 -0.00497
#
# Static dielectric constant tensor:
#      x y z
#    x 1.705970 0.000000 0.000000 
#    y 0.000000 1.712410 0.000000 
#    z 0.000000 0.000000 1.720360 
# 
# From -- ./inp_files/52500.got.cif
#   From: 2010.05.17/outbox.cif.g08.bks.cpg/sg64_27_cif.got.tgz:52500.got - 2010.06.03 16:29:19.
