data_PCOD9482865
_publ_section_title
;
Structure prediction by ZEFSAII (Michael W. Deem and Ramdas Pophale) SiO2 
 PCOD9482865
Probable space group: C M M M
;
_chemical_formula_sum "Si O2"
_cell_formula_units_Z 112
_cell_length_a 14.826518
_cell_length_b 25.558763
_cell_length_c 17.238441
_cell_angle_alpha 90.000000
_cell_angle_beta 90.000000
_cell_angle_gamma 90.000000
_cell_volume 6532.463426
_symmetry_space_group_name_H-M "C M M M"
_symmetry_group_IT_number 65
_symmetry_cell_setting 'orthorhombic'
loop_
_space_group_symop_operation_xyz
x,y,z
-x,-y,z
x,-y,-z
-x,y,-z
-x,-y,-z
x,y,-z
-x,y,z
x,-y,z
1/2+x,1/2+y,z
1/2-x,1/2-y,z
1/2+x,1/2-y,-z
1/2-x,1/2+y,-z
1/2-x,1/2-y,-z
1/2+x,1/2+y,-z
1/2-x,1/2+y,z
1/2+x,1/2-y,z
loop_
_atom_site_type_symbol
_atom_site_label
_atom_site_fract_x
_atom_site_fract_y
_atom_site_fract_z
Si Si1 0.239438 0.640000 0.690076
Si Si2 0.104299 0.262055 0.864461
Si Si3 0.273374 0.334183 0.868157
Si Si4 0.897411 0.160998 0.408204
Si Si5 0.294152 0.940604 0.913341
Si Si6 0.600835 0.061406 0.756833
Si Si7 0.100844 0.272224 0.323098
O O1 0.274310 0.658169 0.774888
O O2 0.321958 0.627314 0.634513
O O3 0.172154 0.592571 0.706259
O O4 0.178998 0.687239 0.656961
O O5 0.176994 0.306501 0.888237
O O6 0.148281 0.206703 0.889512
O O7 0.105431 0.263114 0.769942
O O8 0.000000 0.269140 0.888796
O O9 0.274364 0.392219 0.903393
O O10 0.883180 0.164423 0.500000
O O11 0.888891 0.218149 0.368719
O O12 0.000000 0.142995 0.394291
O O13 0.367708 0.932885 0.846090
O O14 0.257140 0.000000 0.902790
O O15 0.332222 0.938123 0.000000
O O16 0.500000 0.082471 0.747527
O O17 0.601432 0.000000 0.738985
O O18 0.000000 0.292617 0.339960
#
# Coordination Sequence:
#
# PCOD9482865 Si02
#       7
#    16  16  16  16  16  16  16
#     4  10  17  28  47  69  95 129 164 199 240 285
#     4   9  16  28  45  67  96 128 165 207 246 286
#     4   9  17  28  47  72  94 126 172 208 240 290
#     4  10  20  31  44  68 101 131 161 200 243 288
#     4   9  18  32  50  72 101 135 164 196 245 297
#     4   9  18  32  51  76 100 122 156 200 240 285
#     4   9  16  26  42  66  96 128 161 196 236 288
#
# _framework density 17.145140000000001
#
# number of rings (size 3 to 8) (size 9 to 14) (size 15 to 20)
#    0.000    2.714    1.429    0.857    0.000    4.857 
#    0.000    2.857    0.000    3.857    0.000    7.000 
#    0.000    0.000    0.000    0.000    0.000    0.286 
#
# Total GULP energy -311997.353562 kJ/mol
# GULP energy per Si atom -5571.381314 kJ/mol
# Density = 1.710612 g / cm^3
# Si number density = 17.145140 Si / 1000 Ang^3
#
#
#
# Elastic Constant Matrix: (Units=GPa)
#
#
# Indices 1 2 3 4 5 6 
#
# 1 96.5604 32.9013 39.9450 0.0000 0.0000 0.0000
# 2 32.9013 65.0195 18.8074 0.0000 0.0000 0.0000
# 3 39.9450 18.8074 46.3005 0.0000 0.0000 0.0000
# 4 0.0000 0.0000 0.0000 11.5166 0.0000 0.0000
# 5 0.0000 0.0000 0.0000 0.0000 3.5292 0.0000
# 6 0.0000 0.0000 0.0000 0.0000 0.0000 21.2985
#
#
#
# Elastic Compliance Matrix: (Units=1/GPa)
#
#
# Indices 1 2 3 4 5 6 
#
# 1 0.017467 -0.005076 -0.013007 0.000000 0.000000 0.000000
# 2 -0.005076 0.018903 -0.003299 0.000000 0.000000 0.000000
# 3 -0.013007 -0.003299 0.034160 0.000000 0.000000 0.000000
# 4 0.000000 0.000000 0.000000 0.086831 0.000000 0.000000
# 5 0.000000 0.000000 0.000000 0.000000 0.283349 0.000000
# 6 0.000000 0.000000 0.000000 0.000000 0.000000 0.046952
#
#
# Mechanical properties :
#
#
# Convention : Reuss Voigt Hill
#
# Bulk Modulus (GPa) = 36.01695 43.46533 39.74114
# Shear Modulus (GPa) = 9.26475 15.01733 12.14104
#
# Velocity S-wave (km/s) = 2.32711 2.96276 2.66396
# Velocity P-wave (km/s) = 5.31726 6.09183 5.71768
#
# Compressibility (1/GPa) = 0.02776471
#
# Stress axis : x y z
#
# Youngs Moduli (GPa) = 57.25241 52.90194 29.27425
#
# Poissons Ratio (x) = 0.26853 0.38077
# Poissons Ratio (y) = 0.29062 0.09658
# Poissons Ratio (z) = 0.74468 0.17453
#
# Static dielectric constant tensor:
#      x y z
#    x 1.600470 0.000000 0.000000 
#    y 0.000000 1.598140 0.000000 
#    z 0.000000 0.000000 1.578760 
# 
# From -- ./inp_files/41086.got.cif
#   From: 2010.05.17/outbox.cif.g08.bks.cpg/sg65_21_cif.got.tgz:41086.got - 2010.06.03 17:01:31.
