data_PCOD9482515
_publ_section_title
;
Structure prediction by ZEFSAII (Michael W. Deem and Ramdas Pophale) SiO2 
 PCOD9482515
Probable space group: C M C A
;
_chemical_formula_sum "Si O2"
_cell_formula_units_Z 56
_cell_length_a 24.000000
_cell_length_b 15.000000
_cell_length_c 15.000000
_cell_angle_alpha 90.000000
_cell_angle_beta 90.000000
_cell_angle_gamma 90.000000
_cell_volume 5400.000000
_symmetry_space_group_name_H-M "C M C A"
_symmetry_group_IT_number 64
_symmetry_cell_setting 'orthorhombic'
loop_
_space_group_symop_operation_xyz
x,y,z
-x,1/2-y,1/2+z
x,-y,-z
-x,1/2+y,1/2-z
-x,-y,-z
x,1/2+y,1/2-z
-x,y,z
x,1/2-y,1/2+z
1/2+x,1/2+y,z
1/2-x,-y,1/2+z
1/2+x,1/2-y,-z
1/2-x,y,1/2-z
1/2-x,1/2-y,-z
1/2+x,y,1/2-z
1/2-x,1/2+y,z
1/2+x,-y,1/2+z
loop_
_atom_site_type_symbol
_atom_site_label
_atom_site_fract_x
_atom_site_fract_y
_atom_site_fract_z
Si Si1 0.228861 0.003060 0.899745
Si Si2 0.876329 0.473523 0.723733
Si Si3 0.743074 0.195490 0.856257
Si Si4 0.875684 0.713808 0.373218
Si Si5 0.433963 0.340024 0.234296
Si Si6 0.366225 0.235072 0.568634
Si Si7 0.659820 0.431977 0.580248
O O1 0.265275 0.092258 0.883808
O O2 0.180969 0.000962 0.826778
O O3 0.274026 0.924255 0.897021
O O4 0.204821 0.000000 0.000000
O O5 0.888248 0.376286 0.681941
O O6 0.918424 0.556215 0.717748
O O7 0.866968 0.461506 0.827999
O O8 0.750000 0.200264 0.750000
O O9 0.689613 0.256383 0.875982
O O10 0.801920 0.215262 0.904391
O O11 0.907283 0.795065 0.323347
O O12 0.887389 0.693005 0.476708
O O13 0.500000 0.327745 0.235450
O O14 0.403984 0.290518 0.152050
O O15 0.366511 0.339800 0.552000
O O16 0.653787 0.500000 0.500000
#
# Coordination Sequence:
#
# PCOD9482515 Si02
#       7
#    16  16  16  16  16  16  16
#     4  11  21  34  61 103 150 184 224 275 344 435
#     4  12  23  43  68  99 132 188 231 288 348 415
#     4  12  20  39  67 104 147 185 223 283 360 436
#     4  12  25  44  75 102 141 187 231 293 365 431
#     4  12  28  50  71  98 137 186 250 306 348 413
#     4  12  24  45  69 105 145 182 231 289 358 431
#     4  11  22  39  65 104 141 177 223 278 349 433
#
# _framework density 10.370369999999999
#
# number of rings (size 3 to 8) (size 9 to 14) (size 15 to 20)
#    0.000    0.286    4.286    6.857    0.000    1.143 
#    0.000    0.714    0.000    1.714    0.000    0.000 
#    0.000    0.000    0.000    0.000    0.000    0.000 
#
# Total GULP energy -313044.972817 kJ/mol
# GULP energy per Si atom -5590.088800 kJ/mol
# Density = 1.034677 g / cm^3
# Si number density = 10.370370 Si / 1000 Ang^3
#
#
#
# Elastic Constant Matrix: (Units=GPa)
#
#
# Indices 1 2 3 4 5 6 
#
# 1 96.8233 33.2820 25.6974 0.0000 0.0000 0.0000
# 2 33.2820 86.5393 9.2434 0.0000 0.0000 0.0000
# 3 25.6974 9.2434 121.2560 0.0000 0.0000 0.0000
# 4 0.0000 0.0000 0.0000 22.8605 0.0000 0.0000
# 5 0.0000 0.0000 0.0000 0.0000 10.8118 0.0000
# 6 0.0000 0.0000 0.0000 0.0000 0.0000 12.4127
#
#
#
# Elastic Compliance Matrix: (Units=1/GPa)
#
#
# Indices 1 2 3 4 5 6 
#
# 1 0.012508 -0.004565 -0.002303 0.000000 0.000000 0.000000
# 2 -0.004565 0.013316 -0.000048 0.000000 0.000000 0.000000
# 3 -0.002303 -0.000048 0.008739 0.000000 0.000000 0.000000
# 4 0.000000 0.000000 0.000000 0.043744 0.000000 0.000000
# 5 0.000000 0.000000 0.000000 0.000000 0.092491 0.000000
# 6 0.000000 0.000000 0.000000 0.000000 0.000000 0.080563
#
#
# Mechanical properties :
#
#
# Convention : Reuss Voigt Hill
#
# Bulk Modulus (GPa) = 48.23311 49.00714 48.62012
# Shear Modulus (GPa) = 18.37545 24.97671 21.67608
#
# Velocity S-wave (km/s) = 2.97974 3.47397 3.23630
# Velocity P-wave (km/s) = 5.92825 6.30643 6.12026
#
# Compressibility (1/GPa) = 0.02073265
#
# Stress axis : x y z
#
# Youngs Moduli (GPa) = 79.94680 75.09746 114.43356
#
# Poissons Ratio (x) = 0.34279 0.26353
# Poissons Ratio (y) = 0.36492 0.00546
# Poissons Ratio (z) = 0.18411 0.00358
#
# Static dielectric constant tensor:
#      x y z
#    x 1.720690 0.000000 0.000000 
#    y 0.000000 1.827370 0.000000 
#    z 0.000000 0.000000 1.769610 
# 
# From -- ./inp_files/27386.got.cif
#   From: 2010.05.17/outbox.ucp.g08.bks.cvg/sg64_14_cif.got.tgz:27386.got - 2010.06.11 16:36:46.
