data_PCOD9482179
_publ_section_title
;
Structure prediction by ZEFSAII (Michael W. Deem and Ramdas Pophale) SiO2 
 PCOD9482179
Probable space group: C M C A
;
_chemical_formula_sum "Si O2"
_cell_formula_units_Z 40
_cell_length_a 10.066896
_cell_length_b 10.507982
_cell_length_c 16.297383
_cell_angle_alpha 90.000000
_cell_angle_beta 90.000000
_cell_angle_gamma 90.000000
_cell_volume 1723.982187
_symmetry_space_group_name_H-M "C M C A"
_symmetry_group_IT_number 64
_symmetry_cell_setting 'orthorhombic'
loop_
_space_group_symop_operation_xyz
x,y,z
-x,1/2-y,1/2+z
x,-y,-z
-x,1/2+y,1/2-z
-x,-y,-z
x,1/2+y,1/2-z
-x,y,z
x,1/2-y,1/2+z
1/2+x,1/2+y,z
1/2-x,-y,1/2+z
1/2+x,1/2-y,-z
1/2-x,y,1/2-z
1/2-x,1/2-y,-z
1/2+x,y,1/2-z
1/2-x,1/2+y,z
1/2+x,-y,1/2+z
loop_
_atom_site_type_symbol
_atom_site_label
_atom_site_fract_x
_atom_site_fract_y
_atom_site_fract_z
Si Si1 0.500000 0.237451 0.909472
Si Si2 0.282856 0.736851 0.345013
Si Si3 0.000000 0.381464 0.435519
Si Si4 0.000000 0.458589 0.902757
O O1 0.358424 0.292471 0.885680
O O2 0.500000 0.100703 0.867027
O O3 0.500000 0.255576 0.007004
O O4 0.250000 0.753803 0.250000
O O5 0.366680 0.857919 0.381637
O O6 0.374864 0.616973 0.366981
O O7 0.000000 0.500000 0.500000
O O8 0.000000 0.500000 0.000000
#
# Coordination Sequence:
#
# PCOD9482179 Si02
#       4
#     8  16   8   8
#     4  12  25  43  80 109 155 209 271 316 393 484
#     4  11  26  50  74 116 158 203 268 333 400 468
#     4  11  26  47  80 115 156 216 268 322 403 485
#     4  11  25  47  78 111 158 204 261 329 391 481
#
# _framework density 23.202096000000001
#
# number of rings (size 3 to 8) (size 9 to 14) (size 15 to 20)
#    0.000    0.800    4.000    3.600    5.600    1.600 
#    7.200    0.000    0.000    0.000    0.000    0.000 
#    0.000    0.000    0.000    0.000    0.000    0.000 
#
# Total GULP energy -111508.544360 kJ/mol
# GULP energy per Si atom -5575.427218 kJ/mol
# Density = 2.314929 g / cm^3
# Si number density = 23.202096 Si / 1000 Ang^3
#
#
#
# Elastic Constant Matrix: (Units=GPa)
#
#
# Indices 1 2 3 4 5 6 
#
# 1 241.0765 56.6264 80.4239 0.0000 0.0000 0.0000
# 2 56.6264 144.5026 28.3948 0.0000 0.0000 0.0000
# 3 80.4239 28.3948 177.0646 0.0000 0.0000 0.0000
# 4 0.0000 0.0000 0.0000 30.4113 0.0000 0.0000
# 5 0.0000 0.0000 0.0000 0.0000 64.2222 0.0000
# 6 0.0000 0.0000 0.0000 0.0000 0.0000 84.3550
#
#
#
# Elastic Compliance Matrix: (Units=1/GPa)
#
#
# Indices 1 2 3 4 5 6 
#
# 1 0.005239 -0.001637 -0.002117 0.000000 0.000000 0.000000
# 2 -0.001637 0.007657 -0.000484 0.000000 0.000000 0.000000
# 3 -0.002117 -0.000484 0.006687 0.000000 0.000000 0.000000
# 4 0.000000 0.000000 0.000000 0.032883 0.000000 0.000000
# 5 0.000000 0.000000 0.000000 0.000000 0.015571 0.000000
# 6 0.000000 0.000000 0.000000 0.000000 0.000000 0.011855
#
#
# Mechanical properties :
#
#
# Convention : Reuss Voigt Hill
#
# Bulk Modulus (GPa) = 90.04154 99.28153 94.66153
# Shear Modulus (GPa) = 54.30685 62.27761 58.29223
#
# Velocity S-wave (km/s) = 4.84322 5.18649 5.01779
# Velocity P-wave (km/s) = 8.37661 8.87406 8.62892
#
# Compressibility (1/GPa) = 0.01110599
#
# Stress axis : x y z
#
# Youngs Moduli (GPa) = 190.88357 130.60036 149.54647
#
# Poissons Ratio (x) = 0.21379 0.31659
# Poissons Ratio (y) = 0.31247 0.07244
# Poissons Ratio (z) = 0.40410 0.06326
#
# Static dielectric constant tensor:
#      x y z
#    x 1.804860 0.000000 0.000000 
#    y 0.000000 2.059370 0.000000 
#    z 0.000000 0.000000 1.994260 
# 
# From -- ./inp_files/28818.got.cif
#   From: 2010.05.17/outbox.cif.g08.bks.cpg/sg64_15_cif.got.tgz:28818.got - 2010.06.03 16:29:19.
