data_PCOD9482200
_publ_section_title
;
Structure prediction by ZEFSAII (Michael W. Deem and Ramdas Pophale) SiO2 
 PCOD9482200
Probable space group: C M C A
;
_chemical_formula_sum "Si O2"
_cell_formula_units_Z 56
_cell_length_a 16.093731
_cell_length_b 14.001707
_cell_length_c 11.583942
_cell_angle_alpha 90.000000
_cell_angle_beta 90.000000
_cell_angle_gamma 90.000000
_cell_volume 2610.322085
_symmetry_space_group_name_H-M "C M C A"
_symmetry_group_IT_number 64
_symmetry_cell_setting 'orthorhombic'
loop_
_space_group_symop_operation_xyz
x,y,z
-x,1/2-y,1/2+z
x,-y,-z
-x,1/2+y,1/2-z
-x,-y,-z
x,1/2+y,1/2-z
-x,y,z
x,1/2-y,1/2+z
1/2+x,1/2+y,z
1/2-x,-y,1/2+z
1/2+x,1/2-y,-z
1/2-x,y,1/2-z
1/2-x,1/2-y,-z
1/2+x,y,1/2-z
1/2-x,1/2+y,z
1/2+x,-y,1/2+z
loop_
_atom_site_type_symbol
_atom_site_label
_atom_site_fract_x
_atom_site_fract_y
_atom_site_fract_z
Si Si1 0.000000 0.992526 0.813806
Si Si2 0.000000 0.833816 0.004238
Si Si3 0.859402 0.523473 0.125997
Si Si4 0.669509 0.258100 0.582605
Si Si5 0.250000 0.118357 0.750000
O O1 0.078511 0.994449 0.730251
O O2 0.000000 0.083047 0.898401
O O3 0.000000 0.894346 0.886424
O O4 0.083656 0.771683 0.019906
O O5 0.834571 0.633604 0.125406
O O6 0.784308 0.450823 0.150299
O O7 0.895111 0.500000 0.000000
O O8 0.750000 0.250000 0.500000
O O9 0.683168 0.187312 0.690446
#
# Coordination Sequence:
#
# PCOD9482200 Si02
#       5
#     8   8  16  16   8
#     4  11  26  47  75 103 152 196 254 311 380 450
#     4  11  27  49  74 109 147 198 252 318 379 443
#     4  12  26  46  74 106 151 195 249 310 379 449
#     4  12  27  49  75 112 150 196 252 311 381 454
#     4  12  26  46  76 108 148 194 250 312 376 450
#
# _framework density 21.453292000000001
#
# number of rings (size 3 to 8) (size 9 to 14) (size 15 to 20)
#    0.000    0.286    5.714    2.143    8.000    0.000 
#    5.143    0.000    0.000    0.000    0.000    0.000 
#    0.000    0.000    0.000    0.000    0.000    0.000 
#
# Total GULP energy -156698.823494 kJ/mol
# GULP energy per Si atom -5596.386553 kJ/mol
# Density = 2.140446 g / cm^3
# Si number density = 21.453292 Si / 1000 Ang^3
#
#
#
# Elastic Constant Matrix: (Units=GPa)
#
#
# Indices 1 2 3 4 5 6 
#
# 1 100.0109 37.2404 18.9048 0.0000 0.0000 0.0000
# 2 37.2404 161.2828 32.1484 0.0000 0.0000 0.0000
# 3 18.9048 32.1484 98.2966 0.0000 0.0000 0.0000
# 4 0.0000 0.0000 0.0000 41.1126 0.0000 0.0000
# 5 0.0000 0.0000 0.0000 0.0000 38.4034 0.0000
# 6 0.0000 0.0000 0.0000 0.0000 0.0000 23.1661
#
#
#
# Elastic Compliance Matrix: (Units=1/GPa)
#
#
# Indices 1 2 3 4 5 6 
#
# 1 0.011114 -0.002289 -0.001389 0.000000 0.000000 0.000000
# 2 -0.002289 0.007104 -0.001883 0.000000 0.000000 0.000000
# 3 -0.001389 -0.001883 0.011056 0.000000 0.000000 0.000000
# 4 0.000000 0.000000 0.000000 0.024323 0.000000 0.000000
# 5 0.000000 0.000000 0.000000 0.000000 0.026039 0.000000
# 6 0.000000 0.000000 0.000000 0.000000 0.000000 0.043167
#
#
# Mechanical properties :
#
#
# Convention : Reuss Voigt Hill
#
# Bulk Modulus (GPa) = 55.09075 59.57530 57.33302
# Shear Modulus (GPa) = 35.72014 38.62286 37.17150
#
# Velocity S-wave (km/s) = 4.08489 4.24762 4.16705
# Velocity P-wave (km/s) = 6.92702 7.20323 7.06647
#
# Compressibility (1/GPa) = 0.01815187
#
# Stress axis : x y z
#
# Youngs Moduli (GPa) = 89.97731 140.76004 90.44638
#
# Poissons Ratio (x) = 0.32226 0.12560
# Poissons Ratio (y) = 0.20599 0.17033
# Poissons Ratio (z) = 0.12495 0.26508
#
# Static dielectric constant tensor:
#      x y z
#    x 1.813120 0.000000 0.000000 
#    y 0.000000 1.732310 0.000000 
#    z 0.000000 0.000000 1.781920 
# 
# From -- ./inp_files/13779.got.cif
#   From: 2010.05.17/outbox.cif.g08.bks.cpg/sg64_7_cif.got.tgz:13779.got - 2010.06.03 16:29:19.
