data_PCOD9482699
_publ_section_title
;
Structure prediction by ZEFSAII (Michael W. Deem and Ramdas Pophale) SiO2 
 PCOD9482699
Probable space group: C M M M
;
_chemical_formula_sum "Si O2"
_cell_formula_units_Z 64
_cell_length_a 11.101496
_cell_length_b 31.129484
_cell_length_c 7.393748
_cell_angle_alpha 90.000000
_cell_angle_beta 90.000000
_cell_angle_gamma 90.000000
_cell_volume 2555.159841
_symmetry_space_group_name_H-M "C M M M"
_symmetry_group_IT_number 65
_symmetry_cell_setting 'orthorhombic'
loop_
_space_group_symop_operation_xyz
x,y,z
-x,-y,z
x,-y,-z
-x,y,-z
-x,-y,-z
x,y,-z
-x,y,z
x,-y,z
1/2+x,1/2+y,z
1/2-x,1/2-y,z
1/2+x,1/2-y,-z
1/2-x,1/2+y,-z
1/2-x,1/2-y,-z
1/2+x,1/2+y,-z
1/2-x,1/2+y,z
1/2+x,1/2-y,z
loop_
_atom_site_type_symbol
_atom_site_label
_atom_site_fract_x
_atom_site_fract_y
_atom_site_fract_z
Si Si1 0.740239 0.643242 0.717337
Si Si2 0.000000 0.660075 0.294589
Si Si3 0.500000 0.939176 0.218095
Si Si4 0.771618 0.046196 0.290859
Si Si5 0.129205 0.229517 0.785684
O O1 0.755624 0.639549 0.500000
O O2 0.866084 0.664974 0.789149
O O3 0.710035 0.594874 0.784490
O O4 0.640399 0.678556 0.756494
O O5 0.000000 0.608344 0.295382
O O6 0.000000 0.675656 0.500000
O O7 0.373402 0.957181 0.281834
O O8 0.500000 0.939631 0.000000
O O9 0.811476 0.047527 0.500000
O O10 0.817363 0.000000 0.214893
O O11 0.250000 0.250000 0.705433
O O12 0.000000 0.245771 0.717315
O O13 0.129396 0.237445 0.000000
#
# Coordination Sequence:
#
# PCOD9482699 Si02
#       5
#    16   8   8  16  16
#     4   9  18  33  55  83 112 144 188 236 281 330
#     4   8  16  31  49  74 110 149 186 228 281 339
#     4  10  17  23  36  65 104 144 192 242 280 321
#     4   9  17  30  47  68 103 150 190 228 280 337
#     4  10  23  42  62  85 114 148 186 228 281 345
#
# _framework density 25.047355
#
# number of rings (size 3 to 8) (size 9 to 14) (size 15 to 20)
#    0.000    2.750    0.000    3.000    1.750    7.000 
#    0.000    0.000    0.000    0.750    0.000    5.250 
#    0.000    0.000    0.000    0.000    0.000    0.000 
#
# Total GULP energy -178322.582878 kJ/mol
# GULP energy per Si atom -5572.580715 kJ/mol
# Density = 2.499035 g / cm^3
# Si number density = 25.047355 Si / 1000 Ang^3
#
#
#
# Elastic Constant Matrix: (Units=GPa)
#
#
# Indices 1 2 3 4 5 6 
#
# 1 114.1079 48.0194 7.4340 0.0000 0.0000 0.0000
# 2 48.0194 151.9506 13.5638 0.0000 0.0000 0.0000
# 3 7.4340 13.5638 105.1926 0.0000 0.0000 0.0000
# 4 0.0000 0.0000 0.0000 215.0386 0.0000 0.0000
# 5 0.0000 0.0000 0.0000 0.0000 4.8942 0.0000
# 6 0.0000 0.0000 0.0000 0.0000 0.0000 28.9738
#
#
#
# Elastic Compliance Matrix: (Units=1/GPa)
#
#
# Indices 1 2 3 4 5 6 
#
# 1 0.010118 -0.003170 -0.000306 0.000000 0.000000 0.000000
# 2 -0.003170 0.007651 -0.000763 0.000000 0.000000 0.000000
# 3 -0.000306 -0.000763 0.009626 0.000000 0.000000 0.000000
# 4 0.000000 0.000000 0.000000 0.004650 0.000000 0.000000
# 5 0.000000 0.000000 0.000000 0.000000 0.204322 0.000000
# 6 0.000000 0.000000 0.000000 0.000000 0.000000 0.034514
#
#
# Mechanical properties :
#
#
# Convention : Reuss Voigt Hill
#
# Bulk Modulus (GPa) = 52.86169 56.58729 54.72449
# Shear Modulus (GPa) = 17.50302 69.93026 43.71664
#
# Velocity S-wave (km/s) = 2.64635 5.28960 4.18228
# Velocity P-wave (km/s) = 5.52160 7.74258 6.72442
#
# Compressibility (1/GPa) = 0.01891729
#
# Stress axis : x y z
#
# Youngs Moduli (GPa) = 98.83754 130.70283 103.88172
#
# Poissons Ratio (x) = 0.41433 0.03182
# Poissons Ratio (y) = 0.31332 0.07921
# Poissons Ratio (z) = 0.03027 0.09966
#
# Static dielectric constant tensor:
#      x y z
#    x 2.032090 0.000000 0.000000 
#    y 0.000000 2.066860 0.000000 
#    z 0.000000 0.000000 1.943830 
# 
# From -- ./inp_files/4952.got.cif
#   From: 2010.05.17/outbox.cif.g08.bks.cpg/sg65_3_cif.got.tgz:4952.got - 2010.06.03 17:01:31.
