data_PCOD9482642
_publ_section_title
;
Structure prediction by ZEFSAII (Michael W. Deem and Ramdas Pophale) SiO2 
 PCOD9482642
Probable space group: C M M M
;
_chemical_formula_sum "Si O2"
_cell_formula_units_Z 128
_cell_length_a 17.345530
_cell_length_b 27.887468
_cell_length_c 20.258468
_cell_angle_alpha 90.000000
_cell_angle_beta 90.000000
_cell_angle_gamma 90.000000
_cell_volume 9799.485150
_symmetry_space_group_name_H-M "C M M M"
_symmetry_group_IT_number 65
_symmetry_cell_setting 'orthorhombic'
loop_
_space_group_symop_operation_xyz
x,y,z
-x,-y,z
x,-y,-z
-x,y,-z
-x,-y,-z
x,y,-z
-x,y,z
x,-y,z
1/2+x,1/2+y,z
1/2-x,1/2-y,z
1/2+x,1/2-y,-z
1/2-x,1/2+y,-z
1/2-x,1/2-y,-z
1/2+x,1/2+y,-z
1/2-x,1/2+y,z
1/2+x,1/2-y,z
loop_
_atom_site_type_symbol
_atom_site_label
_atom_site_fract_x
_atom_site_fract_y
_atom_site_fract_z
Si Si1 0.589979 0.788438 0.924108
Si Si2 0.156996 0.854475 0.211426
Si Si3 0.409001 0.327269 0.074285
Si Si4 0.093615 0.799410 0.427158
Si Si5 0.908689 0.762958 0.287218
Si Si6 0.092880 0.054404 0.284726
Si Si7 0.406613 0.588342 0.572519
Si Si8 0.196721 0.296723 0.806130
O O1 0.500000 0.799551 0.910852
O O2 0.597592 0.730480 0.918738
O O3 0.647668 0.809732 0.870638
O O4 0.607163 0.801314 0.000000
O O5 0.135037 0.851413 0.134361
O O6 0.108177 0.812955 0.249074
O O7 0.135075 0.905024 0.242670
O O8 0.245493 0.837907 0.217239
O O9 0.500000 0.338384 0.079421
O O10 0.383038 0.339728 0.000000
O O11 0.119022 0.782831 0.500000
O O12 0.118196 0.770405 0.362700
O O13 0.114769 0.855523 0.420034
O O14 0.000000 0.798345 0.426664
O O15 0.861475 0.722102 0.249718
O O16 0.000000 0.753873 0.285138
O O17 0.116169 0.060690 0.361651
O O18 0.000000 0.062556 0.280763
O O19 0.108124 0.000000 0.263413
O O20 0.379818 0.571490 0.500000
O O21 0.500000 0.586517 0.570868
O O22 0.250000 0.250000 0.821905
#
# Coordination Sequence:
#
# PCOD9482642 Si02
#       8
#    16  16  16  16  16  16  16  16
#     4   9  16  26  39  57  82 106 129 159 191 228
#     4  11  19  28  39  56  81 106 129 165 198 228
#     4   9  16  25  39  56  74 102 134 158 188 228
#     4   8  13  21  36  56  74  98 132 166 197 224
#     4  10  16  25  41  56  76 106 134 161 189 226
#     4  10  19  29  43  60  75  99 135 169 201 234
#     4   8  13  22  36  56  79  98 123 163 205 238
#     4  10  19  25  35  56  80 109 136 158 188 228
#
# _framework density 13.061911
#
# number of rings (size 3 to 8) (size 9 to 14) (size 15 to 20)
#    0.000    2.625    3.750    3.000    0.000    1.000 
#    0.000    1.250    0.000    4.500    0.000    1.750 
#    0.000    2.000    0.000    1.375    0.000    0.000 
#
# Total GULP energy -356285.748211 kJ/mol
# GULP energy per Si atom -5566.964816 kJ/mol
# Density = 1.303218 g / cm^3
# Si number density = 13.061911 Si / 1000 Ang^3
#
#
#
# Elastic Constant Matrix: (Units=GPa)
#
#
# Indices 1 2 3 4 5 6 
#
# 1 47.7957 29.6437 36.3857 0.0000 0.0000 0.0000
# 2 29.6437 53.5880 35.5060 0.0000 0.0000 0.0000
# 3 36.3857 35.5060 90.3327 0.0000 0.0000 0.0000
# 4 0.0000 0.0000 0.0000 7.2230 0.0000 0.0000
# 5 0.0000 0.0000 0.0000 0.0000 -5.1551 0.0000
# 6 0.0000 0.0000 0.0000 0.0000 0.0000 -11.3708
#
#
#
# Elastic Compliance Matrix: (Units=1/GPa)
#
#
# Indices 1 2 3 4 5 6 
#
# 1 0.036764 -0.014232 -0.009214 0.000000 0.000000 0.000000
# 2 -0.014232 0.030741 -0.006351 0.000000 0.000000 0.000000
# 3 -0.009214 -0.006351 0.017278 0.000000 0.000000 0.000000
# 4 0.000000 0.000000 0.000000 0.138448 0.000000 0.000000
# 5 0.000000 0.000000 0.000000 0.000000 -0.193982 0.000000
# 6 0.000000 0.000000 0.000000 0.000000 0.000000 -0.087944
#
#
# Mechanical properties :
#
#
# Convention : Reuss Voigt Hill
#
# Bulk Modulus (GPa) = 39.69911 43.86524 41.78218
# Shear Modulus (GPa) = 537.93604 4.15147 271.04376
#
# Velocity S-wave (km/s) = 20.31575 1.78471 14.42073
# Velocity P-wave (km/s) = 24.09907 6.15649 17.58789
#
# Compressibility (1/GPa) = 0.02518948
#
# Stress axis : x y z
#
# Youngs Moduli (GPa) = 27.20061 32.52951 57.87735
#
# Poissons Ratio (x) = 0.46295 0.53331
# Poissons Ratio (y) = 0.38711 0.36756
# Poissons Ratio (z) = 0.25064 0.20658
#
# Static dielectric constant tensor:
#      x y z
#    x 1.423960 0.000000 0.000000 
#    y 0.000000 1.400810 0.000000 
#    z 0.000000 0.000000 1.466160 
# 
# From -- ./inp_files/64177.got.cif
#   From: 2010.05.17/outbox.cif.g08.bks.cpg/sg65_33_cif.got.tgz:64177.got - 2010.06.03 17:01:31.
