data_PCOD9482811
_publ_section_title
;
Structure prediction by ZEFSAII (Michael W. Deem and Ramdas Pophale) SiO2 
 PCOD9482811
Probable space group: C M M M
;
_chemical_formula_sum "Si O2"
_cell_formula_units_Z 72
_cell_length_a 7.580066
_cell_length_b 26.034073
_cell_length_c 20.943545
_cell_angle_alpha 90.000000
_cell_angle_beta 90.000000
_cell_angle_gamma 90.000000
_cell_volume 4132.998994
_symmetry_space_group_name_H-M "C M M M"
_symmetry_group_IT_number 65
_symmetry_cell_setting 'orthorhombic'
loop_
_space_group_symop_operation_xyz
x,y,z
-x,-y,z
x,-y,-z
-x,y,-z
-x,-y,-z
x,y,-z
-x,y,z
x,-y,z
1/2+x,1/2+y,z
1/2-x,1/2-y,z
1/2+x,1/2-y,-z
1/2-x,1/2+y,-z
1/2-x,1/2-y,-z
1/2+x,1/2+y,-z
1/2-x,1/2+y,z
1/2+x,1/2-y,z
loop_
_atom_site_type_symbol
_atom_site_label
_atom_site_fract_x
_atom_site_fract_y
_atom_site_fract_z
Si Si1 0.787756 0.438324 0.568719
Si Si2 0.284665 0.939606 0.707533
Si Si3 0.290713 0.690870 0.071715
Si Si4 0.708165 0.095626 0.842500
Si Si5 0.716527 0.000000 0.073344
O O1 0.719402 0.418949 0.500000
O O2 0.759858 0.500000 0.569330
O O3 0.722019 0.420263 0.637983
O O4 0.000000 0.430731 0.567930
O O5 0.500000 0.937732 0.705148
O O6 0.222001 0.909947 0.770462
O O7 0.239013 0.000000 0.714999
O O8 0.500000 0.685692 0.068438
O O9 0.250000 0.750000 0.087314
O O10 0.228672 0.650055 0.123435
O O11 0.218267 0.680378 0.000000
O O12 0.500000 0.085408 0.837013
O O13 0.776972 0.050547 0.888641
O O14 0.500000 0.000000 0.072278
O O15 0.774268 0.000000 0.000000
#
# Coordination Sequence:
#
# PCOD9482811 Si02
#       5
#    16  16  16  16   8
#     4   7   9  13  23  42  72 110 145 173 200 231
#     4   8  12  19  32  53  82 114 146 174 202 239
#     4  10  21  36  51  65  81 104 137 178 221 261
#     4  10  17  27  44  65  88 114 143 176 210 248
#     4   9  16  24  37  59  84 112 144 171 199 243
#
# _framework density 17.420763999999998
#
# number of rings (size 3 to 8) (size 9 to 14) (size 15 to 20)
#    0.000    3.222    1.111    3.333    0.000    2.222 
#    0.000    0.556    0.000    2.000    0.000    0.000 
#    0.000    1.778    0.000    7.111    0.000    6.667 
#
# Total GULP energy -200430.664562 kJ/mol
# GULP energy per Si atom -5567.518460 kJ/mol
# Density = 1.738111 g / cm^3
# Si number density = 17.420764 Si / 1000 Ang^3
#
#
#
# Elastic Constant Matrix: (Units=GPa)
#
#
# Indices 1 2 3 4 5 6 
#
# 1 34.4665 -7.4836 7.0805 0.0000 0.0000 0.0000
# 2 -7.4836 57.9663 77.3301 0.0000 0.0000 0.0000
# 3 7.0805 77.3301 227.9778 0.0000 0.0000 0.0000
# 4 0.0000 0.0000 0.0000 16.1929 0.0000 0.0000
# 5 0.0000 0.0000 0.0000 0.0000 -3.5735 0.0000
# 6 0.0000 0.0000 0.0000 0.0000 0.0000 -3.5906
#
#
#
# Elastic Compliance Matrix: (Units=1/GPa)
#
#
# Indices 1 2 3 4 5 6 
#
# 1 0.032085 0.009994 -0.004386 0.000000 0.000000 0.000000
# 2 0.009994 0.034623 -0.012055 0.000000 0.000000 0.000000
# 3 -0.004386 -0.012055 0.008612 0.000000 0.000000 0.000000
# 4 0.000000 0.000000 0.000000 0.061756 0.000000 0.000000
# 5 0.000000 0.000000 0.000000 0.000000 -0.279839 0.000000
# 6 0.000000 0.000000 0.000000 0.000000 0.000000 -0.278502
#
#
# Mechanical properties :
#
#
# Convention : Reuss Voigt Hill
#
# Bulk Modulus (GPa) = 16.01913 52.69607 34.35760
# Shear Modulus (GPa) = -12.90110 18.03799 2.56845
#
# Velocity S-wave (km/s) = -2.72427 3.22130 1.21555
# Velocity P-wave (km/s) = 0.82472 6.64458 4.66209
#
# Compressibility (1/GPa) = 0.06242536
#
# Stress axis : x y z
#
# Youngs Moduli (GPa) = 31.16745 28.88250 116.12346
#
# Poissons Ratio (x) = -0.28865 0.50937
# Poissons Ratio (y) = -0.31149 1.39981
# Poissons Ratio (z) = 0.13671 0.34817
#
# Static dielectric constant tensor:
#      x y z
#    x 1.657840 0.000000 0.000000 
#    y 0.000000 1.588680 0.000000 
#    z 0.000000 0.000000 1.673090 
# 
# From -- ./inp_files/59522.got.cif
#   From: 2010.05.17/outbox.cif.g08.bks.cpg/sg65_30_cif.got.tgz:59522.got - 2010.06.03 17:01:31.
