data_PCOD9482576
_publ_section_title
;
Structure prediction by ZEFSAII (Michael W. Deem and Ramdas Pophale) SiO2 
 PCOD9482576
Probable space group: C M M M
;
_chemical_formula_sum "Si O2"
_cell_formula_units_Z 88
_cell_length_a 31.316764
_cell_length_b 25.190472
_cell_length_c 7.421446
_cell_angle_alpha 90.000000
_cell_angle_beta 90.000000
_cell_angle_gamma 90.000000
_cell_volume 5854.660501
_symmetry_space_group_name_H-M "C M M M"
_symmetry_group_IT_number 65
_symmetry_cell_setting 'orthorhombic'
loop_
_space_group_symop_operation_xyz
x,y,z
-x,-y,z
x,-y,-z
-x,y,-z
-x,-y,-z
x,y,-z
-x,y,z
x,-y,z
1/2+x,1/2+y,z
1/2-x,1/2-y,z
1/2+x,1/2-y,-z
1/2-x,1/2+y,-z
1/2-x,1/2-y,-z
1/2+x,1/2+y,-z
1/2-x,1/2+y,z
1/2+x,1/2-y,z
loop_
_atom_site_type_symbol
_atom_site_label
_atom_site_fract_x
_atom_site_fract_y
_atom_site_fract_z
Si Si1 0.295350 0.781275 0.207973
Si Si2 0.000000 0.937676 0.279668
Si Si3 0.248899 0.882830 0.221822
Si Si4 0.852883 0.000000 0.719341
Si Si5 0.591407 0.400015 0.284915
Si Si6 0.746112 0.500000 0.794027
Si Si7 0.836245 0.178201 0.215097
O O1 0.250000 0.750000 0.207528
O O2 0.283284 0.838888 0.282741
O O3 0.327509 0.737598 0.286983
O O4 0.307885 0.790504 0.000000
O O5 0.043336 0.908863 0.218465
O O6 0.000000 0.937517 0.500000
O O7 0.000000 0.000000 0.227652
O O8 0.201864 0.861313 0.278561
O O9 0.257748 0.942557 0.284692
O O10 0.248513 0.883357 0.000000
O O11 0.878911 0.948377 0.779320
O O12 0.850276 0.000000 0.500000
O O13 0.805375 0.000000 0.792787
O O14 0.589130 0.405399 0.500000
O O15 0.617641 0.346706 0.248034
O O16 0.761772 0.500000 0.000000
O O17 0.830387 0.181552 0.000000
#
# Coordination Sequence:
#
# PCOD9482576 Si02
#       7
#    16   8  16   8  16   8  16
#     4   7  11  20  33  48  65  86 109 131 158 197
#     4   9  16  28  41  49  61  87 117 138 165 210
#     4   8  13  20  32  51  69  85 109 137 164 193
#     4  10  18  25  34  48  66  86 108 138 173 207
#     4  10  18  27  39  51  63  83 113 144 171 203
#     4  10  16  22  35  53  69  86 110 143 171 192
#     4   9  15  24  38  51  65  85 109 138 170 200
#
# _framework density 15.030760000000001
#
# number of rings (size 3 to 8) (size 9 to 14) (size 15 to 20)
#    0.000    3.182    2.727    2.182    0.000    0.000 
#    0.000    0.455    0.000    6.545    0.000    0.000 
#    0.000    0.000    0.000    0.000    0.000    0.909 
#
# Total GULP energy -244959.736216 kJ/mol
# GULP energy per Si atom -5567.266732 kJ/mol
# Density = 1.499655 g / cm^3
# Si number density = 15.030760 Si / 1000 Ang^3
#
#
#
# Elastic Constant Matrix: (Units=GPa)
#
#
# Indices 1 2 3 4 5 6 
#
# 1 69.5484 59.7972 -1.0183 0.0000 0.0000 0.0000
# 2 59.7972 144.8961 4.0925 0.0000 0.0000 0.0000
# 3 -1.0183 4.0925 47.4175 0.0000 0.0000 0.0000
# 4 0.0000 0.0000 0.0000 2.5245 0.0000 0.0000
# 5 0.0000 0.0000 0.0000 0.0000 9.3380 0.0000
# 6 0.0000 0.0000 0.0000 0.0000 0.0000 21.7129
#
#
#
# Elastic Compliance Matrix: (Units=1/GPa)
#
#
# Indices 1 2 3 4 5 6 
#
# 1 0.022364 -0.009265 0.001280 0.000000 0.000000 0.000000
# 2 -0.009265 0.010757 -0.001127 0.000000 0.000000 0.000000
# 3 0.001280 -0.001127 0.021214 0.000000 0.000000 0.000000
# 4 0.000000 0.000000 0.000000 0.396117 0.000000 0.000000
# 5 0.000000 0.000000 0.000000 0.000000 0.107089 0.000000
# 6 0.000000 0.000000 0.000000 0.000000 0.000000 0.046056
#
#
# Mechanical properties :
#
#
# Convention : Reuss Voigt Hill
#
# Bulk Modulus (GPa) = 27.69392 43.06719 35.38056
# Shear Modulus (GPa) = 7.88820 19.98112 13.93466
#
# Velocity S-wave (km/s) = 2.29335 3.64998 3.04810
# Velocity P-wave (km/s) = 5.04752 6.81748 5.99814
#
# Compressibility (1/GPa) = 0.03610900
#
# Stress axis : x y z
#
# Youngs Moduli (GPa) = 44.71572 92.96226 47.13855
#
# Poissons Ratio (x) = 0.86133 -0.06033
# Poissons Ratio (y) = 0.41431 0.05314
# Poissons Ratio (z) = -0.05723 0.10480
#
# Static dielectric constant tensor:
#      x y z
#    x 1.481020 0.000000 0.000000 
#    y 0.000000 1.549620 0.000000 
#    z 0.000000 0.000000 1.579240 
# 
# From -- ./inp_files/17188.got.cif
#   From: 2010.05.17/outbox.cif.g08.bks.cpg/sg65_9_cif.got.tgz:17188.got - 2010.06.03 17:01:31.
