data_PCOD9482261
_publ_section_title
;
Structure prediction by ZEFSAII (Michael W. Deem and Ramdas Pophale) SiO2 
 PCOD9482261
Probable space group: C M C A
;
_chemical_formula_sum "Si O2"
_cell_formula_units_Z 64
_cell_length_a 22.225666
_cell_length_b 14.891265
_cell_length_c 8.002403
_cell_angle_alpha 90.000000
_cell_angle_beta 90.000000
_cell_angle_gamma 90.000000
_cell_volume 2648.541574
_symmetry_space_group_name_H-M "C M C A"
_symmetry_group_IT_number 64
_symmetry_cell_setting 'orthorhombic'
loop_
_space_group_symop_operation_xyz
x,y,z
-x,1/2-y,1/2+z
x,-y,-z
-x,1/2+y,1/2-z
-x,-y,-z
x,1/2+y,1/2-z
-x,y,z
x,1/2-y,1/2+z
1/2+x,1/2+y,z
1/2-x,-y,1/2+z
1/2+x,1/2-y,-z
1/2-x,y,1/2-z
1/2-x,1/2-y,-z
1/2+x,y,1/2-z
1/2-x,1/2+y,z
1/2+x,-y,1/2+z
loop_
_atom_site_type_symbol
_atom_site_label
_atom_site_fract_x
_atom_site_fract_y
_atom_site_fract_z
Si Si1 0.000000 0.326388 0.310420
Si Si2 0.629169 0.547050 0.335298
Si Si3 0.000000 0.878095 0.584231
Si Si4 0.868587 0.126574 0.862496
Si Si5 0.683312 0.781576 0.684589
O O1 0.939304 0.360945 0.398821
O O2 0.000000 0.218581 0.325076
O O3 0.000000 0.358161 0.116062
O O4 0.653654 0.500000 0.500000
O O5 0.558740 0.567028 0.361480
O O6 0.641280 0.476130 0.187707
O O7 0.658372 0.642471 0.307230
O O8 0.855191 0.191079 0.703487
O O9 0.827845 0.170430 0.006818
O O10 0.750000 0.762869 0.750000
#
# Coordination Sequence:
#
# PCOD9482261 Si02
#       5
#     8  16   8  16  16
#     4  12  23  44  79 108 154 193 250 308 392 450
#     4  12  25  45  74 106 152 194 250 313 384 449
#     4  12  24  45  72 116 153 203 243 318 386 460
#     4  12  25  47  75 110 147 199 250 320 386 451
#     4  12  28  49  72 105 146 199 260 314 378 457
#
# _framework density 24.164242000000002
#
# number of rings (size 3 to 8) (size 9 to 14) (size 15 to 20)
#    0.000    0.000    5.000    5.625    0.000    3.000 
#    0.000    2.500    0.000    0.000    0.000    0.000 
#    0.000    0.000    0.000    0.000    0.000    0.000 
#
# Total GULP energy -179292.615649 kJ/mol
# GULP energy per Si atom -5602.894239 kJ/mol
# Density = 2.410924 g / cm^3
# Si number density = 24.164242 Si / 1000 Ang^3
#
#
#
# Elastic Constant Matrix: (Units=GPa)
#
#
# Indices 1 2 3 4 5 6 
#
# 1 98.2220 -2.2351 -0.1613 0.0000 0.0000 0.0000
# 2 -2.2351 94.2308 -6.7878 0.0000 0.0000 0.0000
# 3 -0.1613 -6.7878 101.2549 0.0000 0.0000 0.0000
# 4 0.0000 0.0000 0.0000 53.3159 0.0000 0.0000
# 5 0.0000 0.0000 0.0000 0.0000 30.5764 0.0000
# 6 0.0000 0.0000 0.0000 0.0000 0.0000 39.9540
#
#
#
# Elastic Compliance Matrix: (Units=1/GPa)
#
#
# Indices 1 2 3 4 5 6 
#
# 1 0.010187 0.000244 0.000033 0.000000 0.000000 0.000000
# 2 0.000244 0.010670 0.000716 0.000000 0.000000 0.000000
# 3 0.000033 0.000716 0.009924 0.000000 0.000000 0.000000
# 4 0.000000 0.000000 0.000000 0.018756 0.000000 0.000000
# 5 0.000000 0.000000 0.000000 0.000000 0.032705 0.000000
# 6 0.000000 0.000000 0.000000 0.000000 0.000000 0.025029
#
#
# Mechanical properties :
#
#
# Convention : Reuss Voigt Hill
#
# Bulk Modulus (GPa) = 30.52068 30.59326 30.55697
# Shear Modulus (GPa) = 43.02654 44.96206 43.99430
#
# Velocity S-wave (km/s) = 4.22428 4.31825 4.27152
# Velocity P-wave (km/s) = 6.03744 6.12789 6.08283
#
# Compressibility (1/GPa) = 0.03276467
#
# Stress axis : x y z
#
# Youngs Moduli (GPa) = 98.16797 93.72445 100.76488
#
# Poissons Ratio (x) = -0.02287 -0.00328
# Poissons Ratio (y) = -0.02395 -0.07211
# Poissons Ratio (z) = -0.00320 -0.06707
#
# Static dielectric constant tensor:
#      x y z
#    x 1.938570 0.000000 0.000000 
#    y 0.000000 1.852160 0.000000 
#    z 0.000000 0.000000 2.051770 
# 
# From -- ./inp_files/8998.got.cif
#   From: 2010.05.17/outbox.cif.g08.bks.cpg/sg64_5_cif.got.tgz:8998.got - 2010.06.03 16:29:19.
