data_PCOD9482778
_publ_section_title
;
Structure prediction by ZEFSAII (Michael W. Deem and Ramdas Pophale) SiO2 
 PCOD9482778
Probable space group: C M M M
;
_chemical_formula_sum "Si O2"
_cell_formula_units_Z 104
_cell_length_a 17.577359
_cell_length_b 14.366360
_cell_length_c 21.621612
_cell_angle_alpha 90.000000
_cell_angle_beta 90.000000
_cell_angle_gamma 90.000000
_cell_volume 5459.947132
_symmetry_space_group_name_H-M "C M M M"
_symmetry_group_IT_number 65
_symmetry_cell_setting 'orthorhombic'
loop_
_space_group_symop_operation_xyz
x,y,z
-x,-y,z
x,-y,-z
-x,y,-z
-x,-y,-z
x,y,-z
-x,y,z
x,-y,z
1/2+x,1/2+y,z
1/2-x,1/2-y,z
1/2+x,1/2-y,-z
1/2-x,1/2+y,-z
1/2-x,1/2-y,-z
1/2+x,1/2+y,-z
1/2-x,1/2+y,z
1/2+x,1/2-y,z
loop_
_atom_site_type_symbol
_atom_site_label
_atom_site_fract_x
_atom_site_fract_y
_atom_site_fract_z
Si Si1 0.000000 0.678024 0.933822
Si Si2 0.411594 0.800396 0.431374
Si Si3 0.205598 0.389483 0.663003
Si Si4 0.669191 0.891508 0.067444
Si Si5 0.840899 0.387105 0.797408
Si Si6 0.126421 0.105213 0.388092
Si Si7 0.500000 0.782319 0.199242
Si Si8 0.500000 0.602006 0.717123
O O1 0.076966 0.617764 0.931140
O O2 0.000000 0.741272 0.873669
O O3 0.000000 0.727622 0.000000
O O4 0.389750 0.835030 0.500000
O O5 0.500000 0.823290 0.420367
O O6 0.358632 0.839720 0.377471
O O7 0.402306 0.688880 0.430014
O O8 0.190482 0.500000 0.661092
O O9 0.204525 0.362005 0.735253
O O10 0.287506 0.374316 0.632466
O O11 0.692134 0.855177 0.135645
O O12 0.690122 0.000000 0.066030
O O13 0.692993 0.851020 0.000000
O O14 0.846746 0.500000 0.800465
O O15 0.924572 0.343108 0.789192
O O16 0.072958 0.106783 0.327642
O O17 0.122120 0.000000 0.413834
O O18 0.500000 0.689510 0.238638
O O19 0.500000 0.500000 0.747902
#
# Coordination Sequence:
#
# PCOD9482778 Si02
#       8
#     8  16  16  16  16  16   8   8
#     4   8  13  20  32  55  88 127 169 208 248 296
#     4  11  24  40  59  83 110 141 176 217 263 314
#     4  10  22  37  55  80 112 147 179 214 259 315
#     4   8  12  19  33  57  95 138 173 205 241 289
#     4   9  17  27  43  73 107 140 175 205 246 309
#     4  10  21  39  60  81 104 133 172 224 276 316
#     4  10  17  26  44  69  99 134 170 211 258 305
#     4  10  20  35  56  77  97 123 166 223 274 315
#
# _framework density 19.047803999999999
#
# number of rings (size 3 to 8) (size 9 to 14) (size 15 to 20)
#    0.000    2.462    0.769    1.846    1.077    4.923 
#    0.000    3.077    0.000    0.231    0.000    1.077 
#    0.000   11.077    0.000    0.923    0.000    1.231 
#
# Total GULP energy -289704.304926 kJ/mol
# GULP energy per Si atom -5571.236633 kJ/mol
# Density = 1.900445 g / cm^3
# Si number density = 19.047804 Si / 1000 Ang^3
#
#
#
# Elastic Constant Matrix: (Units=GPa)
#
#
# Indices 1 2 3 4 5 6 
#
# 1 44.0508 15.7002 22.5998 0.0000 0.0000 0.0000
# 2 15.7002 37.2685 30.6380 0.0000 0.0000 0.0000
# 3 22.5998 30.6380 110.3789 0.0000 0.0000 0.0000
# 4 0.0000 0.0000 0.0000 7.7485 0.0000 0.0000
# 5 0.0000 0.0000 0.0000 0.0000 1.3775 0.0000
# 6 0.0000 0.0000 0.0000 0.0000 0.0000 24.1073
#
#
#
# Elastic Compliance Matrix: (Units=1/GPa)
#
#
# Indices 1 2 3 4 5 6 
#
# 1 0.027523 -0.009020 -0.003131 0.000000 0.000000 0.000000
# 2 -0.009020 0.037722 -0.008624 0.000000 0.000000 0.000000
# 3 -0.003131 -0.008624 0.012094 0.000000 0.000000 0.000000
# 4 0.000000 0.000000 0.000000 0.129057 0.000000 0.000000
# 5 0.000000 0.000000 0.000000 0.000000 0.725938 0.000000
# 6 0.000000 0.000000 0.000000 0.000000 0.000000 0.041481
#
#
# Mechanical properties :
#
#
# Convention : Reuss Voigt Hill
#
# Bulk Modulus (GPa) = 27.94213 36.61937 32.28075
# Shear Modulus (GPa) = 4.86715 14.83068 9.84892
#
# Velocity S-wave (km/s) = 1.60024 2.79337 2.27637
# Velocity P-wave (km/s) = 4.25625 5.44708 4.88806
#
# Compressibility (1/GPa) = 0.03578825
#
# Stress axis : x y z
#
# Youngs Moduli (GPa) = 36.33389 26.51006 82.68226
#
# Poissons Ratio (x) = 0.23913 0.25891
# Poissons Ratio (y) = 0.32774 0.71301
# Poissons Ratio (z) = 0.11378 0.22861
#
# Static dielectric constant tensor:
#      x y z
#    x 1.637230 0.000000 0.000000 
#    y 0.000000 1.657930 0.000000 
#    z 0.000000 0.000000 1.722580 
# 
# From -- ./inp_files/63845.got.cif
#   From: 2010.05.17/outbox.cif.g08.bks.cpg/sg65_32_cif.got.tgz:63845.got - 2010.06.03 17:01:31.
