data_PCOD9482136
_publ_section_title
;
Structure prediction by ZEFSAII (Michael W. Deem and Ramdas Pophale) SiO2 
 PCOD9482136
Probable space group: C M C A
;
_chemical_formula_sum "Si O2"
_cell_formula_units_Z 40
_cell_length_a 9.831239
_cell_length_b 11.829568
_cell_length_c 13.406583
_cell_angle_alpha 90.000000
_cell_angle_beta 90.000000
_cell_angle_gamma 90.000000
_cell_volume 1559.176356
_symmetry_space_group_name_H-M "C M C A"
_symmetry_group_IT_number 64
_symmetry_cell_setting 'orthorhombic'
loop_
_space_group_symop_operation_xyz
x,y,z
-x,1/2-y,1/2+z
x,-y,-z
-x,1/2+y,1/2-z
-x,-y,-z
x,1/2+y,1/2-z
-x,y,z
x,1/2-y,1/2+z
1/2+x,1/2+y,z
1/2-x,-y,1/2+z
1/2+x,1/2-y,-z
1/2-x,y,1/2-z
1/2-x,1/2-y,-z
1/2+x,y,1/2-z
1/2-x,1/2+y,z
1/2+x,-y,1/2+z
loop_
_atom_site_type_symbol
_atom_site_label
_atom_site_fract_x
_atom_site_fract_y
_atom_site_fract_z
Si Si1 0.723596 0.803672 0.889178
Si Si2 0.000000 0.506791 0.117312
Si Si3 0.500000 0.842945 0.277002
Si Si4 0.000000 0.569715 0.393271
O O1 0.865375 0.785687 0.175283
O O2 0.750000 0.750000 0.000000
O O3 0.633002 0.915814 0.868474
O O4 0.872391 0.851682 0.870623
O O5 0.000000 0.379693 0.161181
O O6 0.000000 0.500000 0.000000
O O7 0.500000 0.970797 0.314800
O O8 0.000000 0.500000 0.500000
#
# Coordination Sequence:
#
# PCOD9482136 Si02
#       4
#    16   8   8   8
#     4  11  24  52  84 122 164 221 286 364 441 509
#     4  11  27  54  79 117 171 234 283 352 432 520
#     4  11  27  53  79 121 171 221 285 350 428 533
#     4  12  22  47  85 126 170 211 277 361 439 515
#
# _framework density 25.654572000000002
#
# number of rings (size 3 to 8) (size 9 to 14) (size 15 to 20)
#    0.000    0.800    4.000    2.400    0.000    1.600 
#   21.600    2.000    0.000    0.000    0.000    0.000 
#    0.000    0.000    0.000    0.000    0.000    0.000 
#
# Total GULP energy -111624.502725 kJ/mol
# GULP energy per Si atom -5581.225136 kJ/mol
# Density = 2.559618 g / cm^3
# Si number density = 25.654572 Si / 1000 Ang^3
#
#
#
# Elastic Constant Matrix: (Units=GPa)
#
#
# Indices 1 2 3 4 5 6 
#
# 1 314.2437 125.9832 57.1336 0.0000 0.0000 0.0000
# 2 125.9832 205.7110 60.9709 0.0000 0.0000 0.0000
# 3 57.1336 60.9709 138.8278 0.0000 0.0000 0.0000
# 4 0.0000 0.0000 0.0000 73.8282 0.0000 0.0000
# 5 0.0000 0.0000 0.0000 0.0000 32.3796 0.0000
# 6 0.0000 0.0000 0.0000 0.0000 0.0000 -23.3684
#
#
#
# Elastic Compliance Matrix: (Units=1/GPa)
#
#
# Indices 1 2 3 4 5 6 
#
# 1 0.004276 -0.002411 -0.000701 0.000000 0.000000 0.000000
# 2 -0.002411 0.006948 -0.002059 0.000000 0.000000 0.000000
# 3 -0.000701 -0.002059 0.008396 0.000000 0.000000 0.000000
# 4 0.000000 0.000000 0.000000 0.013545 0.000000 0.000000
# 5 0.000000 0.000000 0.000000 0.000000 0.030884 0.000000
# 6 0.000000 0.000000 0.000000 0.000000 0.000000 -0.042793
#
#
# Mechanical properties :
#
#
# Convention : Reuss Voigt Hill
#
# Bulk Modulus (GPa) = 107.78379 127.43979 117.61179
# Shear Modulus (GPa) = 144.12681 44.21421 94.17051
#
# Velocity S-wave (km/s) = 7.50345 4.15594 6.06521
# Velocity P-wave (km/s) = 10.82468 8.53301 9.74643
#
# Compressibility (1/GPa) = 0.00927783
#
# Stress axis : x y z
#
# Youngs Moduli (GPa) = 233.84362 143.92181 119.10418
#
# Poissons Ratio (x) = 0.34703 0.08349
# Poissons Ratio (y) = 0.56385 0.24526
# Poissons Ratio (z) = 0.16391 0.29637
#
# Static dielectric constant tensor:
#      x y z
#    x 1.973130 0.000000 0.000000 
#    y 0.000000 1.685370 0.000000 
#    z 0.000000 0.000000 3.630010 
# 
# From -- ./inp_files/20350.got.cif
#   From: 2010.05.17/outbox.cif.g08.bks.cpg/sg64_11_cif.got.tgz:20350.got - 2010.06.03 16:29:19.
