data_PCOD9482108
_publ_section_title
;
Structure prediction by ZEFSAII (Michael W. Deem and Ramdas Pophale) SiO2 
 PCOD9482108
Probable space group: C M C A
;
_chemical_formula_sum "Si O2"
_cell_formula_units_Z 64
_cell_length_a 14.485271
_cell_length_b 11.381345
_cell_length_c 16.576089
_cell_angle_alpha 90.000000
_cell_angle_beta 90.000000
_cell_angle_gamma 90.000000
_cell_volume 2732.764975
_symmetry_space_group_name_H-M "C M C A"
_symmetry_group_IT_number 64
_symmetry_cell_setting 'orthorhombic'
loop_
_space_group_symop_operation_xyz
x,y,z
-x,1/2-y,1/2+z
x,-y,-z
-x,1/2+y,1/2-z
-x,-y,-z
x,1/2+y,1/2-z
-x,y,z
x,1/2-y,1/2+z
1/2+x,1/2+y,z
1/2-x,-y,1/2+z
1/2+x,1/2-y,-z
1/2-x,y,1/2-z
1/2-x,1/2-y,-z
1/2+x,y,1/2-z
1/2-x,1/2+y,z
1/2+x,-y,1/2+z
loop_
_atom_site_type_symbol
_atom_site_label
_atom_site_fract_x
_atom_site_fract_y
_atom_site_fract_z
Si Si1 0.390944 0.765152 0.456690
Si Si2 0.782457 0.596962 0.934957
Si Si3 0.354790 0.307790 0.719472
Si Si4 0.099169 0.442733 0.212839
O O1 0.500000 0.783093 0.465013
O O2 0.325861 0.876382 0.439123
O O3 0.343808 0.708063 0.535867
O O4 0.370709 0.685674 0.377171
O O5 0.814382 0.562724 0.846776
O O6 0.805603 0.500000 0.000000
O O7 0.250000 0.301727 0.750000
O O8 0.394004 0.430011 0.755548
O O9 0.397804 0.180963 0.740811
O O10 0.000000 0.444450 0.168466
#
# Coordination Sequence:
#
# PCOD9482108 Si02
#       4
#    16  16  16  16
#     4  11  24  45  69 101 138 179 231 289 350 414
#     4  11  24  43  72 100 135 184 229 289 347 416
#     4  12  25  45  70 101 142 185 229 289 349 413
#     4  12  25  44  71 105 141 185 236 286 348 418
#
# _framework density 23.419504
#
# number of rings (size 3 to 8) (size 9 to 14) (size 15 to 20)
#    0.000    0.500    5.000    3.750    0.000    1.500 
#    0.000    0.000    0.000    0.000    0.000    0.000 
#    0.000    0.000    0.000    0.000    0.000    0.000 
#
# Total GULP energy -178661.041320 kJ/mol
# GULP energy per Si atom -5583.157541 kJ/mol
# Density = 2.336620 g / cm^3
# Si number density = 23.419504 Si / 1000 Ang^3
#
#
#
# Elastic Constant Matrix: (Units=GPa)
#
#
# Indices 1 2 3 4 5 6 
#
# 1 128.6814 3.9303 5.0484 0.0000 0.0000 0.0000
# 2 3.9303 145.8272 22.9373 0.0000 0.0000 0.0000
# 3 5.0484 22.9373 35.5700 0.0000 0.0000 0.0000
# 4 0.0000 0.0000 0.0000 24.5412 0.0000 0.0000
# 5 0.0000 0.0000 0.0000 0.0000 21.1849 0.0000
# 6 0.0000 0.0000 0.0000 0.0000 0.0000 -6.0571
#
#
#
# Elastic Compliance Matrix: (Units=1/GPa)
#
#
# Indices 1 2 3 4 5 6 
#
# 1 0.007815 -0.000040 -0.001083 0.000000 0.000000 0.000000
# 2 -0.000040 0.007632 -0.004916 0.000000 0.000000 0.000000
# 3 -0.001083 -0.004916 0.031437 0.000000 0.000000 0.000000
# 4 0.000000 0.000000 0.000000 0.040748 0.000000 0.000000
# 5 0.000000 0.000000 0.000000 0.000000 0.047203 0.000000
# 6 0.000000 0.000000 0.000000 0.000000 0.000000 -0.165096
#
#
# Mechanical properties :
#
#
# Convention : Reuss Voigt Hill
#
# Bulk Modulus (GPa) = 28.73096 41.54561 35.13828
# Shear Modulus (GPa) = -759.80338 26.47798 -366.66270
#
# Velocity S-wave (km/s) = -18.03153 3.36608 -12.52609
# Velocity P-wave (km/s) = 20.52365 5.73460 13.93440
#
# Compressibility (1/GPa) = 0.03480566
#
# Stress axis : x y z
#
# Youngs Moduli (GPa) = 127.96147 131.03258 31.80949
#
# Poissons Ratio (x) = 0.00527 0.03446
# Poissons Ratio (y) = 0.00515 0.15636
# Poissons Ratio (z) = 0.13861 0.64410
#
# Static dielectric constant tensor:
#      x y z
#    x 1.863560 0.000000 0.000000 
#    y 0.000000 1.964580 0.000000 
#    z 0.000000 0.000000 1.880550 
# 
# From -- ./inp_files/31629.got.cif
#   From: 2010.05.17/outbox.cif.g08.bks.cpg/sg64_16_cif.got.tgz:31629.got - 2010.06.03 16:29:19.
