data_PCOD9482130
_publ_section_title
;
Structure prediction by ZEFSAII (Michael W. Deem and Ramdas Pophale) SiO2 
 PCOD9482130
Probable space group: C M C A
;
_chemical_formula_sum "Si O2"
_cell_formula_units_Z 48
_cell_length_a 18.592258
_cell_length_b 9.662515
_cell_length_c 9.912487
_cell_angle_alpha 90.000000
_cell_angle_beta 90.000000
_cell_angle_gamma 90.000000
_cell_volume 1780.758185
_symmetry_space_group_name_H-M "C M C A"
_symmetry_group_IT_number 64
_symmetry_cell_setting 'orthorhombic'
loop_
_space_group_symop_operation_xyz
x,y,z
-x,1/2-y,1/2+z
x,-y,-z
-x,1/2+y,1/2-z
-x,-y,-z
x,1/2+y,1/2-z
-x,y,z
x,1/2-y,1/2+z
1/2+x,1/2+y,z
1/2-x,-y,1/2+z
1/2+x,1/2-y,-z
1/2-x,y,1/2-z
1/2-x,1/2-y,-z
1/2+x,y,1/2-z
1/2-x,1/2+y,z
1/2+x,-y,1/2+z
loop_
_atom_site_type_symbol
_atom_site_label
_atom_site_fract_x
_atom_site_fract_y
_atom_site_fract_z
Si Si1 0.750000 0.328891 0.750000
Si Si2 0.626282 0.652723 0.696458
Si Si3 0.000000 0.169007 0.509492
Si Si4 0.000000 0.427949 0.357269
Si Si5 0.763656 0.500000 0.000000
O O1 0.677982 0.244547 0.709941
O O2 0.774964 0.408829 0.614225
O O3 0.569165 0.717201 0.593615
O O4 0.574179 0.548268 0.777551
O O5 0.684361 0.584400 0.598680
O O6 0.000000 0.259171 0.375301
O O7 0.000000 0.000000 0.500000
O O8 0.000000 0.500000 0.500000
#
# Coordination Sequence:
#
# PCOD9482130 Si02
#       5
#     8  16   8   8   8
#     4  12  28  50  78 120 160 220 266 348 408 502
#     4  11  26  48  78 111 162 205 276 332 413 485
#     4  11  24  47  77 109 159 210 265 333 412 486
#     4  11  28  48  82 119 157 209 277 343 407 486
#     4  12  26  49  80 111 164 214 266 338 416 487
#
# _framework density 26.954809999999998
#
# number of rings (size 3 to 8) (size 9 to 14) (size 15 to 20)
#    0.000    0.667    1.667    4.000    4.667    5.333 
#    3.000    0.000    0.000    0.000    0.000    0.000 
#    0.000    0.000    0.000    0.000    0.000    0.000 
#
# Total GULP energy -134170.586233 kJ/mol
# GULP energy per Si atom -5590.441093 kJ/mol
# Density = 2.689346 g / cm^3
# Si number density = 26.954810 Si / 1000 Ang^3
#
#
#
# Elastic Constant Matrix: (Units=GPa)
#
#
# Indices 1 2 3 4 5 6 
#
# 1 158.2151 24.8068 22.9902 0.0000 0.0000 0.0000
# 2 24.8068 72.3513 27.5936 0.0000 0.0000 0.0000
# 3 22.9902 27.5936 148.5169 0.0000 0.0000 0.0000
# 4 0.0000 0.0000 0.0000 51.3279 0.0000 0.0000
# 5 0.0000 0.0000 0.0000 0.0000 61.4172 0.0000
# 6 0.0000 0.0000 0.0000 0.0000 0.0000 21.8280
#
#
#
# Elastic Compliance Matrix: (Units=1/GPa)
#
#
# Indices 1 2 3 4 5 6 
#
# 1 0.006739 -0.002059 -0.000661 0.000000 0.000000 0.000000
# 2 -0.002059 0.015504 -0.002562 0.000000 0.000000 0.000000
# 3 -0.000661 -0.002562 0.007312 0.000000 0.000000 0.000000
# 4 0.000000 0.000000 0.000000 0.019483 0.000000 0.000000
# 5 0.000000 0.000000 0.000000 0.000000 0.016282 0.000000
# 6 0.000000 0.000000 0.000000 0.000000 0.000000 0.045813
#
#
# Mechanical properties :
#
#
# Convention : Reuss Voigt Hill
#
# Bulk Modulus (GPa) = 52.65246 58.87383 55.76315
# Shear Modulus (GPa) = 39.05456 47.16082 43.10769
#
# Velocity S-wave (km/s) = 3.81056 4.18739 4.00341
# Velocity P-wave (km/s) = 6.23991 6.72816 6.48863
#
# Compressibility (1/GPa) = 0.01899246
#
# Stress axis : x y z
#
# Youngs Moduli (GPa) = 148.38329 64.49792 136.77058
#
# Poissons Ratio (x) = 0.13278 0.09037
# Poissons Ratio (y) = 0.30547 0.35040
# Poissons Ratio (z) = 0.09804 0.16524
#
# Static dielectric constant tensor:
#      x y z
#    x 2.049670 0.000000 0.000000 
#    y 0.000000 2.479210 0.000000 
#    z 0.000000 0.000000 2.118530 
# 
# From -- ./inp_files/8844.got.cif
#   From: 2010.05.17/outbox.cif.g08.bks.cpg/sg64_5_cif.got.tgz:8844.got - 2010.06.03 16:29:19.
