data_PCOD9482440
_publ_section_title
;
Structure prediction by ZEFSAII (Michael W. Deem and Ramdas Pophale) SiO2 
 PCOD9482440
Probable space group: C M C A
;
_chemical_formula_sum "Si O2"
_cell_formula_units_Z 48
_cell_length_a 9.000000
_cell_length_b 27.000000
_cell_length_c 21.000000
_cell_angle_alpha 90.000000
_cell_angle_beta 90.000000
_cell_angle_gamma 90.000000
_cell_volume 5103.000000
_symmetry_space_group_name_H-M "C M C A"
_symmetry_group_IT_number 64
_symmetry_cell_setting 'orthorhombic'
loop_
_space_group_symop_operation_xyz
x,y,z
-x,1/2-y,1/2+z
x,-y,-z
-x,1/2+y,1/2-z
-x,-y,-z
x,1/2+y,1/2-z
-x,y,z
x,1/2-y,1/2+z
1/2+x,1/2+y,z
1/2-x,-y,1/2+z
1/2+x,1/2-y,-z
1/2-x,y,1/2-z
1/2-x,1/2-y,-z
1/2+x,y,1/2-z
1/2-x,1/2+y,z
1/2+x,-y,1/2+z
loop_
_atom_site_type_symbol
_atom_site_label
_atom_site_fract_x
_atom_site_fract_y
_atom_site_fract_z
Si Si1 0.179302 0.154724 0.952792
Si Si2 0.178235 0.612137 0.184082
Si Si3 0.820368 0.285920 0.323783
Si Si4 0.677953 0.996661 0.184408
Si Si5 0.679081 0.307067 0.581326
Si Si6 0.179586 0.453465 0.046539
O O1 0.217759 0.172591 0.879414
O O2 0.242284 0.099324 0.965331
O O3 0.000000 0.156057 0.956707
O O4 0.244201 0.188670 0.011391
O O5 0.250000 0.630944 0.250000
O O6 0.221241 0.554548 0.176887
O O7 0.217291 0.643520 0.121747
O O8 0.000000 0.614857 0.190762
O O9 0.750000 0.287991 0.250000
O O10 0.784549 0.236616 0.366956
O O11 0.000000 0.287015 0.314569
O O12 0.500000 0.994815 0.191268
O O13 0.750000 0.977798 0.250000
O O14 0.716228 0.968922 0.119238
O O15 0.500000 0.304462 0.571133
O O16 0.000000 0.447021 0.040763
O O17 0.218568 0.500000 0.000000
#
# Coordination Sequence:
#
# PCOD9482440 Si02
#       6
#    16  16  16  16  16  16
#     4  11  24  39  57  86 119 149 188 238 289 341
#     4   9  17  30  51  80 111 143 183 231 282 336
#     4  10  23  41  61  87 118 153 194 237 281 337
#     4   9  18  32  51  76 106 140 179 226 279 335
#     4  10  20  37  60  84 113 151 193 235 282 339
#     4  10  21  39  61  82 108 148 195 238 285 342
#
# _framework density 9.4062319999999993
#
# number of rings (size 3 to 8) (size 9 to 14) (size 15 to 20)
#    0.000    2.167    0.000    2.500    0.000    7.000 
#    0.000    6.667    0.000    0.000    0.000    0.000 
#    0.000    0.000    0.000    0.000    0.000    0.000 
#
# Total GULP energy -267513.965353 kJ/mol
# GULP energy per Si atom -5573.207612 kJ/mol
# Density = 0.938482 g / cm^3
# Si number density = 9.406232 Si / 1000 Ang^3
#
#
#
# Elastic Constant Matrix: (Units=GPa)
#
#
# Indices 1 2 3 4 5 6 
#
# 1 43.9339 27.3753 45.8355 0.0000 0.0000 0.0000
# 2 27.3753 90.9036 53.3925 0.0000 0.0000 0.0000
# 3 45.8355 53.3925 179.7840 0.0000 0.0000 0.0000
# 4 0.0000 0.0000 0.0000 39.3047 0.0000 0.0000
# 5 0.0000 0.0000 0.0000 0.0000 45.6607 0.0000
# 6 0.0000 0.0000 0.0000 0.0000 0.0000 22.2897
#
#
#
# Elastic Compliance Matrix: (Units=1/GPa)
#
#
# Indices 1 2 3 4 5 6 
#
# 1 0.033643 -0.006170 -0.006745 0.000000 0.000000 0.000000
# 2 -0.006170 0.014456 -0.002720 0.000000 0.000000 0.000000
# 3 -0.006745 -0.002720 0.008090 0.000000 0.000000 0.000000
# 4 0.000000 0.000000 0.000000 0.025442 0.000000 0.000000
# 5 0.000000 0.000000 0.000000 0.000000 0.021901 0.000000
# 6 0.000000 0.000000 0.000000 0.000000 0.000000 0.044864
#
#
# Mechanical properties :
#
#
# Convention : Reuss Voigt Hill
#
# Bulk Modulus (GPa) = 40.13011 63.09201 51.61106
# Shear Modulus (GPa) = 26.59976 33.98556 30.29266
#
# Velocity S-wave (km/s) = 3.76432 4.25496 4.01714
# Velocity P-wave (km/s) = 6.34598 7.59932 7.00076
#
# Compressibility (1/GPa) = 0.02491894
#
# Stress axis : x y z
#
# Youngs Moduli (GPa) = 29.72422 69.17310 123.61421
#
# Poissons Ratio (x) = 0.42678 0.83375
# Poissons Ratio (y) = 0.18339 0.33627
# Poissons Ratio (z) = 0.20048 0.18817
#
# Static dielectric constant tensor:
#      x y z
#    x 1.637590 0.000000 0.000000 
#    y 0.000000 1.706290 0.000000 
#    z 0.000000 0.000000 1.655690 
# 
# From -- ./inp_files/37054.got.cif
#   From: 2010.05.17/outbox.ucp.g08.bks.cvg/sg64_19_cif.got.tgz:37054.got - 2010.06.11 16:36:46.
