data_PCOD9482571
_publ_section_title
;
Structure prediction by ZEFSAII (Michael W. Deem and Ramdas Pophale) SiO2 
 PCOD9482571
Probable space group: C M M M
;
_chemical_formula_sum "Si O2"
_cell_formula_units_Z 64
_cell_length_a 8.400309
_cell_length_b 18.570208
_cell_length_c 21.945905
_cell_angle_alpha 90.000000
_cell_angle_beta 90.000000
_cell_angle_gamma 90.000000
_cell_volume 3423.462103
_symmetry_space_group_name_H-M "C M M M"
_symmetry_group_IT_number 65
_symmetry_cell_setting 'orthorhombic'
loop_
_space_group_symop_operation_xyz
x,y,z
-x,-y,z
x,-y,-z
-x,y,-z
-x,-y,-z
x,y,-z
-x,y,z
x,-y,z
1/2+x,1/2+y,z
1/2-x,1/2-y,z
1/2+x,1/2-y,-z
1/2-x,1/2+y,-z
1/2-x,1/2-y,-z
1/2+x,1/2+y,-z
1/2-x,1/2+y,z
1/2+x,1/2-y,z
loop_
_atom_site_type_symbol
_atom_site_label
_atom_site_fract_x
_atom_site_fract_y
_atom_site_fract_z
Si Si1 0.192458 0.667738 0.260111
Si Si2 0.692488 0.168368 0.500000
Si Si3 0.309597 0.832775 0.873376
Si Si4 0.688166 0.667066 0.000000
Si Si5 0.305350 0.082803 0.620395
O O1 0.250000 0.750000 0.266220
O O2 0.240528 0.638411 0.193117
O O3 0.247817 0.620957 0.317293
O O4 0.000000 0.668708 0.260898
O O5 0.500000 0.167920 0.500000
O O6 0.750000 0.250000 0.500000
O O7 0.745996 0.127028 0.439077
O O8 0.500000 0.832852 0.876603
O O9 0.250000 0.750000 0.872606
O O10 0.246129 0.866204 0.936158
O O11 0.750000 0.750000 0.000000
O O12 0.500000 0.669540 0.000000
O O13 0.500000 0.083178 0.620618
O O14 0.254643 0.000000 0.617187
#
# Coordination Sequence:
#
# PCOD9482571 Si02
#       5
#    16   8  16   8  16
#     4   9  17  28  44  65  89 119 152 189 230 270
#     4  10  19  31  51  75  97 124 154 188 228 268
#     4   9  15  23  35  54  81 111 143 179 222 268
#     4  10  16  22  34  54  81 112 143 177 221 267
#     4   9  17  30  48  70  94 121 156 192 225 266
#
# _framework density 18.694524999999999
#
# number of rings (size 3 to 8) (size 9 to 14) (size 15 to 20)
#    0.000    2.750    0.000    4.500    0.000    2.500 
#    0.000    0.000    0.000    3.750    0.000    0.875 
#    0.000    7.000    0.000    0.000    0.000    0.000 
#
# Total GULP energy -178280.466220 kJ/mol
# GULP energy per Si atom -5571.264569 kJ/mol
# Density = 1.865198 g / cm^3
# Si number density = 18.694525 Si / 1000 Ang^3
#
#
#
# Elastic Constant Matrix: (Units=GPa)
#
#
# Indices 1 2 3 4 5 6 
#
# 1 31.4485 8.7185 35.5570 0.0000 0.0000 0.0000
# 2 8.7185 84.9184 87.0207 0.0000 0.0000 0.0000
# 3 35.5570 87.0207 252.0579 0.0000 0.0000 0.0000
# 4 0.0000 0.0000 0.0000 -3.6854 0.0000 0.0000
# 5 0.0000 0.0000 0.0000 0.0000 13.5075 0.0000
# 6 0.0000 0.0000 0.0000 0.0000 0.0000 13.4716
#
#
#
# Elastic Compliance Matrix: (Units=1/GPa)
#
#
# Indices 1 2 3 4 5 6 
#
# 1 0.038165 0.002474 -0.006238 0.000000 0.000000 0.000000
# 2 0.002474 0.018384 -0.006696 0.000000 0.000000 0.000000
# 3 -0.006238 -0.006696 0.007159 0.000000 0.000000 0.000000
# 4 0.000000 0.000000 0.000000 -0.271338 0.000000 0.000000
# 5 0.000000 0.000000 0.000000 0.000000 0.074033 0.000000
# 6 0.000000 0.000000 0.000000 0.000000 0.000000 0.074230
#
#
# Mechanical properties :
#
#
# Convention : Reuss Voigt Hill
#
# Bulk Modulus (GPa) = 23.37094 70.11299 46.74197
# Shear Modulus (GPa) = -206.73832 20.46731 -93.13551
#
# Velocity S-wave (km/s) = -10.52747 3.31241 -7.06596
# Velocity P-wave (km/s) = 11.62934 7.22602 6.44307
#
# Compressibility (1/GPa) = 0.04278818
#
# Stress axis : x y z
#
# Youngs Moduli (GPa) = 26.20199 54.39656 139.68526
#
# Poissons Ratio (x) = -0.13458 0.87135
# Poissons Ratio (y) = -0.06482 0.93530
# Poissons Ratio (z) = 0.16345 0.36423
#
# Static dielectric constant tensor:
#      x y z
#    x 1.643030 0.000000 0.000000 
#    y 0.000000 1.594670 0.000000 
#    z 0.000000 0.000000 1.717050 
# 
# From -- ./inp_files/58766.got.cif
#   From: 2010.05.17/outbox.cif.g08.bks.cpg/sg65_30_cif.got.tgz:58766.got - 2010.06.03 17:01:31.
