data_PCOD9482315
_publ_section_title
;
Structure prediction by ZEFSAII (Michael W. Deem and Ramdas Pophale) SiO2 
 PCOD9482315
Probable space group: C M C A
;
_chemical_formula_sum "Si O2"
_cell_formula_units_Z 112
_cell_length_a 7.463908
_cell_length_b 33.870302
_cell_length_c 25.630145
_cell_angle_alpha 90.000000
_cell_angle_beta 90.000000
_cell_angle_gamma 90.000000
_cell_volume 6479.424144
_symmetry_space_group_name_H-M "C M C A"
_symmetry_group_IT_number 64
_symmetry_cell_setting 'orthorhombic'
loop_
_space_group_symop_operation_xyz
x,y,z
-x,1/2-y,1/2+z
x,-y,-z
-x,1/2+y,1/2-z
-x,-y,-z
x,1/2+y,1/2-z
-x,y,z
x,1/2-y,1/2+z
1/2+x,1/2+y,z
1/2-x,-y,1/2+z
1/2+x,1/2-y,-z
1/2-x,y,1/2-z
1/2-x,1/2-y,-z
1/2+x,y,1/2-z
1/2-x,1/2+y,z
1/2+x,-y,1/2+z
loop_
_atom_site_type_symbol
_atom_site_label
_atom_site_fract_x
_atom_site_fract_y
_atom_site_fract_z
Si Si1 0.785904 0.883532 0.308743
Si Si2 0.212467 0.686419 0.011459
Si Si3 0.780689 0.438839 0.098831
Si Si4 0.288872 0.981095 0.941854
Si Si5 0.714578 0.293431 0.308958
Si Si6 0.719171 0.402285 0.512899
Si Si7 0.216074 0.240854 0.583007
O O1 0.750000 0.897042 0.250000
O O2 0.717974 0.913594 0.352119
O O3 0.716610 0.838584 0.313499
O O4 0.000000 0.881207 0.315830
O O5 0.238503 0.716643 0.059018
O O6 0.000000 0.682080 0.003152
O O7 0.281870 0.642380 0.021153
O O8 0.282327 0.708373 0.959264
O O9 0.716875 0.484207 0.095020
O O10 0.732480 0.416311 0.045446
O O11 0.000000 0.440118 0.099628
O O12 0.500000 0.977294 0.929818
O O13 0.216919 0.936735 0.947804
O O14 0.276503 0.000000 0.000000
O O15 0.500000 0.295124 0.313440
O O16 0.750000 0.279146 0.250000
O O17 0.779987 0.268440 0.358545
O O18 0.500000 0.402816 0.515285
O O19 0.000000 0.238532 0.583199
#
# Coordination Sequence:
#
# PCOD9482315 Si02
#       7
#    16  16  16  16  16  16  16
#     4   9  16  25  37  54  75  98 124 150 178 215
#     4   9  16  25  39  58  79 103 128 155 187 225
#     4   8  12  19  33  52  75 101 122 144 179 218
#     4   7  10  16  28  50  76  95 114 144 178 208
#     4   9  17  28  41  56  75 100 128 158 190 224
#     4   8  12  19  33  54  77  97 120 151 183 213
#     4   9  17  28  39  54  78 104 128 154 189 231
#
# _framework density 17.285485999999999
#
# number of rings (size 3 to 8) (size 9 to 14) (size 15 to 20)
#    0.000    3.571    0.000    2.571    0.000    4.000 
#    0.000    0.000    0.000    2.571    0.000    2.000 
#    0.000    8.000    0.000    0.000    0.000    0.000 
#
# Total GULP energy -311758.080461 kJ/mol
# GULP energy per Si atom -5567.108580 kJ/mol
# Density = 1.724614 g / cm^3
# Si number density = 17.285486 Si / 1000 Ang^3
#
#
#
# Elastic Constant Matrix: (Units=GPa)
#
#
# Indices 1 2 3 4 5 6 
#
# 1 47.5361 3.6975 -4.9786 0.0000 0.0000 0.0000
# 2 3.6975 157.2789 75.1286 0.0000 0.0000 0.0000
# 3 -4.9786 75.1286 106.0944 0.0000 0.0000 0.0000
# 4 0.0000 0.0000 0.0000 18.7395 0.0000 0.0000
# 5 0.0000 0.0000 0.0000 0.0000 7.6203 0.0000
# 6 0.0000 0.0000 0.0000 0.0000 0.0000 4.6229
#
#
#
# Elastic Compliance Matrix: (Units=1/GPa)
#
#
# Indices 1 2 3 4 5 6 
#
# 1 0.021367 -0.001483 0.002053 0.000000 0.000000 0.000000
# 2 -0.001483 0.009711 -0.006946 0.000000 0.000000 0.000000
# 3 0.002053 -0.006946 0.014441 0.000000 0.000000 0.000000
# 4 0.000000 0.000000 0.000000 0.053363 0.000000 0.000000
# 5 0.000000 0.000000 0.000000 0.000000 0.131229 0.000000
# 6 0.000000 0.000000 0.000000 0.000000 0.000000 0.216314
#
#
# Mechanical properties :
#
#
# Convention : Reuss Voigt Hill
#
# Bulk Modulus (GPa) = 30.51946 50.95605 40.73775
# Shear Modulus (GPa) = 10.63604 22.00066 16.31835
#
# Velocity S-wave (km/s) = 2.48325 3.57148 3.07587
# Velocity P-wave (km/s) = 5.09082 6.82278 6.01942
#
# Compressibility (1/GPa) = 0.03276598
#
# Stress axis : x y z
#
# Youngs Moduli (GPa) = 46.80120 102.97519 69.24837
#
# Poissons Ratio (x) = 0.15270 -0.14215
# Poissons Ratio (y) = 0.06940 0.48102
# Poissons Ratio (z) = -0.09607 0.71530
#
# Static dielectric constant tensor:
#      x y z
#    x 1.864440 0.000000 0.000000 
#    y 0.000000 1.611550 0.000000 
#    z 0.000000 0.000000 1.569640 
# 
# From -- ./inp_files/38577.got.cif
#   From: 2010.05.17/outbox.cif.g08.bks.cpg/sg64_20_cif.got.tgz:38577.got - 2010.06.03 16:29:19.
