data_PCOD9482169
_publ_section_title
;
Structure prediction by ZEFSAII (Michael W. Deem and Ramdas Pophale) SiO2 
 PCOD9482169
Probable space group: C M C A
;
_chemical_formula_sum "Si O2"
_cell_formula_units_Z 56
_cell_length_a 10.290095
_cell_length_b 16.043043
_cell_length_c 13.960410
_cell_angle_alpha 90.000000
_cell_angle_beta 90.000000
_cell_angle_gamma 90.000000
_cell_volume 2304.646419
_symmetry_space_group_name_H-M "C M C A"
_symmetry_group_IT_number 64
_symmetry_cell_setting 'orthorhombic'
loop_
_space_group_symop_operation_xyz
x,y,z
-x,1/2-y,1/2+z
x,-y,-z
-x,1/2+y,1/2-z
-x,-y,-z
x,1/2+y,1/2-z
-x,y,z
x,1/2-y,1/2+z
1/2+x,1/2+y,z
1/2-x,-y,1/2+z
1/2+x,1/2-y,-z
1/2-x,y,1/2-z
1/2-x,1/2-y,-z
1/2+x,y,1/2-z
1/2-x,1/2+y,z
1/2+x,-y,1/2+z
loop_
_atom_site_type_symbol
_atom_site_label
_atom_site_fract_x
_atom_site_fract_y
_atom_site_fract_z
Si Si1 0.000000 0.848112 0.623122
Si Si2 0.500000 0.256448 0.928416
Si Si3 0.223089 0.893926 0.934497
Si Si4 0.000000 0.810108 0.231300
Si Si5 0.802536 0.562320 0.646018
O O1 0.862386 0.894194 0.618635
O O2 0.000000 0.786865 0.531401
O O3 0.000000 0.787582 0.713275
O O4 0.629856 0.314186 0.922440
O O5 0.500000 0.186260 0.845564
O O6 0.145973 0.974214 0.894805
O O7 0.260645 0.905200 0.046804
O O8 0.883729 0.857423 0.179623
O O9 0.750000 0.537461 0.750000
#
# Coordination Sequence:
#
# PCOD9482169 Si02
#       5
#     8   8  16   8  16
#     4  12  26  44  73 113 143 187 249 309 374 432
#     4  12  25  46  78 108 151 194 253 306 380 436
#     4  11  26  48  74 106 154 197 239 314 376 443
#     4  12  27  41  76 104 142 192 252 304 364 444
#     4  11  25  46  72 104 147 196 252 295 374 446
#
# _framework density 24.298738
#
# number of rings (size 3 to 8) (size 9 to 14) (size 15 to 20)
#    0.000    0.571    2.857    3.429    8.000    5.714 
#    0.000    0.000    0.000    0.000    0.000    0.000 
#    0.000    0.000    0.000    0.000    0.000    0.000 
#
# Total GULP energy -156037.182688 kJ/mol
# GULP energy per Si atom -5572.756525 kJ/mol
# Density = 2.424343 g / cm^3
# Si number density = 24.298738 Si / 1000 Ang^3
#
#
#
# Elastic Constant Matrix: (Units=GPa)
#
#
# Indices 1 2 3 4 5 6 
#
# 1 112.2983 26.4761 18.2957 0.0000 0.0000 0.0000
# 2 26.4761 68.9652 20.3625 0.0000 0.0000 0.0000
# 3 18.2957 20.3625 137.8688 0.0000 0.0000 0.0000
# 4 0.0000 0.0000 0.0000 56.3080 0.0000 0.0000
# 5 0.0000 0.0000 0.0000 0.0000 28.5468 0.0000
# 6 0.0000 0.0000 0.0000 0.0000 0.0000 21.1977
#
#
#
# Elastic Compliance Matrix: (Units=1/GPa)
#
#
# Indices 1 2 3 4 5 6 
#
# 1 0.009872 -0.003558 -0.000784 0.000000 0.000000 0.000000
# 2 -0.003558 0.016444 -0.001956 0.000000 0.000000 0.000000
# 3 -0.000784 -0.001956 0.007646 0.000000 0.000000 0.000000
# 4 0.000000 0.000000 0.000000 0.017759 0.000000 0.000000
# 5 0.000000 0.000000 0.000000 0.000000 0.035030 0.000000
# 6 0.000000 0.000000 0.000000 0.000000 0.000000 0.047175
#
#
# Mechanical properties :
#
#
# Convention : Reuss Voigt Hill
#
# Bulk Modulus (GPa) = 46.80892 49.93345 48.37118
# Shear Modulus (GPa) = 32.54243 38.14369 35.34306
#
# Velocity S-wave (km/s) = 3.66357 3.96634 3.81796
# Velocity P-wave (km/s) = 6.09929 6.44750 6.27581
#
# Compressibility (1/GPa) = 0.02136345
#
# Stress axis : x y z
#
# Youngs Moduli (GPa) = 101.30126 60.81356 130.78160
#
# Poissons Ratio (x) = 0.21638 0.10260
# Poissons Ratio (y) = 0.36044 0.25587
# Poissons Ratio (z) = 0.07947 0.11898
#
# Static dielectric constant tensor:
#      x y z
#    x 1.933540 0.000000 0.000000 
#    y 0.000000 1.907860 0.000000 
#    z 0.000000 0.000000 3.612810 
# 
# From -- ./inp_files/21774.got.cif
#   From: 2010.05.17/outbox.cif.g08.bks.cpg/sg64_11_cif.got.tgz:21774.got - 2010.06.03 16:29:19.
