data_PCOD9482733
_publ_section_title
;
Structure prediction by ZEFSAII (Michael W. Deem and Ramdas Pophale) SiO2 
 PCOD9482733
Probable space group: C M M M
;
_chemical_formula_sum "Si O2"
_cell_formula_units_Z 72
_cell_length_a 14.875408
_cell_length_b 10.251790
_cell_length_c 23.502384
_cell_angle_alpha 90.000000
_cell_angle_beta 90.000000
_cell_angle_gamma 90.000000
_cell_volume 3584.103195
_symmetry_space_group_name_H-M "C M M M"
_symmetry_group_IT_number 65
_symmetry_cell_setting 'orthorhombic'
loop_
_space_group_symop_operation_xyz
x,y,z
-x,-y,z
x,-y,-z
-x,y,-z
-x,-y,-z
x,y,-z
-x,y,z
x,-y,z
1/2+x,1/2+y,z
1/2-x,1/2-y,z
1/2+x,1/2-y,-z
1/2-x,1/2+y,-z
1/2-x,1/2-y,-z
1/2+x,1/2+y,-z
1/2-x,1/2+y,z
1/2+x,1/2-y,z
loop_
_atom_site_type_symbol
_atom_site_label
_atom_site_fract_x
_atom_site_fract_y
_atom_site_fract_z
Si Si1 0.846786 0.500000 0.933986
Si Si2 0.400853 0.000000 0.393088
Si Si3 0.858749 0.222782 0.937104
Si Si4 0.168679 0.000000 0.858972
Si Si5 0.597434 0.500000 0.258996
Si Si6 0.696737 0.500000 0.565928
Si Si7 0.351571 0.721461 0.345703
O O1 0.898354 0.365514 0.928709
O O2 0.767531 0.500000 0.887522
O O3 0.810795 0.500000 0.000000
O O4 0.306052 0.000000 0.427450
O O5 0.394793 0.862349 0.358611
O O6 0.500000 0.000000 0.421550
O O7 0.750000 0.250000 0.937497
O O8 0.877960 0.125723 0.886469
O O9 0.881958 0.172047 0.000000
O O10 0.168985 0.000000 0.791530
O O11 0.500000 0.500000 0.230760
O O12 0.605488 0.372968 0.298908
O O13 0.672887 0.500000 0.500000
O O14 0.659042 0.628592 0.598258
O O15 0.250000 0.750000 0.326589
#
# Coordination Sequence:
#
# PCOD9482733 Si02
#       7
#     8   8  16   8   8   8  16
#     4   8  14  25  42  68  99 126 157 205 260 306
#     4  10  19  33  57  85 109 136 178 227 268 306
#     4   8  13  23  40  63  92 123 157 201 250 300
#     4  10  17  25  42  65  90 123 164 202 246 301
#     4  11  23  38  53  72 108 147 176 216 273 327
#     4   9  19  37  58  81 114 150 175 204 259 326
#     4   9  20  38  59  79 103 142 187 223 259 308
#
# _framework density 20.088706999999999
#
# number of rings (size 3 to 8) (size 9 to 14) (size 15 to 20)
#    0.000    2.889    0.000    3.667    0.000    6.889 
#    0.000    1.111    0.000   14.333    0.000    0.000 
#    0.000    2.667    0.000    0.000    0.000    0.000 
#
# Total GULP energy -200424.314741 kJ/mol
# GULP energy per Si atom -5567.342076 kJ/mol
# Density = 2.004298 g / cm^3
# Si number density = 20.088707 Si / 1000 Ang^3
#
#
#
# Elastic Constant Matrix: (Units=GPa)
#
#
# Indices 1 2 3 4 5 6 
#
# 1 69.0999 15.1374 20.2699 0.0000 0.0000 0.0000
# 2 15.1374 164.8953 50.8053 0.0000 0.0000 0.0000
# 3 20.2699 50.8053 118.8931 0.0000 0.0000 0.0000
# 4 0.0000 0.0000 0.0000 2.9144 0.0000 0.0000
# 5 0.0000 0.0000 0.0000 0.0000 62.0328 0.0000
# 6 0.0000 0.0000 0.0000 0.0000 0.0000 -18.8910
#
#
#
# Elastic Compliance Matrix: (Units=1/GPa)
#
#
# Indices 1 2 3 4 5 6 
#
# 1 0.015302 -0.000692 -0.002313 0.000000 0.000000 0.000000
# 2 -0.000692 0.007015 -0.002880 0.000000 0.000000 0.000000
# 3 -0.002313 -0.002880 0.010036 0.000000 0.000000 0.000000
# 4 0.000000 0.000000 0.000000 0.343127 0.000000 0.000000
# 5 0.000000 0.000000 0.000000 0.000000 0.016120 0.000000
# 6 0.000000 0.000000 0.000000 0.000000 0.000000 -0.052935
#
#
# Mechanical properties :
#
#
# Convention : Reuss Voigt Hill
#
# Bulk Modulus (GPa) = 48.58318 58.36817 53.47568
# Shear Modulus (GPa) = 13.99400 26.98961 20.49180
#
# Velocity S-wave (km/s) = 2.64220 3.66938 3.19731
# Velocity P-wave (km/s) = 5.79182 6.86082 6.34886
#
# Compressibility (1/GPa) = 0.02058326
#
# Stress axis : x y z
#
# Youngs Moduli (GPa) = 65.35123 142.54640 99.64274
#
# Poissons Ratio (x) = 0.09865 0.23048
# Poissons Ratio (y) = 0.04523 0.28695
# Poissons Ratio (z) = 0.15116 0.41050
#
# Static dielectric constant tensor:
#      x y z
#    x 1.760400 0.000000 0.000000 
#    y 0.000000 1.775870 0.000000 
#    z 0.000000 0.000000 1.655700 
# 
# From -- ./inp_files/63500.got.cif
#   From: 2010.05.17/outbox.cif.g08.bks.cpg/sg65_32_cif.got.tgz:63500.got - 2010.06.03 17:01:31.
