data_PCOD9482762
_publ_section_title
;
Structure prediction by ZEFSAII (Michael W. Deem and Ramdas Pophale) SiO2 
 PCOD9482762
Probable space group: C M M M
;
_chemical_formula_sum "Si O2"
_cell_formula_units_Z 96
_cell_length_a 27.200051
_cell_length_b 28.794134
_cell_length_c 9.395512
_cell_angle_alpha 90.000000
_cell_angle_beta 90.000000
_cell_angle_gamma 90.000000
_cell_volume 7358.582975
_symmetry_space_group_name_H-M "C M M M"
_symmetry_group_IT_number 65
_symmetry_cell_setting 'orthorhombic'
loop_
_space_group_symop_operation_xyz
x,y,z
-x,-y,z
x,-y,-z
-x,y,-z
-x,-y,-z
x,y,-z
-x,y,z
x,-y,z
1/2+x,1/2+y,z
1/2-x,1/2-y,z
1/2+x,1/2-y,-z
1/2-x,1/2+y,-z
1/2-x,1/2-y,-z
1/2+x,1/2+y,-z
1/2-x,1/2+y,z
1/2+x,1/2-y,z
loop_
_atom_site_type_symbol
_atom_site_label
_atom_site_fract_x
_atom_site_fract_y
_atom_site_fract_z
Si Si1 0.209802 0.553302 0.668171
Si Si2 0.799342 0.218095 0.336075
Si Si3 0.353255 0.794831 0.168174
Si Si4 0.055554 0.642089 0.829700
Si Si5 0.408059 0.052563 0.669086
Si Si6 0.744081 0.858429 0.167729
O O1 0.218355 0.561721 0.500000
O O2 0.223634 0.500000 0.700073
O O3 0.150847 0.556997 0.690743
O O4 0.236815 0.591509 0.761803
O O5 0.811506 0.208106 0.500000
O O6 0.750000 0.250000 0.335459
O O7 0.839974 0.249415 0.258208
O O8 0.784552 0.172377 0.248744
O O9 0.402858 0.820965 0.213583
O O10 0.307851 0.830894 0.184841
O O11 0.356118 0.783446 0.000000
O O12 0.065748 0.593178 0.754134
O O13 0.000000 0.657575 0.799205
O O14 0.060568 0.635865 0.000000
O O15 0.417141 0.057250 0.500000
O O16 0.422366 0.000000 0.711080
O O17 0.754318 0.861167 0.000000
#
# Coordination Sequence:
#
# PCOD9482762 Si02
#       6
#    16  16  16  16  16  16
#     4   9  17  28  41  57  78 104 132 163 199 237
#     4   9  17  27  41  60  78  98 122 152 192 237
#     4   9  17  29  41  56  77  99 124 160 199 237
#     4  10  20  32  44  58  76 100 130 165 207 248
#     4   9  18  31  44  56  72  97 130 169 210 246
#     4  10  17  26  42  61  79 100 126 159 195 234
#
# _framework density 13.04599
#
# number of rings (size 3 to 8) (size 9 to 14) (size 15 to 20)
#    0.000    2.667    1.667    2.000    0.000    4.667 
#    0.000    3.333    0.000    0.000    0.000    0.000 
#    0.000    0.000    0.000    0.000    0.000    0.833 
#
# Total GULP energy -267480.660874 kJ/mol
# GULP energy per Si atom -5572.513768 kJ/mol
# Density = 1.301630 g / cm^3
# Si number density = 13.045990 Si / 1000 Ang^3
#
#
#
# Elastic Constant Matrix: (Units=GPa)
#
#
# Indices 1 2 3 4 5 6 
#
# 1 57.8249 47.0938 36.7063 0.0000 0.0000 0.0000
# 2 47.0938 79.4282 58.5451 0.0000 0.0000 0.0000
# 3 36.7063 58.5451 64.5814 0.0000 0.0000 0.0000
# 4 0.0000 0.0000 0.0000 25.8487 0.0000 0.0000
# 5 0.0000 0.0000 0.0000 0.0000 12.9895 0.0000
# 6 0.0000 0.0000 0.0000 0.0000 0.0000 14.6764
#
#
#
# Elastic Compliance Matrix: (Units=1/GPa)
#
#
# Indices 1 2 3 4 5 6 
#
# 1 0.033651 -0.017644 -0.003132 0.000000 0.000000 0.000000
# 2 -0.017644 0.047194 -0.032755 0.000000 0.000000 0.000000
# 3 -0.003132 -0.032755 0.046957 0.000000 0.000000 0.000000
# 4 0.000000 0.000000 0.000000 0.038687 0.000000 0.000000
# 5 0.000000 0.000000 0.000000 0.000000 0.076985 0.000000
# 6 0.000000 0.000000 0.000000 0.000000 0.000000 0.068136
#
#
# Mechanical properties :
#
#
# Convention : Reuss Voigt Hill
#
# Bulk Modulus (GPa) = 48.21077 54.05834 51.13456
# Shear Modulus (GPa) = 11.74855 14.66889 13.20872
#
# Velocity S-wave (km/s) = 3.00417 3.35684 3.18539
# Velocity P-wave (km/s) = 7.00486 7.52005 7.26703
#
# Compressibility (1/GPa) = 0.02074225
#
# Stress axis : x y z
#
# Youngs Moduli (GPa) = 29.71688 21.18920 21.29586
#
# Poissons Ratio (x) = 0.37385 0.06670
# Poissons Ratio (y) = 0.52431 0.69754
# Poissons Ratio (z) = 0.09307 0.69404
#
# Static dielectric constant tensor:
#      x y z
#    x 1.408900 0.000000 0.000000 
#    y 0.000000 1.411300 0.000000 
#    z 0.000000 0.000000 1.432680 
# 
# From -- ./inp_files/12252.got.cif
#   From: 2010.05.17/outbox.cif.g08.bks.cpg/sg65_7_cif.got.tgz:12252.got - 2010.06.03 17:01:31.
