data_PCOD9482847
_publ_section_title
;
Structure prediction by ZEFSAII (Michael W. Deem and Ramdas Pophale) SiO2 
 PCOD9482847
Probable space group: C M M M
;
_chemical_formula_sum "Si O2"
_cell_formula_units_Z 104
_cell_length_a 31.526121
_cell_length_b 12.146989
_cell_length_c 19.124282
_cell_angle_alpha 90.000000
_cell_angle_beta 90.000000
_cell_angle_gamma 90.000000
_cell_volume 7323.594929
_symmetry_space_group_name_H-M "C M M M"
_symmetry_group_IT_number 65
_symmetry_cell_setting 'orthorhombic'
loop_
_space_group_symop_operation_xyz
x,y,z
-x,-y,z
x,-y,-z
-x,y,-z
-x,-y,-z
x,y,-z
-x,y,z
x,-y,z
1/2+x,1/2+y,z
1/2-x,1/2-y,z
1/2+x,1/2-y,-z
1/2-x,1/2+y,-z
1/2-x,1/2-y,-z
1/2+x,1/2+y,-z
1/2-x,1/2+y,z
1/2+x,1/2-y,z
loop_
_atom_site_type_symbol
_atom_site_label
_atom_site_fract_x
_atom_site_fract_y
_atom_site_fract_z
Si Si1 0.451425 0.753444 0.657069
Si Si2 0.051301 0.124560 0.798661
Si Si3 0.122933 0.874069 0.415870
Si Si4 0.574371 0.000000 0.676453
Si Si5 0.051471 0.278698 0.920308
Si Si6 0.797523 0.732857 0.415904
Si Si7 0.841652 0.500000 0.582787
Si Si8 0.448782 0.000000 0.165341
O O1 0.500000 0.720788 0.641465
O O2 0.440115 0.705555 0.733885
O O3 0.417175 0.698430 0.606665
O O4 0.448076 0.885308 0.656584
O O5 0.066316 0.179312 0.870787
O O6 0.000000 0.119516 0.802538
O O7 0.066727 0.000000 0.787465
O O8 0.124519 0.875468 0.500000
O O9 0.166349 0.816901 0.389981
O O10 0.118872 0.000000 0.391331
O O11 0.618586 0.000000 0.634719
O O12 0.575285 0.000000 0.760923
O O13 0.060924 0.392375 0.880404
O O14 0.000000 0.273044 0.923211
O O15 0.066950 0.276052 0.000000
O O16 0.795470 0.749109 0.500000
O O17 0.750000 0.750000 0.388286
O O18 0.814292 0.609502 0.404923
O O19 0.854721 0.500000 0.500000
O O20 0.500000 0.000000 0.180616
#
# Coordination Sequence:
#
# PCOD9482847 Si02
#       8
#    16  16  16   8  16  16   8   8
#     4  11  21  33  47  63  86 120 160 199 233 268
#     4   9  17  28  41  57  79 111 151 190 228 272
#     4  10  21  35  49  67  89 114 151 195 232 274
#     4  12  20  31  50  67  89 120 156 194 232 266
#     4   9  16  25  39  59  81 105 142 194 237 265
#     4   9  18  32  51  71  90 113 140 178 230 284
#     4  10  20  34  51  72  96 116 145 194 237 272
#     4  10  17  28  42  59  82 117 159 190 220 265
#
# _framework density 14.200676
#
# number of rings (size 3 to 8) (size 9 to 14) (size 15 to 20)
#    0.000    2.154    3.077    1.385    1.077    2.462 
#    0.000    2.308    0.000    2.538    0.000    0.000 
#    0.000    0.000    0.000    0.000    0.000   19.231 
#
# Total GULP energy -289633.714567 kJ/mol
# GULP energy per Si atom -5569.879126 kJ/mol
# Density = 1.416835 g / cm^3
# Si number density = 14.200676 Si / 1000 Ang^3
#
#
#
# Elastic Constant Matrix: (Units=GPa)
#
#
# Indices 1 2 3 4 5 6 
#
# 1 73.1466 34.2957 28.3121 0.0000 0.0000 0.0000
# 2 34.2957 109.5031 25.2587 0.0000 0.0000 0.0000
# 3 28.3121 25.2587 45.6798 0.0000 0.0000 0.0000
# 4 0.0000 0.0000 0.0000 16.7939 0.0000 0.0000
# 5 0.0000 0.0000 0.0000 0.0000 1.2339 0.0000
# 6 0.0000 0.0000 0.0000 0.0000 0.0000 7.8674
#
#
#
# Elastic Compliance Matrix: (Units=1/GPa)
#
#
# Indices 1 2 3 4 5 6 
#
# 1 0.019245 -0.003755 -0.009852 0.000000 0.000000 0.000000
# 2 -0.003755 0.011200 -0.003866 0.000000 0.000000 0.000000
# 3 -0.009852 -0.003866 0.030135 0.000000 0.000000 0.000000
# 4 0.000000 0.000000 0.000000 0.059546 0.000000 0.000000
# 5 0.000000 0.000000 0.000000 0.000000 0.810423 0.000000
# 6 0.000000 0.000000 0.000000 0.000000 0.000000 0.127108
#
#
# Mechanical properties :
#
#
# Convention : Reuss Voigt Hill
#
# Bulk Modulus (GPa) = 39.00866 44.89585 41.95225
# Shear Modulus (GPa) = 4.54072 14.54322 9.54197
#
# Velocity S-wave (km/s) = 1.79011 3.20366 2.59499
# Velocity P-wave (km/s) = 5.63931 6.73562 6.21170
#
# Compressibility (1/GPa) = 0.02563533
#
# Stress axis : x y z
#
# Youngs Moduli (GPa) = 51.96182 89.28673 33.18397
#
# Poissons Ratio (x) = 0.33527 0.32691
# Poissons Ratio (y) = 0.19511 0.12828
# Poissons Ratio (z) = 0.51191 0.34516
#
# Static dielectric constant tensor:
#      x y z
#    x 1.449880 0.000000 0.000000 
#    y 0.000000 1.491640 0.000000 
#    z 0.000000 0.000000 1.469330 
# 
# From -- ./inp_files/58250.got.cif
#   From: 2010.05.17/outbox.cif.g08.bks.cpg/sg65_30_cif.got.tgz:58250.got - 2010.06.03 17:01:31.
