data_PCOD9482352
_publ_section_title
;
Structure prediction by ZEFSAII (Michael W. Deem and Ramdas Pophale) SiO2 
 PCOD9482352
Probable space group: C M C A
;
_chemical_formula_sum "Si O2"
_cell_formula_units_Z 40
_cell_length_a 9.000000
_cell_length_b 27.000000
_cell_length_c 18.000000
_cell_angle_alpha 90.000000
_cell_angle_beta 90.000000
_cell_angle_gamma 90.000000
_cell_volume 4374.000000
_symmetry_space_group_name_H-M "C M C A"
_symmetry_group_IT_number 64
_symmetry_cell_setting 'orthorhombic'
loop_
_space_group_symop_operation_xyz
x,y,z
-x,1/2-y,1/2+z
x,-y,-z
-x,1/2+y,1/2-z
-x,-y,-z
x,1/2+y,1/2-z
-x,y,z
x,1/2-y,1/2+z
1/2+x,1/2+y,z
1/2-x,-y,1/2+z
1/2+x,1/2-y,-z
1/2-x,y,1/2-z
1/2-x,1/2-y,-z
1/2+x,y,1/2-z
1/2-x,1/2+y,z
1/2+x,-y,1/2+z
loop_
_atom_site_type_symbol
_atom_site_label
_atom_site_fract_x
_atom_site_fract_y
_atom_site_fract_z
Si Si1 0.328144 0.009448 0.910299
Si Si2 0.329965 0.590383 0.102581
Si Si3 0.670041 0.110190 0.573608
Si Si4 0.178161 0.692880 0.328978
Si Si5 0.321757 0.282313 0.433484
O O1 0.500000 0.013539 0.890149
O O2 0.247072 0.061308 0.891942
O O3 0.257228 0.959448 0.877150
O O4 0.320408 0.000000 0.000000
O O5 0.500000 0.584656 0.128554
O O6 0.267561 0.643031 0.129843
O O7 0.334102 0.596718 0.013793
O O8 0.500000 0.115702 0.599649
O O9 0.753922 0.162986 0.577980
O O10 0.250000 0.691469 0.250000
O O11 0.211430 0.745623 0.365512
O O12 0.000000 0.689349 0.327731
O O13 0.500000 0.286199 0.444338
O O14 0.250000 0.250000 0.500000
#
# Coordination Sequence:
#
# PCOD9482352 Si02
#       5
#    16  16  16  16  16
#     4   9  17  28  45  75 106 134 170 210 256 311
#     4   9  17  32  50  72 105 139 172 214 263 316
#     4  10  18  31  51  77 107 140 174 216 270 317
#     4  10  22  38  54  77 108 143 182 222 270 325
#     4  11  21  35  54  79 109 141 181 227 271 323
#
# _framework density 9.1449470000000002
#
# number of rings (size 3 to 8) (size 9 to 14) (size 15 to 20)
#    0.000    2.200    2.000    1.800    0.000    5.600 
#    0.000    0.000    0.000    1.200    0.000    8.400 
#    0.000    0.000    0.000    0.000    0.000    0.000 
#
# Total GULP energy -222737.232075 kJ/mol
# GULP energy per Si atom -5568.430802 kJ/mol
# Density = 0.912413 g / cm^3
# Si number density = 9.144947 Si / 1000 Ang^3
#
#
#
# Elastic Constant Matrix: (Units=GPa)
#
#
# Indices 1 2 3 4 5 6 
#
# 1 82.5007 87.4046 3.8170 0.0000 0.0000 0.0000
# 2 87.4046 204.4211 7.5722 0.0000 0.0000 0.0000
# 3 3.8170 7.5722 7.8229 0.0000 0.0000 0.0000
# 4 0.0000 0.0000 0.0000 7.3396 0.0000 0.0000
# 5 0.0000 0.0000 0.0000 0.0000 15.5665 0.0000
# 6 0.0000 0.0000 0.0000 0.0000 0.0000 39.1092
#
#
#
# Elastic Compliance Matrix: (Units=1/GPa)
#
#
# Indices 1 2 3 4 5 6 
#
# 1 0.022181 -0.009421 -0.001704 0.000000 0.000000 0.000000
# 2 -0.009421 0.009075 -0.004188 0.000000 0.000000 0.000000
# 3 -0.001704 -0.004188 0.132714 0.000000 0.000000 0.000000
# 4 0.000000 0.000000 0.000000 0.136248 0.000000 0.000000
# 5 0.000000 0.000000 0.000000 0.000000 0.064241 0.000000
# 6 0.000000 0.000000 0.000000 0.000000 0.000000 0.025569
#
#
# Mechanical properties :
#
#
# Convention : Reuss Voigt Hill
#
# Bulk Modulus (GPa) = 7.49931 54.70359 31.10145
# Shear Modulus (GPa) = 10.75039 25.46645 18.10842
#
# Velocity S-wave (km/s) = 2.42704 3.73551 3.14996
# Velocity P-wave (km/s) = 3.45879 6.96990 5.50194
#
# Compressibility (1/GPa) = 0.13334563
#
# Stress axis : x y z
#
# Youngs Moduli (GPa) = 45.08446 110.19298 7.53500
#
# Poissons Ratio (x) = 1.03809 0.01284
# Poissons Ratio (y) = 0.42473 0.03155
# Poissons Ratio (z) = 0.07681 0.46143
#
# Static dielectric constant tensor:
#      x y z
#    x 1.671850 0.000000 0.000000 
#    y 0.000000 1.586950 0.000000 
#    z 0.000000 0.000000 1.628020 
# 
# From -- ./inp_files/29713.got.cif
#   From: 2010.05.17/outbox.ucp.g08.bks.cvg/sg64_15_cif.got.tgz:29713.got - 2010.06.11 16:36:46.
