data_PCOD9482132
_publ_section_title
;
Structure prediction by ZEFSAII (Michael W. Deem and Ramdas Pophale) SiO2 
 PCOD9482132
Probable space group: C M C A
;
_chemical_formula_sum "Si O2"
_cell_formula_units_Z 40
_cell_length_a 9.618076
_cell_length_b 11.564670
_cell_length_c 14.005676
_cell_angle_alpha 90.000000
_cell_angle_beta 90.000000
_cell_angle_gamma 90.000000
_cell_volume 1557.849590
_symmetry_space_group_name_H-M "C M C A"
_symmetry_group_IT_number 64
_symmetry_cell_setting 'orthorhombic'
loop_
_space_group_symop_operation_xyz
x,y,z
-x,1/2-y,1/2+z
x,-y,-z
-x,1/2+y,1/2-z
-x,-y,-z
x,1/2+y,1/2-z
-x,y,z
x,1/2-y,1/2+z
1/2+x,1/2+y,z
1/2-x,-y,1/2+z
1/2+x,1/2-y,-z
1/2-x,y,1/2-z
1/2-x,1/2-y,-z
1/2+x,y,1/2-z
1/2-x,1/2+y,z
1/2+x,-y,1/2+z
loop_
_atom_site_type_symbol
_atom_site_label
_atom_site_fract_x
_atom_site_fract_y
_atom_site_fract_z
Si Si1 0.500000 0.890922 0.381063
Si Si2 0.777821 0.079167 0.141333
Si Si3 0.500000 0.219154 0.831656
Si Si4 0.500000 0.853203 0.968335
O O1 0.500000 0.837426 0.273333
O O2 0.500000 0.784914 0.452637
O O3 0.631213 0.973411 0.396554
O O4 0.750000 0.043707 0.250000
O O5 0.639182 0.103813 0.082982
O O6 0.867636 0.196815 0.153179
O O7 0.500000 0.128377 0.918207
#
# Coordination Sequence:
#
# PCOD9482132 Si02
#       4
#     8  16   8   8
#     4  11  26  48  77 100 158 205 229 318 379 419
#     4  11  24  48  74 109 147 200 251 293 377 449
#     4  11  25  50  79 109 152 200 245 309 372 444
#     4  12  25  51  77 113 150 188 261 308 360 447
#
# _framework density 25.676421999999999
#
# number of rings (size 3 to 8) (size 9 to 14) (size 15 to 20)
#    0.000    0.800    4.000    2.400    5.600    3.200 
#    7.200    2.000    0.000    0.000    0.000    0.000 
#    0.000    0.000    0.000    0.000    0.000    0.000 
#
# Total GULP energy -112378.432470 kJ/mol
# GULP energy per Si atom -5618.921623 kJ/mol
# Density = 2.561798 g / cm^3
# Si number density = 25.676422 Si / 1000 Ang^3
#
#
#
# Elastic Constant Matrix: (Units=GPa)
#
#
# Indices 1 2 3 4 5 6 
#
# 1 160.1191 75.1980 27.6797 0.0000 0.0000 0.0000
# 2 75.1980 136.6776 28.7017 0.0000 0.0000 0.0000
# 3 27.6797 28.7017 171.6014 0.0000 0.0000 0.0000
# 4 0.0000 0.0000 0.0000 8.9501 0.0000 0.0000
# 5 0.0000 0.0000 0.0000 0.0000 192.5989 0.0000
# 6 0.0000 0.0000 0.0000 0.0000 0.0000 -4.6339
#
#
#
# Elastic Compliance Matrix: (Units=1/GPa)
#
#
# Indices 1 2 3 4 5 6 
#
# 1 0.008482 -0.004539 -0.000609 0.000000 0.000000 0.000000
# 2 -0.004539 0.010012 -0.000942 0.000000 0.000000 0.000000
# 3 -0.000609 -0.000942 0.006083 0.000000 0.000000 0.000000
# 4 0.000000 0.000000 0.000000 0.111731 0.000000 0.000000
# 5 0.000000 0.000000 0.000000 0.000000 0.005192 0.000000
# 6 0.000000 0.000000 0.000000 0.000000 0.000000 -0.215799
#
#
# Mechanical properties :
#
#
# Convention : Reuss Voigt Hill
#
# Bulk Modulus (GPa) = 80.66775 81.28410 80.97593
# Shear Modulus (GPa) = -86.22866 61.83760 -12.19553
#
# Velocity S-wave (km/s) = -5.80136 4.91281 -2.18174
# Velocity P-wave (km/s) = 3.65910 7.99417 5.02582
#
# Compressibility (1/GPa) = 0.01239653
#
# Stress axis : x y z
#
# Youngs Moduli (GPa) = 117.89267 99.88376 164.38400
#
# Poissons Ratio (x) = 0.45337 0.10012
# Poissons Ratio (y) = 0.53511 0.15491
# Poissons Ratio (z) = 0.07180 0.09413
#
# Static dielectric constant tensor:
#      x y z
#    x 1.993580 0.000000 0.000000 
#    y 0.000000 2.022010 0.000000 
#    z 0.000000 0.000000 1.988490 
# 
# From -- ./inp_files/20364.got.cif
#   From: 2010.05.17/outbox.cif.g08.bks.cpg/sg64_11_cif.got.tgz:20364.got - 2010.06.03 16:29:19.
