data_PCOD9482396
_publ_section_title
;
Structure prediction by ZEFSAII (Michael W. Deem and Ramdas Pophale) SiO2 
 PCOD9482396
Probable space group: C M C A
;
_chemical_formula_sum "Si O2"
_cell_formula_units_Z 48
_cell_length_a 15.000000
_cell_length_b 15.000000
_cell_length_c 21.000000
_cell_angle_alpha 90.000000
_cell_angle_beta 90.000000
_cell_angle_gamma 90.000000
_cell_volume 4725.000000
_symmetry_space_group_name_H-M "C M C A"
_symmetry_group_IT_number 64
_symmetry_cell_setting 'orthorhombic'
loop_
_space_group_symop_operation_xyz
x,y,z
-x,1/2-y,1/2+z
x,-y,-z
-x,1/2+y,1/2-z
-x,-y,-z
x,1/2+y,1/2-z
-x,y,z
x,1/2-y,1/2+z
1/2+x,1/2+y,z
1/2-x,-y,1/2+z
1/2+x,1/2-y,-z
1/2-x,y,1/2-z
1/2-x,1/2-y,-z
1/2+x,y,1/2-z
1/2-x,1/2+y,z
1/2+x,-y,1/2+z
loop_
_atom_site_type_symbol
_atom_site_label
_atom_site_fract_x
_atom_site_fract_y
_atom_site_fract_z
Si Si1 0.396030 0.208921 0.870239
Si Si2 0.144293 0.726446 0.238474
Si Si3 0.107302 0.739808 0.017584
Si Si4 0.397853 0.402101 0.622900
Si Si5 0.732513 0.548932 0.674125
Si Si6 0.895065 0.127754 0.868240
O O1 0.500000 0.176446 0.875541
O O2 0.396238 0.276047 0.809528
O O3 0.322251 0.139092 0.843878
O O4 0.367501 0.239126 0.942353
O O5 0.250000 0.714216 0.250000
O O6 0.105519 0.658231 0.186706
O O7 0.124366 0.816560 0.197396
O O8 0.130696 0.652212 0.059462
O O9 0.132178 0.818607 0.067383
O O10 0.000000 0.742488 0.016847
O O11 0.500000 0.431859 0.613186
O O12 0.329658 0.477282 0.641223
O O13 0.750000 0.538296 0.750000
O O14 0.828403 0.546688 0.640312
O O15 0.000000 0.109583 0.871056
#
# Coordination Sequence:
#
# PCOD9482396 Si02
#       6
#    16  16  16  16  16  16
#     4  11  20  35  62  93 122 152 194 252 302 349
#     4  11  19  37  60  89 120 149 200 245 290 356
#     4   8  19  37  61  91 117 150 199 247 299 361
#     4  10  22  40  60  86 125 162 191 243 308 358
#     4  12  23  36  55  90 120 155 203 243 289 365
#     4  10  19  37  60  84 117 157 199 246 296 344
#
# _framework density 10.15873
#
# number of rings (size 3 to 8) (size 9 to 14) (size 15 to 20)
#    0.000    1.667    3.333    3.500    0.000    2.000 
#    0.000    2.500    3.667    0.000    0.000    2.333 
#    0.000    0.000    0.000    0.000    0.000    0.000 
#
# Total GULP energy -267315.164566 kJ/mol
# GULP energy per Si atom -5569.065928 kJ/mol
# Density = 1.013561 g / cm^3
# Si number density = 10.158730 Si / 1000 Ang^3
#
#
#
# Elastic Constant Matrix: (Units=GPa)
#
#
# Indices 1 2 3 4 5 6 
#
# 1 115.0330 16.8000 16.5717 0.0000 0.0000 0.0000
# 2 16.8000 26.0701 14.8027 0.0000 0.0000 0.0000
# 3 16.5717 14.8027 186.9146 0.0000 0.0000 0.0000
# 4 0.0000 0.0000 0.0000 13.6710 0.0000 0.0000
# 5 0.0000 0.0000 0.0000 0.0000 36.9909 0.0000
# 6 0.0000 0.0000 0.0000 0.0000 0.0000 15.4768
#
#
#
# Elastic Compliance Matrix: (Units=1/GPa)
#
#
# Indices 1 2 3 4 5 6 
#
# 1 0.009622 -0.005985 -0.000379 0.000000 0.000000 0.000000
# 2 -0.005985 0.043887 -0.002945 0.000000 0.000000 0.000000
# 3 -0.000379 -0.002945 0.005617 0.000000 0.000000 0.000000
# 4 0.000000 0.000000 0.000000 0.073148 0.000000 0.000000
# 5 0.000000 0.000000 0.000000 0.000000 0.027034 0.000000
# 6 0.000000 0.000000 0.000000 0.000000 0.000000 0.064613
#
#
# Mechanical properties :
#
#
# Convention : Reuss Voigt Hill
#
# Bulk Modulus (GPa) = 24.68682 47.15183 35.91932
# Shear Modulus (GPa) = 19.52808 31.88394 25.70601
#
# Velocity S-wave (km/s) = 3.10360 3.96572 3.56085
# Velocity P-wave (km/s) = 5.00200 6.65035 5.88418
#
# Compressibility (1/GPa) = 0.04050745
#
# Stress axis : x y z
#
# Youngs Moduli (GPa) = 103.92968 22.78558 178.03495
#
# Poissons Ratio (x) = 0.13638 0.06749
# Poissons Ratio (y) = 0.62205 0.52431
# Poissons Ratio (z) = 0.03940 0.06710
#
# Static dielectric constant tensor:
#      x y z
#    x 1.748860 0.000000 0.000000 
#    y 0.000000 1.874760 0.000000 
#    z 0.000000 0.000000 1.699360 
# 
# From -- ./inp_files/39184.got.cif
#   From: 2010.05.17/outbox.ucp.g08.bks.cvg/sg64_20_cif.got.tgz:39184.got - 2010.06.11 16:36:46.
