data_PCOD9482797
_publ_section_title
;
Structure prediction by ZEFSAII (Michael W. Deem and Ramdas Pophale) SiO2 
 PCOD9482797
Probable space group: C M M M
;
_chemical_formula_sum "Si O2"
_cell_formula_units_Z 96
_cell_length_a 29.331498
_cell_length_b 27.500232
_cell_length_c 9.036618
_cell_angle_alpha 90.000000
_cell_angle_beta 90.000000
_cell_angle_gamma 90.000000
_cell_volume 7289.143920
_symmetry_space_group_name_H-M "C M M M"
_symmetry_group_IT_number 65
_symmetry_cell_setting 'orthorhombic'
loop_
_space_group_symop_operation_xyz
x,y,z
-x,-y,z
x,-y,-z
-x,y,-z
-x,-y,-z
x,y,-z
-x,y,z
x,-y,z
1/2+x,1/2+y,z
1/2-x,1/2-y,z
1/2+x,1/2-y,-z
1/2-x,1/2+y,-z
1/2-x,1/2-y,-z
1/2+x,1/2+y,-z
1/2-x,1/2+y,z
1/2+x,1/2-y,z
loop_
_atom_site_type_symbol
_atom_site_label
_atom_site_fract_x
_atom_site_fract_y
_atom_site_fract_z
Si Si1 0.143927 0.554330 0.319915
Si Si2 0.551197 0.104973 0.677239
Si Si3 0.359056 0.244244 0.323732
Si Si4 0.219567 0.200635 0.829458
Si Si5 0.200632 0.352272 0.322372
Si Si6 0.551835 0.788968 0.176537
O O1 0.145406 0.553914 0.500000
O O2 0.154774 0.500000 0.267890
O O3 0.092414 0.569837 0.279519
O O4 0.177889 0.597283 0.272601
O O5 0.555038 0.113718 0.500000
O O6 0.500000 0.086022 0.705724
O O7 0.556047 0.156479 0.758579
O O8 0.362175 0.248616 0.500000
O O9 0.326145 0.285471 0.257590
O O10 0.334383 0.192199 0.291011
O O11 0.408568 0.242467 0.250553
O O12 0.250000 0.250000 0.825781
O O13 0.251642 0.160618 0.753725
O O14 0.210055 0.189071 0.000000
O O15 0.206619 0.353231 0.500000
O O16 0.500000 0.772647 0.209449
O O17 0.557679 0.790161 0.000000
#
# Coordination Sequence:
#
# PCOD9482797 Si02
#       6
#    16  16  16  16  16  16
#     4   9  16  26  40  58  77  98 128 167 208 243
#     4   9  16  27  41  55  71  95 130 169 208 245
#     4  10  17  27  43  60  77  98 125 159 194 233
#     4   9  17  27  40  59  78  97 120 151 192 237
#     4   9  16  27  40  56  76  99 125 159 198 237
#     4  10  19  28  39  56  78 104 131 160 196 236
#
# _framework density 13.170271
#
# number of rings (size 3 to 8) (size 9 to 14) (size 15 to 20)
#    0.000    2.667    1.667    1.500    0.000    4.000 
#    0.000    1.667    0.000    2.000    0.000    2.333 
#    0.000    0.000    0.000    0.000    0.000    0.833 
#
# Total GULP energy -267376.688442 kJ/mol
# GULP energy per Si atom -5570.347676 kJ/mol
# Density = 1.314030 g / cm^3
# Si number density = 13.170271 Si / 1000 Ang^3
#
#
#
# Elastic Constant Matrix: (Units=GPa)
#
#
# Indices 1 2 3 4 5 6 
#
# 1 104.7845 59.1525 44.9330 0.0000 0.0000 0.0000
# 2 59.1525 60.1391 23.9031 0.0000 0.0000 0.0000
# 3 44.9330 23.9031 36.4968 0.0000 0.0000 0.0000
# 4 0.0000 0.0000 0.0000 5.0534 0.0000 0.0000
# 5 0.0000 0.0000 0.0000 0.0000 20.3116 0.0000
# 6 0.0000 0.0000 0.0000 0.0000 0.0000 17.3559
#
#
#
# Elastic Compliance Matrix: (Units=1/GPa)
#
#
# Indices 1 2 3 4 5 6 
#
# 1 0.033780 -0.022572 -0.026805 0.000000 0.000000 0.000000
# 2 -0.022572 0.037562 0.003188 0.000000 0.000000 0.000000
# 3 -0.026805 0.003188 0.058312 0.000000 0.000000 0.000000
# 4 0.000000 0.000000 0.000000 0.197887 0.000000 0.000000
# 5 0.000000 0.000000 0.000000 0.000000 0.049233 0.000000
# 6 0.000000 0.000000 0.000000 0.000000 0.000000 0.057617
#
#
# Mechanical properties :
#
#
# Convention : Reuss Voigt Hill
#
# Bulk Modulus (GPa) = 26.82571 50.82194 38.82383
# Shear Modulus (GPa) = 9.27311 13.43964 11.35637
#
# Velocity S-wave (km/s) = 2.65636 3.19792 2.93963
# Velocity P-wave (km/s) = 5.46085 7.23241 6.40814
#
# Compressibility (1/GPa) = 0.03727767
#
# Stress axis : x y z
#
# Youngs Moduli (GPa) = 29.60360 26.62243 17.14902
#
# Poissons Ratio (x) = 0.60091 0.45968
# Poissons Ratio (y) = 0.66820 -0.05467
# Poissons Ratio (z) = 0.79352 -0.08487
#
# Static dielectric constant tensor:
#      x y z
#    x 1.438210 0.000000 0.000000 
#    y 0.000000 1.407330 0.000000 
#    z 0.000000 0.000000 1.435800 
# 
# From -- ./inp_files/16915.got.cif
#   From: 2010.05.17/outbox.cif.g08.bks.cpg/sg65_9_cif.got.tgz:16915.got - 2010.06.03 17:01:31.
