data_PCOD9482263
_publ_section_title
;
Structure prediction by ZEFSAII (Michael W. Deem and Ramdas Pophale) SiO2 
 PCOD9482263
Probable space group: C M C A
;
_chemical_formula_sum "Si O2"
_cell_formula_units_Z 56
_cell_length_a 14.996390
_cell_length_b 18.114029
_cell_length_c 7.476937
_cell_angle_alpha 90.000000
_cell_angle_beta 90.000000
_cell_angle_gamma 90.000000
_cell_volume 2031.072876
_symmetry_space_group_name_H-M "C M C A"
_symmetry_group_IT_number 64
_symmetry_cell_setting 'orthorhombic'
loop_
_space_group_symop_operation_xyz
x,y,z
-x,1/2-y,1/2+z
x,-y,-z
-x,1/2+y,1/2-z
-x,-y,-z
x,1/2+y,1/2-z
-x,y,z
x,1/2-y,1/2+z
1/2+x,1/2+y,z
1/2-x,-y,1/2+z
1/2+x,1/2-y,-z
1/2-x,y,1/2-z
1/2-x,1/2-y,-z
1/2+x,y,1/2-z
1/2-x,1/2+y,z
1/2+x,-y,1/2+z
loop_
_atom_site_type_symbol
_atom_site_label
_atom_site_fract_x
_atom_site_fract_y
_atom_site_fract_z
Si Si1 0.656775 0.520930 0.209905
Si Si2 0.644414 0.765958 0.477241
Si Si3 0.000000 0.135877 0.205561
Si Si4 0.398225 0.870840 0.150032
O O1 0.750000 0.559969 0.250000
O O2 0.575548 0.572266 0.252818
O O3 0.654779 0.446336 0.330131
O O4 0.650070 0.500000 0.000000
O O5 0.750000 0.750000 0.500000
O O6 0.579772 0.812116 0.609094
O O7 0.601081 0.683904 0.480287
O O8 0.637867 0.814832 0.299654
O O9 0.500000 0.890011 0.193740
#
# Coordination Sequence:
#
# PCOD9482263 Si02
#       4
#    16  16   8  16
#     4  12  25  48  77 107 148 199 253 303 381 452
#     4  12  25  44  74 107 147 193 249 304 377 445
#     4  12  25  50  75 106 154 203 237 317 387 446
#     4  12  23  48  72 107 147 196 243 313 372 451
#
# _framework density 27.571636999999999
#
# number of rings (size 3 to 8) (size 9 to 14) (size 15 to 20)
#    0.000    0.000    7.143    3.000    0.000    2.286 
#    0.000    0.714    0.000    0.000    0.000    0.000 
#    0.000    0.000    0.000    0.000    0.000    0.000 
#
# Total GULP energy -155954.383575 kJ/mol
# GULP energy per Si atom -5569.799413 kJ/mol
# Density = 2.750888 g / cm^3
# Si number density = 27.571637 Si / 1000 Ang^3
#
#
#
# Elastic Constant Matrix: (Units=GPa)
#
#
# Indices 1 2 3 4 5 6 
#
# 1 218.2857 48.8257 -37.3796 0.0000 0.0000 0.0000
# 2 48.8257 183.0965 40.2595 0.0000 0.0000 0.0000
# 3 -37.3796 40.2595 82.5165 0.0000 0.0000 0.0000
# 4 0.0000 0.0000 0.0000 46.8837 0.0000 0.0000
# 5 0.0000 0.0000 0.0000 0.0000 -9.5509 0.0000
# 6 0.0000 0.0000 0.0000 0.0000 0.0000 5.4413
#
#
#
# Elastic Compliance Matrix: (Units=1/GPa)
#
#
# Indices 1 2 3 4 5 6 
#
# 1 0.005752 -0.002360 0.003757 0.000000 0.000000 0.000000
# 2 -0.002360 0.007086 -0.004527 0.000000 0.000000 0.000000
# 3 0.003757 -0.004527 0.016029 0.000000 0.000000 0.000000
# 4 0.000000 0.000000 0.000000 0.021329 0.000000 0.000000
# 5 0.000000 0.000000 0.000000 0.000000 -0.104702 0.000000
# 6 0.000000 0.000000 0.000000 0.000000 0.000000 0.183781
#
#
# Mechanical properties :
#
#
# Convention : Reuss Voigt Hill
#
# Bulk Modulus (GPa) = 44.22929 65.25668 54.74298
# Shear Modulus (GPa) = 34.94770 37.36769 36.15770
#
# Velocity S-wave (km/s) = 3.56409 3.68543 3.62527
# Velocity P-wave (km/s) = 5.74573 6.46755 6.11730
#
# Compressibility (1/GPa) = 0.02260945
#
# Stress axis : x y z
#
# Youngs Moduli (GPa) = 173.83786 141.11785 62.38566
#
# Poissons Ratio (x) = 0.33306 -0.23441
# Poissons Ratio (y) = 0.41029 0.28239
# Poissons Ratio (z) = -0.65317 0.63877
#
# Static dielectric constant tensor:
#      x y z
#    x 1.818640 0.000000 0.000000 
#    y 0.000000 2.079900 0.000000 
#    z 0.000000 0.000000 2.676460 
# 
# From -- ./inp_files/5330.got.cif
#   From: 2010.05.17/outbox.cif.g08.bks.cpg/sg64_3_cif.got.tgz:5330.got - 2010.06.03 16:29:19.
