data_PCOD9482562
_publ_section_title
;
Structure prediction by ZEFSAII (Michael W. Deem and Ramdas Pophale) SiO2 
 PCOD9482562
Probable space group: C M M M
;
_chemical_formula_sum "Si O2"
_cell_formula_units_Z 104
_cell_length_a 28.084408
_cell_length_b 8.802052
_cell_length_c 27.611720
_cell_angle_alpha 90.000000
_cell_angle_beta 90.000000
_cell_angle_gamma 90.000000
_cell_volume 6825.628770
_symmetry_space_group_name_H-M "C M M M"
_symmetry_group_IT_number 65
_symmetry_cell_setting 'orthorhombic'
loop_
_space_group_symop_operation_xyz
x,y,z
-x,-y,z
x,-y,-z
-x,y,-z
-x,-y,-z
x,y,-z
-x,y,z
x,-y,z
1/2+x,1/2+y,z
1/2-x,1/2-y,z
1/2+x,1/2-y,-z
1/2-x,1/2+y,-z
1/2-x,1/2-y,-z
1/2+x,1/2+y,-z
1/2-x,1/2+y,z
1/2+x,1/2-y,z
loop_
_atom_site_type_symbol
_atom_site_label
_atom_site_fract_x
_atom_site_fract_y
_atom_site_fract_z
Si Si1 0.696962 0.681057 0.794754
Si Si2 0.605639 0.318017 0.444931
Si Si3 0.303397 0.317904 0.097807
Si Si4 0.198307 0.681915 0.602361
Si Si5 0.553842 0.183357 0.646146
Si Si6 0.803911 0.681629 0.000000
Si Si7 0.853102 0.317944 0.297296
O O1 0.701428 0.500000 0.791691
O O2 0.750000 0.750000 0.790172
O O3 0.676927 0.717105 0.848630
O O4 0.664777 0.741604 0.751455
O O5 0.592925 0.277576 0.500000
O O6 0.607002 0.500000 0.440774
O O7 0.657483 0.251600 0.431553
O O8 0.569670 0.251481 0.405265
O O9 0.301255 0.500000 0.091576
O O10 0.250000 0.250000 0.099981
O O11 0.326145 0.243260 0.050053
O O12 0.198703 0.500000 0.597255
O O13 0.250000 0.750000 0.592686
O O14 0.181834 0.717928 0.657526
O O15 0.500000 0.227057 0.658638
O O16 0.594253 0.228912 0.684818
O O17 0.556211 0.000000 0.642396
O O18 0.750000 0.750000 0.000000
O O19 0.801611 0.500000 0.000000
O O20 0.852579 0.500000 0.291069
#
# Coordination Sequence:
#
# PCOD9482562 Si02
#       7
#    16  16  16  16  16   8  16
#     4  10  19  28  41  61  86 117 150 182 216 254
#     4  10  21  35  50  70  94 117 143 176 213 254
#     4   9  16  25  35  50  74 106 144 182 216 249
#     4  10  20  33  49  68  90 119 151 180 214 255
#     4   9  19  36  55  72  89 112 142 174 214 264
#     4  10  16  22  34  50  70 102 143 184 221 252
#     4   9  18  31  47  66  87 111 140 176 214 254
#
# _framework density 15.236691
#
# number of rings (size 3 to 8) (size 9 to 14) (size 15 to 20)
#    0.000    2.462    0.000    4.846    0.000    8.308 
#    0.000    1.538    0.000    0.000    0.000    0.000 
#    0.000    0.000    0.000    0.692    0.000   14.077 
#
# Total GULP energy -289820.472161 kJ/mol
# GULP energy per Si atom -5573.470618 kJ/mol
# Density = 1.520201 g / cm^3
# Si number density = 15.236691 Si / 1000 Ang^3
#
#
#
# Elastic Constant Matrix: (Units=GPa)
#
#
# Indices 1 2 3 4 5 6 
#
# 1 64.6490 15.9577 31.9987 0.0000 0.0000 0.0000
# 2 15.9577 41.9808 40.2881 0.0000 0.0000 0.0000
# 3 31.9987 40.2881 129.1542 0.0000 0.0000 0.0000
# 4 0.0000 0.0000 0.0000 25.9639 0.0000 0.0000
# 5 0.0000 0.0000 0.0000 0.0000 9.0750 0.0000
# 6 0.0000 0.0000 0.0000 0.0000 0.0000 16.7670
#
#
#
# Elastic Compliance Matrix: (Units=1/GPa)
#
#
# Indices 1 2 3 4 5 6 
#
# 1 0.018016 -0.003660 -0.003322 0.000000 0.000000 0.000000
# 2 -0.003660 0.034742 -0.009930 0.000000 0.000000 0.000000
# 3 -0.003322 -0.009930 0.011663 0.000000 0.000000 0.000000
# 4 0.000000 0.000000 0.000000 0.038515 0.000000 0.000000
# 5 0.000000 0.000000 0.000000 0.000000 0.110193 0.000000
# 6 0.000000 0.000000 0.000000 0.000000 0.000000 0.059641
#
#
# Mechanical properties :
#
#
# Convention : Reuss Voigt Hill
#
# Bulk Modulus (GPa) = 32.68410 45.80814 39.24612
# Shear Modulus (GPa) = 15.78317 20.19715 17.99016
#
# Velocity S-wave (km/s) = 3.22198 3.64477 3.43988
# Velocity P-wave (km/s) = 5.94466 6.91680 6.44908
#
# Compressibility (1/GPa) = 0.03059592
#
# Stress axis : x y z
#
# Youngs Moduli (GPa) = 55.50696 28.78380 85.73885
#
# Poissons Ratio (x) = 0.10536 0.28480
# Poissons Ratio (y) = 0.20318 0.85142
# Poissons Ratio (z) = 0.18438 0.28583
#
# Static dielectric constant tensor:
#      x y z
#    x 1.481500 0.000000 0.000000 
#    y 0.000000 1.507520 0.000000 
#    z 0.000000 0.000000 1.542250 
# 
# From -- ./inp_files/76037.got.cif
#   From: 2010.05.17/outbox.cif.g08.bks.cpg/sg65_39_cif.got.tgz:76037.got - 2010.06.03 17:01:31.
