data_PCOD9482623
_publ_section_title
;
Structure prediction by ZEFSAII (Michael W. Deem and Ramdas Pophale) SiO2 
 PCOD9482623
Probable space group: C M M M
;
_chemical_formula_sum "Si O2"
_cell_formula_units_Z 104
_cell_length_a 8.630502
_cell_length_b 28.835234
_cell_length_c 24.308074
_cell_angle_alpha 90.000000
_cell_angle_beta 90.000000
_cell_angle_gamma 90.000000
_cell_volume 6049.369153
_symmetry_space_group_name_H-M "C M M M"
_symmetry_group_IT_number 65
_symmetry_cell_setting 'orthorhombic'
loop_
_space_group_symop_operation_xyz
x,y,z
-x,-y,z
x,-y,-z
-x,y,-z
-x,-y,-z
x,y,-z
-x,y,z
x,-y,z
1/2+x,1/2+y,z
1/2-x,1/2-y,z
1/2+x,1/2-y,-z
1/2-x,1/2+y,-z
1/2-x,1/2-y,-z
1/2+x,1/2+y,-z
1/2-x,1/2+y,z
1/2+x,1/2-y,z
loop_
_atom_site_type_symbol
_atom_site_label
_atom_site_fract_x
_atom_site_fract_y
_atom_site_fract_z
Si Si1 0.180402 0.351794 0.328836
Si Si2 0.815340 0.697169 0.113236
Si Si3 0.814992 0.802865 0.000000
Si Si4 0.327069 0.944402 0.560499
Si Si5 0.817353 0.198498 0.225350
Si Si6 0.676812 0.553614 0.330272
Si Si7 0.813246 0.197571 0.435720
O O1 0.276413 0.324871 0.282747
O O2 0.209882 0.405568 0.312584
O O3 0.240260 0.336309 0.389524
O O4 0.000000 0.340230 0.325066
O O5 0.750000 0.750000 0.114657
O O6 0.747233 0.675908 0.057046
O O7 0.760268 0.675878 0.171086
O O8 0.000000 0.698691 0.110297
O O9 0.750000 0.750000 0.000000
O O10 0.000000 0.801436 0.000000
O O11 0.295574 0.925603 0.500000
O O12 0.500000 0.927729 0.578599
O O13 0.191773 0.938970 0.603956
O O14 0.341393 0.000000 0.556162
O O15 0.750000 0.250000 0.229280
O O16 0.000000 0.200127 0.216402
O O17 0.500000 0.560824 0.312326
O O18 0.720700 0.500000 0.318681
O O19 0.775466 0.186344 0.500000
O O20 0.750000 0.250000 0.425752
O O21 0.000000 0.197205 0.430174
#
# Coordination Sequence:
#
# PCOD9482623 Si02
#       7
#    16  16   8  16  16  16  16
#     4  12  24  37  54  74  96 125 161 199 243 295
#     4  10  17  27  42  64  93 127 166 204 241 279
#     4  10  16  24  38  60  90 128 169 204 239 276
#     4   8  14  26  44  64  85 109 136 167 208 262
#     4  11  21  35  52  72  99 129 164 204 245 288
#     4  10  21  36  52  70  92 118 150 190 237 288
#     4  10  21  38  58  78 100 125 156 197 245 295
#
# _framework density 17.191875
#
# number of rings (size 3 to 8) (size 9 to 14) (size 15 to 20)
#    0.000    1.846    0.000    8.538    0.000    2.769 
#    0.000    1.538    0.000    0.000    0.000    0.000 
#    0.000    0.000    0.000    0.692    0.000   12.846 
#
# Total GULP energy -289746.120570 kJ/mol
# GULP energy per Si atom -5572.040780 kJ/mol
# Density = 1.715275 g / cm^3
# Si number density = 17.191875 Si / 1000 Ang^3
#
#
#
# Elastic Constant Matrix: (Units=GPa)
#
#
# Indices 1 2 3 4 5 6 
#
# 1 113.3703 12.0266 24.5423 0.0000 0.0000 0.0000
# 2 12.0266 53.1179 12.8393 0.0000 0.0000 0.0000
# 3 24.5423 12.8393 80.7092 0.0000 0.0000 0.0000
# 4 0.0000 0.0000 0.0000 0.0851 0.0000 0.0000
# 5 0.0000 0.0000 0.0000 0.0000 30.9191 0.0000
# 6 0.0000 0.0000 0.0000 0.0000 0.0000 18.3616
#
#
#
# Elastic Compliance Matrix: (Units=1/GPa)
#
#
# Indices 1 2 3 4 5 6 
#
# 1 0.009559 -0.001520 -0.002665 0.000000 0.000000 0.000000
# 2 -0.001520 0.019821 -0.002691 0.000000 0.000000 0.000000
# 3 -0.002665 -0.002691 0.013629 0.000000 0.000000 0.000000
# 4 0.000000 0.000000 0.000000 11.747065 0.000000 0.000000
# 5 0.000000 0.000000 0.000000 0.000000 0.032342 0.000000
# 6 0.000000 0.000000 0.000000 0.000000 0.000000 0.054461
#
#
# Mechanical properties :
#
#
# Convention : Reuss Voigt Hill
#
# Bulk Modulus (GPa) = 34.18056 38.44598 36.31327
# Shear Modulus (GPa) = 0.42015 23.05911 11.73963
#
# Velocity S-wave (km/s) = 0.49490 3.66632 2.61599
# Velocity P-wave (km/s) = 4.50017 6.35090 5.50389
#
# Compressibility (1/GPa) = 0.02925639
#
# Stress axis : x y z
#
# Youngs Moduli (GPa) = 104.61572 50.45246 73.37530
#
# Poissons Ratio (x) = 0.07669 0.19553
# Poissons Ratio (y) = 0.15903 0.19744
# Poissons Ratio (z) = 0.27879 0.13576
#
# Static dielectric constant tensor:
#      x y z
#    x 1.597960 0.000000 0.000000 
#    y 0.000000 1.611660 0.000000 
#    z 0.000000 0.000000 1.656180 
# 
# From -- ./inp_files/68553.got.cif
#   From: 2010.05.17/outbox.cif.g08.bks.cpg/sg65_35_cif.got.tgz:68553.got - 2010.06.03 17:01:31.
