data_PCOD9482800
_publ_section_title
;
Structure prediction by ZEFSAII (Michael W. Deem and Ramdas Pophale) SiO2 
 PCOD9482800
Probable space group: C M M M
;
_chemical_formula_sum "Si O2"
_cell_formula_units_Z 80
_cell_length_a 24.500312
_cell_length_b 26.971180
_cell_length_c 8.732360
_cell_angle_alpha 90.000000
_cell_angle_beta 90.000000
_cell_angle_gamma 90.000000
_cell_volume 5770.363791
_symmetry_space_group_name_H-M "C M M M"
_symmetry_group_IT_number 65
_symmetry_cell_setting 'orthorhombic'
loop_
_space_group_symop_operation_xyz
x,y,z
-x,-y,z
x,-y,-z
-x,y,-z
-x,-y,-z
x,y,-z
-x,y,z
x,-y,z
1/2+x,1/2+y,z
1/2-x,1/2-y,z
1/2+x,1/2-y,-z
1/2-x,1/2+y,-z
1/2-x,1/2-y,-z
1/2+x,1/2+y,-z
1/2-x,1/2+y,z
1/2+x,1/2-y,z
loop_
_atom_site_type_symbol
_atom_site_label
_atom_site_fract_x
_atom_site_fract_y
_atom_site_fract_z
Si Si1 0.000000 0.781284 0.686275
Si Si2 0.000000 0.896364 0.313807
Si Si3 0.316232 0.354508 0.815748
Si Si4 0.615568 0.557287 0.314753
Si Si5 0.212467 0.700306 0.822731
Si Si6 0.380194 0.259935 0.317041
O O1 0.943097 0.756686 0.734395
O O2 0.000000 0.781433 0.500000
O O3 0.000000 0.838998 0.735201
O O4 0.944572 0.923669 0.265947
O O5 0.000000 0.896511 0.500000
O O6 0.340071 0.405806 0.755368
O O7 0.253989 0.342028 0.766540
O O8 0.354326 0.310114 0.752788
O O9 0.317243 0.352566 0.000000
O O10 0.617781 0.560834 0.500000
O O11 0.623017 0.500000 0.272038
O O12 0.250000 0.750000 0.818114
O O13 0.158218 0.714483 0.732288
O O14 0.198489 0.691240 0.000000
O O15 0.378786 0.264941 0.500000
#
# Coordination Sequence:
#
# PCOD9482800 Si02
#       6
#     8   8  16  16  16  16
#     4   9  16  25  40  60  83 107 132 167 204 239
#     4   9  15  28  43  56  78 106 136 173 213 241
#     4  10  19  30  42  56  79 106 131 166 209 247
#     4  10  19  30  45  61  76 101 140 179 210 241
#     4   8  16  29  41  56  78 102 128 161 203 245
#     4  10  17  27  43  61  79 102 134 167 199 238
#
# _framework density 13.863944
#
# number of rings (size 3 to 8) (size 9 to 14) (size 15 to 20)
#    0.000    2.600    2.000    2.700    0.000    6.000 
#    0.000    3.500    0.000    1.200    0.000    0.000 
#    0.000    0.000    0.000    0.900    0.000   17.600 
#
# Total GULP energy -222792.038769 kJ/mol
# GULP energy per Si atom -5569.800969 kJ/mol
# Density = 1.383239 g / cm^3
# Si number density = 13.863944 Si / 1000 Ang^3
#
#
#
# Elastic Constant Matrix: (Units=GPa)
#
#
# Indices 1 2 3 4 5 6 
#
# 1 128.8793 67.5742 32.5489 0.0000 0.0000 0.0000
# 2 67.5742 70.6693 19.8558 0.0000 0.0000 0.0000
# 3 32.5489 19.8558 23.3837 0.0000 0.0000 0.0000
# 4 0.0000 0.0000 0.0000 15.3160 0.0000 0.0000
# 5 0.0000 0.0000 0.0000 0.0000 54.0126 0.0000
# 6 0.0000 0.0000 0.0000 0.0000 0.0000 17.3124
#
#
#
# Elastic Compliance Matrix: (Units=1/GPa)
#
#
# Indices 1 2 3 4 5 6 
#
# 1 0.018541 -0.013761 -0.014124 0.000000 0.000000 0.000000
# 2 -0.013761 0.028797 -0.005298 0.000000 0.000000 0.000000
# 3 -0.014124 -0.005298 0.066923 0.000000 0.000000 0.000000
# 4 0.000000 0.000000 0.000000 0.065291 0.000000 0.000000
# 5 0.000000 0.000000 0.000000 0.000000 0.018514 0.000000
# 6 0.000000 0.000000 0.000000 0.000000 0.000000 0.057762
#
#
# Mechanical properties :
#
#
# Convention : Reuss Voigt Hill
#
# Bulk Modulus (GPa) = 20.87851 51.43225 36.15538
# Shear Modulus (GPa) = 14.78587 24.19175 19.48881
#
# Velocity S-wave (km/s) = 3.26927 4.18178 3.75336
# Velocity P-wave (km/s) = 5.41693 7.77784 6.70216
#
# Compressibility (1/GPa) = 0.04789614
#
# Stress axis : x y z
#
# Youngs Moduli (GPa) = 53.93334 34.72546 14.94251
#
# Poissons Ratio (x) = 0.47786 0.21105
# Poissons Ratio (y) = 0.74218 0.07917
# Poissons Ratio (z) = 0.76174 0.18398
#
# Static dielectric constant tensor:
#      x y z
#    x 1.474420 0.000000 0.000000 
#    y 0.000000 1.436820 0.000000 
#    z 0.000000 0.000000 1.472000 
# 
# From -- ./inp_files/16260.got.cif
#   From: 2010.05.17/outbox.cif.g08.bks.cpg/sg65_9_cif.got.tgz:16260.got - 2010.06.03 17:01:31.
