data_PCOD9482323
_publ_section_title
;
Structure prediction by ZEFSAII (Michael W. Deem and Ramdas Pophale) SiO2 
 PCOD9482323
Probable space group: C M C A
;
_chemical_formula_sum "Si O2"
_cell_formula_units_Z 112
_cell_length_a 13.868196
_cell_length_b 31.480049
_cell_length_c 11.516010
_cell_angle_alpha 90.000000
_cell_angle_beta 90.000000
_cell_angle_gamma 90.000000
_cell_volume 5027.561640
_symmetry_space_group_name_H-M "C M C A"
_symmetry_group_IT_number 64
_symmetry_cell_setting 'orthorhombic'
loop_
_space_group_symop_operation_xyz
x,y,z
-x,1/2-y,1/2+z
x,-y,-z
-x,1/2+y,1/2-z
-x,-y,-z
x,1/2+y,1/2-z
-x,y,z
x,1/2-y,1/2+z
1/2+x,1/2+y,z
1/2-x,-y,1/2+z
1/2+x,1/2-y,-z
1/2-x,y,1/2-z
1/2-x,1/2-y,-z
1/2+x,y,1/2-z
1/2-x,1/2+y,z
1/2+x,-y,1/2+z
loop_
_atom_site_type_symbol
_atom_site_label
_atom_site_fract_x
_atom_site_fract_y
_atom_site_fract_z
Si Si1 0.882074 0.566462 0.445239
Si Si2 0.383475 0.371167 0.552136
Si Si3 0.384613 0.146072 0.314414
Si Si4 0.617652 0.018098 0.675920
Si Si5 0.382299 0.541950 0.568620
Si Si6 0.649244 0.224706 0.006359
Si Si7 0.644578 0.758026 0.732953
O O1 0.849482 0.613405 0.411183
O O2 0.852741 0.530109 0.353374
O O3 0.853831 0.548541 0.570182
O O4 0.000000 0.567760 0.442705
O O5 0.500000 0.366913 0.537245
O O6 0.366749 0.375199 0.689717
O O7 0.351940 0.413589 0.486851
O O8 0.340932 0.326115 0.512649
O O9 0.500000 0.151719 0.326727
O O10 0.343992 0.193191 0.309133
O O11 0.500000 0.017365 0.676001
O O12 0.648094 0.035367 0.799403
O O13 0.351091 0.500000 0.500000
O O14 0.500000 0.542266 0.564897
O O15 0.601385 0.235684 0.881433
O O16 0.750000 0.250000 0.000000
O O17 0.605516 0.238289 0.133744
O O18 0.750000 0.738036 0.750000
#
# Coordination Sequence:
#
# PCOD9482323 Si02
#       7
#    16  16  16  16  16  16  16
#     4   8  13  22  36  56  87 124 156 187 223 263
#     4   9  17  28  44  68  98 127 156 197 242 281
#     4   9  16  27  44  66  92 119 152 193 237 281
#     4   8  13  21  34  54  88 128 157 185 219 265
#     4   9  15  23  37  60  94 132 163 187 223 278
#     4   9  18  34  52  68  91 121 162 200 242 287
#     4   9  18  33  51  68  89 115 158 197 236 290
#
# _framework density 22.277201000000002
#
# number of rings (size 3 to 8) (size 9 to 14) (size 15 to 20)
#    0.000    3.286    0.000    1.714    0.000    4.000 
#    2.571    0.000    0.000    0.000    0.000    0.000 
#   64.286    7.143    0.000    0.000    0.000    0.286 
#
# Total GULP energy -312475.957568 kJ/mol
# GULP energy per Si atom -5579.927814 kJ/mol
# Density = 2.222650 g / cm^3
# Si number density = 22.277201 Si / 1000 Ang^3
#
#
#
# Elastic Constant Matrix: (Units=GPa)
#
#
# Indices 1 2 3 4 5 6 
#
# 1 81.9821 19.7422 12.7318 0.0000 0.0000 0.0000
# 2 19.7422 134.2111 83.3973 0.0000 0.0000 0.0000
# 3 12.7318 83.3973 160.8105 0.0000 0.0000 0.0000
# 4 0.0000 0.0000 0.0000 42.1969 0.0000 0.0000
# 5 0.0000 0.0000 0.0000 0.0000 7.9384 0.0000
# 6 0.0000 0.0000 0.0000 0.0000 0.0000 24.5950
#
#
#
# Elastic Compliance Matrix: (Units=1/GPa)
#
#
# Indices 1 2 3 4 5 6 
#
# 1 0.012646 -0.001827 -0.000054 0.000000 0.000000 0.000000
# 2 -0.001827 0.011258 -0.005694 0.000000 0.000000 0.000000
# 3 -0.000054 -0.005694 0.009176 0.000000 0.000000 0.000000
# 4 0.000000 0.000000 0.000000 0.023698 0.000000 0.000000
# 5 0.000000 0.000000 0.000000 0.000000 0.125970 0.000000
# 6 0.000000 0.000000 0.000000 0.000000 0.000000 0.040659
#
#
# Mechanical properties :
#
#
# Convention : Reuss Voigt Hill
#
# Bulk Modulus (GPa) = 55.77028 67.63847 61.70438
# Shear Modulus (GPa) = 20.44724 32.35488 26.40106
#
# Velocity S-wave (km/s) = 3.03290 3.81514 3.44629
# Velocity P-wave (km/s) = 6.11176 7.05940 6.60261
#
# Compressibility (1/GPa) = 0.01793070
#
# Stress axis : x y z
#
# Youngs Moduli (GPa) = 79.07611 88.82869 108.98564
#
# Poissons Ratio (x) = 0.16227 0.00587
# Poissons Ratio (y) = 0.14445 0.62053
# Poissons Ratio (z) = 0.00426 0.50576
#
# Static dielectric constant tensor:
#      x y z
#    x 1.935640 0.000000 0.000000 
#    y 0.000000 1.747340 0.000000 
#    z 0.000000 0.000000 1.822530 
# 
# From -- ./inp_files/17657.got.cif
#   From: 2010.05.17/outbox.cif.g08.bks.cpg/sg64_9_cif.got.tgz:17657.got - 2010.06.03 16:29:19.
