data_PCOD9482253
_publ_section_title
;
Structure prediction by ZEFSAII (Michael W. Deem and Ramdas Pophale) SiO2 
 PCOD9482253
Probable space group: C M C A
;
_chemical_formula_sum "Si O2"
_cell_formula_units_Z 72
_cell_length_a 19.554270
_cell_length_b 21.214510
_cell_length_c 8.647404
_cell_angle_alpha 90.000000
_cell_angle_beta 90.000000
_cell_angle_gamma 90.000000
_cell_volume 3587.239409
_symmetry_space_group_name_H-M "C M C A"
_symmetry_group_IT_number 64
_symmetry_cell_setting 'orthorhombic'
loop_
_space_group_symop_operation_xyz
x,y,z
-x,1/2-y,1/2+z
x,-y,-z
-x,1/2+y,1/2-z
-x,-y,-z
x,1/2+y,1/2-z
-x,y,z
x,1/2-y,1/2+z
1/2+x,1/2+y,z
1/2-x,-y,1/2+z
1/2+x,1/2-y,-z
1/2-x,y,1/2-z
1/2-x,1/2-y,-z
1/2+x,y,1/2-z
1/2-x,1/2+y,z
1/2+x,-y,1/2+z
loop_
_atom_site_type_symbol
_atom_site_label
_atom_site_fract_x
_atom_site_fract_y
_atom_site_fract_z
Si Si1 0.500000 0.231932 0.805329
Si Si2 0.750000 0.371615 0.250000
Si Si3 0.140065 0.205884 0.546630
Si Si4 0.137008 0.926128 0.017547
Si Si5 0.000000 0.155314 0.986694
Si Si6 0.327600 0.671830 0.208952
O O1 0.432306 0.198309 0.870514
O O2 0.500000 0.215698 0.625571
O O3 0.500000 0.306464 0.850002
O O4 0.798587 0.330390 0.135393
O O5 0.804252 0.410277 0.355632
O O6 0.154685 0.280074 0.570929
O O7 0.134714 0.187708 0.368027
O O8 0.066223 0.887924 0.042483
O O9 0.162556 0.897630 0.854491
O O10 0.125173 0.000000 0.000000
O O11 0.250000 0.683610 0.250000
#
# Coordination Sequence:
#
# PCOD9482253 Si02
#       6
#     8   8  16  16   8  16
#     4  12  24  40  69 108 134 170 217 283 357 416
#     4  12  24  44  68  98 134 182 230 288 346 398
#     4  12  23  39  69 101 138 164 220 293 356 403
#     4  12  28  46  69  95 139 192 236 276 330 413
#     4  12  25  46  71 106 138 177 224 288 353 410
#     4  12  23  40  67 101 130 172 224 288 351 403
#
# _framework density 20.071145000000001
#
# number of rings (size 3 to 8) (size 9 to 14) (size 15 to 20)
#    0.000    0.000    7.778    3.667    1.556    0.000 
#    0.000    0.000    0.000    1.333    0.000    0.000 
#    0.000    0.000    0.000    0.000    0.000    0.000 
#
# Total GULP energy -201173.884288 kJ/mol
# GULP energy per Si atom -5588.163452 kJ/mol
# Density = 2.002546 g / cm^3
# Si number density = 20.071145 Si / 1000 Ang^3
#
#
#
# Elastic Constant Matrix: (Units=GPa)
#
#
# Indices 1 2 3 4 5 6 
#
# 1 145.5567 41.4909 24.4453 0.0000 0.0000 0.0000
# 2 41.4909 144.5561 57.7113 0.0000 0.0000 0.0000
# 3 24.4453 57.7113 99.1040 0.0000 0.0000 0.0000
# 4 0.0000 0.0000 0.0000 24.2189 0.0000 0.0000
# 5 0.0000 0.0000 0.0000 0.0000 28.9684 0.0000
# 6 0.0000 0.0000 0.0000 0.0000 0.0000 20.8085
#
#
#
# Elastic Compliance Matrix: (Units=1/GPa)
#
#
# Indices 1 2 3 4 5 6 
#
# 1 0.007528 -0.001849 -0.000780 0.000000 0.000000 0.000000
# 2 -0.001849 0.009467 -0.005057 0.000000 0.000000 0.000000
# 3 -0.000780 -0.005057 0.013228 0.000000 0.000000 0.000000
# 4 0.000000 0.000000 0.000000 0.041290 0.000000 0.000000
# 5 0.000000 0.000000 0.000000 0.000000 0.034520 0.000000
# 6 0.000000 0.000000 0.000000 0.000000 0.000000 0.048057
#
#
# Mechanical properties :
#
#
# Convention : Reuss Voigt Hill
#
# Bulk Modulus (GPa) = 67.33720 70.72353 69.03036
# Shear Modulus (GPa) = 28.66737 32.50377 30.58557
#
# Velocity S-wave (km/s) = 3.78337 4.02858 3.90790
# Velocity P-wave (km/s) = 7.25998 7.54667 7.40471
#
# Compressibility (1/GPa) = 0.01485063
#
# Stress axis : x y z
#
# Youngs Moduli (GPa) = 132.83130 105.62486 75.59910
#
# Poissons Ratio (x) = 0.19534 0.05897
# Poissons Ratio (y) = 0.24566 0.38231
# Poissons Ratio (z) = 0.10361 0.53415
#
# Static dielectric constant tensor:
#      x y z
#    x 1.781060 0.000000 0.000000 
#    y 0.000000 1.666830 0.000000 
#    z 0.000000 0.000000 1.770050 
# 
# From -- ./inp_files/8054.got.cif
#   From: 2010.05.17/outbox.cif.g08.bks.cpg/sg64_5_cif.got.tgz:8054.got - 2010.06.03 16:29:19.
