data_PCOD9482184
_publ_section_title
;
Structure prediction by ZEFSAII (Michael W. Deem and Ramdas Pophale) SiO2 
 PCOD9482184
Probable space group: C M C A
;
_chemical_formula_sum "Si O2"
_cell_formula_units_Z 32
_cell_length_a 17.132090
_cell_length_b 13.592618
_cell_length_c 4.967937
_cell_angle_alpha 90.000000
_cell_angle_beta 90.000000
_cell_angle_gamma 90.000000
_cell_volume 1156.883265
_symmetry_space_group_name_H-M "C M C A"
_symmetry_group_IT_number 64
_symmetry_cell_setting 'orthorhombic'
loop_
_space_group_symop_operation_xyz
x,y,z
-x,1/2-y,1/2+z
x,-y,-z
-x,1/2+y,1/2-z
-x,-y,-z
x,1/2+y,1/2-z
-x,y,z
x,1/2-y,1/2+z
1/2+x,1/2+y,z
1/2-x,-y,1/2+z
1/2+x,1/2-y,-z
1/2-x,y,1/2-z
1/2-x,1/2-y,-z
1/2+x,y,1/2-z
1/2-x,1/2+y,z
1/2+x,-y,1/2+z
loop_
_atom_site_type_symbol
_atom_site_label
_atom_site_fract_x
_atom_site_fract_y
_atom_site_fract_z
Si Si1 0.911976 0.885444 0.926862
Si Si2 0.811506 0.837904 0.412933
O O1 0.880700 0.827134 0.190689
O O2 0.000000 0.854719 0.856860
O O3 0.853025 0.876484 0.677559
O O4 0.914839 0.000000 0.000000
O O5 0.750000 0.906267 0.250000
O O6 0.750000 0.750000 0.500000
#
# Coordination Sequence:
#
# PCOD9482184 Si02
#       2
#    16  16
#     4  11  25  48  79 112 148 194 251 315 379 445
#     4  12  25  47  72 108 156 198 249 304 374 457
#
# _framework density 27.660525
#
# number of rings (size 3 to 8) (size 9 to 14) (size 15 to 20)
#    0.000    0.500    0.000    9.000    0.000    8.000 
#    0.000   27.500    0.000    0.000    0.000    0.000 
#    0.000    8.000    0.000    0.000    0.000    0.000 
#
# Total GULP energy -89395.779980 kJ/mol
# GULP energy per Si atom -5587.236249 kJ/mol
# Density = 2.759757 g / cm^3
# Si number density = 27.660525 Si / 1000 Ang^3
#
#
#
# Elastic Constant Matrix: (Units=GPa)
#
#
# Indices 1 2 3 4 5 6 
#
# 1 260.3224 68.6139 138.9743 0.0000 0.0000 0.0000
# 2 68.6139 98.3545 33.3769 0.0000 0.0000 0.0000
# 3 138.9743 33.3769 300.8093 0.0000 0.0000 0.0000
# 4 0.0000 0.0000 0.0000 32.3619 0.0000 0.0000
# 5 0.0000 0.0000 0.0000 0.0000 65.2973 0.0000
# 6 0.0000 0.0000 0.0000 0.0000 0.0000 50.4056
#
#
#
# Elastic Compliance Matrix: (Units=1/GPa)
#
#
# Indices 1 2 3 4 5 6 
#
# 1 0.006016 -0.003381 -0.002404 0.000000 0.000000 0.000000
# 2 -0.003381 0.012465 0.000179 0.000000 0.000000 0.000000
# 3 -0.002404 0.000179 0.004415 0.000000 0.000000 0.000000
# 4 0.000000 0.000000 0.000000 0.030900 0.000000 0.000000
# 5 0.000000 0.000000 0.000000 0.000000 0.015315 0.000000
# 6 0.000000 0.000000 0.000000 0.000000 0.000000 0.019839
#
#
# Mechanical properties :
#
#
# Convention : Reuss Voigt Hill
#
# Bulk Modulus (GPa) = 85.58816 126.82404 106.20610
# Shear Modulus (GPa) = 48.05007 57.51438 52.78223
#
# Velocity S-wave (km/s) = 4.17242 4.56488 4.37305
# Velocity P-wave (km/s) = 7.36353 8.58684 7.99861
#
# Compressibility (1/GPa) = 0.01168386
#
# Stress axis : x y z
#
# Youngs Moduli (GPa) = 166.22129 80.22303 226.48540
#
# Poissons Ratio (x) = 0.27124 0.54454
# Poissons Ratio (y) = 0.56200 -0.04053
# Poissons Ratio (z) = 0.39964 -0.01435
#
# Static dielectric constant tensor:
#      x y z
#    x 2.157700 0.000000 0.000000 
#    y 0.000000 2.529180 0.000000 
#    z 0.000000 0.000000 2.597050 
# 
# From -- ./inp_files/4748.got.cif
#   From: 2010.05.17/outbox.cif.g08.bks.cpg/sg64_3_cif.got.tgz:4748.got - 2010.06.03 16:29:19.
