data_PCOD9482922
_publ_section_title
;
Structure prediction by ZEFSAII (Michael W. Deem and Ramdas Pophale) SiO2 
 PCOD9482922
Probable space group: C M M M
;
_chemical_formula_sum "Si O2"
_cell_formula_units_Z 80
_cell_length_a 9.533135
_cell_length_b 30.083827
_cell_length_c 16.574386
_cell_angle_alpha 90.000000
_cell_angle_beta 90.000000
_cell_angle_gamma 90.000000
_cell_volume 4753.420936
_symmetry_space_group_name_H-M "C M M M"
_symmetry_group_IT_number 65
_symmetry_cell_setting 'orthorhombic'
loop_
_space_group_symop_operation_xyz
x,y,z
-x,-y,z
x,-y,-z
-x,y,-z
-x,-y,-z
x,y,-z
-x,y,z
x,-y,z
1/2+x,1/2+y,z
1/2-x,1/2-y,z
1/2+x,1/2-y,-z
1/2-x,1/2+y,-z
1/2-x,1/2-y,-z
1/2+x,1/2+y,-z
1/2-x,1/2+y,z
1/2+x,1/2-y,z
loop_
_atom_site_type_symbol
_atom_site_label
_atom_site_fract_x
_atom_site_fract_y
_atom_site_fract_z
Si Si1 0.660130 0.291420 0.823804
Si Si2 0.170031 0.449914 0.173373
Si Si3 0.666288 0.204624 0.594194
Si Si4 0.346138 0.321924 0.000000
Si Si5 0.169094 0.590806 0.000000
Si Si6 0.331980 0.136594 0.265199
O O1 0.500000 0.289988 0.794585
O O2 0.750000 0.250000 0.794603
O O3 0.741520 0.335153 0.797351
O O4 0.659160 0.292612 0.920309
O O5 0.221359 0.500000 0.187596
O O6 0.213558 0.432852 0.083929
O O7 0.204427 0.414411 0.243845
O O8 0.000000 0.451463 0.170868
O O9 0.693930 0.194549 0.500000
O O10 0.500000 0.213577 0.603408
O O11 0.750000 0.250000 0.613748
O O12 0.698817 0.161906 0.650413
O O13 0.500000 0.344763 0.000000
O O14 0.229026 0.359555 0.000000
O O15 0.000000 0.591789 0.000000
O O16 0.500000 0.141368 0.251457
#
# Coordination Sequence:
#
# PCOD9482922 Si02
#       6
#    16  16  16   8   8  16
#     4  11  22  34  48  67  95 129 164 199 238 286
#     4   9  17  29  48  74  98 123 161 206 246 285
#     4   9  18  32  50  73 100 128 158 192 235 289
#     4  10  21  34  46  64  94 129 160 198 242 285
#     4  10  17  29  51  71  91 123 166 208 242 283
#     4  10  19  32  51  73  97 126 160 201 245 286
#
# _framework density 16.829984
#
# number of rings (size 3 to 8) (size 9 to 14) (size 15 to 20)
#    0.000    2.200    2.000    1.800    0.000    4.400 
#    0.000    0.000    0.000    3.600    0.000    4.200 
#    0.000    0.000    0.000    6.800    0.000    7.200 
#
# Total GULP energy -222763.555120 kJ/mol
# GULP energy per Si atom -5569.088878 kJ/mol
# Density = 1.679168 g / cm^3
# Si number density = 16.829984 Si / 1000 Ang^3
#
#
#
# Elastic Constant Matrix: (Units=GPa)
#
#
# Indices 1 2 3 4 5 6 
#
# 1 31.1906 34.5891 25.2631 0.0000 0.0000 0.0000
# 2 34.5891 120.5050 40.7942 0.0000 0.0000 0.0000
# 3 25.2631 40.7942 102.6162 0.0000 0.0000 0.0000
# 4 0.0000 0.0000 0.0000 19.1998 0.0000 0.0000
# 5 0.0000 0.0000 0.0000 0.0000 0.4573 0.0000
# 6 0.0000 0.0000 0.0000 0.0000 0.0000 15.2443
#
#
#
# Elastic Compliance Matrix: (Units=1/GPa)
#
#
# Indices 1 2 3 4 5 6 
#
# 1 0.052100 -0.012263 -0.007952 0.000000 0.000000 0.000000
# 2 -0.012263 0.012475 -0.001940 0.000000 0.000000 0.000000
# 3 -0.007952 -0.001940 0.012474 0.000000 0.000000 0.000000
# 4 0.000000 0.000000 0.000000 0.052084 0.000000 0.000000
# 5 0.000000 0.000000 0.000000 0.000000 2.186641 0.000000
# 6 0.000000 0.000000 0.000000 0.000000 0.000000 0.065598
#
#
# Mechanical properties :
#
#
# Convention : Reuss Voigt Hill
#
# Bulk Modulus (GPa) = 30.54375 50.62272 40.58324
# Shear Modulus (GPa) = 2.05204 17.22464 9.63834
#
# Velocity S-wave (km/s) = 1.10541 3.20261 2.39569
# Velocity P-wave (km/s) = 4.45163 6.61965 5.64078
#
# Compressibility (1/GPa) = 0.03273992
#
# Stress axis : x y z
#
# Youngs Moduli (GPa) = 19.19375 80.15952 80.16637
#
# Poissons Ratio (x) = 0.98298 0.63745
# Poissons Ratio (y) = 0.23537 0.15556
# Poissons Ratio (z) = 0.15262 0.15554
#
# Static dielectric constant tensor:
#      x y z
#    x 1.576500 0.000000 0.000000 
#    y 0.000000 1.575560 0.000000 
#    z 0.000000 0.000000 1.606660 
# 
# From -- ./inp_files/49944.got.cif
#   From: 2010.05.17/outbox.cif.g08.bks.cpg/sg65_25_cif.got.tgz:49944.got - 2010.06.03 17:01:31.
