data_PCOD9482542
_publ_section_title
;
Structure prediction by ZEFSAII (Michael W. Deem and Ramdas Pophale) SiO2 
 PCOD9482542
Probable space group: C M M M
;
_chemical_formula_sum "Si O2"
_cell_formula_units_Z 88
_cell_length_a 19.078783
_cell_length_b 8.488797
_cell_length_c 30.141470
_cell_angle_alpha 90.000000
_cell_angle_beta 90.000000
_cell_angle_gamma 90.000000
_cell_volume 4881.589380
_symmetry_space_group_name_H-M "C M M M"
_symmetry_group_IT_number 65
_symmetry_cell_setting 'orthorhombic'
loop_
_space_group_symop_operation_xyz
x,y,z
-x,-y,z
x,-y,-z
-x,y,-z
-x,-y,-z
x,y,-z
-x,y,z
x,-y,z
1/2+x,1/2+y,z
1/2-x,1/2-y,z
1/2+x,1/2-y,-z
1/2-x,1/2+y,-z
1/2-x,1/2-y,-z
1/2+x,1/2+y,-z
1/2-x,1/2+y,z
1/2+x,1/2-y,z
loop_
_atom_site_type_symbol
_atom_site_label
_atom_site_fract_x
_atom_site_fract_y
_atom_site_fract_z
Si Si1 0.919695 0.809502 0.131057
Si Si2 0.330083 0.309957 0.687745
Si Si3 0.671940 0.811280 0.949324
Si Si4 0.830548 0.189083 0.591907
Si Si5 0.830398 0.686780 0.500000
Si Si6 0.829749 0.190722 0.784699
O O1 0.881646 0.753234 0.086654
O O2 0.876558 0.754658 0.174240
O O3 0.000000 0.756331 0.132681
O O4 0.919123 0.000000 0.131516
O O5 0.329514 0.500000 0.687370
O O6 0.250000 0.250000 0.687874
O O7 0.361488 0.261506 0.639958
O O8 0.358492 0.260176 0.735937
O O9 0.750000 0.750000 0.939023
O O10 0.672442 0.000000 0.947786
O O11 0.655246 0.761896 0.000000
O O12 0.750000 0.250000 0.592758
O O13 0.862727 0.254047 0.546340
O O14 0.829675 0.000000 0.589266
O O15 0.827927 0.500000 0.500000
O O16 0.750000 0.750000 0.500000
O O17 0.750000 0.250000 0.789264
O O18 0.828172 0.000000 0.785462
#
# Coordination Sequence:
#
# PCOD9482542 Si02
#       6
#    16  16  16  16   8  16
#     4  10  21  35  51  73 102 134 164 196 236 282
#     4   8  14  23  36  53  73  99 133 176 219 260
#     4  10  21  37  57  79 102 129 162 200 239 280
#     4   9  14  20  29  42  62  90 126 165 206 252
#     4  10  16  20  26  38  60  92 127 162 203 251
#     4   9  17  30  47  67  90 117 153 193 233 276
#
# _framework density 18.026916
#
# number of rings (size 3 to 8) (size 9 to 14) (size 15 to 20)
#    0.000    2.727    0.000    3.545    0.000    4.727 
#    0.000    1.818    0.000    0.000    0.000    0.000 
#    0.000    0.000    0.000    0.818    0.000   23.091 
#
# Total GULP energy -244972.037778 kJ/mol
# GULP energy per Si atom -5567.546313 kJ/mol
# Density = 1.798589 g / cm^3
# Si number density = 18.026916 Si / 1000 Ang^3
#
#
#
# Elastic Constant Matrix: (Units=GPa)
#
#
# Indices 1 2 3 4 5 6 
#
# 1 56.6483 13.6281 82.9591 0.0000 0.0000 0.0000
# 2 13.6281 30.6647 31.0302 0.0000 0.0000 0.0000
# 3 82.9591 31.0302 198.6562 0.0000 0.0000 0.0000
# 4 0.0000 0.0000 0.0000 20.0365 0.0000 0.0000
# 5 0.0000 0.0000 0.0000 0.0000 -3.3026 0.0000
# 6 0.0000 0.0000 0.0000 0.0000 0.0000 11.9319
#
#
#
# Elastic Compliance Matrix: (Units=1/GPa)
#
#
# Indices 1 2 3 4 5 6 
#
# 1 0.045481 -0.001180 -0.018809 0.000000 0.000000 0.000000
# 2 -0.001180 0.038764 -0.005562 0.000000 0.000000 0.000000
# 3 -0.018809 -0.005562 0.013757 0.000000 0.000000 0.000000
# 4 0.000000 0.000000 0.000000 0.049909 0.000000 0.000000
# 5 0.000000 0.000000 0.000000 0.000000 -0.302796 0.000000
# 6 0.000000 0.000000 0.000000 0.000000 0.000000 0.083809
#
#
# Mechanical properties :
#
#
# Convention : Reuss Voigt Hill
#
# Bulk Modulus (GPa) = 21.32182 60.13379 40.72781
# Shear Modulus (GPa) = -1151.85678 16.28995 -567.78342
#
# Velocity S-wave (km/s) = -25.30518 3.00933 -17.76649
# Velocity P-wave (km/s) = 29.01636 6.74574 19.95551
#
# Compressibility (1/GPa) = 0.04690032
#
# Stress axis : x y z
#
# Youngs Moduli (GPa) = 21.98711 25.79735 72.68936
#
# Poissons Ratio (x) = 0.03044 1.36719
# Poissons Ratio (y) = 0.02595 0.40431
# Poissons Ratio (z) = 0.41355 0.14349
#
# Static dielectric constant tensor:
#      x y z
#    x 1.566560 0.000000 0.000000 
#    y 0.000000 1.619110 0.000000 
#    z 0.000000 0.000000 1.704020 
# 
# From -- ./inp_files/76421.got.cif
#   From: 2010.05.17/outbox.cif.g08.bks.cpg/sg65_39_cif.got.tgz:76421.got - 2010.06.03 17:01:31.
