data_PCOD9482324
_publ_section_title
;
Structure prediction by ZEFSAII (Michael W. Deem and Ramdas Pophale) SiO2 
 PCOD9482324
Probable space group: C M C A
;
_chemical_formula_sum "Si O2"
_cell_formula_units_Z 80
_cell_length_a 13.738032
_cell_length_b 11.493230
_cell_length_c 18.447957
_cell_angle_alpha 90.000000
_cell_angle_beta 90.000000
_cell_angle_gamma 90.000000
_cell_volume 2912.828392
_symmetry_space_group_name_H-M "C M C A"
_symmetry_group_IT_number 64
_symmetry_cell_setting 'orthorhombic'
loop_
_space_group_symop_operation_xyz
x,y,z
-x,1/2-y,1/2+z
x,-y,-z
-x,1/2+y,1/2-z
-x,-y,-z
x,1/2+y,1/2-z
-x,y,z
x,1/2-y,1/2+z
1/2+x,1/2+y,z
1/2-x,-y,1/2+z
1/2+x,1/2-y,-z
1/2-x,y,1/2-z
1/2-x,1/2-y,-z
1/2+x,y,1/2-z
1/2-x,1/2+y,z
1/2+x,-y,1/2+z
loop_
_atom_site_type_symbol
_atom_site_label
_atom_site_fract_x
_atom_site_fract_y
_atom_site_fract_z
Si Si1 0.883125 0.133172 0.217238
Si Si2 0.115519 0.818421 0.623636
Si Si3 0.386498 0.849007 0.037931
Si Si4 0.266252 0.133826 0.827600
Si Si5 0.885634 0.071688 0.066370
O O1 0.867828 0.109215 0.302288
O O2 0.835424 0.257830 0.201151
O O3 0.847679 0.056253 0.148525
O O4 0.000000 0.141756 0.209206
O O5 0.145750 0.866053 0.545082
O O6 0.171591 0.698393 0.639191
O O7 0.000000 0.797405 0.617989
O O8 0.500000 0.882206 0.045338
O O9 0.326270 0.906202 0.102373
O O10 0.379721 0.708821 0.048868
O O11 0.250000 0.073318 0.750000
O O12 0.000000 0.039464 0.069933
O O13 0.843073 0.000000 0.000000
#
# Coordination Sequence:
#
# PCOD9482324 Si02
#       5
#    16  16  16  16  16
#     4   8  14  24  37  56  81 106 133 168 212 256
#     4   9  16  24  35  54  81 110 137 169 207 247
#     4   9  16  25  37  56  83 109 136 173 214 254
#     4   9  15  23  36  53  75 107 139 168 205 248
#     4   8  13  22  37  56  78 104 131 162 204 252
#
# _framework density 27.464715999999999
#
# number of rings (size 3 to 8) (size 9 to 14) (size 15 to 20)
#    0.000    3.400    0.000    2.400    0.000    0.800 
#    0.000    0.000    0.000    0.000    0.000   33.600 
#    0.000   12.800    0.000    4.000    0.000  157.400 
#
# Total GULP energy -223860.881549 kJ/mol
# GULP energy per Si atom -5596.522039 kJ/mol
# Density = 2.740221 g / cm^3
# Si number density = 27.464716 Si / 1000 Ang^3
#
#
#
# Elastic Constant Matrix: (Units=GPa)
#
#
# Indices 1 2 3 4 5 6 
#
# 1 107.5940 38.6013 88.7928 0.0000 0.0000 0.0000
# 2 38.6013 64.4222 68.6157 0.0000 0.0000 0.0000
# 3 88.7928 68.6157 356.3018 0.0000 0.0000 0.0000
# 4 0.0000 0.0000 0.0000 47.7444 0.0000 0.0000
# 5 0.0000 0.0000 0.0000 0.0000 59.8106 0.0000
# 6 0.0000 0.0000 0.0000 0.0000 0.0000 3.7869
#
#
#
# Elastic Compliance Matrix: (Units=1/GPa)
#
#
# Indices 1 2 3 4 5 6 
#
# 1 0.013083 -0.005493 -0.002202 0.000000 0.000000 0.000000
# 2 -0.005493 0.021835 -0.002836 0.000000 0.000000 0.000000
# 3 -0.002202 -0.002836 0.003902 0.000000 0.000000 0.000000
# 4 0.000000 0.000000 0.000000 0.020945 0.000000 0.000000
# 5 0.000000 0.000000 0.000000 0.000000 0.016719 0.000000
# 6 0.000000 0.000000 0.000000 0.000000 0.000000 0.264071
#
#
# Mechanical properties :
#
#
# Convention : Reuss Voigt Hill
#
# Bulk Modulus (GPa) = 56.31990 102.25974 79.28982
# Shear Modulus (GPa) = 13.60413 44.42224 29.01319
#
# Velocity S-wave (km/s) = 2.22802 4.02609 3.25373
# Velocity P-wave (km/s) = 5.21244 7.67636 6.56110
#
# Compressibility (1/GPa) = 0.01775571
#
# Stress axis : x y z
#
# Youngs Moduli (GPa) = 76.43782 45.79886 256.30563
#
# Poissons Ratio (x) = 0.25158 0.56448
# Poissons Ratio (y) = 0.41989 0.72686
# Poissons Ratio (z) = 0.16835 0.12988
#
# Static dielectric constant tensor:
#      x y z
#    x 2.085890 0.000000 0.000000 
#    y 0.000000 2.139280 0.000000 
#    z 0.000000 0.000000 2.137440 
# 
# From -- ./inp_files/23677.got.cif
#   From: 2010.05.17/outbox.cif.g08.bks.cpg/sg64_12_cif.got.tgz:23677.got - 2010.06.03 16:29:19.
