data_PCOD9482960
_publ_section_title
;
Structure prediction by ZEFSAII (Michael W. Deem and Ramdas Pophale) SiO2 
 PCOD9482960
Probable space group: C M M M
;
_chemical_formula_sum "Si O2"
_cell_formula_units_Z 80
_cell_length_a 20.948744
_cell_length_b 15.554387
_cell_length_c 14.563401
_cell_angle_alpha 90.000000
_cell_angle_beta 90.000000
_cell_angle_gamma 90.000000
_cell_volume 4745.409525
_symmetry_space_group_name_H-M "C M M M"
_symmetry_group_IT_number 65
_symmetry_cell_setting 'orthorhombic'
loop_
_space_group_symop_operation_xyz
x,y,z
-x,-y,z
x,-y,-z
-x,y,-z
-x,-y,-z
x,y,-z
-x,y,z
x,-y,z
1/2+x,1/2+y,z
1/2-x,1/2-y,z
1/2+x,1/2-y,-z
1/2-x,1/2+y,-z
1/2-x,1/2-y,-z
1/2+x,1/2+y,-z
1/2-x,1/2+y,z
1/2+x,1/2-y,z
loop_
_atom_site_type_symbol
_atom_site_label
_atom_site_fract_x
_atom_site_fract_y
_atom_site_fract_z
Si Si1 0.822509 0.778953 0.608422
Si Si2 0.891371 0.401170 0.893731
Si Si3 0.928936 0.268766 0.260740
Si Si4 0.244468 0.148176 0.893414
Si Si5 0.363782 0.403133 0.246636
O O1 0.833787 0.778948 0.500000
O O2 0.750000 0.750000 0.626045
O O3 0.873183 0.719679 0.663490
O O4 0.835133 0.871378 0.655606
O O5 0.909848 0.500000 0.876905
O O6 0.921024 0.335585 0.821681
O O7 0.814626 0.391934 0.884292
O O8 0.906885 0.379997 0.000000
O O9 0.915100 0.171525 0.225567
O O10 0.000000 0.274312 0.299537
O O11 0.250000 0.250000 0.871883
O O12 0.192868 0.106774 0.826973
O O13 0.224857 0.140302 0.000000
O O14 0.387612 0.500000 0.249067
#
# Coordination Sequence:
#
# PCOD9482960 Si02
#       5
#    16  16  16  16  16
#     4   9  19  37  59  81 108 141 181 230 282 332
#     4  10  20  34  56  84 112 147 190 232 275 326
#     4  10  22  37  54  80 113 148 182 227 279 328
#     4  10  17  30  53  80 112 146 183 228 275 321
#     4  10  20  33  53  81 111 145 184 224 272 330
#
# _framework density 16.858398000000001
#
# number of rings (size 3 to 8) (size 9 to 14) (size 15 to 20)
#    1.200    1.000    2.000    2.400    0.000    3.200 
#    0.000    1.000    0.000    3.000    0.000    4.200 
#    0.000    0.000    0.000    0.000    0.000    0.000 
#
# Total GULP energy -222725.595039 kJ/mol
# GULP energy per Si atom -5568.139876 kJ/mol
# Density = 1.682003 g / cm^3
# Si number density = 16.858398 Si / 1000 Ang^3
#
#
#
# Elastic Constant Matrix: (Units=GPa)
#
#
# Indices 1 2 3 4 5 6 
#
# 1 84.6414 23.3562 45.3663 0.0000 0.0000 0.0000
# 2 23.3562 98.9330 45.6806 0.0000 0.0000 0.0000
# 3 45.3663 45.6806 91.3953 0.0000 0.0000 0.0000
# 4 0.0000 0.0000 0.0000 5.7874 0.0000 0.0000
# 5 0.0000 0.0000 0.0000 0.0000 -0.6103 0.0000
# 6 0.0000 0.0000 0.0000 0.0000 0.0000 -10.5449
#
#
#
# Elastic Compliance Matrix: (Units=1/GPa)
#
#
# Indices 1 2 3 4 5 6 
#
# 1 0.016099 -0.000144 -0.007919 0.000000 0.000000 0.000000
# 2 -0.000144 0.013142 -0.006497 0.000000 0.000000 0.000000
# 3 -0.007919 -0.006497 0.018119 0.000000 0.000000 0.000000
# 4 0.000000 0.000000 0.000000 0.172790 0.000000 0.000000
# 5 0.000000 0.000000 0.000000 0.000000 -1.638668 0.000000
# 6 0.000000 0.000000 0.000000 0.000000 0.000000 -0.094832
#
#
# Mechanical properties :
#
#
# Convention : Reuss Voigt Hill
#
# Bulk Modulus (GPa) = 54.82463 55.97512 55.39987
# Shear Modulus (GPa) = -3.38261 9.63087 3.12413
#
# Velocity S-wave (km/s) = -1.41804 2.39274 1.36279
# Velocity P-wave (km/s) = 5.46902 6.39600 5.95059
#
# Compressibility (1/GPa) = 0.01823998
#
# Stress axis : x y z
#
# Youngs Moduli (GPa) = 62.11663 76.09374 55.18930
#
# Poissons Ratio (x) = 0.01097 0.43704
# Poissons Ratio (y) = 0.00896 0.35856
# Poissons Ratio (z) = 0.49190 0.49437
#
# Static dielectric constant tensor:
#      x y z
#    x 1.574650 0.000000 0.000000 
#    y 0.000000 1.578050 0.000000 
#    z 0.000000 0.000000 1.553300 
# 
# From -- ./inp_files/45507.got.cif
#   From: 2010.05.17/outbox.cif.g08.bks.cpg/sg65_23_cif.got.tgz:45507.got - 2010.06.03 17:01:31.
