data_PCOD9482291
_publ_section_title
;
Structure prediction by ZEFSAII (Michael W. Deem and Ramdas Pophale) SiO2 
 PCOD9482291
Probable space group: C M C A
;
_chemical_formula_sum "Si O2"
_cell_formula_units_Z 52
_cell_length_a 14.698211
_cell_length_b 7.163035
_cell_length_c 17.383658
_cell_angle_alpha 90.000000
_cell_angle_beta 90.000000
_cell_angle_gamma 90.000000
_cell_volume 1830.217569
_symmetry_space_group_name_H-M "C M C A"
_symmetry_group_IT_number 64
_symmetry_cell_setting 'orthorhombic'
loop_
_space_group_symop_operation_xyz
x,y,z
-x,1/2-y,1/2+z
x,-y,-z
-x,1/2+y,1/2-z
-x,-y,-z
x,1/2+y,1/2-z
-x,y,z
x,1/2-y,1/2+z
1/2+x,1/2+y,z
1/2-x,-y,1/2+z
1/2+x,1/2-y,-z
1/2-x,y,1/2-z
1/2-x,1/2-y,-z
1/2+x,y,1/2-z
1/2-x,1/2+y,z
1/2+x,-y,1/2+z
loop_
_atom_site_type_symbol
_atom_site_label
_atom_site_fract_x
_atom_site_fract_y
_atom_site_fract_z
Si Si1 0.000000 0.500000 0.000000
Si Si2 0.664950 0.166553 0.370788
Si Si3 0.399012 0.021289 0.220427
Si Si4 0.134787 0.221048 0.918281
O O1 0.079669 0.656822 0.020784
O O2 0.602599 0.198534 0.164343
O O3 0.621465 0.000894 0.419933
O O4 0.615230 0.350882 0.339167
O O5 0.757407 0.230919 0.411852
O O6 0.500000 0.010144 0.254020
O O7 0.328629 0.054845 0.289145
#
# Coordination Sequence:
#
# PCOD9482291 Si02
#       4
#     4  16  16  16
#     4  12  32  56  74 100 158 218 284 314 346 464
#     4  12  26  44  79 115 156 194 243 322 407 461
#     4  12  25  43  75 123 152 188 239 322 404 471
#     4  12  27  50  73 111 156 206 258 312 379 456
#
# _framework density 28.411919999999999
#
# number of rings (size 3 to 8) (size 9 to 14) (size 15 to 20)
#    0.000    0.000    7.692    1.846    4.308    1.231 
#    0.000    1.538    0.000    0.000    0.000    0.000 
#    0.000    0.000    0.000    0.000    0.000    0.000 
#
# Total GULP energy -145123.367679 kJ/mol
# GULP energy per Si atom -5581.667988 kJ/mol
# Density = 2.834725 g / cm^3
# Si number density = 28.411920 Si / 1000 Ang^3
#
#
#
# Elastic Constant Matrix: (Units=GPa)
#
#
# Indices 1 2 3 4 5 6 
#
# 1 131.3242 25.5808 14.5888 0.0000 0.0000 0.0000
# 2 25.5808 185.2773 22.2425 0.0000 0.0000 0.0000
# 3 14.5888 22.2425 140.9719 0.0000 0.0000 0.0000
# 4 0.0000 0.0000 0.0000 53.9211 0.0000 0.0000
# 5 0.0000 0.0000 0.0000 0.0000 0.3022 0.0000
# 6 0.0000 0.0000 0.0000 0.0000 0.0000 -169.5635
#
#
#
# Elastic Compliance Matrix: (Units=1/GPa)
#
#
# Indices 1 2 3 4 5 6 
#
# 1 0.007884 -0.001010 -0.000657 0.000000 0.000000 0.000000
# 2 -0.001010 0.005631 -0.000784 0.000000 0.000000 0.000000
# 3 -0.000657 -0.000784 0.007285 0.000000 0.000000 0.000000
# 4 0.000000 0.000000 0.000000 0.018546 0.000000 0.000000
# 5 0.000000 0.000000 0.000000 0.000000 3.309550 0.000000
# 6 0.000000 0.000000 0.000000 0.000000 0.000000 -0.005897
#
#
# Mechanical properties :
#
#
# Convention : Reuss Voigt Hill
#
# Bulk Modulus (GPa) = 62.89361 64.71084 63.80222
# Shear Modulus (GPa) = 1.49111 3.27604 2.38358
#
# Velocity S-wave (km/s) = 0.72523 1.07497 0.91693
# Velocity P-wave (km/s) = 4.78390 4.93621 4.86065
#
# Compressibility (1/GPa) = 0.01589987
#
# Stress axis : x y z
#
# Youngs Moduli (GPa) = 126.83311 177.59335 137.26360
#
# Poissons Ratio (x) = 0.17932 0.09013
# Poissons Ratio (y) = 0.12807 0.10761
# Poissons Ratio (z) = 0.08328 0.13922
#
# Static dielectric constant tensor:
#      x y z
#    x 2.119750 0.000000 0.000000 
#    y 0.000000 2.201150 0.000000 
#    z 0.000000 0.000000 2.364220 
# 
# From -- ./inp_files/31523.got.cif
#   From: 2010.05.17/outbox.cif.g08.bks.cpg/sg64_16_cif.got.tgz:31523.got - 2010.06.03 16:29:19.
