data_PCOD9482077
_publ_section_title
;
Structure prediction by ZEFSAII (Michael W. Deem and Ramdas Pophale) SiO2 
 PCOD9482077
Probable space group: C M C A
;
_chemical_formula_sum "Si O2"
_cell_formula_units_Z 64
_cell_length_a 9.784275
_cell_length_b 35.365048
_cell_length_c 9.858239
_cell_angle_alpha 90.000000
_cell_angle_beta 90.000000
_cell_angle_gamma 90.000000
_cell_volume 3411.161217
_symmetry_space_group_name_H-M "C M C A"
_symmetry_group_IT_number 64
_symmetry_cell_setting 'orthorhombic'
loop_
_space_group_symop_operation_xyz
x,y,z
-x,1/2-y,1/2+z
x,-y,-z
-x,1/2+y,1/2-z
-x,-y,-z
x,1/2+y,1/2-z
-x,y,z
x,1/2-y,1/2+z
1/2+x,1/2+y,z
1/2-x,-y,1/2+z
1/2+x,1/2-y,-z
1/2-x,y,1/2-z
1/2-x,1/2-y,-z
1/2+x,y,1/2-z
1/2-x,1/2+y,z
1/2+x,-y,1/2+z
loop_
_atom_site_type_symbol
_atom_site_label
_atom_site_fract_x
_atom_site_fract_y
_atom_site_fract_z
Si Si1 0.165791 0.725398 0.390683
Si Si2 0.000000 0.948064 0.360721
Si Si3 0.000000 0.964609 0.683148
Si Si4 0.341672 0.638005 0.024238
Si Si5 0.250000 0.898223 0.250000
Si Si6 0.250000 0.584414 0.250000
O O1 0.250000 0.729504 0.250000
O O2 0.250000 0.750000 0.500000
O O3 0.175836 0.681773 0.438445
O O4 0.000000 0.734215 0.380313
O O5 0.868454 0.924789 0.310988
O O6 0.000000 0.954271 0.522864
O O7 0.000000 0.990430 0.300786
O O8 0.125557 0.943950 0.751205
O O9 0.500000 0.628334 0.051684
O O10 0.250152 0.611868 0.120808
O O11 0.307594 0.627884 0.870118
#
# Coordination Sequence:
#
# PCOD9482077 Si02
#       6
#    16   8   8  16   8   8
#     4  11  25  47  70 103 138 176 220 270 331 400
#     4  11  24  41  61  93 134 167 218 274 334 390
#     4  11  24  39  63  95 128 173 214 276 332 388
#     4  11  24  42  68  96 131 169 220 268 322 386
#     4  12  23  44  63  94 130 172 220 272 327 386
#     4  12  21  42  65  94 124 170 220 266 321 386
#
# _framework density 18.761939000000002
#
# number of rings (size 3 to 8) (size 9 to 14) (size 15 to 20)
#    0.000    0.750    6.250    1.500    1.750    0.000 
#    6.750    1.250    0.000    0.000    0.000    0.000 
#    0.000    0.000    0.000    0.000    0.000    0.000 
#
# Total GULP energy -178664.794797 kJ/mol
# GULP energy per Si atom -5583.274837 kJ/mol
# Density = 1.871924 g / cm^3
# Si number density = 18.761939 Si / 1000 Ang^3
#
#
#
# Elastic Constant Matrix: (Units=GPa)
#
#
# Indices 1 2 3 4 5 6 
#
# 1 123.3414 49.8537 10.5093 0.0000 0.0000 0.0000
# 2 49.8537 90.1520 40.8774 0.0000 0.0000 0.0000
# 3 10.5093 40.8774 91.5997 0.0000 0.0000 0.0000
# 4 0.0000 0.0000 0.0000 33.1638 0.0000 0.0000
# 5 0.0000 0.0000 0.0000 0.0000 25.8913 0.0000
# 6 0.0000 0.0000 0.0000 0.0000 0.0000 29.6919
#
#
#
# Elastic Compliance Matrix: (Units=1/GPa)
#
#
# Indices 1 2 3 4 5 6 
#
# 1 0.010664 -0.006698 0.001765 0.000000 0.000000 0.000000
# 2 -0.006698 0.018113 -0.007315 0.000000 0.000000 0.000000
# 3 0.001765 -0.007315 0.013979 0.000000 0.000000 0.000000
# 4 0.000000 0.000000 0.000000 0.030153 0.000000 0.000000
# 5 0.000000 0.000000 0.000000 0.000000 0.038623 0.000000
# 6 0.000000 0.000000 0.000000 0.000000 0.000000 0.033679
#
#
# Mechanical properties :
#
#
# Convention : Reuss Voigt Hill
#
# Bulk Modulus (GPa) = 54.75860 56.39709 55.57785
# Shear Modulus (GPa) = 28.44252 31.33958 29.89105
#
# Velocity S-wave (km/s) = 3.89777 4.09146 3.99579
# Velocity P-wave (km/s) = 7.03606 7.24187 7.13971
#
# Compressibility (1/GPa) = 0.01826197
#
# Stress axis : x y z
#
# Youngs Moduli (GPa) = 93.77001 55.20909 71.53707
#
# Poissons Ratio (x) = 0.36978 -0.12630
# Poissons Ratio (y) = 0.62806 0.52327
# Poissons Ratio (z) = -0.16555 0.40384
#
# Static dielectric constant tensor:
#      x y z
#    x 1.636710 0.000000 0.000000 
#    y 0.000000 1.606560 0.000000 
#    z 0.000000 0.000000 1.654120 
# 
# From -- ./inp_files/4669.got.cif
#   From: 2010.05.17/outbox.cif.g08.bks.cpg/sg64_3_cif.got.tgz:4669.got - 2010.06.03 16:29:19.
