data_PCOD9482080
_publ_section_title
;
Structure prediction by ZEFSAII (Michael W. Deem and Ramdas Pophale) SiO2 
 PCOD9482080
Probable space group: C M C A
;
_chemical_formula_sum "Si O2"
_cell_formula_units_Z 104
_cell_length_a 16.129655
_cell_length_b 22.880086
_cell_length_c 13.979216
_cell_angle_alpha 90.000000
_cell_angle_beta 90.000000
_cell_angle_gamma 90.000000
_cell_volume 5159.000218
_symmetry_space_group_name_H-M "C M C A"
_symmetry_group_IT_number 64
_symmetry_cell_setting 'orthorhombic'
loop_
_space_group_symop_operation_xyz
x,y,z
-x,1/2-y,1/2+z
x,-y,-z
-x,1/2+y,1/2-z
-x,-y,-z
x,1/2+y,1/2-z
-x,y,z
x,1/2-y,1/2+z
1/2+x,1/2+y,z
1/2-x,-y,1/2+z
1/2+x,1/2-y,-z
1/2-x,y,1/2-z
1/2-x,1/2-y,-z
1/2+x,y,1/2-z
1/2-x,1/2+y,z
1/2+x,-y,1/2+z
loop_
_atom_site_type_symbol
_atom_site_label
_atom_site_fract_x
_atom_site_fract_y
_atom_site_fract_z
Si Si1 0.906811 0.751795 0.443328
Si Si2 0.186040 0.403769 0.338326
Si Si3 0.403388 0.204288 0.739083
Si Si4 0.133792 0.684882 0.136419
Si Si5 0.500000 0.905517 0.780428
Si Si6 0.840453 0.537034 0.303482
Si Si7 0.702360 0.635136 0.051085
O O1 0.888022 0.792266 0.352118
O O2 0.902602 0.791100 0.537088
O O3 0.847825 0.695981 0.451246
O O4 0.000000 0.728623 0.430487
O O5 0.250000 0.398828 0.250000
O O6 0.116364 0.356766 0.309986
O O7 0.158181 0.470783 0.341730
O O8 0.219056 0.385314 0.442686
O O9 0.500000 0.218737 0.721515
O O10 0.348945 0.256246 0.695123
O O11 0.214538 0.649196 0.108505
O O12 0.071611 0.644260 0.193998
O O13 0.423740 0.951987 0.757659
O O14 0.750000 0.543057 0.250000
O O15 0.843281 0.584545 0.389144
#
# Coordination Sequence:
#
# PCOD9482080 Si02
#       7
#    16  16  16  16   8  16  16
#     4  11  24  40  67 103 143 181 230 292 362 428
#     4  11  26  47  70  97 141 185 240 295 360 430
#     4  11  24  40  63 101 138 183 226 293 358 430
#     4  12  23  43  69 102 144 181 236 293 359 431
#     4  12  24  46  73 105 140 189 234 299 356 423
#     4  11  26  48  73 103 141 189 244 301 349 427
#     4  12  25  43  72 103 139 190 235 297 362 432
#
# _framework density 20.158944000000002
#
# number of rings (size 3 to 8) (size 9 to 14) (size 15 to 20)
#    0.000    0.615    4.615    2.769    6.462    0.000 
#    0.000    0.769    0.000    8.308    0.000    0.000 
#    0.000    0.000    0.000    0.000    0.000    0.000 
#
# Total GULP energy -289487.519286 kJ/mol
# GULP energy per Si atom -5567.067679 kJ/mol
# Density = 2.011306 g / cm^3
# Si number density = 20.158944 Si / 1000 Ang^3
#
#
#
# Elastic Constant Matrix: (Units=GPa)
#
#
# Indices 1 2 3 4 5 6 
#
# 1 89.9596 37.4455 0.0541 0.0000 0.0000 0.0000
# 2 37.4455 102.1238 1.8668 0.0000 0.0000 0.0000
# 3 0.0541 1.8668 49.3340 0.0000 0.0000 0.0000
# 4 0.0000 0.0000 0.0000 30.8201 0.0000 0.0000
# 5 0.0000 0.0000 0.0000 0.0000 17.3933 0.0000
# 6 0.0000 0.0000 0.0000 0.0000 0.0000 27.3506
#
#
#
# Elastic Compliance Matrix: (Units=1/GPa)
#
#
# Indices 1 2 3 4 5 6 
#
# 1 0.013120 -0.004814 0.000168 0.000000 0.000000 0.000000
# 2 -0.004814 0.011565 -0.000432 0.000000 0.000000 0.000000
# 3 0.000168 -0.000432 0.020286 0.000000 0.000000 0.000000
# 4 0.000000 0.000000 0.000000 0.032446 0.000000 0.000000
# 5 0.000000 0.000000 0.000000 0.000000 0.057493 0.000000
# 6 0.000000 0.000000 0.000000 0.000000 0.000000 0.036562
#
#
# Mechanical properties :
#
#
# Convention : Reuss Voigt Hill
#
# Bulk Modulus (GPa) = 28.72379 35.57226 32.14802
# Shear Modulus (GPa) = 25.87539 28.58288 27.22914
#
# Velocity S-wave (km/s) = 3.58658 3.76955 3.67920
# Velocity P-wave (km/s) = 5.60634 6.05229 5.83358
#
# Compressibility (1/GPa) = 0.03481435
#
# Stress axis : x y z
#
# Youngs Moduli (GPa) = 76.22148 86.46821 49.29468
#
# Poissons Ratio (x) = 0.41623 -0.00827
# Poissons Ratio (y) = 0.36690 0.02131
# Poissons Ratio (z) = -0.01279 0.03738
#
# Static dielectric constant tensor:
#      x y z
#    x 1.730610 0.000000 0.000000 
#    y 0.000000 1.681490 0.000000 
#    z 0.000000 0.000000 1.763660 
# 
# From -- ./inp_files/25626.got.cif
#   From: 2010.05.17/outbox.cif.g08.bks.cpg/sg64_13_cif.got.tgz:25626.got - 2010.06.03 16:29:19.
