data_PCOD9482622
_publ_section_title
;
Structure prediction by ZEFSAII (Michael W. Deem and Ramdas Pophale) SiO2 
 PCOD9482622
Probable space group: C M M M
;
_chemical_formula_sum "Si O2"
_cell_formula_units_Z 72
_cell_length_a 8.569451
_cell_length_b 23.998135
_cell_length_c 21.466379
_cell_angle_alpha 90.000000
_cell_angle_beta 90.000000
_cell_angle_gamma 90.000000
_cell_volume 4414.578915
_symmetry_space_group_name_H-M "C M M M"
_symmetry_group_IT_number 65
_symmetry_cell_setting 'orthorhombic'
loop_
_space_group_symop_operation_xyz
x,y,z
-x,-y,z
x,-y,-z
-x,y,-z
-x,-y,-z
x,y,-z
-x,y,z
x,-y,z
1/2+x,1/2+y,z
1/2-x,1/2-y,z
1/2+x,1/2-y,-z
1/2-x,1/2+y,-z
1/2-x,1/2-y,-z
1/2+x,1/2+y,-z
1/2-x,1/2+y,z
1/2+x,1/2-y,z
loop_
_atom_site_type_symbol
_atom_site_label
_atom_site_fract_x
_atom_site_fract_y
_atom_site_fract_z
Si Si1 0.689261 0.619682 0.622726
Si Si2 0.309919 0.500000 0.572568
Si Si3 0.186163 0.686239 0.000000
Si Si4 0.686261 0.686519 0.128744
Si Si5 0.813978 0.313203 0.259983
Si Si6 0.312322 0.312125 0.500000
O O1 0.500000 0.621429 0.627934
O O2 0.736686 0.556195 0.608137
O O3 0.761482 0.647882 0.683391
O O4 0.736094 0.655358 0.562070
O O5 0.500000 0.500000 0.570294
O O6 0.258405 0.500000 0.500000
O O7 0.250000 0.750000 0.000000
O O8 0.248217 0.660745 0.935295
O O9 0.000000 0.687787 0.000000
O O10 0.500000 0.687250 0.126867
O O11 0.750000 0.750000 0.129502
O O12 0.746197 0.663781 0.194607
O O13 0.750000 0.250000 0.269591
O O14 0.000000 0.309810 0.255731
O O15 0.500000 0.311144 0.500000
O O16 0.250000 0.250000 0.500000
#
# Coordination Sequence:
#
# PCOD9482622 Si02
#       6
#    16   8   8  16  16   8
#     4  10  19  33  52  73  94 122 158 199 241 291
#     4   9  16  32  57  77  93 118 157 200 245 291
#     4  10  16  24  38  60  90 125 162 197 232 276
#     4  10  17  27  42  62  89 124 163 200 236 280
#     4  11  21  33  47  67  96 130 163 200 245 293
#     4  10  20  31  47  69  95 122 155 192 233 282
#
# _framework density 16.309597
#
# number of rings (size 3 to 8) (size 9 to 14) (size 15 to 20)
#    0.000    1.889    1.111    8.333    0.000    2.667 
#    0.000    0.556    0.000    0.667    0.000    0.000 
#    0.000    0.889    0.000    9.556    0.000    5.333 
#
# Total GULP energy -200778.215576 kJ/mol
# GULP energy per Si atom -5577.172655 kJ/mol
# Density = 1.627248 g / cm^3
# Si number density = 16.309597 Si / 1000 Ang^3
#
#
#
# Elastic Constant Matrix: (Units=GPa)
#
#
# Indices 1 2 3 4 5 6 
#
# 1 111.7208 29.0667 64.0852 0.0000 0.0000 0.0000
# 2 29.0667 88.8890 63.6722 0.0000 0.0000 0.0000
# 3 64.0852 63.6722 192.3336 0.0000 0.0000 0.0000
# 4 0.0000 0.0000 0.0000 -0.6751 0.0000 0.0000
# 5 0.0000 0.0000 0.0000 0.0000 26.2161 0.0000
# 6 0.0000 0.0000 0.0000 0.0000 0.0000 13.4556
#
#
#
# Elastic Compliance Matrix: (Units=1/GPa)
#
#
# Indices 1 2 3 4 5 6 
#
# 1 0.011178 -0.001294 -0.003296 0.000000 0.000000 0.000000
# 2 -0.001294 0.014897 -0.004500 0.000000 0.000000 0.000000
# 3 -0.003296 -0.004500 0.007787 0.000000 0.000000 0.000000
# 4 0.000000 0.000000 0.000000 -1.481362 0.000000 0.000000
# 5 0.000000 0.000000 0.000000 0.000000 0.038144 0.000000
# 6 0.000000 0.000000 0.000000 0.000000 0.000000 0.074318
#
#
# Mechanical properties :
#
#
# Convention : Reuss Voigt Hill
#
# Bulk Modulus (GPa) = 63.77105 78.51017 71.14061
# Shear Modulus (GPa) = -3.81206 23.54063 9.86429
#
# Velocity S-wave (km/s) = -1.53048 3.80328 2.46197
# Velocity P-wave (km/s) = 6.00517 8.21757 7.19689
#
# Compressibility (1/GPa) = 0.01568110
#
# Stress axis : x y z
#
# Youngs Moduli (GPa) = 89.45869 67.12810 128.41220
#
# Poissons Ratio (x) = 0.08688 0.42326
# Poissons Ratio (y) = 0.11578 0.57790
# Poissons Ratio (z) = 0.29487 0.30210
#
# Static dielectric constant tensor:
#      x y z
#    x 1.546230 0.000000 0.000000 
#    y 0.000000 1.526890 0.000000 
#    z 0.000000 0.000000 1.594980 
# 
# From -- ./inp_files/59572.got.cif
#   From: 2010.05.17/outbox.cif.g08.bks.cpg/sg65_30_cif.got.tgz:59572.got - 2010.06.03 17:01:31.
