data_PCOD9482305
_publ_section_title
;
Structure prediction by ZEFSAII (Michael W. Deem and Ramdas Pophale) SiO2 
 PCOD9482305
Probable space group: C M C A
;
_chemical_formula_sum "Si O2"
_cell_formula_units_Z 48
_cell_length_a 8.187588
_cell_length_b 20.207800
_cell_length_c 12.213901
_cell_angle_alpha 90.000000
_cell_angle_beta 90.000000
_cell_angle_gamma 90.000000
_cell_volume 2020.828282
_symmetry_space_group_name_H-M "C M C A"
_symmetry_group_IT_number 64
_symmetry_cell_setting 'orthorhombic'
loop_
_space_group_symop_operation_xyz
x,y,z
-x,1/2-y,1/2+z
x,-y,-z
-x,1/2+y,1/2-z
-x,-y,-z
x,1/2+y,1/2-z
-x,y,z
x,1/2-y,1/2+z
1/2+x,1/2+y,z
1/2-x,-y,1/2+z
1/2+x,1/2-y,-z
1/2-x,y,1/2-z
1/2-x,1/2-y,-z
1/2+x,y,1/2-z
1/2-x,1/2+y,z
1/2+x,-y,1/2+z
loop_
_atom_site_type_symbol
_atom_site_label
_atom_site_fract_x
_atom_site_fract_y
_atom_site_fract_z
Si Si1 0.685734 0.259978 0.371859
Si Si2 0.306279 0.550345 0.138214
Si Si3 0.198588 0.901205 0.092197
O O1 0.500000 0.237152 0.376724
O O2 0.750000 0.236055 0.250000
O O3 0.750000 0.250000 0.500000
O O4 0.706732 0.339404 0.361314
O O5 0.500000 0.544491 0.132832
O O6 0.250000 0.580512 0.250000
O O7 0.247398 0.474213 0.131343
O O8 0.258963 0.594093 0.036060
O O9 0.000000 0.893781 0.105742
#
# Coordination Sequence:
#
# PCOD9482305 Si02
#       3
#    16  16  16
#     4  12  26  45  68  94 124 164 211 263 318 376
#     4   9  18  32  54  83 119 158 197 244 300 360
#     4   9  19  37  57  83 119 159 200 247 303 366
#
# _framework density 23.752638999999999
#
# number of rings (size 3 to 8) (size 9 to 14) (size 15 to 20)
#    0.000    2.000    0.000    6.000    0.000    6.667 
#    0.000    6.667    0.000    0.000    0.000    0.000 
#    0.000    0.000    0.000    0.000    0.000    0.000 
#
# Total GULP energy -133707.040977 kJ/mol
# GULP energy per Si atom -5571.126707 kJ/mol
# Density = 2.369858 g / cm^3
# Si number density = 23.752639 Si / 1000 Ang^3
#
#
#
# Elastic Constant Matrix: (Units=GPa)
#
#
# Indices 1 2 3 4 5 6 
#
# 1 45.2957 -7.5190 49.1654 0.0000 0.0000 0.0000
# 2 -7.5190 83.5895 12.7520 0.0000 0.0000 0.0000
# 3 49.1654 12.7520 237.3899 0.0000 0.0000 0.0000
# 4 0.0000 0.0000 0.0000 -6.3047 0.0000 0.0000
# 5 0.0000 0.0000 0.0000 0.0000 41.9532 0.0000
# 6 0.0000 0.0000 0.0000 0.0000 0.0000 42.3233
#
#
#
# Elastic Compliance Matrix: (Units=1/GPa)
#
#
# Indices 1 2 3 4 5 6 
#
# 1 0.029526 0.003618 -0.006310 0.000000 0.000000 0.000000
# 2 0.003618 0.012506 -0.001421 0.000000 0.000000 0.000000
# 3 -0.006310 -0.001421 0.005596 0.000000 0.000000 0.000000
# 4 0.000000 0.000000 0.000000 -0.158611 0.000000 0.000000
# 5 0.000000 0.000000 0.000000 0.000000 0.023836 0.000000
# 6 0.000000 0.000000 0.000000 0.000000 0.000000 0.023628
#
#
# Mechanical properties :
#
#
# Convention : Reuss Voigt Hill
#
# Bulk Modulus (GPa) = 25.37874 52.78576 39.08225
# Shear Modulus (GPa) = -118.59186 36.38614 -41.10286
#
# Velocity S-wave (km/s) = -7.07363 3.91817 -4.16439
# Velocity P-wave (km/s) = 7.48380 6.53764 2.57551
#
# Compressibility (1/GPa) = 0.03940306
#
# Stress axis : x y z
#
# Youngs Moduli (GPa) = 33.86798 79.96463 178.71248
#
# Poissons Ratio (x) = -0.28935 1.12759
# Poissons Ratio (y) = -0.12255 0.25398
# Poissons Ratio (z) = 0.21369 0.11364
#
# Static dielectric constant tensor:
#      x y z
#    x 1.884370 0.000000 0.000000 
#    y 0.000000 1.898140 0.000000 
#    z 0.000000 0.000000 2.055800 
# 
# From -- ./inp_files/11784.got.cif
#   From: 2010.05.17/outbox.cif.g08.bks.cpg/sg64_6_cif.got.tgz:11784.got - 2010.06.03 16:29:19.
