data_PCOD9482097
_publ_section_title
;
Structure prediction by ZEFSAII (Michael W. Deem and Ramdas Pophale) SiO2 
 PCOD9482097
Probable space group: C M C A
;
_chemical_formula_sum "Si O2"
_cell_formula_units_Z 80
_cell_length_a 15.298569
_cell_length_b 10.074106
_cell_length_c 27.096303
_cell_angle_alpha 90.000000
_cell_angle_beta 90.000000
_cell_angle_gamma 90.000000
_cell_volume 4176.066116
_symmetry_space_group_name_H-M "C M C A"
_symmetry_group_IT_number 64
_symmetry_cell_setting 'orthorhombic'
loop_
_space_group_symop_operation_xyz
x,y,z
-x,1/2-y,1/2+z
x,-y,-z
-x,1/2+y,1/2-z
-x,-y,-z
x,1/2+y,1/2-z
-x,y,z
x,1/2-y,1/2+z
1/2+x,1/2+y,z
1/2-x,-y,1/2+z
1/2+x,1/2-y,-z
1/2-x,y,1/2-z
1/2-x,1/2-y,-z
1/2+x,y,1/2-z
1/2-x,1/2+y,z
1/2+x,-y,1/2+z
loop_
_atom_site_type_symbol
_atom_site_label
_atom_site_fract_x
_atom_site_fract_y
_atom_site_fract_z
Si Si1 0.000000 0.354074 0.523043
Si Si2 0.166385 0.706725 0.407941
Si Si3 0.395596 0.195277 0.296108
Si Si4 0.894143 0.500207 0.209620
Si Si5 0.500000 0.396696 0.544631
Si Si6 0.173762 0.020141 0.399445
O O1 0.000000 0.500000 0.500000
O O2 0.084786 0.327418 0.557101
O O3 0.000000 0.248612 0.478644
O O4 0.142205 0.680423 0.350700
O O5 0.247709 0.611317 0.418297
O O6 0.186209 0.864190 0.411870
O O7 0.500000 0.179318 0.300915
O O8 0.366102 0.091699 0.254957
O O9 0.379191 0.345659 0.278794
O O10 0.842761 0.531458 0.159380
O O11 0.000000 0.516912 0.201423
O O12 0.500000 0.500000 0.500000
O O13 0.585329 0.427573 0.576116
#
# Coordination Sequence:
#
# PCOD9482097 Si02
#       6
#     8  16  16  16   8  16
#     4  12  28  48  69  94 128 164 215 272 326 382
#     4  11  24  44  66  96 133 168 212 264 321 379
#     4   9  18  36  63  90 127 169 207 256 309 375
#     4   9  18  36  61  92 126 167 212 251 310 378
#     4  12  24  48  73  88 124 174 209 262 332 382
#     4  11  24  42  68  97 129 169 215 262 318 385
#
# _framework density 19.156786
#
# number of rings (size 3 to 8) (size 9 to 14) (size 15 to 20)
#    0.000    1.600    4.000    0.000    2.800    4.000 
#    0.000    4.000    0.000    0.000    0.000    0.000 
#    0.000    0.000    0.000    0.000    0.000    0.000 
#
# Total GULP energy -223523.336000 kJ/mol
# GULP energy per Si atom -5588.083400 kJ/mol
# Density = 1.911318 g / cm^3
# Si number density = 19.156786 Si / 1000 Ang^3
#
#
#
# Elastic Constant Matrix: (Units=GPa)
#
#
# Indices 1 2 3 4 5 6 
#
# 1 121.2972 78.1584 45.8470 0.0000 0.0000 0.0000
# 2 78.1584 144.1594 72.5399 0.0000 0.0000 0.0000
# 3 45.8470 72.5399 76.6027 0.0000 0.0000 0.0000
# 4 0.0000 0.0000 0.0000 40.8428 0.0000 0.0000
# 5 0.0000 0.0000 0.0000 0.0000 -17.5219 0.0000
# 6 0.0000 0.0000 0.0000 0.0000 0.0000 27.0497
#
#
#
# Elastic Compliance Matrix: (Units=1/GPa)
#
#
# Indices 1 2 3 4 5 6 
#
# 1 0.012843 -0.005913 -0.002088 0.000000 0.000000 0.000000
# 2 -0.005913 0.015973 -0.011587 0.000000 0.000000 0.000000
# 3 -0.002088 -0.011587 0.025276 0.000000 0.000000 0.000000
# 4 0.000000 0.000000 0.000000 0.024484 0.000000 0.000000
# 5 0.000000 0.000000 0.000000 0.000000 -0.057072 0.000000
# 6 0.000000 0.000000 0.000000 0.000000 0.000000 0.036969
#
#
# Mechanical properties :
#
#
# Convention : Reuss Voigt Hill
#
# Bulk Modulus (GPa) = 67.03409 81.68332 74.35871
# Shear Modulus (GPa) = 48.72305 19.77506 34.24905
#
# Velocity S-wave (km/s) = 5.04867 3.21639 4.23286
# Velocity P-wave (km/s) = 8.30986 7.51834 7.92399
#
# Compressibility (1/GPa) = 0.01491778
#
# Stress axis : x y z
#
# Youngs Moduli (GPa) = 77.86281 62.60615 39.56283
#
# Poissons Ratio (x) = 0.37017 0.08259
# Poissons Ratio (y) = 0.46037 0.45841
# Poissons Ratio (z) = 0.16255 0.72542
#
# Static dielectric constant tensor:
#      x y z
#    x 1.644650 0.000000 0.000000 
#    y 0.000000 1.592580 0.000000 
#    z 0.000000 0.000000 1.565370 
# 
# From -- ./inp_files/50324.got.cif
#   From: 2010.05.17/outbox.cif.g08.bks.cpg/sg64_26_cif.got.tgz:50324.got - 2010.06.03 16:29:19.
