data_PCOD9482813
_publ_section_title
;
Structure prediction by ZEFSAII (Michael W. Deem and Ramdas Pophale) SiO2 
 PCOD9482813
Probable space group: C M M M
;
_chemical_formula_sum "Si O2"
_cell_formula_units_Z 72
_cell_length_a 14.719202
_cell_length_b 8.519710
_cell_length_c 26.957703
_cell_angle_alpha 90.000000
_cell_angle_beta 90.000000
_cell_angle_gamma 90.000000
_cell_volume 3380.585792
_symmetry_space_group_name_H-M "C M M M"
_symmetry_group_IT_number 65
_symmetry_cell_setting 'orthorhombic'
loop_
_space_group_symop_operation_xyz
x,y,z
-x,-y,z
x,-y,-z
-x,y,-z
-x,-y,-z
x,y,-z
-x,y,z
x,-y,z
1/2+x,1/2+y,z
1/2-x,1/2-y,z
1/2+x,1/2-y,-z
1/2-x,1/2+y,-z
1/2-x,1/2-y,-z
1/2+x,1/2+y,-z
1/2-x,1/2+y,z
1/2+x,1/2-y,z
loop_
_atom_site_type_symbol
_atom_site_label
_atom_site_fract_x
_atom_site_fract_y
_atom_site_fract_z
Si Si1 0.000000 0.811624 0.942599
Si Si2 0.854058 0.690005 0.446578
Si Si3 0.354290 0.188813 0.660875
Si Si4 0.647379 0.186957 0.868050
Si Si5 0.353922 0.686906 0.763720
O O1 0.913236 0.747944 0.912980
O O2 0.000000 0.000000 0.940564
O O3 0.000000 0.762624 0.000000
O O4 0.893630 0.740519 0.500000
O O5 0.854190 0.500000 0.446433
O O6 0.750000 0.750000 0.446740
O O7 0.893482 0.737063 0.392967
O O8 0.250000 0.250000 0.659727
O O9 0.394849 0.255567 0.711662
O O10 0.354816 0.000000 0.664077
O O11 0.750000 0.250000 0.872757
O O12 0.608486 0.248057 0.815362
O O13 0.648681 0.000000 0.866916
O O14 0.353919 0.500000 0.764949
O O15 0.250000 0.750000 0.763332
#
# Coordination Sequence:
#
# PCOD9482813 Si02
#       5
#     8  16  16  16  16
#     4  11  25  45  67  93 125 159 196 237 282 335
#     4   8  13  19  26  38  61  98 145 197 253 313
#     4   9  14  20  31  49  75 109 154 207 262 321
#     4  11  22  39  63  90 121 157 198 242 290 342
#     4  10  17  27  44  67  96 130 172 221 275 332
#
# _framework density 21.298085
#
# number of rings (size 3 to 8) (size 9 to 14) (size 15 to 20)
#    0.000    2.333    0.000    7.667    0.000    2.222 
#    0.000    0.000    0.000    0.000    0.000    0.000 
#    0.000    0.000    0.000    1.000    0.000   23.111 
#
# Total GULP energy -200863.137046 kJ/mol
# GULP energy per Si atom -5579.531585 kJ/mol
# Density = 2.124961 g / cm^3
# Si number density = 21.298085 Si / 1000 Ang^3
#
#
#
# Elastic Constant Matrix: (Units=GPa)
#
#
# Indices 1 2 3 4 5 6 
#
# 1 91.3257 20.3309 61.1901 0.0000 0.0000 0.0000
# 2 20.3309 125.8050 82.2019 0.0000 0.0000 0.0000
# 3 61.1901 82.2019 287.0913 0.0000 0.0000 0.0000
# 4 0.0000 0.0000 0.0000 30.4241 0.0000 0.0000
# 5 0.0000 0.0000 0.0000 0.0000 595.7924 0.0000
# 6 0.0000 0.0000 0.0000 0.0000 0.0000 4.5589
#
#
#
# Elastic Compliance Matrix: (Units=1/GPa)
#
#
# Indices 1 2 3 4 5 6 
#
# 1 0.012787 -0.000351 -0.002625 0.000000 0.000000 0.000000
# 2 -0.000351 0.009788 -0.002728 0.000000 0.000000 0.000000
# 3 -0.002625 -0.002728 0.004824 0.000000 0.000000 0.000000
# 4 0.000000 0.000000 0.000000 0.032869 0.000000 0.000000
# 5 0.000000 0.000000 0.000000 0.000000 0.001678 0.000000
# 6 0.000000 0.000000 0.000000 0.000000 0.000000 0.219350
#
#
# Mechanical properties :
#
#
# Convention : Reuss Voigt Hill
#
# Bulk Modulus (GPa) = 62.53647 92.40752 77.47199
# Shear Modulus (GPa) = 16.77667 148.85504 82.81586
#
# Velocity S-wave (km/s) = 2.80966 8.36917 6.24248
# Velocity P-wave (km/s) = 6.32074 11.69926 9.40278
#
# Compressibility (1/GPa) = 0.01599067
#
# Stress axis : x y z
#
# Youngs Moduli (GPa) = 78.20653 102.16748 207.31280
#
# Poissons Ratio (x) = 0.03590 0.54414
# Poissons Ratio (y) = 0.02748 0.56547
# Poissons Ratio (z) = 0.20527 0.27867
#
# Static dielectric constant tensor:
#      x y z
#    x 0.309930 0.000000 0.000000 
#    y 0.000000 1.704340 0.000000 
#    z 0.000000 0.000000 1.833010 
# 
# From -- ./inp_files/74601.got.cif
#   From: 2010.05.17/outbox.cif.g08.bks.cpg/sg65_38_cif.got.tgz:74601.got - 2010.06.03 17:01:31.
