data_PCOD9482393
_publ_section_title
;
Structure prediction by ZEFSAII (Michael W. Deem and Ramdas Pophale) SiO2 
 PCOD9482393
Probable space group: C M C A
;
_chemical_formula_sum "Si O2"
_cell_formula_units_Z 52
_cell_length_a 21.000000
_cell_length_b 27.000000
_cell_length_c 9.000000
_cell_angle_alpha 90.000000
_cell_angle_beta 90.000000
_cell_angle_gamma 90.000000
_cell_volume 5103.000000
_symmetry_space_group_name_H-M "C M C A"
_symmetry_group_IT_number 64
_symmetry_cell_setting 'orthorhombic'
loop_
_space_group_symop_operation_xyz
x,y,z
-x,1/2-y,1/2+z
x,-y,-z
-x,1/2+y,1/2-z
-x,-y,-z
x,1/2+y,1/2-z
-x,y,z
x,1/2-y,1/2+z
1/2+x,1/2+y,z
1/2-x,-y,1/2+z
1/2+x,1/2-y,-z
1/2-x,y,1/2-z
1/2-x,1/2-y,-z
1/2+x,y,1/2-z
1/2-x,1/2+y,z
1/2+x,-y,1/2+z
loop_
_atom_site_type_symbol
_atom_site_label
_atom_site_fract_x
_atom_site_fract_y
_atom_site_fract_z
Si Si1 0.651464 0.610398 0.521150
Si Si2 0.289920 0.866751 0.500536
Si Si3 0.250000 0.714291 0.250000
Si Si4 0.926978 0.793537 0.459246
Si Si5 0.322042 0.953306 0.724639
Si Si6 0.365801 0.713453 0.847744
Si Si7 0.574344 0.525758 0.664454
O O1 0.722928 0.620288 0.576642
O O2 0.616365 0.661434 0.483260
O O3 0.662941 0.580344 0.368766
O O4 0.607570 0.578332 0.630676
O O5 0.271989 0.823171 0.619808
O O6 0.316417 0.915251 0.586303
O O7 0.339176 0.839675 0.394349
O O8 0.307211 0.750912 0.297740
O O9 0.915316 0.792480 0.284467
O O10 0.900522 0.742144 0.520803
O O11 0.000000 0.801149 0.499503
O O12 0.250000 0.974434 0.750000
O O13 0.378045 0.994153 0.729553
O O14 0.574075 0.500000 0.500000
O O15 0.500000 0.528588 0.712004
#
# Coordination Sequence:
#
# PCOD9482393 Si02
#       7
#    16  16   8  16  16  16  16
#     4  10  19  36  61  87 117 157 203 264 310 371
#     4  11  19  36  62  90 123 158 206 265 330 372
#     4  12  18  38  62  92 120 160 206 264 318 372
#     4  12  25  41  58  85 124 170 212 253 307 377
#     4   9  18  35  60  90 124 152 200 263 319 376
#     4  12  24  39  61  88 125 165 209 261 312 381
#     4   9  18  34  57  87 119 157 201 250 310 374
#
# _framework density 10.190084000000001
#
# number of rings (size 3 to 8) (size 9 to 14) (size 15 to 20)
#    0.000    1.385    5.385    2.308    0.000    0.615 
#    2.769    1.538    0.000    0.000    0.000    2.154 
#    0.000    0.000    0.000    0.000    0.000    0.000 
#
# Total GULP energy -290542.440443 kJ/mol
# GULP energy per Si atom -5587.354624 kJ/mol
# Density = 1.016689 g / cm^3
# Si number density = 10.190084 Si / 1000 Ang^3
#
#
#
# Elastic Constant Matrix: (Units=GPa)
#
#
# Indices 1 2 3 4 5 6 
#
# 1 155.9604 58.9683 32.9671 0.0000 0.0000 0.0000
# 2 58.9683 62.0036 11.5333 0.0000 0.0000 0.0000
# 3 32.9671 11.5333 38.7430 0.0000 0.0000 0.0000
# 4 0.0000 0.0000 0.0000 21.7019 0.0000 0.0000
# 5 0.0000 0.0000 0.0000 0.0000 28.0083 0.0000
# 6 0.0000 0.0000 0.0000 0.0000 0.0000 20.6028
#
#
#
# Elastic Compliance Matrix: (Units=1/GPa)
#
#
# Indices 1 2 3 4 5 6 
#
# 1 0.011540 -0.009685 -0.006936 0.000000 0.000000 0.000000
# 2 -0.009685 0.025201 0.000739 0.000000 0.000000 0.000000
# 3 -0.006936 0.000739 0.031494 0.000000 0.000000 0.000000
# 4 0.000000 0.000000 0.000000 0.046079 0.000000 0.000000
# 5 0.000000 0.000000 0.000000 0.000000 0.035704 0.000000
# 6 0.000000 0.000000 0.000000 0.000000 0.000000 0.048537
#
#
# Mechanical properties :
#
#
# Convention : Reuss Voigt Hill
#
# Bulk Modulus (GPa) = 27.41984 51.51604 39.46794
# Shear Modulus (GPa) = 20.62061 24.27850 22.44955
#
# Velocity S-wave (km/s) = 3.18433 3.45524 3.32254
# Velocity P-wave (km/s) = 5.19647 6.42267 5.84183
#
# Compressibility (1/GPa) = 0.03646995
#
# Stress axis : x y z
#
# Youngs Moduli (GPa) = 86.65581 39.68045 31.75257
#
# Poissons Ratio (x) = 0.38430 0.22025
# Poissons Ratio (y) = 0.83924 -0.02346
# Poissons Ratio (z) = 0.60109 -0.02932
#
# Static dielectric constant tensor:
#      x y z
#    x 1.702740 0.000000 0.000000 
#    y 0.000000 1.714650 0.000000 
#    z 0.000000 0.000000 1.754460 
# 
# From -- ./inp_files/8516.got.cif
#   From: 2010.05.17/outbox.ucp.g08.bks.cvg/sg64_5_cif.got.tgz:8516.got - 2010.06.11 16:36:46.
