data_PCOD9482031
_publ_section_title
;
Structure prediction by ZEFSAII (Michael W. Deem and Ramdas Pophale) SiO2 
 PCOD9482031
Probable space group: C M C A
;
_chemical_formula_sum "Si O2"
_cell_formula_units_Z 72
_cell_length_a 26.016775
_cell_length_b 15.977650
_cell_length_c 8.276874
_cell_angle_alpha 90.000000
_cell_angle_beta 90.000000
_cell_angle_gamma 90.000000
_cell_volume 3440.588302
_symmetry_space_group_name_H-M "C M C A"
_symmetry_group_IT_number 64
_symmetry_cell_setting 'orthorhombic'
loop_
_space_group_symop_operation_xyz
x,y,z
-x,1/2-y,1/2+z
x,-y,-z
-x,1/2+y,1/2-z
-x,-y,-z
x,1/2+y,1/2-z
-x,y,z
x,1/2-y,1/2+z
1/2+x,1/2+y,z
1/2-x,-y,1/2+z
1/2+x,1/2-y,-z
1/2-x,y,1/2-z
1/2-x,1/2-y,-z
1/2+x,y,1/2-z
1/2-x,1/2+y,z
1/2+x,-y,1/2+z
loop_
_atom_site_type_symbol
_atom_site_label
_atom_site_fract_x
_atom_site_fract_y
_atom_site_fract_z
Si Si1 0.608665 0.830584 0.833164
Si Si2 0.060875 0.337664 0.478327
Si Si3 0.632455 0.000000 0.000000
Si Si4 0.708345 0.776809 0.371683
Si Si5 0.356102 0.060963 0.648256
O O1 0.586590 0.847255 0.655267
O O2 0.668505 0.797913 0.826353
O O3 0.577354 0.753522 0.910844
O O4 0.605273 0.914199 0.940994
O O5 0.084369 0.409422 0.361554
O O6 0.000000 0.343482 0.489904
O O7 0.658184 0.971794 0.172499
O O8 0.750000 0.811739 0.250000
O O9 0.750000 0.750000 0.500000
O O10 0.672083 0.854198 0.401852
O O11 0.345807 0.000000 0.500000
#
# Coordination Sequence:
#
# PCOD9482031 Si02
#       5
#    16  16   8  16  16
#     4  11  23  43  69 101 144 183 234 301 354 423
#     4  11  23  45  72 100 140 192 240 289 361 438
#     4  12  24  44  71 100 144 188 226 300 363 410
#     4  11  23  44  69 102 135 186 238 281 354 435
#     4  11  24  47  70 102 143 183 231 299 356 416
#
# _framework density 20.926653000000002
#
# number of rings (size 3 to 8) (size 9 to 14) (size 15 to 20)
#    0.000    0.889    2.222    7.333    0.000    0.444 
#    8.000    3.889    0.000    0.000    0.000    0.000 
#    0.000    0.000    0.000    0.000    0.000    0.000 
#
# Total GULP energy -200474.126476 kJ/mol
# GULP energy per Si atom -5568.725735 kJ/mol
# Density = 2.087902 g / cm^3
# Si number density = 20.926653 Si / 1000 Ang^3
#
#
#
# Elastic Constant Matrix: (Units=GPa)
#
#
# Indices 1 2 3 4 5 6 
#
# 1 132.9134 7.3432 24.8084 0.0000 0.0000 0.0000
# 2 7.3432 84.7419 41.0968 0.0000 0.0000 0.0000
# 3 24.8084 41.0968 116.7387 0.0000 0.0000 0.0000
# 4 0.0000 0.0000 0.0000 33.9878 0.0000 0.0000
# 5 0.0000 0.0000 0.0000 0.0000 33.1775 0.0000
# 6 0.0000 0.0000 0.0000 0.0000 0.0000 5.6942
#
#
#
# Elastic Compliance Matrix: (Units=1/GPa)
#
#
# Indices 1 2 3 4 5 6 
#
# 1 0.007836 0.000155 -0.001720 0.000000 0.000000 0.000000
# 2 0.000155 0.014233 -0.005044 0.000000 0.000000 0.000000
# 3 -0.001720 -0.005044 0.010707 0.000000 0.000000 0.000000
# 4 0.000000 0.000000 0.000000 0.029422 0.000000 0.000000
# 5 0.000000 0.000000 0.000000 0.000000 0.030141 0.000000
# 6 0.000000 0.000000 0.000000 0.000000 0.000000 0.175619
#
#
# Mechanical properties :
#
#
# Convention : Reuss Voigt Hill
#
# Bulk Modulus (GPa) = 51.12578 53.43230 52.27904
# Shear Modulus (GPa) = 17.37952 31.98160 24.68056
#
# Velocity S-wave (km/s) = 2.88496 3.91355 3.43794
# Velocity P-wave (km/s) = 5.96501 6.78305 6.38714
#
# Compressibility (1/GPa) = 0.01955961
#
# Stress axis : x y z
#
# Youngs Moduli (GPa) = 127.61378 70.25904 93.39534
#
# Poissons Ratio (x) = -0.01089 0.16063
# Poissons Ratio (y) = -0.01979 0.47104
# Poissons Ratio (z) = 0.21948 0.35436
#
# Static dielectric constant tensor:
#      x y z
#    x 1.758740 0.000000 0.000000 
#    y 0.000000 1.865120 0.000000 
#    z 0.000000 0.000000 1.771220 
# 
# From -- ./inp_files/10033.got.cif
#   From: 2010.05.17/outbox.cif.g08.bks.cpg/sg64_6_cif.got.tgz:10033.got - 2010.06.03 16:29:19.
