data_PCOD9482978
_publ_section_title
;
Structure prediction by ZEFSAII (Michael W. Deem and Ramdas Pophale) SiO2 
 PCOD9482978
Probable space group: C M M M
;
_chemical_formula_sum "Si O2"
_cell_formula_units_Z 80
_cell_length_a 8.088345
_cell_length_b 30.294457
_cell_length_c 16.849436
_cell_angle_alpha 90.000000
_cell_angle_beta 90.000000
_cell_angle_gamma 90.000000
_cell_volume 4128.651336
_symmetry_space_group_name_H-M "C M M M"
_symmetry_group_IT_number 65
_symmetry_cell_setting 'orthorhombic'
loop_
_space_group_symop_operation_xyz
x,y,z
-x,-y,z
x,-y,-z
-x,y,-z
-x,-y,-z
x,y,-z
-x,y,z
x,-y,z
1/2+x,1/2+y,z
1/2-x,1/2-y,z
1/2+x,1/2-y,-z
1/2-x,1/2+y,-z
1/2-x,1/2-y,-z
1/2+x,1/2+y,-z
1/2-x,1/2+y,z
1/2+x,1/2-y,z
loop_
_atom_site_type_symbol
_atom_site_label
_atom_site_fract_x
_atom_site_fract_y
_atom_site_fract_z
Si Si1 0.300084 0.799724 0.592016
Si Si2 0.311239 0.926457 0.000000
Si Si3 0.192193 0.370291 0.717097
Si Si4 0.812228 0.705622 0.847095
Si Si5 0.320316 0.666400 0.000000
Si Si6 0.298080 0.050470 0.176600
O O1 0.250155 0.804707 0.500000
O O2 0.500000 0.800922 0.596847
O O3 0.250000 0.750000 0.617065
O O4 0.236441 0.840844 0.644960
O O5 0.239389 0.940384 0.085776
O O6 0.500000 0.943374 0.000000
O O7 0.308960 0.873381 0.000000
O O8 0.193278 0.335556 0.789145
O O9 0.263472 0.414688 0.757230
O O10 0.000000 0.380156 0.695957
O O11 0.750000 0.750000 0.806416
O O12 0.000000 0.711461 0.873627
O O13 0.702367 0.695661 0.922903
O O14 0.500000 0.644873 0.000000
O O15 0.500000 0.055672 0.174115
O O16 0.260565 0.000000 0.197006
#
# Coordination Sequence:
#
# PCOD9482978 Si02
#       6
#    16   8  16  16   8  16
#     4   9  17  30  49  73 101 130 159 192 234 285
#     4  10  17  31  51  71  92 121 161 209 248 279
#     4   9  17  29  47  71  98 125 156 198 243 281
#     4  11  21  34  49  67  93 126 163 201 239 282
#     4  12  23  34  47  66  93 129 164 195 239 290
#     4   9  16  27  48  75  96 119 159 205 244 285
#
# _framework density 19.376785999999999
#
# number of rings (size 3 to 8) (size 9 to 14) (size 15 to 20)
#    0.000    2.200    2.000    2.700    0.000    1.200 
#    0.000    1.000    0.000    1.800    0.000    4.200 
#    0.000    0.000    0.000    5.000    0.000    5.200 
#
# Total GULP energy -222918.294238 kJ/mol
# GULP energy per Si atom -5572.957356 kJ/mol
# Density = 1.933268 g / cm^3
# Si number density = 19.376786 Si / 1000 Ang^3
#
#
#
# Elastic Constant Matrix: (Units=GPa)
#
#
# Indices 1 2 3 4 5 6 
#
# 1 24.7312 4.8900 8.1781 0.0000 0.0000 0.0000
# 2 4.8900 154.9186 62.6165 0.0000 0.0000 0.0000
# 3 8.1781 62.6165 115.2151 0.0000 0.0000 0.0000
# 4 0.0000 0.0000 0.0000 53.1949 0.0000 0.0000
# 5 0.0000 0.0000 0.0000 0.0000 4.5592 0.0000
# 6 0.0000 0.0000 0.0000 0.0000 0.0000 13.0570
#
#
#
# Elastic Compliance Matrix: (Units=1/GPa)
#
#
# Indices 1 2 3 4 5 6 
#
# 1 0.041409 -0.000153 -0.002856 0.000000 0.000000 0.000000
# 2 -0.000153 0.008273 -0.004485 0.000000 0.000000 0.000000
# 3 -0.002856 -0.004485 0.011320 0.000000 0.000000 0.000000
# 4 0.000000 0.000000 0.000000 0.018799 0.000000 0.000000
# 5 0.000000 0.000000 0.000000 0.000000 0.219335 0.000000
# 6 0.000000 0.000000 0.000000 0.000000 0.000000 0.076587
#
#
# Mechanical properties :
#
#
# Convention : Reuss Voigt Hill
#
# Bulk Modulus (GPa) = 21.73268 49.58154 35.65711
# Shear Modulus (GPa) = 12.31380 28.77426 20.54403
#
# Velocity S-wave (km/s) = 2.52363 3.85773 3.25966
# Velocity P-wave (km/s) = 4.44205 6.74437 5.71044
#
# Compressibility (1/GPa) = 0.04601366
#
# Stress axis : x y z
#
# Youngs Moduli (GPa) = 24.14909 120.87991 88.34127
#
# Poissons Ratio (x) = 0.01844 0.25233
# Poissons Ratio (y) = 0.00368 0.39622
# Poissons Ratio (z) = 0.06898 0.54217
#
# Static dielectric constant tensor:
#      x y z
#    x 1.744020 0.000000 0.000000 
#    y 0.000000 1.681800 0.000000 
#    z 0.000000 0.000000 1.692050 
# 
# From -- ./inp_files/50244.got.cif
#   From: 2010.05.17/outbox.cif.g08.bks.cpg/sg65_26_cif.got.tgz:50244.got - 2010.06.03 17:01:31.
