data_PCOD9482078
_publ_section_title
;
Structure prediction by ZEFSAII (Michael W. Deem and Ramdas Pophale) SiO2 
 PCOD9482078
Probable space group: C M C A
;
_chemical_formula_sum "Si O2"
_cell_formula_units_Z 96
_cell_length_a 15.099492
_cell_length_b 22.471759
_cell_length_c 14.537769
_cell_angle_alpha 90.000000
_cell_angle_beta 90.000000
_cell_angle_gamma 90.000000
_cell_volume 4932.841586
_symmetry_space_group_name_H-M "C M C A"
_symmetry_group_IT_number 64
_symmetry_cell_setting 'orthorhombic'
loop_
_space_group_symop_operation_xyz
x,y,z
-x,1/2-y,1/2+z
x,-y,-z
-x,1/2+y,1/2-z
-x,-y,-z
x,1/2+y,1/2-z
-x,y,z
x,1/2-y,1/2+z
1/2+x,1/2+y,z
1/2-x,-y,1/2+z
1/2+x,1/2-y,-z
1/2-x,y,1/2-z
1/2-x,1/2-y,-z
1/2+x,y,1/2-z
1/2-x,1/2+y,z
1/2+x,-y,1/2+z
loop_
_atom_site_type_symbol
_atom_site_label
_atom_site_fract_x
_atom_site_fract_y
_atom_site_fract_z
Si Si1 0.250000 0.473033 0.601305
Si Si2 0.604173 0.013122 0.750000
Si Si3 0.644898 0.349202 0.250001
Si Si4 0.600683 0.253198 0.890517
Si Si5 0.250000 0.153367 0.349657
Si Si6 0.899317 0.253198 0.890516
O O1 0.250000 0.500000 0.500000
O O2 0.336878 0.491886 0.661679
O O3 0.163122 0.491886 0.661679
O O4 0.250000 0.402072 0.583850
O O5 0.500000 0.993435 0.750000
O O6 0.604240 0.085299 0.750001
O O7 0.750000 0.357018 0.250000
O O8 0.619885 0.308550 0.338033
O O9 0.619883 0.308550 0.161970
O O10 0.500000 0.269659 0.870340
O O11 0.666824 0.303591 0.857178
O O12 0.612299 0.250000 0.000001
O O13 0.250000 0.123752 0.250000
O O14 0.166824 0.196409 0.357178
O O15 0.000000 0.269660 0.870339
#
# Coordination Sequence:
#
# PCOD9482078 Si02
#       6
#    16  16  16  16  16  16
#     4  11  27  47  68  96 130 176 228 272 326 385
#     4  11  25  46  68  95 132 176 225 271 322 390
#     4  12  22  41  68  92 129 172 206 262 320 381
#     4  11  24  39  63  98 130 165 207 257 322 387
#     4  12  23  42  64  92 127 170 210 266 324 370
#     4  11  24  39  63  98 130 165 207 257 322 387
#
# _framework density 19.461399
#
# number of rings (size 3 to 8) (size 9 to 14) (size 15 to 20)
#    0.000    0.667    6.667    2.000    4.667    2.000 
#    0.000    0.000    0.000    0.000    0.000    0.000 
#    0.000    0.000    0.000    0.000    0.000    0.000 
#
# Total GULP energy -268057.408709 kJ/mol
# GULP energy per Si atom -5584.529348 kJ/mol
# Density = 1.941710 g / cm^3
# Si number density = 19.461399 Si / 1000 Ang^3
#
#
#
# Elastic Constant Matrix: (Units=GPa)
#
#
# Indices 1 2 3 4 5 6 
#
# 1 157.2964 33.4007 46.6011 0.0000 0.0000 0.0000
# 2 33.4007 109.2031 4.5807 0.0000 0.0000 0.0000
# 3 46.6011 4.5807 91.1623 0.0000 0.0000 0.0000
# 4 0.0000 0.0000 0.0000 -18.3257 0.0000 0.0000
# 5 0.0000 0.0000 0.0000 0.0000 -14.7718 0.0000
# 6 0.0000 0.0000 0.0000 0.0000 0.0000 -44.0510
#
#
#
# Elastic Compliance Matrix: (Units=1/GPa)
#
#
# Indices 1 2 3 4 5 6 
#
# 1 0.008024 -0.002287 -0.003987 0.000000 0.000000 0.000000
# 2 -0.002287 0.009828 0.000675 0.000000 0.000000 0.000000
# 3 -0.003987 0.000675 0.012974 0.000000 0.000000 0.000000
# 4 0.000000 0.000000 0.000000 -0.054568 0.000000 0.000000
# 5 0.000000 0.000000 0.000000 0.000000 -0.067697 0.000000
# 6 0.000000 0.000000 0.000000 0.000000 0.000000 -0.022701
#
#
# Mechanical properties :
#
#
# Convention : Reuss Voigt Hill
#
# Bulk Modulus (GPa) = 50.94567 58.53631 54.74099
# Shear Modulus (GPa) = -51.86781 2.77559 -24.54611
#
# Velocity S-wave (km/s) = -5.16812 1.19553 -3.55529
# Velocity P-wave (km/s) = 3.06236 5.66120 3.36684
#
# Compressibility (1/GPa) = 0.01962875
#
# Stress axis : x y z
#
# Youngs Moduli (GPa) = 124.62214 101.74560 77.07955
#
# Poissons Ratio (x) = 0.23270 0.30731
# Poissons Ratio (y) = 0.28502 -0.05205
# Poissons Ratio (z) = 0.49687 -0.06870
#
# Static dielectric constant tensor:
#      x y z
#    x 1.681380 0.000000 0.000000 
#    y 0.000000 1.653360 0.000000 
#    z 0.000000 0.000000 1.564250 
# 
# From -- ./inp_files/23844.got.cif
#   From: 2010.05.17/outbox.cif.g08.bks.cpg/sg64_12_cif.got.tgz:23844.got - 2010.06.03 16:29:19.
