data_PCOD9482500
_publ_section_title
;
Structure prediction by ZEFSAII (Michael W. Deem and Ramdas Pophale) SiO2 
 PCOD9482500
Probable space group: C M C A
;
_chemical_formula_sum "Si O2"
_cell_formula_units_Z 48
_cell_length_a 18.000000
_cell_length_b 24.000000
_cell_length_c 12.000000
_cell_angle_alpha 90.000000
_cell_angle_beta 90.000000
_cell_angle_gamma 90.000000
_cell_volume 5184.000000
_symmetry_space_group_name_H-M "C M C A"
_symmetry_group_IT_number 64
_symmetry_cell_setting 'orthorhombic'
loop_
_space_group_symop_operation_xyz
x,y,z
-x,1/2-y,1/2+z
x,-y,-z
-x,1/2+y,1/2-z
-x,-y,-z
x,1/2+y,1/2-z
-x,y,z
x,1/2-y,1/2+z
1/2+x,1/2+y,z
1/2-x,-y,1/2+z
1/2+x,1/2-y,-z
1/2-x,y,1/2-z
1/2-x,1/2-y,-z
1/2+x,y,1/2-z
1/2-x,1/2+y,z
1/2+x,-y,1/2+z
loop_
_atom_site_type_symbol
_atom_site_label
_atom_site_fract_x
_atom_site_fract_y
_atom_site_fract_z
Si Si1 0.588240 0.056286 0.569664
Si Si2 0.410963 0.913770 0.823845
Si Si3 0.659095 0.138136 0.399279
Si Si4 0.290212 0.758891 0.123750
Si Si5 0.829970 0.527868 0.794742
Si Si6 0.317259 0.623952 0.522423
O O1 0.500000 0.053831 0.587726
O O2 0.609349 0.110027 0.495895
O O3 0.630278 0.055555 0.687400
O O4 0.609304 0.000000 0.500000
O O5 0.500000 0.911863 0.808158
O O6 0.367927 0.889882 0.715469
O O7 0.381294 0.976986 0.834078
O O8 0.384487 0.881388 0.934614
O O9 0.656623 0.204692 0.378012
O O10 0.743016 0.125551 0.444037
O O11 0.250000 0.757832 0.250000
O O12 0.320429 0.821107 0.100962
O O13 0.250000 0.750000 0.000000
O O14 0.750000 0.507156 0.750000
O O15 0.816515 0.571282 0.894613
#
# Coordination Sequence:
#
# PCOD9482500 Si02
#       6
#    16  16  16  16  16  16
#     4  11  23  40  64  95 133 173 216 271 335 399
#     4  12  26  42  62  92 137 180 218 270 340 408
#     4  11  21  42  69  96 122 172 225 277 327 399
#     4  10  22  41  70 100 133 169 221 288 340 388
#     4  12  23  39  65  97 133 169 223 275 335 404
#     4  11  24  41  67  96 130 168 227 277 335 396
#
# _framework density 9.2592590000000001
#
# number of rings (size 3 to 8) (size 9 to 14) (size 15 to 20)
#    0.000    0.833    3.333    5.500    2.333    2.000 
#    0.000    1.667    0.000    0.000    0.000    0.000 
#    0.000    0.000    0.000    0.000    0.000    0.000 
#
# Total GULP energy -267766.058489 kJ/mol
# GULP energy per Si atom -5578.459552 kJ/mol
# Density = 0.923818 g / cm^3
# Si number density = 9.259259 Si / 1000 Ang^3
#
#
#
# Elastic Constant Matrix: (Units=GPa)
#
#
# Indices 1 2 3 4 5 6 
#
# 1 97.2836 41.1731 39.5349 0.0000 0.0000 0.0000
# 2 41.1731 124.7775 42.7202 0.0000 0.0000 0.0000
# 3 39.5349 42.7202 125.6063 0.0000 0.0000 0.0000
# 4 0.0000 0.0000 0.0000 38.9316 0.0000 0.0000
# 5 0.0000 0.0000 0.0000 0.0000 30.8624 0.0000
# 6 0.0000 0.0000 0.0000 0.0000 0.0000 15.1072
#
#
#
# Elastic Compliance Matrix: (Units=1/GPa)
#
#
# Indices 1 2 3 4 5 6 
#
# 1 0.012842 -0.003230 -0.002944 0.000000 0.000000 0.000000
# 2 -0.003230 0.009883 -0.002345 0.000000 0.000000 0.000000
# 3 -0.002944 -0.002345 0.009685 0.000000 0.000000 0.000000
# 4 0.000000 0.000000 0.000000 0.025686 0.000000 0.000000
# 5 0.000000 0.000000 0.000000 0.000000 0.032402 0.000000
# 6 0.000000 0.000000 0.000000 0.000000 0.000000 0.066194
#
#
# Mechanical properties :
#
#
# Convention : Reuss Voigt Hill
#
# Bulk Modulus (GPa) = 65.04383 66.05820 65.55101
# Shear Modulus (GPa) = 27.95585 31.92951 29.94268
#
# Velocity S-wave (km/s) = 3.88959 4.15685 4.02544
# Velocity P-wave (km/s) = 7.44122 7.66733 7.55513
#
# Compressibility (1/GPa) = 0.01537425
#
# Stress axis : x y z
#
# Youngs Moduli (GPa) = 77.86671 101.18633 103.24855
#
# Poissons Ratio (x) = 0.32681 0.30393
# Poissons Ratio (y) = 0.25149 0.24208
# Poissons Ratio (z) = 0.22922 0.23725
#
# Static dielectric constant tensor:
#      x y z
#    x 1.640320 0.000000 0.000000 
#    y 0.000000 1.671360 0.000000 
#    z 0.000000 0.000000 1.649900 
# 
# From -- ./inp_files/16218.got.cif
#   From: 2010.05.17/outbox.ucp.g08.bks.cvg/sg64_9_cif.got.tgz:16218.got - 2010.06.11 16:36:46.
