data_PCOD9482753
_publ_section_title
;
Structure prediction by ZEFSAII (Michael W. Deem and Ramdas Pophale) SiO2 
 PCOD9482753
Probable space group: C M M M
;
_chemical_formula_sum "Si O2"
_cell_formula_units_Z 112
_cell_length_a 26.901101
_cell_length_b 33.868184
_cell_length_c 9.261905
_cell_angle_alpha 90.000000
_cell_angle_beta 90.000000
_cell_angle_gamma 90.000000
_cell_volume 8438.442349
_symmetry_space_group_name_H-M "C M M M"
_symmetry_group_IT_number 65
_symmetry_cell_setting 'orthorhombic'
loop_
_space_group_symop_operation_xyz
x,y,z
-x,-y,z
x,-y,-z
-x,y,-z
-x,-y,-z
x,y,-z
-x,y,z
x,-y,z
1/2+x,1/2+y,z
1/2-x,1/2-y,z
1/2+x,1/2-y,-z
1/2-x,1/2+y,-z
1/2-x,1/2-y,-z
1/2+x,1/2+y,-z
1/2-x,1/2+y,z
1/2+x,1/2-y,z
loop_
_atom_site_type_symbol
_atom_site_label
_atom_site_fract_x
_atom_site_fract_y
_atom_site_fract_z
Si Si1 0.738203 0.157399 0.330610
Si Si2 0.417349 0.921141 0.168939
Si Si3 0.201130 0.500000 0.667083
Si Si4 0.943080 0.332958 0.171392
Si Si5 0.202831 0.579612 0.169851
Si Si6 0.298429 0.721251 0.833324
Si Si7 0.358007 0.785301 0.668887
Si Si8 0.420052 0.000000 0.665425
O O1 0.748442 0.151137 0.500000
O O2 0.727069 0.116918 0.248159
O O3 0.781266 0.182695 0.253793
O O4 0.688120 0.183969 0.320605
O O5 0.438377 0.878917 0.216735
O O6 0.357369 0.917631 0.181759
O O7 0.434855 0.959576 0.255341
O O8 0.429405 0.926718 0.000000
O O9 0.216576 0.500000 0.500000
O O10 0.217414 0.460817 0.750886
O O11 0.140580 0.500000 0.668460
O O12 0.905006 0.306139 0.258475
O O13 0.000000 0.320337 0.189138
O O14 0.930496 0.331831 0.000000
O O15 0.214662 0.578854 0.000000
O O16 0.250000 0.750000 0.833491
O O17 0.340940 0.746146 0.753343
O O18 0.310619 0.712742 0.000000
O O19 0.366105 0.777143 0.500000
O O20 0.436165 0.000000 0.500000
#
# Coordination Sequence:
#
# PCOD9482753 Si02
#       8
#    16  16   8  16  16  16  16   8
#     4  10  18  27  41  62  84 104 126 155 195 237
#     4   9  17  29  43  57  73  94 122 157 198 241
#     4   9  17  27  37  54  78 101 128 161 197 235
#     4  10  20  33  47  61  76  98 130 164 198 241
#     4  10  17  26  41  58  77 102 132 162 195 237
#     4   9  17  28  43  61  81 103 127 153 185 230
#     4  10  19  30  44  60  81 103 124 155 197 239
#     4   9  17  27  42  58  71  90 118 153 197 246
#
# _framework density 13.272591
#
# number of rings (size 3 to 8) (size 9 to 14) (size 15 to 20)
#    0.000    2.429    1.429    2.143    0.000    6.000 
#    0.000    0.357    0.000    2.143    0.000    0.000 
#    0.000    0.000    0.000    0.000    0.000    0.000 
#
# Total GULP energy -312289.472346 kJ/mol
# GULP energy per Si atom -5576.597720 kJ/mol
# Density = 1.324238 g / cm^3
# Si number density = 13.272591 Si / 1000 Ang^3
#
#
#
# Elastic Constant Matrix: (Units=GPa)
#
#
# Indices 1 2 3 4 5 6 
#
# 1 39.1554 36.5209 41.6490 0.0000 0.0000 0.0000
# 2 36.5209 84.8826 68.8398 0.0000 0.0000 0.0000
# 3 41.6490 68.8398 119.8889 0.0000 0.0000 0.0000
# 4 0.0000 0.0000 0.0000 23.7683 0.0000 0.0000
# 5 0.0000 0.0000 0.0000 0.0000 11.0221 0.0000
# 6 0.0000 0.0000 0.0000 0.0000 0.0000 2.8318
#
#
#
# Elastic Compliance Matrix: (Units=1/GPa)
#
#
# Indices 1 2 3 4 5 6 
#
# 1 0.047208 -0.013121 -0.008866 0.000000 0.000000 0.000000
# 2 -0.013121 0.025695 -0.010196 0.000000 0.000000 0.000000
# 3 -0.008866 -0.010196 0.017275 0.000000 0.000000 0.000000
# 4 0.000000 0.000000 0.000000 0.042073 0.000000 0.000000
# 5 0.000000 0.000000 0.000000 0.000000 0.090727 0.000000
# 6 0.000000 0.000000 0.000000 0.000000 0.000000 0.353128
#
#
# Mechanical properties :
#
#
# Convention : Reuss Voigt Hill
#
# Bulk Modulus (GPa) = 38.74009 59.77181 49.25595
# Shear Modulus (GPa) = 7.70325 13.98559 10.84442
#
# Velocity S-wave (km/s) = 2.41174 3.24963 2.86152
# Velocity P-wave (km/s) = 6.08331 7.69493 6.93609
#
# Compressibility (1/GPa) = 0.02581305
#
# Stress axis : x y z
#
# Youngs Moduli (GPa) = 21.18283 38.91768 57.88568
#
# Poissons Ratio (x) = 0.51065 0.51320
# Poissons Ratio (y) = 0.27794 0.59020
# Poissons Ratio (z) = 0.18780 0.39680
#
# Static dielectric constant tensor:
#      x y z
#    x 1.405890 0.000000 0.000000 
#    y 0.000000 1.419780 0.000000 
#    z 0.000000 0.000000 1.443800 
# 
# From -- ./inp_files/19239.got.cif
#   From: 2010.05.17/outbox.cif.g08.bks.cpg/sg65_10_cif.got.tgz:19239.got - 2010.06.03 17:01:31.
