data_PCOD9482856
_publ_section_title
;
Structure prediction by ZEFSAII (Michael W. Deem and Ramdas Pophale) SiO2 
 PCOD9482856
Probable space group: C M M M
;
_chemical_formula_sum "Si O2"
_cell_formula_units_Z 80
_cell_length_a 13.666456
_cell_length_b 19.519821
_cell_length_c 18.768446
_cell_angle_alpha 90.000000
_cell_angle_beta 90.000000
_cell_angle_gamma 90.000000
_cell_volume 5006.797808
_symmetry_space_group_name_H-M "C M M M"
_symmetry_group_IT_number 65
_symmetry_cell_setting 'orthorhombic'
loop_
_space_group_symop_operation_xyz
x,y,z
-x,-y,z
x,-y,-z
-x,y,-z
-x,-y,-z
x,y,-z
-x,y,z
x,-y,z
1/2+x,1/2+y,z
1/2-x,1/2-y,z
1/2+x,1/2-y,-z
1/2-x,1/2+y,-z
1/2-x,1/2-y,-z
1/2+x,1/2+y,-z
1/2-x,1/2+y,z
1/2+x,1/2-y,z
loop_
_atom_site_type_symbol
_atom_site_label
_atom_site_fract_x
_atom_site_fract_y
_atom_site_fract_z
Si Si1 0.801378 0.142569 0.779095
Si Si2 0.118278 0.924549 0.357247
Si Si3 0.885072 0.285316 0.273619
Si Si4 0.885022 0.917801 0.918451
Si Si5 0.118107 0.780360 0.420638
O O1 0.841849 0.087959 0.722218
O O2 0.862401 0.212292 0.763702
O O3 0.689418 0.160782 0.760374
O O4 0.820448 0.117919 0.858639
O O5 0.150740 0.857963 0.402065
O O6 0.000000 0.922941 0.354942
O O7 0.147368 0.000000 0.383906
O O8 0.856816 0.270847 0.356367
O O9 0.000000 0.301546 0.268628
O O10 0.000000 0.902230 0.905378
O O11 0.874687 0.000000 0.913385
O O12 0.862095 0.897942 0.000000
O O13 0.146784 0.759847 0.500000
O O14 0.000000 0.783025 0.419276
#
# Coordination Sequence:
#
# PCOD9482856 Si02
#       5
#    16  16  16  16  16
#     4  10  17  28  46  64  86 119 148 179 219 260
#     4   9  16  25  40  63  87 111 141 178 223 273
#     4   9  18  30  43  63  89 118 154 187 216 257
#     4   9  17  29  48  74  97 115 139 174 217 263
#     4   8  14  26  43  61  84 114 145 181 226 269
#
# _framework density 15.978277
#
# number of rings (size 3 to 8) (size 9 to 14) (size 15 to 20)
#    0.000    3.000    0.000    4.200    0.000    2.000 
#    0.000   12.000    0.000    4.200    0.000    1.400 
#    0.000    0.000    0.000   36.200    0.000    1.800 
#
# Total GULP energy -222782.079735 kJ/mol
# GULP energy per Si atom -5569.551993 kJ/mol
# Density = 1.594191 g / cm^3
# Si number density = 15.978277 Si / 1000 Ang^3
#
#
#
# Elastic Constant Matrix: (Units=GPa)
#
#
# Indices 1 2 3 4 5 6 
#
# 1 78.8039 23.4596 45.6402 0.0000 0.0000 0.0000
# 2 23.4596 33.6231 31.5754 0.0000 0.0000 0.0000
# 3 45.6402 31.5754 129.5360 0.0000 0.0000 0.0000
# 4 0.0000 0.0000 0.0000 11.2350 0.0000 0.0000
# 5 0.0000 0.0000 0.0000 0.0000 126.6298 0.0000
# 6 0.0000 0.0000 0.0000 0.0000 0.0000 21.6034
#
#
#
# Elastic Compliance Matrix: (Units=1/GPa)
#
#
# Indices 1 2 3 4 5 6 
#
# 1 0.017589 -0.008368 -0.004157 0.000000 0.000000 0.000000
# 2 -0.008368 0.042552 -0.007424 0.000000 0.000000 0.000000
# 3 -0.004157 -0.007424 0.010994 0.000000 0.000000 0.000000
# 4 0.000000 0.000000 0.000000 0.089008 0.000000 0.000000
# 5 0.000000 0.000000 0.000000 0.000000 0.007897 0.000000
# 6 0.000000 0.000000 0.000000 0.000000 0.000000 0.046289
#
#
# Mechanical properties :
#
#
# Convention : Reuss Voigt Hill
#
# Bulk Modulus (GPa) = 32.01409 49.25704 40.63556
# Shear Modulus (GPa) = 18.89369 41.31283 30.10326
#
# Velocity S-wave (km/s) = 3.44242 5.09036 4.34523
# Velocity P-wave (km/s) = 5.98998 8.08971 7.11770
#
# Compressibility (1/GPa) = 0.03123625
#
# Stress axis : x y z
#
# Youngs Moduli (GPa) = 56.85510 23.50084 90.95600
#
# Poissons Ratio (x) = 0.19665 0.37814
# Poissons Ratio (y) = 0.47575 0.67526
# Poissons Ratio (z) = 0.23637 0.17447
#
# Static dielectric constant tensor:
#      x y z
#    x 1.544830 0.000000 0.000000 
#    y 0.000000 1.537160 0.000000 
#    z 0.000000 0.000000 1.548460 
# 
# From -- ./inp_files/52884.got.cif
#   From: 2010.05.17/outbox.cif.g08.bks.cpg/sg65_27_cif.got.tgz:52884.got - 2010.06.03 17:01:31.
