data_PCOD9482769
_publ_section_title
;
Structure prediction by ZEFSAII (Michael W. Deem and Ramdas Pophale) SiO2 
 PCOD9482769
Probable space group: C M M M
;
_chemical_formula_sum "Si O2"
_cell_formula_units_Z 104
_cell_length_a 22.199579
_cell_length_b 8.547375
_cell_length_c 30.772515
_cell_angle_alpha 90.000000
_cell_angle_beta 90.000000
_cell_angle_gamma 90.000000
_cell_volume 5839.027071
_symmetry_space_group_name_H-M "C M M M"
_symmetry_group_IT_number 65
_symmetry_cell_setting 'orthorhombic'
loop_
_space_group_symop_operation_xyz
x,y,z
-x,-y,z
x,-y,-z
-x,y,-z
-x,-y,-z
x,y,-z
-x,y,z
x,-y,z
1/2+x,1/2+y,z
1/2-x,1/2-y,z
1/2+x,1/2-y,-z
1/2-x,1/2+y,-z
1/2-x,1/2-y,-z
1/2+x,1/2+y,-z
1/2-x,1/2+y,z
1/2+x,1/2-y,z
loop_
_atom_site_type_symbol
_atom_site_label
_atom_site_fract_x
_atom_site_fract_y
_atom_site_fract_z
Si Si1 0.401612 0.184880 0.114068
Si Si2 0.317000 0.312357 0.952279
Si Si3 0.500000 0.312227 0.950707
Si Si4 0.818443 0.686613 0.636861
Si Si5 0.931245 0.188265 0.790945
Si Si6 0.318817 0.312523 0.452472
Si Si7 0.819179 0.188101 0.269771
O O1 0.339404 0.234119 0.092204
O O2 0.444625 0.248997 0.076490
O O3 0.418369 0.263188 0.159499
O O4 0.407184 0.000000 0.118948
O O5 0.320701 0.500000 0.948200
O O6 0.250000 0.250000 0.956490
O O7 0.346596 0.273875 0.000000
O O8 0.500000 0.500000 0.950376
O O9 0.500000 0.257619 0.000000
O O10 0.750000 0.750000 0.634949
O O11 0.847229 0.742198 0.591340
O O12 0.840378 0.757351 0.682254
O O13 0.681713 0.000000 0.638963
O O14 0.872816 0.240728 0.762818
O O15 0.000000 0.242453 0.779149
O O16 0.932240 0.000000 0.787899
O O17 0.345665 0.272598 0.500000
O O18 0.317042 0.500000 0.448496
O O19 0.250000 0.250000 0.453952
O O20 0.750000 0.250000 0.262025
O O21 0.815142 0.000000 0.268635
#
# Coordination Sequence:
#
# PCOD9482769 Si02
#       7
#    16  16   8  16  16  16  16
#     4  12  24  37  57  84 110 138 171 212 261 313
#     4  10  21  38  59  82 110 144 178 214 256 305
#     4  11  23  39  59  81 107 139 173 209 250 301
#     4  10  17  26  42  64  95 133 172 218 267 318
#     4  10  22  41  62  80 106 144 183 226 275 327
#     4   9  15  22  34  55  87 128 172 216 262 315
#     4  10  20  35  56  80 105 138 180 225 274 325
#
# _framework density 17.811187
#
# number of rings (size 3 to 8) (size 9 to 14) (size 15 to 20)
#    0.000    1.769    0.769    6.692    0.000    6.154 
#    0.000    1.538    0.000    0.000    0.000    0.000 
#    0.000    0.615    0.000    7.077    0.000    5.538 
#
# Total GULP energy -289552.471223 kJ/mol
# GULP energy per Si atom -5568.316754 kJ/mol
# Density = 1.777065 g / cm^3
# Si number density = 17.811187 Si / 1000 Ang^3
#
#
#
# Elastic Constant Matrix: (Units=GPa)
#
#
# Indices 1 2 3 4 5 6 
#
# 1 72.3870 14.5714 56.7532 0.0000 0.0000 0.0000
# 2 14.5714 44.2177 19.6727 0.0000 0.0000 0.0000
# 3 56.7532 19.6727 146.6984 0.0000 0.0000 0.0000
# 4 0.0000 0.0000 0.0000 115.1363 0.0000 0.0000
# 5 0.0000 0.0000 0.0000 0.0000 19.0653 0.0000
# 6 0.0000 0.0000 0.0000 0.0000 0.0000 10.5781
#
#
#
# Elastic Compliance Matrix: (Units=1/GPa)
#
#
# Indices 1 2 3 4 5 6 
#
# 1 0.020298 -0.003398 -0.007397 0.000000 0.000000 0.000000
# 2 -0.003398 0.024619 -0.001987 0.000000 0.000000 0.000000
# 3 -0.007397 -0.001987 0.009945 0.000000 0.000000 0.000000
# 4 0.000000 0.000000 0.000000 0.008685 0.000000 0.000000
# 5 0.000000 0.000000 0.000000 0.000000 0.052451 0.000000
# 6 0.000000 0.000000 0.000000 0.000000 0.000000 0.094535
#
#
# Mechanical properties :
#
#
# Convention : Reuss Voigt Hill
#
# Bulk Modulus (GPa) = 34.13181 49.47753 41.80467
# Shear Modulus (GPa) = 20.33647 40.44300 30.38974
#
# Velocity S-wave (km/s) = 3.38269 4.77030 4.13512
# Velocity P-wave (km/s) = 5.87039 7.62760 6.80595
#
# Compressibility (1/GPa) = 0.02929818
#
# Stress axis : x y z
#
# Youngs Moduli (GPa) = 49.26566 40.61879 100.55443
#
# Poissons Ratio (x) = 0.13802 0.74381
# Poissons Ratio (y) = 0.16740 0.19979
# Poissons Ratio (z) = 0.36442 0.08071
#
# Static dielectric constant tensor:
#      x y z
#    x 2.147000 0.000000 0.000000 
#    y 0.000000 1.598210 0.000000 
#    z 0.000000 0.000000 1.654630 
# 
# From -- ./inp_files/75767.got.cif
#   From: 2010.05.17/outbox.cif.g08.bks.cpg/sg65_38_cif.got.tgz:75767.got - 2010.06.03 17:01:31.
