data_PCOD9482268
_publ_section_title
;
Structure prediction by ZEFSAII (Michael W. Deem and Ramdas Pophale) SiO2 
 PCOD9482268
Probable space group: C M C A
;
_chemical_formula_sum "Si O2"
_cell_formula_units_Z 88
_cell_length_a 7.345353
_cell_length_b 19.718686
_cell_length_c 23.299168
_cell_angle_alpha 90.000000
_cell_angle_beta 90.000000
_cell_angle_gamma 90.000000
_cell_volume 3374.668021
_symmetry_space_group_name_H-M "C M C A"
_symmetry_group_IT_number 64
_symmetry_cell_setting 'orthorhombic'
loop_
_space_group_symop_operation_xyz
x,y,z
-x,1/2-y,1/2+z
x,-y,-z
-x,1/2+y,1/2-z
-x,-y,-z
x,1/2+y,1/2-z
-x,y,z
x,1/2-y,1/2+z
1/2+x,1/2+y,z
1/2-x,-y,1/2+z
1/2+x,1/2-y,-z
1/2-x,y,1/2-z
1/2-x,1/2-y,-z
1/2+x,y,1/2-z
1/2-x,1/2+y,z
1/2+x,-y,1/2+z
loop_
_atom_site_type_symbol
_atom_site_label
_atom_site_fract_x
_atom_site_fract_y
_atom_site_fract_z
Si Si1 0.791052 0.060268 0.536173
Si Si2 0.799195 0.635232 0.315871
Si Si3 0.284309 0.836980 0.189002
Si Si4 0.791046 0.983293 0.331603
Si Si5 0.500000 0.190793 0.092957
Si Si6 0.219708 0.290173 0.064744
O O1 0.796783 0.031707 0.600485
O O2 0.000000 0.068606 0.513895
O O3 0.704050 0.000000 0.500000
O O4 0.721138 0.136715 0.539162
O O5 0.750000 0.652282 0.250000
O O6 0.803377 0.553367 0.318520
O O7 0.657759 0.657874 0.364332
O O8 0.000000 0.663533 0.328433
O O9 0.500000 0.844677 0.180928
O O10 0.250000 0.803308 0.250000
O O11 0.208079 0.913354 0.191446
O O12 0.216286 0.799622 0.132652
O O13 0.000000 0.990993 0.311509
O O14 0.340092 0.225228 0.050508
O O15 0.000000 0.284259 0.065367
#
# Coordination Sequence:
#
# PCOD9482268 Si02
#       6
#    16  16  16  16   8  16
#     4   8  15  33  66 101 125 153 191 250 319 372
#     4  12  24  41  59  85 113 161 214 252 293 343
#     4   9  18  30  48  78 112 146 180 231 290 356
#     4   9  17  34  57  85 122 150 189 246 302 356
#     4  12  24  40  59  78 117 162 201 250 285 348
#     4   9  20  38  56  86 122 155 199 243 301 358
#
# _framework density 26.076639
#
# number of rings (size 3 to 8) (size 9 to 14) (size 15 to 20)
#    0.000    2.364    1.818    3.273    1.273    2.909 
#    8.182    0.455    0.000    1.091    0.000    0.000 
#    0.000    0.000    0.000    0.000    0.000    0.000 
#
# Total GULP energy -245141.667353 kJ/mol
# GULP energy per Si atom -5571.401531 kJ/mol
# Density = 2.601729 g / cm^3
# Si number density = 26.076639 Si / 1000 Ang^3
#
#
#
# Elastic Constant Matrix: (Units=GPa)
#
#
# Indices 1 2 3 4 5 6 
#
# 1 172.8209 18.3717 5.3941 0.0000 0.0000 0.0000
# 2 18.3717 149.0686 39.3023 0.0000 0.0000 0.0000
# 3 5.3941 39.3023 59.8955 0.0000 0.0000 0.0000
# 4 0.0000 0.0000 0.0000 -15.5002 0.0000 0.0000
# 5 0.0000 0.0000 0.0000 0.0000 21.7307 0.0000
# 6 0.0000 0.0000 0.0000 0.0000 0.0000 32.4982
#
#
#
# Elastic Compliance Matrix: (Units=1/GPa)
#
#
# Indices 1 2 3 4 5 6 
#
# 1 0.005863 -0.000705 -0.000065 0.000000 0.000000 0.000000
# 2 -0.000705 0.008197 -0.005315 0.000000 0.000000 0.000000
# 3 -0.000065 -0.005315 0.020189 0.000000 0.000000 0.000000
# 4 0.000000 0.000000 0.000000 -0.064515 0.000000 0.000000
# 5 0.000000 0.000000 0.000000 0.000000 0.046018 0.000000
# 6 0.000000 0.000000 0.000000 0.000000 0.000000 0.030771
#
#
# Mechanical properties :
#
#
# Convention : Reuss Voigt Hill
#
# Bulk Modulus (GPa) = 45.29379 56.43570 50.86475
# Shear Modulus (GPa) = 75.69695 28.99353 52.34524
#
# Velocity S-wave (km/s) = 5.39367 3.33807 4.48522
# Velocity P-wave (km/s) = 7.49640 6.04534 6.80964
#
# Compressibility (1/GPa) = 0.02207808
#
# Stress axis : x y z
#
# Youngs Moduli (GPa) = 170.55063 122.00258 49.53160
#
# Poissons Ratio (x) = 0.08607 0.00323
# Poissons Ratio (y) = 0.12031 0.26325
# Poissons Ratio (z) = 0.01111 0.64843
#
# Static dielectric constant tensor:
#      x y z
#    x 1.808080 0.000000 0.000000 
#    y 0.000000 2.090290 0.000000 
#    z 0.000000 0.000000 2.167720 
# 
# From -- ./inp_files/52002.got.cif
#   From: 2010.05.17/outbox.cif.g08.bks.cpg/sg64_27_cif.got.tgz:52002.got - 2010.06.03 16:29:19.
