data_PCOD9482996
_publ_section_title
;
Structure prediction by ZEFSAII (Michael W. Deem and Ramdas Pophale) SiO2 
 PCOD9482996
Probable space group: C M M M
;
_chemical_formula_sum "Si O2"
_cell_formula_units_Z 96
_cell_length_a 23.802429
_cell_length_b 15.574510
_cell_length_c 14.027431
_cell_angle_alpha 90.000000
_cell_angle_beta 90.000000
_cell_angle_gamma 90.000000
_cell_volume 5200.125337
_symmetry_space_group_name_H-M "C M M M"
_symmetry_group_IT_number 65
_symmetry_cell_setting 'orthorhombic'
loop_
_space_group_symop_operation_xyz
x,y,z
-x,-y,z
x,-y,-z
-x,y,-z
-x,-y,-z
x,y,-z
-x,y,z
x,-y,z
1/2+x,1/2+y,z
1/2-x,1/2-y,z
1/2+x,1/2-y,-z
1/2-x,1/2+y,-z
1/2-x,1/2-y,-z
1/2+x,1/2+y,-z
1/2-x,1/2+y,z
1/2+x,1/2-y,z
loop_
_atom_site_type_symbol
_atom_site_label
_atom_site_fract_x
_atom_site_fract_y
_atom_site_fract_z
Si Si1 0.621765 0.598389 0.887783
Si Si2 0.000000 0.140956 0.810023
Si Si3 0.183248 0.251827 0.219355
Si Si4 0.500000 0.833648 0.885503
Si Si5 0.888598 0.315249 0.610613
Si Si6 0.500000 0.301432 0.607254
Si Si7 0.435066 0.000000 0.616449
Si Si8 0.621863 0.904499 0.114533
O O1 0.640710 0.500000 0.875705
O O2 0.556753 0.604763 0.855570
O O3 0.657103 0.665658 0.825994
O O4 0.625301 0.620853 0.000000
O O5 0.000000 0.242751 0.832989
O O6 0.000000 0.133449 0.695562
O O7 0.250000 0.250000 0.220830
O O8 0.156874 0.270636 0.322698
O O9 0.160645 0.330833 0.156285
O O10 0.443121 0.883644 0.861974
O O11 0.500000 0.817862 0.000000
O O12 0.871342 0.318726 0.500000
O O13 0.945554 0.259455 0.615998
O O14 0.903792 0.412048 0.643234
O O15 0.500000 0.338688 0.500000
O O16 0.500000 0.000000 0.649241
O O17 0.437248 0.000000 0.500000
O O18 0.636718 0.000000 0.147345
O O19 0.625706 0.902592 0.000000
#
# Coordination Sequence:
#
# PCOD9482996 Si02
#       8
#    16   8  16   8  16   8   8  16
#     4  11  24  42  65  91 119 155 204 262 314 360
#     4  12  19  36  64  93 122 155 195 246 311 367
#     4  12  26  42  60  84 116 165 214 258 297 348
#     4  10  17  31  59  90 124 155 185 232 303 380
#     4  10  20  37  61  90 124 160 195 240 300 363
#     4  10  18  32  61  94 123 156 192 235 304 375
#     4   9  16  30  58  96 129 151 181 230 292 369
#     4  10  21  37  59  89 123 156 190 237 303 378
#
# _framework density 18.461093000000002
#
# number of rings (size 3 to 8) (size 9 to 14) (size 15 to 20)
#    0.000    1.417    4.167    1.750    1.167    4.000 
#    0.000    1.667    0.000    2.500    0.000    0.000 
#    0.000    0.000    0.000    0.000    0.000    0.000 
#
# Total GULP energy -268319.110428 kJ/mol
# GULP energy per Si atom -5589.981467 kJ/mol
# Density = 1.841908 g / cm^3
# Si number density = 18.461093 Si / 1000 Ang^3
#
#
#
# Elastic Constant Matrix: (Units=GPa)
#
#
# Indices 1 2 3 4 5 6 
#
# 1 146.9057 56.2648 56.9266 0.0000 0.0000 0.0000
# 2 56.2648 102.2738 58.9006 0.0000 0.0000 0.0000
# 3 56.9266 58.9006 117.4090 0.0000 0.0000 0.0000
# 4 0.0000 0.0000 0.0000 12.1556 0.0000 0.0000
# 5 0.0000 0.0000 0.0000 0.0000 1.9326 0.0000
# 6 0.0000 0.0000 0.0000 0.0000 0.0000 -15.4064
#
#
#
# Elastic Compliance Matrix: (Units=1/GPa)
#
#
# Indices 1 2 3 4 5 6 
#
# 1 0.009195 -0.003503 -0.002701 0.000000 0.000000 0.000000
# 2 -0.003503 0.015085 -0.005869 0.000000 0.000000 0.000000
# 3 -0.002701 -0.005869 0.012771 0.000000 0.000000 0.000000
# 4 0.000000 0.000000 0.000000 0.082267 0.000000 0.000000
# 5 0.000000 0.000000 0.000000 0.000000 0.517447 0.000000
# 6 0.000000 0.000000 0.000000 0.000000 0.000000 -0.064908
#
#
# Mechanical properties :
#
#
# Convention : Reuss Voigt Hill
#
# Bulk Modulus (GPa) = 77.48978 78.97473 78.23225
# Shear Modulus (GPa) = 8.32908 12.70277 10.51593
#
# Velocity S-wave (km/s) = 2.12638 2.62598 2.38927
# Velocity P-wave (km/s) = 6.93501 7.21569 7.07675
#
# Compressibility (1/GPa) = 0.01290493
#
# Stress axis : x y z
#
# Youngs Moduli (GPa) = 108.74894 66.29071 78.30098
#
# Poissons Ratio (x) = 0.23223 0.21149
# Poissons Ratio (y) = 0.38097 0.45956
# Poissons Ratio (z) = 0.29373 0.38907
#
# Static dielectric constant tensor:
#      x y z
#    x 1.592070 0.000000 0.000000 
#    y 0.000000 1.631000 0.000000 
#    z 0.000000 0.000000 1.679010 
# 
# From -- ./inp_files/44206.got.cif
#   From: 2010.05.17/outbox.cif.g08.bks.cpg/sg65_23_cif.got.tgz:44206.got - 2010.06.03 17:01:31.
