data_PCOD9482155
_publ_section_title
;
Structure prediction by ZEFSAII (Michael W. Deem and Ramdas Pophale) SiO2 
 PCOD9482155
Probable space group: C M C A
;
_chemical_formula_sum "Si O2"
_cell_formula_units_Z 112
_cell_length_a 30.253057
_cell_length_b 11.223787
_cell_length_c 14.203663
_cell_angle_alpha 90.000000
_cell_angle_beta 90.000000
_cell_angle_gamma 90.000000
_cell_volume 4822.908710
_symmetry_space_group_name_H-M "C M C A"
_symmetry_group_IT_number 64
_symmetry_cell_setting 'orthorhombic'
loop_
_space_group_symop_operation_xyz
x,y,z
-x,1/2-y,1/2+z
x,-y,-z
-x,1/2+y,1/2-z
-x,-y,-z
x,1/2+y,1/2-z
-x,y,z
x,1/2-y,1/2+z
1/2+x,1/2+y,z
1/2-x,-y,1/2+z
1/2+x,1/2-y,-z
1/2-x,y,1/2-z
1/2-x,1/2-y,-z
1/2+x,y,1/2-z
1/2-x,1/2+y,z
1/2+x,-y,1/2+z
loop_
_atom_site_type_symbol
_atom_site_label
_atom_site_fract_x
_atom_site_fract_y
_atom_site_fract_z
Si Si1 0.948549 0.624358 0.210973
Si Si2 0.079475 0.866742 0.308185
Si Si3 0.162344 0.023795 0.604400
Si Si4 0.639922 0.139131 0.515881
Si Si5 0.549668 0.214970 0.004224
Si Si6 0.286871 0.762491 0.116599
Si Si7 0.809917 0.272178 0.833966
O O1 0.934368 0.491137 0.241585
O O2 0.925332 0.741636 0.254199
O O3 0.943700 0.635218 0.097686
O O4 0.000000 0.638279 0.234777
O O5 0.128950 0.891770 0.341351
O O6 0.051893 0.853283 0.405084
O O7 0.207606 0.097039 0.595421
O O8 0.144976 0.000000 0.500000
O O9 0.167264 0.899388 0.655048
O O10 0.591485 0.196129 0.502139
O O11 0.676545 0.194879 0.445219
O O12 0.658717 0.174404 0.618518
O O13 0.637711 0.000000 0.500000
O O14 0.500000 0.268134 0.013302
O O15 0.236169 0.723567 0.107659
O O16 0.297993 0.747556 0.226548
#
# Coordination Sequence:
#
# PCOD9482155 Si02
#       7
#    16  16  16  16  16  16  16
#     4  11  25  44  73 107 140 191 248 305 369 441
#     4  12  25  46  75 105 149 191 246 307 376 437
#     4  12  25  45  75 104 145 193 245 294 359 451
#     4  12  27  45  71 104 146 188 239 305 377 435
#     4  11  25  47  71 104 144 194 249 300 364 447
#     4  11  27  46  71 108 139 194 238 295 374 433
#     4  11  27  46  73 107 147 185 244 304 363 444
#
# _framework density 23.2225
#
# number of rings (size 3 to 8) (size 9 to 14) (size 15 to 20)
#    0.000    0.571    2.857    3.857    8.000    3.714 
#    0.000    1.429    0.000    0.000    0.000    0.000 
#    0.000    0.000    0.000    0.000    0.000    0.000 
#
# Total GULP energy -313459.595005 kJ/mol
# GULP energy per Si atom -5597.492768 kJ/mol
# Density = 2.316964 g / cm^3
# Si number density = 23.222500 Si / 1000 Ang^3
#
#
#
# Elastic Constant Matrix: (Units=GPa)
#
#
# Indices 1 2 3 4 5 6 
#
# 1 127.6057 31.5982 25.7129 0.0000 0.0000 0.0000
# 2 31.5982 150.2582 33.5127 0.0000 0.0000 0.0000
# 3 25.7129 33.5127 87.1821 0.0000 0.0000 0.0000
# 4 0.0000 0.0000 0.0000 22.5073 0.0000 0.0000
# 5 0.0000 0.0000 0.0000 0.0000 25.4503 0.0000
# 6 0.0000 0.0000 0.0000 0.0000 0.0000 29.6878
#
#
#
# Elastic Compliance Matrix: (Units=1/GPa)
#
#
# Indices 1 2 3 4 5 6 
#
# 1 0.008577 -0.001356 -0.002009 0.000000 0.000000 0.000000
# 2 -0.001356 0.007494 -0.002481 0.000000 0.000000 0.000000
# 3 -0.002009 -0.002481 0.013016 0.000000 0.000000 0.000000
# 4 0.000000 0.000000 0.000000 0.044430 0.000000 0.000000
# 5 0.000000 0.000000 0.000000 0.000000 0.039292 0.000000
# 6 0.000000 0.000000 0.000000 0.000000 0.000000 0.033684
#
#
# Mechanical properties :
#
#
# Convention : Reuss Voigt Hill
#
# Bulk Modulus (GPa) = 57.48117 60.74372 59.11245
# Shear Modulus (GPa) = 30.49119 33.81057 32.15088
#
# Velocity S-wave (km/s) = 3.62747 3.81982 3.72488
# Velocity P-wave (km/s) = 6.50775 6.75786 6.63399
#
# Compressibility (1/GPa) = 0.01739700
#
# Stress axis : x y z
#
# Youngs Moduli (GPa) = 116.58985 133.44752 76.82740
#
# Poissons Ratio (x) = 0.18092 0.15431
# Poissons Ratio (y) = 0.15806 0.19058
# Poissons Ratio (z) = 0.23417 0.33104
#
# Static dielectric constant tensor:
#      x y z
#    x 1.909700 0.000000 0.000000 
#    y 0.000000 1.469990 0.000000 
#    z 0.000000 0.000000 1.867860 
# 
# From -- ./inp_files/28425.got.cif
#   From: 2010.05.17/outbox.cif.g08.bks.cpg/sg64_15_cif.got.tgz:28425.got - 2010.06.03 16:29:19.
