data_PCOD9482681
_publ_section_title
;
Structure prediction by ZEFSAII (Michael W. Deem and Ramdas Pophale) SiO2 
 PCOD9482681
Probable space group: C M M M
;
_chemical_formula_sum "Si O2"
_cell_formula_units_Z 112
_cell_length_a 16.711768
_cell_length_b 20.126326
_cell_length_c 20.283786
_cell_angle_alpha 90.000000
_cell_angle_beta 90.000000
_cell_angle_gamma 90.000000
_cell_volume 6822.380241
_symmetry_space_group_name_H-M "C M M M"
_symmetry_group_IT_number 65
_symmetry_cell_setting 'orthorhombic'
loop_
_space_group_symop_operation_xyz
x,y,z
-x,-y,z
x,-y,-z
-x,y,-z
-x,-y,-z
x,y,-z
-x,y,z
x,-y,z
1/2+x,1/2+y,z
1/2-x,1/2-y,z
1/2+x,1/2-y,-z
1/2-x,1/2+y,-z
1/2-x,1/2-y,-z
1/2+x,1/2+y,-z
1/2-x,1/2+y,z
1/2+x,1/2-y,z
loop_
_atom_site_type_symbol
_atom_site_label
_atom_site_fract_x
_atom_site_fract_y
_atom_site_fract_z
Si Si1 0.000000 0.425148 0.136620
Si Si2 0.500000 0.784509 0.076390
Si Si3 0.095983 0.925524 0.348990
Si Si4 0.826201 0.925323 0.204353
Si Si5 0.597517 0.705329 0.425715
Si Si6 0.409300 0.296216 0.821596
Si Si7 0.097225 0.292667 0.302707
Si Si8 0.856925 0.574213 0.241419
O O1 0.076517 0.418436 0.184634
O O2 0.000000 0.500000 0.108435
O O3 0.000000 0.363397 0.087531
O O4 0.425317 0.751873 0.116263
O O5 0.500000 0.767593 0.000000
O O6 0.137451 0.917921 0.278077
O O7 0.120474 0.867189 0.398217
O O8 0.000000 0.920455 0.339602
O O9 0.113440 0.000000 0.373592
O O10 0.859367 0.862181 0.165186
O O11 0.730983 0.921677 0.210669
O O12 0.848238 0.000000 0.180980
O O13 0.625787 0.717162 0.500000
O O14 0.500000 0.706714 0.426927
O O15 0.622393 0.758516 0.370675
O O16 0.500000 0.318359 0.802717
O O17 0.378111 0.253416 0.759639
O O18 0.130405 0.366068 0.291931
O O19 0.000000 0.295935 0.300356
O O20 0.866348 0.500000 0.270243
#
# Coordination Sequence:
#
# PCOD9482681 Si02
#       8
#     8   8  16  16  16  16  16  16
#     4  10  18  35  56  77 103 133 163 204 265 307
#     4  10  20  35  55  82 108 135 169 204 237 292
#     4   9  16  27  44  66  99 135 165 202 252 301
#     4  10  19  29  47  78 105 129 169 212 248 291
#     4   9  17  27  43  68  98 129 166 210 250 299
#     4   9  17  31  51  75 102 135 162 199 240 289
#     4  10  16  30  50  71  96 128 164 206 254 298
#     4  10  19  31  51  77 101 125 165 217 258 297
#
# _framework density 16.416557000000001
#
# number of rings (size 3 to 8) (size 9 to 14) (size 15 to 20)
#    0.429    2.000    3.571    0.429    0.000    1.857 
#    0.000    1.429    0.000    4.714    0.000    6.000 
#    0.000    0.000    0.000    0.000    0.000    0.000 
#
# Total GULP energy -311825.675269 kJ/mol
# GULP energy per Si atom -5568.315630 kJ/mol
# Density = 1.637919 g / cm^3
# Si number density = 16.416557 Si / 1000 Ang^3
#
#
#
# Elastic Constant Matrix: (Units=GPa)
#
#
# Indices 1 2 3 4 5 6 
#
# 1 32.8998 26.4553 10.9448 0.0000 0.0000 0.0000
# 2 26.4553 140.2235 50.5387 0.0000 0.0000 0.0000
# 3 10.9448 50.5387 79.8747 0.0000 0.0000 0.0000
# 4 0.0000 0.0000 0.0000 17.0168 0.0000 0.0000
# 5 0.0000 0.0000 0.0000 0.0000 2.7521 0.0000
# 6 0.0000 0.0000 0.0000 0.0000 0.0000 1.9085
#
#
#
# Elastic Compliance Matrix: (Units=1/GPa)
#
#
# Indices 1 2 3 4 5 6 
#
# 1 0.035873 -0.006472 -0.000820 0.000000 0.000000 0.000000
# 2 -0.006472 0.010406 -0.005697 0.000000 0.000000 0.000000
# 3 -0.000820 -0.005697 0.016237 0.000000 0.000000 0.000000
# 4 0.000000 0.000000 0.000000 0.058766 0.000000 0.000000
# 5 0.000000 0.000000 0.000000 0.000000 0.363365 0.000000
# 6 0.000000 0.000000 0.000000 0.000000 0.000000 0.523973
#
#
# Mechanical properties :
#
#
# Convention : Reuss Voigt Hill
#
# Bulk Modulus (GPa) = 27.37043 47.65287 37.51165
# Shear Modulus (GPa) = 4.77657 15.33940 10.05798
#
# Velocity S-wave (km/s) = 1.70761 3.06009 2.47791
# Velocity P-wave (km/s) = 4.53834 6.44793 5.57550
#
# Compressibility (1/GPa) = 0.03653578
#
# Stress axis : x y z
#
# Youngs Moduli (GPa) = 27.87638 96.09889 61.58853
#
# Poissons Ratio (x) = 0.62198 0.05052
# Poissons Ratio (y) = 0.18042 0.35088
# Poissons Ratio (z) = 0.02287 0.54750
#
# Static dielectric constant tensor:
#      x y z
#    x 1.560570 0.000000 0.000000 
#    y 0.000000 1.587150 0.000000 
#    z 0.000000 0.000000 1.526920 
# 
# From -- ./inp_files/64078.got.cif
#   From: 2010.05.17/outbox.cif.g08.bks.cpg/sg65_33_cif.got.tgz:64078.got - 2010.06.03 17:01:31.
