data_PCOD9482547
_publ_section_title
;
Structure prediction by ZEFSAII (Michael W. Deem and Ramdas Pophale) SiO2 
 PCOD9482547
Probable space group: C M M M
;
_chemical_formula_sum "Si O2"
_cell_formula_units_Z 72
_cell_length_a 14.780498
_cell_length_b 8.656332
_cell_length_c 26.782729
_cell_angle_alpha 90.000000
_cell_angle_beta 90.000000
_cell_angle_gamma 90.000000
_cell_volume 3426.713525
_symmetry_space_group_name_H-M "C M M M"
_symmetry_group_IT_number 65
_symmetry_cell_setting 'orthorhombic'
loop_
_space_group_symop_operation_xyz
x,y,z
-x,-y,z
x,-y,-z
-x,y,-z
-x,-y,-z
x,y,-z
-x,y,z
x,-y,z
1/2+x,1/2+y,z
1/2-x,1/2-y,z
1/2+x,1/2-y,-z
1/2-x,1/2+y,-z
1/2-x,1/2-y,-z
1/2+x,1/2+y,-z
1/2-x,1/2+y,z
1/2+x,1/2-y,z
loop_
_atom_site_type_symbol
_atom_site_label
_atom_site_fract_x
_atom_site_fract_y
_atom_site_fract_z
Si Si1 0.000000 0.185076 0.942418
Si Si2 0.852789 0.685337 0.445375
Si Si3 0.353121 0.316022 0.656786
Si Si4 0.648550 0.185181 0.869433
Si Si5 0.352479 0.814889 0.758807
O O1 0.086369 0.246819 0.912410
O O2 0.000000 0.000000 0.941419
O O3 0.000000 0.236277 0.000000
O O4 0.892714 0.723428 0.500000
O O5 0.850556 0.500000 0.440765
O O6 0.750000 0.750000 0.446885
O O7 0.894241 0.755196 0.395065
O O8 0.350544 0.500000 0.656555
O O9 0.250000 0.250000 0.656915
O O10 0.394322 0.256344 0.708763
O O11 0.750000 0.250000 0.873164
O O12 0.610742 0.223838 0.813807
O O13 0.650875 0.000000 0.872774
O O14 0.250000 0.750000 0.760569
O O15 0.351126 0.000000 0.753556
#
# Coordination Sequence:
#
# PCOD9482547 Si02
#       5
#     8  16  16  16  16
#     4  11  25  43  63  89 121 157 196 237 282 335
#     4   9  15  21  28  39  61  98 145 197 252 309
#     4  10  16  21  32  50  75 109 151 201 255 312
#     4  10  21  38  62  89 118 154 194 239 289 341
#     4   9  16  27  44  67  94 125 165 212 264 321
#
# _framework density 21.011385000000001
#
# number of rings (size 3 to 8) (size 9 to 14) (size 15 to 20)
#    0.000    2.333    0.000    7.000    0.000    5.333 
#    0.000    0.000    0.000    0.000    0.000    0.000 
#    0.000    0.000    0.000    1.000    0.000   21.778 
#
# Total GULP energy -200915.286937 kJ/mol
# GULP energy per Si atom -5580.980193 kJ/mol
# Density = 2.096356 g / cm^3
# Si number density = 21.011385 Si / 1000 Ang^3
#
#
#
# Elastic Constant Matrix: (Units=GPa)
#
#
# Indices 1 2 3 4 5 6 
#
# 1 86.7949 22.5768 61.5781 0.0000 0.0000 0.0000
# 2 22.5768 116.1689 94.4469 0.0000 0.0000 0.0000
# 3 61.5781 94.4469 274.8174 0.0000 0.0000 0.0000
# 4 0.0000 0.0000 0.0000 38.2391 0.0000 0.0000
# 5 0.0000 0.0000 0.0000 0.0000 216.9719 0.0000
# 6 0.0000 0.0000 0.0000 0.0000 0.0000 4.2306
#
#
#
# Elastic Compliance Matrix: (Units=1/GPa)
#
#
# Indices 1 2 3 4 5 6 
#
# 1 0.013704 -0.000231 -0.002991 0.000000 0.000000 0.000000
# 2 -0.000231 0.011950 -0.004055 0.000000 0.000000 0.000000
# 3 -0.002991 -0.004055 0.005703 0.000000 0.000000 0.000000
# 4 0.000000 0.000000 0.000000 0.026151 0.000000 0.000000
# 5 0.000000 0.000000 0.000000 0.000000 0.004609 0.000000
# 6 0.000000 0.000000 0.000000 0.000000 0.000000 0.236373
#
#
# Mechanical properties :
#
#
# Convention : Reuss Voigt Hill
#
# Bulk Modulus (GPa) = 59.51973 92.77606 76.14790
# Shear Modulus (GPa) = 15.69146 71.83360 43.76253
#
# Velocity S-wave (km/s) = 2.73574 5.85339 4.56872
# Velocity P-wave (km/s) = 6.19418 9.48335 8.00943
#
# Compressibility (1/GPa) = 0.01680115
#
# Stress axis : x y z
#
# Youngs Moduli (GPa) = 72.97322 83.68285 175.36025
#
# Poissons Ratio (x) = 0.01937 0.52450
# Poissons Ratio (y) = 0.01689 0.71108
# Poissons Ratio (z) = 0.21826 0.33933
#
# Static dielectric constant tensor:
#      x y z
#    x 2.076260 0.000000 0.000000 
#    y 0.000000 1.691120 0.000000 
#    z 0.000000 0.000000 1.818140 
# 
# From -- ./inp_files/74614.got.cif
#   From: 2010.05.17/outbox.cif.g08.bks.cpg/sg65_38_cif.got.tgz:74614.got - 2010.06.03 17:01:31.
