data_PCOD9482296
_publ_section_title
;
Structure prediction by ZEFSAII (Michael W. Deem and Ramdas Pophale) SiO2 
 PCOD9482296
Probable space group: C M C A
;
_chemical_formula_sum "Si O2"
_cell_formula_units_Z 48
_cell_length_a 14.340532
_cell_length_b 8.038740
_cell_length_c 17.193530
_cell_angle_alpha 90.000000
_cell_angle_beta 90.000000
_cell_angle_gamma 90.000000
_cell_volume 1982.066841
_symmetry_space_group_name_H-M "C M C A"
_symmetry_group_IT_number 64
_symmetry_cell_setting 'orthorhombic'
loop_
_space_group_symop_operation_xyz
x,y,z
-x,1/2-y,1/2+z
x,-y,-z
-x,1/2+y,1/2-z
-x,-y,-z
x,1/2+y,1/2-z
-x,y,z
x,1/2-y,1/2+z
1/2+x,1/2+y,z
1/2-x,-y,1/2+z
1/2+x,1/2-y,-z
1/2-x,y,1/2-z
1/2-x,1/2-y,-z
1/2+x,y,1/2-z
1/2-x,1/2+y,z
1/2+x,-y,1/2+z
loop_
_atom_site_type_symbol
_atom_site_label
_atom_site_fract_x
_atom_site_fract_y
_atom_site_fract_z
Si Si1 0.000000 0.397785 0.621631
Si Si2 0.312905 0.550452 0.321075
Si Si3 0.682261 0.751689 0.073478
Si Si4 0.000000 0.748990 0.718317
O O1 0.091054 0.363287 0.570012
O O2 0.000000 0.575015 0.669071
O O3 0.000000 0.250308 0.687490
O O4 0.250000 0.475685 0.250000
O O5 0.339320 0.433967 0.394175
O O6 0.241127 0.679793 0.355869
O O7 0.406536 0.646522 0.298067
O O8 0.750000 0.750000 0.000000
#
# Coordination Sequence:
#
# PCOD9482296 Si02
#       4
#     8  16  16   8
#     4  12  26  49  77 116 154 202 260 321 393 461
#     4  12  25  46  77 113 152 203 262 321 387 460
#     4  12  27  48  76 115 161 205 256 320 394 465
#     4  12  26  47  83 117 152 198 268 330 379 463
#
# _framework density 24.217146
#
# number of rings (size 3 to 8) (size 9 to 14) (size 15 to 20)
#    0.000    0.000    3.333    7.000    0.000    1.333 
#    0.000   10.000    0.000    0.000    0.000    0.000 
#    0.000    0.000    0.000    0.000    0.000    0.000 
#
# Total GULP energy -134120.920991 kJ/mol
# GULP energy per Si atom -5588.371708 kJ/mol
# Density = 2.416203 g / cm^3
# Si number density = 24.217146 Si / 1000 Ang^3
#
#
#
# Elastic Constant Matrix: (Units=GPa)
#
#
# Indices 1 2 3 4 5 6 
#
# 1 223.9681 50.3500 68.1782 0.0000 0.0000 0.0000
# 2 50.3500 97.2907 49.0289 0.0000 0.0000 0.0000
# 3 68.1782 49.0289 131.1134 0.0000 0.0000 0.0000
# 4 0.0000 0.0000 0.0000 34.7972 0.0000 0.0000
# 5 0.0000 0.0000 0.0000 0.0000 42.8769 0.0000
# 6 0.0000 0.0000 0.0000 0.0000 0.0000 -10.2581
#
#
#
# Elastic Compliance Matrix: (Units=1/GPa)
#
#
# Indices 1 2 3 4 5 6 
#
# 1 0.005534 -0.001742 -0.002226 0.000000 0.000000 0.000000
# 2 -0.001742 0.013214 -0.004035 0.000000 0.000000 0.000000
# 3 -0.002226 -0.004035 0.010294 0.000000 0.000000 0.000000
# 4 0.000000 0.000000 0.000000 0.028738 0.000000 0.000000
# 5 0.000000 0.000000 0.000000 0.000000 0.023323 0.000000
# 6 0.000000 0.000000 0.000000 0.000000 0.000000 -0.097483
#
#
# Mechanical properties :
#
#
# Convention : Reuss Voigt Hill
#
# Bulk Modulus (GPa) = 76.72201 87.49851 82.11026
# Shear Modulus (GPa) = 1259.23870 32.47087 645.85479
#
# Velocity S-wave (km/s) = 22.82777 3.66570 16.34846
# Velocity P-wave (km/s) = 26.95476 7.35702 19.75708
#
# Compressibility (1/GPa) = 0.01303407
#
# Stress axis : x y z
#
# Youngs Moduli (GPa) = 180.69153 75.67964 97.14773
#
# Poissons Ratio (x) = 0.13185 0.21628
# Poissons Ratio (y) = 0.31480 0.39201
# Poissons Ratio (z) = 0.40228 0.30538
#
# Static dielectric constant tensor:
#      x y z
#    x 2.627110 0.000000 0.000000 
#    y 0.000000 2.018130 0.000000 
#    z 0.000000 0.000000 2.057300 
# 
# From -- ./inp_files/31449.got.cif
#   From: 2010.05.17/outbox.cif.g08.bks.cpg/sg64_16_cif.got.tgz:31449.got - 2010.06.03 16:29:19.
