data_PCOD9482435
_publ_section_title
;
Structure prediction by ZEFSAII (Michael W. Deem and Ramdas Pophale) SiO2 
 PCOD9482435
Probable space group: C M C A
;
_chemical_formula_sum "Si O2"
_cell_formula_units_Z 40
_cell_length_a 9.000000
_cell_length_b 18.000000
_cell_length_c 27.000000
_cell_angle_alpha 90.000000
_cell_angle_beta 90.000000
_cell_angle_gamma 90.000000
_cell_volume 4374.000000
_symmetry_space_group_name_H-M "C M C A"
_symmetry_group_IT_number 64
_symmetry_cell_setting 'orthorhombic'
loop_
_space_group_symop_operation_xyz
x,y,z
-x,1/2-y,1/2+z
x,-y,-z
-x,1/2+y,1/2-z
-x,-y,-z
x,1/2+y,1/2-z
-x,y,z
x,1/2-y,1/2+z
1/2+x,1/2+y,z
1/2-x,-y,1/2+z
1/2+x,1/2-y,-z
1/2-x,y,1/2-z
1/2-x,1/2-y,-z
1/2+x,y,1/2-z
1/2-x,1/2+y,z
1/2+x,-y,1/2+z
loop_
_atom_site_type_symbol
_atom_site_label
_atom_site_fract_x
_atom_site_fract_y
_atom_site_fract_z
Si Si1 0.679694 0.167608 0.501690
Si Si2 0.821813 0.658123 0.696978
Si Si3 0.677573 0.411004 0.401824
Si Si4 0.822451 0.411101 0.906072
Si Si5 0.323194 0.164462 0.197789
O O1 0.500000 0.170571 0.503194
O O2 0.750000 0.250000 0.500000
O O3 0.742736 0.127230 0.551057
O O4 0.735638 0.124737 0.452294
O O5 0.750000 0.635774 0.750000
O O6 0.747280 0.618394 0.649760
O O7 0.796053 0.747108 0.691714
O O8 0.000000 0.645608 0.697658
O O9 0.500000 0.395226 0.403011
O O10 0.696817 0.500036 0.405339
O O11 0.775312 0.377082 0.852678
O O12 0.000000 0.395462 0.912099
O O13 0.500000 0.153273 0.202415
O O14 0.250000 0.140781 0.250000
#
# Coordination Sequence:
#
# PCOD9482435 Si02
#       5
#    16  16  16  16  16
#     4  12  25  41  63  88 115 151 196 243 292 351
#     4  10  20  36  59  85 116 155 201 249 295 347
#     4  11  23  39  60  87 121 157 193 240 297 352
#     4  10  22  40  60  86 121 156 191 238 295 350
#     4   9  19  36  58  83 112 149 192 238 287 339
#
# _framework density 9.1449470000000002
#
# number of rings (size 3 to 8) (size 9 to 14) (size 15 to 20)
#    0.000    1.600    0.000    4.800    0.000    8.000 
#    0.000    2.000    0.000    0.000    0.000    0.000 
#    0.000    0.000    0.000    0.000    0.000    0.000 
#
# Total GULP energy -223557.567613 kJ/mol
# GULP energy per Si atom -5588.939190 kJ/mol
# Density = 0.912413 g / cm^3
# Si number density = 9.144947 Si / 1000 Ang^3
#
#
#
# Elastic Constant Matrix: (Units=GPa)
#
#
# Indices 1 2 3 4 5 6 
#
# 1 138.7349 72.2160 100.7636 0.0000 0.0000 0.0000
# 2 72.2160 100.9390 92.3212 0.0000 0.0000 0.0000
# 3 100.7636 92.3212 229.5837 0.0000 0.0000 0.0000
# 4 0.0000 0.0000 0.0000 33.0596 0.0000 0.0000
# 5 0.0000 0.0000 0.0000 0.0000 46.7113 0.0000
# 6 0.0000 0.0000 0.0000 0.0000 0.0000 25.7574
#
#
#
# Elastic Compliance Matrix: (Units=1/GPa)
#
#
# Indices 1 2 3 4 5 6 
#
# 1 0.012696 -0.006306 -0.003036 0.000000 0.000000 0.000000
# 2 -0.006306 0.018803 -0.004793 0.000000 0.000000 0.000000
# 3 -0.003036 -0.004793 0.007616 0.000000 0.000000 0.000000
# 4 0.000000 0.000000 0.000000 0.030248 0.000000 0.000000
# 5 0.000000 0.000000 0.000000 0.000000 0.021408 0.000000
# 6 0.000000 0.000000 0.000000 0.000000 0.000000 0.038824
#
#
# Mechanical properties :
#
#
# Convention : Reuss Voigt Hill
#
# Bulk Modulus (GPa) = 92.22566 111.09545 101.66056
# Shear Modulus (GPa) = 30.96356 34.70278 32.83317
#
# Velocity S-wave (km/s) = 4.11899 4.36061 4.24152
# Velocity P-wave (km/s) = 8.55309 9.28583 8.92698
#
# Compressibility (1/GPa) = 0.01084297
#
# Stress axis : x y z
#
# Youngs Moduli (GPa) = 78.76652 53.18415 131.30493
#
# Poissons Ratio (x) = 0.33538 0.39869
# Poissons Ratio (y) = 0.49670 0.62939
# Poissons Ratio (z) = 0.23916 0.25493
#
# Static dielectric constant tensor:
#      x y z
#    x 1.619780 0.000000 0.000000 
#    y 0.000000 1.619950 0.000000 
#    z 0.000000 0.000000 1.602230 
# 
# From -- ./inp_files/47899.got.cif
#   From: 2010.05.17/outbox.ucp.g08.bks.cvg/sg64_24_cif.got.tgz:47899.got - 2010.06.11 16:36:46.
