data_PCOD9482398
_publ_section_title
;
Structure prediction by ZEFSAII (Michael W. Deem and Ramdas Pophale) SiO2 
 PCOD9482398
Probable space group: C M C A
;
_chemical_formula_sum "Si O2"
_cell_formula_units_Z 40
_cell_length_a 9.000000
_cell_length_b 27.000000
_cell_length_c 18.000000
_cell_angle_alpha 90.000000
_cell_angle_beta 90.000000
_cell_angle_gamma 90.000000
_cell_volume 4374.000000
_symmetry_space_group_name_H-M "C M C A"
_symmetry_group_IT_number 64
_symmetry_cell_setting 'orthorhombic'
loop_
_space_group_symop_operation_xyz
x,y,z
-x,1/2-y,1/2+z
x,-y,-z
-x,1/2+y,1/2-z
-x,-y,-z
x,1/2+y,1/2-z
-x,y,z
x,1/2-y,1/2+z
1/2+x,1/2+y,z
1/2-x,-y,1/2+z
1/2+x,1/2-y,-z
1/2-x,y,1/2-z
1/2-x,1/2-y,-z
1/2+x,y,1/2-z
1/2-x,1/2+y,z
1/2+x,-y,1/2+z
loop_
_atom_site_type_symbol
_atom_site_label
_atom_site_fract_x
_atom_site_fract_y
_atom_site_fract_z
Si Si1 0.324170 0.021820 0.583694
Si Si2 0.319923 0.833900 0.590059
Si Si3 0.178434 0.637679 0.579823
Si Si4 0.179024 0.069237 0.331179
Si Si5 0.818826 0.736806 0.667888
O O1 0.500000 0.020143 0.604997
O O2 0.272340 0.079762 0.588608
O O3 0.315836 0.000000 0.500000
O O4 0.230996 0.982300 0.631067
O O5 0.500000 0.832931 0.600939
O O6 0.288719 0.842514 0.502848
O O7 0.249076 0.882319 0.629007
O O8 0.247555 0.782902 0.620303
O O9 0.224596 0.682383 0.634955
O O10 0.000000 0.634598 0.585945
O O11 0.250000 0.069265 0.250000
O O12 0.000000 0.072717 0.330274
O O13 0.750000 0.741381 0.750000
O O14 0.000000 0.740084 0.668822
#
# Coordination Sequence:
#
# PCOD9482398 Si02
#       5
#    16  16  16  16  16
#     4  10  19  39  66  90 122 162 198 244 303 363
#     4  11  21  40  65  90 118 157 202 251 308 365
#     4   9  20  38  64  91 120 158 201 244 301 365
#     4  12  25  40  60  91 125 161 204 254 305 361
#     4  11  23  40  59  87 123 160 201 248 300 359
#
# _framework density 9.1449470000000002
#
# number of rings (size 3 to 8) (size 9 to 14) (size 15 to 20)
#    0.000    1.400    2.000    4.200    0.000    1.200 
#    0.000    7.000    0.000    0.000    0.000    0.000 
#    0.000    0.000    0.000    0.000    0.000    0.000 
#
# Total GULP energy -223265.167484 kJ/mol
# GULP energy per Si atom -5581.629187 kJ/mol
# Density = 0.912413 g / cm^3
# Si number density = 9.144947 Si / 1000 Ang^3
#
#
#
# Elastic Constant Matrix: (Units=GPa)
#
#
# Indices 1 2 3 4 5 6 
#
# 1 101.1862 39.2471 30.7579 0.0000 0.0000 0.0000
# 2 39.2471 181.9819 41.0021 0.0000 0.0000 0.0000
# 3 30.7579 41.0021 69.8622 0.0000 0.0000 0.0000
# 4 0.0000 0.0000 0.0000 35.7797 0.0000 0.0000
# 5 0.0000 0.0000 0.0000 0.0000 20.8441 0.0000
# 6 0.0000 0.0000 0.0000 0.0000 0.0000 39.4800
#
#
#
# Elastic Compliance Matrix: (Units=1/GPa)
#
#
# Indices 1 2 3 4 5 6 
#
# 1 0.011792 -0.001583 -0.004263 0.000000 0.000000 0.000000
# 2 -0.001583 0.006545 -0.003144 0.000000 0.000000 0.000000
# 3 -0.004263 -0.003144 0.018036 0.000000 0.000000 0.000000
# 4 0.000000 0.000000 0.000000 0.027949 0.000000 0.000000
# 5 0.000000 0.000000 0.000000 0.000000 0.047975 0.000000
# 6 0.000000 0.000000 0.000000 0.000000 0.000000 0.025329
#
#
# Mechanical properties :
#
#
# Convention : Reuss Voigt Hill
#
# Bulk Modulus (GPa) = 54.36717 63.89383 59.13050
# Shear Modulus (GPa) = 30.91421 35.35563 33.13492
#
# Velocity S-wave (km/s) = 4.11571 4.40144 4.26097
# Velocity P-wave (km/s) = 7.23707 7.80000 7.52380
#
# Compressibility (1/GPa) = 0.01839345
#
# Stress axis : x y z
#
# Youngs Moduli (GPa) = 84.79983 152.79203 55.44429
#
# Poissons Ratio (x) = 0.24183 0.23635
# Poissons Ratio (y) = 0.13422 0.17434
# Poissons Ratio (z) = 0.36149 0.48043
#
# Static dielectric constant tensor:
#      x y z
#    x 1.614570 0.000000 0.000000 
#    y 0.000000 1.637010 0.000000 
#    z 0.000000 0.000000 1.651870 
# 
# From -- ./inp_files/29777.got.cif
#   From: 2010.05.17/outbox.ucp.g08.bks.cvg/sg64_15_cif.got.tgz:29777.got - 2010.06.11 16:36:46.
