data_PCOD9482764
_publ_section_title
;
Structure prediction by ZEFSAII (Michael W. Deem and Ramdas Pophale) SiO2 
 PCOD9482764
Probable space group: C M M M
;
_chemical_formula_sum "Si O2"
_cell_formula_units_Z 72
_cell_length_a 14.888212
_cell_length_b 19.894165
_cell_length_c 13.686951
_cell_angle_alpha 90.000000
_cell_angle_beta 90.000000
_cell_angle_gamma 90.000000
_cell_volume 4053.918117
_symmetry_space_group_name_H-M "C M M M"
_symmetry_group_IT_number 65
_symmetry_cell_setting 'orthorhombic'
loop_
_space_group_symop_operation_xyz
x,y,z
-x,-y,z
x,-y,-z
-x,y,-z
-x,-y,-z
x,y,-z
-x,y,z
x,-y,z
1/2+x,1/2+y,z
1/2-x,1/2-y,z
1/2+x,1/2-y,-z
1/2-x,1/2+y,-z
1/2-x,1/2-y,-z
1/2+x,1/2+y,-z
1/2-x,1/2+y,z
1/2+x,1/2-y,z
loop_
_atom_site_type_symbol
_atom_site_label
_atom_site_fract_x
_atom_site_fract_y
_atom_site_fract_z
Si Si1 0.390544 0.078038 0.500000
Si Si2 0.102980 0.645860 0.303013
Si Si3 0.108999 0.421020 0.891409
Si Si4 0.849703 0.220303 0.612486
Si Si5 0.108382 0.072820 0.616241
O O1 0.500000 0.083987 0.500000
O O2 0.356356 0.113263 0.598520
O O3 0.367481 0.000000 0.500000
O O4 0.143149 0.621742 0.200616
O O5 0.101503 0.725329 0.320359
O O6 0.000000 0.620950 0.301368
O O7 0.128225 0.500000 0.875456
O O8 0.000000 0.414875 0.894855
O O9 0.141889 0.401859 0.000000
O O10 0.885474 0.221430 0.500000
O O11 0.750000 0.250000 0.608739
O O12 0.854330 0.144331 0.651064
O O13 0.127784 0.071533 0.500000
O O14 0.000000 0.075520 0.626651
O O15 0.139137 0.000000 0.656445
#
# Coordination Sequence:
#
# PCOD9482764 Si02
#       5
#     8  16  16  16  16
#     4   9  16  24  35  56  85 113 139 164 192 238
#     4  10  17  26  42  61  82 112 147 179 211 257
#     4   8  14  25  41  61  85 112 143 180 214 242
#     4  10  19  29  40  57  89 117 139 172 222 274
#     4   8  14  26  44  60  74 102 147 189 215 243
#
# _framework density 17.760594999999999
#
# number of rings (size 3 to 8) (size 9 to 14) (size 15 to 20)
#    0.000    3.000    1.111    2.667    0.000    3.556 
#    0.000    2.222    0.000    0.667    0.000    0.000 
#    0.000    0.889    0.000    8.222    0.000    0.222 
#
# Total GULP energy -200405.916365 kJ/mol
# GULP energy per Si atom -5566.831010 kJ/mol
# Density = 1.772017 g / cm^3
# Si number density = 17.760595 Si / 1000 Ang^3
#
#
#
# Elastic Constant Matrix: (Units=GPa)
#
#
# Indices 1 2 3 4 5 6 
#
# 1 19.1775 8.9152 10.1912 0.0000 0.0000 0.0000
# 2 8.9152 165.1577 73.3305 0.0000 0.0000 0.0000
# 3 10.1912 73.3305 118.2265 0.0000 0.0000 0.0000
# 4 0.0000 0.0000 0.0000 14.6919 0.0000 0.0000
# 5 0.0000 0.0000 0.0000 0.0000 2.7995 0.0000
# 6 0.0000 0.0000 0.0000 0.0000 0.0000 9.3514
#
#
#
# Elastic Compliance Matrix: (Units=1/GPa)
#
#
# Indices 1 2 3 4 5 6 
#
# 1 0.054816 -0.001188 -0.003988 0.000000 0.000000 0.000000
# 2 -0.001188 0.008382 -0.005096 0.000000 0.000000 0.000000
# 3 -0.003988 -0.005096 0.011963 0.000000 0.000000 0.000000
# 4 0.000000 0.000000 0.000000 0.068065 0.000000 0.000000
# 5 0.000000 0.000000 0.000000 0.000000 0.357202 0.000000
# 6 0.000000 0.000000 0.000000 0.000000 0.000000 0.106936
#
#
# Mechanical properties :
#
#
# Convention : Reuss Voigt Hill
#
# Bulk Modulus (GPa) = 18.30979 54.15950 36.23465
# Shear Modulus (GPa) = 7.73856 19.37688 13.55772
#
# Velocity S-wave (km/s) = 2.08964 3.30662 2.76589
# Velocity P-wave (km/s) = 4.01917 6.71853 5.53590
#
# Compressibility (1/GPa) = 0.05461558
#
# Stress axis : x y z
#
# Youngs Moduli (GPa) = 18.24277 119.30627 83.58964
#
# Poissons Ratio (x) = 0.14176 0.33337
# Poissons Ratio (y) = 0.02168 0.42601
# Poissons Ratio (z) = 0.07276 0.60803
#
# Static dielectric constant tensor:
#      x y z
#    x 1.679150 0.000000 0.000000 
#    y 0.000000 1.701580 0.000000 
#    z 0.000000 0.000000 1.623870 
# 
# From -- ./inp_files/28474.got.cif
#   From: 2010.05.17/outbox.cif.g08.bks.cpg/sg65_15_cif.got.tgz:28474.got - 2010.06.03 17:01:31.
