data_PCOD9482987
_publ_section_title
;
Structure prediction by ZEFSAII (Michael W. Deem and Ramdas Pophale) SiO2 
 PCOD9482987
Probable space group: C M M M
;
_chemical_formula_sum "Si O2"
_cell_formula_units_Z 112
_cell_length_a 27.245143
_cell_length_b 15.862804
_cell_length_c 13.835266
_cell_angle_alpha 90.000000
_cell_angle_beta 90.000000
_cell_angle_gamma 90.000000
_cell_volume 5979.385628
_symmetry_space_group_name_H-M "C M M M"
_symmetry_group_IT_number 65
_symmetry_cell_setting 'orthorhombic'
loop_
_space_group_symop_operation_xyz
x,y,z
-x,-y,z
x,-y,-z
-x,y,-z
-x,-y,-z
x,y,-z
-x,y,z
x,-y,z
1/2+x,1/2+y,z
1/2-x,1/2-y,z
1/2+x,1/2-y,-z
1/2-x,1/2+y,-z
1/2-x,1/2-y,-z
1/2+x,1/2+y,-z
1/2-x,1/2+y,z
1/2+x,1/2-y,z
loop_
_atom_site_type_symbol
_atom_site_label
_atom_site_fract_x
_atom_site_fract_y
_atom_site_fract_z
Si Si1 0.941705 0.264992 0.778554
Si Si2 0.690829 0.092821 0.698644
Si Si3 0.296016 0.305562 0.107990
Si Si4 0.637493 0.855958 0.109829
Si Si5 0.807924 0.095268 0.708466
Si Si6 0.059526 0.907006 0.110275
Si Si7 0.866259 0.249258 0.386457
O O1 0.915442 0.337588 0.842591
O O2 0.929677 0.173924 0.825960
O O3 0.915875 0.261983 0.674659
O O4 0.000000 0.275511 0.775479
O O5 0.671542 0.098507 0.810232
O O6 0.749451 0.100053 0.689412
O O7 0.666620 0.170197 0.642836
O O8 0.676383 0.000000 0.662027
O O9 0.250000 0.250000 0.146434
O O10 0.338664 0.236960 0.103381
O O11 0.310829 0.379557 0.178754
O O12 0.282819 0.334274 0.000000
O O13 0.636368 0.890113 0.000000
O O14 0.837880 0.165813 0.650637
O O15 0.824344 0.000000 0.689264
O O16 0.000000 0.909811 0.105835
O O17 0.075807 0.000000 0.144682
O O18 0.077403 0.895267 0.000000
O O19 0.874204 0.244934 0.500000
#
# Coordination Sequence:
#
# PCOD9482987 Si02
#       7
#    16  16  16  16  16  16  16
#     4  10  20  35  56  80 107 145 195 243 288 339
#     4  10  21  37  61  90 116 146 187 229 279 348
#     4  10  17  31  54  80 117 159 191 221 263 323
#     4  10  19  32  54  84 120 155 186 221 269 325
#     4  11  21  36  58  86 120 155 190 226 276 342
#     4   8  14  26  46  73 104 137 174 217 265 319
#     4  11  24  42  60  79 110 146 188 248 306 348
#
# _framework density 18.731021999999999
#
# number of rings (size 3 to 8) (size 9 to 14) (size 15 to 20)
#    0.000    2.000    4.286    1.286    0.000    4.000 
#    0.000    2.857    0.000    6.857    0.000   11.000 
#    0.000    0.000    0.000    0.000    0.000    0.000 
#
# Total GULP energy -312347.396058 kJ/mol
# GULP energy per Si atom -5577.632072 kJ/mol
# Density = 1.868839 g / cm^3
# Si number density = 18.731022 Si / 1000 Ang^3
#
#
#
# Elastic Constant Matrix: (Units=GPa)
#
#
# Indices 1 2 3 4 5 6 
#
# 1 91.4038 13.8983 16.0989 0.0000 0.0000 0.0000
# 2 13.8983 67.7346 7.9416 0.0000 0.0000 0.0000
# 3 16.0989 7.9416 81.3256 0.0000 0.0000 0.0000
# 4 0.0000 0.0000 0.0000 -2.0773 0.0000 0.0000
# 5 0.0000 0.0000 0.0000 0.0000 13.6283 0.0000
# 6 0.0000 0.0000 0.0000 0.0000 0.0000 8.1893
#
#
#
# Elastic Compliance Matrix: (Units=1/GPa)
#
#
# Indices 1 2 3 4 5 6 
#
# 1 0.011635 -0.002142 -0.002094 0.000000 0.000000 0.000000
# 2 -0.002142 0.015329 -0.001073 0.000000 0.000000 0.000000
# 3 -0.002094 -0.001073 0.012816 0.000000 0.000000 0.000000
# 4 0.000000 0.000000 0.000000 -0.481399 0.000000 0.000000
# 5 0.000000 0.000000 0.000000 0.000000 0.073377 0.000000
# 6 0.000000 0.000000 0.000000 0.000000 0.000000 0.122111
#
#
# Mechanical properties :
#
#
# Convention : Reuss Voigt Hill
#
# Bulk Modulus (GPa) = 34.29154 35.14909 34.72032
# Shear Modulus (GPa) = -22.14412 17.44973 -2.34719
#
# Velocity S-wave (km/s) = -3.44207 3.05552 -1.12064
# Velocity P-wave (km/s) = 1.59687 5.59054 4.11121
#
# Compressibility (1/GPa) = 0.02916171
#
# Stress axis : x y z
#
# Youngs Moduli (GPa) = 85.94787 65.23680 78.03021
#
# Poissons Ratio (x) = 0.13973 0.16340
# Poissons Ratio (y) = 0.18409 0.08372
# Poissons Ratio (z) = 0.17998 0.06999
#
# Static dielectric constant tensor:
#      x y z
#    x 1.672430 0.000000 0.000000 
#    y 0.000000 1.660250 0.000000 
#    z 0.000000 0.000000 1.665690 
# 
# From -- ./inp_files/47019.got.cif
#   From: 2010.05.17/outbox.cif.g08.bks.cpg/sg65_24_cif.got.tgz:47019.got - 2010.06.03 17:01:31.
