data_PCOD9482295
_publ_section_title
;
Structure prediction by ZEFSAII (Michael W. Deem and Ramdas Pophale) SiO2 
 PCOD9482295
Probable space group: C M C A
;
_chemical_formula_sum "Si O2"
_cell_formula_units_Z 32
_cell_length_a 18.391926
_cell_length_b 14.024063
_cell_length_c 4.747471
_cell_angle_alpha 90.000000
_cell_angle_beta 90.000000
_cell_angle_gamma 90.000000
_cell_volume 1224.512959
_symmetry_space_group_name_H-M "C M C A"
_symmetry_group_IT_number 64
_symmetry_cell_setting 'orthorhombic'
loop_
_space_group_symop_operation_xyz
x,y,z
-x,1/2-y,1/2+z
x,-y,-z
-x,1/2+y,1/2-z
-x,-y,-z
x,1/2+y,1/2-z
-x,y,z
x,1/2-y,1/2+z
1/2+x,1/2+y,z
1/2-x,-y,1/2+z
1/2+x,1/2-y,-z
1/2-x,y,1/2-z
1/2-x,1/2-y,-z
1/2+x,y,1/2-z
1/2-x,1/2+y,z
1/2+x,-y,1/2+z
loop_
_atom_site_type_symbol
_atom_site_label
_atom_site_fract_x
_atom_site_fract_y
_atom_site_fract_z
Si Si1 0.750000 0.554894 0.250000
Si Si2 0.349689 0.183835 0.648060
Si Si3 0.500000 0.924442 0.258860
O O1 0.704862 0.500000 0.500000
O O2 0.695815 0.607528 0.031742
O O3 0.334369 0.221052 0.961998
O O4 0.430423 0.143386 0.690886
O O5 0.500000 0.000000 0.500000
O O6 0.500000 0.000000 0.000000
#
# Coordination Sequence:
#
# PCOD9482295 Si02
#       3
#     8  16   8
#     4  12  26  46  72 108 152 204 262 324 384 458
#     4  12  25  46  73 107 147 197 253 316 385 460
#     4  12  26  46  74 110 147 192 247 314 388 462
#
# _framework density 26.132838
#
# number of rings (size 3 to 8) (size 9 to 14) (size 15 to 20)
#    0.000    0.000    0.000   10.500    0.000    4.000 
#    0.000    0.000    0.000    0.000    0.000    0.000 
#    0.000    0.000    0.000    0.000    0.000    0.000 
#
# Total GULP energy -89231.553580 kJ/mol
# GULP energy per Si atom -5576.972099 kJ/mol
# Density = 2.607336 g / cm^3
# Si number density = 26.132838 Si / 1000 Ang^3
#
#
#
# Elastic Constant Matrix: (Units=GPa)
#
#
# Indices 1 2 3 4 5 6 
#
# 1 180.2306 44.1951 52.8348 0.0000 0.0000 0.0000
# 2 44.1951 76.0961 37.1039 0.0000 0.0000 0.0000
# 3 52.8348 37.1039 251.2974 0.0000 0.0000 0.0000
# 4 0.0000 0.0000 0.0000 63.5396 0.0000 0.0000
# 5 0.0000 0.0000 0.0000 0.0000 29.6107 0.0000
# 6 0.0000 0.0000 0.0000 0.0000 0.0000 43.1180
#
#
#
# Elastic Compliance Matrix: (Units=1/GPa)
#
#
# Indices 1 2 3 4 5 6 
#
# 1 0.006650 -0.003427 -0.000892 0.000000 0.000000 0.000000
# 2 -0.003427 0.015927 -0.001631 0.000000 0.000000 0.000000
# 3 -0.000892 -0.001631 0.004408 0.000000 0.000000 0.000000
# 4 0.000000 0.000000 0.000000 0.015738 0.000000 0.000000
# 5 0.000000 0.000000 0.000000 0.000000 0.033772 0.000000
# 6 0.000000 0.000000 0.000000 0.000000 0.000000 0.023192
#
#
# Mechanical properties :
#
#
# Convention : Reuss Voigt Hill
#
# Bulk Modulus (GPa) = 66.29515 86.21020 76.25268
# Shear Modulus (GPa) = 42.87555 52.15300 47.51428
#
# Velocity S-wave (km/s) = 4.05492 4.47216 4.26864
# Velocity P-wave (km/s) = 6.88090 7.72838 7.31692
#
# Compressibility (1/GPa) = 0.01508406
#
# Stress axis : x y z
#
# Youngs Moduli (GPa) = 150.36586 62.78595 226.87322
#
# Poissons Ratio (x) = 0.21519 0.20241
# Poissons Ratio (y) = 0.51537 0.37004
# Poissons Ratio (z) = 0.13415 0.10241
#
# Static dielectric constant tensor:
#      x y z
#    x 1.977800 0.000000 0.000000 
#    y 0.000000 2.438430 0.000000 
#    z 0.000000 0.000000 1.928740 
# 
# From -- ./inp_files/1394.got.cif
#   From: 2010.05.17/outbox.cif.g08.bks.cpg/sg64_1_cif.got.tgz:1394.got - 2010.06.03 16:29:19.
