data_PCOD9482325
_publ_section_title
;
Structure prediction by ZEFSAII (Michael W. Deem and Ramdas Pophale) SiO2 
 PCOD9482325
Probable space group: C M C A
;
_chemical_formula_sum "Si O2"
_cell_formula_units_Z 96
_cell_length_a 11.247706
_cell_length_b 18.027258
_cell_length_c 19.160994
_cell_angle_alpha 90.000000
_cell_angle_beta 90.000000
_cell_angle_gamma 90.000000
_cell_volume 3885.184658
_symmetry_space_group_name_H-M "C M C A"
_symmetry_group_IT_number 64
_symmetry_cell_setting 'orthorhombic'
loop_
_space_group_symop_operation_xyz
x,y,z
-x,1/2-y,1/2+z
x,-y,-z
-x,1/2+y,1/2-z
-x,-y,-z
x,1/2+y,1/2-z
-x,y,z
x,1/2-y,1/2+z
1/2+x,1/2+y,z
1/2-x,-y,1/2+z
1/2+x,1/2-y,-z
1/2-x,y,1/2-z
1/2-x,1/2-y,-z
1/2+x,y,1/2-z
1/2-x,1/2+y,z
1/2+x,-y,1/2+z
loop_
_atom_site_type_symbol
_atom_site_label
_atom_site_fract_x
_atom_site_fract_y
_atom_site_fract_z
Si Si1 0.126617 0.194077 0.545245
Si Si2 0.873470 0.134459 0.390237
Si Si3 0.127445 0.738045 0.715042
Si Si4 0.131729 0.060992 0.791842
Si Si5 0.368233 0.850756 0.466294
Si Si6 0.867801 0.442126 0.599535
O O1 0.123593 0.147892 0.473031
O O2 0.248297 0.164137 0.577514
O O3 0.134370 0.280030 0.521417
O O4 0.000000 0.182884 0.582393
O O5 0.874868 0.215172 0.355802
O O6 0.751152 0.095392 0.370434
O O7 0.000000 0.097488 0.370583
O O8 0.250000 0.761824 0.750000
O O9 0.130595 0.649709 0.708966
O O10 0.000000 0.756788 0.750743
O O11 0.250000 0.037013 0.750000
O O12 0.137345 0.024919 0.869267
O O13 0.000000 0.037861 0.763887
O O14 0.500000 0.847739 0.434176
O O15 0.362321 0.921619 0.517643
O O16 0.000000 0.413956 0.621096
#
# Coordination Sequence:
#
# PCOD9482325 Si02
#       6
#    16  16  16  16  16  16
#     4   8  13  22  37  57  81 107 133 161 195 237
#     4   9  17  28  43  64  87 109 135 170 208 242
#     4   9  18  32  47  61  80 109 142 172 204 245
#     4   9  18  32  47  61  80 109 142 172 204 245
#     4   8  13  22  37  57  81 107 133 161 195 237
#     4   9  17  28  43  64  87 109 135 170 208 242
#
# _framework density 24.709250000000001
#
# number of rings (size 3 to 8) (size 9 to 14) (size 15 to 20)
#    0.000    3.333    0.000    0.000    0.000    2.000 
#    0.000    3.333    0.000    1.000    0.000    7.000 
#    0.000    0.000    0.000   62.333    0.000   34.000 
#
# Total GULP energy -267607.303182 kJ/mol
# GULP energy per Si atom -5575.152150 kJ/mol
# Density = 2.465301 g / cm^3
# Si number density = 24.709250 Si / 1000 Ang^3
#
#
#
# Elastic Constant Matrix: (Units=GPa)
#
#
# Indices 1 2 3 4 5 6 
#
# 1 310.7977 46.0598 43.6556 0.0000 0.0000 0.0000
# 2 46.0598 53.3084 -7.7216 0.0000 0.0000 0.0000
# 3 43.6556 -7.7216 47.1086 0.0000 0.0000 0.0000
# 4 0.0000 0.0000 0.0000 27.4595 0.0000 0.0000
# 5 0.0000 0.0000 0.0000 0.0000 20.6701 0.0000
# 6 0.0000 0.0000 0.0000 0.0000 0.0000 18.9292
#
#
#
# Elastic Compliance Matrix: (Units=1/GPa)
#
#
# Indices 1 2 3 4 5 6 
#
# 1 0.004631 -0.004736 -0.005068 0.000000 0.000000 0.000000
# 2 -0.004736 0.024057 0.008332 0.000000 0.000000 0.000000
# 3 -0.005068 0.008332 0.027290 0.000000 0.000000 0.000000
# 4 0.000000 0.000000 0.000000 0.036417 0.000000 0.000000
# 5 0.000000 0.000000 0.000000 0.000000 0.048379 0.000000
# 6 0.000000 0.000000 0.000000 0.000000 0.000000 0.052828
#
#
# Mechanical properties :
#
#
# Convention : Reuss Voigt Hill
#
# Bulk Modulus (GPa) = 18.85568 63.91136 41.38352
# Shear Modulus (GPa) = 23.34001 35.35983 29.34992
#
# Velocity S-wave (km/s) = 3.07675 3.78701 3.45020
# Velocity P-wave (km/s) = 4.50216 6.71144 5.71458
#
# Compressibility (1/GPa) = 0.05303443
#
# Stress axis : x y z
#
# Youngs Moduli (GPa) = 215.92755 41.56755 36.64397
#
# Poissons Ratio (x) = 0.19684 0.18571
# Poissons Ratio (y) = 1.02253 -0.30531
# Poissons Ratio (z) = 1.09430 -0.34633
#
# Static dielectric constant tensor:
#      x y z
#    x 2.040810 0.000000 0.000000 
#    y 0.000000 1.961360 0.000000 
#    z 0.000000 0.000000 1.940590 
# 
# From -- ./inp_files/17634.got.cif
#   From: 2010.05.17/outbox.cif.g08.bks.cpg/sg64_9_cif.got.tgz:17634.got - 2010.06.03 16:29:19.
