data_PCOD9482828
_publ_section_title
;
Structure prediction by ZEFSAII (Michael W. Deem and Ramdas Pophale) SiO2 
 PCOD9482828
Probable space group: C M M M
;
_chemical_formula_sum "Si O2"
_cell_formula_units_Z 96
_cell_length_a 32.923780
_cell_length_b 17.691871
_cell_length_c 9.807135
_cell_angle_alpha 90.000000
_cell_angle_beta 90.000000
_cell_angle_gamma 90.000000
_cell_volume 5712.492050
_symmetry_space_group_name_H-M "C M M M"
_symmetry_group_IT_number 65
_symmetry_cell_setting 'orthorhombic'
loop_
_space_group_symop_operation_xyz
x,y,z
-x,-y,z
x,-y,-z
-x,y,-z
-x,-y,-z
x,y,-z
-x,y,z
x,-y,z
1/2+x,1/2+y,z
1/2-x,1/2-y,z
1/2+x,1/2-y,-z
1/2-x,1/2+y,-z
1/2-x,1/2-y,-z
1/2+x,1/2+y,-z
1/2-x,1/2+y,z
1/2+x,1/2-y,z
loop_
_atom_site_type_symbol
_atom_site_label
_atom_site_fract_x
_atom_site_fract_y
_atom_site_fract_z
Si Si1 0.844408 0.414758 0.161612
Si Si2 0.455838 0.668056 0.161711
Si Si3 0.623336 0.242441 0.836221
Si Si4 0.136752 0.000000 0.653475
Si Si5 0.734540 0.911080 0.342750
Si Si6 0.954277 0.000000 0.730305
Si Si7 0.321916 0.346386 0.663841
O O1 0.857975 0.500000 0.197311
O O2 0.875928 0.347390 0.187486
O O3 0.803195 0.398695 0.243959
O O4 0.835554 0.413653 0.000000
O O5 0.500000 0.690749 0.219190
O O6 0.417542 0.715483 0.212815
O O7 0.451869 0.578290 0.186666
O O8 0.456774 0.680335 0.000000
O O9 0.660154 0.278764 0.751960
O O10 0.627990 0.255168 0.000000
O O11 0.153902 0.922052 0.712453
O O12 0.153556 0.000000 0.500000
O O13 0.087987 0.000000 0.649062
O O14 0.722346 0.897801 0.500000
O O15 0.774362 0.861886 0.314299
O O16 0.746350 0.000000 0.331788
O O17 0.000000 0.000000 0.666403
O O18 0.328479 0.335761 0.500000
#
# Coordination Sequence:
#
# PCOD9482828 Si02
#       7
#    16  16  16   8  16   8  16
#     4   9  19  35  52  69  93 123 155 197 249 294
#     4   9  17  29  46  69  97 126 155 190 231 276
#     4  10  20  33  50  72  95 123 160 199 239 285
#     4  10  18  30  45  64  98 137 163 190 231 277
#     4   9  17  31  51  71  93 126 166 198 229 277
#     4  10  17  27  46  69  95 126 162 194 228 275
#     4  10  19  32  49  70  99 132 162 195 235 276
#
# _framework density 16.805274000000001
#
# number of rings (size 3 to 8) (size 9 to 14) (size 15 to 20)
#    0.000    2.500    2.500    0.250    0.000    3.167 
#    0.000    3.750    0.000    1.000    0.000    3.500 
#    0.000    0.000    0.000    5.667    0.000    6.000 
#
# Total GULP energy -267205.087163 kJ/mol
# GULP energy per Si atom -5566.772649 kJ/mol
# Density = 1.676702 g / cm^3
# Si number density = 16.805274 Si / 1000 Ang^3
#
#
#
# Elastic Constant Matrix: (Units=GPa)
#
#
# Indices 1 2 3 4 5 6 
#
# 1 72.7378 50.4081 18.2181 0.0000 0.0000 0.0000
# 2 50.4081 105.9065 24.7080 0.0000 0.0000 0.0000
# 3 18.2181 24.7080 17.2287 0.0000 0.0000 0.0000
# 4 0.0000 0.0000 0.0000 16.3382 0.0000 0.0000
# 5 0.0000 0.0000 0.0000 0.0000 14.3599 0.0000
# 6 0.0000 0.0000 0.0000 0.0000 0.0000 18.7559
#
#
#
# Elastic Compliance Matrix: (Units=1/GPa)
#
#
# Indices 1 2 3 4 5 6 
#
# 1 0.022169 -0.007638 -0.012488 0.000000 0.000000 0.000000
# 2 -0.007638 0.016822 -0.016047 0.000000 0.000000 0.000000
# 3 -0.012488 -0.016047 0.094261 0.000000 0.000000 0.000000
# 4 0.000000 0.000000 0.000000 0.061206 0.000000 0.000000
# 5 0.000000 0.000000 0.000000 0.000000 0.069638 0.000000
# 6 0.000000 0.000000 0.000000 0.000000 0.000000 0.053317
#
#
# Mechanical properties :
#
#
# Convention : Reuss Voigt Hill
#
# Bulk Modulus (GPa) = 16.41904 42.50460 29.46182
# Shear Modulus (GPa) = 12.19326 16.72671 14.45998
#
# Velocity S-wave (km/s) = 2.69655 3.15830 2.93651
# Velocity P-wave (km/s) = 4.41436 6.21668 5.39137
#
# Compressibility (1/GPa) = 0.06090491
#
# Stress axis : x y z
#
# Youngs Moduli (GPa) = 45.10738 59.44684 10.60882
#
# Poissons Ratio (x) = 0.45408 0.13248
# Poissons Ratio (y) = 0.34455 0.17024
# Poissons Ratio (z) = 0.56330 0.95396
#
# Static dielectric constant tensor:
#      x y z
#    x 1.577730 0.000000 0.000000 
#    y 0.000000 1.600140 0.000000 
#    z 0.000000 0.000000 1.556700 
# 
# From -- ./inp_files/33912.got.cif
#   From: 2010.05.17/outbox.cif.g08.bks.cpg/sg65_17_cif.got.tgz:33912.got - 2010.06.03 17:01:31.
