data_PCOD9482248
_publ_section_title
;
Structure prediction by ZEFSAII (Michael W. Deem and Ramdas Pophale) SiO2 
 PCOD9482248
Probable space group: C M C A
;
_chemical_formula_sum "Si O2"
_cell_formula_units_Z 88
_cell_length_a 18.928768
_cell_length_b 13.434297
_cell_length_c 13.719291
_cell_angle_alpha 90.000000
_cell_angle_beta 90.000000
_cell_angle_gamma 90.000000
_cell_volume 3488.742868
_symmetry_space_group_name_H-M "C M C A"
_symmetry_group_IT_number 64
_symmetry_cell_setting 'orthorhombic'
loop_
_space_group_symop_operation_xyz
x,y,z
-x,1/2-y,1/2+z
x,-y,-z
-x,1/2+y,1/2-z
-x,-y,-z
x,1/2+y,1/2-z
-x,y,z
x,1/2-y,1/2+z
1/2+x,1/2+y,z
1/2-x,-y,1/2+z
1/2+x,1/2-y,-z
1/2-x,y,1/2-z
1/2-x,1/2-y,-z
1/2+x,y,1/2-z
1/2-x,1/2+y,z
1/2+x,-y,1/2+z
loop_
_atom_site_type_symbol
_atom_site_label
_atom_site_fract_x
_atom_site_fract_y
_atom_site_fract_z
Si Si1 0.349006 0.227412 0.806927
Si Si2 0.344844 0.163716 0.014049
Si Si3 0.500000 0.114831 0.518899
Si Si4 0.272156 0.064691 0.356446
Si Si5 0.652460 0.134754 0.604881
Si Si6 0.000000 0.319135 0.709230
Si Si7 0.000000 0.594803 0.076834
O O1 0.341994 0.153308 0.897989
O O2 0.314071 0.333349 0.832135
O O3 0.324022 0.177857 0.708276
O O4 0.429960 0.254069 0.783397
O O5 0.294340 0.092976 0.076323
O O6 0.322017 0.278091 0.033358
O O7 0.425922 0.147474 0.048427
O O8 0.569463 0.135821 0.581598
O O9 0.500000 0.153752 0.407009
O O10 0.500000 0.000000 0.500000
O O11 0.250000 0.028510 0.250000
O O12 0.319292 0.976880 0.400967
O O13 0.000000 0.399343 0.801428
O O14 0.000000 0.500000 0.000000
#
# Coordination Sequence:
#
# PCOD9482248 Si02
#       7
#    16  16   8  16  16   8   8
#     4  12  26  50  85 121 164 217 278 345 414 504
#     4  12  27  54  82 120 164 219 278 344 423 497
#     4  12  26  47  83 122 155 207 278 337 406 494
#     4  12  28  51  78 120 164 220 281 337 423 516
#     4  12  27  51  84 118 167 217 273 351 425 487
#     4  12  22  48  86 116 161 212 272 341 405 488
#     4  12  28  55  85 119 169 212 273 340 409 497
#
# _framework density 25.223986
#
# number of rings (size 3 to 8) (size 9 to 14) (size 15 to 20)
#    0.000    0.000    5.455    3.273    2.545    4.364 
#    6.545    0.000    0.000    0.000    0.000    0.000 
#    0.000    0.000    0.000    0.000    0.000    0.000 
#
# Total GULP energy -246367.934500 kJ/mol
# GULP energy per Si atom -5599.271239 kJ/mol
# Density = 2.516658 g / cm^3
# Si number density = 25.223986 Si / 1000 Ang^3
#
#
#
# Elastic Constant Matrix: (Units=GPa)
#
#
# Indices 1 2 3 4 5 6 
#
# 1 156.2905 56.8962 52.6945 0.0000 0.0000 0.0000
# 2 56.8962 137.3670 51.7953 0.0000 0.0000 0.0000
# 3 52.6945 51.7953 224.7987 0.0000 0.0000 0.0000
# 4 0.0000 0.0000 0.0000 30.0002 0.0000 0.0000
# 5 0.0000 0.0000 0.0000 0.0000 45.3076 0.0000
# 6 0.0000 0.0000 0.0000 0.0000 0.0000 32.5319
#
#
#
# Elastic Compliance Matrix: (Units=1/GPa)
#
#
# Indices 1 2 3 4 5 6 
#
# 1 0.007814 -0.002788 -0.001189 0.000000 0.000000 0.000000
# 2 -0.002788 0.008967 -0.001413 0.000000 0.000000 0.000000
# 3 -0.001189 -0.001413 0.005053 0.000000 0.000000 0.000000
# 4 0.000000 0.000000 0.000000 0.033333 0.000000 0.000000
# 5 0.000000 0.000000 0.000000 0.000000 0.022071 0.000000
# 6 0.000000 0.000000 0.000000 0.000000 0.000000 0.030739
#
#
# Mechanical properties :
#
#
# Convention : Reuss Voigt Hill
#
# Bulk Modulus (GPa) = 90.46393 93.46980 91.96687
# Shear Modulus (GPa) = 40.83545 45.37262 43.10403
#
# Velocity S-wave (km/s) = 4.02794 4.24581 4.13831
# Velocity P-wave (km/s) = 7.58778 7.82127 7.70541
#
# Compressibility (1/GPa) = 0.01105413
#
# Stress axis : x y z
#
# Youngs Moduli (GPa) = 127.96976 111.51725 197.91520
#
# Poissons Ratio (x) = 0.31093 0.23538
# Poissons Ratio (y) = 0.35680 0.27956
# Poissons Ratio (z) = 0.15220 0.15752
#
# Static dielectric constant tensor:
#      x y z
#    x 1.760410 0.000000 0.000000 
#    y 0.000000 1.944760 0.000000 
#    z 0.000000 0.000000 1.537720 
# 
# From -- ./inp_files/17194.got.cif
#   From: 2010.05.17/outbox.cif.g08.bks.cpg/sg64_9_cif.got.tgz:17194.got - 2010.06.03 16:29:19.
