data_PCOD9482023
_publ_section_title
;
Structure prediction by ZEFSAII (Michael W. Deem and Ramdas Pophale) SiO2 
 PCOD9482023
Probable space group: C M C A
;
_chemical_formula_sum "Si O2"
_cell_formula_units_Z 88
_cell_length_a 17.432929
_cell_length_b 9.738861
_cell_length_c 26.385645
_cell_angle_alpha 90.000000
_cell_angle_beta 90.000000
_cell_angle_gamma 90.000000
_cell_volume 4479.672283
_symmetry_space_group_name_H-M "C M C A"
_symmetry_group_IT_number 64
_symmetry_cell_setting 'orthorhombic'
loop_
_space_group_symop_operation_xyz
x,y,z
-x,1/2-y,1/2+z
x,-y,-z
-x,1/2+y,1/2-z
-x,-y,-z
x,1/2+y,1/2-z
-x,y,z
x,1/2-y,1/2+z
1/2+x,1/2+y,z
1/2-x,-y,1/2+z
1/2+x,1/2-y,-z
1/2-x,y,1/2-z
1/2-x,1/2-y,-z
1/2+x,y,1/2-z
1/2-x,1/2+y,z
1/2+x,-y,1/2+z
loop_
_atom_site_type_symbol
_atom_site_label
_atom_site_fract_x
_atom_site_fract_y
_atom_site_fract_z
Si Si1 0.090531 0.296286 0.221965
Si Si2 0.299740 0.833796 0.646313
Si Si3 0.705137 0.610082 0.915791
Si Si4 0.693134 0.500000 0.500000
Si Si5 0.909244 0.154354 0.416527
Si Si6 0.351410 0.089552 0.195401
O O1 0.123514 0.211784 0.174165
O O2 0.112693 0.211488 0.271796
O O3 0.130085 0.444686 0.220697
O O4 0.000000 0.314134 0.218801
O O5 0.259813 0.702279 0.620224
O O6 0.238693 0.885514 0.687973
O O7 0.306681 0.958449 0.606884
O O8 0.625699 0.692353 0.918377
O O9 0.750194 0.598169 0.968498
O O10 0.638930 0.426950 0.541087
O O11 0.887630 0.094043 0.361184
O O12 0.000000 0.148461 0.424516
#
# Coordination Sequence:
#
# PCOD9482023 Si02
#       6
#    16  16  16   8  16  16
#     4  12  25  41  65  97 130 170 212 268 326 379
#     4  11  23  44  67  95 126 177 214 262 315 395
#     4  11  23  42  71  96 127 169 220 265 321 381
#     4  12  21  44  73  92 128 176 222 260 325 404
#     4  11  24  42  67  99 133 168 217 275 327 383
#     4  11  25  44  66  93 133 173 220 260 319 396
#
# _framework density 19.644293999999999
#
# number of rings (size 3 to 8) (size 9 to 14) (size 15 to 20)
#    0.000    0.727    5.455    3.000    5.091    2.182 
#    0.000    1.364    0.000    0.000    0.000    0.000 
#    0.000    0.000    0.000    0.000    0.000    0.000 
#
# Total GULP energy -246078.733530 kJ/mol
# GULP energy per Si atom -5592.698489 kJ/mol
# Density = 1.959958 g / cm^3
# Si number density = 19.644294 Si / 1000 Ang^3
#
#
#
# Elastic Constant Matrix: (Units=GPa)
#
#
# Indices 1 2 3 4 5 6 
#
# 1 16.6140 9.5284 0.8957 0.0000 0.0000 0.0000
# 2 9.5284 94.7160 40.5088 0.0000 0.0000 0.0000
# 3 0.8957 40.5088 97.8137 0.0000 0.0000 0.0000
# 4 0.0000 0.0000 0.0000 34.4222 0.0000 0.0000
# 5 0.0000 0.0000 0.0000 0.0000 14.4009 0.0000
# 6 0.0000 0.0000 0.0000 0.0000 0.0000 14.1499
#
#
#
# Elastic Compliance Matrix: (Units=1/GPa)
#
#
# Indices 1 2 3 4 5 6 
#
# 1 0.064392 -0.007566 0.002544 0.000000 0.000000 0.000000
# 2 -0.007566 0.013719 -0.005613 0.000000 0.000000 0.000000
# 3 0.002544 -0.005613 0.012525 0.000000 0.000000 0.000000
# 4 0.000000 0.000000 0.000000 0.029051 0.000000 0.000000
# 5 0.000000 0.000000 0.000000 0.000000 0.069440 0.000000
# 6 0.000000 0.000000 0.000000 0.000000 0.000000 0.070672
#
#
# Mechanical properties :
#
#
# Convention : Reuss Voigt Hill
#
# Bulk Modulus (GPa) = 14.41607 34.55662 24.48634
# Shear Modulus (GPa) = 16.43706 23.14198 19.78952
#
# Velocity S-wave (km/s) = 2.89577 3.43600 3.17739
# Velocity P-wave (km/s) = 4.30525 5.77675 5.09441
#
# Compressibility (1/GPa) = 0.06936703
#
# Stress axis : x y z
#
# Youngs Moduli (GPa) = 15.52983 72.88952 79.84286
#
# Poissons Ratio (x) = 0.55146 -0.20309
# Poissons Ratio (y) = 0.11749 0.44812
# Poissons Ratio (z) = -0.03950 0.40909
#
# Static dielectric constant tensor:
#      x y z
#    x 1.651560 0.000000 0.000000 
#    y 0.000000 1.689400 0.000000 
#    z 0.000000 0.000000 1.703040 
# 
# From -- ./inp_files/53552.got.cif
#   From: 2010.05.17/outbox.cif.g08.bks.cpg/sg64_27_cif.got.tgz:53552.got - 2010.06.03 16:29:19.
