data_PCOD9482643
_publ_section_title
;
Structure prediction by ZEFSAII (Michael W. Deem and Ramdas Pophale) SiO2 
 PCOD9482643
Probable space group: C M M M
;
_chemical_formula_sum "Si O2"
_cell_formula_units_Z 52
_cell_length_a 14.439996
_cell_length_b 5.402823
_cell_length_c 31.779257
_cell_angle_alpha 90.000000
_cell_angle_beta 90.000000
_cell_angle_gamma 90.000000
_cell_volume 2479.314110
_symmetry_space_group_name_H-M "C M M M"
_symmetry_group_IT_number 65
_symmetry_cell_setting 'orthorhombic'
loop_
_space_group_symop_operation_xyz
x,y,z
-x,-y,z
x,-y,-z
-x,y,-z
-x,-y,-z
x,y,-z
-x,y,z
x,-y,z
1/2+x,1/2+y,z
1/2-x,1/2-y,z
1/2+x,1/2-y,-z
1/2-x,1/2+y,-z
1/2-x,1/2-y,-z
1/2+x,1/2+y,-z
1/2-x,1/2+y,z
1/2+x,1/2-y,z
loop_
_atom_site_type_symbol
_atom_site_label
_atom_site_fract_x
_atom_site_fract_y
_atom_site_fract_z
Si Si1 0.187402 0.500000 0.000000
Si Si2 0.886597 0.000000 0.230415
Si Si3 0.390277 0.000000 0.816800
Si Si4 0.312018 0.000000 0.453575
Si Si5 0.151403 0.000000 0.326527
Si Si6 0.362281 0.000000 0.361743
Si Si7 0.811363 0.500000 0.908722
O O1 0.250000 0.750000 0.000000
O O2 0.138246 0.500000 0.045553
O O3 0.858347 0.246905 0.205315
O O4 0.841907 0.000000 0.276460
O O5 0.000000 0.000000 0.235120
O O6 0.500000 0.000000 0.811397
O O7 0.369282 0.000000 0.866192
O O8 0.250000 0.750000 0.451158
O O9 0.356820 0.000000 0.500000
O O10 0.373129 0.000000 0.411798
O O11 0.102808 0.750754 0.341385
O O12 0.252071 0.000000 0.349330
O O13 0.750000 0.750000 0.907617
#
# Coordination Sequence:
#
# PCOD9482643 Si02
#       7
#     4   8   8   8   8   8   8
#     4   8  16  30  53  74 107 136 160 198 258 302
#     4  10  21  37  52  67  93 134 172 201 243 294
#     4  10  21  38  54  72 103 137 169 214 256 296
#     4  10  16  25  41  61  92 125 150 174 223 305
#     4  10  18  30  45  63  90 123 151 193 235 280
#     4  10  17  30  43  68  98 117 145 193 250 274
#     4  10  19  35  54  82 105 134 170 211 249 305
#
# _framework density 20.973541000000001
#
# number of rings (size 3 to 8) (size 9 to 14) (size 15 to 20)
#    0.000    2.154    3.077    1.846    0.000    0.000 
#   16.615    0.385    0.000    0.000    0.000    9.692 
#    0.000    6.769    0.000    0.000    0.000    0.000 
#
# Total GULP energy -145025.841120 kJ/mol
# GULP energy per Si atom -5577.916966 kJ/mol
# Density = 2.092580 g / cm^3
# Si number density = 20.973541 Si / 1000 Ang^3
#
#
#
# Elastic Constant Matrix: (Units=GPa)
#
#
# Indices 1 2 3 4 5 6 
#
# 1 56.6896 8.9098 4.7700 0.0000 0.0000 0.0000
# 2 8.9098 219.5131 71.7270 0.0000 0.0000 0.0000
# 3 4.7700 71.7270 225.5324 0.0000 0.0000 0.0000
# 4 0.0000 0.0000 0.0000 42.8756 0.0000 0.0000
# 5 0.0000 0.0000 0.0000 0.0000 -65.4224 0.0000
# 6 0.0000 0.0000 0.0000 0.0000 0.0000 -17.8630
#
#
#
# Elastic Compliance Matrix: (Units=1/GPa)
#
#
# Indices 1 2 3 4 5 6 
#
# 1 0.017759 -0.000667 -0.000163 0.000000 0.000000 0.000000
# 2 -0.000667 0.005109 -0.001611 0.000000 0.000000 0.000000
# 3 -0.000163 -0.001611 0.004950 0.000000 0.000000 0.000000
# 4 0.000000 0.000000 0.000000 0.023323 0.000000 0.000000
# 5 0.000000 0.000000 0.000000 0.000000 -0.015285 0.000000
# 6 0.000000 0.000000 0.000000 0.000000 0.000000 -0.055981
#
#
# Mechanical properties :
#
#
# Convention : Reuss Voigt Hill
#
# Bulk Modulus (GPa) = 43.60292 74.72763 59.16527
# Shear Modulus (GPa) = -658.01004 19.67325 -319.16840
#
# Velocity S-wave (km/s) = -17.73174 3.06601 -12.34937
# Velocity P-wave (km/s) = 19.95958 6.94555 13.23148
#
# Compressibility (1/GPa) = 0.02293424
#
# Stress axis : x y z
#
# Youngs Moduli (GPa) = 56.31087 195.73568 202.03385
#
# Poissons Ratio (x) = 0.13064 0.03300
# Poissons Ratio (y) = 0.03758 0.32542
# Poissons Ratio (z) = 0.00920 0.31527
#
# Static dielectric constant tensor:
#      x y z
#    x 1.774410 0.000000 0.000000 
#    y 0.000000 1.762720 0.000000 
#    z 0.000000 0.000000 1.743000 
# 
# From -- ./inp_files/74984.got.cif
#   From: 2010.05.17/outbox.cif.g08.bks.cpg/sg65_38_cif.got.tgz:74984.got - 2010.06.03 17:01:31.
