data_PCOD9482696
_publ_section_title
;
Structure prediction by ZEFSAII (Michael W. Deem and Ramdas Pophale) SiO2 
 PCOD9482696
Probable space group: C M M M
;
_chemical_formula_sum "Si O2"
_cell_formula_units_Z 60
_cell_length_a 25.967655
_cell_length_b 14.440690
_cell_length_c 8.999349
_cell_angle_alpha 90.000000
_cell_angle_beta 90.000000
_cell_angle_gamma 90.000000
_cell_volume 3374.673584
_symmetry_space_group_name_H-M "C M M M"
_symmetry_group_IT_number 65
_symmetry_cell_setting 'orthorhombic'
loop_
_space_group_symop_operation_xyz
x,y,z
-x,-y,z
x,-y,-z
-x,y,-z
-x,-y,-z
x,y,-z
-x,y,z
x,-y,z
1/2+x,1/2+y,z
1/2-x,1/2-y,z
1/2+x,1/2-y,-z
1/2-x,1/2+y,-z
1/2-x,1/2-y,-z
1/2+x,1/2+y,-z
1/2-x,1/2+y,z
1/2+x,1/2-y,z
loop_
_atom_site_type_symbol
_atom_site_label
_atom_site_fract_x
_atom_site_fract_y
_atom_site_fract_z
Si Si1 0.109532 0.692383 0.820316
Si Si2 0.000000 0.500000 0.000000
Si Si3 0.500000 0.843196 0.751221
Si Si4 0.646552 0.000000 0.319379
Si Si5 0.000000 0.500000 0.500000
Si Si6 0.239572 0.000000 0.179186
Si Si7 0.800865 0.185639 0.676470
O O1 0.051994 0.715810 0.767239
O O2 0.120942 0.590802 0.751360
O O3 0.151906 0.760089 0.750691
O O4 0.113070 0.689301 0.000000
O O5 0.000000 0.417747 0.879745
O O6 0.500000 0.916040 0.620387
O O7 0.642207 0.000000 0.500000
O O8 0.705568 0.000000 0.264670
O O9 0.210385 0.091367 0.235487
O O10 0.246639 0.000000 0.000000
O O11 0.809283 0.169380 0.500000
O O12 0.750000 0.250000 0.689256
#
# Coordination Sequence:
#
# PCOD9482696 Si02
#       7
#    16   2   8   8   2   8  16
#     4  12  24  39  61  88 125 166 210 252 304 366
#     4  10  16  42  56  82 128 168 196 242 312 348
#     4  11  24  38  56  87 128 164 206 253 303 359
#     4  12  24  35  56  89 127 167 202 252 305 358
#     4  10  24  34  60  86 128 168 212 242 296 384
#     4  12  24  42  65  90 122 161 208 255 307 363
#     4  11  24  42  63  90 124 162 204 253 309 365
#
# _framework density 17.779498
#
# number of rings (size 3 to 8) (size 9 to 14) (size 15 to 20)
#    0.000    0.533    4.000    5.600    5.600    1.067 
#    0.000    0.000    0.000    0.800    0.000    4.667 
#    0.000    0.000    0.000    0.000    0.000    0.000 
#
# Total GULP energy -167020.553850 kJ/mol
# GULP energy per Si atom -5567.351795 kJ/mol
# Density = 1.773903 g / cm^3
# Si number density = 17.779498 Si / 1000 Ang^3
#
#
#
# Elastic Constant Matrix: (Units=GPa)
#
#
# Indices 1 2 3 4 5 6 
#
# 1 146.4033 41.3672 45.3708 0.0000 0.0000 0.0000
# 2 41.3672 83.9028 35.3014 0.0000 0.0000 0.0000
# 3 45.3708 35.3014 189.5868 0.0000 0.0000 0.0000
# 4 0.0000 0.0000 0.0000 31.1555 0.0000 0.0000
# 5 0.0000 0.0000 0.0000 0.0000 39.2068 0.0000
# 6 0.0000 0.0000 0.0000 0.0000 0.0000 636.7352
#
#
#
# Elastic Compliance Matrix: (Units=1/GPa)
#
#
# Indices 1 2 3 4 5 6 
#
# 1 0.008228 -0.003503 -0.001317 0.000000 0.000000 0.000000
# 2 -0.003503 0.014423 -0.001847 0.000000 0.000000 0.000000
# 3 -0.001317 -0.001847 0.005934 0.000000 0.000000 0.000000
# 4 0.000000 0.000000 0.000000 0.032097 0.000000 0.000000
# 5 0.000000 0.000000 0.000000 0.000000 0.025506 0.000000
# 6 0.000000 0.000000 0.000000 0.000000 0.000000 0.001571
#
#
# Mechanical properties :
#
#
# Convention : Reuss Voigt Hill
#
# Bulk Modulus (GPa) = 65.57004 73.77464 69.67234
# Shear Modulus (GPa) = 47.09171 161.27638 104.18405
#
# Velocity S-wave (km/s) = 5.15209 9.53447 7.66323
# Velocity P-wave (km/s) = 8.50598 12.75901 10.84307
#
# Compressibility (1/GPa) = 0.01525087
#
# Stress axis : x y z
#
# Youngs Moduli (GPa) = 121.53185 69.33479 168.52737
#
# Poissons Ratio (x) = 0.24286 0.22194
# Poissons Ratio (y) = 0.42570 0.31132
# Poissons Ratio (z) = 0.16005 0.12808
#
# Static dielectric constant tensor:
#      x y z
#    x 1.642040 0.000000 0.000000 
#    y 0.000000 1.566130 0.000000 
#    z 0.000000 0.000000 1.600240 
# 
# From -- ./inp_files/15492.got.cif
#   From: 2010.05.17/outbox.cif.g08.bks.cpg/sg65_8_cif.got.tgz:15492.got - 2010.06.03 17:01:31.
