data_PCOD9482943
_publ_section_title
;
Structure prediction by ZEFSAII (Michael W. Deem and Ramdas Pophale) SiO2 
 PCOD9482943
Probable space group: C M M M
;
_chemical_formula_sum "Si O2"
_cell_formula_units_Z 100
_cell_length_a 14.170343
_cell_length_b 18.423147
_cell_length_c 19.764607
_cell_angle_alpha 90.000000
_cell_angle_beta 90.000000
_cell_angle_gamma 90.000000
_cell_volume 5159.794002
_symmetry_space_group_name_H-M "C M M M"
_symmetry_group_IT_number 65
_symmetry_cell_setting 'orthorhombic'
loop_
_space_group_symop_operation_xyz
x,y,z
-x,-y,z
x,-y,-z
-x,y,-z
-x,-y,-z
x,y,-z
-x,y,z
x,-y,z
1/2+x,1/2+y,z
1/2-x,1/2-y,z
1/2+x,1/2-y,-z
1/2-x,1/2+y,-z
1/2-x,1/2-y,-z
1/2+x,1/2+y,-z
1/2-x,1/2+y,z
1/2+x,1/2-y,z
loop_
_atom_site_type_symbol
_atom_site_label
_atom_site_fract_x
_atom_site_fract_y
_atom_site_fract_z
Si Si1 0.208079 0.830966 0.072683
Si Si2 0.000000 0.878580 0.077473
Si Si3 0.245427 0.163091 0.783872
Si Si4 0.000000 0.000000 0.195581
Si Si5 0.613275 0.914567 0.317261
Si Si6 0.385428 0.792621 0.576826
Si Si7 0.893574 0.000000 0.334488
Si Si8 0.113480 0.154258 0.335689
O O1 0.250000 0.750000 0.070616
O O2 0.244052 0.868233 0.140760
O O3 0.094973 0.831367 0.080146
O O4 0.230649 0.865879 0.000000
O O5 0.000000 0.933226 0.141904
O O6 0.000000 0.911758 0.000000
O O7 0.250000 0.250000 0.789474
O O8 0.328257 0.125815 0.741308
O O9 0.150302 0.156193 0.740542
O O10 0.086137 0.000000 0.251919
O O11 0.500000 0.908984 0.305879
O O12 0.635238 0.866949 0.383889
O O13 0.636870 0.000000 0.321684
O O14 0.351073 0.791366 0.500000
O O15 0.500000 0.787280 0.574672
O O16 0.353732 0.722604 0.620499
O O17 0.850190 0.075178 0.358545
O O18 0.000000 0.000000 0.362864
O O19 0.000000 0.153702 0.335941
#
# Coordination Sequence:
#
# PCOD9482943 Si02
#       8
#    16   8  16   4  16  16   8  16
#     4   9  20  37  55  84 120 153 196 243 299 356
#     4  10  19  34  56  80 120 158 189 241 298 360
#     4  11  21  34  58  89 109 153 195 240 297 347
#     4  10  17  30  48  86 109 150 202 228 294 350
#     4  10  22  41  60  85 120 155 199 250 296 350
#     4   9  18  35  61  87 113 150 192 243 300 356
#     4   8  18  29  47  76 107 153 180 227 277 337
#     4  10  19  34  53  82 120 149 189 236 292 353
#
# _framework density 19.380617999999998
#
# number of rings (size 3 to 8) (size 9 to 14) (size 15 to 20)
#    0.240    2.080    1.600    1.080    2.240    0.320 
#    5.760    3.600    0.000    2.400    0.000    1.120 
#    0.000    0.000    0.000    0.000    0.000    0.000 
#
# Total GULP energy -278349.733952 kJ/mol
# GULP energy per Si atom -5566.994679 kJ/mol
# Density = 1.933651 g / cm^3
# Si number density = 19.380618 Si / 1000 Ang^3
#
#
#
# Elastic Constant Matrix: (Units=GPa)
#
#
# Indices 1 2 3 4 5 6 
#
# 1 69.3437 44.0133 36.9341 0.0000 0.0000 0.0000
# 2 44.0133 130.7136 61.6190 0.0000 0.0000 0.0000
# 3 36.9341 61.6190 153.6902 0.0000 0.0000 0.0000
# 4 0.0000 0.0000 0.0000 -0.3024 0.0000 0.0000
# 5 0.0000 0.0000 0.0000 0.0000 15.0947 0.0000
# 6 0.0000 0.0000 0.0000 0.0000 0.0000 25.8735
#
#
#
# Elastic Compliance Matrix: (Units=1/GPa)
#
#
# Indices 1 2 3 4 5 6 
#
# 1 0.019076 -0.005255 -0.002477 0.000000 0.000000 0.000000
# 2 -0.005255 0.010881 -0.003100 0.000000 0.000000 0.000000
# 3 -0.002477 -0.003100 0.008345 0.000000 0.000000 0.000000
# 4 0.000000 0.000000 0.000000 -3.307413 0.000000 0.000000
# 5 0.000000 0.000000 0.000000 0.000000 0.066248 0.000000
# 6 0.000000 0.000000 0.000000 0.000000 0.000000 0.038650
#
#
# Mechanical properties :
#
#
# Convention : Reuss Voigt Hill
#
# Bulk Modulus (GPa) = 60.10603 70.98673 65.54638
# Shear Modulus (GPa) = -1.59388 22.21190 10.30901
#
# Velocity S-wave (km/s) = -0.90785 3.38907 2.30885
# Velocity P-wave (km/s) = 5.47557 7.21260 6.40326
#
# Compressibility (1/GPa) = 0.01663727
#
# Stress axis : x y z
#
# Youngs Moduli (GPa) = 52.42184 91.90283 119.83765
#
# Poissons Ratio (x) = 0.48299 0.29686
# Poissons Ratio (y) = 0.27550 0.37145
# Poissons Ratio (z) = 0.12986 0.28486
#
# Static dielectric constant tensor:
#      x y z
#    x 1.725870 0.000000 0.000000 
#    y 0.000000 1.733620 0.000000 
#    z 0.000000 0.000000 1.717010 
# 
# From -- ./inp_files/62915.got.cif
#   From: 2010.05.17/outbox.cif.g08.bks.cpg/sg65_32_cif.got.tgz:62915.got - 2010.06.03 17:01:31.
