data_PCOD9482355
_publ_section_title
;
Structure prediction by ZEFSAII (Michael W. Deem and Ramdas Pophale) SiO2 
 PCOD9482355
Probable space group: C M C A
;
_chemical_formula_sum "Si O2"
_cell_formula_units_Z 40
_cell_length_a 18.000000
_cell_length_b 9.000000
_cell_length_c 27.000000
_cell_angle_alpha 90.000000
_cell_angle_beta 90.000000
_cell_angle_gamma 90.000000
_cell_volume 4374.000000
_symmetry_space_group_name_H-M "C M C A"
_symmetry_group_IT_number 64
_symmetry_cell_setting 'orthorhombic'
loop_
_space_group_symop_operation_xyz
x,y,z
-x,1/2-y,1/2+z
x,-y,-z
-x,1/2+y,1/2-z
-x,-y,-z
x,1/2+y,1/2-z
-x,y,z
x,1/2-y,1/2+z
1/2+x,1/2+y,z
1/2-x,-y,1/2+z
1/2+x,1/2-y,-z
1/2-x,y,1/2-z
1/2-x,1/2-y,-z
1/2+x,y,1/2-z
1/2-x,1/2+y,z
1/2+x,-y,1/2+z
loop_
_atom_site_type_symbol
_atom_site_label
_atom_site_fract_x
_atom_site_fract_y
_atom_site_fract_z
Si Si1 0.706844 0.863325 0.964393
Si Si2 0.088393 0.765720 0.109410
Si Si3 0.326385 0.240962 0.276351
Si Si4 0.790159 0.477236 0.633910
Si Si5 0.364460 0.976357 0.813148
O O1 0.633637 0.791460 0.939105
O O2 0.762485 0.914904 0.919573
O O3 0.750000 0.750000 0.000000
O O4 0.686604 0.000000 0.000000
O O5 0.092820 0.626086 0.147590
O O6 0.000000 0.804311 0.102843
O O7 0.144219 0.899292 0.128539
O O8 0.250000 0.303756 0.250000
O O9 0.313664 0.148830 0.326822
O O10 0.351290 0.128668 0.233707
O O11 0.386666 0.367236 0.288995
O O12 0.712192 0.527427 0.659055
#
# Coordination Sequence:
#
# PCOD9482355 Si02
#       5
#    16  16  16  16  16
#     4  11  22  40  67  93 117 157 207 254 304 365
#     4  11  24  41  60  90 127 160 198 254 313 368
#     4  10  18  31  59  92 119 155 207 257 290 344
#     4  10  20  36  60  88 120 157 203 252 298 359
#     4  10  19  34  59  87 120 160 205 247 295 357
#
# _framework density 9.1449470000000002
#
# number of rings (size 3 to 8) (size 9 to 14) (size 15 to 20)
#    0.000    1.600    2.000    6.600    2.800    0.400 
#    0.000    7.000    0.000    0.000    0.000    0.000 
#    0.000    0.000    0.000    0.000    0.000    0.000 
#
# Total GULP energy -222723.911426 kJ/mol
# GULP energy per Si atom -5568.097786 kJ/mol
# Density = 0.912413 g / cm^3
# Si number density = 9.144947 Si / 1000 Ang^3
#
#
#
# Elastic Constant Matrix: (Units=GPa)
#
#
# Indices 1 2 3 4 5 6 
#
# 1 105.1136 39.9645 31.3153 0.0000 0.0000 0.0000
# 2 39.9645 94.7402 47.9180 0.0000 0.0000 0.0000
# 3 31.3153 47.9180 135.5736 0.0000 0.0000 0.0000
# 4 0.0000 0.0000 0.0000 45.9572 0.0000 0.0000
# 5 0.0000 0.0000 0.0000 0.0000 16.2444 0.0000
# 6 0.0000 0.0000 0.0000 0.0000 0.0000 23.1441
#
#
#
# Elastic Compliance Matrix: (Units=1/GPa)
#
#
# Indices 1 2 3 4 5 6 
#
# 1 0.011475 -0.004262 -0.001144 0.000000 0.000000 0.000000
# 2 -0.004262 0.014436 -0.004118 0.000000 0.000000 0.000000
# 3 -0.001144 -0.004118 0.009096 0.000000 0.000000 0.000000
# 4 0.000000 0.000000 0.000000 0.021759 0.000000 0.000000
# 5 0.000000 0.000000 0.000000 0.000000 0.061560 0.000000
# 6 0.000000 0.000000 0.000000 0.000000 0.000000 0.043207
#
#
# Mechanical properties :
#
#
# Convention : Reuss Voigt Hill
#
# Bulk Modulus (GPa) = 62.66179 63.75809 63.20994
# Shear Modulus (GPa) = 26.89622 31.48445 29.19033
#
# Velocity S-wave (km/s) = 3.83894 4.15349 3.99931
# Velocity P-wave (km/s) = 7.34742 7.61166 7.48071
#
# Compressibility (1/GPa) = 0.01595869
#
# Stress axis : x y z
#
# Youngs Moduli (GPa) = 87.14827 69.27301 109.94090
#
# Poissons Ratio (x) = 0.29522 0.12579
# Poissons Ratio (y) = 0.37140 0.45272
# Poissons Ratio (z) = 0.09971 0.28526
#
# Static dielectric constant tensor:
#      x y z
#    x 1.632720 0.000000 0.000000 
#    y 0.000000 1.707340 0.000000 
#    z 0.000000 0.000000 1.644340 
# 
# From -- ./inp_files/50302.got.cif
#   From: 2010.05.17/outbox.ucp.g08.bks.cvg/sg64_26_cif.got.tgz:50302.got - 2010.06.11 16:36:46.
