data_PCOD9482918
_publ_section_title
;
Structure prediction by ZEFSAII (Michael W. Deem and Ramdas Pophale) SiO2 
 PCOD9482918
Probable space group: C M M M
;
_chemical_formula_sum "Si O2"
_cell_formula_units_Z 96
_cell_length_a 7.892131
_cell_length_b 26.496193
_cell_length_c 24.476668
_cell_angle_alpha 90.000000
_cell_angle_beta 90.000000
_cell_angle_gamma 90.000000
_cell_volume 5118.350953
_symmetry_space_group_name_H-M "C M M M"
_symmetry_group_IT_number 65
_symmetry_cell_setting 'orthorhombic'
loop_
_space_group_symop_operation_xyz
x,y,z
-x,-y,z
x,-y,-z
-x,y,-z
-x,-y,-z
x,y,-z
-x,y,z
x,-y,z
1/2+x,1/2+y,z
1/2-x,1/2-y,z
1/2+x,1/2-y,-z
1/2-x,1/2+y,-z
1/2-x,1/2-y,-z
1/2+x,1/2+y,-z
1/2-x,1/2+y,z
1/2+x,1/2-y,z
loop_
_atom_site_type_symbol
_atom_site_label
_atom_site_fract_x
_atom_site_fract_y
_atom_site_fract_z
Si Si1 0.202305 0.500000 0.628469
Si Si2 0.296116 0.599889 0.562058
Si Si3 0.293647 0.059276 0.939701
Si Si4 0.707908 0.000000 0.753699
Si Si5 0.798380 0.806357 0.241966
Si Si6 0.295715 0.306548 0.633502
Si Si7 0.702754 0.904158 0.175463
O O1 0.257192 0.549787 0.596115
O O2 0.266106 0.500000 0.690966
O O3 0.000000 0.500000 0.630901
O O4 0.231263 0.596654 0.500000
O O5 0.500000 0.604055 0.559151
O O6 0.232184 0.649261 0.594169
O O7 0.500000 0.061951 0.940580
O O8 0.232365 0.088875 0.886390
O O9 0.251695 0.000000 0.932844
O O10 0.234378 0.075651 0.000000
O O11 0.764401 0.050001 0.786085
O O12 0.500000 0.000000 0.753298
O O13 0.750000 0.750000 0.223991
O O14 0.731652 0.813348 0.304158
O O15 0.738902 0.850709 0.202746
O O16 0.000000 0.809019 0.244696
O O17 0.500000 0.309713 0.635020
O O18 0.250000 0.250000 0.615547
O O19 0.500000 0.910071 0.172747
#
# Coordination Sequence:
#
# PCOD9482918 Si02
#       7
#     8  16  16   8  16  16  16
#     4  11  22  34  49  71 100 131 166 205 240 280
#     4  10  21  37  54  71  95 129 164 197 240 295
#     4   8  13  23  43  72 103 133 165 199 235 281
#     4   9  18  30  47  75 105 131 158 195 246 292
#     4  10  20  34  51  72  98 129 164 202 245 293
#     4   9  19  35  54  75  98 124 157 199 248 297
#     4  10  17  29  50  75 103 132 164 201 240 287
#
# _framework density 18.756041
#
# number of rings (size 3 to 8) (size 9 to 14) (size 15 to 20)
#    0.000    2.500    0.833    2.500    0.000    3.000 
#    0.000    1.250    0.000    1.000    0.000    1.167 
#    0.000    0.000    0.000    0.000    0.000    0.000 
#
# Total GULP energy -267825.252672 kJ/mol
# GULP energy per Si atom -5579.692764 kJ/mol
# Density = 1.871335 g / cm^3
# Si number density = 18.756041 Si / 1000 Ang^3
#
#
#
# Elastic Constant Matrix: (Units=GPa)
#
#
# Indices 1 2 3 4 5 6 
#
# 1 14.6862 0.8213 11.7215 0.0000 0.0000 0.0000
# 2 0.8213 162.5122 126.1735 0.0000 0.0000 0.0000
# 3 11.7215 126.1735 188.7280 0.0000 0.0000 0.0000
# 4 0.0000 0.0000 0.0000 -4.2839 0.0000 0.0000
# 5 0.0000 0.0000 0.0000 0.0000 8.2045 0.0000
# 6 0.0000 0.0000 0.0000 0.0000 0.0000 21.9275
#
#
#
# Elastic Compliance Matrix: (Units=1/GPa)
#
#
# Indices 1 2 3 4 5 6 
#
# 1 0.075027 0.006734 -0.009162 0.000000 0.000000 0.000000
# 2 0.006734 0.013399 -0.009376 0.000000 0.000000 0.000000
# 3 -0.009162 -0.009376 0.012136 0.000000 0.000000 0.000000
# 4 0.000000 0.000000 0.000000 -0.233433 0.000000 0.000000
# 5 0.000000 0.000000 0.000000 0.000000 0.121884 0.000000
# 6 0.000000 0.000000 0.000000 0.000000 0.000000 0.045605
#
#
# Mechanical properties :
#
#
# Convention : Reuss Voigt Hill
#
# Bulk Modulus (GPa) = 12.99478 71.48435 42.23957
# Shear Modulus (GPa) = 59.61143 20.31696 39.96420
#
# Velocity S-wave (km/s) = 5.64372 3.29480 4.62100
# Velocity P-wave (km/s) = 7.02937 7.25739 7.14429
#
# Compressibility (1/GPa) = 0.07695397
#
# Stress axis : x y z
#
# Youngs Moduli (GPa) = 13.32858 74.63370 82.40018
#
# Poissons Ratio (x) = -0.50257 0.75492
# Poissons Ratio (y) = -0.08975 0.77258
# Poissons Ratio (z) = 0.12211 0.69976
#
# Static dielectric constant tensor:
#      x y z
#    x 1.694280 0.000000 0.000000 
#    y 0.000000 1.584560 0.000000 
#    z 0.000000 0.000000 1.672190 
# 
# From -- ./inp_files/67876.got.cif
#   From: 2010.05.17/outbox.cif.g08.bks.cpg/sg65_34_cif.got.tgz:67876.got - 2010.06.03 17:01:31.
