data_PCOD9482660
_publ_section_title
;
Structure prediction by ZEFSAII (Michael W. Deem and Ramdas Pophale) SiO2 
 PCOD9482660
Probable space group: C M M M
;
_chemical_formula_sum "Si O2"
_cell_formula_units_Z 96
_cell_length_a 16.138610
_cell_length_b 15.626210
_cell_length_c 19.193539
_cell_angle_alpha 90.000000
_cell_angle_beta 90.000000
_cell_angle_gamma 90.000000
_cell_volume 4840.328563
_symmetry_space_group_name_H-M "C M M M"
_symmetry_group_IT_number 65
_symmetry_cell_setting 'orthorhombic'
loop_
_space_group_symop_operation_xyz
x,y,z
-x,-y,z
x,-y,-z
-x,y,-z
-x,-y,-z
x,y,-z
-x,y,z
x,-y,z
1/2+x,1/2+y,z
1/2-x,1/2-y,z
1/2+x,1/2-y,-z
1/2-x,1/2+y,-z
1/2-x,1/2-y,-z
1/2+x,1/2+y,-z
1/2-x,1/2+y,z
1/2+x,1/2-y,z
loop_
_atom_site_type_symbol
_atom_site_label
_atom_site_fract_x
_atom_site_fract_y
_atom_site_fract_z
Si Si1 0.202470 0.161857 0.194595
Si Si2 0.405638 0.255348 0.080704
Si Si3 0.375964 0.093569 0.176561
Si Si4 0.089720 0.644167 0.665223
Si Si5 0.748225 0.645272 0.419733
Si Si6 0.594567 0.351136 0.672454
O O1 0.250000 0.250000 0.219152
O O2 0.156205 0.184906 0.123509
O O3 0.276542 0.097475 0.181991
O O4 0.136740 0.134314 0.252447
O O5 0.500000 0.287449 0.084759
O O6 0.402175 0.165835 0.122213
O O7 0.382897 0.245543 0.000000
O O8 0.405567 0.115620 0.254505
O O9 0.404111 0.000000 0.156063
O O10 0.171302 0.615570 0.623661
O O11 0.090448 0.747690 0.664952
O O12 0.000000 0.616286 0.636310
O O13 0.752785 0.619002 0.500000
O O14 0.750000 0.750000 0.418026
O O15 0.662167 0.617960 0.383684
O O16 0.500000 0.383042 0.666693
#
# Coordination Sequence:
#
# PCOD9482660 Si02
#       6
#    16  16  16  16  16  16
#     4  10  17  32  54  75 105 139 183 227 265 316
#     4  10  21  36  56  83 110 140 182 228 274 326
#     4  11  22  34  52  79 113 147 182 224 273 328
#     4  10  18  30  49  74 104 140 179 217 264 324
#     4   9  17  29  45  73 109 139 172 222 281 330
#     4  10  16  27  51  77 101 135 176 224 274 318
#
# _framework density 19.833365000000001
#
# number of rings (size 3 to 8) (size 9 to 14) (size 15 to 20)
#    0.000    2.000    5.000    1.500    0.000    5.333 
#    0.000    4.167    0.000    2.500    0.000    2.333 
#    0.000    1.333    0.000    0.000    0.000    0.000 
#
# Total GULP energy -267895.235701 kJ/mol
# GULP energy per Si atom -5581.150744 kJ/mol
# Density = 1.978822 g / cm^3
# Si number density = 19.833365 Si / 1000 Ang^3
#
#
#
# Elastic Constant Matrix: (Units=GPa)
#
#
# Indices 1 2 3 4 5 6 
#
# 1 189.8648 10.1578 80.0261 0.0000 0.0000 0.0000
# 2 10.1578 28.5650 1.2574 0.0000 0.0000 0.0000
# 3 80.0261 1.2574 142.3831 0.0000 0.0000 0.0000
# 4 0.0000 0.0000 0.0000 -2.9589 0.0000 0.0000
# 5 0.0000 0.0000 0.0000 0.0000 6.9960 0.0000
# 6 0.0000 0.0000 0.0000 0.0000 0.0000 2.7856
#
#
#
# Elastic Compliance Matrix: (Units=1/GPa)
#
#
# Indices 1 2 3 4 5 6 
#
# 1 0.007054 -0.002335 -0.003944 0.000000 0.000000 0.000000
# 2 -0.002335 0.035794 0.000996 0.000000 0.000000 0.000000
# 3 -0.003944 0.000996 0.009231 0.000000 0.000000 0.000000
# 4 0.000000 0.000000 0.000000 -0.337958 0.000000 0.000000
# 5 0.000000 0.000000 0.000000 0.000000 0.142939 0.000000
# 6 0.000000 0.000000 0.000000 0.000000 0.000000 0.358991
#
#
# Mechanical properties :
#
#
# Convention : Reuss Voigt Hill
#
# Bulk Modulus (GPa) = 24.08815 60.41060 42.24937
# Shear Modulus (GPa) = 20.79381 19.32263 20.05822
#
# Velocity S-wave (km/s) = 3.24145 3.12468 3.18360
# Velocity P-wave (km/s) = 5.11674 6.59874 5.90442
#
# Compressibility (1/GPa) = 0.04151419
#
# Stress axis : x y z
#
# Youngs Moduli (GPa) = 141.75811 27.93736 108.32656
#
# Poissons Ratio (x) = 0.06523 0.42726
# Poissons Ratio (y) = 0.33099 -0.10792
# Poissons Ratio (z) = 0.55912 -0.02783
#
# Static dielectric constant tensor:
#      x y z
#    x 1.732980 0.000000 0.000000 
#    y 0.000000 1.693310 0.000000 
#    z 0.000000 0.000000 1.657990 
# 
# From -- ./inp_files/54496.got.cif
#   From: 2010.05.17/outbox.cif.g08.bks.cpg/sg65_28_cif.got.tgz:54496.got - 2010.06.03 17:01:31.
