data_PCOD9482137
_publ_section_title
;
Structure prediction by ZEFSAII (Michael W. Deem and Ramdas Pophale) SiO2 
 PCOD9482137
Probable space group: C M C A
;
_chemical_formula_sum "Si O2"
_cell_formula_units_Z 72
_cell_length_a 14.491700
_cell_length_b 28.904929
_cell_length_c 7.864845
_cell_angle_alpha 90.000000
_cell_angle_beta 90.000000
_cell_angle_gamma 90.000000
_cell_volume 3294.438540
_symmetry_space_group_name_H-M "C M C A"
_symmetry_group_IT_number 64
_symmetry_cell_setting 'orthorhombic'
loop_
_space_group_symop_operation_xyz
x,y,z
-x,1/2-y,1/2+z
x,-y,-z
-x,1/2+y,1/2-z
-x,-y,-z
x,1/2+y,1/2-z
-x,y,z
x,1/2-y,1/2+z
1/2+x,1/2+y,z
1/2-x,-y,1/2+z
1/2+x,1/2-y,-z
1/2-x,y,1/2-z
1/2-x,1/2-y,-z
1/2+x,y,1/2-z
1/2-x,1/2+y,z
1/2+x,-y,1/2+z
loop_
_atom_site_type_symbol
_atom_site_label
_atom_site_fract_x
_atom_site_fract_y
_atom_site_fract_z
Si Si1 0.644226 0.142475 0.309474
Si Si2 0.500000 0.682646 0.661038
Si Si3 0.000000 0.430861 0.755453
Si Si4 0.855989 0.611757 0.698853
Si Si5 0.500000 0.784886 0.775883
Si Si6 0.642735 0.492051 0.297667
O O1 0.750000 0.144758 0.250000
O O2 0.581396 0.107582 0.199987
O O3 0.634681 0.121480 0.498730
O O4 0.590942 0.191498 0.306394
O O5 0.586458 0.650607 0.705491
O O6 0.500000 0.729933 0.767244
O O7 0.500000 0.699678 0.469921
O O8 0.919905 0.469498 0.712656
O O9 0.750000 0.615174 0.750000
O O10 0.886166 0.559883 0.747790
O O11 0.629581 0.500000 0.500000
O O12 0.750000 0.497736 0.250000
#
# Coordination Sequence:
#
# PCOD9482137 Si02
#       6
#    16   8   8  16   8  16
#     4  11  25  45  70 104 141 184 240 287 359 416
#     4  12  24  48  73 107 142 176 237 284 359 425
#     4  11  25  39  72  91 139 180 236 284 346 403
#     4  11  26  44  70 100 142 186 233 292 347 420
#     4  11  26  44  78 105 140 180 225 296 353 426
#     4  11  27  44  66 101 143 187 243 288 349 409
#
# _framework density 21.855015000000002
#
# number of rings (size 3 to 8) (size 9 to 14) (size 15 to 20)
#    0.000    0.889    0.000    5.667   18.667    1.778 
#    0.000    4.444    0.000    0.000    0.000    0.000 
#    0.000    0.000    0.000    0.000    0.000    0.000 
#
# Total GULP energy -200508.642542 kJ/mol
# GULP energy per Si atom -5569.684515 kJ/mol
# Density = 2.180527 g / cm^3
# Si number density = 21.855015 Si / 1000 Ang^3
#
#
#
# Elastic Constant Matrix: (Units=GPa)
#
#
# Indices 1 2 3 4 5 6 
#
# 1 162.2665 69.2948 -6.3965 0.0000 0.0000 0.0000
# 2 69.2948 154.0237 -2.8206 0.0000 0.0000 0.0000
# 3 -6.3965 -2.8206 91.3009 0.0000 0.0000 0.0000
# 4 0.0000 0.0000 0.0000 30.0206 0.0000 0.0000
# 5 0.0000 0.0000 0.0000 0.0000 24.7331 0.0000
# 6 0.0000 0.0000 0.0000 0.0000 0.0000 71.0184
#
#
#
# Elastic Compliance Matrix: (Units=1/GPa)
#
#
# Indices 1 2 3 4 5 6 
#
# 1 0.007645 -0.003432 0.000430 0.000000 0.000000 0.000000
# 2 -0.003432 0.008037 0.000008 0.000000 0.000000 0.000000
# 3 0.000430 0.000008 0.010983 0.000000 0.000000 0.000000
# 4 0.000000 0.000000 0.000000 0.033310 0.000000 0.000000
# 5 0.000000 0.000000 0.000000 0.000000 0.040432 0.000000
# 6 0.000000 0.000000 0.000000 0.000000 0.000000 0.014081
#
#
# Mechanical properties :
#
#
# Convention : Reuss Voigt Hill
#
# Bulk Modulus (GPa) = 48.36434 58.63850 53.50142
# Shear Modulus (GPa) = 39.25627 48.32198 43.78913
#
# Velocity S-wave (km/s) = 4.24277 4.70725 4.48104
# Velocity P-wave (km/s) = 6.79553 7.51221 7.16284
#
# Compressibility (1/GPa) = 0.02067639
#
# Stress axis : x y z
#
# Youngs Moduli (GPa) = 130.80290 124.43178 91.04872
#
# Poissons Ratio (x) = 0.42700 -0.03911
# Poissons Ratio (y) = 0.44887 -0.00072
# Poissons Ratio (z) = -0.05619 -0.00098
#
# Static dielectric constant tensor:
#      x y z
#    x 1.877630 0.000000 0.000000 
#    y 0.000000 1.785650 0.000000 
#    z 0.000000 0.000000 2.105190 
# 
# From -- ./inp_files/5873.got.cif
#   From: 2010.05.17/outbox.cif.g08.bks.cpg/sg64_3_cif.got.tgz:5873.got - 2010.06.03 16:29:19.
