data_PCOD9482683
_publ_section_title
;
Structure prediction by ZEFSAII (Michael W. Deem and Ramdas Pophale) SiO2 
 PCOD9482683
Probable space group: C M M M
;
_chemical_formula_sum "Si O2"
_cell_formula_units_Z 56
_cell_length_a 7.807599
_cell_length_b 36.415154
_cell_length_c 10.548786
_cell_angle_alpha 90.000000
_cell_angle_beta 90.000000
_cell_angle_gamma 90.000000
_cell_volume 2999.177247
_symmetry_space_group_name_H-M "C M M M"
_symmetry_group_IT_number 65
_symmetry_cell_setting 'orthorhombic'
loop_
_space_group_symop_operation_xyz
x,y,z
-x,-y,z
x,-y,-z
-x,y,-z
-x,-y,-z
x,y,-z
-x,y,z
x,-y,z
1/2+x,1/2+y,z
1/2-x,1/2-y,z
1/2+x,1/2-y,-z
1/2-x,1/2+y,-z
1/2-x,1/2-y,-z
1/2+x,1/2+y,-z
1/2-x,1/2+y,z
1/2+x,1/2-y,z
loop_
_atom_site_type_symbol
_atom_site_label
_atom_site_fract_x
_atom_site_fract_y
_atom_site_fract_z
Si Si1 0.294554 0.206824 0.500000
Si Si2 0.193964 0.958410 0.346469
Si Si3 0.500000 0.157866 0.136286
Si Si4 0.500000 0.096443 0.652899
Si Si5 0.196507 0.206982 0.222181
O O1 0.500000 0.202425 0.500000
O O2 0.250000 0.250000 0.500000
O O3 0.216590 0.193294 0.368348
O O4 0.191373 0.959476 0.500000
O O5 0.334241 0.928243 0.314797
O O6 0.000000 0.949990 0.304176
O O7 0.238466 0.000000 0.304773
O O8 0.500000 0.131548 0.257606
O O9 0.333656 0.183736 0.145581
O O10 0.500000 0.138333 0.000000
O O11 0.500000 0.104333 0.500000
O O12 0.250000 0.250000 0.218781
O O13 0.000000 0.203506 0.182241
#
# Coordination Sequence:
#
# PCOD9482683 Si02
#       5
#     8  16   8   8  16
#     4  10  16  30  58  89 117 130 167 227 299 355
#     4   8  14  28  55  91 123 150 187 235 283 334
#     4  12  28  43  57  83 118 158 202 250 305 361
#     4  10  21  36  58  84 120 156 194 234 288 351
#     4  11  21  40  63  87 108 143 189 251 306 360
#
# _framework density 18.671789
#
# number of rings (size 3 to 8) (size 9 to 14) (size 15 to 20)
#    0.000    2.000    2.857    4.286    2.000    4.000 
#    0.000    0.000    0.000    1.714    0.000    2.000 
#    0.000    0.000    0.000    0.000    0.000    0.000 
#
# Total GULP energy -156180.162286 kJ/mol
# GULP energy per Si atom -5577.862939 kJ/mol
# Density = 1.862929 g / cm^3
# Si number density = 18.671789 Si / 1000 Ang^3
#
#
#
# Elastic Constant Matrix: (Units=GPa)
#
#
# Indices 1 2 3 4 5 6 
#
# 1 163.5114 66.9054 27.3869 0.0000 0.0000 0.0000
# 2 66.9054 88.3992 36.0054 0.0000 0.0000 0.0000
# 3 27.3869 36.0054 66.9812 0.0000 0.0000 0.0000
# 4 0.0000 0.0000 0.0000 -2.3167 0.0000 0.0000
# 5 0.0000 0.0000 0.0000 0.0000 -14.1417 0.0000
# 6 0.0000 0.0000 0.0000 0.0000 0.0000 -96.0641
#
#
#
# Elastic Compliance Matrix: (Units=1/GPa)
#
#
# Indices 1 2 3 4 5 6 
#
# 1 0.008859 -0.006696 -0.000023 0.000000 0.000000 0.000000
# 2 -0.006696 0.019544 -0.007768 0.000000 0.000000 0.000000
# 3 -0.000023 -0.007768 0.019115 0.000000 0.000000 0.000000
# 4 0.000000 0.000000 0.000000 -0.431642 0.000000 0.000000
# 5 0.000000 0.000000 0.000000 0.000000 -0.070713 0.000000
# 6 0.000000 0.000000 0.000000 0.000000 0.000000 -0.010410
#
#
# Mechanical properties :
#
#
# Convention : Reuss Voigt Hill
#
# Bulk Modulus (GPa) = 53.92523 64.38747 59.15635
# Shear Modulus (GPa) = -11.62546 -9.93155 -10.77851
#
# Velocity S-wave (km/s) = -2.49795 -2.30880 -2.40523
# Velocity P-wave (km/s) = 4.54133 5.23940 4.90280
#
# Compressibility (1/GPa) = 0.01854419
#
# Stress axis : x y z
#
# Youngs Moduli (GPa) = 112.87337 51.16620 52.31589
#
# Poissons Ratio (x) = 0.34261 0.00121
# Poissons Ratio (y) = 0.75580 0.40639
# Poissons Ratio (z) = 0.00260 0.39746
#
# Static dielectric constant tensor:
#      x y z
#    x 1.645990 0.000000 0.000000 
#    y 0.000000 1.763900 0.000000 
#    z 0.000000 0.000000 1.657040 
# 
# From -- ./inp_files/20859.got.cif
#   From: 2010.05.17/outbox.cif.g08.bks.cpg/sg65_11_cif.got.tgz:20859.got - 2010.06.03 17:01:31.
