data_PCOD9482449
_publ_section_title
;
Structure prediction by ZEFSAII (Michael W. Deem and Ramdas Pophale) SiO2 
 PCOD9482449
Probable space group: C M C A
;
_chemical_formula_sum "Si O2"
_cell_formula_units_Z 44
_cell_length_a 9.000000
_cell_length_b 24.000000
_cell_length_c 21.000000
_cell_angle_alpha 90.000000
_cell_angle_beta 90.000000
_cell_angle_gamma 90.000000
_cell_volume 4536.000000
_symmetry_space_group_name_H-M "C M C A"
_symmetry_group_IT_number 64
_symmetry_cell_setting 'orthorhombic'
loop_
_space_group_symop_operation_xyz
x,y,z
-x,1/2-y,1/2+z
x,-y,-z
-x,1/2+y,1/2-z
-x,-y,-z
x,1/2+y,1/2-z
-x,y,z
x,1/2-y,1/2+z
1/2+x,1/2+y,z
1/2-x,-y,1/2+z
1/2+x,1/2-y,-z
1/2-x,y,1/2-z
1/2-x,1/2-y,-z
1/2+x,y,1/2-z
1/2-x,1/2+y,z
1/2+x,-y,1/2+z
loop_
_atom_site_type_symbol
_atom_site_label
_atom_site_fract_x
_atom_site_fract_y
_atom_site_fract_z
Si Si1 0.181242 0.047787 0.181226
Si Si2 0.171557 0.243745 0.636252
Si Si3 0.750000 0.163264 0.750000
Si Si4 0.169763 0.075176 0.856193
Si Si5 0.820569 0.146792 0.398132
Si Si6 0.681456 0.340559 0.038252
O O1 0.250000 0.061411 0.250000
O O2 0.248793 0.090968 0.130818
O O3 0.000000 0.050796 0.182997
O O4 0.232412 0.984439 0.164311
O O5 0.173153 0.204900 0.699379
O O6 0.260926 0.301157 0.643779
O O7 0.254880 0.210880 0.579332
O O8 0.000000 0.254795 0.619142
O O9 0.828990 0.119897 0.798401
O O10 0.230844 0.106207 0.918569
O O11 0.000000 0.063100 0.872369
O O12 0.753841 0.156338 0.468899
O O13 0.000000 0.144961 0.398951
O O14 0.500000 0.338032 0.035309
#
# Coordination Sequence:
#
# PCOD9482449 Si02
#       6
#    16  16   8  16  16  16
#     4  11  23  42  65  92 126 164 204 250 309 369
#     4  11  23  39  64  94 127 165 209 259 314 371
#     4  10  20  38  62  94 124 160 202 256 308 372
#     4   9  19  37  64  93 123 159 199 251 309 370
#     4  12  26  43  61  87 126 169 213 257 309 368
#     4  10  21  41  66  94 126 163 208 256 313 370
#
# _framework density 9.7001760000000008
#
# number of rings (size 3 to 8) (size 9 to 14) (size 15 to 20)
#    0.000    1.455    0.909    4.364    1.273    2.909 
#    0.000    6.364    0.000    0.000    0.000    0.000 
#    0.000    0.000    0.000    0.000    0.000    0.000 
#
# Total GULP energy -245501.292023 kJ/mol
# GULP energy per Si atom -5579.574819 kJ/mol
# Density = 0.967810 g / cm^3
# Si number density = 9.700176 Si / 1000 Ang^3
#
#
#
# Elastic Constant Matrix: (Units=GPa)
#
#
# Indices 1 2 3 4 5 6 
#
# 1 130.7341 38.2405 31.0474 0.0000 0.0000 0.0000
# 2 38.2405 118.3461 49.4914 0.0000 0.0000 0.0000
# 3 31.0474 49.4914 82.2437 0.0000 0.0000 0.0000
# 4 0.0000 0.0000 0.0000 27.9402 0.0000 0.0000
# 5 0.0000 0.0000 0.0000 0.0000 26.7491 0.0000
# 6 0.0000 0.0000 0.0000 0.0000 0.0000 23.5012
#
#
#
# Elastic Compliance Matrix: (Units=1/GPa)
#
#
# Indices 1 2 3 4 5 6 
#
# 1 0.008719 -0.001925 -0.002133 0.000000 0.000000 0.000000
# 2 -0.001925 0.011716 -0.006324 0.000000 0.000000 0.000000
# 3 -0.002133 -0.006324 0.016770 0.000000 0.000000 0.000000
# 4 0.000000 0.000000 0.000000 0.035791 0.000000 0.000000
# 5 0.000000 0.000000 0.000000 0.000000 0.037384 0.000000
# 6 0.000000 0.000000 0.000000 0.000000 0.000000 0.042551
#
#
# Mechanical properties :
#
#
# Convention : Reuss Voigt Hill
#
# Bulk Modulus (GPa) = 60.82332 63.20917 62.01625
# Shear Modulus (GPa) = 27.90568 29.80774 28.85671
#
# Velocity S-wave (km/s) = 3.79675 3.92401 3.86091
# Velocity P-wave (km/s) = 7.11619 7.29265 7.20496
#
# Compressibility (1/GPa) = 0.01644106
#
# Stress axis : x y z
#
# Youngs Moduli (GPa) = 114.69479 85.35017 59.63202
#
# Poissons Ratio (x) = 0.16433 0.12718
# Poissons Ratio (y) = 0.22083 0.37710
# Poissons Ratio (z) = 0.24462 0.53973
#
# Static dielectric constant tensor:
#      x y z
#    x 1.663750 0.000000 0.000000 
#    y 0.000000 1.715630 0.000000 
#    z 0.000000 0.000000 1.672330 
# 
# From -- ./inp_files/36830.got.cif
#   From: 2010.05.17/outbox.ucp.g08.bks.cvg/sg64_19_cif.got.tgz:36830.got - 2010.06.11 16:36:46.
