data_PCOD9482742
_publ_section_title
;
Structure prediction by ZEFSAII (Michael W. Deem and Ramdas Pophale) SiO2 
 PCOD9482742
Probable space group: C M M M
;
_chemical_formula_sum "Si O2"
_cell_formula_units_Z 88
_cell_length_a 8.656244
_cell_length_b 29.060305
_cell_length_c 24.359651
_cell_angle_alpha 90.000000
_cell_angle_beta 90.000000
_cell_angle_gamma 90.000000
_cell_volume 6127.745500
_symmetry_space_group_name_H-M "C M M M"
_symmetry_group_IT_number 65
_symmetry_cell_setting 'orthorhombic'
loop_
_space_group_symop_operation_xyz
x,y,z
-x,-y,z
x,-y,-z
-x,y,-z
-x,-y,-z
x,y,-z
-x,y,z
x,-y,z
1/2+x,1/2+y,z
1/2-x,1/2-y,z
1/2+x,1/2-y,-z
1/2-x,1/2+y,-z
1/2-x,1/2-y,-z
1/2+x,1/2+y,-z
1/2-x,1/2+y,z
1/2+x,1/2-y,z
loop_
_atom_site_type_symbol
_atom_site_label
_atom_site_fract_x
_atom_site_fract_y
_atom_site_fract_z
Si Si1 0.684196 0.698135 0.786839
Si Si2 0.685944 0.447370 0.935646
Si Si3 0.684325 0.802235 0.327678
Si Si4 0.686114 0.801375 0.000000
Si Si5 0.185059 0.802201 0.439828
Si Si6 0.184884 0.355896 0.109870
O O1 0.500000 0.701003 0.783326
O O2 0.750000 0.750000 0.794303
O O3 0.751082 0.678555 0.729473
O O4 0.736844 0.667331 0.837727
O O5 0.500000 0.443056 0.931618
O O6 0.726850 0.500000 0.921244
O O7 0.765861 0.408465 0.899720
O O8 0.727189 0.440429 0.000000
O O9 0.500000 0.800991 0.326963
O O10 0.750000 0.750000 0.327978
O O11 0.743577 0.823817 0.384807
O O12 0.750000 0.750000 0.000000
O O13 0.734436 0.828360 0.945139
O O14 0.500000 0.799765 0.000000
O O15 0.221989 0.822814 0.500000
O O16 0.250000 0.750000 0.441646
O O17 0.000000 0.800199 0.434269
O O18 0.000000 0.352299 0.114969
#
# Coordination Sequence:
#
# PCOD9482742 Si02
#       6
#    16  16  16   8  16  16
#     4  11  21  33  46  61  82 112 146 181 217 256
#     4   9  18  33  52  72  91 111 136 167 208 257
#     4  10  17  26  39  54  74 102 136 175 213 251
#     4  10  22  34  45  62  85 111 138 173 211 252
#     4   9  15  22  33  50  72  98 130 170 212 250
#     4  11  21  34  48  67  88 111 142 174 215 259
#
# _framework density 14.360908999999999
#
# number of rings (size 3 to 8) (size 9 to 14) (size 15 to 20)
#    0.000    2.000    0.909    7.636    0.000    4.364 
#    0.000    0.909    0.000    0.000    0.000    0.000 
#    0.000    0.000    0.000    0.000    0.000    0.909 
#
# Total GULP energy -245289.860364 kJ/mol
# GULP energy per Si atom -5574.769554 kJ/mol
# Density = 1.432822 g / cm^3
# Si number density = 14.360909 Si / 1000 Ang^3
#
#
#
# Elastic Constant Matrix: (Units=GPa)
#
#
# Indices 1 2 3 4 5 6 
#
# 1 92.0980 24.5814 57.6680 0.0000 0.0000 0.0000
# 2 24.5814 54.7357 40.5639 0.0000 0.0000 0.0000
# 3 57.6680 40.5639 149.1541 0.0000 0.0000 0.0000
# 4 0.0000 0.0000 0.0000 1.7433 0.0000 0.0000
# 5 0.0000 0.0000 0.0000 0.0000 23.8213 0.0000
# 6 0.0000 0.0000 0.0000 0.0000 0.0000 17.7323
#
#
#
# Elastic Compliance Matrix: (Units=1/GPa)
#
#
# Indices 1 2 3 4 5 6 
#
# 1 0.014708 -0.002995 -0.004872 0.000000 0.000000 0.000000
# 2 -0.002995 0.023491 -0.005231 0.000000 0.000000 0.000000
# 3 -0.004872 -0.005231 0.010011 0.000000 0.000000 0.000000
# 4 0.000000 0.000000 0.000000 0.573636 0.000000 0.000000
# 5 0.000000 0.000000 0.000000 0.000000 0.041979 0.000000
# 6 0.000000 0.000000 0.000000 0.000000 0.000000 0.056394
#
#
# Mechanical properties :
#
#
# Convention : Reuss Voigt Hill
#
# Bulk Modulus (GPa) = 45.42433 60.17940 52.80186
# Shear Modulus (GPa) = 6.63348 20.20433 13.41890
#
# Velocity S-wave (km/s) = 2.15155 3.75493 3.06012
# Velocity P-wave (km/s) = 6.15397 7.79714 7.02377
#
# Compressibility (1/GPa) = 0.02201463
#
# Stress axis : x y z
#
# Youngs Moduli (GPa) = 67.98999 42.56967 99.89199
#
# Poissons Ratio (x) = 0.12748 0.48670
# Poissons Ratio (y) = 0.20360 0.52251
# Poissons Ratio (z) = 0.33126 0.22267
#
# Static dielectric constant tensor:
#      x y z
#    x 1.481430 0.000000 0.000000 
#    y 0.000000 1.437540 0.000000 
#    z 0.000000 0.000000 1.525470 
# 
# From -- ./inp_files/68432.got.cif
#   From: 2010.05.17/outbox.cif.g08.bks.cpg/sg65_35_cif.got.tgz:68432.got - 2010.06.03 17:01:31.
