data_PCOD9482711
_publ_section_title
;
Structure prediction by ZEFSAII (Michael W. Deem and Ramdas Pophale) SiO2 
 PCOD9482711
Probable space group: C M M M
;
_chemical_formula_sum "Si O2"
_cell_formula_units_Z 64
_cell_length_a 19.021681
_cell_length_b 8.547053
_cell_length_c 22.074308
_cell_angle_alpha 90.000000
_cell_angle_beta 90.000000
_cell_angle_gamma 90.000000
_cell_volume 3588.825888
_symmetry_space_group_name_H-M "C M M M"
_symmetry_group_IT_number 65
_symmetry_cell_setting 'orthorhombic'
loop_
_space_group_symop_operation_xyz
x,y,z
-x,-y,z
x,-y,-z
-x,y,-z
-x,-y,-z
x,y,-z
-x,y,z
x,-y,z
1/2+x,1/2+y,z
1/2-x,1/2-y,z
1/2+x,1/2-y,-z
1/2-x,1/2+y,-z
1/2-x,1/2-y,-z
1/2+x,1/2+y,-z
1/2-x,1/2+y,z
1/2+x,1/2-y,z
loop_
_atom_site_type_symbol
_atom_site_label
_atom_site_fract_x
_atom_site_fract_y
_atom_site_fract_z
Si Si1 0.669596 0.313830 0.309047
Si Si2 0.081507 0.309509 0.067139
Si Si3 0.330356 0.187468 0.433879
Si Si4 0.329550 0.188148 0.817395
O O1 0.671403 0.500000 0.307813
O O2 0.750000 0.250000 0.309342
O O3 0.636966 0.256117 0.372464
O O4 0.639022 0.249029 0.246234
O O5 0.083087 0.500000 0.067395
O O6 0.127404 0.257336 0.123892
O O7 0.000000 0.263536 0.073915
O O8 0.105963 0.259048 0.000000
O O9 0.361593 0.228860 0.500000
O O10 0.250000 0.250000 0.435387
O O11 0.328371 0.000000 0.428983
O O12 0.250000 0.250000 0.822135
O O13 0.328349 0.000000 0.815577
#
# Coordination Sequence:
#
# PCOD9482711 Si02
#       4
#    16  16  16  16
#     4  10  17  25  37  53  79 112 145 179 214 256
#     4   8  15  29  48  68  88 112 145 183 220 258
#     4   9  15  22  33  50  74 105 141 178 215 256
#     4  10  18  28  44  65  90 117 145 180 220 262
#
# _framework density 17.833130000000001
#
# number of rings (size 3 to 8) (size 9 to 14) (size 15 to 20)
#    0.000    2.750    0.000    7.500    0.000    2.000 
#    0.000    0.000    0.000    5.250    0.000    7.000 
#    0.000    1.000    0.000   11.500    0.000    9.000 
#
# Total GULP energy -178145.169735 kJ/mol
# GULP energy per Si atom -5567.036554 kJ/mol
# Density = 1.779254 g / cm^3
# Si number density = 17.833130 Si / 1000 Ang^3
#
#
#
# Elastic Constant Matrix: (Units=GPa)
#
#
# Indices 1 2 3 4 5 6 
#
# 1 17.0085 9.4079 47.9016 0.0000 0.0000 0.0000
# 2 9.4079 77.7659 51.5088 0.0000 0.0000 0.0000
# 3 47.9016 51.5088 240.4397 0.0000 0.0000 0.0000
# 4 0.0000 0.0000 0.0000 42.4900 0.0000 0.0000
# 5 0.0000 0.0000 0.0000 0.0000 -7.7652 0.0000
# 6 0.0000 0.0000 0.0000 0.0000 0.0000 6.0389
#
#
#
# Elastic Compliance Matrix: (Units=1/GPa)
#
#
# Indices 1 2 3 4 5 6 
#
# 1 0.134150 0.001717 -0.027094 0.000000 0.000000 0.000000
# 2 0.001717 0.015007 -0.003557 0.000000 0.000000 0.000000
# 3 -0.027094 -0.003557 0.010319 0.000000 0.000000 0.000000
# 4 0.000000 0.000000 0.000000 0.023535 0.000000 0.000000
# 5 0.000000 0.000000 0.000000 0.000000 -0.128779 0.000000
# 6 0.000000 0.000000 0.000000 0.000000 0.000000 0.165592
#
#
# Mechanical properties :
#
#
# Convention : Reuss Voigt Hill
#
# Bulk Modulus (GPa) = 9.84174 61.42784 35.63479
# Shear Modulus (GPa) = 16.04819 23.24579 19.64699
#
# Velocity S-wave (km/s) = 3.00310 3.61434 3.32281
# Velocity P-wave (km/s) = 4.18994 7.20685 5.89467
#
# Compressibility (1/GPa) = 0.10160803
#
# Stress axis : x y z
#
# Youngs Moduli (GPa) = 7.45435 66.63366 96.91035
#
# Poissons Ratio (x) = -0.11439 2.62567
# Poissons Ratio (y) = -0.01280 0.34471
# Poissons Ratio (z) = 0.20197 0.23702
#
# Static dielectric constant tensor:
#      x y z
#    x 1.577580 0.000000 0.000000 
#    y 0.000000 1.591880 0.000000 
#    z 0.000000 0.000000 1.701990 
# 
# From -- ./inp_files/49361.got.cif
#   From: 2010.05.17/outbox.cif.g08.bks.cpg/sg65_25_cif.got.tgz:49361.got - 2010.06.03 17:01:31.
