data_PCOD9482272
_publ_section_title
;
Structure prediction by ZEFSAII (Michael W. Deem and Ramdas Pophale) SiO2 
 PCOD9482272
Probable space group: C M C A
;
_chemical_formula_sum "Si O2"
_cell_formula_units_Z 52
_cell_length_a 15.791998
_cell_length_b 17.621525
_cell_length_c 7.046705
_cell_angle_alpha 90.000000
_cell_angle_beta 90.000000
_cell_angle_gamma 90.000000
_cell_volume 1960.950638
_symmetry_space_group_name_H-M "C M C A"
_symmetry_group_IT_number 64
_symmetry_cell_setting 'orthorhombic'
loop_
_space_group_symop_operation_xyz
x,y,z
-x,1/2-y,1/2+z
x,-y,-z
-x,1/2+y,1/2-z
-x,-y,-z
x,1/2+y,1/2-z
-x,y,z
x,1/2-y,1/2+z
1/2+x,1/2+y,z
1/2-x,-y,1/2+z
1/2+x,1/2-y,-z
1/2-x,y,1/2-z
1/2-x,1/2-y,-z
1/2+x,y,1/2-z
1/2-x,1/2+y,z
1/2+x,-y,1/2+z
loop_
_atom_site_type_symbol
_atom_site_label
_atom_site_fract_x
_atom_site_fract_y
_atom_site_fract_z
Si Si1 0.000000 0.000000 0.000000
Si Si2 0.828420 0.676271 0.396470
Si Si3 0.658949 0.447032 0.231341
Si Si4 0.095371 0.334320 0.972865
O O1 0.923954 0.988813 0.159150
O O2 0.750000 0.672316 0.250000
O O3 0.825672 0.620220 0.574622
O O4 0.849539 0.760494 0.470019
O O5 0.904349 0.657089 0.252768
O O6 0.750000 0.488090 0.250000
O O7 0.635500 0.406458 0.426662
O O8 0.000000 0.323144 0.044945
#
# Coordination Sequence:
#
# PCOD9482272 Si02
#       4
#     4  16  16  16
#     4  12  32  56  82 106 152 222 284 330 386 466
#     4  12  24  41  74 115 156 200 247 316 417 488
#     4  12  27  53  77 111 158 205 270 334 395 479
#     4  12  24  40  72 120 161 199 248 322 405 492
#
# _framework density 26.517748999999998
#
# number of rings (size 3 to 8) (size 9 to 14) (size 15 to 20)
#    0.000    0.000    7.692    2.769    4.308    1.231 
#    0.000    1.538    0.000    0.000    0.000    0.000 
#    0.000    0.000    0.000    0.000    0.000    0.000 
#
# Total GULP energy -145291.882471 kJ/mol
# GULP energy per Si atom -5588.149326 kJ/mol
# Density = 2.645739 g / cm^3
# Si number density = 26.517749 Si / 1000 Ang^3
#
#
#
# Elastic Constant Matrix: (Units=GPa)
#
#
# Indices 1 2 3 4 5 6 
#
# 1 229.7746 28.4883 1.3235 0.0000 0.0000 0.0000
# 2 28.4883 85.7429 11.6393 0.0000 0.0000 0.0000
# 3 1.3235 11.6393 119.9587 0.0000 0.0000 0.0000
# 4 0.0000 0.0000 0.0000 50.9626 0.0000 0.0000
# 5 0.0000 0.0000 0.0000 0.0000 55.6672 0.0000
# 6 0.0000 0.0000 0.0000 0.0000 0.0000 21.3669
#
#
#
# Elastic Compliance Matrix: (Units=1/GPa)
#
#
# Indices 1 2 3 4 5 6 
#
# 1 0.004540 -0.001522 0.000098 0.000000 0.000000 0.000000
# 2 -0.001522 0.012328 -0.001179 0.000000 0.000000 0.000000
# 3 0.000098 -0.001179 0.008450 0.000000 0.000000 0.000000
# 4 0.000000 0.000000 0.000000 0.019622 0.000000 0.000000
# 5 0.000000 0.000000 0.000000 0.000000 0.017964 0.000000
# 6 0.000000 0.000000 0.000000 0.000000 0.000000 0.046801
#
#
# Mechanical properties :
#
#
# Convention : Reuss Voigt Hill
#
# Bulk Modulus (GPa) = 49.72391 57.59760 53.66075
# Shear Modulus (GPa) = 41.11284 51.86768 46.49026
#
# Velocity S-wave (km/s) = 3.94177 4.42742 4.19164
# Velocity P-wave (km/s) = 6.28559 6.92125 6.61106
#
# Compressibility (1/GPa) = 0.02011105
#
# Stress axis : x y z
#
# Youngs Moduli (GPa) = 220.25462 81.11305 118.34936
#
# Poissons Ratio (x) = 0.12343 -0.01155
# Poissons Ratio (y) = 0.33517 0.13958
# Poissons Ratio (z) = -0.02149 0.09567
#
# Static dielectric constant tensor:
#      x y z
#    x 2.104510 0.000000 0.000000 
#    y 0.000000 2.064610 0.000000 
#    z 0.000000 0.000000 2.026970 
# 
# From -- ./inp_files/5244.got.cif
#   From: 2010.05.17/outbox.cif.g08.bks.cpg/sg64_3_cif.got.tgz:5244.got - 2010.06.03 16:29:19.
