data_PCOD9482247
_publ_section_title
;
Structure prediction by ZEFSAII (Michael W. Deem and Ramdas Pophale) SiO2 
 PCOD9482247
Probable space group: C M C A
;
_chemical_formula_sum "Si O2"
_cell_formula_units_Z 48
_cell_length_a 15.079468
_cell_length_b 17.417694
_cell_length_c 7.973438
_cell_angle_alpha 90.000000
_cell_angle_beta 90.000000
_cell_angle_gamma 90.000000
_cell_volume 2094.219977
_symmetry_space_group_name_H-M "C M C A"
_symmetry_group_IT_number 64
_symmetry_cell_setting 'orthorhombic'
loop_
_space_group_symop_operation_xyz
x,y,z
-x,1/2-y,1/2+z
x,-y,-z
-x,1/2+y,1/2-z
-x,-y,-z
x,1/2+y,1/2-z
-x,y,z
x,1/2-y,1/2+z
1/2+x,1/2+y,z
1/2-x,-y,1/2+z
1/2+x,1/2-y,-z
1/2-x,y,1/2-z
1/2-x,1/2-y,-z
1/2+x,y,1/2-z
1/2-x,1/2+y,z
1/2+x,-y,1/2+z
loop_
_atom_site_type_symbol
_atom_site_label
_atom_site_fract_x
_atom_site_fract_y
_atom_site_fract_z
Si Si1 0.653723 0.000000 0.500000
Si Si2 0.854269 0.363027 0.705925
Si Si3 0.250000 0.886961 0.250000
Si Si4 0.899387 0.707403 0.938942
O O1 0.608192 0.943088 0.634167
O O2 0.713311 0.941632 0.394661
O O3 0.750000 0.372852 0.750000
O O4 0.869957 0.296298 0.568753
O O5 0.895149 0.329665 0.876803
O O6 0.171058 0.836307 0.324122
O O7 0.000000 0.701478 0.875619
#
# Coordination Sequence:
#
# PCOD9482247 Si02
#       4
#     8  16   8  16
#     4  12  24  42  76 102 142 200 234 298 372 428
#     4  12  23  46  73 107 141 191 244 294 364 428
#     4  12  22  46  74 104 146 192 244 298 368 422
#     4  12  26  46  74 108 145 191 247 299 354 434
#
# _framework density 22.920228999999999
#
# number of rings (size 3 to 8) (size 9 to 14) (size 15 to 20)
#    0.000    0.000    6.667    4.000    0.000    0.000 
#    0.000   15.000    0.000    0.000    0.000    0.000 
#    0.000    0.000    0.000    0.000    0.000    0.000 
#
# Total GULP energy -134366.856740 kJ/mol
# GULP energy per Si atom -5598.619031 kJ/mol
# Density = 2.286806 g / cm^3
# Si number density = 22.920229 Si / 1000 Ang^3
#
#
#
# Elastic Constant Matrix: (Units=GPa)
#
#
# Indices 1 2 3 4 5 6 
#
# 1 123.3389 68.2168 42.8320 0.0000 0.0000 0.0000
# 2 68.2168 194.1500 67.6218 0.0000 0.0000 0.0000
# 3 42.8320 67.6218 128.6350 0.0000 0.0000 0.0000
# 4 0.0000 0.0000 0.0000 61.6528 0.0000 0.0000
# 5 0.0000 0.0000 0.0000 0.0000 25.0145 0.0000
# 6 0.0000 0.0000 0.0000 0.0000 0.0000 -97.9590
#
#
#
# Elastic Compliance Matrix: (Units=1/GPa)
#
#
# Indices 1 2 3 4 5 6 
#
# 1 0.010427 -0.003004 -0.001892 0.000000 0.000000 0.000000
# 2 -0.003004 0.007171 -0.002769 0.000000 0.000000 0.000000
# 3 -0.001892 -0.002769 0.009860 0.000000 0.000000 0.000000
# 4 0.000000 0.000000 0.000000 0.016220 0.000000 0.000000
# 5 0.000000 0.000000 0.000000 0.000000 0.039977 0.000000
# 6 0.000000 0.000000 0.000000 0.000000 0.000000 -0.010208
#
#
# Mechanical properties :
#
#
# Convention : Reuss Voigt Hill
#
# Bulk Modulus (GPa) = 82.47309 89.27391 85.87350
# Shear Modulus (GPa) = 53.86809 15.57186 34.71997
#
# Velocity S-wave (km/s) = 4.85319 2.60935 3.89629
# Velocity P-wave (km/s) = 8.21373 6.93633 7.60191
#
# Compressibility (1/GPa) = 0.01212517
#
# Stress axis : x y z
#
# Youngs Moduli (GPa) = 95.90862 139.45471 101.42191
#
# Poissons Ratio (x) = 0.41897 0.19193
# Poissons Ratio (y) = 0.28815 0.28086
# Poissons Ratio (z) = 0.18150 0.38618
#
# Static dielectric constant tensor:
#      x y z
#    x 1.802350 0.000000 0.000000 
#    y 0.000000 1.832630 0.000000 
#    z 0.000000 0.000000 1.928380 
# 
# From -- ./inp_files/5129.got.cif
#   From: 2010.05.17/outbox.cif.g08.bks.cpg/sg64_3_cif.got.tgz:5129.got - 2010.06.03 16:29:19.
