data_PCOD9482530
_publ_section_title
;
Structure prediction by ZEFSAII (Michael W. Deem and Ramdas Pophale) SiO2 
 PCOD9482530
Probable space group: C M M M
;
_chemical_formula_sum "Si O2"
_cell_formula_units_Z 72
_cell_length_a 22.326332
_cell_length_b 18.254422
_cell_length_c 11.768976
_cell_angle_alpha 90.000000
_cell_angle_beta 90.000000
_cell_angle_gamma 90.000000
_cell_volume 4796.496611
_symmetry_space_group_name_H-M "C M M M"
_symmetry_group_IT_number 65
_symmetry_cell_setting 'orthorhombic'
loop_
_space_group_symop_operation_xyz
x,y,z
-x,-y,z
x,-y,-z
-x,y,-z
-x,-y,-z
x,y,-z
-x,y,z
x,-y,z
1/2+x,1/2+y,z
1/2-x,1/2-y,z
1/2+x,1/2-y,-z
1/2-x,1/2+y,-z
1/2-x,1/2-y,-z
1/2+x,1/2+y,-z
1/2-x,1/2+y,z
1/2+x,1/2-y,z
loop_
_atom_site_type_symbol
_atom_site_label
_atom_site_fract_x
_atom_site_fract_y
_atom_site_fract_z
Si Si1 0.351389 0.123736 0.751683
Si Si2 0.702690 0.316905 0.500000
Si Si3 0.184615 0.587044 0.500000
Si Si4 0.775152 0.917447 0.134524
Si Si5 0.318918 0.281080 0.745905
Si Si6 0.071516 0.500000 0.866633
O O1 0.345327 0.116652 0.615361
O O2 0.288033 0.095150 0.802024
O O3 0.356937 0.209941 0.779433
O O4 0.401027 0.071113 0.804584
O O5 0.750000 0.250000 0.500000
O O6 0.746045 0.387215 0.500000
O O7 0.668109 0.307846 0.382270
O O8 0.180599 0.500000 0.500000
O O9 0.818101 0.851980 0.174744
O O10 0.796267 0.000000 0.160478
O O11 0.764992 0.911947 0.000000
O O12 0.250000 0.250000 0.746642
O O13 0.000000 0.500000 0.859972
O O14 0.089360 0.500000 0.000000
#
# Coordination Sequence:
#
# PCOD9482530 Si02
#       6
#    16   8   8  16  16   8
#     4  11  19  31  46  64  85 119 155 193 235 275
#     4  10  14  26  38  62  90 112 144 179 214 268
#     4  12  18  26  46  66  88 124 156 186 227 272
#     4  10  18  27  40  62  92 121 150 185 224 278
#     4   9  17  26  42  62  89 114 150 183 221 278
#     4  11  24  39  51  63  85 120 167 213 242 271
#
# _framework density 15.010956
#
# number of rings (size 3 to 8) (size 9 to 14) (size 15 to 20)
#    0.000    1.667    8.889    0.667    0.000    4.889 
#    0.000    1.111    0.000    0.000    0.000    0.000 
#    0.000    0.889    0.000    4.889    0.000    7.556 
#
# Total GULP energy -200512.429006 kJ/mol
# GULP energy per Si atom -5569.789695 kJ/mol
# Density = 1.497679 g / cm^3
# Si number density = 15.010956 Si / 1000 Ang^3
#
#
#
# Elastic Constant Matrix: (Units=GPa)
#
#
# Indices 1 2 3 4 5 6 
#
# 1 27.5641 25.9131 19.2826 0.0000 0.0000 0.0000
# 2 25.9131 125.6684 53.9050 0.0000 0.0000 0.0000
# 3 19.2826 53.9050 98.9328 0.0000 0.0000 0.0000
# 4 0.0000 0.0000 0.0000 -517.0643 0.0000 0.0000
# 5 0.0000 0.0000 0.0000 0.0000 5.7268 0.0000
# 6 0.0000 0.0000 0.0000 0.0000 0.0000 11.5701
#
#
#
# Elastic Compliance Matrix: (Units=1/GPa)
#
#
# Indices 1 2 3 4 5 6 
#
# 1 0.046859 -0.007497 -0.005048 0.000000 0.000000 0.000000
# 2 -0.007497 0.011584 -0.004850 0.000000 0.000000 0.000000
# 3 -0.005048 -0.004850 0.013735 0.000000 0.000000 0.000000
# 4 0.000000 0.000000 0.000000 -0.001934 0.000000 0.000000
# 5 0.000000 0.000000 0.000000 0.000000 0.174617 0.000000
# 6 0.000000 0.000000 0.000000 0.000000 0.000000 0.086430
#
#
# Mechanical properties :
#
#
# Convention : Reuss Voigt Hill
#
# Bulk Modulus (GPa) = 26.74805 50.04074 38.39440
# Shear Modulus (GPa) = 13.20854 -89.74919 -38.27033
#
# Velocity S-wave (km/s) = 2.96957 -7.74073 -5.05473
# Velocity P-wave (km/s) = 5.44202 6.81787 2.90412
#
# Compressibility (1/GPa) = 0.03738590
#
# Stress axis : x y z
#
# Youngs Moduli (GPa) = 21.34083 86.32646 72.80856
#
# Poissons Ratio (x) = 0.64719 0.36755
# Poissons Ratio (y) = 0.15999 0.35316
# Poissons Ratio (z) = 0.10773 0.41872
#
# Static dielectric constant tensor:
#      x y z
#    x 1.458790 0.000000 0.000000 
#    y 0.000000 1.548010 0.000000 
#    z 0.000000 0.000000 1.529230 
# 
# From -- ./inp_files/26610.got.cif
#   From: 2010.05.17/outbox.cif.g08.bks.cpg/sg65_14_cif.got.tgz:26610.got - 2010.06.03 17:01:31.
