data_PCOD9482371
_publ_section_title
;
Structure prediction by ZEFSAII (Michael W. Deem and Ramdas Pophale) SiO2 
 PCOD9482371
Probable space group: C M C A
;
_chemical_formula_sum "Si O2"
_cell_formula_units_Z 40
_cell_length_a 9.000000
_cell_length_b 27.000000
_cell_length_c 18.000000
_cell_angle_alpha 90.000000
_cell_angle_beta 90.000000
_cell_angle_gamma 90.000000
_cell_volume 4374.000000
_symmetry_space_group_name_H-M "C M C A"
_symmetry_group_IT_number 64
_symmetry_cell_setting 'orthorhombic'
loop_
_space_group_symop_operation_xyz
x,y,z
-x,1/2-y,1/2+z
x,-y,-z
-x,1/2+y,1/2-z
-x,-y,-z
x,1/2+y,1/2-z
-x,y,z
x,1/2-y,1/2+z
1/2+x,1/2+y,z
1/2-x,-y,1/2+z
1/2+x,1/2-y,-z
1/2-x,y,1/2-z
1/2-x,1/2-y,-z
1/2+x,y,1/2-z
1/2-x,1/2+y,z
1/2+x,-y,1/2+z
loop_
_atom_site_type_symbol
_atom_site_label
_atom_site_fract_x
_atom_site_fract_y
_atom_site_fract_z
Si Si1 0.678303 0.691354 0.401107
Si Si2 0.668885 0.442909 0.982012
Si Si3 0.674458 0.100424 0.323483
Si Si4 0.323609 0.794135 0.329478
Si Si5 0.325510 0.142734 0.944503
O O1 0.500000 0.685877 0.395940
O O2 0.753569 0.652937 0.345121
O O3 0.719400 0.746528 0.378805
O O4 0.721947 0.676113 0.484438
O O5 0.500000 0.424121 0.996343
O O6 0.698934 0.433325 0.895472
O O7 0.673933 0.500000 0.000000
O O8 0.784292 0.412085 0.029987
O O9 0.500000 0.106605 0.311484
O O10 0.750000 0.080294 0.250000
O O11 0.500000 0.795188 0.322468
O O12 0.250000 0.789197 0.250000
O O13 0.263789 0.841435 0.372656
O O14 0.500000 0.149279 0.932637
#
# Coordination Sequence:
#
# PCOD9482371 Si02
#       5
#    16  16  16  16  16
#     4   9  19  34  53  77 105 137 173 212 253 303
#     4   9  19  37  58  77 100 135 176 216 261 312
#     4  10  19  31  51  78 106 134 166 210 261 309
#     4  11  22  35  51  74 106 143 179 213 252 301
#     4  10  20  35  55  79 105 134 171 215 262 311
#
# _framework density 9.1449470000000002
#
# number of rings (size 3 to 8) (size 9 to 14) (size 15 to 20)
#    0.000    2.200    0.000    3.000    0.000    5.200 
#    0.000    1.000    0.000    2.400    0.000    0.000 
#    0.000    0.000    0.000    0.000    0.000    0.000 
#
# Total GULP energy -223154.321914 kJ/mol
# GULP energy per Si atom -5578.858048 kJ/mol
# Density = 0.912413 g / cm^3
# Si number density = 9.144947 Si / 1000 Ang^3
#
#
#
# Elastic Constant Matrix: (Units=GPa)
#
#
# Indices 1 2 3 4 5 6 
#
# 1 7.9842 22.4785 12.0492 0.0000 0.0000 0.0000
# 2 22.4785 42.1800 37.7066 0.0000 0.0000 0.0000
# 3 12.0492 37.7066 -24.7310 0.0000 0.0000 0.0000
# 4 0.0000 0.0000 0.0000 -10.1579 0.0000 0.0000
# 5 0.0000 0.0000 0.0000 0.0000 24.7462 0.0000
# 6 0.0000 0.0000 0.0000 0.0000 0.0000 21.6974
#
#
#
# Elastic Compliance Matrix: (Units=1/GPa)
#
#
# Indices 1 2 3 4 5 6 
#
# 1 -0.346326 0.141941 0.047679 0.000000 0.000000 0.000000
# 2 0.141941 -0.048141 -0.004244 0.000000 0.000000 0.000000
# 3 0.047679 -0.004244 -0.023676 0.000000 0.000000 0.000000
# 4 0.000000 0.000000 0.000000 -0.098445 0.000000 0.000000
# 5 0.000000 0.000000 0.000000 0.000000 0.040410 0.000000
# 6 0.000000 0.000000 0.000000 0.000000 0.000000 0.046088
#
#
# Mechanical properties :
#
#
# Convention : Reuss Voigt Hill
#
# Bulk Modulus (GPa) = -21.10111 18.87799 -1.11156
# Shear Modulus (GPa) = -6.12265 4.13707 -0.99279
#
# Velocity S-wave (km/s) = -1.83162 1.50561 -0.73756
# Velocity P-wave (km/s) = 4.00440 3.65601 1.15515
#
# Compressibility (1/GPa) = -0.04739086
#
# Stress axis : x y z
#
# Youngs Moduli (GPa) = -2.88745 -20.77222 -42.23679
#
# Poissons Ratio (x) = 2.94843 2.01382
# Poissons Ratio (y) = 0.40985 -0.17926
# Poissons Ratio (z) = 0.13767 -0.08816
#
# Static dielectric constant tensor:
#      x y z
#    x 1.615400 0.000000 0.000000 
#    y 0.000000 1.617500 0.000000 
#    z 0.000000 0.000000 1.625710 
# 
# From -- ./inp_files/29708.got.cif
#   From: 2010.05.17/outbox.ucp.g08.bks.cvg/sg64_15_cif.got.tgz:29708.got - 2010.06.11 16:36:46.
