data_PCOD9482321
_publ_section_title
;
Structure prediction by ZEFSAII (Michael W. Deem and Ramdas Pophale) SiO2 
 PCOD9482321
Probable space group: C M C A
;
_chemical_formula_sum "Si O2"
_cell_formula_units_Z 112
_cell_length_a 25.021260
_cell_length_b 13.973033
_cell_length_c 13.746268
_cell_angle_alpha 90.000000
_cell_angle_beta 90.000000
_cell_angle_gamma 90.000000
_cell_volume 4806.009968
_symmetry_space_group_name_H-M "C M C A"
_symmetry_group_IT_number 64
_symmetry_cell_setting 'orthorhombic'
loop_
_space_group_symop_operation_xyz
x,y,z
-x,1/2-y,1/2+z
x,-y,-z
-x,1/2+y,1/2-z
-x,-y,-z
x,1/2+y,1/2-z
-x,y,z
x,1/2-y,1/2+z
1/2+x,1/2+y,z
1/2-x,-y,1/2+z
1/2+x,1/2-y,-z
1/2-x,y,1/2-z
1/2-x,1/2-y,-z
1/2+x,y,1/2-z
1/2-x,1/2+y,z
1/2+x,-y,1/2+z
loop_
_atom_site_type_symbol
_atom_site_label
_atom_site_fract_x
_atom_site_fract_y
_atom_site_fract_z
Si Si1 0.833670 0.160980 0.714761
Si Si2 0.327530 0.277712 0.594080
Si Si3 0.440408 0.232761 0.535689
Si Si4 0.441138 0.904838 0.272963
Si Si5 0.244296 0.374878 0.042334
Si Si6 0.101065 0.569421 0.405181
Si Si7 0.710350 0.970391 0.675411
O O1 0.895998 0.135880 0.701171
O O2 0.796271 0.172588 0.622146
O O3 0.813203 0.062983 0.766427
O O4 0.829249 0.246150 0.793387
O O5 0.387324 0.294808 0.554745
O O6 0.299391 0.184809 0.544644
O O7 0.287963 0.359340 0.556994
O O8 0.500000 0.275149 0.528218
O O9 0.440430 0.164335 0.631942
O O10 0.428672 0.163120 0.444014
O O11 0.500000 0.904664 0.229995
O O12 0.428019 0.008473 0.320503
O O13 0.259369 0.475164 0.089404
O O14 0.105530 0.500000 0.500000
O O15 0.160362 0.587260 0.364983
O O16 0.750000 0.920619 0.750000
#
# Coordination Sequence:
#
# PCOD9482321 Si02
#       7
#    16  16  16  16  16  16  16
#     4   8  14  24  37  55  75  99 131 168 205 239
#     4   9  16  25  40  57  76 106 137 165 202 242
#     4   9  16  25  37  57  85 110 131 157 194 249
#     4   8  13  21  34  54  78 103 130 160 197 241
#     4   9  15  25  40  56  74 100 140 175 201 236
#     4   9  14  21  37  57  78 103 130 159 201 248
#     4   8  14  24  38  54  73  99 131 169 206 235
#
# _framework density 23.304155000000002
#
# number of rings (size 3 to 8) (size 9 to 14) (size 15 to 20)
#    0.000    3.429    0.000    4.286    0.000    1.714 
#    0.000    0.714    0.000    7.714    0.000    0.000 
#    0.000    0.000    0.000    0.000    0.000   84.286 
#
# Total GULP energy -312574.047209 kJ/mol
# GULP energy per Si atom -5581.679414 kJ/mol
# Density = 2.325111 g / cm^3
# Si number density = 23.304155 Si / 1000 Ang^3
#
#
#
# Elastic Constant Matrix: (Units=GPa)
#
#
# Indices 1 2 3 4 5 6 
#
# 1 154.4800 16.5347 38.0444 0.0000 0.0000 0.0000
# 2 16.5347 34.7166 1.6089 0.0000 0.0000 0.0000
# 3 38.0444 1.6089 81.1139 0.0000 0.0000 0.0000
# 4 0.0000 0.0000 0.0000 17.2824 0.0000 0.0000
# 5 0.0000 0.0000 0.0000 0.0000 27.3121 0.0000
# 6 0.0000 0.0000 0.0000 0.0000 0.0000 9.9459
#
#
#
# Elastic Compliance Matrix: (Units=1/GPa)
#
#
# Indices 1 2 3 4 5 6 
#
# 1 0.007725 -0.003514 -0.003553 0.000000 0.000000 0.000000
# 2 -0.003514 0.030430 0.001045 0.000000 0.000000 0.000000
# 3 -0.003553 0.001045 0.013974 0.000000 0.000000 0.000000
# 4 0.000000 0.000000 0.000000 0.057862 0.000000 0.000000
# 5 0.000000 0.000000 0.000000 0.000000 0.036614 0.000000
# 6 0.000000 0.000000 0.000000 0.000000 0.000000 0.100544
#
#
# Mechanical properties :
#
#
# Convention : Reuss Voigt Hill
#
# Bulk Modulus (GPa) = 24.94824 42.52074 33.73449
# Shear Modulus (GPa) = 18.34486 25.18290 21.76388
#
# Velocity S-wave (km/s) = 2.80874 3.29084 3.05930
# Velocity P-wave (km/s) = 4.60949 5.72059 5.19483
#
# Compressibility (1/GPa) = 0.04008299
#
# Stress axis : x y z
#
# Youngs Moduli (GPa) = 129.45692 32.86223 71.56040
#
# Poissons Ratio (x) = 0.11549 0.25428
# Poissons Ratio (y) = 0.45496 -0.07476
# Poissons Ratio (z) = 0.46000 -0.03433
#
# Static dielectric constant tensor:
#      x y z
#    x 1.908330 0.000000 0.000000 
#    y 0.000000 1.890860 0.000000 
#    z 0.000000 0.000000 1.920120 
# 
# From -- ./inp_files/19388.got.cif
#   From: 2010.05.17/outbox.cif.g08.bks.cpg/sg64_10_cif.got.tgz:19388.got - 2010.06.03 16:29:19.
