data_PCOD9482657
_publ_section_title
;
Structure prediction by ZEFSAII (Michael W. Deem and Ramdas Pophale) SiO2 
 PCOD9482657
Probable space group: C M M M
;
_chemical_formula_sum "Si O2"
_cell_formula_units_Z 64
_cell_length_a 20.498083
_cell_length_b 23.431591
_cell_length_c 7.860316
_cell_angle_alpha 90.000000
_cell_angle_beta 90.000000
_cell_angle_gamma 90.000000
_cell_volume 3775.330975
_symmetry_space_group_name_H-M "C M M M"
_symmetry_group_IT_number 65
_symmetry_cell_setting 'orthorhombic'
loop_
_space_group_symop_operation_xyz
x,y,z
-x,-y,z
x,-y,-z
-x,y,-z
-x,-y,-z
x,y,-z
-x,y,z
x,-y,z
1/2+x,1/2+y,z
1/2-x,1/2-y,z
1/2+x,1/2-y,-z
1/2-x,1/2+y,-z
1/2-x,1/2-y,-z
1/2+x,1/2+y,-z
1/2-x,1/2+y,z
1/2+x,1/2-y,z
loop_
_atom_site_type_symbol
_atom_site_label
_atom_site_fract_x
_atom_site_fract_y
_atom_site_fract_z
Si Si1 0.769572 0.125391 0.196324
Si Si2 0.248724 0.000000 0.798102
Si Si3 0.104639 0.500000 0.693531
Si Si4 0.427071 0.206877 0.500000
Si Si5 0.389043 0.874570 0.807939
Si Si6 0.190402 0.794300 0.500000
O O1 0.690244 0.126947 0.210141
O O2 0.801066 0.166895 0.332836
O O3 0.787384 0.059326 0.232442
O O4 0.785647 0.139268 0.000000
O O5 0.316187 0.000000 0.696328
O O6 0.267491 0.000000 0.000000
O O7 0.081314 0.500000 0.500000
O O8 0.087605 0.560109 0.779934
O O9 0.500000 0.229637 0.500000
O O10 0.416489 0.166523 0.336023
O O11 0.374701 0.257215 0.500000
O O12 0.405026 0.856892 0.000000
O O13 0.250000 0.750000 0.500000
#
# Coordination Sequence:
#
# PCOD9482657 Si02
#       6
#    16   8   8   8  16   8
#     4   9  18  32  55  84 111 134 169 218 266 316
#     4   8  16  28  46  82 117 135 159 211 272 320
#     4  10  16  26  52  80 108 138 173 219 265 308
#     4  12  26  41  52  73 106 142 185 228 264 311
#     4  10  19  35  55  78 107 142 179 221 265 310
#     4  12  22  35  55  79 103 141 185 219 262 306
#
# _framework density 16.952155999999999
#
# number of rings (size 3 to 8) (size 9 to 14) (size 15 to 20)
#    0.000    2.000    3.750    2.625    5.250    2.000 
#    0.000    1.250    0.000    1.500    0.000    1.750 
#    0.000    3.000    0.000    0.000    0.000    0.000 
#
# Total GULP energy -178569.151726 kJ/mol
# GULP energy per Si atom -5580.285991 kJ/mol
# Density = 1.691357 g / cm^3
# Si number density = 16.952156 Si / 1000 Ang^3
#
#
#
# Elastic Constant Matrix: (Units=GPa)
#
#
# Indices 1 2 3 4 5 6 
#
# 1 67.3538 51.3433 41.0398 0.0000 0.0000 0.0000
# 2 51.3433 118.8121 75.3820 0.0000 0.0000 0.0000
# 3 41.0398 75.3820 128.1779 0.0000 0.0000 0.0000
# 4 0.0000 0.0000 0.0000 7.3036 0.0000 0.0000
# 5 0.0000 0.0000 0.0000 0.0000 -0.0152 0.0000
# 6 0.0000 0.0000 0.0000 0.0000 0.0000 4.1816
#
#
#
# Elastic Compliance Matrix: (Units=1/GPa)
#
#
# Indices 1 2 3 4 5 6 
#
# 1 0.022586 -0.008251 -0.002379 0.000000 0.000000 0.000000
# 2 -0.008251 0.016441 -0.007027 0.000000 0.000000 0.000000
# 3 -0.002379 -0.007027 0.012696 0.000000 0.000000 0.000000
# 4 0.000000 0.000000 0.000000 0.136919 0.000000 0.000000
# 5 0.000000 0.000000 0.000000 0.000000-65.997587 0.000000
# 6 0.000000 0.000000 0.000000 0.000000 0.000000 0.239143
#
#
# Mechanical properties :
#
#
# Convention : Reuss Voigt Hill
#
# Bulk Modulus (GPa) = 60.94360 72.20823 66.57591
# Shear Modulus (GPa) = -0.07630 12.06591 5.99480
#
# Velocity S-wave (km/s) = -0.21239 2.67078 1.88255
# Velocity P-wave (km/s) = 5.99735 7.22486 6.63953
#
# Compressibility (1/GPa) = 0.01640861
#
# Stress axis : x y z
#
# Youngs Moduli (GPa) = 44.27466 60.82522 78.76442
#
# Poissons Ratio (x) = 0.50186 0.18740
# Poissons Ratio (y) = 0.36530 0.55348
# Poissons Ratio (z) = 0.10534 0.42742
#
# Static dielectric constant tensor:
#      x y z
#    x 1.553170 0.000000 0.000000 
#    y 0.000000 1.589810 0.000000 
#    z 0.000000 0.000000 1.592310 
# 
# From -- ./inp_files/11180.got.cif
#   From: 2010.05.17/outbox.cif.g08.bks.cpg/sg65_6_cif.got.tgz:11180.got - 2010.06.03 17:01:31.
