data_PCOD9482021
_publ_section_title
;
Structure prediction by ZEFSAII (Michael W. Deem and Ramdas Pophale) SiO2 
 PCOD9482021
Probable space group: C M C A
;
_chemical_formula_sum "Si O2"
_cell_formula_units_Z 40
_cell_length_a 13.495758
_cell_length_b 25.013514
_cell_length_c 4.816427
_cell_angle_alpha 90.000000
_cell_angle_beta 90.000000
_cell_angle_gamma 90.000000
_cell_volume 1625.911758
_symmetry_space_group_name_H-M "C M C A"
_symmetry_group_IT_number 64
_symmetry_cell_setting 'orthorhombic'
loop_
_space_group_symop_operation_xyz
x,y,z
-x,1/2-y,1/2+z
x,-y,-z
-x,1/2+y,1/2-z
-x,-y,-z
x,1/2+y,1/2-z
-x,y,z
x,1/2-y,1/2+z
1/2+x,1/2+y,z
1/2-x,-y,1/2+z
1/2+x,1/2-y,-z
1/2-x,y,1/2-z
1/2-x,1/2-y,-z
1/2+x,y,1/2-z
1/2-x,1/2+y,z
1/2+x,-y,1/2+z
loop_
_atom_site_type_symbol
_atom_site_label
_atom_site_fract_x
_atom_site_fract_y
_atom_site_fract_z
Si Si1 0.500000 0.541313 0.241438
Si Si2 0.177030 0.387481 0.506525
Si Si3 0.368574 0.217220 0.758110
O O1 0.500000 0.500000 0.500000
O O2 0.500000 0.500000 0.000000
O O3 0.399621 0.575235 0.178356
O O4 0.250000 0.408188 0.250000
O O5 0.111609 0.341099 0.362156
O O6 0.250000 0.366138 0.750000
O O7 0.399253 0.265919 0.561478
O O8 0.250000 0.216960 0.750000
#
# Coordination Sequence:
#
# PCOD9482021 Si02
#       3
#     8  16  16
#     4  12  28  48  68  96 132 174 234 300 350 404
#     4  11  23  42  69  98 132 176 223 274 341 415
#     4   9  16  30  57  93 131 170 210 258 322 401
#
# _framework density 24.601579999999998
#
# number of rings (size 3 to 8) (size 9 to 14) (size 15 to 20)
#    0.000    1.600    0.000    8.400    0.000    3.200 
#    0.000    2.000    0.000    0.000    0.000    2.800 
#    0.000    0.000    0.000    0.000    0.000    0.000 
#
# Total GULP energy -111399.390190 kJ/mol
# GULP energy per Si atom -5569.969509 kJ/mol
# Density = 2.454559 g / cm^3
# Si number density = 24.601580 Si / 1000 Ang^3
#
#
#
# Elastic Constant Matrix: (Units=GPa)
#
#
# Indices 1 2 3 4 5 6 
#
# 1 182.6176 43.0147 28.8355 0.0000 0.0000 0.0000
# 2 43.0147 118.5946 37.7104 0.0000 0.0000 0.0000
# 3 28.8355 37.7104 153.3801 0.0000 0.0000 0.0000
# 4 0.0000 0.0000 0.0000 64.4765 0.0000 0.0000
# 5 0.0000 0.0000 0.0000 0.0000 -11.1698 0.0000
# 6 0.0000 0.0000 0.0000 0.0000 0.0000 60.3927
#
#
#
# Elastic Compliance Matrix: (Units=1/GPa)
#
#
# Indices 1 2 3 4 5 6 
#
# 1 0.006046 -0.001987 -0.000648 0.000000 0.000000 0.000000
# 2 -0.001987 0.009800 -0.002036 0.000000 0.000000 0.000000
# 3 -0.000648 -0.002036 0.007142 0.000000 0.000000 0.000000
# 4 0.000000 0.000000 0.000000 0.015510 0.000000 0.000000
# 5 0.000000 0.000000 0.000000 0.000000 -0.089527 0.000000
# 6 0.000000 0.000000 0.000000 0.000000 0.000000 0.016558
#
#
# Mechanical properties :
#
#
# Convention : Reuss Voigt Hill
#
# Bulk Modulus (GPa) = 73.27888 74.85706 74.06797
# Shear Modulus (GPa) = -242.95340 45.74200 -98.60570
#
# Velocity S-wave (km/s) = -9.94835 4.31665 -6.33783
# Velocity P-wave (km/s) = 10.10488 7.43898 4.83581
#
# Compressibility (1/GPa) = 0.01364650
#
# Stress axis : x y z
#
# Youngs Moduli (GPa) = 165.39101 102.03949 140.01339
#
# Poissons Ratio (x) = 0.20274 0.09076
# Poissons Ratio (y) = 0.32861 0.28506
# Poissons Ratio (z) = 0.10721 0.20775
#
# Static dielectric constant tensor:
#      x y z
#    x 1.831870 0.000000 0.000000 
#    y 0.000000 1.971920 0.000000 
#    z 0.000000 0.000000 1.916100 
# 
# From -- ./inp_files/599.got.cif
#   From: 2010.05.17/outbox.cif.g08.bks.cpg/sg64_1_cif.got.tgz:599.got - 2010.06.03 16:29:19.
