data_PCOD9482773
_publ_section_title
;
Structure prediction by ZEFSAII (Michael W. Deem and Ramdas Pophale) SiO2 
 PCOD9482773
Probable space group: C M M M
;
_chemical_formula_sum "Si O2"
_cell_formula_units_Z 104
_cell_length_a 23.658808
_cell_length_b 31.116053
_cell_length_c 7.557309
_cell_angle_alpha 90.000000
_cell_angle_beta 90.000000
_cell_angle_gamma 90.000000
_cell_volume 5563.454521
_symmetry_space_group_name_H-M "C M M M"
_symmetry_group_IT_number 65
_symmetry_cell_setting 'orthorhombic'
loop_
_space_group_symop_operation_xyz
x,y,z
-x,-y,z
x,-y,-z
-x,y,-z
-x,-y,-z
x,y,-z
-x,y,z
x,-y,z
1/2+x,1/2+y,z
1/2-x,1/2-y,z
1/2+x,1/2-y,-z
1/2-x,1/2+y,-z
1/2-x,1/2-y,-z
1/2+x,1/2+y,-z
1/2-x,1/2+y,z
1/2+x,1/2-y,z
loop_
_atom_site_type_symbol
_atom_site_label
_atom_site_fract_x
_atom_site_fract_y
_atom_site_fract_z
Si Si1 0.564003 0.122269 0.212012
Si Si2 0.653191 0.951556 0.287479
Si Si3 0.435303 0.308583 0.786715
Si Si4 0.000000 0.950131 0.283331
Si Si5 0.280362 0.450397 0.284237
Si Si6 0.931195 0.715372 0.204586
Si Si7 0.888634 0.100238 0.711054
O O1 0.500000 0.113615 0.276958
O O2 0.606661 0.083712 0.244562
O O3 0.584268 0.168942 0.282640
O O4 0.560035 0.127329 0.000000
O O5 0.655932 0.953715 0.500000
O O6 0.716574 0.940049 0.224812
O O7 0.639607 0.000000 0.223897
O O8 0.500000 0.316450 0.724297
O O9 0.415312 0.261860 0.718557
O O10 0.397649 0.349429 0.742815
O O11 0.437919 0.305325 0.000000
O O12 0.056218 0.925375 0.221994
O O13 0.000000 0.949221 0.500000
O O14 0.000000 0.000000 0.231090
O O15 0.279833 0.448752 0.500000
O O16 0.292413 0.500000 0.236632
O O17 0.330205 0.419580 0.220292
O O18 0.000000 0.715575 0.203894
O O19 0.911886 0.715532 0.000000
O O20 0.888191 0.093661 0.500000
#
# Coordination Sequence:
#
# PCOD9482773 Si02
#       7
#    16  16  16   8  16  16  16
#     4   9  17  30  49  72  94 114 142 180 219 257
#     4   9  18  32  48  66  90 120 151 179 211 258
#     4   9  16  27  43  62  88 119 146 174 219 274
#     4   9  16  24  37  61  89 113 139 179 228 267
#     4   8  15  29  47  63  82 116 157 187 213 254
#     4   7  12  25  44  63  84 115 148 174 207 260
#     4  10  17  26  43  66  88 110 146 193 228 256
#
# _framework density 18.69342
#
# number of rings (size 3 to 8) (size 9 to 14) (size 15 to 20)
#    0.000    3.308    0.769    3.231    0.000    2.769 
#    0.000    3.077    0.000    6.923    0.000    6.462 
#    0.000    0.000    0.000    0.000    0.000    0.000 
#
# Total GULP energy -289634.524548 kJ/mol
# GULP energy per Si atom -5569.894703 kJ/mol
# Density = 1.865087 g / cm^3
# Si number density = 18.693420 Si / 1000 Ang^3
#
#
#
# Elastic Constant Matrix: (Units=GPa)
#
#
# Indices 1 2 3 4 5 6 
#
# 1 116.1687 115.6204 5.4236 0.0000 0.0000 0.0000
# 2 115.6204 194.7498 1.8236 0.0000 0.0000 0.0000
# 3 5.4236 1.8236 41.6517 0.0000 0.0000 0.0000
# 4 0.0000 0.0000 0.0000 19.7979 0.0000 0.0000
# 5 0.0000 0.0000 0.0000 0.0000 13.2694 0.0000
# 6 0.0000 0.0000 0.0000 0.0000 0.0000 18.6080
#
#
#
# Elastic Compliance Matrix: (Units=1/GPa)
#
#
# Indices 1 2 3 4 5 6 
#
# 1 0.021243 -0.012591 -0.002215 0.000000 0.000000 0.000000
# 2 -0.012591 0.012600 0.001088 0.000000 0.000000 0.000000
# 3 -0.002215 0.001088 0.024249 0.000000 0.000000 0.000000
# 4 0.000000 0.000000 0.000000 0.050510 0.000000 0.000000
# 5 0.000000 0.000000 0.000000 0.000000 0.075361 0.000000
# 6 0.000000 0.000000 0.000000 0.000000 0.000000 0.053740
#
#
# Mechanical properties :
#
#
# Convention : Reuss Voigt Hill
#
# Bulk Modulus (GPa) = 32.61979 66.47837 49.54908
# Shear Modulus (GPa) = 18.15811 25.64858 21.90334
#
# Velocity S-wave (km/s) = 3.12005 3.70816 3.42674
# Velocity P-wave (km/s) = 5.51973 7.34667 6.49773
#
# Compressibility (1/GPa) = 0.03065624
#
# Stress axis : x y z
#
# Youngs Moduli (GPa) = 47.07383 79.36657 41.23812
#
# Poissons Ratio (x) = 0.99931 0.09134
# Poissons Ratio (y) = 0.59271 -0.04486
# Poissons Ratio (z) = 0.10426 -0.08634
#
# Static dielectric constant tensor:
#      x y z
#    x 1.624080 0.000000 0.000000 
#    y 0.000000 1.675440 0.000000 
#    z 0.000000 0.000000 1.691230 
# 
# From -- ./inp_files/15030.got.cif
#   From: 2010.05.17/outbox.cif.g08.bks.cpg/sg65_8_cif.got.tgz:15030.got - 2010.06.03 17:01:31.
