data_PCOD9482825
_publ_section_title
;
Structure prediction by ZEFSAII (Michael W. Deem and Ramdas Pophale) SiO2 
 PCOD9482825
Probable space group: C M M M
;
_chemical_formula_sum "Si O2"
_cell_formula_units_Z 112
_cell_length_a 14.378520
_cell_length_b 29.267507
_cell_length_c 14.855748
_cell_angle_alpha 90.000000
_cell_angle_beta 90.000000
_cell_angle_gamma 90.000000
_cell_volume 6251.646899
_symmetry_space_group_name_H-M "C M M M"
_symmetry_group_IT_number 65
_symmetry_cell_setting 'orthorhombic'
loop_
_space_group_symop_operation_xyz
x,y,z
-x,-y,z
x,-y,-z
-x,y,-z
-x,-y,-z
x,y,-z
-x,y,z
x,-y,z
1/2+x,1/2+y,z
1/2-x,1/2-y,z
1/2+x,1/2-y,-z
1/2-x,1/2+y,-z
1/2-x,1/2-y,-z
1/2+x,1/2+y,-z
1/2-x,1/2+y,z
1/2+x,1/2-y,z
loop_
_atom_site_type_symbol
_atom_site_label
_atom_site_fract_x
_atom_site_fract_y
_atom_site_fract_z
Si Si1 0.608627 0.900088 0.104942
Si Si2 0.894761 0.315776 0.777219
Si Si3 0.386148 0.226004 0.400924
Si Si4 0.145571 0.230931 0.102751
Si Si5 0.293397 0.448594 0.106873
Si Si6 0.112071 0.136002 0.205497
Si Si7 0.113349 0.167467 0.599929
O O1 0.500000 0.911153 0.123002
O O2 0.643183 0.857251 0.164139
O O3 0.682553 0.940184 0.118097
O O4 0.613144 0.885965 0.000000
O O5 0.849232 0.302971 0.682579
O O6 0.900464 0.269737 0.835776
O O7 0.000000 0.330399 0.756714
O O8 0.357781 0.209945 0.500000
O O9 0.500000 0.225312 0.397902
O O10 0.360188 0.279094 0.391131
O O11 0.250000 0.250000 0.098456
O O12 0.139205 0.182056 0.151024
O O13 0.110410 0.228288 0.000000
O O14 0.318499 0.500000 0.134500
O O15 0.345797 0.408829 0.159817
O O16 0.312775 0.443781 0.000000
O O17 0.142289 0.141400 0.309846
O O18 0.000000 0.133713 0.203032
O O19 0.143196 0.151454 0.500000
O O20 0.000000 0.166713 0.599648
#
# Coordination Sequence:
#
# PCOD9482825 Si02
#       7
#    16  16  16  16  16  16  16
#     4   9  18  33  54  78 102 132 172 215 259 310
#     4  10  17  27  45  70  98 127 159 197 242 289
#     4   8  13  23  41  66  97 132 167 200 236 282
#     4  11  22  32  43  63  97 140 177 206 239 286
#     4  10  22  39  56  75 101 132 169 218 272 319
#     4  11  21  34  54  79 105 138 178 214 257 314
#     4   8  14  27  48  73 101 135 176 216 251 292
#
# _framework density 17.915278000000001
#
# number of rings (size 3 to 8) (size 9 to 14) (size 15 to 20)
#    0.000    2.429    1.429    3.000    0.000    5.429 
#    0.000    2.143    0.000    4.714    0.000    2.000 
#    0.000    0.000    0.000    6.857    0.000    0.286 
#
# Total GULP energy -312310.461698 kJ/mol
# GULP energy per Si atom -5576.972530 kJ/mol
# Density = 1.787450 g / cm^3
# Si number density = 17.915278 Si / 1000 Ang^3
#
#
#
# Elastic Constant Matrix: (Units=GPa)
#
#
# Indices 1 2 3 4 5 6 
#
# 1 61.5572 21.2768 25.0735 0.0000 0.0000 0.0000
# 2 21.2768 97.4205 51.8406 0.0000 0.0000 0.0000
# 3 25.0735 51.8406 120.6426 0.0000 0.0000 0.0000
# 4 0.0000 0.0000 0.0000 7.8674 0.0000 0.0000
# 5 0.0000 0.0000 0.0000 0.0000 -16.8101 0.0000
# 6 0.0000 0.0000 0.0000 0.0000 0.0000 15.8748
#
#
#
# Elastic Compliance Matrix: (Units=1/GPa)
#
#
# Indices 1 2 3 4 5 6 
#
# 1 0.018222 -0.002547 -0.002693 0.000000 0.000000 0.000000
# 2 -0.002547 0.013664 -0.005342 0.000000 0.000000 0.000000
# 3 -0.002693 -0.005342 0.011144 0.000000 0.000000 0.000000
# 4 0.000000 0.000000 0.000000 0.127107 0.000000 0.000000
# 5 0.000000 0.000000 0.000000 0.000000 -0.059488 0.000000
# 6 0.000000 0.000000 0.000000 0.000000 0.000000 0.062993
#
#
# Mechanical properties :
#
#
# Convention : Reuss Voigt Hill
#
# Bulk Modulus (GPa) = 45.73171 52.88910 49.31040
# Shear Modulus (GPa) = 24.74103 13.48172 19.11137
#
# Velocity S-wave (km/s) = 3.72021 2.74620 3.26968
# Velocity P-wave (km/s) = 6.63592 6.29614 6.46826
#
# Compressibility (1/GPa) = 0.02186667
#
# Stress axis : x y z
#
# Youngs Moduli (GPa) = 54.87816 73.18672 89.73372
#
# Poissons Ratio (x) = 0.18640 0.24163
# Poissons Ratio (y) = 0.13977 0.47936
# Poissons Ratio (z) = 0.14777 0.39096
#
# Static dielectric constant tensor:
#      x y z
#    x 1.718010 0.000000 0.000000 
#    y 0.000000 1.563810 0.000000 
#    z 0.000000 0.000000 1.644380 
# 
# From -- ./inp_files/41140.got.cif
#   From: 2010.05.17/outbox.cif.g08.bks.cpg/sg65_21_cif.got.tgz:41140.got - 2010.06.03 17:01:31.
