data_PCOD9482829
_publ_section_title
;
Structure prediction by ZEFSAII (Michael W. Deem and Ramdas Pophale) SiO2 
 PCOD9482829
Probable space group: C M M M
;
_chemical_formula_sum "Si O2"
_cell_formula_units_Z 104
_cell_length_a 23.032553
_cell_length_b 27.606615
_cell_length_c 7.365919
_cell_angle_alpha 90.000000
_cell_angle_beta 90.000000
_cell_angle_gamma 90.000000
_cell_volume 4683.625659
_symmetry_space_group_name_H-M "C M M M"
_symmetry_group_IT_number 65
_symmetry_cell_setting 'orthorhombic'
loop_
_space_group_symop_operation_xyz
x,y,z
-x,-y,z
x,-y,-z
-x,y,-z
-x,-y,-z
x,y,-z
-x,y,z
x,-y,z
1/2+x,1/2+y,z
1/2-x,1/2-y,z
1/2+x,1/2-y,-z
1/2-x,1/2+y,-z
1/2-x,1/2-y,-z
1/2+x,1/2+y,-z
1/2-x,1/2+y,z
1/2+x,1/2-y,z
loop_
_atom_site_type_symbol
_atom_site_label
_atom_site_fract_x
_atom_site_fract_y
_atom_site_fract_z
Si Si1 0.886460 0.555064 0.780485
Si Si2 0.741651 0.058149 0.787368
Si Si3 0.568013 0.500000 0.721475
Si Si4 0.680155 0.200011 0.279031
Si Si5 0.937764 0.346614 0.288238
Si Si6 0.690755 0.312334 0.278571
Si Si7 0.134470 0.905113 0.296653
O O1 0.897700 0.500000 0.720582
O O2 0.822135 0.571544 0.717260
O O3 0.931360 0.595498 0.723363
O O4 0.884257 0.553983 0.000000
O O5 0.798576 0.077838 0.693444
O O6 0.743127 0.000000 0.774766
O O7 0.746002 0.070701 0.000000
O O8 0.500000 0.500000 0.765916
O O9 0.573947 0.500000 0.500000
O O10 0.599339 0.549585 0.785468
O O11 0.681101 0.197606 0.500000
O O12 0.621796 0.174836 0.210737
O O13 0.678668 0.256796 0.229664
O O14 0.742352 0.178221 0.220510
O O15 0.938271 0.332755 0.500000
O O16 0.000000 0.331755 0.209870
O O17 0.689784 0.314748 0.500000
O O18 0.644043 0.351858 0.213002
O O19 0.110290 0.898476 0.500000
#
# Coordination Sequence:
#
# PCOD9482829 Si02
#       7
#    16  16   8  16  16  16  16
#     4   9  19  34  49  67  93 125 158 190 229 280
#     4   9  17  29  45  67  95 121 146 186 238 281
#     4   9  18  30  41  61  99 133 154 189 234 273
#     4   8  14  27  43  64  94 119 142 187 242 282
#     4  10  20  32  47  68  94 124 157 196 237 271
#     4   8  14  24  44  69  89 113 150 191 233 281
#     4  10  17  27  46  70  91 121 162 194 229 282
#
# _framework density 22.205019
#
# number of rings (size 3 to 8) (size 9 to 14) (size 15 to 20)
#    0.000    3.000    0.769    2.769    0.000    2.769 
#    0.000    3.846    0.000    6.462    0.000    4.308 
#    0.000    0.000    0.000    0.000    0.000    0.000 
#
# Total GULP energy -290096.561251 kJ/mol
# GULP energy per Si atom -5578.780024 kJ/mol
# Density = 2.215448 g / cm^3
# Si number density = 22.205019 Si / 1000 Ang^3
#
#
#
# Elastic Constant Matrix: (Units=GPa)
#
#
# Indices 1 2 3 4 5 6 
#
# 1 111.7796 68.3415 -5.3801 0.0000 0.0000 0.0000
# 2 68.3415 123.5173 -3.6856 0.0000 0.0000 0.0000
# 3 -5.3801 -3.6856 77.0801 0.0000 0.0000 0.0000
# 4 0.0000 0.0000 0.0000 8.9166 0.0000 0.0000
# 5 0.0000 0.0000 0.0000 0.0000 590.7225 0.0000
# 6 0.0000 0.0000 0.0000 0.0000 0.0000 17.2561
#
#
#
# Elastic Compliance Matrix: (Units=1/GPa)
#
#
# Indices 1 2 3 4 5 6 
#
# 1 0.013546 -0.007477 0.000588 0.000000 0.000000 0.000000
# 2 -0.007477 0.012235 0.000063 0.000000 0.000000 0.000000
# 3 0.000588 0.000063 0.013018 0.000000 0.000000 0.000000
# 4 0.000000 0.000000 0.000000 0.112151 0.000000 0.000000
# 5 0.000000 0.000000 0.000000 0.000000 0.001693 0.000000
# 6 0.000000 0.000000 0.000000 0.000000 0.000000 0.057951
#
#
# Mechanical properties :
#
#
# Convention : Reuss Voigt Hill
#
# Bulk Modulus (GPa) = 39.76760 47.88096 43.82428
# Shear Modulus (GPa) = 21.49355 140.25244 80.87300
#
# Velocity S-wave (km/s) = 3.11458 7.95611 6.04153
# Velocity P-wave (km/s) = 5.55718 10.29609 8.27320
#
# Compressibility (1/GPa) = 0.02514610
#
# Stress axis : x y z
#
# Youngs Moduli (GPa) = 73.82163 81.73162 76.81926
#
# Poissons Ratio (x) = 0.61115 -0.04517
# Poissons Ratio (y) = 0.55200 -0.00485
# Poissons Ratio (z) = -0.04341 -0.00516
#
# Static dielectric constant tensor:
#      x y z
#    x 1.792250 0.000000 0.000000 
#    y 0.000000 1.847780 0.000000 
#    z 0.000000 0.000000 1.883790 
# 
# From -- ./inp_files/15048.got.cif
#   From: 2010.05.17/outbox.cif.g08.bks.cpg/sg65_8_cif.got.tgz:15048.got - 2010.06.03 17:01:31.
