data_PCOD9482455
_publ_section_title
;
Structure prediction by ZEFSAII (Michael W. Deem and Ramdas Pophale) SiO2 
 PCOD9482455
Probable space group: C M C A
;
_chemical_formula_sum "Si O2"
_cell_formula_units_Z 48
_cell_length_a 9.000000
_cell_length_b 24.000000
_cell_length_c 24.000000
_cell_angle_alpha 90.000000
_cell_angle_beta 90.000000
_cell_angle_gamma 90.000000
_cell_volume 5184.000000
_symmetry_space_group_name_H-M "C M C A"
_symmetry_group_IT_number 64
_symmetry_cell_setting 'orthorhombic'
loop_
_space_group_symop_operation_xyz
x,y,z
-x,1/2-y,1/2+z
x,-y,-z
-x,1/2+y,1/2-z
-x,-y,-z
x,1/2+y,1/2-z
-x,y,z
x,1/2-y,1/2+z
1/2+x,1/2+y,z
1/2-x,-y,1/2+z
1/2+x,1/2-y,-z
1/2-x,y,1/2-z
1/2-x,1/2-y,-z
1/2+x,y,1/2-z
1/2-x,1/2+y,z
1/2+x,-y,1/2+z
loop_
_atom_site_type_symbol
_atom_site_label
_atom_site_fract_x
_atom_site_fract_y
_atom_site_fract_z
Si Si1 0.329991 0.818531 0.306967
Si Si2 0.677646 0.604406 0.608542
Si Si3 0.828412 0.815020 0.692466
Si Si4 0.322140 0.502586 0.690945
Si Si5 0.675767 0.097514 0.374049
Si Si6 0.674462 0.065827 0.011885
O O1 0.500000 0.836849 0.304433
O O2 0.250000 0.836259 0.250000
O O3 0.251985 0.844764 0.360038
O O4 0.324568 0.751757 0.309891
O O5 0.500000 0.610360 0.609417
O O6 0.712881 0.549551 0.644914
O O7 0.722309 0.596198 0.544736
O O8 0.750000 0.832160 0.750000
O O9 0.738132 0.842351 0.642606
O O10 0.000000 0.833005 0.691799
O O11 0.500000 0.498315 0.695969
O O12 0.250000 0.516959 0.750000
O O13 0.253749 0.445465 0.668234
O O14 0.500000 0.094563 0.368184
O O15 0.728041 0.081685 0.435593
O O16 0.500000 0.078181 0.023533
O O17 0.683275 0.000000 0.000000
#
# Coordination Sequence:
#
# PCOD9482455 Si02
#       6
#    16  16  16  16  16  16
#     4  10  21  37  60  87 117 151 190 235 286 341
#     4  10  21  37  60  85 113 150 190 233 284 339
#     4  10  21  39  61  85 115 153 191 235 288 343
#     4  11  22  37  55  82 116 151 187 231 286 344
#     4  12  24  37  57  86 115 149 191 239 286 337
#     4  10  20  40  62  82 112 154 195 233 285 343
#
# _framework density 9.2592590000000001
#
# number of rings (size 3 to 8) (size 9 to 14) (size 15 to 20)
#    0.000    1.500    1.667    4.000    0.000    5.667 
#    0.000    0.833    0.000    0.000    0.000    0.000 
#    0.000    0.000    0.000    0.000    0.000    0.000 
#
# Total GULP energy -268197.542859 kJ/mol
# GULP energy per Si atom -5587.448810 kJ/mol
# Density = 0.923818 g / cm^3
# Si number density = 9.259259 Si / 1000 Ang^3
#
#
#
# Elastic Constant Matrix: (Units=GPa)
#
#
# Indices 1 2 3 4 5 6 
#
# 1 46.9079 28.3141 32.8288 0.0000 0.0000 0.0000
# 2 28.3141 26.3331 27.0677 0.0000 0.0000 0.0000
# 3 32.8288 27.0677 60.5614 0.0000 0.0000 0.0000
# 4 0.0000 0.0000 0.0000 7.4460 0.0000 0.0000
# 5 0.0000 0.0000 0.0000 0.0000 32.6273 0.0000
# 6 0.0000 0.0000 0.0000 0.0000 0.0000 -0.2648
#
#
#
# Elastic Compliance Matrix: (Units=1/GPa)
#
#
# Indices 1 2 3 4 5 6 
#
# 1 0.062345 -0.059744 -0.007093 0.000000 0.000000 0.000000
# 2 -0.059744 0.127500 -0.024600 0.000000 0.000000 0.000000
# 3 -0.007093 -0.024600 0.031352 0.000000 0.000000 0.000000
# 4 0.000000 0.000000 0.000000 0.134301 0.000000 0.000000
# 5 0.000000 0.000000 0.000000 0.000000 0.030649 0.000000
# 6 0.000000 0.000000 0.000000 0.000000 0.000000 -3.776710
#
#
# Mechanical properties :
#
#
# Convention : Reuss Voigt Hill
#
# Bulk Modulus (GPa) = 26.09430 34.46928 30.28179
# Shear Modulus (GPa) = -1.56499 11.00116 4.71809
#
# Velocity S-wave (km/s) = -0.92029 2.43998 1.59790
# Velocity P-wave (km/s) = 3.60448 5.15673 4.44883
#
# Compressibility (1/GPa) = 0.03832255
#
# Stress axis : x y z
#
# Youngs Moduli (GPa) = 16.03988 7.84315 31.89590
#
# Poissons Ratio (x) = 0.46858 0.22624
# Poissons Ratio (y) = 0.95828 0.78464
# Poissons Ratio (z) = 0.11377 0.19294
#
# Static dielectric constant tensor:
#      x y z
#    x 1.619220 0.000000 0.000000 
#    y 0.000000 1.653410 0.000000 
#    z 0.000000 0.000000 1.619980 
# 
# From -- ./inp_files/43038.got.cif
#   From: 2010.05.17/outbox.ucp.g08.bks.cvg/sg64_22_cif.got.tgz:43038.got - 2010.06.11 16:36:46.
