data_PCOD9482468
_publ_section_title
;
Structure prediction by ZEFSAII (Michael W. Deem and Ramdas Pophale) SiO2 
 PCOD9482468
Probable space group: C M C A
;
_chemical_formula_sum "Si O2"
_cell_formula_units_Z 48
_cell_length_a 9.000000
_cell_length_b 27.000000
_cell_length_c 21.000000
_cell_angle_alpha 90.000000
_cell_angle_beta 90.000000
_cell_angle_gamma 90.000000
_cell_volume 5103.000000
_symmetry_space_group_name_H-M "C M C A"
_symmetry_group_IT_number 64
_symmetry_cell_setting 'orthorhombic'
loop_
_space_group_symop_operation_xyz
x,y,z
-x,1/2-y,1/2+z
x,-y,-z
-x,1/2+y,1/2-z
-x,-y,-z
x,1/2+y,1/2-z
-x,y,z
x,1/2-y,1/2+z
1/2+x,1/2+y,z
1/2-x,-y,1/2+z
1/2+x,1/2-y,-z
1/2-x,y,1/2-z
1/2-x,1/2-y,-z
1/2+x,y,1/2-z
1/2-x,1/2+y,z
1/2+x,-y,1/2+z
loop_
_atom_site_type_symbol
_atom_site_label
_atom_site_fract_x
_atom_site_fract_y
_atom_site_fract_z
Si Si1 0.180596 0.037673 0.176687
Si Si2 0.179834 0.792685 0.545360
Si Si3 0.180076 0.099160 0.050017
Si Si4 0.679300 0.554421 0.916037
Si Si5 0.678438 0.636399 0.815779
Si Si6 0.322226 0.748306 0.315483
O O1 0.250000 0.040208 0.250000
O O2 0.215980 0.080228 0.122518
O O3 0.000000 0.036855 0.184823
O O4 0.225976 0.989302 0.133521
O O5 0.250000 0.750000 0.500000
O O6 0.247175 0.847504 0.535178
O O7 0.215445 0.778948 0.619012
O O8 0.000000 0.792732 0.537818
O O9 0.000000 0.103099 0.047362
O O10 0.224116 0.061999 0.990748
O O11 0.500000 0.549103 0.918909
O O12 0.718740 0.604369 0.877390
O O13 0.500000 0.633977 0.809512
O O14 0.750000 0.617429 0.750000
O O15 0.722180 0.693865 0.822978
O O16 0.500000 0.746652 0.308062
O O17 0.250000 0.729239 0.250000
#
# Coordination Sequence:
#
# PCOD9482468 Si02
#       6
#    16  16  16  16  16  16
#     4  10  21  37  59  85 114 150 189 231 279 334
#     4  11  23  39  59  84 114 149 190 235 286 341
#     4  10  21  38  59  82 110 146 190 236 281 332
#     4   9  17  33  57  81 107 144 188 229 273 328
#     4   9  16  28  48  74 104 136 173 221 273 322
#     4   9  19  34  52  76 107 143 183 229 279 334
#
# _framework density 9.4062319999999993
#
# number of rings (size 3 to 8) (size 9 to 14) (size 15 to 20)
#    0.000    2.333    0.000    2.500    0.000    7.333 
#    0.000    8.333    0.000    2.000    0.000    0.000 
#    0.000    0.000    0.000    0.000    0.000    0.000 
#
# Total GULP energy -267405.645941 kJ/mol
# GULP energy per Si atom -5570.950957 kJ/mol
# Density = 0.938482 g / cm^3
# Si number density = 9.406232 Si / 1000 Ang^3
#
#
#
# Elastic Constant Matrix: (Units=GPa)
#
#
# Indices 1 2 3 4 5 6 
#
# 1 31.2069 24.7495 35.3813 0.0000 0.0000 0.0000
# 2 24.7495 94.4501 55.5265 0.0000 0.0000 0.0000
# 3 35.3813 55.5265 179.3109 0.0000 0.0000 0.0000
# 4 0.0000 0.0000 0.0000 37.5516 0.0000 0.0000
# 5 0.0000 0.0000 0.0000 0.0000 39.7335 0.0000
# 6 0.0000 0.0000 0.0000 0.0000 0.0000 23.4756
#
#
#
# Elastic Compliance Matrix: (Units=1/GPa)
#
#
# Indices 1 2 3 4 5 6 
#
# 1 0.045950 -0.008204 -0.006526 0.000000 0.000000 0.000000
# 2 -0.008204 0.014409 -0.002843 0.000000 0.000000 0.000000
# 3 -0.006526 -0.002843 0.007745 0.000000 0.000000 0.000000
# 4 0.000000 0.000000 0.000000 0.026630 0.000000 0.000000
# 5 0.000000 0.000000 0.000000 0.000000 0.025168 0.000000
# 6 0.000000 0.000000 0.000000 0.000000 0.000000 0.042597
#
#
# Mechanical properties :
#
#
# Convention : Reuss Voigt Hill
#
# Bulk Modulus (GPa) = 30.34251 59.58696 44.96473
# Shear Modulus (GPa) = 23.96578 32.77285 28.36932
#
# Velocity S-wave (km/s) = 3.57309 4.17835 3.88752
# Velocity P-wave (km/s) = 5.76078 7.41762 6.64107
#
# Compressibility (1/GPa) = 0.03295707
#
# Stress axis : x y z
#
# Youngs Moduli (GPa) = 21.76294 69.40212 129.11415
#
# Poissons Ratio (x) = 0.56936 0.84263
# Poissons Ratio (y) = 0.17854 0.36709
# Poissons Ratio (z) = 0.14203 0.19732
#
# Static dielectric constant tensor:
#      x y z
#    x 1.636650 0.000000 0.000000 
#    y 0.000000 1.701340 0.000000 
#    z 0.000000 0.000000 1.662590 
# 
# From -- ./inp_files/36976.got.cif
#   From: 2010.05.17/outbox.ucp.g08.bks.cvg/sg64_19_cif.got.tgz:36976.got - 2010.06.11 16:36:46.
