data_PCOD9482616
_publ_section_title
;
Structure prediction by ZEFSAII (Michael W. Deem and Ramdas Pophale) SiO2 
 PCOD9482616
Probable space group: C M M M
;
_chemical_formula_sum "Si O2"
_cell_formula_units_Z 104
_cell_length_a 23.616996
_cell_length_b 16.117052
_cell_length_c 18.820778
_cell_angle_alpha 90.000000
_cell_angle_beta 90.000000
_cell_angle_gamma 90.000000
_cell_volume 7163.872291
_symmetry_space_group_name_H-M "C M M M"
_symmetry_group_IT_number 65
_symmetry_cell_setting 'orthorhombic'
loop_
_space_group_symop_operation_xyz
x,y,z
-x,-y,z
x,-y,-z
-x,y,-z
-x,-y,-z
x,y,-z
-x,y,z
x,-y,z
1/2+x,1/2+y,z
1/2-x,1/2-y,z
1/2+x,1/2-y,-z
1/2-x,1/2+y,-z
1/2-x,1/2-y,-z
1/2+x,1/2+y,-z
1/2-x,1/2+y,z
1/2+x,1/2-y,z
loop_
_atom_site_type_symbol
_atom_site_label
_atom_site_fract_x
_atom_site_fract_y
_atom_site_fract_z
Si Si1 0.173333 0.591164 0.168456
Si Si2 0.318807 0.744766 0.918247
Si Si3 0.140611 0.623501 0.328166
Si Si4 0.567593 0.000000 0.416723
Si Si5 0.247007 0.907122 0.418974
Si Si6 0.810048 0.794102 0.683005
Si Si7 0.810263 0.904651 0.816892
O O1 0.159984 0.500000 0.136880
O O2 0.159655 0.672683 0.122249
O O3 0.145047 0.596380 0.246176
O O4 0.241509 0.593722 0.178990
O O5 0.250000 0.750000 0.917962
O O6 0.331975 0.659919 0.876248
O O7 0.337311 0.742967 0.000000
O O8 0.092344 0.578776 0.373494
O O9 0.198698 0.597656 0.367999
O O10 0.143708 0.722995 0.325899
O O11 0.500000 0.000000 0.415764
O O12 0.586365 0.000000 0.500000
O O13 0.264042 0.892064 0.500000
O O14 0.204027 0.838976 0.390474
O O15 0.223327 0.000000 0.413681
O O16 0.750000 0.750000 0.706195
O O17 0.824256 0.862405 0.741628
O O18 0.829338 0.000000 0.823734
#
# Coordination Sequence:
#
# PCOD9482616 Si02
#       7
#    16  16  16   8  16  16  16
#     4  10  16  25  42  59  80 116 157 191 228 267
#     4   9  17  27  36  53  84 121 162 197 217 252
#     4  11  18  29  46  60  83 117 150 189 230 272
#     4  11  24  38  50  66  89 119 159 203 241 283
#     4  10  18  26  38  61  90 115 143 178 220 273
#     4  10  17  25  40  60  85 114 150 182 224 272
#     4  10  16  24  38  58  87 123 156 183 218 265
#
# _framework density 14.517289
#
# number of rings (size 3 to 8) (size 9 to 14) (size 15 to 20)
#    0.000    1.923    6.154    1.385    0.000    4.000 
#    0.000    3.077    0.000    0.000    0.000    0.000 
#    0.000    3.692    0.000    8.462    0.000    1.846 
#
# Total GULP energy -289491.727997 kJ/mol
# GULP energy per Si atom -5567.148615 kJ/mol
# Density = 1.448425 g / cm^3
# Si number density = 14.517289 Si / 1000 Ang^3
#
#
#
# Elastic Constant Matrix: (Units=GPa)
#
#
# Indices 1 2 3 4 5 6 
#
# 1 19.6484 15.6119 11.7132 0.0000 0.0000 0.0000
# 2 15.6119 136.6917 56.5532 0.0000 0.0000 0.0000
# 3 11.7132 56.5532 97.7752 0.0000 0.0000 0.0000
# 4 0.0000 0.0000 0.0000 8.9679 0.0000 0.0000
# 5 0.0000 0.0000 0.0000 0.0000 6.9202 0.0000
# 6 0.0000 0.0000 0.0000 0.0000 0.0000 7.3969
#
#
#
# Elastic Compliance Matrix: (Units=1/GPa)
#
#
# Indices 1 2 3 4 5 6 
#
# 1 0.057162 -0.004858 -0.004038 0.000000 0.000000 0.000000
# 2 -0.004858 0.010030 -0.005219 0.000000 0.000000 0.000000
# 3 -0.004038 -0.005219 0.013730 0.000000 0.000000 0.000000
# 4 0.000000 0.000000 0.000000 0.111509 0.000000 0.000000
# 5 0.000000 0.000000 0.000000 0.000000 0.144504 0.000000
# 6 0.000000 0.000000 0.000000 0.000000 0.000000 0.135191
#
#
# Mechanical properties :
#
#
# Convention : Reuss Voigt Hill
#
# Bulk Modulus (GPa) = 18.97842 46.87466 32.92654
# Shear Modulus (GPa) = 9.65398 16.00613 12.83006
#
# Velocity S-wave (km/s) = 2.58156 3.32408 2.97607
# Velocity P-wave (km/s) = 4.68906 6.86233 5.87703
#
# Compressibility (1/GPa) = 0.05269144
#
# Stress axis : x y z
#
# Youngs Moduli (GPa) = 17.49414 99.70110 72.83233
#
# Poissons Ratio (x) = 0.48435 0.29409
# Poissons Ratio (y) = 0.08499 0.38014
# Poissons Ratio (z) = 0.07064 0.52038
#
# Static dielectric constant tensor:
#      x y z
#    x 1.432050 0.000000 0.000000 
#    y 0.000000 1.532990 0.000000 
#    z 0.000000 0.000000 1.496050 
# 
# From -- ./inp_files/65500.got.cif
#   From: 2010.05.17/outbox.cif.g08.bks.cpg/sg65_33_cif.got.tgz:65500.got - 2010.06.03 17:01:31.
