data_PCOD9482935
_publ_section_title
;
Structure prediction by ZEFSAII (Michael W. Deem and Ramdas Pophale) SiO2 
 PCOD9482935
Probable space group: C M M M
;
_chemical_formula_sum "Si O2"
_cell_formula_units_Z 88
_cell_length_a 20.842549
_cell_length_b 22.006580
_cell_length_c 7.856767
_cell_angle_alpha 90.000000
_cell_angle_beta 90.000000
_cell_angle_gamma 90.000000
_cell_volume 3603.688634
_symmetry_space_group_name_H-M "C M M M"
_symmetry_group_IT_number 65
_symmetry_cell_setting 'orthorhombic'
loop_
_space_group_symop_operation_xyz
x,y,z
-x,-y,z
x,-y,-z
-x,y,-z
-x,-y,-z
x,y,-z
-x,y,z
x,-y,z
1/2+x,1/2+y,z
1/2-x,1/2-y,z
1/2+x,1/2-y,-z
1/2-x,1/2+y,-z
1/2-x,1/2-y,-z
1/2+x,1/2+y,-z
1/2-x,1/2+y,z
1/2+x,1/2-y,z
loop_
_atom_site_type_symbol
_atom_site_label
_atom_site_fract_x
_atom_site_fract_y
_atom_site_fract_z
Si Si1 0.571318 0.636912 0.196518
Si Si2 0.249664 0.500000 0.697103
Si Si3 0.426785 0.135740 0.791940
Si Si4 0.207544 0.129984 0.304106
Si Si5 0.892042 0.500000 0.194147
Si Si6 0.575318 0.500000 0.692111
Si Si7 0.307976 0.789720 0.808399
O O1 0.500000 0.651624 0.268834
O O2 0.638135 0.660753 0.274841
O O3 0.580786 0.564207 0.211877
O O4 0.570540 0.654830 0.000000
O O5 0.227857 0.500000 0.500000
O O6 0.292989 0.558221 0.724687
O O7 0.184795 0.500000 0.802359
O O8 0.500000 0.151631 0.749502
O O9 0.374812 0.186225 0.732757
O O10 0.413124 0.066023 0.732943
O O11 0.420570 0.135537 0.000000
O O12 0.226049 0.139278 0.500000
O O13 0.265395 0.149605 0.184616
O O14 0.916805 0.500000 0.000000
O O15 0.500000 0.500000 0.660827
O O16 0.605326 0.500000 0.500000
O O17 0.250000 0.750000 0.724070
O O18 0.318907 0.765337 0.000000
#
# Coordination Sequence:
#
# PCOD9482935 Si02
#       7
#    16   8  16  16   8   8  16
#     4  10  20  33  50  74 104 140 186 238 287 336
#     4  10  21  34  50  79 116 150 185 228 286 357
#     4   9  17  31  55  88 120 149 188 240 295 351
#     4  11  22  36  56  80 111 150 190 237 297 363
#     4  10  17  29  55  86 114 148 187 234 291 355
#     4   9  16  27  44  67 100 140 178 218 270 331
#     4  10  21  38  59  83 112 149 196 244 290 348
#
# _framework density 24.419423999999999
#
# number of rings (size 3 to 8) (size 9 to 14) (size 15 to 20)
#    0.000    2.091    1.818    2.182    0.000    5.091 
#    0.000    0.909    0.000    6.000    0.000    0.000 
#    0.000    0.000    0.000    0.000    0.000    0.000 
#
# Total GULP energy -245056.340364 kJ/mol
# GULP energy per Si atom -5569.462281 kJ/mol
# Density = 2.436384 g / cm^3
# Si number density = 24.419424 Si / 1000 Ang^3
#
#
#
# Elastic Constant Matrix: (Units=GPa)
#
#
# Indices 1 2 3 4 5 6 
#
# 1 206.5802 37.8912 19.5499 0.0000 0.0000 0.0000
# 2 37.8912 64.7889 -1.2224 0.0000 0.0000 0.0000
# 3 19.5499 -1.2224 33.0017 0.0000 0.0000 0.0000
# 4 0.0000 0.0000 0.0000 14.3900 0.0000 0.0000
# 5 0.0000 0.0000 0.0000 0.0000 5.3621 0.0000
# 6 0.0000 0.0000 0.0000 0.0000 0.0000 6.6650
#
#
#
# Elastic Compliance Matrix: (Units=1/GPa)
#
#
# Indices 1 2 3 4 5 6 
#
# 1 0.005815 -0.003468 -0.003573 0.000000 0.000000 0.000000
# 2 -0.003468 0.017514 0.002703 0.000000 0.000000 0.000000
# 3 -0.003573 0.002703 0.032518 0.000000 0.000000 0.000000
# 4 0.000000 0.000000 0.000000 0.069493 0.000000 0.000000
# 5 0.000000 0.000000 0.000000 0.000000 0.186493 0.000000
# 6 0.000000 0.000000 0.000000 0.000000 0.000000 0.150038
#
#
# Mechanical properties :
#
#
# Convention : Reuss Voigt Hill
#
# Bulk Modulus (GPa) = 21.19937 46.31203 33.75570
# Shear Modulus (GPa) = 10.28233 21.82690 16.05461
#
# Velocity S-wave (km/s) = 2.05423 2.99295 2.56687
# Velocity P-wave (km/s) = 3.78506 5.56328 4.75798
#
# Compressibility (1/GPa) = 0.04717121
#
# Stress axis : x y z
#
# Youngs Moduli (GPa) = 171.96739 57.09668 30.75179
#
# Poissons Ratio (x) = 0.19803 0.10988
# Poissons Ratio (y) = 0.59644 -0.08313
# Poissons Ratio (z) = 0.61449 -0.15435
#
# Static dielectric constant tensor:
#      x y z
#    x 1.971890 0.000000 0.000000 
#    y 0.000000 2.563800 0.000000 
#    z 0.000000 0.000000 1.957500 
# 
# From -- ./inp_files/11870.got.cif
#   From: 2010.05.17/outbox.cif.g08.bks.cpg/sg65_6_cif.got.tgz:11870.got - 2010.06.03 17:01:31.
