data_PCOD9482310
_publ_section_title
;
Structure prediction by ZEFSAII (Michael W. Deem and Ramdas Pophale) SiO2 
 PCOD9482310
Probable space group: C M C A
;
_chemical_formula_sum "Si O2"
_cell_formula_units_Z 64
_cell_length_a 22.560343
_cell_length_b 13.360224
_cell_length_c 8.448189
_cell_angle_alpha 90.000000
_cell_angle_beta 90.000000
_cell_angle_gamma 90.000000
_cell_volume 2546.379088
_symmetry_space_group_name_H-M "C M C A"
_symmetry_group_IT_number 64
_symmetry_cell_setting 'orthorhombic'
loop_
_space_group_symop_operation_xyz
x,y,z
-x,1/2-y,1/2+z
x,-y,-z
-x,1/2+y,1/2-z
-x,-y,-z
x,1/2+y,1/2-z
-x,y,z
x,1/2-y,1/2+z
1/2+x,1/2+y,z
1/2-x,-y,1/2+z
1/2+x,1/2-y,-z
1/2-x,y,1/2-z
1/2-x,1/2-y,-z
1/2+x,y,1/2-z
1/2-x,1/2+y,z
1/2+x,-y,1/2+z
loop_
_atom_site_type_symbol
_atom_site_label
_atom_site_fract_x
_atom_site_fract_y
_atom_site_fract_z
Si Si1 0.933052 0.083591 0.276824
Si Si2 0.569719 0.648091 0.625372
Si Si3 0.326202 0.601279 0.087053
Si Si4 0.314251 0.238151 0.697837
O O1 0.920126 0.149006 0.435240
O O2 0.895770 0.092553 0.117809
O O3 0.000000 0.104467 0.237195
O O4 0.927102 0.968541 0.328603
O O5 0.500000 0.678248 0.654583
O O6 0.625216 0.697380 0.718555
O O7 0.309947 0.642483 0.263375
O O8 0.304847 0.500000 0.000000
O O9 0.315012 0.696837 0.978913
O O10 0.250000 0.195359 0.750000
#
# Coordination Sequence:
#
# PCOD9482310 Si02
#       4
#    16  16  16  16
#     4   9  19  40  72 109 147 193 253 309 375 456
#     4   9  19  42  74 108 149 197 246 311 379 446
#     4  12  26  47  72 106 145 200 251 312 390 444
#     4  12  27  48  70 108 152 193 261 316 373 467
#
# _framework density 25.133727
#
# number of rings (size 3 to 8) (size 9 to 14) (size 15 to 20)
#    0.000    1.500    2.500    3.750    0.000    3.500 
#    4.500    0.000    0.000    0.000    0.000    0.000 
#    0.000    0.000    0.000    0.000    0.000    0.000 
#
# Total GULP energy -178248.271834 kJ/mol
# GULP energy per Si atom -5570.258495 kJ/mol
# Density = 2.507652 g / cm^3
# Si number density = 25.133727 Si / 1000 Ang^3
#
#
#
# Elastic Constant Matrix: (Units=GPa)
#
#
# Indices 1 2 3 4 5 6 
#
# 1 131.3119 5.4948 31.9569 0.0000 0.0000 0.0000
# 2 5.4948 131.5088 31.7374 0.0000 0.0000 0.0000
# 3 31.9569 31.7374 47.0629 0.0000 0.0000 0.0000
# 4 0.0000 0.0000 0.0000 59.8810 0.0000 0.0000
# 5 0.0000 0.0000 0.0000 0.0000 28.4315 0.0000
# 6 0.0000 0.0000 0.0000 0.0000 0.0000 17.2029
#
#
#
# Elastic Compliance Matrix: (Units=1/GPa)
#
#
# Indices 1 2 3 4 5 6 
#
# 1 0.009322 0.001359 -0.007247 0.000000 0.000000 0.000000
# 2 0.001359 0.009280 -0.007181 0.000000 0.000000 0.000000
# 3 -0.007247 -0.007181 0.031012 0.000000 0.000000 0.000000
# 4 0.000000 0.000000 0.000000 0.016700 0.000000 0.000000
# 5 0.000000 0.000000 0.000000 0.000000 0.035172 0.000000
# 6 0.000000 0.000000 0.000000 0.000000 0.000000 0.058130
#
#
# Mechanical properties :
#
#
# Convention : Reuss Voigt Hill
#
# Bulk Modulus (GPa) = 42.59521 49.80688 46.20105
# Shear Modulus (GPa) = 25.82928 37.14939 31.48933
#
# Velocity S-wave (km/s) = 3.20921 3.84874 3.54343
# Velocity P-wave (km/s) = 5.54223 6.29366 5.92986
#
# Compressibility (1/GPa) = 0.02347682
#
# Stress axis : x y z
#
# Youngs Moduli (GPa) = 107.27112 107.75459 32.24597
#
# Poissons Ratio (x) = -0.14648 0.23368
# Poissons Ratio (y) = -0.14582 0.23157
# Poissons Ratio (z) = 0.77736 0.77382
#
# Static dielectric constant tensor:
#      x y z
#    x 2.102040 0.000000 0.000000 
#    y 0.000000 2.052280 0.000000 
#    z 0.000000 0.000000 2.114310 
# 
# From -- ./inp_files/8967.got.cif
#   From: 2010.05.17/outbox.cif.g08.bks.cpg/sg64_5_cif.got.tgz:8967.got - 2010.06.03 16:29:19.
