data_PCOD9482228
_publ_section_title
;
Structure prediction by ZEFSAII (Michael W. Deem and Ramdas Pophale) SiO2 
 PCOD9482228
Probable space group: C M C A
;
_chemical_formula_sum "Si O2"
_cell_formula_units_Z 52
_cell_length_a 19.805358
_cell_length_b 13.580048
_cell_length_c 8.818799
_cell_angle_alpha 90.000000
_cell_angle_beta 90.000000
_cell_angle_gamma 90.000000
_cell_volume 2371.884004
_symmetry_space_group_name_H-M "C M C A"
_symmetry_group_IT_number 64
_symmetry_cell_setting 'orthorhombic'
loop_
_space_group_symop_operation_xyz
x,y,z
-x,1/2-y,1/2+z
x,-y,-z
-x,1/2+y,1/2-z
-x,-y,-z
x,1/2+y,1/2-z
-x,y,z
x,1/2-y,1/2+z
1/2+x,1/2+y,z
1/2-x,-y,1/2+z
1/2+x,1/2-y,-z
1/2-x,y,1/2-z
1/2-x,1/2-y,-z
1/2+x,y,1/2-z
1/2-x,1/2+y,z
1/2+x,-y,1/2+z
loop_
_atom_site_type_symbol
_atom_site_label
_atom_site_fract_x
_atom_site_fract_y
_atom_site_fract_z
Si Si1 0.111402 0.866954 0.142992
Si Si2 0.000000 0.000000 0.000000
Si Si3 0.580044 0.329596 0.813117
Si Si4 0.816725 0.524466 0.175751
O O1 0.081737 0.777883 0.240357
O O2 0.058261 0.952218 0.110462
O O3 0.170174 0.923601 0.230229
O O4 0.120767 0.828003 0.971470
O O5 0.500000 0.358672 0.847871
O O6 0.619945 0.402257 0.701249
O O7 0.750000 0.571029 0.250000
O O8 0.808230 0.500000 0.000000
#
# Coordination Sequence:
#
# PCOD9482228 Si02
#       4
#    16   4  16  16
#     4  12  23  43  71 105 143 186 230 290 353 414
#     4  12  20  44  74 100 148 182 218 292 354 404
#     4  12  23  42  71 105 140 181 236 291 351 418
#     4  12  27  47  69  99 141 191 238 292 357 423
#
# _framework density 21.923501999999999
#
# number of rings (size 3 to 8) (size 9 to 14) (size 15 to 20)
#    0.000    0.000    6.154    3.692    0.000    1.846 
#    0.000    6.154    0.000    0.000    0.000    0.000 
#    0.000    0.000    0.000    0.000    0.000    0.000 
#
# Total GULP energy -144785.400120 kJ/mol
# GULP energy per Si atom -5568.669235 kJ/mol
# Density = 2.187360 g / cm^3
# Si number density = 21.923502 Si / 1000 Ang^3
#
#
#
# Elastic Constant Matrix: (Units=GPa)
#
#
# Indices 1 2 3 4 5 6 
#
# 1 100.0819 30.6720 34.4844 0.0000 0.0000 0.0000
# 2 30.6720 91.3866 33.3157 0.0000 0.0000 0.0000
# 3 34.4844 33.3157 139.2206 0.0000 0.0000 0.0000
# 4 0.0000 0.0000 0.0000 52.1903 0.0000 0.0000
# 5 0.0000 0.0000 0.0000 0.0000 30.0543 0.0000
# 6 0.0000 0.0000 0.0000 0.0000 0.0000 27.7314
#
#
#
# Elastic Compliance Matrix: (Units=1/GPa)
#
#
# Indices 1 2 3 4 5 6 
#
# 1 0.011694 -0.003143 -0.002144 0.000000 0.000000 0.000000
# 2 -0.003143 0.012833 -0.002292 0.000000 0.000000 0.000000
# 3 -0.002144 -0.002292 0.008263 0.000000 0.000000 0.000000
# 4 0.000000 0.000000 0.000000 0.019161 0.000000 0.000000
# 5 0.000000 0.000000 0.000000 0.000000 0.033273 0.000000
# 6 0.000000 0.000000 0.000000 0.000000 0.000000 0.036060
#
#
# Mechanical properties :
#
#
# Convention : Reuss Voigt Hill
#
# Bulk Modulus (GPa) = 56.72204 58.62589 57.67396
# Shear Modulus (GPa) = 35.13205 37.47633 36.30419
#
# Velocity S-wave (km/s) = 4.00745 4.13899 4.07375
# Velocity P-wave (km/s) = 6.88053 7.04562 6.96357
#
# Compressibility (1/GPa) = 0.01762983
#
# Stress axis : x y z
#
# Youngs Moduli (GPa) = 85.51426 77.92308 121.02732
#
# Poissons Ratio (x) = 0.24492 0.25953
# Poissons Ratio (y) = 0.26878 0.27745
# Poissons Ratio (z) = 0.18338 0.17864
#
# Static dielectric constant tensor:
#      x y z
#    x 1.932050 0.000000 0.000000 
#    y 0.000000 1.623730 0.000000 
#    z 0.000000 0.000000 1.747930 
# 
# From -- ./inp_files/7537.got.cif
#   From: 2010.05.17/outbox.cif.g08.bks.cpg/sg64_4_cif.got.tgz:7537.got - 2010.06.03 16:29:19.
