data_PCOD9482621
_publ_section_title
;
Structure prediction by ZEFSAII (Michael W. Deem and Ramdas Pophale) SiO2 
 PCOD9482621
Probable space group: C M M M
;
_chemical_formula_sum "Si O2"
_cell_formula_units_Z 104
_cell_length_a 18.613132
_cell_length_b 8.716326
_cell_length_c 35.205703
_cell_angle_alpha 90.000000
_cell_angle_beta 90.000000
_cell_angle_gamma 90.000000
_cell_volume 5711.707293
_symmetry_space_group_name_H-M "C M M M"
_symmetry_group_IT_number 65
_symmetry_cell_setting 'orthorhombic'
loop_
_space_group_symop_operation_xyz
x,y,z
-x,-y,z
x,-y,-z
-x,y,-z
-x,-y,-z
x,y,-z
-x,y,z
x,-y,z
1/2+x,1/2+y,z
1/2-x,1/2-y,z
1/2+x,1/2-y,-z
1/2-x,1/2+y,-z
1/2-x,1/2-y,-z
1/2+x,1/2+y,-z
1/2-x,1/2+y,z
1/2+x,1/2-y,z
loop_
_atom_site_type_symbol
_atom_site_label
_atom_site_fract_x
_atom_site_fract_y
_atom_site_fract_z
Si Si1 0.830156 0.685368 0.958071
Si Si2 0.586347 0.821342 0.724893
Si Si3 0.668180 0.683855 0.500000
Si Si4 0.829945 0.818378 0.344252
Si Si5 0.087386 0.822760 0.195665
Si Si6 0.831520 0.683579 0.422244
Si Si7 0.415664 0.184524 0.883845
O O1 0.827808 0.500000 0.957032
O O2 0.750000 0.750000 0.955234
O O3 0.875524 0.737162 0.921805
O O4 0.858996 0.729323 0.000000
O O5 0.500000 0.802977 0.722917
O O6 0.623700 0.721979 0.692512
O O7 0.609958 0.770194 0.767041
O O8 0.603431 0.000000 0.718778
O O9 0.670521 0.500000 0.500000
O O10 0.750000 0.750000 0.500000
O O11 0.635216 0.747242 0.460790
O O12 0.750000 0.750000 0.338752
O O13 0.862731 0.740669 0.382236
O O14 0.824616 0.000000 0.350241
O O15 0.112452 0.756308 0.155372
O O16 0.000000 0.814232 0.194768
O O17 0.107741 0.000000 0.199633
O O18 0.829639 0.500000 0.424259
O O19 0.750000 0.750000 0.421138
O O20 0.500000 0.221875 0.887356
O O21 0.409727 0.000000 0.880983
#
# Coordination Sequence:
#
# PCOD9482621 Si02
#       7
#    16  16   8  16  16  16  16
#     4   9  18  32  49  69  95 128 162 195 234 282
#     4  10  20  35  55  77 101 131 168 207 247 295
#     4  10  16  24  38  60  89 122 161 202 247 296
#     4  11  21  34  51  73 103 135 167 205 252 300
#     4   9  17  30  49  73  99 126 158 198 244 291
#     4  10  17  27  42  63  92 126 163 202 248 297
#     4   9  17  30  49  72  96 122 155 197 242 285
#
# _framework density 18.208216
#
# number of rings (size 3 to 8) (size 9 to 14) (size 15 to 20)
#    0.000    2.308    0.000    6.231    0.000    3.692 
#    0.000    2.308    0.000    1.846    0.000    4.846 
#    0.000    4.308    0.000    0.000    0.000    0.000 
#
# Total GULP energy -289936.855120 kJ/mol
# GULP energy per Si atom -5575.708752 kJ/mol
# Density = 1.816677 g / cm^3
# Si number density = 18.208216 Si / 1000 Ang^3
#
#
#
# Elastic Constant Matrix: (Units=GPa)
#
#
# Indices 1 2 3 4 5 6 
#
# 1 8.6632 16.3391 24.1801 0.0000 0.0000 0.0000
# 2 16.3391 109.7026 52.2211 0.0000 0.0000 0.0000
# 3 24.1801 52.2211 158.6912 0.0000 0.0000 0.0000
# 4 0.0000 0.0000 0.0000 31.4875 0.0000 0.0000
# 5 0.0000 0.0000 0.0000 0.0000 21.1629 0.0000
# 6 0.0000 0.0000 0.0000 0.0000 0.0000 16.9340
#
#
#
# Elastic Compliance Matrix: (Units=1/GPa)
#
#
# Indices 1 2 3 4 5 6 
#
# 1 0.236999 -0.021472 -0.029046 0.000000 0.000000 0.000000
# 2 -0.021472 0.012754 -0.000925 0.000000 0.000000 0.000000
# 3 -0.029046 -0.000925 0.011032 0.000000 0.000000 0.000000
# 4 0.000000 0.000000 0.000000 0.031759 0.000000 0.000000
# 5 0.000000 0.000000 0.000000 0.000000 0.047253 0.000000
# 6 0.000000 0.000000 0.000000 0.000000 0.000000 0.059053
#
#
# Mechanical properties :
#
#
# Convention : Reuss Voigt Hill
#
# Bulk Modulus (GPa) = 6.33320 51.39306 28.86313
# Shear Modulus (GPa) = 9.01928 26.20465 17.61196
#
# Velocity S-wave (km/s) = 2.22804 3.79775 3.11344
# Velocity P-wave (km/s) = 3.17878 6.89326 5.36757
#
# Compressibility (1/GPa) = 0.15789794
#
# Stress axis : x y z
#
# Youngs Moduli (GPa) = 4.21943 78.40636 90.64678
#
# Poissons Ratio (x) = 1.68355 2.63293
# Poissons Ratio (y) = 0.09060 0.08387
# Poissons Ratio (z) = 0.12256 0.07255
#
# Static dielectric constant tensor:
#      x y z
#    x 1.608160 0.000000 0.000000 
#    y 0.000000 1.613940 0.000000 
#    z 0.000000 0.000000 1.671900 
# 
# From -- ./inp_files/78221.got.cif
#   From: 2010.05.17/outbox.cif.g08.bks.cpg/sg65_40_cif.got.tgz:78221.got - 2010.06.03 17:01:31.
