data_PCOD9482431
_publ_section_title
;
Structure prediction by ZEFSAII (Michael W. Deem and Ramdas Pophale) SiO2 
 PCOD9482431
Probable space group: C M C A
;
_chemical_formula_sum "Si O2"
_cell_formula_units_Z 48
_cell_length_a 9.000000
_cell_length_b 24.000000
_cell_length_c 24.000000
_cell_angle_alpha 90.000000
_cell_angle_beta 90.000000
_cell_angle_gamma 90.000000
_cell_volume 5184.000000
_symmetry_space_group_name_H-M "C M C A"
_symmetry_group_IT_number 64
_symmetry_cell_setting 'orthorhombic'
loop_
_space_group_symop_operation_xyz
x,y,z
-x,1/2-y,1/2+z
x,-y,-z
-x,1/2+y,1/2-z
-x,-y,-z
x,1/2+y,1/2-z
-x,y,z
x,1/2-y,1/2+z
1/2+x,1/2+y,z
1/2-x,-y,1/2+z
1/2+x,1/2-y,-z
1/2-x,y,1/2-z
1/2-x,1/2-y,-z
1/2+x,y,1/2-z
1/2-x,1/2+y,z
1/2+x,-y,1/2+z
loop_
_atom_site_type_symbol
_atom_site_label
_atom_site_fract_x
_atom_site_fract_y
_atom_site_fract_z
Si Si1 0.822104 0.403525 0.691423
Si Si2 0.179204 0.526265 0.096455
Si Si3 0.819240 0.702633 0.131930
Si Si4 0.180359 0.688024 0.811999
Si Si5 0.680057 0.603309 0.593381
Si Si6 0.321302 0.865315 0.975423
O O1 0.750000 0.418131 0.750000
O O2 0.771953 0.450449 0.648005
O O3 0.743586 0.346542 0.671100
O O4 0.000000 0.397308 0.693858
O O5 0.219087 0.461854 0.086996
O O6 0.208765 0.572275 0.048394
O O7 0.000000 0.528972 0.106785
O O8 0.746013 0.759391 0.153674
O O9 0.773668 0.681060 0.069764
O O10 0.000000 0.705172 0.134987
O O11 0.250000 0.686857 0.750000
O O12 0.221399 0.633618 0.849099
O O13 0.000000 0.692184 0.808365
O O14 0.500000 0.604970 0.591805
O O15 0.735483 0.636579 0.538641
O O16 0.500000 0.860333 0.977105
#
# Coordination Sequence:
#
# PCOD9482431 Si02
#       6
#    16  16  16  16  16  16
#     4  11  21  34  53  78 108 140 179 226 275 322
#     4   9  17  32  55  82 111 143 179 218 263 317
#     4  10  20  36  58  82 107 136 175 222 273 325
#     4  11  23  38  55  76 107 145 185 224 265 314
#     4   9  18  33  55  82 110 144 182 218 259 314
#     4   8  15  30  56  86 110 135 173 219 266 319
#
# _framework density 9.2592590000000001
#
# number of rings (size 3 to 8) (size 9 to 14) (size 15 to 20)
#    0.000    2.333    0.000    4.500    0.000    3.333 
#    0.000    3.333    0.000   18.000    0.000    0.000 
#    0.000    0.000    0.000    0.000    0.000    0.000 
#
# Total GULP energy -267610.410368 kJ/mol
# GULP energy per Si atom -5575.216883 kJ/mol
# Density = 0.923818 g / cm^3
# Si number density = 9.259259 Si / 1000 Ang^3
#
#
#
# Elastic Constant Matrix: (Units=GPa)
#
#
# Indices 1 2 3 4 5 6 
#
# 1 61.3394 7.0669 18.5268 0.0000 0.0000 0.0000
# 2 7.0669 58.2317 33.3213 0.0000 0.0000 0.0000
# 3 18.5268 33.3213 102.0487 0.0000 0.0000 0.0000
# 4 0.0000 0.0000 0.0000 11.4872 0.0000 0.0000
# 5 0.0000 0.0000 0.0000 0.0000 18.9279 0.0000
# 6 0.0000 0.0000 0.0000 0.0000 0.0000 20.2809
#
#
#
# Elastic Compliance Matrix: (Units=1/GPa)
#
#
# Indices 1 2 3 4 5 6 
#
# 1 0.017255 -0.000371 -0.003012 0.000000 0.000000 0.000000
# 2 -0.000371 0.021127 -0.006831 0.000000 0.000000 0.000000
# 3 -0.003012 -0.006831 0.012576 0.000000 0.000000 0.000000
# 4 0.000000 0.000000 0.000000 0.087053 0.000000 0.000000
# 5 0.000000 0.000000 0.000000 0.000000 0.052832 0.000000
# 6 0.000000 0.000000 0.000000 0.000000 0.000000 0.049307
#
#
# Mechanical properties :
#
#
# Convention : Reuss Voigt Hill
#
# Bulk Modulus (GPa) = 32.75316 37.71666 35.23491
# Shear Modulus (GPa) = 18.46690 20.98619 19.72654
#
# Velocity S-wave (km/s) = 3.16129 3.37004 3.26733
# Velocity P-wave (km/s) = 5.57226 5.96272 5.77080
#
# Compressibility (1/GPa) = 0.03053141
#
# Stress axis : x y z
#
# Youngs Moduli (GPa) = 57.95403 47.33368 79.51351
#
# Poissons Ratio (x) = 0.01755 0.23946
# Poissons Ratio (y) = 0.02149 0.54316
# Poissons Ratio (z) = 0.17453 0.32334
#
# Static dielectric constant tensor:
#      x y z
#    x 1.604440 0.000000 0.000000 
#    y 0.000000 1.638990 0.000000 
#    z 0.000000 0.000000 1.690960 
# 
# From -- ./inp_files/43053.got.cif
#   From: 2010.05.17/outbox.ucp.g08.bks.cvg/sg64_22_cif.got.tgz:43053.got - 2010.06.11 16:36:46.
