data_PCOD9482491
_publ_section_title
;
Structure prediction by ZEFSAII (Michael W. Deem and Ramdas Pophale) SiO2 
 PCOD9482491
Probable space group: C M C A
;
_chemical_formula_sum "Si O2"
_cell_formula_units_Z 44
_cell_length_a 15.000000
_cell_length_b 21.000000
_cell_length_c 15.000000
_cell_angle_alpha 90.000000
_cell_angle_beta 90.000000
_cell_angle_gamma 90.000000
_cell_volume 4725.000000
_symmetry_space_group_name_H-M "C M C A"
_symmetry_group_IT_number 64
_symmetry_cell_setting 'orthorhombic'
loop_
_space_group_symop_operation_xyz
x,y,z
-x,1/2-y,1/2+z
x,-y,-z
-x,1/2+y,1/2-z
-x,-y,-z
x,1/2+y,1/2-z
-x,y,z
x,1/2-y,1/2+z
1/2+x,1/2+y,z
1/2-x,-y,1/2+z
1/2+x,1/2-y,-z
1/2-x,y,1/2-z
1/2-x,1/2-y,-z
1/2+x,y,1/2-z
1/2-x,1/2+y,z
1/2+x,-y,1/2+z
loop_
_atom_site_type_symbol
_atom_site_label
_atom_site_fract_x
_atom_site_fract_y
_atom_site_fract_z
Si Si1 0.500000 0.872909 0.938440
Si Si2 0.144980 0.136161 0.581868
Si Si3 0.000000 0.441016 0.750000
Si Si4 0.000000 0.872909 0.938440
Si Si5 0.150828 0.542994 0.750000
Si Si6 0.855020 0.636161 0.581868
Si Si7 0.500000 0.263938 0.143720
Si Si8 0.500000 0.763938 0.143720
O O1 0.500000 0.903776 0.842112
O O2 0.500000 0.798470 0.915831
O O3 0.412110 0.887741 0.997109
O O4 0.139078 0.085945 0.662360
O O5 0.250000 0.148480 0.563933
O O6 0.088244 0.196147 0.617823
O O7 0.084127 0.486179 0.750000
O O8 0.000000 0.403776 0.657888
O O9 0.000000 0.798470 0.915831
O O10 0.087890 0.887741 0.997109
O O11 0.250000 0.517471 0.750000
O O12 0.139078 0.585945 0.662360
O O13 0.911756 0.696147 0.617823
O O14 0.500000 0.251657 0.250000
#
# Coordination Sequence:
#
# PCOD9482491 Si02
#       8
#     8  16   8   8  16  16   8   8
#     4  11  25  37  58  88 123 158 189 231 293 358
#     4  10  21  40  64  89 114 150 197 244 287 340
#     4  12  24  42  56  82 124 160 190 242 296 332
#     4  11  25  37  58  88 123 158 189 231 293 358
#     4  10  22  39  63  87 111 150 203 246 284 338
#     4  10  21  40  64  89 114 150 197 244 287 340
#     4  11  20  37  61  89 120 152 190 234 291 355
#     4  11  20  37  61  89 120 152 190 234 291 355
#
# _framework density 9.3121690000000008
#
# number of rings (size 3 to 8) (size 9 to 14) (size 15 to 20)
#    0.000    1.455    2.727    4.364    0.000    7.273 
#    0.000    3.636    0.000    0.000    0.000    0.000 
#    0.000    0.000    0.000    0.000    0.000    0.000 
#
# Total GULP energy -245520.774040 kJ/mol
# GULP energy per Si atom -5580.017592 kJ/mol
# Density = 0.929097 g / cm^3
# Si number density = 9.312169 Si / 1000 Ang^3
#
#
#
# Elastic Constant Matrix: (Units=GPa)
#
#
# Indices 1 2 3 4 5 6 
#
# 1 167.7017 72.8206 100.6763 0.0000 0.0000 0.0000
# 2 72.8206 61.5080 34.1054 0.0000 0.0000 0.0000
# 3 100.6763 34.1054 151.4845 0.0000 0.0000 0.0000
# 4 0.0000 0.0000 0.0000 97.1783 0.0000 0.0000
# 5 0.0000 0.0000 0.0000 0.0000 22.3304 0.0000
# 6 0.0000 0.0000 0.0000 0.0000 0.0000 21.6200
#
#
#
# Elastic Compliance Matrix: (Units=1/GPa)
#
#
# Indices 1 2 3 4 5 6 
#
# 1 0.018497 -0.017234 -0.008413 0.000000 0.000000 0.000000
# 2 -0.017234 0.034635 0.003656 0.000000 0.000000 0.000000
# 3 -0.008413 0.003656 0.011369 0.000000 0.000000 0.000000
# 4 0.000000 0.000000 0.000000 0.010290 0.000000 0.000000
# 5 0.000000 0.000000 0.000000 0.000000 0.044782 0.000000
# 6 0.000000 0.000000 0.000000 0.000000 0.000000 0.046254
#
#
# Mechanical properties :
#
#
# Convention : Reuss Voigt Hill
#
# Bulk Modulus (GPa) = 48.73519 88.43321 68.58420
# Shear Modulus (GPa) = 23.07883 39.76521 31.42202
#
# Velocity S-wave (km/s) = 3.52401 4.62575 4.11195
# Velocity P-wave (km/s) = 6.54083 8.72443 7.71033
#
# Compressibility (1/GPa) = 0.02051906
#
# Stress axis : x y z
#
# Youngs Moduli (GPa) = 54.06263 28.87285 87.95491
#
# Poissons Ratio (x) = 0.49760 0.73996
# Poissons Ratio (y) = 0.93172 -0.32157
# Poissons Ratio (z) = 0.45483 -0.10556
#
# Static dielectric constant tensor:
#      x y z
#    x 1.612130 0.000000 0.000000 
#    y 0.000000 1.639080 0.000000 
#    z 0.000000 0.000000 1.681070 
# 
# From -- ./inp_files/23830.got.cif
#   From: 2010.05.17/outbox.ucp.g08.bks.cvg/sg64_12_cif.got.tgz:23830.got - 2010.06.11 16:36:46.
