data_PCOD9482507
_publ_section_title
;
Structure prediction by ZEFSAII (Michael W. Deem and Ramdas Pophale) SiO2 
 PCOD9482507
Probable space group: C M C A
;
_chemical_formula_sum "Si O2"
_cell_formula_units_Z 44
_cell_length_a 21.000000
_cell_length_b 9.000000
_cell_length_c 24.000000
_cell_angle_alpha 90.000000
_cell_angle_beta 90.000000
_cell_angle_gamma 90.000000
_cell_volume 4536.000000
_symmetry_space_group_name_H-M "C M C A"
_symmetry_group_IT_number 64
_symmetry_cell_setting 'orthorhombic'
loop_
_space_group_symop_operation_xyz
x,y,z
-x,1/2-y,1/2+z
x,-y,-z
-x,1/2+y,1/2-z
-x,-y,-z
x,1/2+y,1/2-z
-x,y,z
x,1/2-y,1/2+z
1/2+x,1/2+y,z
1/2-x,-y,1/2+z
1/2+x,1/2-y,-z
1/2-x,y,1/2-z
1/2-x,1/2-y,-z
1/2+x,y,1/2-z
1/2-x,1/2+y,z
1/2+x,-y,1/2+z
loop_
_atom_site_type_symbol
_atom_site_label
_atom_site_fract_x
_atom_site_fract_y
_atom_site_fract_z
Si Si1 0.578596 0.622229 0.705268
Si Si2 0.786932 0.786678 0.558007
Si Si3 0.929897 0.250502 0.081653
Si Si4 0.115919 0.500000 0.000000
Si Si5 0.171325 0.893924 0.760973
Si Si6 0.178319 0.972754 0.887696
O O1 0.500000 0.612733 0.722218
O O2 0.575762 0.662600 0.640189
O O3 0.626229 0.483870 0.717394
O O4 0.625285 0.750161 0.730959
O O5 0.750000 0.750000 0.500000
O O6 0.811546 0.633767 0.584917
O O7 0.739121 0.869220 0.599683
O O8 0.840375 0.906133 0.542366
O O9 0.920512 0.373077 0.033955
O O10 0.878747 0.118713 0.083307
O O11 0.000000 0.184260 0.077729
O O12 0.250000 0.873474 0.750000
O O13 0.168966 0.977372 0.821160
#
# Coordination Sequence:
#
# PCOD9482507 Si02
#       6
#    16  16  16   8  16  16
#     4  10  23  44  64  89 130 175 212 255 326 397
#     4  12  22  39  64  92 122 167 203 257 324 382
#     4  10  23  43  63  90 126 169 212 261 312 382
#     4  12  23  38  68  92 127 160 216 258 322 378
#     4  11  25  38  66  98 127 164 214 276 317 368
#     4  11  24  40  64  91 131 161 210 260 326 381
#
# _framework density 9.7001760000000008
#
# number of rings (size 3 to 8) (size 9 to 14) (size 15 to 20)
#    0.000    1.091    3.636    1.364   10.182    0.727 
#    0.000    2.727    0.000    0.000    0.000    0.000 
#    0.000    0.000    0.000    0.000    0.000    0.000 
#
# Total GULP energy -245103.798402 kJ/mol
# GULP energy per Si atom -5570.540873 kJ/mol
# Density = 0.967810 g / cm^3
# Si number density = 9.700176 Si / 1000 Ang^3
#
#
#
# Elastic Constant Matrix: (Units=GPa)
#
#
# Indices 1 2 3 4 5 6 
#
# 1 163.1964 47.3742 21.3527 0.0000 0.0000 0.0000
# 2 47.3742 72.0484 16.1121 0.0000 0.0000 0.0000
# 3 21.3527 16.1121 33.7909 0.0000 0.0000 0.0000
# 4 0.0000 0.0000 0.0000 27.0474 0.0000 0.0000
# 5 0.0000 0.0000 0.0000 0.0000 28.2477 0.0000
# 6 0.0000 0.0000 0.0000 0.0000 0.0000 20.1826
#
#
#
# Elastic Compliance Matrix: (Units=1/GPa)
#
#
# Indices 1 2 3 4 5 6 
#
# 1 0.007800 -0.004507 -0.002780 0.000000 0.000000 0.000000
# 2 -0.004507 0.018140 -0.005802 0.000000 0.000000 0.000000
# 3 -0.002780 -0.005802 0.034117 0.000000 0.000000 0.000000
# 4 0.000000 0.000000 0.000000 0.036972 0.000000 0.000000
# 5 0.000000 0.000000 0.000000 0.000000 0.035401 0.000000
# 6 0.000000 0.000000 0.000000 0.000000 0.000000 0.049548
#
#
# Mechanical properties :
#
#
# Convention : Reuss Voigt Hill
#
# Bulk Modulus (GPa) = 29.51588 48.74596 39.13092
# Shear Modulus (GPa) = 22.78453 27.37534 25.07993
#
# Velocity S-wave (km/s) = 3.43073 3.76050 3.59939
# Velocity P-wave (km/s) = 5.56240 6.63597 6.12276
#
# Compressibility (1/GPa) = 0.03388007
#
# Stress axis : x y z
#
# Youngs Moduli (GPa) = 128.21211 55.12551 29.31127
#
# Poissons Ratio (x) = 0.24844 0.08147
# Poissons Ratio (y) = 0.57784 0.17006
# Poissons Ratio (z) = 0.35638 0.31982
#
# Static dielectric constant tensor:
#      x y z
#    x 1.710520 0.000000 0.000000 
#    y 0.000000 1.724800 0.000000 
#    z 0.000000 0.000000 1.699880 
# 
# From -- ./inp_files/46214.got.cif
#   From: 2010.05.17/outbox.ucp.g08.bks.cvg/sg64_24_cif.got.tgz:46214.got - 2010.06.11 16:36:46.
