data_PCOD9482528
_publ_section_title
;
Structure prediction by ZEFSAII (Michael W. Deem and Ramdas Pophale) SiO2 
 PCOD9482528
Probable space group: C M M M
;
_chemical_formula_sum "Si O2"
_cell_formula_units_Z 56
_cell_length_a 5.387512
_cell_length_b 14.413021
_cell_length_c 34.697522
_cell_angle_alpha 90.000000
_cell_angle_beta 90.000000
_cell_angle_gamma 90.000000
_cell_volume 2694.273811
_symmetry_space_group_name_H-M "C M M M"
_symmetry_group_IT_number 65
_symmetry_cell_setting 'orthorhombic'
loop_
_space_group_symop_operation_xyz
x,y,z
-x,-y,z
x,-y,-z
-x,y,-z
-x,-y,-z
x,y,-z
-x,y,z
x,-y,z
1/2+x,1/2+y,z
1/2-x,1/2-y,z
1/2+x,1/2-y,-z
1/2-x,1/2+y,-z
1/2-x,1/2-y,-z
1/2+x,1/2+y,-z
1/2-x,1/2+y,z
1/2+x,1/2-y,z
loop_
_atom_site_type_symbol
_atom_site_label
_atom_site_fract_x
_atom_site_fract_y
_atom_site_fract_z
Si Si1 0.000000 0.688496 0.457928
Si Si2 0.500000 0.348702 0.757653
Si Si3 0.500000 0.187136 0.874529
Si Si4 0.000000 0.390191 0.626218
Si Si5 0.000000 0.637699 0.209895
Si Si6 0.500000 0.186909 0.958459
Si Si7 0.000000 0.886389 0.669619
O O1 0.250000 0.750000 0.456817
O O2 0.000000 0.639813 0.500000
O O3 0.000000 0.630036 0.419083
O O4 0.250686 0.397482 0.771351
O O5 0.500000 0.248003 0.778637
O O6 0.500000 0.341756 0.711812
O O7 0.750000 0.250000 0.872557
O O8 0.500000 0.127114 0.835946
O O9 0.500000 0.138738 0.916595
O O10 0.746799 0.357980 0.646505
O O11 0.000000 0.500000 0.631415
O O12 0.250000 0.250000 0.958425
O O13 0.500000 0.136067 0.000000
O O14 0.000000 0.000000 0.673949
#
# Coordination Sequence:
#
# PCOD9482528 Si02
#       7
#     8   8   8   8   8   8   8
#     4  10  21  39  59  84 115 139 163 203 250 291
#     4  10  18  30  43  62  88 114 149 187 225 273
#     4  10  14  23  36  49  76 108 137 174 226 260
#     4  10  21  39  58  79 104 136 174 203 237 295
#     4  10  17  28  41  63  88 113 145 191 225 275
#     4   8  14  20  29  45  65  96 139 172 201 259
#     4  10  21  37  53  70  98 130 161 202 241 275
#
# _framework density 20.784822999999999
#
# number of rings (size 3 to 8) (size 9 to 14) (size 15 to 20)
#    0.000    2.286    2.857    1.714    0.000    0.286 
#   15.429    0.000    0.000    5.143    0.000    0.000 
#    0.000    0.000    0.000    0.000    0.000    7.857 
#
# Total GULP energy -156097.110951 kJ/mol
# GULP energy per Si atom -5574.896820 kJ/mol
# Density = 2.073752 g / cm^3
# Si number density = 20.784823 Si / 1000 Ang^3
#
#
#
# Elastic Constant Matrix: (Units=GPa)
#
#
# Indices 1 2 3 4 5 6 
#
# 1 210.6559 7.9148 65.2617 0.0000 0.0000 0.0000
# 2 7.9148 53.3909 5.2161 0.0000 0.0000 0.0000
# 3 65.2617 5.2161 230.2966 0.0000 0.0000 0.0000
# 4 0.0000 0.0000 0.0000 -35.1684 0.0000 0.0000
# 5 0.0000 0.0000 0.0000 0.0000 39.2695 0.0000
# 6 0.0000 0.0000 0.0000 0.0000 0.0000 -18.1572
#
#
#
# Elastic Compliance Matrix: (Units=1/GPa)
#
#
# Indices 1 2 3 4 5 6 
#
# 1 0.005225 -0.000631 -0.001466 0.000000 0.000000 0.000000
# 2 -0.000631 0.018848 -0.000248 0.000000 0.000000 0.000000
# 3 -0.001466 -0.000248 0.004763 0.000000 0.000000 0.000000
# 4 0.000000 0.000000 0.000000 -0.028435 0.000000 0.000000
# 5 0.000000 0.000000 0.000000 0.000000 0.025465 0.000000
# 6 0.000000 0.000000 0.000000 0.000000 0.000000 -0.055075
#
#
# Mechanical properties :
#
#
# Convention : Reuss Voigt Hill
#
# Bulk Modulus (GPa) = 41.41696 72.34763 56.88229
# Shear Modulus (GPa) = -303.60855 24.91885 -139.34485
#
# Velocity S-wave (km/s) = -12.09915 3.46626 -8.19678
# Velocity P-wave (km/s) = 13.23692 7.13467 7.88392
#
# Compressibility (1/GPa) = 0.02414470
#
# Stress axis : x y z
#
# Youngs Moduli (GPa) = 191.38428 53.05713 209.93450
#
# Poissons Ratio (x) = 0.03350 0.30785
# Poissons Ratio (y) = 0.12083 0.05206
# Poissons Ratio (z) = 0.28064 0.01316
#
# Static dielectric constant tensor:
#      x y z
#    x 1.727700 0.000000 0.000000 
#    y 0.000000 2.332970 0.000000 
#    z 0.000000 0.000000 1.750350 
# 
# From -- ./inp_files/76336.got.cif
#   From: 2010.05.17/outbox.cif.g08.bks.cpg/sg65_39_cif.got.tgz:76336.got - 2010.06.03 17:01:31.
