data_PCOD9482859
_publ_section_title
;
Structure prediction by ZEFSAII (Michael W. Deem and Ramdas Pophale) SiO2 
 PCOD9482859
Probable space group: C M M M
;
_chemical_formula_sum "Si O2"
_cell_formula_units_Z 104
_cell_length_a 23.784265
_cell_length_b 19.302000
_cell_length_c 13.881709
_cell_angle_alpha 90.000000
_cell_angle_beta 90.000000
_cell_angle_gamma 90.000000
_cell_volume 6372.868871
_symmetry_space_group_name_H-M "C M M M"
_symmetry_group_IT_number 65
_symmetry_cell_setting 'orthorhombic'
loop_
_space_group_symop_operation_xyz
x,y,z
-x,-y,z
x,-y,-z
-x,y,-z
-x,-y,-z
x,y,-z
-x,y,z
x,-y,z
1/2+x,1/2+y,z
1/2-x,1/2-y,z
1/2+x,1/2-y,-z
1/2-x,1/2+y,-z
1/2-x,1/2-y,-z
1/2+x,1/2+y,-z
1/2-x,1/2+y,z
1/2+x,1/2-y,z
loop_
_atom_site_type_symbol
_atom_site_label
_atom_site_fract_x
_atom_site_fract_y
_atom_site_fract_z
Si Si1 0.755813 0.500000 0.681950
Si Si2 0.761861 0.000000 0.106949
Si Si3 0.828915 0.778888 0.696921
Si Si4 0.777079 0.349218 0.389813
Si Si5 0.433623 0.354281 0.384336
Si Si6 0.372874 0.500000 0.616062
Si Si7 0.174179 0.851916 0.110027
Si Si8 0.062184 0.922819 0.116383
O O1 0.772226 0.500000 0.794434
O O2 0.777586 0.570112 0.634412
O O3 0.687327 0.500000 0.669925
O O4 0.797377 0.928290 0.112328
O O5 0.735167 0.000000 0.000000
O O6 0.815894 0.698891 0.676729
O O7 0.786560 0.822131 0.627890
O O8 0.891806 0.801114 0.668734
O O9 0.809131 0.801691 0.803789
O O10 0.792618 0.337122 0.500000
O O11 0.428382 0.344850 0.500000
O O12 0.500000 0.349228 0.361386
O O13 0.408865 0.431085 0.362235
O O14 0.361123 0.500000 0.500000
O O15 0.109383 0.867636 0.134731
O O16 0.180377 0.826234 0.000000
O O17 0.000000 0.905796 0.150853
O O18 0.077290 0.000000 0.150857
O O19 0.060185 0.927325 0.000000
#
# Coordination Sequence:
#
# PCOD9482859 Si02
#       8
#     8   8  16  16  16   8  16  16
#     4  12  20  35  56  78  96 130 176 211 256 304
#     4  10  18  30  44  66  99 133 168 204 243 292
#     4  11  21  34  49  72 103 132 169 211 255 305
#     4  11  22  36  55  75  98 128 164 215 265 308
#     4  10  19  31  48  70 101 139 171 200 245 305
#     4  10  17  28  46  72 104 133 168 209 242 292
#     4  10  18  30  46  64  94 137 177 212 247 293
#     4   8  13  22  38  60  88 126 173 217 246 271
#
# _framework density 16.319181
#
# number of rings (size 3 to 8) (size 9 to 14) (size 15 to 20)
#    0.000    1.846    3.846    3.231    0.000    1.538 
#    0.000    2.308    0.000    0.000    0.000    0.538 
#    0.000    2.462    0.000    0.000    0.000    9.615 
#
# Total GULP energy -290005.605064 kJ/mol
# GULP energy per Si atom -5577.030867 kJ/mol
# Density = 1.628204 g / cm^3
# Si number density = 16.319181 Si / 1000 Ang^3
#
#
#
# Elastic Constant Matrix: (Units=GPa)
#
#
# Indices 1 2 3 4 5 6 
#
# 1 50.1841 30.2694 17.7404 0.0000 0.0000 0.0000
# 2 30.2694 93.4653 33.9377 0.0000 0.0000 0.0000
# 3 17.7404 33.9377 103.0949 0.0000 0.0000 0.0000
# 4 0.0000 0.0000 0.0000 17.5679 0.0000 0.0000
# 5 0.0000 0.0000 0.0000 0.0000 9.9451 0.0000
# 6 0.0000 0.0000 0.0000 0.0000 0.0000 15.6876
#
#
#
# Elastic Compliance Matrix: (Units=1/GPa)
#
#
# Indices 1 2 3 4 5 6 
#
# 1 0.025076 -0.007444 -0.001865 0.000000 0.000000 0.000000
# 2 -0.007444 0.014361 -0.003447 0.000000 0.000000 0.000000
# 3 -0.001865 -0.003447 0.011155 0.000000 0.000000 0.000000
# 4 0.000000 0.000000 0.000000 0.056922 0.000000 0.000000
# 5 0.000000 0.000000 0.000000 0.000000 0.100552 0.000000
# 6 0.000000 0.000000 0.000000 0.000000 0.000000 0.063744
#
#
# Mechanical properties :
#
#
# Convention : Reuss Voigt Hill
#
# Bulk Modulus (GPa) = 39.86909 45.62661 42.74785
# Shear Modulus (GPa) = 16.35688 19.62659 17.99173
#
# Velocity S-wave (km/s) = 3.16936 3.47172 3.32398
# Velocity P-wave (km/s) = 6.15443 6.64003 6.40184
#
# Compressibility (1/GPa) = 0.02508209
#
# Stress axis : x y z
#
# Youngs Moduli (GPa) = 39.87932 69.63094 89.64384
#
# Poissons Ratio (x) = 0.51833 0.16714
# Poissons Ratio (y) = 0.29686 0.30897
# Poissons Ratio (z) = 0.07436 0.24000
#
# Static dielectric constant tensor:
#      x y z
#    x 1.549840 0.000000 0.000000 
#    y 0.000000 1.544010 0.000000 
#    z 0.000000 0.000000 1.616710 
# 
# From -- ./inp_files/46073.got.cif
#   From: 2010.05.17/outbox.cif.g08.bks.cpg/sg65_24_cif.got.tgz:46073.got - 2010.06.03 17:01:31.
