data_PCOD9482557
_publ_section_title
;
Structure prediction by ZEFSAII (Michael W. Deem and Ramdas Pophale) SiO2 
 PCOD9482557
Probable space group: C M M M
;
_chemical_formula_sum "Si O2"
_cell_formula_units_Z 104
_cell_length_a 28.096737
_cell_length_b 8.576940
_cell_length_c 27.885401
_cell_angle_alpha 90.000000
_cell_angle_beta 90.000000
_cell_angle_gamma 90.000000
_cell_volume 6719.936240
_symmetry_space_group_name_H-M "C M M M"
_symmetry_group_IT_number 65
_symmetry_cell_setting 'orthorhombic'
loop_
_space_group_symop_operation_xyz
x,y,z
-x,-y,z
x,-y,-z
-x,y,-z
-x,-y,-z
x,y,-z
-x,y,z
x,-y,z
1/2+x,1/2+y,z
1/2-x,1/2-y,z
1/2+x,1/2-y,-z
1/2-x,1/2+y,-z
1/2-x,1/2-y,-z
1/2+x,1/2+y,-z
1/2-x,1/2+y,z
1/2+x,1/2-y,z
loop_
_atom_site_type_symbol
_atom_site_label
_atom_site_fract_x
_atom_site_fract_y
_atom_site_fract_z
Si Si1 0.601289 0.188268 0.445807
Si Si2 0.552952 0.311979 0.647759
Si Si3 0.148855 0.188756 0.301933
Si Si4 0.698823 0.813703 0.395289
Si Si5 0.303847 0.688242 0.796011
Si Si6 0.195834 0.186875 0.098597
Si Si7 0.304353 0.185176 0.000000
O O1 0.591161 0.238926 0.500000
O O2 0.566908 0.257550 0.405567
O O3 0.655184 0.231316 0.430150
O O4 0.598096 0.000000 0.443952
O O5 0.500000 0.257300 0.660658
O O6 0.552980 0.500000 0.648584
O O7 0.595988 0.259217 0.682260
O O8 0.184513 0.249372 0.342900
O O9 0.165348 0.240845 0.249400
O O10 0.149880 0.000000 0.302951
O O11 0.750000 0.750000 0.410157
O O12 0.700734 0.000000 0.393237
O O13 0.301626 0.500000 0.795052
O O14 0.250000 0.750000 0.791247
O O15 0.323599 0.731652 0.848827
O O16 0.250000 0.250000 0.099885
O O17 0.173596 0.255194 0.049971
O O18 0.196694 0.000000 0.094594
O O19 0.250000 0.250000 0.000000
O O20 0.302366 0.000000 0.000000
#
# Coordination Sequence:
#
# PCOD9482557 Si02
#       7
#    16  16  16  16  16  16   8
#     4   9  19  34  48  63  84 108 134 164 197 236
#     4   9  18  32  49  67  85 105 130 162 201 244
#     4   9  17  30  45  61  82 107 135 166 200 239
#     4  10  19  30  44  62  83 108 137 165 196 235
#     4   9  17  26  38  56  78 105 135 166 197 231
#     4   9  15  23  33  47  68  96 131 166 197 226
#     4  10  16  22  32  46  66  96 133 168 199 227
#
# _framework density 15.476338
#
# number of rings (size 3 to 8) (size 9 to 14) (size 15 to 20)
#    0.000    2.769    0.000    3.000    0.000    4.308 
#    0.000    1.538    0.000    0.000    0.000    0.000 
#    0.000    0.000    0.000    0.692    0.000   18.846 
#
# Total GULP energy -289607.169035 kJ/mol
# GULP energy per Si atom -5569.368635 kJ/mol
# Density = 1.544111 g / cm^3
# Si number density = 15.476338 Si / 1000 Ang^3
#
#
#
# Elastic Constant Matrix: (Units=GPa)
#
#
# Indices 1 2 3 4 5 6 
#
# 1 57.3955 6.9274 22.3259 0.0000 0.0000 0.0000
# 2 6.9274 22.4289 17.7998 0.0000 0.0000 0.0000
# 3 22.3259 17.7998 125.0015 0.0000 0.0000 0.0000
# 4 0.0000 0.0000 0.0000 19.1281 0.0000 0.0000
# 5 0.0000 0.0000 0.0000 0.0000 8.9459 0.0000
# 6 0.0000 0.0000 0.0000 0.0000 0.0000 13.3906
#
#
#
# Elastic Compliance Matrix: (Units=1/GPa)
#
#
# Indices 1 2 3 4 5 6 
#
# 1 0.018975 -0.003575 -0.002880 0.000000 0.000000 0.000000
# 2 -0.003575 0.050939 -0.006615 0.000000 0.000000 0.000000
# 3 -0.002880 -0.006615 0.009456 0.000000 0.000000 0.000000
# 4 0.000000 0.000000 0.000000 0.052279 0.000000 0.000000
# 5 0.000000 0.000000 0.000000 0.000000 0.111784 0.000000
# 6 0.000000 0.000000 0.000000 0.000000 0.000000 0.074679
#
#
# Mechanical properties :
#
#
# Convention : Reuss Voigt Hill
#
# Bulk Modulus (GPa) = 18.78633 33.21468 26.00051
# Shear Modulus (GPa) = 13.81232 18.81110 16.31171
#
# Velocity S-wave (km/s) = 2.99068 3.49015 3.25002
# Velocity P-wave (km/s) = 4.90822 6.14408 5.56059
#
# Compressibility (1/GPa) = 0.05323018
#
# Stress axis : x y z
#
# Youngs Moduli (GPa) = 52.70176 19.63122 105.75037
#
# Poissons Ratio (x) = 0.07018 0.30455
# Poissons Ratio (y) = 0.18841 0.69955
# Poissons Ratio (z) = 0.15178 0.12986
#
# Static dielectric constant tensor:
#      x y z
#    x 1.499290 0.000000 0.000000 
#    y 0.000000 1.523540 0.000000 
#    z 0.000000 0.000000 1.556450 
# 
# From -- ./inp_files/76215.got.cif
#   From: 2010.05.17/outbox.cif.g08.bks.cpg/sg65_39_cif.got.tgz:76215.got - 2010.06.03 17:01:31.
