data_PCOD9482204
_publ_section_title
;
Structure prediction by ZEFSAII (Michael W. Deem and Ramdas Pophale) SiO2 
 PCOD9482204
Probable space group: C M C A
;
_chemical_formula_sum "Si O2"
_cell_formula_units_Z 56
_cell_length_a 19.973928
_cell_length_b 12.976548
_cell_length_c 10.331946
_cell_angle_alpha 90.000000
_cell_angle_beta 90.000000
_cell_angle_gamma 90.000000
_cell_volume 2677.964313
_symmetry_space_group_name_H-M "C M C A"
_symmetry_group_IT_number 64
_symmetry_cell_setting 'orthorhombic'
loop_
_space_group_symop_operation_xyz
x,y,z
-x,1/2-y,1/2+z
x,-y,-z
-x,1/2+y,1/2-z
-x,-y,-z
x,1/2+y,1/2-z
-x,y,z
x,1/2-y,1/2+z
1/2+x,1/2+y,z
1/2-x,-y,1/2+z
1/2+x,1/2-y,-z
1/2-x,y,1/2-z
1/2-x,1/2-y,-z
1/2+x,y,1/2-z
1/2-x,1/2+y,z
1/2+x,-y,1/2+z
loop_
_atom_site_type_symbol
_atom_site_label
_atom_site_fract_x
_atom_site_fract_y
_atom_site_fract_z
Si Si1 0.426212 0.407418 0.102474
Si Si2 0.178859 0.217228 0.056391
Si Si3 0.750000 0.433872 0.750000
Si Si4 0.866830 0.442196 0.126938
O O1 0.500000 0.357863 0.101096
O O2 0.410677 0.451096 0.244194
O O3 0.426703 0.500000 0.000000
O O4 0.367221 0.333624 0.053374
O O5 0.198404 0.137039 0.169442
O O6 0.143498 0.320989 0.104091
O O7 0.250000 0.250000 0.000000
O O8 0.794872 0.505250 0.842298
O O9 0.893725 0.500000 0.000000
#
# Coordination Sequence:
#
# PCOD9482204 Si02
#       4
#    16  16   8  16
#     4  11  26  49  73 101 146 195 238 291 359 434
#     4  12  24  43  72 109 144 189 239 302 368 419
#     4  12  22  42  66 108 150 180 240 298 366 428
#     4  12  26  42  69 107 142 188 240 302 355 434
#
# _framework density 20.911405999999999
#
# number of rings (size 3 to 8) (size 9 to 14) (size 15 to 20)
#    0.000    0.286    5.714    4.286    0.000    1.714 
#    0.000    2.857    0.000    0.000    0.000    0.000 
#    0.000    0.000    0.000    0.000    0.000    0.000 
#
# Total GULP energy -156635.223948 kJ/mol
# GULP energy per Si atom -5594.115141 kJ/mol
# Density = 2.086381 g / cm^3
# Si number density = 20.911406 Si / 1000 Ang^3
#
#
#
# Elastic Constant Matrix: (Units=GPa)
#
#
# Indices 1 2 3 4 5 6 
#
# 1 117.2111 26.0013 51.0023 0.0000 0.0000 0.0000
# 2 26.0013 70.4077 37.9156 0.0000 0.0000 0.0000
# 3 51.0023 37.9156 157.2279 0.0000 0.0000 0.0000
# 4 0.0000 0.0000 0.0000 42.0670 0.0000 0.0000
# 5 0.0000 0.0000 0.0000 0.0000 -0.6979 0.0000
# 6 0.0000 0.0000 0.0000 0.0000 0.0000 22.3291
#
#
#
# Elastic Compliance Matrix: (Units=1/GPa)
#
#
# Indices 1 2 3 4 5 6 
#
# 1 0.010246 -0.002291 -0.002771 0.000000 0.000000 0.000000
# 2 -0.002291 0.016835 -0.003316 0.000000 0.000000 0.000000
# 3 -0.002771 -0.003316 0.008059 0.000000 0.000000 0.000000
# 4 0.000000 0.000000 0.000000 0.023772 0.000000 0.000000
# 5 0.000000 0.000000 0.000000 0.000000 -1.432913 0.000000
# 6 0.000000 0.000000 0.000000 0.000000 0.000000 0.044785
#
#
# Mechanical properties :
#
#
# Convention : Reuss Voigt Hill
#
# Bulk Modulus (GPa) = 54.40154 63.85391 59.12773
# Shear Modulus (GPa) = -3.82751 28.06816 12.12032
#
# Velocity S-wave (km/s) = -1.35437 3.66764 2.41011
# Velocity P-wave (km/s) = 4.86065 6.96686 6.00679
#
# Compressibility (1/GPa) = 0.01838183
#
# Stress axis : x y z
#
# Youngs Moduli (GPa) = 97.60224 59.39930 124.08765
#
# Poissons Ratio (x) = 0.13611 0.34384
# Poissons Ratio (y) = 0.22366 0.41154
# Poissons Ratio (z) = 0.27045 0.19700
#
# Static dielectric constant tensor:
#      x y z
#    x 1.730540 0.000000 0.000000 
#    y 0.000000 2.124710 0.000000 
#    z 0.000000 0.000000 1.783910 
# 
# From -- ./inp_files/15368.got.cif
#   From: 2010.05.17/outbox.cif.g08.bks.cpg/sg64_8_cif.got.tgz:15368.got - 2010.06.03 16:29:19.
