data_PCOD9482904
_publ_section_title
;
Structure prediction by ZEFSAII (Michael W. Deem and Ramdas Pophale) SiO2 
 PCOD9482904
Probable space group: C M M M
;
_chemical_formula_sum "Si O2"
_cell_formula_units_Z 80
_cell_length_a 11.281925
_cell_length_b 30.109775
_cell_length_c 14.703205
_cell_angle_alpha 90.000000
_cell_angle_beta 90.000000
_cell_angle_gamma 90.000000
_cell_volume 4994.623209
_symmetry_space_group_name_H-M "C M M M"
_symmetry_group_IT_number 65
_symmetry_cell_setting 'orthorhombic'
loop_
_space_group_symop_operation_xyz
x,y,z
-x,-y,z
x,-y,-z
-x,y,-z
-x,-y,-z
x,y,-z
-x,y,z
x,-y,z
1/2+x,1/2+y,z
1/2-x,1/2-y,z
1/2+x,1/2-y,-z
1/2-x,1/2+y,-z
1/2-x,1/2-y,-z
1/2+x,1/2+y,-z
1/2-x,1/2+y,z
1/2+x,1/2-y,z
loop_
_atom_site_type_symbol
_atom_site_label
_atom_site_fract_x
_atom_site_fract_y
_atom_site_fract_z
Si Si1 0.633093 0.223120 0.610680
Si Si2 0.230814 0.946519 0.102442
Si Si3 0.000000 0.113061 0.604562
Si Si4 0.237143 0.629944 0.393655
Si Si5 0.638321 0.051199 0.723551
Si Si6 0.000000 0.946487 0.781897
O O1 0.633087 0.225709 0.500000
O O2 0.500000 0.236613 0.640526
O O3 0.750000 0.250000 0.641575
O O4 0.658877 0.171840 0.635265
O O5 0.338749 0.937483 0.170635
O O6 0.114234 0.932969 0.158706
O O7 0.223366 0.000000 0.094454
O O8 0.237777 0.928616 0.000000
O O9 0.877625 0.140015 0.614487
O O10 0.000000 0.076161 0.683359
O O11 0.000000 0.095364 0.500000
O O12 0.213046 0.621698 0.500000
O O13 0.207751 0.586035 0.337629
O O14 0.500000 0.053447 0.702040
O O15 0.678882 0.000000 0.709696
O O16 0.000000 0.000000 0.772286
#
# Coordination Sequence:
#
# PCOD9482904 Si02
#       6
#    16  16   8  16  16   8
#     4   9  18  31  49  71  94 122 157 198 242 288
#     4   9  17  29  45  64  86 115 153 200 249 289
#     4  10  20  30  45  68  92 127 159 193 238 284
#     4  10  20  33  48  67  96 128 161 198 240 282
#     4  10  20  32  46  65  91 127 166 200 235 281
#     4  10  17  29  46  65  89 120 161 203 242 282
#
# _framework density 16.017225
#
# number of rings (size 3 to 8) (size 9 to 14) (size 15 to 20)
#    0.000    2.400    2.000    0.900    1.400    3.400 
#    0.000    5.000    0.000    0.000    0.000    0.000 
#    0.000    0.800    0.000    1.800    0.000    0.400 
#
# Total GULP energy -222678.395204 kJ/mol
# GULP energy per Si atom -5566.959880 kJ/mol
# Density = 1.598077 g / cm^3
# Si number density = 16.017225 Si / 1000 Ang^3
#
#
#
# Elastic Constant Matrix: (Units=GPa)
#
#
# Indices 1 2 3 4 5 6 
#
# 1 95.3830 30.5553 18.0114 0.0000 0.0000 0.0000
# 2 30.5553 39.0349 20.5780 0.0000 0.0000 0.0000
# 3 18.0114 20.5780 58.2456 0.0000 0.0000 0.0000
# 4 0.0000 0.0000 0.0000 -1.4236 0.0000 0.0000
# 5 0.0000 0.0000 0.0000 0.0000 13.1912 0.0000
# 6 0.0000 0.0000 0.0000 0.0000 0.0000 19.8378
#
#
#
# Elastic Compliance Matrix: (Units=1/GPa)
#
#
# Indices 1 2 3 4 5 6 
#
# 1 0.014008 -0.010668 -0.000563 0.000000 0.000000 0.000000
# 2 -0.010668 0.039606 -0.010694 0.000000 0.000000 0.000000
# 3 -0.000563 -0.010694 0.021121 0.000000 0.000000 0.000000
# 4 0.000000 0.000000 0.000000 -0.702448 0.000000 0.000000
# 5 0.000000 0.000000 0.000000 0.000000 0.075808 0.000000
# 6 0.000000 0.000000 0.000000 0.000000 0.000000 0.050409
#
#
# Mechanical properties :
#
#
# Convention : Reuss Voigt Hill
#
# Bulk Modulus (GPa) = 32.37765 36.77253 34.57509
# Shear Modulus (GPa) = -11.17688 14.55567 1.68939
#
# Velocity S-wave (km/s) = -2.64446 3.01782 1.02812
# Velocity P-wave (km/s) = 3.30664 5.92882 4.80025
#
# Compressibility (1/GPa) = 0.03088551
#
# Stress axis : x y z
#
# Youngs Moduli (GPa) = 71.38891 25.24851 47.34682
#
# Poissons Ratio (x) = 0.26936 0.02664
# Poissons Ratio (y) = 0.76160 0.50632
# Poissons Ratio (z) = 0.04016 0.27000
#
# Static dielectric constant tensor:
#      x y z
#    x 1.596360 0.000000 0.000000 
#    y 0.000000 1.525750 0.000000 
#    z 0.000000 0.000000 1.518920 
# 
# From -- ./inp_files/33543.got.cif
#   From: 2010.05.17/outbox.cif.g08.bks.cpg/sg65_17_cif.got.tgz:33543.got - 2010.06.03 17:01:31.
