data_PCOD9482275
_publ_section_title
;
Structure prediction by ZEFSAII (Michael W. Deem and Ramdas Pophale) SiO2 
 PCOD9482275
Probable space group: C M C A
;
_chemical_formula_sum "Si O2"
_cell_formula_units_Z 32
_cell_length_a 14.683707
_cell_length_b 17.026904
_cell_length_c 5.070076
_cell_angle_alpha 90.000000
_cell_angle_beta 90.000000
_cell_angle_gamma 90.000000
_cell_volume 1267.610614
_symmetry_space_group_name_H-M "C M C A"
_symmetry_group_IT_number 64
_symmetry_cell_setting 'orthorhombic'
loop_
_space_group_symop_operation_xyz
x,y,z
-x,1/2-y,1/2+z
x,-y,-z
-x,1/2+y,1/2-z
-x,-y,-z
x,1/2+y,1/2-z
-x,y,z
x,1/2-y,1/2+z
1/2+x,1/2+y,z
1/2-x,-y,1/2+z
1/2+x,1/2-y,-z
1/2-x,y,1/2-z
1/2-x,1/2-y,-z
1/2+x,y,1/2-z
1/2-x,1/2+y,z
1/2+x,-y,1/2+z
loop_
_atom_site_type_symbol
_atom_site_label
_atom_site_fract_x
_atom_site_fract_y
_atom_site_fract_z
Si Si1 0.250000 0.193359 0.250000
Si Si2 0.153039 0.415348 0.096108
Si Si3 0.500000 0.693221 0.822975
O O1 0.250000 0.250000 0.500000
O O2 0.169869 0.134681 0.330597
O O3 0.250000 0.424695 0.250000
O O4 0.085759 0.363620 0.271546
O O5 0.119913 0.500000 0.000000
O O6 0.500000 0.760429 0.596623
#
# Coordination Sequence:
#
# PCOD9482275 Si02
#       3
#     8  16   8
#     4  12  24  42  74 106 150 198 252 310 374 460
#     4  12  27  50  80 118 157 207 261 326 400 466
#     4  12  31  50  77 116 160 208 262 324 388 473
#
# _framework density 25.244346
#
# number of rings (size 3 to 8) (size 9 to 14) (size 15 to 20)
#    0.000    0.000    5.000    3.750    7.000    0.000 
#    0.000    3.750    0.000    0.000    0.000    0.000 
#    0.000    0.000    0.000    0.000    0.000    0.000 
#
# Total GULP energy -89667.553798 kJ/mol
# GULP energy per Si atom -5604.222112 kJ/mol
# Density = 2.518689 g / cm^3
# Si number density = 25.244346 Si / 1000 Ang^3
#
#
#
# Elastic Constant Matrix: (Units=GPa)
#
#
# Indices 1 2 3 4 5 6 
#
# 1 100.9369 30.1089 16.7790 0.0000 0.0000 0.0000
# 2 30.1089 214.5743 59.9936 0.0000 0.0000 0.0000
# 3 16.7790 59.9936 174.1360 0.0000 0.0000 0.0000
# 4 0.0000 0.0000 0.0000 29.0487 0.0000 0.0000
# 5 0.0000 0.0000 0.0000 0.0000 29.8921 0.0000
# 6 0.0000 0.0000 0.0000 0.0000 0.0000 40.6796
#
#
#
# Elastic Compliance Matrix: (Units=1/GPa)
#
#
# Indices 1 2 3 4 5 6 
#
# 1 0.010388 -0.001303 -0.000552 0.000000 0.000000 0.000000
# 2 -0.001303 0.005321 -0.001708 0.000000 0.000000 0.000000
# 3 -0.000552 -0.001708 0.006384 0.000000 0.000000 0.000000
# 4 0.000000 0.000000 0.000000 0.034425 0.000000 0.000000
# 5 0.000000 0.000000 0.000000 0.000000 0.033454 0.000000
# 6 0.000000 0.000000 0.000000 0.000000 0.000000 0.024582
#
#
# Mechanical properties :
#
#
# Convention : Reuss Voigt Hill
#
# Bulk Modulus (GPa) = 66.81338 78.15669 72.48504
# Shear Modulus (GPa) = 39.47331 45.44178 42.45754
#
# Velocity S-wave (km/s) = 3.95859 4.24733 4.10550
# Velocity P-wave (km/s) = 6.88608 7.42162 7.15886
#
# Compressibility (1/GPa) = 0.01496706
#
# Stress axis : x y z
#
# Youngs Moduli (GPa) = 96.26781 187.94610 156.63935
#
# Poissons Ratio (x) = 0.24495 0.08645
# Poissons Ratio (y) = 0.12546 0.26746
# Poissons Ratio (z) = 0.05313 0.32092
#
# Static dielectric constant tensor:
#      x y z
#    x 2.133480 0.000000 0.000000 
#    y 0.000000 1.976540 0.000000 
#    z 0.000000 0.000000 1.974440 
# 
# From -- ./inp_files/475.got.cif
#   From: 2010.05.17/outbox.cif.g08.bks.cpg/sg64_1_cif.got.tgz:475.got - 2010.06.03 16:29:19.
