data_PCOD9482559
_publ_section_title
;
Structure prediction by ZEFSAII (Michael W. Deem and Ramdas Pophale) SiO2 
 PCOD9482559
Probable space group: C M M M
;
_chemical_formula_sum "Si O2"
_cell_formula_units_Z 104
_cell_length_a 28.067895
_cell_length_b 8.712694
_cell_length_c 27.755051
_cell_angle_alpha 90.000000
_cell_angle_beta 90.000000
_cell_angle_gamma 90.000000
_cell_volume 6787.413912
_symmetry_space_group_name_H-M "C M M M"
_symmetry_group_IT_number 65
_symmetry_cell_setting 'orthorhombic'
loop_
_space_group_symop_operation_xyz
x,y,z
-x,-y,z
x,-y,-z
-x,y,-z
-x,-y,-z
x,y,-z
-x,y,z
x,-y,z
1/2+x,1/2+y,z
1/2-x,1/2-y,z
1/2+x,1/2-y,-z
1/2-x,1/2+y,-z
1/2-x,1/2-y,-z
1/2+x,1/2+y,-z
1/2-x,1/2+y,z
1/2+x,1/2-y,z
loop_
_atom_site_type_symbol
_atom_site_label
_atom_site_fract_x
_atom_site_fract_y
_atom_site_fract_z
Si Si1 0.696603 0.685002 0.795633
Si Si2 0.600342 0.314514 0.445584
Si Si3 0.303795 0.315893 0.098077
Si Si4 0.198648 0.816047 0.602372
Si Si5 0.553886 0.183691 0.648942
Si Si6 0.804127 0.683018 0.000000
Si Si7 0.854873 0.185456 0.300959
O O1 0.700049 0.500000 0.793751
O O2 0.750000 0.750000 0.791002
O O3 0.676488 0.723726 0.848875
O O4 0.664818 0.736523 0.750678
O O5 0.588315 0.269290 0.500000
O O6 0.597086 0.500000 0.441925
O O7 0.655073 0.272292 0.432693
O O8 0.567787 0.242282 0.404367
O O9 0.302218 0.500000 0.092882
O O10 0.250000 0.250000 0.099923
O O11 0.326281 0.243936 0.049958
O O12 0.250000 0.750000 0.590257
O O13 0.181379 0.768537 0.656038
O O14 0.201937 0.000000 0.601799
O O15 0.500000 0.231404 0.660756
O O16 0.593731 0.250767 0.684523
O O17 0.556520 0.000000 0.649685
O O18 0.750000 0.750000 0.000000
O O19 0.801937 0.500000 0.000000
O O20 0.857271 0.000000 0.301524
#
# Coordination Sequence:
#
# PCOD9482559 Si02
#       7
#    16  16  16  16  16   8  16
#     4   9  17  27  41  62  87 114 145 180 214 250
#     4   9  19  35  51  67  88 113 141 170 201 244
#     4   9  15  23  34  50  74 105 141 179 216 248
#     4   9  17  28  43  63  87 113 140 169 199 236
#     4  10  21  35  50  69  89 107 132 169 212 254
#     4  10  16  22  32  46  68 102 145 186 217 246
#     4   9  18  32  47  64  86 112 142 173 206 249
#
# _framework density 15.322478
#
# number of rings (size 3 to 8) (size 9 to 14) (size 15 to 20)
#    0.000    2.769    0.000    3.923    0.000    5.846 
#    0.000    1.538    0.000    0.000    0.000    0.000 
#    0.000    0.000    0.000    0.692    0.000   14.538 
#
# Total GULP energy -289633.736812 kJ/mol
# GULP energy per Si atom -5569.879554 kJ/mol
# Density = 1.528760 g / cm^3
# Si number density = 15.322478 Si / 1000 Ang^3
#
#
#
# Elastic Constant Matrix: (Units=GPa)
#
#
# Indices 1 2 3 4 5 6 
#
# 1 56.7794 10.2761 24.0386 0.0000 0.0000 0.0000
# 2 10.2761 26.3123 24.4215 0.0000 0.0000 0.0000
# 3 24.0386 24.4215 124.1384 0.0000 0.0000 0.0000
# 4 0.0000 0.0000 0.0000 15.3280 0.0000 0.0000
# 5 0.0000 0.0000 0.0000 0.0000 9.5941 0.0000
# 6 0.0000 0.0000 0.0000 0.0000 0.0000 20.5431
#
#
#
# Elastic Compliance Matrix: (Units=1/GPa)
#
#
# Indices 1 2 3 4 5 6 
#
# 1 0.019726 -0.005088 -0.002819 0.000000 0.000000 0.000000
# 2 -0.005088 0.047807 -0.008420 0.000000 0.000000 0.000000
# 3 -0.002819 -0.008420 0.010258 0.000000 0.000000 0.000000
# 4 0.000000 0.000000 0.000000 0.065240 0.000000 0.000000
# 5 0.000000 0.000000 0.000000 0.000000 0.104231 0.000000
# 6 0.000000 0.000000 0.000000 0.000000 0.000000 0.048678
#
#
# Mechanical properties :
#
#
# Convention : Reuss Voigt Hill
#
# Bulk Modulus (GPa) = 22.15421 36.07805 29.11613
# Shear Modulus (GPa) = 14.55020 18.99265 16.77142
#
# Velocity S-wave (km/s) = 3.08490 3.52451 3.31201
# Velocity P-wave (km/s) = 5.21333 6.33718 5.80253
#
# Compressibility (1/GPa) = 0.04513815
#
# Stress axis : x y z
#
# Youngs Moduli (GPa) = 50.69385 20.91760 97.48674
#
# Poissons Ratio (x) = 0.10642 0.27481
# Poissons Ratio (y) = 0.25791 0.82081
# Poissons Ratio (z) = 0.14291 0.17612
#
# Static dielectric constant tensor:
#      x y z
#    x 1.477970 0.000000 0.000000 
#    y 0.000000 1.514950 0.000000 
#    z 0.000000 0.000000 1.558630 
# 
# From -- ./inp_files/76036.got.cif
#   From: 2010.05.17/outbox.cif.g08.bks.cpg/sg65_39_cif.got.tgz:76036.got - 2010.06.03 17:01:31.
