data_PCOD9482432
_publ_section_title
;
Structure prediction by ZEFSAII (Michael W. Deem and Ramdas Pophale) SiO2 
 PCOD9482432
Probable space group: C M C A
;
_chemical_formula_sum "Si O2"
_cell_formula_units_Z 40
_cell_length_a 9.000000
_cell_length_b 27.000000
_cell_length_c 18.000000
_cell_angle_alpha 90.000000
_cell_angle_beta 90.000000
_cell_angle_gamma 90.000000
_cell_volume 4374.000000
_symmetry_space_group_name_H-M "C M C A"
_symmetry_group_IT_number 64
_symmetry_cell_setting 'orthorhombic'
loop_
_space_group_symop_operation_xyz
x,y,z
-x,1/2-y,1/2+z
x,-y,-z
-x,1/2+y,1/2-z
-x,-y,-z
x,1/2+y,1/2-z
-x,y,z
x,1/2-y,1/2+z
1/2+x,1/2+y,z
1/2-x,-y,1/2+z
1/2+x,1/2-y,-z
1/2-x,y,1/2-z
1/2-x,1/2-y,-z
1/2+x,y,1/2-z
1/2-x,1/2+y,z
1/2+x,-y,1/2+z
loop_
_atom_site_type_symbol
_atom_site_label
_atom_site_fract_x
_atom_site_fract_y
_atom_site_fract_z
Si Si1 0.179267 0.000367 0.332038
Si Si2 0.323164 0.406566 0.086182
Si Si3 0.320369 0.192834 0.167608
Si Si4 0.678384 0.305200 0.168794
Si Si5 0.177377 0.402760 0.591229
O O1 0.250000 0.997572 0.250000
O O2 0.233516 0.951545 0.376553
O O3 0.000000 0.002238 0.328823
O O4 0.243729 0.050088 0.370549
O O5 0.500000 0.413728 0.101703
O O6 0.279274 0.352546 0.118821
O O7 0.304019 0.406784 0.997528
O O8 0.500000 0.187652 0.170597
O O9 0.250000 0.188965 0.250000
O O10 0.284880 0.249309 0.140867
O O11 0.249364 0.148504 0.120052
O O12 0.500000 0.306336 0.176358
O O13 0.750000 0.310836 0.250000
O O14 0.000000 0.403301 0.607768
#
# Coordination Sequence:
#
# PCOD9482432 Si02
#       5
#    16  16  16  16  16
#     4  12  25  41  62  86 113 147 190 236 283 338
#     4  10  22  40  60  85 118 152 187 231 285 340
#     4  10  20  36  58  84 115 150 192 237 280 332
#     4   9  19  36  58  84 114 150 190 233 280 332
#     4  11  23  39  59  84 117 153 188 232 286 339
#
# _framework density 9.1449470000000002
#
# number of rings (size 3 to 8) (size 9 to 14) (size 15 to 20)
#    0.000    1.600    0.000    4.800    0.000    8.000 
#    0.000    0.000    0.000    0.000    0.000    0.000 
#    0.000    0.000    0.000    0.000    0.000    0.000 
#
# Total GULP energy -223483.279584 kJ/mol
# GULP energy per Si atom -5587.081990 kJ/mol
# Density = 0.912413 g / cm^3
# Si number density = 9.144947 Si / 1000 Ang^3
#
#
#
# Elastic Constant Matrix: (Units=GPa)
#
#
# Indices 1 2 3 4 5 6 
#
# 1 123.8676 84.4436 61.7758 0.0000 0.0000 0.0000
# 2 84.4436 193.7957 82.7916 0.0000 0.0000 0.0000
# 3 61.7758 82.7916 99.4780 0.0000 0.0000 0.0000
# 4 0.0000 0.0000 0.0000 28.7946 0.0000 0.0000
# 5 0.0000 0.0000 0.0000 0.0000 28.7431 0.0000
# 6 0.0000 0.0000 0.0000 0.0000 0.0000 38.7974
#
#
#
# Elastic Compliance Matrix: (Units=1/GPa)
#
#
# Indices 1 2 3 4 5 6 
#
# 1 0.013026 -0.003445 -0.005222 0.000000 0.000000 0.000000
# 2 -0.003445 0.008918 -0.005283 0.000000 0.000000 0.000000
# 3 -0.005222 -0.005283 0.017692 0.000000 0.000000 0.000000
# 4 0.000000 0.000000 0.000000 0.034729 0.000000 0.000000
# 5 0.000000 0.000000 0.000000 0.000000 0.034791 0.000000
# 6 0.000000 0.000000 0.000000 0.000000 0.000000 0.025775
#
#
# Mechanical properties :
#
#
# Convention : Reuss Voigt Hill
#
# Bulk Modulus (GPa) = 85.20461 97.24037 91.22249
# Shear Modulus (GPa) = 29.98636 31.80904 30.89770
#
# Velocity S-wave (km/s) = 4.05347 4.17485 4.11461
# Velocity P-wave (km/s) = 8.28217 8.74761 8.51807
#
# Compressibility (1/GPa) = 0.01173645
#
# Stress axis : x y z
#
# Youngs Moduli (GPa) = 76.76938 112.13218 56.52266
#
# Poissons Ratio (x) = 0.38629 0.29516
# Poissons Ratio (y) = 0.26447 0.29860
# Poissons Ratio (z) = 0.40089 0.59237
#
# Static dielectric constant tensor:
#      x y z
#    x 1.615250 0.000000 0.000000 
#    y 0.000000 1.626480 0.000000 
#    z 0.000000 0.000000 1.603850 
# 
# From -- ./inp_files/29821.got.cif
#   From: 2010.05.17/outbox.ucp.g08.bks.cvg/sg64_15_cif.got.tgz:29821.got - 2010.06.11 16:36:46.
