data_PCOD9482645
_publ_section_title
;
Structure prediction by ZEFSAII (Michael W. Deem and Ramdas Pophale) SiO2 
 PCOD9482645
Probable space group: C M M M
;
_chemical_formula_sum "Si O2"
_cell_formula_units_Z 72
_cell_length_a 17.011097
_cell_length_b 27.895320
_cell_length_c 11.775064
_cell_angle_alpha 90.000000
_cell_angle_beta 90.000000
_cell_angle_gamma 90.000000
_cell_volume 5587.621054
_symmetry_space_group_name_H-M "C M M M"
_symmetry_group_IT_number 65
_symmetry_cell_setting 'orthorhombic'
loop_
_space_group_symop_operation_xyz
x,y,z
-x,-y,z
x,-y,-z
-x,y,-z
-x,-y,-z
x,y,-z
-x,y,z
x,-y,z
1/2+x,1/2+y,z
1/2-x,1/2-y,z
1/2+x,1/2-y,-z
1/2-x,1/2+y,-z
1/2-x,1/2-y,-z
1/2+x,1/2+y,-z
1/2-x,1/2+y,z
1/2+x,1/2-y,z
loop_
_atom_site_type_symbol
_atom_site_label
_atom_site_fract_x
_atom_site_fract_y
_atom_site_fract_z
Si Si1 0.906094 0.647306 0.867897
Si Si2 0.298018 0.945172 0.500000
Si Si3 0.407019 0.271762 0.500000
Si Si4 0.773015 0.846496 0.500000
Si Si5 0.817128 0.712715 0.690991
Si Si6 0.591997 0.945318 0.279932
O O1 0.860645 0.685958 0.792154
O O2 0.890944 0.595002 0.813216
O O3 0.000000 0.655633 0.859623
O O4 0.884009 0.648820 0.000000
O O5 0.233280 0.903572 0.500000
O O6 0.353343 0.938920 0.610344
O O7 0.268464 0.000000 0.500000
O O8 0.500000 0.277680 0.500000
O O9 0.357967 0.321345 0.500000
O O10 0.377093 0.241675 0.609394
O O11 0.726317 0.825421 0.608721
O O12 0.750000 0.750000 0.729249
O O13 0.500000 0.940166 0.313263
O O14 0.602343 0.000000 0.238163
#
# Coordination Sequence:
#
# PCOD9482645 Si02
#       6
#    16   8   8   8  16  16
#     4  10  19  28  39  56  80 111 141 165 194 230
#     4  10  16  25  43  62  80 102 128 165 205 235
#     4   9  17  28  45  63  80 103 127 160 204 244
#     4   9  16  28  43  63  82  99 129 163 200 244
#     4   9  17  29  43  59  80 103 134 168 196 232
#     4   9  17  27  39  57  80 107 137 164 194 233
#
# _framework density 12.885626
#
# number of rings (size 3 to 8) (size 9 to 14) (size 15 to 20)
#    0.000    2.667    2.222    2.333    0.000    2.222 
#    0.000    2.222    0.000    0.333    0.000    0.000 
#    0.000    0.000    0.000    0.000    0.000   21.778 
#
# Total GULP energy -200482.580351 kJ/mol
# GULP energy per Si atom -5568.960565 kJ/mol
# Density = 1.285630 g / cm^3
# Si number density = 12.885626 Si / 1000 Ang^3
#
#
#
# Elastic Constant Matrix: (Units=GPa)
#
#
# Indices 1 2 3 4 5 6 
#
# 1 75.3548 54.7415 43.7207 0.0000 0.0000 0.0000
# 2 54.7415 115.4975 59.7155 0.0000 0.0000 0.0000
# 3 43.7207 59.7155 98.7614 0.0000 0.0000 0.0000
# 4 0.0000 0.0000 0.0000 15.9157 0.0000 0.0000
# 5 0.0000 0.0000 0.0000 0.0000 17.5148 0.0000
# 6 0.0000 0.0000 0.0000 0.0000 0.0000 22.5652
#
#
#
# Elastic Compliance Matrix: (Units=1/GPa)
#
#
# Indices 1 2 3 4 5 6 
#
# 1 0.021783 -0.007766 -0.004947 0.000000 0.000000 0.000000
# 2 -0.007766 0.015365 -0.005852 0.000000 0.000000 0.000000
# 3 -0.004947 -0.005852 0.015854 0.000000 0.000000 0.000000
# 4 0.000000 0.000000 0.000000 0.062831 0.000000 0.000000
# 5 0.000000 0.000000 0.000000 0.000000 0.057095 0.000000
# 6 0.000000 0.000000 0.000000 0.000000 0.000000 0.044316
#
#
# Mechanical properties :
#
#
# Convention : Reuss Voigt Hill
#
# Bulk Modulus (GPa) = 63.01113 67.32990 65.17052
# Shear Modulus (GPa) = 19.25559 19.96154 19.60857
#
# Velocity S-wave (km/s) = 3.86987 3.94017 3.90518
# Velocity P-wave (km/s) = 8.30508 8.54783 8.42733
#
# Compressibility (1/GPa) = 0.01587021
#
# Stress axis : x y z
#
# Youngs Moduli (GPa) = 45.90788 65.08314 63.07580
#
# Poissons Ratio (x) = 0.50546 0.31204
# Poissons Ratio (y) = 0.35654 0.36913
# Poissons Ratio (z) = 0.22711 0.38088
#
# Static dielectric constant tensor:
#      x y z
#    x 1.396210 0.000000 0.000000 
#    y 0.000000 1.429650 0.000000 
#    z 0.000000 0.000000 1.402540 
# 
# From -- ./inp_files/9548.got.cif
#   From: 2010.05.17/outbox.cif.g08.bks.cpg/sg65_5_cif.got.tgz:9548.got - 2010.06.03 17:01:31.
