data_PCOD9482948
_publ_section_title
;
Structure prediction by ZEFSAII (Michael W. Deem and Ramdas Pophale) SiO2 
 PCOD9482948
Probable space group: C M M M
;
_chemical_formula_sum "Si O2"
_cell_formula_units_Z 96
_cell_length_a 20.184913
_cell_length_b 24.891023
_cell_length_c 11.255592
_cell_angle_alpha 90.000000
_cell_angle_beta 90.000000
_cell_angle_gamma 90.000000
_cell_volume 5655.069805
_symmetry_space_group_name_H-M "C M M M"
_symmetry_group_IT_number 65
_symmetry_cell_setting 'orthorhombic'
loop_
_space_group_symop_operation_xyz
x,y,z
-x,-y,z
x,-y,-z
-x,y,-z
-x,-y,-z
x,y,-z
-x,y,z
x,-y,z
1/2+x,1/2+y,z
1/2-x,1/2-y,z
1/2+x,1/2-y,-z
1/2-x,1/2+y,-z
1/2-x,1/2-y,-z
1/2+x,1/2+y,-z
1/2-x,1/2+y,z
1/2+x,1/2-y,z
loop_
_atom_site_type_symbol
_atom_site_label
_atom_site_fract_x
_atom_site_fract_y
_atom_site_fract_z
Si Si1 0.573790 0.781722 0.739699
Si Si2 0.253192 0.607228 0.254175
Si Si3 0.579572 0.154487 0.500000
Si Si4 0.399840 0.000000 0.138514
Si Si5 0.307624 0.066406 0.500000
Si Si6 0.108925 0.613447 0.859007
Si Si7 0.237940 0.000000 0.136513
Si Si8 0.313456 0.289658 0.141300
O O1 0.500000 0.758839 0.724771
O O2 0.595570 0.808803 0.614930
O O3 0.571120 0.833728 0.824065
O O4 0.624923 0.741223 0.799705
O O5 0.232097 0.588690 0.385612
O O6 0.183524 0.618852 0.187951
O O7 0.284975 0.554316 0.196870
O O8 0.296852 0.658704 0.222422
O O9 0.500000 0.144100 0.500000
O O10 0.622656 0.099656 0.500000
O O11 0.419720 0.942769 0.191259
O O12 0.319171 0.000000 0.144056
O O13 0.420123 0.000000 0.000000
O O14 0.313248 0.000000 0.500000
O O15 0.111812 0.608024 0.000000
O O16 0.220564 0.000000 0.000000
O O17 0.250000 0.250000 0.145756
O O18 0.323852 0.302358 0.000000
#
# Coordination Sequence:
#
# PCOD9482948 Si02
#       8
#    16  16   8   8   8  16   8  16
#     4  11  23  38  55  77 110 151 194 237 281 333
#     4  11  20  33  52  83 109 143 184 227 285 338
#     4  10  22  40  55  71 107 161 206 233 271 328
#     4   7  14  24  42  67  92 132 174 214 264 315
#     4  12  22  36  57  83 116 149 190 245 281 319
#     4  10  17  30  50  73 104 141 182 231 281 328
#     4   9  16  29  49  74 108 139 171 221 283 341
#     4  11  21  35  57  84 112 143 185 236 291 349
#
# _framework density 16.975916999999999
#
# number of rings (size 3 to 8) (size 9 to 14) (size 15 to 20)
#    0.000    1.667    4.167    3.000    0.000    2.167 
#    0.000    2.083    0.000    1.500    0.000    0.583 
#    0.000    3.333    0.000    0.000    0.000    0.000 
#
# Total GULP energy -267491.108319 kJ/mol
# GULP energy per Si atom -5572.731423 kJ/mol
# Density = 1.693728 g / cm^3
# Si number density = 16.975917 Si / 1000 Ang^3
#
#
#
# Elastic Constant Matrix: (Units=GPa)
#
#
# Indices 1 2 3 4 5 6 
#
# 1 62.2863 54.9396 29.3411 0.0000 0.0000 0.0000
# 2 54.9396 135.1426 48.5765 0.0000 0.0000 0.0000
# 3 29.3411 48.5765 111.1168 0.0000 0.0000 0.0000
# 4 0.0000 0.0000 0.0000 17.0739 0.0000 0.0000
# 5 0.0000 0.0000 0.0000 0.0000 23.5279 0.0000
# 6 0.0000 0.0000 0.0000 0.0000 0.0000 3.0835
#
#
#
# Elastic Compliance Matrix: (Units=1/GPa)
#
#
# Indices 1 2 3 4 5 6 
#
# 1 0.025661 -0.009487 -0.002629 0.000000 0.000000 0.000000
# 2 -0.009487 0.012287 -0.002866 0.000000 0.000000 0.000000
# 3 -0.002629 -0.002866 0.010947 0.000000 0.000000 0.000000
# 4 0.000000 0.000000 0.000000 0.058569 0.000000 0.000000
# 5 0.000000 0.000000 0.000000 0.000000 0.042503 0.000000
# 6 0.000000 0.000000 0.000000 0.000000 0.000000 0.324303
#
#
# Mechanical properties :
#
#
# Convention : Reuss Voigt Hill
#
# Bulk Modulus (GPa) = 52.82419 63.80666 58.31543
# Shear Modulus (GPa) = 9.79348 20.44964 15.12156
#
# Velocity S-wave (km/s) = 2.40449 3.47454 2.98781
# Velocity P-wave (km/s) = 6.23646 7.33244 6.80655
#
# Compressibility (1/GPa) = 0.01893072
#
# Stress axis : x y z
#
# Youngs Moduli (GPa) = 38.96910 81.38884 91.35262
#
# Poissons Ratio (x) = 0.77216 0.24012
# Poissons Ratio (y) = 0.36971 0.26183
# Poissons Ratio (z) = 0.10243 0.23327
#
# Static dielectric constant tensor:
#      x y z
#    x 1.580390 0.000000 0.000000 
#    y 0.000000 1.620320 0.000000 
#    z 0.000000 0.000000 1.625390 
# 
# From -- ./inp_files/29301.got.cif
#   From: 2010.05.17/outbox.cif.g08.bks.cpg/sg65_15_cif.got.tgz:29301.got - 2010.06.03 17:01:31.
