data_PCOD9482167
_publ_section_title
;
Structure prediction by ZEFSAII (Michael W. Deem and Ramdas Pophale) SiO2 
 PCOD9482167
Probable space group: C M C A
;
_chemical_formula_sum "Si O2"
_cell_formula_units_Z 56
_cell_length_a 24.102818
_cell_length_b 11.330244
_cell_length_c 9.396670
_cell_angle_alpha 90.000000
_cell_angle_beta 90.000000
_cell_angle_gamma 90.000000
_cell_volume 2566.144212
_symmetry_space_group_name_H-M "C M C A"
_symmetry_group_IT_number 64
_symmetry_cell_setting 'orthorhombic'
loop_
_space_group_symop_operation_xyz
x,y,z
-x,1/2-y,1/2+z
x,-y,-z
-x,1/2+y,1/2-z
-x,-y,-z
x,1/2+y,1/2-z
-x,y,z
x,1/2-y,1/2+z
1/2+x,1/2+y,z
1/2-x,-y,1/2+z
1/2+x,1/2-y,-z
1/2-x,y,1/2-z
1/2-x,1/2-y,-z
1/2+x,y,1/2-z
1/2-x,1/2+y,z
1/2+x,-y,1/2+z
loop_
_atom_site_type_symbol
_atom_site_label
_atom_site_fract_x
_atom_site_fract_y
_atom_site_fract_z
Si Si1 0.211012 0.704395 0.626395
Si Si2 0.634026 0.000000 0.500000
Si Si3 0.063981 0.365366 0.017032
Si Si4 0.388464 0.681731 0.227774
O O1 0.250000 0.655233 0.750000
O O2 0.250000 0.750000 0.500000
O O3 0.171185 0.603587 0.566231
O O4 0.172194 0.804739 0.699808
O O5 0.603139 0.934177 0.630104
O O6 0.101392 0.292243 0.124815
O O7 0.000000 0.363019 0.063944
O O8 0.082685 0.500000 0.000000
O O9 0.069788 0.312558 0.859431
#
# Coordination Sequence:
#
# PCOD9482167 Si02
#       4
#    16   8  16  16
#     4  12  25  44  65  99 137 181 226 272 332 405
#     4  12  26  42  73  96 138 182 223 278 344 396
#     4  11  25  46  72 100 135 180 229 288 347 409
#     4  12  24  48  68 105 137 179 230 285 346 409
#
# _framework density 21.822626
#
# number of rings (size 3 to 8) (size 9 to 14) (size 15 to 20)
#    0.000    0.286    5.714    2.571    4.000    0.000 
#    2.571    1.429    0.000    0.000    0.000    0.000 
#    0.000    0.000    0.000    0.000    0.000    0.000 
#
# Total GULP energy -156588.297684 kJ/mol
# GULP energy per Si atom -5592.439203 kJ/mol
# Density = 2.177296 g / cm^3
# Si number density = 21.822626 Si / 1000 Ang^3
#
#
#
# Elastic Constant Matrix: (Units=GPa)
#
#
# Indices 1 2 3 4 5 6 
#
# 1 46.4033 17.3787 19.7849 0.0000 0.0000 0.0000
# 2 17.3787 85.1666 41.7370 0.0000 0.0000 0.0000
# 3 19.7849 41.7370 139.7263 0.0000 0.0000 0.0000
# 4 0.0000 0.0000 0.0000 44.2822 0.0000 0.0000
# 5 0.0000 0.0000 0.0000 0.0000 39.1706 0.0000
# 6 0.0000 0.0000 0.0000 0.0000 0.0000 27.3101
#
#
#
# Elastic Compliance Matrix: (Units=1/GPa)
#
#
# Indices 1 2 3 4 5 6 
#
# 1 0.023928 -0.003775 -0.002261 0.000000 0.000000 0.000000
# 2 -0.003775 0.014351 -0.003752 0.000000 0.000000 0.000000
# 3 -0.002261 -0.003752 0.008598 0.000000 0.000000 0.000000
# 4 0.000000 0.000000 0.000000 0.022582 0.000000 0.000000
# 5 0.000000 0.000000 0.000000 0.000000 0.025529 0.000000
# 6 0.000000 0.000000 0.000000 0.000000 0.000000 0.036617
#
#
# Mechanical properties :
#
#
# Convention : Reuss Voigt Hill
#
# Bulk Modulus (GPa) = 36.62835 47.67747 42.15291
# Shear Modulus (GPa) = 31.19543 34.97894 33.08719
#
# Velocity S-wave (km/s) = 3.78497 4.00794 3.89805
# Velocity P-wave (km/s) = 5.99353 6.58128 6.29427
#
# Compressibility (1/GPa) = 0.02730126
#
# Stress axis : x y z
#
# Youngs Moduli (GPa) = 41.79254 69.68281 116.30978
#
# Poissons Ratio (x) = 0.26304 0.26293
# Poissons Ratio (y) = 0.15776 0.43641
# Poissons Ratio (z) = 0.09447 0.26146
#
# Static dielectric constant tensor:
#      x y z
#    x 1.803330 0.000000 0.000000 
#    y 0.000000 1.787900 0.000000 
#    z 0.000000 0.000000 1.843210 
# 
# From -- ./inp_files/9888.got.cif
#   From: 2010.05.17/outbox.cif.g08.bks.cpg/sg64_5_cif.got.tgz:9888.got - 2010.06.03 16:29:19.
