data_PCOD9482977
_publ_section_title
;
Structure prediction by ZEFSAII (Michael W. Deem and Ramdas Pophale) SiO2 
 PCOD9482977
Probable space group: C M M M
;
_chemical_formula_sum "Si O2"
_cell_formula_units_Z 112
_cell_length_a 19.635981
_cell_length_b 20.210198
_cell_length_c 17.624412
_cell_angle_alpha 90.000000
_cell_angle_beta 90.000000
_cell_angle_gamma 90.000000
_cell_volume 6994.196156
_symmetry_space_group_name_H-M "C M M M"
_symmetry_group_IT_number 65
_symmetry_cell_setting 'orthorhombic'
loop_
_space_group_symop_operation_xyz
x,y,z
-x,-y,z
x,-y,-z
-x,y,-z
-x,-y,-z
x,y,-z
-x,y,z
x,-y,z
1/2+x,1/2+y,z
1/2-x,1/2-y,z
1/2+x,1/2-y,-z
1/2-x,1/2+y,-z
1/2-x,1/2-y,-z
1/2+x,1/2+y,-z
1/2-x,1/2+y,z
1/2+x,1/2-y,z
loop_
_atom_site_type_symbol
_atom_site_label
_atom_site_fract_x
_atom_site_fract_y
_atom_site_fract_z
Si Si1 0.422891 0.732814 0.709957
Si Si2 0.078842 0.651790 0.411565
Si Si3 0.216188 0.823829 0.750987
Si Si4 0.196260 0.190130 0.080632
Si Si5 0.077694 0.285442 0.880215
Si Si6 0.081662 0.426437 0.153690
Si Si7 0.326610 0.925074 0.694776
O O1 0.500000 0.704913 0.705930
O O2 0.413202 0.782741 0.640105
O O3 0.359265 0.683468 0.716152
O O4 0.419734 0.774358 0.788854
O O5 0.091552 0.664752 0.500000
O O6 0.129158 0.598029 0.376686
O O7 0.000000 0.630540 0.403001
O O8 0.250000 0.750000 0.749736
O O9 0.208972 0.845221 0.839375
O O10 0.265822 0.873881 0.709047
O O11 0.250000 0.250000 0.079206
O O12 0.124763 0.228757 0.086510
O O13 0.200968 0.153637 0.000000
O O14 0.100985 0.361022 0.893914
O O15 0.000000 0.278570 0.905021
O O16 0.093103 0.500000 0.120446
O O17 0.123310 0.423006 0.231994
O O18 0.000000 0.420363 0.167991
O O19 0.302082 0.000000 0.686637
#
# Coordination Sequence:
#
# PCOD9482977 Si02
#       7
#    16  16  16  16  16  16  16
#     4   9  16  29  48  68  91 122 164 203 240 285
#     4  10  19  31  48  72 103 135 163 194 238 289
#     4  10  17  31  51  69  91 124 161 202 244 287
#     4   9  17  27  42  64  87 111 145 192 244 285
#     4   9  15  25  42  62  86 116 151 192 234 280
#     4   9  15  23  38  59  84 119 161 194 222 269
#     4  11  20  30  45  68  97 130 167 203 237 282
#
# _framework density 16.013276000000001
#
# number of rings (size 3 to 8) (size 9 to 14) (size 15 to 20)
#    0.000    2.429    2.857    2.143    0.000    1.429 
#    0.000    2.143    0.000    1.286    0.000    8.000 
#    0.000    0.000    0.000   13.571    0.000    2.714 
#
# Total GULP energy -311887.428057 kJ/mol
# GULP energy per Si atom -5569.418358 kJ/mol
# Density = 1.597683 g / cm^3
# Si number density = 16.013276 Si / 1000 Ang^3
#
#
#
# Elastic Constant Matrix: (Units=GPa)
#
#
# Indices 1 2 3 4 5 6 
#
# 1 70.3989 28.5299 26.6181 0.0000 0.0000 0.0000
# 2 28.5299 46.0329 27.0583 0.0000 0.0000 0.0000
# 3 26.6181 27.0583 70.0460 0.0000 0.0000 0.0000
# 4 0.0000 0.0000 0.0000 0.8839 0.0000 0.0000
# 5 0.0000 0.0000 0.0000 0.0000 17.3273 0.0000
# 6 0.0000 0.0000 0.0000 0.0000 0.0000 17.6263
#
#
#
# Elastic Compliance Matrix: (Units=1/GPa)
#
#
# Indices 1 2 3 4 5 6 
#
# 1 0.019637 -0.010071 -0.003572 0.000000 0.000000 0.000000
# 2 -0.010071 0.033270 -0.009025 0.000000 0.000000 0.000000
# 3 -0.003572 -0.009025 0.019120 0.000000 0.000000 0.000000
# 4 0.000000 0.000000 0.000000 1.131338 0.000000 0.000000
# 5 0.000000 0.000000 0.000000 0.000000 0.057713 0.000000
# 6 0.000000 0.000000 0.000000 0.000000 0.000000 0.056733
#
#
# Mechanical properties :
#
#
# Convention : Reuss Voigt Hill
#
# Bulk Modulus (GPa) = 37.46511 38.98781 38.22646
# Shear Modulus (GPa) = 3.64420 14.11894 8.88157
#
# Velocity S-wave (km/s) = 1.51019 2.97257 2.35763
# Velocity P-wave (km/s) = 5.14665 6.01511 5.59775
#
# Compressibility (1/GPa) = 0.02669150
#
# Stress axis : x y z
#
# Youngs Moduli (GPa) = 50.92553 30.05711 52.30137
#
# Poissons Ratio (x) = 0.30269 0.18681
# Poissons Ratio (y) = 0.51285 0.47202
# Poissons Ratio (z) = 0.18190 0.27127
#
# Static dielectric constant tensor:
#      x y z
#    x 1.566260 0.000000 0.000000 
#    y 0.000000 1.528700 0.000000 
#    z 0.000000 0.000000 1.562480 
# 
# From -- ./inp_files/54863.got.cif
#   From: 2010.05.17/outbox.cif.g08.bks.cpg/sg65_28_cif.got.tgz:54863.got - 2010.06.03 17:01:31.
