data_PCOD9482252
_publ_section_title
;
Structure prediction by ZEFSAII (Michael W. Deem and Ramdas Pophale) SiO2 
 PCOD9482252
Probable space group: C M C A
;
_chemical_formula_sum "Si O2"
_cell_formula_units_Z 112
_cell_length_a 27.779912
_cell_length_b 14.150440
_cell_length_c 14.478756
_cell_angle_alpha 90.000000
_cell_angle_beta 90.000000
_cell_angle_gamma 90.000000
_cell_volume 5691.569707
_symmetry_space_group_name_H-M "C M C A"
_symmetry_group_IT_number 64
_symmetry_cell_setting 'orthorhombic'
loop_
_space_group_symop_operation_xyz
x,y,z
-x,1/2-y,1/2+z
x,-y,-z
-x,1/2+y,1/2-z
-x,-y,-z
x,1/2+y,1/2-z
-x,y,z
x,1/2-y,1/2+z
1/2+x,1/2+y,z
1/2-x,-y,1/2+z
1/2+x,1/2-y,-z
1/2-x,y,1/2-z
1/2-x,1/2-y,-z
1/2+x,y,1/2-z
1/2-x,1/2+y,z
1/2+x,-y,1/2+z
loop_
_atom_site_type_symbol
_atom_site_label
_atom_site_fract_x
_atom_site_fract_y
_atom_site_fract_z
Si Si1 0.815483 0.617438 0.894104
Si Si2 0.554810 0.970870 0.650463
Si Si3 0.945182 0.159336 0.975090
Si Si4 0.148773 0.226969 0.442625
Si Si5 0.297060 0.089662 0.565813
Si Si6 0.654709 0.490851 0.766760
Si Si7 0.192938 0.709779 0.260716
O O1 0.758647 0.604932 0.911048
O O2 0.832911 0.528881 0.834250
O O3 0.824804 0.709373 0.829825
O O4 0.840498 0.638881 0.991382
O O5 0.500000 0.962373 0.685591
O O6 0.563088 0.887460 0.575827
O O7 0.557997 0.069672 0.594122
O O8 0.598192 0.971804 0.721901
O O9 0.905587 0.236345 0.950467
O O10 0.000000 0.194798 0.971604
O O11 0.181570 0.315157 0.477408
O O12 0.166305 0.212644 0.338112
O O13 0.326917 0.067848 0.658927
O O14 0.303354 0.000000 0.500000
O O15 0.683247 0.396359 0.793705
O O16 0.250000 0.724565 0.250000
#
# Coordination Sequence:
#
# PCOD9482252 Si02
#       7
#    16  16  16  16  16  16  16
#     4  12  25  41  58  92 128 164 211 253 308 378
#     4   9  17  34  61  90 117 152 206 267 318 363
#     4   9  17  34  61  91 117 152 208 268 317 367
#     4  12  24  39  62  87 129 167 206 258 315 370
#     4  12  23  39  63  89 118 164 213 257 311 369
#     4  12  24  39  62  88 128 163 208 260 311 370
#     4  12  24  41  59  88 125 168 207 258 308 373
#
# _framework density 19.678227
#
# number of rings (size 3 to 8) (size 9 to 14) (size 15 to 20)
#    0.000    0.857    4.286    5.143    4.000    0.000 
#    0.000    1.429    0.000    5.143    0.000    2.000 
#    0.000    0.000    0.000    0.000    0.000    0.000 
#
# Total GULP energy -313089.730484 kJ/mol
# GULP energy per Si atom -5590.888044 kJ/mol
# Density = 1.963344 g / cm^3
# Si number density = 19.678227 Si / 1000 Ang^3
#
#
#
# Elastic Constant Matrix: (Units=GPa)
#
#
# Indices 1 2 3 4 5 6 
#
# 1 119.1495 -14.3240 19.4795 0.0000 0.0000 0.0000
# 2 -14.3240 27.1916 1.0583 0.0000 0.0000 0.0000
# 3 19.4795 1.0583 67.4563 0.0000 0.0000 0.0000
# 4 0.0000 0.0000 0.0000 37.0734 0.0000 0.0000
# 5 0.0000 0.0000 0.0000 0.0000 -5.0921 0.0000
# 6 0.0000 0.0000 0.0000 0.0000 0.0000 5.9113
#
#
#
# Elastic Compliance Matrix: (Units=1/GPa)
#
#
# Indices 1 2 3 4 5 6 
#
# 1 0.009465 0.005096 -0.002813 0.000000 0.000000 0.000000
# 2 0.005096 0.039542 -0.002092 0.000000 0.000000 0.000000
# 3 -0.002813 -0.002092 0.015670 0.000000 0.000000 0.000000
# 4 0.000000 0.000000 0.000000 0.026973 0.000000 0.000000
# 5 0.000000 0.000000 0.000000 0.000000 -0.196383 0.000000
# 6 0.000000 0.000000 0.000000 0.000000 0.000000 0.169168
#
#
# Mechanical properties :
#
#
# Convention : Reuss Voigt Hill
#
# Bulk Modulus (GPa) = 15.37095 25.13612 20.25353
# Shear Modulus (GPa) = 58.31594 21.41743 39.86668
#
# Velocity S-wave (km/s) = 5.44969 3.30264 4.50591
# Velocity P-wave (km/s) = 6.88672 5.22920 6.11439
#
# Compressibility (1/GPa) = 0.06505781
#
# Stress axis : x y z
#
# Youngs Moduli (GPa) = 105.64853 25.28969 63.81775
#
# Poissons Ratio (x) = -0.12887 0.17954
# Poissons Ratio (y) = -0.53835 0.13350
# Poissons Ratio (z) = 0.29722 0.05290
#
# Static dielectric constant tensor:
#      x y z
#    x 1.661170 0.000000 0.000000 
#    y 0.000000 1.697600 0.000000 
#    z 0.000000 0.000000 1.717350 
# 
# From -- ./inp_files/28110.got.cif
#   From: 2010.05.17/outbox.cif.g08.bks.cpg/sg64_15_cif.got.tgz:28110.got - 2010.06.03 16:29:19.
