data_PCOD9482452
_publ_section_title
;
Structure prediction by ZEFSAII (Michael W. Deem and Ramdas Pophale) SiO2 
 PCOD9482452
Probable space group: C M C A
;
_chemical_formula_sum "Si O2"
_cell_formula_units_Z 56
_cell_length_a 15.000000
_cell_length_b 30.000000
_cell_length_c 12.000000
_cell_angle_alpha 90.000000
_cell_angle_beta 90.000000
_cell_angle_gamma 90.000000
_cell_volume 5400.000000
_symmetry_space_group_name_H-M "C M C A"
_symmetry_group_IT_number 64
_symmetry_cell_setting 'orthorhombic'
loop_
_space_group_symop_operation_xyz
x,y,z
-x,1/2-y,1/2+z
x,-y,-z
-x,1/2+y,1/2-z
-x,-y,-z
x,1/2+y,1/2-z
-x,y,z
x,1/2-y,1/2+z
1/2+x,1/2+y,z
1/2-x,-y,1/2+z
1/2+x,1/2-y,-z
1/2-x,y,1/2-z
1/2-x,1/2-y,-z
1/2+x,y,1/2-z
1/2-x,1/2+y,z
1/2+x,-y,1/2+z
loop_
_atom_site_type_symbol
_atom_site_label
_atom_site_fract_x
_atom_site_fract_y
_atom_site_fract_z
Si Si1 0.895915 0.281374 0.550717
Si Si2 0.607753 0.167790 0.231896
Si Si3 0.103755 0.416590 0.653117
Si Si4 0.708990 0.007079 0.626208
Si Si5 0.398540 0.678334 0.521744
Si Si6 0.275456 0.825269 0.364963
Si Si7 0.602206 0.597088 0.901070
O O1 0.861612 0.302580 0.665497
O O2 0.898822 0.228564 0.566348
O O3 0.830441 0.294955 0.450870
O O4 0.000000 0.294938 0.526610
O O5 0.500000 0.167941 0.241698
O O6 0.636983 0.117311 0.253729
O O7 0.626184 0.182279 0.107999
O O8 0.158973 0.460885 0.645615
O O9 0.107870 0.391887 0.533439
O O10 0.000000 0.427451 0.672298
O O11 0.750000 0.016445 0.750000
O O12 0.641215 0.047849 0.608944
O O13 0.754040 0.000000 0.500000
O O14 0.500000 0.660082 0.532417
O O15 0.315131 0.655601 0.580613
O O16 0.250000 0.801816 0.250000
O O17 0.339361 0.866768 0.338419
O O18 0.500000 0.598579 0.866595
#
# Coordination Sequence:
#
# PCOD9482452 Si02
#       7
#    16  16  16  16  16  16  16
#     4  10  21  41  63  84 115 160 206 254 307 367
#     4   9  18  36  62  89 117 154 205 256 310 367
#     4   9  17  34  61  90 115 150 205 260 309 359
#     4  10  21  36  59  91 128 161 203 255 315 375
#     4  10  24  41  60  88 124 161 203 258 317 371
#     4  12  25  38  57  87 121 159 211 250 308 375
#     4  10  20  39  62  88 120 162 212 260 303 364
#
# _framework density 10.370369999999999
#
# number of rings (size 3 to 8) (size 9 to 14) (size 15 to 20)
#    0.000    2.000    1.429    1.714    2.000    5.714 
#    0.000    0.000    0.000    1.714    0.000    0.000 
#    0.000    0.000    0.000    0.000    0.000    0.000 
#
# Total GULP energy -312144.004034 kJ/mol
# GULP energy per Si atom -5574.000072 kJ/mol
# Density = 1.034677 g / cm^3
# Si number density = 10.370370 Si / 1000 Ang^3
#
#
#
# Elastic Constant Matrix: (Units=GPa)
#
#
# Indices 1 2 3 4 5 6 
#
# 1 93.7420 5.2981 47.6616 0.0000 0.0000 0.0000
# 2 5.2981 49.6090 5.1716 0.0000 0.0000 0.0000
# 3 47.6616 5.1716 94.9500 0.0000 0.0000 0.0000
# 4 0.0000 0.0000 0.0000 8.1754 0.0000 0.0000
# 5 0.0000 0.0000 0.0000 0.0000 16.5732 0.0000
# 6 0.0000 0.0000 0.0000 0.0000 0.0000 11.7922
#
#
#
# Elastic Compliance Matrix: (Units=1/GPa)
#
#
# Indices 1 2 3 4 5 6 
#
# 1 0.014353 -0.000786 -0.007162 0.000000 0.000000 0.000000
# 2 -0.000786 0.020316 -0.000712 0.000000 0.000000 0.000000
# 3 -0.007162 -0.000712 0.014166 0.000000 0.000000 0.000000
# 4 0.000000 0.000000 0.000000 0.122319 0.000000 0.000000
# 5 0.000000 0.000000 0.000000 0.000000 0.060338 0.000000
# 6 0.000000 0.000000 0.000000 0.000000 0.000000 0.084802
#
#
# Mechanical properties :
#
#
# Convention : Reuss Voigt Hill
#
# Bulk Modulus (GPa) = 31.73137 39.39597 35.56367
# Shear Modulus (GPa) = 14.52983 19.31944 16.92464
#
# Velocity S-wave (km/s) = 2.64965 3.05532 2.85969
# Velocity P-wave (km/s) = 4.96922 5.61091 5.29979
#
# Compressibility (1/GPa) = 0.03151456
#
# Stress axis : x y z
#
# Youngs Moduli (GPa) = 69.66943 49.22268 70.59269
#
# Poissons Ratio (x) = 0.03870 0.50559
# Poissons Ratio (y) = 0.05478 0.05025
# Poissons Ratio (z) = 0.49898 0.03504
#
# Static dielectric constant tensor:
#      x y z
#    x 1.778610 0.000000 0.000000 
#    y 0.000000 1.734530 0.000000 
#    z 0.000000 0.000000 1.790180 
# 
# From -- ./inp_files/14931.got.cif
#   From: 2010.05.17/outbox.ucp.g08.bks.cvg/sg64_8_cif.got.tgz:14931.got - 2010.06.11 16:36:46.
