data_PCOD9482893
_publ_section_title
;
Structure prediction by ZEFSAII (Michael W. Deem and Ramdas Pophale) SiO2 
 PCOD9482893
Probable space group: C M M M
;
_chemical_formula_sum "Si O2"
_cell_formula_units_Z 80
_cell_length_a 21.188181
_cell_length_b 15.463215
_cell_length_c 11.659156
_cell_angle_alpha 90.000000
_cell_angle_beta 90.000000
_cell_angle_gamma 90.000000
_cell_volume 3819.975538
_symmetry_space_group_name_H-M "C M M M"
_symmetry_group_IT_number 65
_symmetry_cell_setting 'orthorhombic'
loop_
_space_group_symop_operation_xyz
x,y,z
-x,-y,z
x,-y,-z
-x,y,-z
-x,-y,-z
x,y,-z
-x,y,z
x,-y,z
1/2+x,1/2+y,z
1/2-x,1/2-y,z
1/2+x,1/2-y,-z
1/2-x,1/2+y,-z
1/2-x,1/2-y,-z
1/2+x,1/2+y,-z
1/2-x,1/2+y,z
1/2+x,1/2-y,z
loop_
_atom_site_type_symbol
_atom_site_label
_atom_site_fract_x
_atom_site_fract_y
_atom_site_fract_z
Si Si1 0.500000 0.854902 0.367533
Si Si2 0.500000 0.357235 0.361913
Si Si3 0.659037 0.902958 0.000000
Si Si4 0.870139 0.852277 0.758244
Si Si5 0.748940 0.143990 0.368162
Si Si6 0.204617 0.160962 0.000000
Si Si7 0.125180 0.350861 0.246775
O O1 0.500000 0.880052 0.500000
O O2 0.500000 0.748783 0.364013
O O3 0.562226 0.886563 0.302703
O O4 0.500000 0.382061 0.500000
O O5 0.562036 0.385758 0.287768
O O6 0.631282 0.858622 0.888290
O O7 0.735398 0.902606 0.000000
O O8 0.636290 0.000000 0.000000
O O9 0.813810 0.890312 0.682635
O O10 0.874452 0.750934 0.727570
O O11 0.840718 0.851704 0.888483
O O12 0.741877 0.123203 0.500000
O O13 0.750000 0.250000 0.357632
O O14 0.688943 0.111269 0.298875
O O15 0.250000 0.250000 0.000000
#
# Coordination Sequence:
#
# PCOD9482893 Si02
#       7
#     8   8   8  16  16   8  16
#     4   9  18  31  51  76 107 143 180 222 268 314
#     4   9  18  29  43  81 124 141 162 216 274 318
#     4  12  24  37  54  77 106 139 181 235 277 312
#     4  10  17  28  51  75 110 143 171 210 263 320
#     4   9  15  24  45  74 100 133 174 214 260 313
#     4  12  18  35  55  79 105 136 182 226 269 320
#     4  10  18  32  49  74 105 141 177 219 266 313
#
# _framework density 20.942543000000001
#
# number of rings (size 3 to 8) (size 9 to 14) (size 15 to 20)
#    0.000    2.000    4.000    1.800    0.000    5.600 
#    0.000    4.000    0.000    3.000    0.000    1.400 
#    0.000    0.800    0.000    0.000    0.000    0.000 
#
# Total GULP energy -222783.682084 kJ/mol
# GULP energy per Si atom -5569.592052 kJ/mol
# Density = 2.089488 g / cm^3
# Si number density = 20.942543 Si / 1000 Ang^3
#
#
#
# Elastic Constant Matrix: (Units=GPa)
#
#
# Indices 1 2 3 4 5 6 
#
# 1 209.4403 -2.0255 120.0059 0.0000 0.0000 0.0000
# 2 -2.0255 31.9836 -11.3470 0.0000 0.0000 0.0000
# 3 120.0059 -11.3470 164.5407 0.0000 0.0000 0.0000
# 4 0.0000 0.0000 0.0000 -27.1464 0.0000 0.0000
# 5 0.0000 0.0000 0.0000 0.0000 452.5587 0.0000
# 6 0.0000 0.0000 0.0000 0.0000 0.0000 6.0410
#
#
#
# Elastic Compliance Matrix: (Units=1/GPa)
#
#
# Indices 1 2 3 4 5 6 
#
# 1 0.008288 -0.001660 -0.006159 0.000000 0.000000 0.000000
# 2 -0.001660 0.032383 0.003444 0.000000 0.000000 0.000000
# 3 -0.006159 0.003444 0.010807 0.000000 0.000000 0.000000
# 4 0.000000 0.000000 0.000000 -0.036837 0.000000 0.000000
# 5 0.000000 0.000000 0.000000 0.000000 0.002210 0.000000
# 6 0.000000 0.000000 0.000000 0.000000 0.000000 0.165536
#
#
# Mechanical properties :
#
#
# Convention : Reuss Voigt Hill
#
# Bulk Modulus (GPa) = 23.40438 68.80350 46.10394
# Shear Modulus (GPa) = 24.34529 106.24607 65.29568
#
# Velocity S-wave (km/s) = 3.41322 7.13038 5.58983
# Velocity P-wave (km/s) = 5.17041 10.03566 7.98272
#
# Compressibility (1/GPa) = 0.04272704
#
# Stress axis : x y z
#
# Youngs Moduli (GPa) = 120.66331 30.88066 92.53304
#
# Poissons Ratio (x) = 0.05127 0.56990
# Poissons Ratio (y) = 0.20032 -0.31868
# Poissons Ratio (z) = 0.74315 -0.10635
#
# Static dielectric constant tensor:
#      x y z
#    x 1.767460 0.000000 0.000000 
#    y 0.000000 1.796600 0.000000 
#    z 0.000000 0.000000 1.710420 
# 
# From -- ./inp_files/26734.got.cif
#   From: 2010.05.17/outbox.cif.g08.bks.cpg/sg65_14_cif.got.tgz:26734.got - 2010.06.03 17:01:31.
