data_PCOD9482365
_publ_section_title
;
Structure prediction by ZEFSAII (Michael W. Deem and Ramdas Pophale) SiO2 
 PCOD9482365
Probable space group: C M C A
;
_chemical_formula_sum "Si O2"
_cell_formula_units_Z 48
_cell_length_a 9.000000
_cell_length_b 27.000000
_cell_length_c 24.000000
_cell_angle_alpha 90.000000
_cell_angle_beta 90.000000
_cell_angle_gamma 90.000000
_cell_volume 5832.000000
_symmetry_space_group_name_H-M "C M C A"
_symmetry_group_IT_number 64
_symmetry_cell_setting 'orthorhombic'
loop_
_space_group_symop_operation_xyz
x,y,z
-x,1/2-y,1/2+z
x,-y,-z
-x,1/2+y,1/2-z
-x,-y,-z
x,1/2+y,1/2-z
-x,y,z
x,1/2-y,1/2+z
1/2+x,1/2+y,z
1/2-x,-y,1/2+z
1/2+x,1/2-y,-z
1/2-x,y,1/2-z
1/2-x,1/2-y,-z
1/2+x,y,1/2-z
1/2-x,1/2+y,z
1/2+x,-y,1/2+z
loop_
_atom_site_type_symbol
_atom_site_label
_atom_site_fract_x
_atom_site_fract_y
_atom_site_fract_z
Si Si1 0.323606 0.566158 0.968140
Si Si2 0.676637 0.190540 0.306881
Si Si3 0.676646 0.025051 0.079368
Si Si4 0.172732 0.273608 0.913629
Si Si5 0.672939 0.823577 0.487676
Si Si6 0.322250 0.582414 0.306838
O O1 0.500000 0.556255 0.965539
O O2 0.236162 0.530750 0.926201
O O3 0.297446 0.624036 0.959557
O O4 0.262944 0.553215 0.029856
O O5 0.500000 0.187187 0.301704
O O6 0.750000 0.209803 0.250000
O O7 0.726421 0.222219 0.359610
O O8 0.746941 0.135935 0.315643
O O9 0.500000 0.027093 0.068653
O O10 0.705686 0.049110 0.139126
O O11 0.191643 0.221379 0.944858
O O12 0.000000 0.280762 0.899199
O O13 0.224509 0.313979 0.959033
O O14 0.500000 0.823253 0.506355
O O15 0.500000 0.588349 0.300082
O O16 0.250000 0.562089 0.250000
#
# Coordination Sequence:
#
# PCOD9482365 Si02
#       6
#    16  16  16  16  16  16
#     4  10  19  31  49  71  95 126 160 194 234 278
#     4  11  21  33  50  72  98 127 160 196 237 284
#     4  10  20  32  47  70  98 126 157 194 236 281
#     4  10  19  32  50  72  99 128 159 196 238 283
#     4   9  19  33  49  72  99 127 160 196 236 283
#     4  10  20  33  50  72  97 126 158 194 237 282
#
# _framework density 8.2304530000000007
#
# number of rings (size 3 to 8) (size 9 to 14) (size 15 to 20)
#    0.000    2.000    0.000    6.500    0.000    7.333 
#    0.000    0.000    0.000    1.000    0.000    2.333 
#    0.000    0.000    0.000    0.000    0.000    0.000 
#
# Total GULP energy -267824.262757 kJ/mol
# GULP energy per Si atom -5579.672141 kJ/mol
# Density = 0.821172 g / cm^3
# Si number density = 8.230453 Si / 1000 Ang^3
#
#
#
# Elastic Constant Matrix: (Units=GPa)
#
#
# Indices 1 2 3 4 5 6 
#
# 1 88.5356 13.2132 37.9830 0.0000 0.0000 0.0000
# 2 13.2132 34.1601 -2.5157 0.0000 0.0000 0.0000
# 3 37.9830 -2.5157 54.7200 0.0000 0.0000 0.0000
# 4 0.0000 0.0000 0.0000 11.9308 0.0000 0.0000
# 5 0.0000 0.0000 0.0000 0.0000 30.6737 0.0000
# 6 0.0000 0.0000 0.0000 0.0000 0.0000 21.4700
#
#
#
# Elastic Compliance Matrix: (Units=1/GPa)
#
#
# Indices 1 2 3 4 5 6 
#
# 1 0.017987 -0.007903 -0.012848 0.000000 0.000000 0.000000
# 2 -0.007903 0.032846 0.006996 0.000000 0.000000 0.000000
# 3 -0.012848 0.006996 0.027515 0.000000 0.000000 0.000000
# 4 0.000000 0.000000 0.000000 0.083816 0.000000 0.000000
# 5 0.000000 0.000000 0.000000 0.000000 0.032601 0.000000
# 6 0.000000 0.000000 0.000000 0.000000 0.000000 0.046577
#
#
# Mechanical properties :
#
#
# Convention : Reuss Voigt Hill
#
# Bulk Modulus (GPa) = 19.67100 30.53074 25.10087
# Shear Modulus (GPa) = 17.49482 21.39725 19.44603
#
# Velocity S-wave (km/s) = 3.26361 3.60930 3.44080
# Velocity P-wave (km/s) = 5.11641 5.99642 5.57381
#
# Compressibility (1/GPa) = 0.05083625
#
# Stress axis : x y z
#
# Youngs Moduli (GPa) = 55.59702 30.44491 36.34379
#
# Poissons Ratio (x) = 0.24062 0.46696
# Poissons Ratio (y) = 0.43941 -0.25427
# Poissons Ratio (z) = 0.71433 -0.21300
#
# Static dielectric constant tensor:
#      x y z
#    x 1.552510 0.000000 0.000000 
#    y 0.000000 1.565040 0.000000 
#    z 0.000000 0.000000 1.544130 
# 
# From -- ./inp_files/43213.got.cif
#   From: 2010.05.17/outbox.ucp.g08.bks.cvg/sg64_22_cif.got.tgz:43213.got - 2010.06.11 16:36:46.
