data_PCOD9482015
_publ_section_title
;
Structure prediction by ZEFSAII (Michael W. Deem and Ramdas Pophale) SiO2 
 PCOD9482015
Probable space group: C M C A
;
_chemical_formula_sum "Si O2"
_cell_formula_units_Z 80
_cell_length_a 16.771343
_cell_length_b 9.273800
_cell_length_c 26.035309
_cell_angle_alpha 90.000000
_cell_angle_beta 90.000000
_cell_angle_gamma 90.000000
_cell_volume 4049.377851
_symmetry_space_group_name_H-M "C M C A"
_symmetry_group_IT_number 64
_symmetry_cell_setting 'orthorhombic'
loop_
_space_group_symop_operation_xyz
x,y,z
-x,1/2-y,1/2+z
x,-y,-z
-x,1/2+y,1/2-z
-x,-y,-z
x,1/2+y,1/2-z
-x,y,z
x,1/2-y,1/2+z
1/2+x,1/2+y,z
1/2-x,-y,1/2+z
1/2+x,1/2-y,-z
1/2-x,y,1/2-z
1/2-x,1/2-y,-z
1/2+x,y,1/2-z
1/2-x,1/2+y,z
1/2+x,-y,1/2+z
loop_
_atom_site_type_symbol
_atom_site_label
_atom_site_fract_x
_atom_site_fract_y
_atom_site_fract_z
Si Si1 0.798783 0.053593 0.364798
Si Si2 0.300024 0.138289 0.466027
Si Si3 0.140336 0.564357 0.301123
Si Si4 0.093089 0.262703 0.799166
Si Si5 0.590686 0.218209 0.887642
O O1 0.754549 0.087043 0.418115
O O2 0.730290 0.042305 0.321539
O O3 0.857871 0.181569 0.348255
O O4 0.850080 0.908503 0.369650
O O5 0.250000 0.250000 0.500000
O O6 0.375269 0.217957 0.440630
O O7 0.321650 0.000000 0.500000
O O8 0.130862 0.656516 0.249694
O O9 0.102859 0.407784 0.293207
O O10 0.096883 0.654834 0.345737
O O11 0.000000 0.300701 0.802660
O O12 0.500000 0.167312 0.891594
#
# Coordination Sequence:
#
# PCOD9482015 Si02
#       5
#    16  16  16  16  16
#     4  11  24  42  67  91 125 168 216 257 316 389
#     4  11  23  44  68  92 127 170 215 264 320 387
#     4  11  24  42  63  91 129 173 210 253 316 387
#     4  12  24  40  62  93 129 164 206 262 315 370
#     4  11  23  42  67  98 129 165 214 272 323 375
#
# _framework density 19.756121
#
# number of rings (size 3 to 8) (size 9 to 14) (size 15 to 20)
#    0.000    0.800    2.000    6.600    2.800    2.000 
#    0.000    3.000    0.000    0.000    0.000    0.000 
#    0.000    0.000    0.000    0.000    0.000    0.000 
#
# Total GULP energy -223811.785812 kJ/mol
# GULP energy per Si atom -5595.294645 kJ/mol
# Density = 1.971116 g / cm^3
# Si number density = 19.756121 Si / 1000 Ang^3
#
#
#
# Elastic Constant Matrix: (Units=GPa)
#
#
# Indices 1 2 3 4 5 6 
#
# 1 148.5145 20.4246 32.2972 0.0000 0.0000 0.0000
# 2 20.4246 83.8663 4.8330 0.0000 0.0000 0.0000
# 3 32.2972 4.8330 61.3163 0.0000 0.0000 0.0000
# 4 0.0000 0.0000 0.0000 42.9573 0.0000 0.0000
# 5 0.0000 0.0000 0.0000 0.0000 16.1454 0.0000
# 6 0.0000 0.0000 0.0000 0.0000 0.0000 24.4571
#
#
#
# Elastic Compliance Matrix: (Units=1/GPa)
#
#
# Indices 1 2 3 4 5 6 
#
# 1 0.007832 -0.001677 -0.003993 0.000000 0.000000 0.000000
# 2 -0.001677 0.012337 -0.000089 0.000000 0.000000 0.000000
# 3 -0.003993 -0.000089 0.018419 0.000000 0.000000 0.000000
# 4 0.000000 0.000000 0.000000 0.023279 0.000000 0.000000
# 5 0.000000 0.000000 0.000000 0.000000 0.061937 0.000000
# 6 0.000000 0.000000 0.000000 0.000000 0.000000 0.040888
#
#
# Mechanical properties :
#
#
# Convention : Reuss Voigt Hill
#
# Bulk Modulus (GPa) = 36.94153 45.42297 41.18225
# Shear Modulus (GPa) = 26.99265 32.45479 29.72372
#
# Velocity S-wave (km/s) = 3.70035 4.05751 3.88304
# Velocity P-wave (km/s) = 6.08245 6.70768 6.40270
#
# Compressibility (1/GPa) = 0.02706981
#
# Stress axis : x y z
#
# Youngs Moduli (GPa) = 127.67374 81.05456 54.29080
#
# Poissons Ratio (x) = 0.13596 0.21680
# Poissons Ratio (y) = 0.21416 0.00483
# Poissons Ratio (z) = 0.50985 0.00721
#
# Static dielectric constant tensor:
#      x y z
#    x 1.655000 0.000000 0.000000 
#    y 0.000000 1.676270 0.000000 
#    z 0.000000 0.000000 1.685140 
# 
# From -- ./inp_files/50285.got.cif
#   From: 2010.05.17/outbox.cif.g08.bks.cpg/sg64_26_cif.got.tgz:50285.got - 2010.06.03 16:29:19.
