data_PCOD9482794
_publ_section_title
;
Structure prediction by ZEFSAII (Michael W. Deem and Ramdas Pophale) SiO2 
 PCOD9482794
Probable space group: C M M M
;
_chemical_formula_sum "Si O2"
_cell_formula_units_Z 96
_cell_length_a 11.876427
_cell_length_b 26.040266
_cell_length_c 22.436150
_cell_angle_alpha 90.000000
_cell_angle_beta 90.000000
_cell_angle_gamma 90.000000
_cell_volume 6938.723069
_symmetry_space_group_name_H-M "C M M M"
_symmetry_group_IT_number 65
_symmetry_cell_setting 'orthorhombic'
loop_
_space_group_symop_operation_xyz
x,y,z
-x,-y,z
x,-y,-z
-x,y,-z
-x,-y,-z
x,y,-z
-x,y,z
x,-y,z
1/2+x,1/2+y,z
1/2-x,1/2-y,z
1/2+x,1/2-y,-z
1/2-x,1/2+y,-z
1/2-x,1/2-y,-z
1/2+x,1/2+y,-z
1/2-x,1/2+y,z
1/2+x,1/2-y,z
loop_
_atom_site_type_symbol
_atom_site_label
_atom_site_fract_x
_atom_site_fract_y
_atom_site_fract_z
Si Si1 0.241640 0.690431 0.569422
Si Si2 0.634747 0.602076 0.641157
Si Si3 0.636982 0.500000 0.431438
Si Si4 0.500000 0.941757 0.672258
Si Si5 0.500000 0.139061 0.566746
Si Si6 0.730544 0.939382 0.253650
Si Si7 0.863075 0.440663 0.000000
Si Si8 0.131082 0.562723 0.130213
O O1 0.278639 0.685529 0.500000
O O2 0.250000 0.750000 0.586441
O O3 0.313086 0.652079 0.610272
O O4 0.112142 0.672820 0.572462
O O5 0.500000 0.604342 0.640284
O O6 0.672110 0.551538 0.603133
O O7 0.681416 0.592405 0.707379
O O8 0.500000 0.500000 0.431898
O O9 0.675342 0.500000 0.500000
O O10 0.500000 0.903055 0.617847
O O11 0.389362 0.935214 0.712668
O O12 0.500000 0.000000 0.649570
O O13 0.500000 0.116187 0.500000
O O14 0.707975 0.922312 0.185889
O O15 0.762234 0.000000 0.253733
O O16 0.831117 0.418696 0.935400
O O17 0.825089 0.500000 0.000000
O O18 0.000000 0.441445 0.000000
O O19 0.130737 0.500000 0.128969
O O20 0.000000 0.577577 0.139888
#
# Coordination Sequence:
#
# PCOD9482794 Si02
#       8
#    16  16   8   8   8  16   8  16
#     4  10  22  37  52  67  84 109 143 184 226 270
#     4  11  21  32  47  66  87 114 148 184 223 263
#     4   9  18  32  46  61  83 108 139 181 224 265
#     4  10  18  29  44  63  88 116 144 174 218 272
#     4  10  20  35  50  66  85 108 144 182 220 266
#     4  10  17  27  42  61  87 118 147 177 216 264
#     4   7  10  16  28  50  81 109 144 183 211 241
#     4   8  12  19  33  55  81 114 147 179 214 252
#
# _framework density 13.835399000000001
#
# number of rings (size 3 to 8) (size 9 to 14) (size 15 to 20)
#    0.000    2.500    3.333    1.500    1.167    1.167 
#    0.000    0.000    0.000    0.000    0.000    0.583 
#    0.000    3.333    0.000    0.750    0.000    4.583 
#
# Total GULP energy -267327.669860 kJ/mol
# GULP energy per Si atom -5569.326455 kJ/mol
# Density = 1.380391 g / cm^3
# Si number density = 13.835399 Si / 1000 Ang^3
#
#
#
# Elastic Constant Matrix: (Units=GPa)
#
#
# Indices 1 2 3 4 5 6 
#
# 1 48.9977 23.4422 33.0136 0.0000 0.0000 0.0000
# 2 23.4422 65.1816 51.3515 0.0000 0.0000 0.0000
# 3 33.0136 51.3515 129.8333 0.0000 0.0000 0.0000
# 4 0.0000 0.0000 0.0000 8.4676 0.0000 0.0000
# 5 0.0000 0.0000 0.0000 0.0000 13.1509 0.0000
# 6 0.0000 0.0000 0.0000 0.0000 0.0000 4.2001
#
#
#
# Elastic Compliance Matrix: (Units=1/GPa)
#
#
# Indices 1 2 3 4 5 6 
#
# 1 0.026178 -0.006059 -0.004260 0.000000 0.000000 0.000000
# 2 -0.006059 0.023688 -0.007829 0.000000 0.000000 0.000000
# 3 -0.004260 -0.007829 0.011882 0.000000 0.000000 0.000000
# 4 0.000000 0.000000 0.000000 0.118097 0.000000 0.000000
# 5 0.000000 0.000000 0.000000 0.000000 0.076040 0.000000
# 6 0.000000 0.000000 0.000000 0.000000 0.000000 0.238088
#
#
# Mechanical properties :
#
#
# Convention : Reuss Voigt Hill
#
# Bulk Modulus (GPa) = 39.28732 51.06967 45.17849
# Shear Modulus (GPa) = 9.28069 14.24408 11.76238
#
# Velocity S-wave (km/s) = 2.59278 3.21212 2.91892
# Velocity P-wave (km/s) = 6.11729 7.12386 6.63968
#
# Compressibility (1/GPa) = 0.02545351
#
# Stress axis : x y z
#
# Youngs Moduli (GPa) = 38.19968 42.21505 84.16218
#
# Poissons Ratio (x) = 0.25576 0.35855
# Poissons Ratio (y) = 0.23143 0.65887
# Poissons Ratio (z) = 0.16274 0.33048
#
# Static dielectric constant tensor:
#      x y z
#    x 1.458480 0.000000 0.000000 
#    y 0.000000 1.430060 0.000000 
#    z 0.000000 0.000000 1.481630 
# 
# From -- ./inp_files/61676.got.cif
#   From: 2010.05.17/outbox.cif.g08.bks.cpg/sg65_31_cif.got.tgz:61676.got - 2010.06.03 17:01:31.
