data_PCOD9482934
_publ_section_title
;
Structure prediction by ZEFSAII (Michael W. Deem and Ramdas Pophale) SiO2 
 PCOD9482934
Probable space group: C M M M
;
_chemical_formula_sum "Si O2"
_cell_formula_units_Z 72
_cell_length_a 9.784569
_cell_length_b 29.360692
_cell_length_c 13.657549
_cell_angle_alpha 90.000000
_cell_angle_beta 90.000000
_cell_angle_gamma 90.000000
_cell_volume 3923.564123
_symmetry_space_group_name_H-M "C M M M"
_symmetry_group_IT_number 65
_symmetry_cell_setting 'orthorhombic'
loop_
_space_group_symop_operation_xyz
x,y,z
-x,-y,z
x,-y,-z
-x,y,-z
-x,-y,-z
x,y,-z
-x,y,z
x,-y,z
1/2+x,1/2+y,z
1/2-x,1/2-y,z
1/2+x,1/2-y,-z
1/2-x,1/2+y,-z
1/2-x,1/2-y,-z
1/2+x,1/2+y,-z
1/2-x,1/2+y,z
1/2+x,1/2-y,z
loop_
_atom_site_type_symbol
_atom_site_label
_atom_site_fract_x
_atom_site_fract_y
_atom_site_fract_z
Si Si1 0.661106 0.641004 0.807671
Si Si2 0.665055 0.597010 0.500000
Si Si3 0.660756 0.703197 0.000000
Si Si4 0.851770 0.683585 0.500000
Si Si5 0.835317 0.948980 0.706895
Si Si6 0.845862 0.289331 0.286088
O O1 0.500000 0.647557 0.781101
O O2 0.690608 0.587366 0.793948
O O3 0.766868 0.664421 0.734680
O O4 0.683136 0.669170 0.907605
O O5 0.500000 0.600919 0.500000
O O6 0.732779 0.646640 0.500000
O O7 0.705963 0.570967 0.600301
O O8 0.750000 0.750000 0.000000
O O9 0.500000 0.716300 0.000000
O O10 0.851214 0.713640 0.597070
O O11 0.000000 0.658800 0.500000
O O12 0.000000 0.952063 0.701678
O O13 0.781231 0.000000 0.722433
O O14 0.750000 0.250000 0.244360
O O15 0.000000 0.287551 0.247131
#
# Coordination Sequence:
#
# PCOD9482934 Si02
#       6
#    16   8   8   8  16  16
#     4  10  20  36  56  79 107 138 177 224 269 318
#     4  10  17  29  53  79 105 143 184 218 256 309
#     4  10  22  38  57  81 107 137 176 222 275 328
#     4  10  21  34  48  72 108 141 174 216 264 315
#     4   9  17  30  52  82 111 140 177 220 264 312
#     4  11  22  35  52  75 105 141 178 218 265 320
#
# _framework density 18.350662
#
# number of rings (size 3 to 8) (size 9 to 14) (size 15 to 20)
#    0.000    2.000    2.222    2.000    0.000    4.889 
#    0.000    0.556    0.000    6.667    0.000    0.000 
#    0.000    2.667    0.000    0.000    0.000    0.000 
#
# Total GULP energy -200411.169681 kJ/mol
# GULP energy per Si atom -5566.976936 kJ/mol
# Density = 1.830890 g / cm^3
# Si number density = 18.350662 Si / 1000 Ang^3
#
#
#
# Elastic Constant Matrix: (Units=GPa)
#
#
# Indices 1 2 3 4 5 6 
#
# 1 72.4429 47.3156 26.2046 0.0000 0.0000 0.0000
# 2 47.3156 128.9957 27.2203 0.0000 0.0000 0.0000
# 3 26.2046 27.2203 72.8208 0.0000 0.0000 0.0000
# 4 0.0000 0.0000 0.0000 16.8754 0.0000 0.0000
# 5 0.0000 0.0000 0.0000 0.0000 10.6494 0.0000
# 6 0.0000 0.0000 0.0000 0.0000 0.0000 16.4469
#
#
#
# Elastic Compliance Matrix: (Units=1/GPa)
#
#
# Indices 1 2 3 4 5 6 
#
# 1 0.019545 -0.006172 -0.004726 0.000000 0.000000 0.000000
# 2 -0.006172 0.010365 -0.001654 0.000000 0.000000 0.000000
# 3 -0.004726 -0.001654 0.016051 0.000000 0.000000 0.000000
# 4 0.000000 0.000000 0.000000 0.059258 0.000000 0.000000
# 5 0.000000 0.000000 0.000000 0.000000 0.093902 0.000000
# 6 0.000000 0.000000 0.000000 0.000000 0.000000 0.060802
#
#
# Mechanical properties :
#
#
# Convention : Reuss Voigt Hill
#
# Bulk Modulus (GPa) = 47.94341 52.86005 50.40173
# Shear Modulus (GPa) = 17.12463 20.36227 18.74345
#
# Velocity S-wave (km/s) = 3.05813 3.33471 3.19941
# Velocity P-wave (km/s) = 6.21711 6.61023 6.41668
#
# Compressibility (1/GPa) = 0.02085792
#
# Stress axis : x y z
#
# Youngs Moduli (GPa) = 51.16527 96.47985 62.30086
#
# Poissons Ratio (x) = 0.59544 0.29444
# Poissons Ratio (y) = 0.31577 0.10302
# Poissons Ratio (z) = 0.24182 0.15953
#
# Static dielectric constant tensor:
#      x y z
#    x 1.645140 0.000000 0.000000 
#    y 0.000000 1.651230 0.000000 
#    z 0.000000 0.000000 1.699870 
# 
# From -- ./inp_files/36622.got.cif
#   From: 2010.05.17/outbox.cif.g08.bks.cpg/sg65_19_cif.got.tgz:36622.got - 2010.06.03 17:01:31.
