data_PCOD9482445
_publ_section_title
;
Structure prediction by ZEFSAII (Michael W. Deem and Ramdas Pophale) SiO2 
 PCOD9482445
Probable space group: C M C A
;
_chemical_formula_sum "Si O2"
_cell_formula_units_Z 48
_cell_length_a 21.000000
_cell_length_b 27.000000
_cell_length_c 9.000000
_cell_angle_alpha 90.000000
_cell_angle_beta 90.000000
_cell_angle_gamma 90.000000
_cell_volume 5103.000000
_symmetry_space_group_name_H-M "C M C A"
_symmetry_group_IT_number 64
_symmetry_cell_setting 'orthorhombic'
loop_
_space_group_symop_operation_xyz
x,y,z
-x,1/2-y,1/2+z
x,-y,-z
-x,1/2+y,1/2-z
-x,-y,-z
x,1/2+y,1/2-z
-x,y,z
x,1/2-y,1/2+z
1/2+x,1/2+y,z
1/2-x,-y,1/2+z
1/2+x,1/2-y,-z
1/2-x,y,1/2-z
1/2-x,1/2-y,-z
1/2+x,y,1/2-z
1/2-x,1/2+y,z
1/2+x,-y,1/2+z
loop_
_atom_site_type_symbol
_atom_site_label
_atom_site_fract_x
_atom_site_fract_y
_atom_site_fract_z
Si Si1 0.144751 0.741403 0.993079
Si Si2 0.343793 0.397501 0.120967
Si Si3 0.925781 0.454637 0.617027
Si Si4 0.318488 0.502583 0.683402
Si Si5 0.261385 0.170870 0.417177
Si Si6 0.924748 0.307366 0.263999
O O1 0.197908 0.700540 0.034917
O O2 0.108524 0.768031 0.126547
O O3 0.183885 0.786268 0.913421
O O4 0.091778 0.714537 0.895742
O O5 0.326928 0.443452 0.231591
O O6 0.385871 0.357995 0.210843
O O7 0.388093 0.414349 0.981626
O O8 0.284203 0.369374 0.040461
O O9 0.929235 0.500000 0.500000
O O10 0.878852 0.471158 0.751942
O O11 0.000000 0.442490 0.656982
O O12 0.317004 0.500000 0.500000
O O13 0.250000 0.484498 0.750000
O O14 0.250000 0.150918 0.250000
O O15 0.000000 0.313228 0.289414
#
# Coordination Sequence:
#
# PCOD9482445 Si02
#       6
#    16  16  16  16  16  16
#     4  10  21  37  60  88 118 171 206 254 320 363
#     4  10  23  37  65  93 120 169 207 269 319 380
#     4   9  19  41  66  90 124 164 206 254 325 399
#     4  11  24  43  66  94 127 165 212 265 330 393
#     4  10  20  37  62  90 126 156 213 263 312 374
#     4  11  22  39  60  87 127 167 213 255 301 375
#
# _framework density 9.4062319999999993
#
# number of rings (size 3 to 8) (size 9 to 14) (size 15 to 20)
#    0.000    1.833    1.667    2.500    2.333    3.000 
#    0.000    0.000    0.000    0.000    0.000    0.000 
#    0.000    0.000    0.000    0.000    0.000    0.000 
#
# Total GULP energy -267721.032493 kJ/mol
# GULP energy per Si atom -5577.521510 kJ/mol
# Density = 0.938482 g / cm^3
# Si number density = 9.406232 Si / 1000 Ang^3
#
#
#
# Elastic Constant Matrix: (Units=GPa)
#
#
# Indices 1 2 3 4 5 6 
#
# 1 120.3849 17.3266 31.0069 0.0000 0.0000 0.0000
# 2 17.3266 71.0957 23.7825 0.0000 0.0000 0.0000
# 3 31.0069 23.7825 100.6615 0.0000 0.0000 0.0000
# 4 0.0000 0.0000 0.0000 27.6820 0.0000 0.0000
# 5 0.0000 0.0000 0.0000 0.0000 35.2113 0.0000
# 6 0.0000 0.0000 0.0000 0.0000 0.0000 25.9652
#
#
#
# Elastic Compliance Matrix: (Units=1/GPa)
#
#
# Indices 1 2 3 4 5 6 
#
# 1 0.009149 -0.001397 -0.002488 0.000000 0.000000 0.000000
# 2 -0.001397 0.015486 -0.003228 0.000000 0.000000 0.000000
# 3 -0.002488 -0.003228 0.011463 0.000000 0.000000 0.000000
# 4 0.000000 0.000000 0.000000 0.036125 0.000000 0.000000
# 5 0.000000 0.000000 0.000000 0.000000 0.028400 0.000000
# 6 0.000000 0.000000 0.000000 0.000000 0.000000 0.038513
#
#
# Mechanical properties :
#
#
# Convention : Reuss Voigt Hill
#
# Bulk Modulus (GPa) = 45.72305 48.48600 47.10452
# Shear Modulus (GPa) = 31.12300 32.44014 31.78157
#
# Velocity S-wave (km/s) = 4.07182 4.15709 4.11468
# Velocity P-wave (km/s) = 6.81643 6.99079 6.90416
#
# Compressibility (1/GPa) = 0.02187081
#
# Stress axis : x y z
#
# Youngs Moduli (GPa) = 109.30635 64.57446 87.23440
#
# Poissons Ratio (x) = 0.09023 0.21703
# Poissons Ratio (y) = 0.15274 0.28162
# Poissons Ratio (z) = 0.27194 0.20847
#
# Static dielectric constant tensor:
#      x y z
#    x 1.644890 0.000000 0.000000 
#    y 0.000000 1.677370 0.000000 
#    z 0.000000 0.000000 1.663830 
# 
# From -- ./inp_files/8414.got.cif
#   From: 2010.05.17/outbox.ucp.g08.bks.cvg/sg64_5_cif.got.tgz:8414.got - 2010.06.11 16:36:46.
