data_PCOD9482592
_publ_section_title
;
Structure prediction by ZEFSAII (Michael W. Deem and Ramdas Pophale) SiO2 
 PCOD9482592
Probable space group: C M M M
;
_chemical_formula_sum "Si O2"
_cell_formula_units_Z 72
_cell_length_a 19.050123
_cell_length_b 8.780063
_cell_length_c 23.964094
_cell_angle_alpha 90.000000
_cell_angle_beta 90.000000
_cell_angle_gamma 90.000000
_cell_volume 4008.265039
_symmetry_space_group_name_H-M "C M M M"
_symmetry_group_IT_number 65
_symmetry_cell_setting 'orthorhombic'
loop_
_space_group_symop_operation_xyz
x,y,z
-x,-y,z
x,-y,-z
-x,y,-z
-x,-y,-z
x,y,-z
-x,y,z
x,-y,z
1/2+x,1/2+y,z
1/2-x,1/2-y,z
1/2+x,1/2-y,-z
1/2-x,1/2+y,-z
1/2-x,1/2-y,-z
1/2+x,1/2+y,-z
1/2-x,1/2+y,z
1/2+x,1/2-y,z
loop_
_atom_site_type_symbol
_atom_site_label
_atom_site_fract_x
_atom_site_fract_y
_atom_site_fract_z
Si Si1 0.673338 0.182108 0.935082
Si Si2 0.329637 0.681837 0.500000
Si Si3 0.418154 0.317651 0.162480
Si Si4 0.171259 0.317918 0.612554
Si Si5 0.171457 0.682216 0.263082
O O1 0.750000 0.250000 0.921804
O O2 0.617293 0.251796 0.893149
O O3 0.675640 0.000000 0.928989
O O4 0.658123 0.218152 0.000000
O O5 0.326202 0.500000 0.500000
O O6 0.250000 0.750000 0.500000
O O7 0.362548 0.742974 0.442309
O O8 0.500000 0.276526 0.165083
O O9 0.411823 0.500000 0.162370
O O10 0.376764 0.251166 0.215304
O O11 0.174656 0.500000 0.604945
O O12 0.250000 0.250000 0.615096
O O13 0.142282 0.285334 0.674381
O O14 0.176096 0.500000 0.257165
O O15 0.250000 0.750000 0.258566
#
# Coordination Sequence:
#
# PCOD9482592 Si02
#       5
#    16   8  16  16  16
#     4  10  21  38  61  86 111 140 174 213 256 305
#     4  10  16  22  36  60  93 130 163 202 253 305
#     4  11  24  39  55  77 107 142 177 216 262 310
#     4   9  16  26  41  64  94 128 165 206 254 305
#     4  10  20  34  54  77 103 137 176 219 263 311
#
# _framework density 17.962883999999999
#
# number of rings (size 3 to 8) (size 9 to 14) (size 15 to 20)
#    0.000    2.000    0.000    5.667    0.000    6.222 
#    0.000    2.222    0.000    0.000    0.000    0.778 
#    0.000    6.222    0.000    0.000    0.000    0.000 
#
# Total GULP energy -200867.418554 kJ/mol
# GULP energy per Si atom -5579.650515 kJ/mol
# Density = 1.792200 g / cm^3
# Si number density = 17.962884 Si / 1000 Ang^3
#
#
#
# Elastic Constant Matrix: (Units=GPa)
#
#
# Indices 1 2 3 4 5 6 
#
# 1 83.0281 48.7557 89.1990 0.0000 0.0000 0.0000
# 2 48.7557 91.4893 73.0614 0.0000 0.0000 0.0000
# 3 89.1990 73.0614 156.4012 0.0000 0.0000 0.0000
# 4 0.0000 0.0000 0.0000 28.2336 0.0000 0.0000
# 5 0.0000 0.0000 0.0000 0.0000 -6.4561 0.0000
# 6 0.0000 0.0000 0.0000 0.0000 0.0000 21.5885
#
#
#
# Elastic Compliance Matrix: (Units=1/GPa)
#
#
# Indices 1 2 3 4 5 6 
#
# 1 0.031969 -0.003950 -0.016387 0.000000 0.000000 0.000000
# 2 -0.003950 0.017922 -0.006119 0.000000 0.000000 0.000000
# 3 -0.016387 -0.006119 0.018598 0.000000 0.000000 0.000000
# 4 0.000000 0.000000 0.000000 0.035419 0.000000 0.000000
# 5 0.000000 0.000000 0.000000 0.000000 -0.154892 0.000000
# 6 0.000000 0.000000 0.000000 0.000000 0.000000 0.046321
#
#
# Mechanical properties :
#
#
# Convention : Reuss Voigt Hill
#
# Bulk Modulus (GPa) = 64.20125 83.66119 73.93122
# Shear Modulus (GPa) = 93.55759 16.66670 55.11215
#
# Velocity S-wave (km/s) = 7.22474 3.04935 5.54506
# Velocity P-wave (km/s) = 10.26716 7.68594 9.06885
#
# Compressibility (1/GPa) = 0.01557602
#
# Stress axis : x y z
#
# Youngs Moduli (GPa) = 31.28026 55.79734 53.76780
#
# Poissons Ratio (x) = 0.22040 0.88112
# Poissons Ratio (y) = 0.12356 0.32902
# Poissons Ratio (z) = 0.51260 0.34144
#
# Static dielectric constant tensor:
#      x y z
#    x 1.569460 0.000000 0.000000 
#    y 0.000000 1.597400 0.000000 
#    z 0.000000 0.000000 1.666810 
# 
# From -- ./inp_files/67105.got.cif
#   From: 2010.05.17/outbox.cif.g08.bks.cpg/sg65_34_cif.got.tgz:67105.got - 2010.06.03 17:01:31.
