data_PCOD9482586
_publ_section_title
;
Structure prediction by ZEFSAII (Michael W. Deem and Ramdas Pophale) SiO2 
 PCOD9482586
Probable space group: C M M M
;
_chemical_formula_sum "Si O2"
_cell_formula_units_Z 104
_cell_length_a 8.738442
_cell_length_b 24.043323
_cell_length_c 29.185737
_cell_angle_alpha 90.000000
_cell_angle_beta 90.000000
_cell_angle_gamma 90.000000
_cell_volume 6131.957886
_symmetry_space_group_name_H-M "C M M M"
_symmetry_group_IT_number 65
_symmetry_cell_setting 'orthorhombic'
loop_
_space_group_symop_operation_xyz
x,y,z
-x,-y,z
x,-y,-z
-x,y,-z
-x,-y,-z
x,y,-z
-x,y,z
x,-y,z
1/2+x,1/2+y,z
1/2-x,1/2-y,z
1/2+x,1/2-y,-z
1/2-x,1/2+y,-z
1/2-x,1/2-y,-z
1/2+x,1/2+y,-z
1/2-x,1/2+y,z
1/2+x,1/2-y,z
loop_
_atom_site_type_symbol
_atom_site_label
_atom_site_fract_x
_atom_site_fract_y
_atom_site_fract_z
Si Si1 0.683128 0.188654 0.866918
Si Si2 0.816563 0.187439 0.695122
Si Si3 0.682458 0.500000 0.807612
Si Si4 0.682391 0.813124 0.500000
Si Si5 0.316706 0.884797 0.222759
Si Si6 0.316859 0.385160 0.052715
Si Si7 0.316821 0.000000 0.910317
Si Si8 0.317326 0.312427 0.592681
O O1 0.500000 0.191384 0.870670
O O2 0.750000 0.250000 0.860868
O O3 0.721035 0.150672 0.822913
O O4 0.751237 0.159478 0.911828
O O5 0.750000 0.250000 0.698999
O O6 0.743367 0.148893 0.733596
O O7 0.784666 0.164981 0.643547
O O8 0.000000 0.190294 0.700596
O O9 0.500000 0.500000 0.812125
O O10 0.738917 0.555361 0.782221
O O11 0.757267 0.500000 0.858146
O O12 0.500000 0.810387 0.500000
O O13 0.750000 0.750000 0.500000
O O14 0.742916 0.839181 0.547482
O O15 0.500000 0.890909 0.224737
O O16 0.500000 0.388523 0.057789
O O17 0.245465 0.444834 0.065250
O O18 0.281464 0.371176 0.000000
O O19 0.500000 0.000000 0.910328
O O20 0.500000 0.309837 0.586481
O O21 0.250000 0.250000 0.594616
#
# Coordination Sequence:
#
# PCOD9482586 Si02
#       8
#    16  16   8   8  16  16   8  16
#     4  11  24  40  60  83 111 145 181 219 262 316
#     4  10  20  33  51  76 107 145 185 224 269 319
#     4  12  24  39  63  86 110 140 173 218 265 314
#     4  10  16  22  36  58  88 129 176 221 266 314
#     4  11  23  39  59  83 110 139 177 221 266 320
#     4  11  24  41  62  87 113 143 180 221 265 314
#     4  12  23  39  62  89 116 142 175 215 265 318
#     4   9  16  26  40  61  93 133 177 221 264 312
#
# _framework density 16.960324
#
# number of rings (size 3 to 8) (size 9 to 14) (size 15 to 20)
#    0.000    1.385    1.538    6.000    0.000    7.385 
#    0.000    0.000    0.000    0.000    0.000    0.000 
#    0.000    0.615    0.000    6.462    0.000    3.538 
#
# Total GULP energy -290424.909346 kJ/mol
# GULP energy per Si atom -5585.094411 kJ/mol
# Density = 1.692172 g / cm^3
# Si number density = 16.960324 Si / 1000 Ang^3
#
#
#
# Elastic Constant Matrix: (Units=GPa)
#
#
# Indices 1 2 3 4 5 6 
#
# 1 94.1897 45.7351 71.7991 0.0000 0.0000 0.0000
# 2 45.7351 100.2173 57.2907 0.0000 0.0000 0.0000
# 3 71.7991 57.2907 157.9743 0.0000 0.0000 0.0000
# 4 0.0000 0.0000 0.0000 -22.7573 0.0000 0.0000
# 5 0.0000 0.0000 0.0000 0.0000 27.4189 0.0000
# 6 0.0000 0.0000 0.0000 0.0000 0.0000 23.5712
#
#
#
# Elastic Compliance Matrix: (Units=1/GPa)
#
#
# Indices 1 2 3 4 5 6 
#
# 1 0.017645 -0.004375 -0.006433 0.000000 0.000000 0.000000
# 2 -0.004375 0.013673 -0.002970 0.000000 0.000000 0.000000
# 3 -0.006433 -0.002970 0.010331 0.000000 0.000000 0.000000
# 4 0.000000 0.000000 0.000000 -0.043942 0.000000 0.000000
# 5 0.000000 0.000000 0.000000 0.000000 0.036471 0.000000
# 6 0.000000 0.000000 0.000000 0.000000 0.000000 0.042425
#
#
# Mechanical properties :
#
#
# Convention : Reuss Voigt Hill
#
# Bulk Modulus (GPa) = 70.95890 78.00347 74.48119
# Shear Modulus (GPa) = 45.93205 17.48365 31.70785
#
# Velocity S-wave (km/s) = 5.20969 3.21418 4.32850
# Velocity P-wave (km/s) = 8.83837 7.73732 8.30611
#
# Compressibility (1/GPa) = 0.01409266
#
# Stress axis : x y z
#
# Youngs Moduli (GPa) = 56.67348 73.13804 96.79523
#
# Poissons Ratio (x) = 0.31997 0.62268
# Poissons Ratio (y) = 0.24794 0.28750
# Poissons Ratio (z) = 0.36458 0.21723
#
# Static dielectric constant tensor:
#      x y z
#    x 1.564160 0.000000 0.000000 
#    y 0.000000 1.534900 0.000000 
#    z 0.000000 0.000000 1.606560 
# 
# From -- ./inp_files/73396.got.cif
#   From: 2010.05.17/outbox.cif.g08.bks.cpg/sg65_37_cif.got.tgz:73396.got - 2010.06.03 17:01:31.
