data_PCOD9482490
_publ_section_title
;
Structure prediction by ZEFSAII (Michael W. Deem and Ramdas Pophale) SiO2 
 PCOD9482490
Probable space group: C M C A
;
_chemical_formula_sum "Si O2"
_cell_formula_units_Z 48
_cell_length_a 9.000000
_cell_length_b 21.000000
_cell_length_c 27.000000
_cell_angle_alpha 90.000000
_cell_angle_beta 90.000000
_cell_angle_gamma 90.000000
_cell_volume 5103.000000
_symmetry_space_group_name_H-M "C M C A"
_symmetry_group_IT_number 64
_symmetry_cell_setting 'orthorhombic'
loop_
_space_group_symop_operation_xyz
x,y,z
-x,1/2-y,1/2+z
x,-y,-z
-x,1/2+y,1/2-z
-x,-y,-z
x,1/2+y,1/2-z
-x,y,z
x,1/2-y,1/2+z
1/2+x,1/2+y,z
1/2-x,-y,1/2+z
1/2+x,1/2-y,-z
1/2-x,y,1/2-z
1/2-x,1/2-y,-z
1/2+x,y,1/2-z
1/2-x,1/2+y,z
1/2+x,-y,1/2+z
loop_
_atom_site_type_symbol
_atom_site_label
_atom_site_fract_x
_atom_site_fract_y
_atom_site_fract_z
Si Si1 0.176857 0.114471 0.801504
Si Si2 0.672213 0.768550 0.146912
Si Si3 0.320759 0.643729 0.304847
Si Si4 0.670647 0.697239 0.533043
Si Si5 0.819417 0.549778 0.957760
Si Si6 0.678384 0.994931 0.849591
O O1 0.250000 0.133226 0.750000
O O2 0.240068 0.167869 0.837983
O O3 0.000000 0.115229 0.799840
O O4 0.236323 0.044493 0.814870
O O5 0.500000 0.771216 0.164330
O O6 0.750648 0.705567 0.168420
O O7 0.670794 0.772921 0.087801
O O8 0.500000 0.650587 0.301372
O O9 0.250000 0.638437 0.250000
O O10 0.289360 0.578274 0.335256
O O11 0.500000 0.691496 0.515813
O O12 0.750000 0.750000 0.500000
O O13 0.730349 0.623691 0.535191
O O14 0.780658 0.518122 0.904954
O O15 0.000000 0.552371 0.958785
O O16 0.770749 0.500000 0.000000
O O17 0.500000 0.003726 0.843822
#
# Coordination Sequence:
#
# PCOD9482490 Si02
#       6
#    16  16  16  16  16  16
#     4  12  24  39  63  91 121 158 203 254 307 368
#     4  11  23  42  63  87 125 165 204 254 306 363
#     4  11  24  40  62  91 124 164 208 256 305 369
#     4  10  22  39  63  91 124 159 199 249 304 364
#     4   9  18  36  63  91 120 158 200 246 300 362
#     4  10  21  40  63  90 125 161 204 250 304 366
#
# _framework density 9.4062319999999993
#
# number of rings (size 3 to 8) (size 9 to 14) (size 15 to 20)
#    0.000    1.500    1.667    3.500    2.333    4.000 
#    0.000    0.000    0.000    1.000    0.000    0.000 
#    0.000    0.000    0.000    0.000    0.000    0.000 
#
# Total GULP energy -267919.502299 kJ/mol
# GULP energy per Si atom -5581.656298 kJ/mol
# Density = 0.938482 g / cm^3
# Si number density = 9.406232 Si / 1000 Ang^3
#
#
#
# Elastic Constant Matrix: (Units=GPa)
#
#
# Indices 1 2 3 4 5 6 
#
# 1 77.5297 41.7655 20.8304 0.0000 0.0000 0.0000
# 2 41.7655 141.7177 24.1150 0.0000 0.0000 0.0000
# 3 20.8304 24.1150 65.8799 0.0000 0.0000 0.0000
# 4 0.0000 0.0000 0.0000 44.6123 0.0000 0.0000
# 5 0.0000 0.0000 0.0000 0.0000 15.7537 0.0000
# 6 0.0000 0.0000 0.0000 0.0000 0.0000 31.7903
#
#
#
# Elastic Compliance Matrix: (Units=1/GPa)
#
#
# Indices 1 2 3 4 5 6 
#
# 1 0.016084 -0.004132 -0.003573 0.000000 0.000000 0.000000
# 2 -0.004132 0.008587 -0.001837 0.000000 0.000000 0.000000
# 3 -0.003573 -0.001837 0.016981 0.000000 0.000000 0.000000
# 4 0.000000 0.000000 0.000000 0.022415 0.000000 0.000000
# 5 0.000000 0.000000 0.000000 0.000000 0.063477 0.000000
# 6 0.000000 0.000000 0.000000 0.000000 0.000000 0.031456
#
#
# Mechanical properties :
#
#
# Convention : Reuss Voigt Hill
#
# Bulk Modulus (GPa) = 44.30969 50.94990 47.62980
# Shear Modulus (GPa) = 26.93861 31.65902 29.29881
#
# Velocity S-wave (km/s) = 3.78822 4.10674 3.95069
# Velocity P-wave (km/s) = 6.53748 7.04478 6.79587
#
# Compressibility (1/GPa) = 0.02256843
#
# Stress axis : x y z
#
# Youngs Moduli (GPa) = 62.17240 116.46078 58.88883
#
# Poissons Ratio (x) = 0.48124 0.21042
# Poissons Ratio (y) = 0.25691 0.10815
# Poissons Ratio (z) = 0.22215 0.21388
#
# Static dielectric constant tensor:
#      x y z
#    x 1.641900 0.000000 0.000000 
#    y 0.000000 1.630750 0.000000 
#    z 0.000000 0.000000 1.708980 
# 
# From -- ./inp_files/48150.got.cif
#   From: 2010.05.17/outbox.ucp.g08.bks.cvg/sg64_25_cif.got.tgz:48150.got - 2010.06.11 16:36:46.
