data_PCOD9482517
_publ_section_title
;
Structure prediction by ZEFSAII (Michael W. Deem and Ramdas Pophale) SiO2 
 PCOD9482517
Probable space group: C M C A
;
_chemical_formula_sum "Si O2"
_cell_formula_units_Z 48
_cell_length_a 15.000000
_cell_length_b 21.000000
_cell_length_c 15.000000
_cell_angle_alpha 90.000000
_cell_angle_beta 90.000000
_cell_angle_gamma 90.000000
_cell_volume 4725.000000
_symmetry_space_group_name_H-M "C M C A"
_symmetry_group_IT_number 64
_symmetry_cell_setting 'orthorhombic'
loop_
_space_group_symop_operation_xyz
x,y,z
-x,1/2-y,1/2+z
x,-y,-z
-x,1/2+y,1/2-z
-x,-y,-z
x,1/2+y,1/2-z
-x,y,z
x,1/2-y,1/2+z
1/2+x,1/2+y,z
1/2-x,-y,1/2+z
1/2+x,1/2-y,-z
1/2-x,y,1/2-z
1/2-x,1/2-y,-z
1/2+x,y,1/2-z
1/2-x,1/2+y,z
1/2+x,-y,1/2+z
loop_
_atom_site_type_symbol
_atom_site_label
_atom_site_fract_x
_atom_site_fract_y
_atom_site_fract_z
Si Si1 0.703034 0.159413 0.534359
Si Si2 0.278770 0.947221 0.349701
Si Si3 0.101465 0.931531 0.897327
Si Si4 0.902988 0.505087 0.895983
Si Si5 0.851036 0.878441 0.712583
Si Si6 0.891881 0.205849 0.453520
O O1 0.690069 0.123390 0.628305
O O2 0.663197 0.109472 0.463027
O O3 0.807249 0.173884 0.508591
O O4 0.639621 0.221157 0.535900
O O5 0.250000 0.960598 0.250000
O O6 0.348095 0.001190 0.380742
O O7 0.182099 0.950156 0.394290
O O8 0.097708 0.893423 0.803818
O O9 0.000000 0.939992 0.929532
O O10 0.870135 0.439965 0.849716
O O11 0.000000 0.523338 0.855444
O O12 0.917073 0.500000 0.000000
O O13 0.750000 0.872975 0.750000
O O14 0.878611 0.820554 0.647824
O O15 0.000000 0.196684 0.475775
#
# Coordination Sequence:
#
# PCOD9482517 Si02
#       6
#    16  16  16  16  16  16
#     4  11  26  44  67  98 132 170 222 280 333 395
#     4  12  24  41  63  95 136 172 208 265 330 396
#     4  12  23  41  68  97 132 175 222 269 331 403
#     4  11  21  36  63  96 128 165 211 266 325 387
#     4  12  21  40  67  97 131 173 221 271 325 393
#     4  11  24  46  70  93 127 173 225 277 331 396
#
# _framework density 10.15873
#
# number of rings (size 3 to 8) (size 9 to 14) (size 15 to 20)
#    0.000    0.500    5.000    4.500    0.000    4.667 
#    0.000    0.000    0.000    0.000    0.000    0.000 
#    0.000    0.000    0.000    0.000    0.000    0.000 
#
# Total GULP energy -267340.974328 kJ/mol
# GULP energy per Si atom -5569.603632 kJ/mol
# Density = 1.013561 g / cm^3
# Si number density = 10.158730 Si / 1000 Ang^3
#
#
#
# Elastic Constant Matrix: (Units=GPa)
#
#
# Indices 1 2 3 4 5 6 
#
# 1 176.7422 43.1585 9.2130 0.0000 0.0000 0.0000
# 2 43.1585 96.8465 25.4734 0.0000 0.0000 0.0000
# 3 9.2130 25.4734 35.7433 0.0000 0.0000 0.0000
# 4 0.0000 0.0000 0.0000 26.6894 0.0000 0.0000
# 5 0.0000 0.0000 0.0000 0.0000 29.2032 0.0000
# 6 0.0000 0.0000 0.0000 0.0000 0.0000 15.3468
#
#
#
# Elastic Compliance Matrix: (Units=1/GPa)
#
#
# Indices 1 2 3 4 5 6 
#
# 1 0.006355 -0.002955 0.000468 0.000000 0.000000 0.000000
# 2 -0.002955 0.014082 -0.009274 0.000000 0.000000 0.000000
# 3 0.000468 -0.009274 0.034466 0.000000 0.000000 0.000000
# 4 0.000000 0.000000 0.000000 0.037468 0.000000 0.000000
# 5 0.000000 0.000000 0.000000 0.000000 0.034243 0.000000
# 6 0.000000 0.000000 0.000000 0.000000 0.000000 0.065160
#
#
# Mechanical properties :
#
#
# Convention : Reuss Voigt Hill
#
# Bulk Modulus (GPa) = 31.86683 51.66909 41.76796
# Shear Modulus (GPa) = 22.14769 29.68035 25.91402
#
# Velocity S-wave (km/s) = 3.30522 3.82623 3.57523
# Velocity P-wave (km/s) = 5.50313 6.70866 6.13558
#
# Compressibility (1/GPa) = 0.03138059
#
# Stress axis : x y z
#
# Youngs Moduli (GPa) = 157.35159 71.01291 29.01400
#
# Poissons Ratio (x) = 0.20986 -0.01358
# Poissons Ratio (y) = 0.46501 0.26908
# Poissons Ratio (z) = -0.07365 0.65858
#
# Static dielectric constant tensor:
#      x y z
#    x 1.566700 0.000000 0.000000 
#    y 0.000000 1.743180 0.000000 
#    z 0.000000 0.000000 1.750540 
# 
# From -- ./inp_files/23953.got.cif
#   From: 2010.05.17/outbox.ucp.g08.bks.cvg/sg64_12_cif.got.tgz:23953.got - 2010.06.11 16:36:46.
