data_PCOD9482615
_publ_section_title
;
Structure prediction by ZEFSAII (Michael W. Deem and Ramdas Pophale) SiO2 
 PCOD9482615
Probable space group: C M M M
;
_chemical_formula_sum "Si O2"
_cell_formula_units_Z 72
_cell_length_a 8.597024
_cell_length_b 23.946968
_cell_length_c 21.491971
_cell_angle_alpha 90.000000
_cell_angle_beta 90.000000
_cell_angle_gamma 90.000000
_cell_volume 4424.609209
_symmetry_space_group_name_H-M "C M M M"
_symmetry_group_IT_number 65
_symmetry_cell_setting 'orthorhombic'
loop_
_space_group_symop_operation_xyz
x,y,z
-x,-y,z
x,-y,-z
-x,y,-z
-x,-y,-z
x,y,-z
-x,y,z
x,-y,z
1/2+x,1/2+y,z
1/2-x,1/2-y,z
1/2+x,1/2-y,-z
1/2-x,1/2+y,-z
1/2-x,1/2-y,-z
1/2+x,1/2+y,-z
1/2-x,1/2+y,z
1/2+x,1/2-y,z
loop_
_atom_site_type_symbol
_atom_site_label
_atom_site_fract_x
_atom_site_fract_y
_atom_site_fract_z
Si Si1 0.687847 0.883645 0.119428
Si Si2 0.685850 0.313580 0.371564
Si Si3 0.686123 0.500000 0.072625
Si Si4 0.187212 0.313291 0.759378
Si Si5 0.187441 0.687810 0.000000
Si Si6 0.814220 0.686165 0.500000
O O1 0.500000 0.887122 0.118589
O O2 0.754435 0.944796 0.107247
O O3 0.732564 0.852800 0.183218
O O4 0.738201 0.845300 0.061390
O O5 0.500000 0.312732 0.373467
O O6 0.750000 0.250000 0.370725
O O7 0.746455 0.336424 0.305880
O O8 0.751801 0.339387 0.435446
O O9 0.500000 0.500000 0.071677
O O10 0.741070 0.500000 0.000000
O O11 0.250000 0.250000 0.768833
O O12 0.000000 0.310227 0.755598
O O13 0.250000 0.750000 0.000000
O O14 0.000000 0.689418 0.000000
O O15 0.750000 0.750000 0.500000
O O16 0.000000 0.687731 0.500000
#
# Coordination Sequence:
#
# PCOD9482615 Si02
#       6
#    16  16   8  16   8   8
#     4  10  21  36  54  71  95 128 162 197 243 297
#     4  10  17  26  40  60  89 126 162 198 237 282
#     4  11  23  37  55  77  95 118 157 206 253 291
#     4  10  19  31  47  70  97 130 164 198 242 291
#     4  10  20  33  50  73  97 126 158 194 237 286
#     4  10  16  24  38  58  86 121 162 203 234 276
#
# _framework density 16.272624
#
# number of rings (size 3 to 8) (size 9 to 14) (size 15 to 20)
#    0.000    1.889    1.111    7.333    0.000    3.111 
#    0.000    0.000    0.000    0.000    0.000    0.000 
#    0.000    0.889    0.000    9.333    0.000    5.111 
#
# Total GULP energy -200783.876531 kJ/mol
# GULP energy per Si atom -5577.329904 kJ/mol
# Density = 1.623559 g / cm^3
# Si number density = 16.272624 Si / 1000 Ang^3
#
#
#
# Elastic Constant Matrix: (Units=GPa)
#
#
# Indices 1 2 3 4 5 6 
#
# 1 83.5860 26.7504 59.6027 0.0000 0.0000 0.0000
# 2 26.7504 92.1201 66.7772 0.0000 0.0000 0.0000
# 3 59.6027 66.7772 196.6005 0.0000 0.0000 0.0000
# 4 0.0000 0.0000 0.0000 0.6829 0.0000 0.0000
# 5 0.0000 0.0000 0.0000 0.0000 23.3146 0.0000
# 6 0.0000 0.0000 0.0000 0.0000 0.0000 21.5167
#
#
#
# Elastic Compliance Matrix: (Units=1/GPa)
#
#
# Indices 1 2 3 4 5 6 
#
# 1 0.015407 -0.001443 -0.004181 0.000000 0.000000 0.000000
# 2 -0.001443 0.014536 -0.004500 0.000000 0.000000 0.000000
# 3 -0.004181 -0.004500 0.007882 0.000000 0.000000 0.000000
# 4 0.000000 0.000000 0.000000 1.464411 0.000000 0.000000
# 5 0.000000 0.000000 0.000000 0.000000 0.042891 0.000000
# 6 0.000000 0.000000 0.000000 0.000000 0.000000 0.046476
#
#
# Mechanical properties :
#
#
# Convention : Reuss Voigt Hill
#
# Bulk Modulus (GPa) = 56.89001 75.39636 66.14319
# Shear Modulus (GPa) = 3.09079 23.71459 13.40269
#
# Velocity S-wave (km/s) = 1.37967 3.82164 2.87302
# Velocity P-wave (km/s) = 6.12980 8.11832 7.19311
#
# Compressibility (1/GPa) = 0.01757778
#
# Stress axis : x y z
#
# Youngs Moduli (GPa) = 64.90693 68.79255 126.86720
#
# Poissons Ratio (x) = 0.09930 0.53037
# Poissons Ratio (y) = 0.09369 0.57088
# Poissons Ratio (z) = 0.27134 0.30955
#
# Static dielectric constant tensor:
#      x y z
#    x 1.547580 0.000000 0.000000 
#    y 0.000000 1.504130 0.000000 
#    z 0.000000 0.000000 1.606640 
# 
# From -- ./inp_files/59560.got.cif
#   From: 2010.05.17/outbox.cif.g08.bks.cpg/sg65_30_cif.got.tgz:59560.got - 2010.06.03 17:01:31.
