data_PCOD9482064
_publ_section_title
;
Structure prediction by ZEFSAII (Michael W. Deem and Ramdas Pophale) SiO2 
 PCOD9482064
Probable space group: C M C A
;
_chemical_formula_sum "Si O2"
_cell_formula_units_Z 68
_cell_length_a 9.373109
_cell_length_b 18.848053
_cell_length_c 17.473779
_cell_angle_alpha 90.000000
_cell_angle_beta 90.000000
_cell_angle_gamma 90.000000
_cell_volume 3087.002637
_symmetry_space_group_name_H-M "C M C A"
_symmetry_group_IT_number 64
_symmetry_cell_setting 'orthorhombic'
loop_
_space_group_symop_operation_xyz
x,y,z
-x,1/2-y,1/2+z
x,-y,-z
-x,1/2+y,1/2-z
-x,-y,-z
x,1/2+y,1/2-z
-x,y,z
x,1/2-y,1/2+z
1/2+x,1/2+y,z
1/2-x,-y,1/2+z
1/2+x,1/2-y,-z
1/2-x,y,1/2-z
1/2-x,1/2-y,-z
1/2+x,y,1/2-z
1/2-x,1/2+y,z
1/2+x,-y,1/2+z
loop_
_atom_site_type_symbol
_atom_site_label
_atom_site_fract_x
_atom_site_fract_y
_atom_site_fract_z
Si Si1 0.752684 0.405563 0.438561
Si Si2 0.831508 0.624621 0.102643
Si Si3 0.658682 0.505682 0.184155
Si Si4 0.332713 0.717460 0.829888
Si Si5 0.500000 0.500000 0.500000
O O1 0.764870 0.379884 0.526184
O O2 0.854593 0.456712 0.390475
O O3 0.750780 0.335084 0.387537
O O4 0.621664 0.458702 0.448415
O O5 0.755780 0.572948 0.162276
O O6 0.835445 0.703667 0.134543
O O7 0.000000 0.601839 0.084308
O O8 0.500000 0.525218 0.210499
O O9 0.750000 0.466513 0.250000
O O10 0.500000 0.695467 0.821440
O O11 0.250000 0.718680 0.750000
#
# Coordination Sequence:
#
# PCOD9482064 Si02
#       5
#    16  16  16  16   4
#     4  12  23  45  71 101 136 183 230 287 343 424
#     4  11  23  46  71 100 139 184 232 287 353 418
#     4  12  26  41  67  99 139 183 235 293 353 417
#     4  11  27  46  70 104 143 185 233 287 346 416
#     4  12  24  44  78 100 140 180 222 292 350 410
#
# _framework density 22.027840000000001
#
# number of rings (size 3 to 8) (size 9 to 14) (size 15 to 20)
#    0.000    0.471    3.529    3.529    3.294    5.647 
#    0.000    0.000    0.000    0.000    0.000    0.000 
#    0.000    0.000    0.000    0.000    0.000    0.000 
#
# Total GULP energy -189269.701628 kJ/mol
# GULP energy per Si atom -5566.755930 kJ/mol
# Density = 2.197770 g / cm^3
# Si number density = 22.027840 Si / 1000 Ang^3
#
#
#
# Elastic Constant Matrix: (Units=GPa)
#
#
# Indices 1 2 3 4 5 6 
#
# 1 141.9034 41.0359 63.6608 0.0000 0.0000 0.0000
# 2 41.0359 99.8060 27.7348 0.0000 0.0000 0.0000
# 3 63.6608 27.7348 137.4198 0.0000 0.0000 0.0000
# 4 0.0000 0.0000 0.0000 37.8215 0.0000 0.0000
# 5 0.0000 0.0000 0.0000 0.0000 28.3936 0.0000
# 6 0.0000 0.0000 0.0000 0.0000 0.0000 32.2824
#
#
#
# Elastic Compliance Matrix: (Units=1/GPa)
#
#
# Indices 1 2 3 4 5 6 
#
# 1 0.009617 -0.002878 -0.003875 0.000000 0.000000 0.000000
# 2 -0.002878 0.011476 -0.000983 0.000000 0.000000 0.000000
# 3 -0.003875 -0.000983 0.009270 0.000000 0.000000 0.000000
# 4 0.000000 0.000000 0.000000 0.026440 0.000000 0.000000
# 5 0.000000 0.000000 0.000000 0.000000 0.035219 0.000000
# 6 0.000000 0.000000 0.000000 0.000000 0.000000 0.030977
#
#
# Mechanical properties :
#
#
# Convention : Reuss Voigt Hill
#
# Bulk Modulus (GPa) = 67.14524 71.55469 69.34996
# Shear Modulus (GPa) = 34.85925 36.14602 35.50264
#
# Velocity S-wave (km/s) = 3.98239 4.05523 4.01897
# Velocity P-wave (km/s) = 7.18986 7.38111 7.28611
#
# Compressibility (1/GPa) = 0.01489309
#
# Stress axis : x y z
#
# Youngs Moduli (GPa) = 103.97823 87.14031 107.87140
#
# Poissons Ratio (x) = 0.25075 0.41796
# Poissons Ratio (y) = 0.29920 0.10604
# Poissons Ratio (z) = 0.40287 0.08566
#
# Static dielectric constant tensor:
#      x y z
#    x 1.543600 0.000000 0.000000 
#    y 0.000000 1.591690 0.000000 
#    z 0.000000 0.000000 1.755500 
# 
# From -- ./inp_files/29344.got.cif
#   From: 2010.05.17/outbox.cif.g08.bks.cpg/sg64_15_cif.got.tgz:29344.got - 2010.06.03 16:29:19.
