data_PCOD9482418
_publ_section_title
;
Structure prediction by ZEFSAII (Michael W. Deem and Ramdas Pophale) SiO2 
 PCOD9482418
Probable space group: C M C A
;
_chemical_formula_sum "Si O2"
_cell_formula_units_Z 36
_cell_length_a 15.000000
_cell_length_b 12.000000
_cell_length_c 24.000000
_cell_angle_alpha 90.000000
_cell_angle_beta 90.000000
_cell_angle_gamma 90.000000
_cell_volume 4320.000000
_symmetry_space_group_name_H-M "C M C A"
_symmetry_group_IT_number 64
_symmetry_cell_setting 'orthorhombic'
loop_
_space_group_symop_operation_xyz
x,y,z
-x,1/2-y,1/2+z
x,-y,-z
-x,1/2+y,1/2-z
-x,-y,-z
x,1/2+y,1/2-z
-x,y,z
x,1/2-y,1/2+z
1/2+x,1/2+y,z
1/2-x,-y,1/2+z
1/2+x,1/2-y,-z
1/2-x,y,1/2-z
1/2-x,1/2-y,-z
1/2+x,y,1/2-z
1/2-x,1/2+y,z
1/2+x,-y,1/2+z
loop_
_atom_site_type_symbol
_atom_site_label
_atom_site_fract_x
_atom_site_fract_y
_atom_site_fract_z
Si Si1 0.396699 0.803417 0.143621
Si Si2 0.104282 0.359487 0.275954
Si Si3 0.750000 0.961426 0.750000
Si Si4 0.894843 0.474753 0.934632
Si Si5 0.208342 0.690350 0.144906
O O1 0.500000 0.764376 0.132587
O O2 0.390613 0.813668 0.211608
O O3 0.387169 0.918044 0.107406
O O4 0.307760 0.733153 0.129030
O O5 0.167111 0.466136 0.271116
O O6 0.147036 0.285519 0.325619
O O7 0.000000 0.380345 0.286834
O O8 0.780487 0.891642 0.697217
O O9 0.838829 0.375437 0.905674
O O10 0.000000 0.444963 0.935227
O O11 0.870361 0.500000 0.000000
#
# Coordination Sequence:
#
# PCOD9482418 Si02
#       5
#    16  16   8  16  16
#     4  10  20  35  54  81 113 142 183 232 279 329
#     4  11  21  33  51  81 113 143 179 227 277 332
#     4  12  20  34  50  82 114 144 174 228 278 342
#     4  10  22  39  59  82 111 152 195 231 273 333
#     4  12  20  36  58  81 113 149 186 226 286 333
#
# _framework density 8.3333329999999997
#
# number of rings (size 3 to 8) (size 9 to 14) (size 15 to 20)
#    0.000    1.111    6.667    0.667    0.000    2.667 
#    0.000    0.000    0.000    0.667    0.000    0.000 
#    0.000    0.000    0.000    0.000    0.000    0.000 
#
# Total GULP energy -200497.343039 kJ/mol
# GULP energy per Si atom -5569.370640 kJ/mol
# Density = 0.831437 g / cm^3
# Si number density = 8.333333 Si / 1000 Ang^3
#
#
#
# Elastic Constant Matrix: (Units=GPa)
#
#
# Indices 1 2 3 4 5 6 
#
# 1 123.2374 49.8310 17.5262 0.0000 0.0000 0.0000
# 2 49.8310 58.4493 18.0857 0.0000 0.0000 0.0000
# 3 17.5262 18.0857 81.7142 0.0000 0.0000 0.0000
# 4 0.0000 0.0000 0.0000 24.0509 0.0000 0.0000
# 5 0.0000 0.0000 0.0000 0.0000 28.5997 0.0000
# 6 0.0000 0.0000 0.0000 0.0000 0.0000 99.3581
#
#
#
# Elastic Compliance Matrix: (Units=1/GPa)
#
#
# Indices 1 2 3 4 5 6 
#
# 1 0.012392 -0.010459 -0.000343 0.000000 0.000000 0.000000
# 2 -0.010459 0.027194 -0.003776 0.000000 0.000000 0.000000
# 3 -0.000343 -0.003776 0.013147 0.000000 0.000000 0.000000
# 4 0.000000 0.000000 0.000000 0.041579 0.000000 0.000000
# 5 0.000000 0.000000 0.000000 0.000000 0.034965 0.000000
# 6 0.000000 0.000000 0.000000 0.000000 0.000000 0.010065
#
#
# Mechanical properties :
#
#
# Convention : Reuss Voigt Hill
#
# Bulk Modulus (GPa) = 42.41221 48.25410 45.33315
# Shear Modulus (GPa) = 28.35177 42.26561 35.30869
#
# Velocity S-wave (km/s) = 4.12892 5.04127 4.60773
# Velocity P-wave (km/s) = 6.94501 7.93103 7.45434
#
# Compressibility (1/GPa) = 0.02357812
#
# Stress axis : x y z
#
# Youngs Moduli (GPa) = 80.69559 36.77309 76.06306
#
# Poissons Ratio (x) = 0.38461 0.02610
# Poissons Ratio (y) = 0.84398 0.28718
# Poissons Ratio (z) = 0.02768 0.13884
#
# Static dielectric constant tensor:
#      x y z
#    x 1.570570 0.000000 0.000000 
#    y 0.000000 1.604330 0.000000 
#    z 0.000000 0.000000 1.537280 
# 
# From -- ./inp_files/39940.got.cif
#   From: 2010.05.17/outbox.ucp.g08.bks.cvg/sg64_20_cif.got.tgz:39940.got - 2010.06.11 16:36:46.
