data_PCOD9482152
_publ_section_title
;
Structure prediction by ZEFSAII (Michael W. Deem and Ramdas Pophale) SiO2 
 PCOD9482152
Probable space group: C M C A
;
_chemical_formula_sum "Si O2"
_cell_formula_units_Z 88
_cell_length_a 15.179995
_cell_length_b 17.414265
_cell_length_c 12.744929
_cell_angle_alpha 90.000000
_cell_angle_beta 90.000000
_cell_angle_gamma 90.000000
_cell_volume 3369.102298
_symmetry_space_group_name_H-M "C M C A"
_symmetry_group_IT_number 64
_symmetry_cell_setting 'orthorhombic'
loop_
_space_group_symop_operation_xyz
x,y,z
-x,1/2-y,1/2+z
x,-y,-z
-x,1/2+y,1/2-z
-x,-y,-z
x,1/2+y,1/2-z
-x,y,z
x,1/2-y,1/2+z
1/2+x,1/2+y,z
1/2-x,-y,1/2+z
1/2+x,1/2-y,-z
1/2-x,y,1/2-z
1/2-x,1/2-y,-z
1/2+x,y,1/2-z
1/2-x,1/2+y,z
1/2+x,-y,1/2+z
loop_
_atom_site_type_symbol
_atom_site_label
_atom_site_fract_x
_atom_site_fract_y
_atom_site_fract_z
Si Si1 0.899922 0.646714 0.844944
Si Si2 0.150725 0.034951 0.113950
Si Si3 0.664612 0.232107 0.650401
Si Si4 0.000000 0.150019 0.359924
Si Si5 0.356567 0.484068 0.648992
Si Si6 0.657145 0.697696 0.077356
O O1 0.842755 0.674057 0.746765
O O2 0.869673 0.568686 0.899132
O O3 0.895275 0.722349 0.918122
O O4 0.000000 0.635410 0.812648
O O5 0.170669 0.818106 0.044797
O O6 0.127573 0.997709 0.225671
O O7 0.113553 0.121997 0.123236
O O8 0.126277 0.000000 0.000000
O O9 0.578196 0.284476 0.657171
O O10 0.751017 0.285100 0.635646
O O11 0.923922 0.082812 0.375777
O O12 0.256972 0.460470 0.622242
#
# Coordination Sequence:
#
# PCOD9482152 Si02
#       6
#    16  16  16   8  16  16
#     4  12  26  44  72 105 148 187 236 299 363 437
#     4  11  25  47  73 104 144 194 246 304 364 444
#     4  11  25  44  72 100 142 187 239 299 363 428
#     4  12  22  48  72 104 145 186 240 314 362 426
#     4  11  26  44  73 108 144 191 245 299 376 433
#     4  11  26  45  71 104 136 191 243 289 364 447
#
# _framework density 26.119717000000001
#
# number of rings (size 3 to 8) (size 9 to 14) (size 15 to 20)
#    0.000    0.727    3.636    2.727   14.000    0.000 
#    0.000    1.818    0.000    0.000    0.000    0.000 
#    0.000    0.000    0.000    0.000    0.000    0.000 
#
# Total GULP energy -245280.519606 kJ/mol
# GULP energy per Si atom -5574.557264 kJ/mol
# Density = 2.606027 g / cm^3
# Si number density = 26.119717 Si / 1000 Ang^3
#
#
#
# Elastic Constant Matrix: (Units=GPa)
#
#
# Indices 1 2 3 4 5 6 
#
# 1 129.2054 27.4021 -42.1340 0.0000 0.0000 0.0000
# 2 27.4021 167.3928 -30.4745 0.0000 0.0000 0.0000
# 3 -42.1340 -30.4745 75.9775 0.0000 0.0000 0.0000
# 4 0.0000 0.0000 0.0000 -0.6872 0.0000 0.0000
# 5 0.0000 0.0000 0.0000 0.0000 -14.1959 0.0000
# 6 0.0000 0.0000 0.0000 0.0000 0.0000 41.5507
#
#
#
# Elastic Compliance Matrix: (Units=1/GPa)
#
#
# Indices 1 2 3 4 5 6 
#
# 1 0.009512 -0.000644 0.005017 0.000000 0.000000 0.000000
# 2 -0.000644 0.006488 0.002245 0.000000 0.000000 0.000000
# 3 0.005017 0.002245 0.016845 0.000000 0.000000 0.000000
# 4 0.000000 0.000000 0.000000 -1.455104 0.000000 0.000000
# 5 0.000000 0.000000 0.000000 0.000000 -0.070443 0.000000
# 6 0.000000 0.000000 0.000000 0.000000 0.000000 0.024067
#
#
# Mechanical properties :
#
#
# Convention : Reuss Voigt Hill
#
# Bulk Modulus (GPa) = 21.70066 31.35144 26.52605
# Shear Modulus (GPa) = -3.40945 33.18566 14.88811
#
# Velocity S-wave (km/s) = -1.14374 3.56830 2.39005
# Velocity P-wave (km/s) = 2.56554 5.38573 4.21830
#
# Compressibility (1/GPa) = 0.04608154
#
# Stress axis : x y z
#
# Youngs Moduli (GPa) = 105.12881 154.12742 59.36650
#
# Poissons Ratio (x) = 0.09923 -0.29783
# Poissons Ratio (y) = 0.06768 -0.13330
# Poissons Ratio (z) = -0.52741 -0.34607
#
# Static dielectric constant tensor:
#      x y z
#    x 1.964900 0.000000 0.000000 
#    y 0.000000 2.049390 0.000000 
#    z 0.000000 0.000000 2.246590 
# 
# From -- ./inp_files/39056.got.cif
#   From: 2010.05.17/outbox.cif.g08.bks.cpg/sg64_20_cif.got.tgz:39056.got - 2010.06.03 16:29:19.
