data_PCOD9482941
_publ_section_title
;
Structure prediction by ZEFSAII (Michael W. Deem and Ramdas Pophale) SiO2 
 PCOD9482941
Probable space group: C M M M
;
_chemical_formula_sum "Si O2"
_cell_formula_units_Z 82
_cell_length_a 26.243144
_cell_length_b 9.375478
_cell_length_c 15.336934
_cell_angle_alpha 90.000000
_cell_angle_beta 90.000000
_cell_angle_gamma 90.000000
_cell_volume 3773.530210
_symmetry_space_group_name_H-M "C M M M"
_symmetry_group_IT_number 65
_symmetry_cell_setting 'orthorhombic'
loop_
_space_group_symop_operation_xyz
x,y,z
-x,-y,z
x,-y,-z
-x,y,-z
-x,-y,-z
x,y,-z
-x,y,z
x,-y,z
1/2+x,1/2+y,z
1/2-x,1/2-y,z
1/2+x,1/2-y,-z
1/2-x,1/2+y,-z
1/2-x,1/2-y,-z
1/2+x,1/2+y,-z
1/2-x,1/2+y,z
1/2+x,1/2-y,z
loop_
_atom_site_type_symbol
_atom_site_label
_atom_site_fract_x
_atom_site_fract_y
_atom_site_fract_z
Si Si1 0.799632 0.663954 0.846686
Si Si2 0.000000 0.663150 0.105889
Si Si3 0.412965 0.169050 0.603066
Si Si4 0.000000 0.158355 0.677333
Si Si5 0.099778 0.837480 0.894983
Si Si6 0.500000 0.500000 0.500000
Si Si7 0.799027 0.663030 0.636169
O O1 0.800341 0.500000 0.877845
O O2 0.750000 0.750000 0.878297
O O3 0.850273 0.748566 0.871661
O O4 0.797401 0.660488 0.741489
O O5 0.950551 0.752095 0.132922
O O6 0.000000 0.500000 0.137553
O O7 0.000000 0.656980 0.000000
O O8 0.426399 0.182355 0.500000
O O9 0.448583 0.247620 0.674092
O O10 0.354525 0.221496 0.611033
O O11 0.413970 0.000000 0.622978
O O12 0.000000 0.117014 0.576028
O O13 0.000000 0.000000 0.722235
O O14 0.101694 0.000000 0.861163
O O15 0.097188 0.845690 0.000000
O O16 0.796068 0.500000 0.605090
O O17 0.750000 0.750000 0.605669
#
# Coordination Sequence:
#
# PCOD9482941 Si02
#       7
#    16   8  16   8  16   2  16
#     4  10  20  36  55  73 100 135 172 211 253 302
#     4   9  17  31  52  78 108 139 169 202 246 298
#     4  10  18  31  52  75 101 130 165 205 248 298
#     4  10  17  30  47  73 102 130 162 202 252 298
#     4  10  20  34  54  80 107 134 167 208 252 298
#     4   8  16  28  46  68 108 124 162 200 250 302
#     4   9  20  36  52  73  99 133 170 206 250 298
#
# _framework density 21.730314
#
# number of rings (size 3 to 8) (size 9 to 14) (size 15 to 20)
#    0.293    2.049    0.976    1.756    0.000    5.463 
#    0.000    0.976    0.000    2.341    0.000    0.000 
#    0.000    0.000    0.000    0.000    0.000    0.000 
#
# Total GULP energy -228487.313099 kJ/mol
# GULP energy per Si atom -5572.861295 kJ/mol
# Density = 2.168085 g / cm^3
# Si number density = 21.730314 Si / 1000 Ang^3
#
#
#
# Elastic Constant Matrix: (Units=GPa)
#
#
# Indices 1 2 3 4 5 6 
#
# 1 222.5593 123.7533 8.8264 0.0000 0.0000 0.0000
# 2 123.7533 183.5432 18.8913 0.0000 0.0000 0.0000
# 3 8.8264 18.8913 56.2365 0.0000 0.0000 0.0000
# 4 0.0000 0.0000 0.0000 8.7903 0.0000 0.0000
# 5 0.0000 0.0000 0.0000 0.0000 29.7031 0.0000
# 6 0.0000 0.0000 0.0000 0.0000 0.0000 43.8131
#
#
#
# Elastic Compliance Matrix: (Units=1/GPa)
#
#
# Indices 1 2 3 4 5 6 
#
# 1 0.007203 -0.004910 0.000519 0.000000 0.000000 0.000000
# 2 -0.004910 0.008990 -0.002249 0.000000 0.000000 0.000000
# 3 0.000519 -0.002249 0.018456 0.000000 0.000000 0.000000
# 4 0.000000 0.000000 0.000000 0.113762 0.000000 0.000000
# 5 0.000000 0.000000 0.000000 0.000000 0.033667 0.000000
# 6 0.000000 0.000000 0.000000 0.000000 0.000000 0.022824
#
#
# Mechanical properties :
#
#
# Convention : Reuss Voigt Hill
#
# Bulk Modulus (GPa) = 46.79805 85.03123 65.91464
# Shear Modulus (GPa) = 22.19205 37.18582 29.68893
#
# Velocity S-wave (km/s) = 3.19916 4.14120 3.70029
# Velocity P-wave (km/s) = 5.93539 7.87917 6.97532
#
# Compressibility (1/GPa) = 0.02136841
#
# Stress axis : x y z
#
# Youngs Moduli (GPa) = 138.83741 111.23188 54.18212
#
# Poissons Ratio (x) = 0.54612 -0.02811
# Poissons Ratio (y) = 0.68166 0.12188
# Poissons Ratio (z) = -0.07204 0.25021
#
# Static dielectric constant tensor:
#      x y z
#    x 1.914160 0.000000 0.000000 
#    y 0.000000 1.792460 0.000000 
#    z 0.000000 0.000000 1.818270 
# 
# From -- ./inp_files/65132.got.cif
#   From: 2010.05.17/outbox.cif.g08.bks.cpg/sg65_33_cif.got.tgz:65132.got - 2010.06.03 17:01:31.
