data_PCOD9482870
_publ_section_title
;
Structure prediction by ZEFSAII (Michael W. Deem and Ramdas Pophale) SiO2 
 PCOD9482870
Probable space group: C M M M
;
_chemical_formula_sum "Si O2"
_cell_formula_units_Z 84
_cell_length_a 13.490826
_cell_length_b 21.358031
_cell_length_c 15.876672
_cell_angle_alpha 90.000000
_cell_angle_beta 90.000000
_cell_angle_gamma 90.000000
_cell_volume 4574.664260
_symmetry_space_group_name_H-M "C M M M"
_symmetry_group_IT_number 65
_symmetry_cell_setting 'orthorhombic'
loop_
_space_group_symop_operation_xyz
x,y,z
-x,-y,z
x,-y,-z
-x,y,-z
-x,-y,-z
x,y,-z
-x,y,z
x,-y,z
1/2+x,1/2+y,z
1/2-x,1/2-y,z
1/2+x,1/2-y,-z
1/2-x,1/2+y,-z
1/2-x,1/2-y,-z
1/2+x,1/2+y,-z
1/2-x,1/2+y,z
1/2+x,1/2-y,z
loop_
_atom_site_type_symbol
_atom_site_label
_atom_site_fract_x
_atom_site_fract_y
_atom_site_fract_z
Si Si1 0.891092 0.642507 0.000000
Si Si2 0.224788 0.677599 0.168360
Si Si3 0.204658 0.074815 0.407255
Si Si4 0.852984 0.500000 0.000000
Si Si5 0.115746 0.924980 0.227408
Si Si6 0.883775 0.500000 0.181374
Si Si7 0.385148 0.117113 0.308048
O O1 0.833160 0.659194 0.084176
O O2 0.900622 0.567863 0.000000
O O3 0.000000 0.671617 0.000000
O O4 0.250000 0.750000 0.159137
O O5 0.314064 0.626883 0.182469
O O6 0.154179 0.672977 0.250353
O O7 0.169229 0.094232 0.500000
O O8 0.134145 0.086724 0.327379
O O9 0.310312 0.105349 0.384173
O O10 0.219342 0.000000 0.408897
O O11 0.815503 0.500000 0.901875
O O12 0.000000 0.916434 0.206173
O O13 0.138850 0.000000 0.213684
O O14 0.871526 0.559077 0.242461
O O15 0.000000 0.500000 0.153202
O O16 0.500000 0.121095 0.330975
#
# Coordination Sequence:
#
# PCOD9482870 Si02
#       7
#     8  16  16   4  16   8  16
#     4  12  24  37  58  88 119 147 180 225 282 347
#     4  11  24  39  57  83 113 149 193 240 289 336
#     4   9  17  29  50  84 120 148 180 230 289 345
#     4  12  21  30  54  88 113 142 179 216 270 336
#     4   9  20  39  61  82 109 151 200 244 283 331
#     4  10  17  28  47  78 107 140 180 215 263 330
#     4  10  19  32  52  78 114 150 182 223 280 347
#
# _framework density 18.362003000000001
#
# number of rings (size 3 to 8) (size 9 to 14) (size 15 to 20)
#    0.000    1.905    2.857    1.714    2.667    2.286 
#    0.000    3.333    0.000   10.286    0.000   10.667 
#    0.000    0.000    0.000    0.000    0.000    0.000 
#
# Total GULP energy -233842.644072 kJ/mol
# GULP energy per Si atom -5567.682002 kJ/mol
# Density = 1.832021 g / cm^3
# Si number density = 18.362003 Si / 1000 Ang^3
#
#
#
# Elastic Constant Matrix: (Units=GPa)
#
#
# Indices 1 2 3 4 5 6 
#
# 1 94.2805 38.5840 29.3305 0.0000 0.0000 0.0000
# 2 38.5840 97.9816 27.8902 0.0000 0.0000 0.0000
# 3 29.3305 27.8902 94.3606 0.0000 0.0000 0.0000
# 4 0.0000 0.0000 0.0000 31.6139 0.0000 0.0000
# 5 0.0000 0.0000 0.0000 0.0000 12.8082 0.0000
# 6 0.0000 0.0000 0.0000 0.0000 0.0000 -5.4451
#
#
#
# Elastic Compliance Matrix: (Units=1/GPa)
#
#
# Indices 1 2 3 4 5 6 
#
# 1 0.013299 -0.004433 -0.002824 0.000000 0.000000 0.000000
# 2 -0.004433 0.012621 -0.002352 0.000000 0.000000 0.000000
# 3 -0.002824 -0.002352 0.012171 0.000000 0.000000 0.000000
# 4 0.000000 0.000000 0.000000 0.031632 0.000000 0.000000
# 5 0.000000 0.000000 0.000000 0.000000 0.078075 0.000000
# 6 0.000000 0.000000 0.000000 0.000000 0.000000 -0.183651
#
#
# Mechanical properties :
#
#
# Convention : Reuss Voigt Hill
#
# Bulk Modulus (GPa) = 52.98679 53.13690 53.06184
# Shear Modulus (GPa) = -483.40346 20.51659 -231.44343
#
# Velocity S-wave (km/s) = -16.24298 3.34629 -11.23915
# Velocity P-wave (km/s) = 17.96830 6.62809 11.80949
#
# Compressibility (1/GPa) = 0.01887263
#
# Stress axis : x y z
#
# Youngs Moduli (GPa) = 75.19122 79.23013 82.16519
#
# Poissons Ratio (x) = 0.35126 0.23200
# Poissons Ratio (y) = 0.33336 0.19329
# Poissons Ratio (z) = 0.21230 0.18639
#
# Static dielectric constant tensor:
#      x y z
#    x 1.658590 0.000000 0.000000 
#    y 0.000000 1.649160 0.000000 
#    z 0.000000 0.000000 1.644620 
# 
# From -- ./inp_files/40268.got.cif
#   From: 2010.05.17/outbox.cif.g08.bks.cpg/sg65_21_cif.got.tgz:40268.got - 2010.06.03 17:01:31.
