data_PCOD9482429
_publ_section_title
;
Structure prediction by ZEFSAII (Michael W. Deem and Ramdas Pophale) SiO2 
 PCOD9482429
Probable space group: C M C A
;
_chemical_formula_sum "Si O2"
_cell_formula_units_Z 40
_cell_length_a 9.000000
_cell_length_b 27.000000
_cell_length_c 18.000000
_cell_angle_alpha 90.000000
_cell_angle_beta 90.000000
_cell_angle_gamma 90.000000
_cell_volume 4374.000000
_symmetry_space_group_name_H-M "C M C A"
_symmetry_group_IT_number 64
_symmetry_cell_setting 'orthorhombic'
loop_
_space_group_symop_operation_xyz
x,y,z
-x,1/2-y,1/2+z
x,-y,-z
-x,1/2+y,1/2-z
-x,-y,-z
x,1/2+y,1/2-z
-x,y,z
x,1/2-y,1/2+z
1/2+x,1/2+y,z
1/2-x,-y,1/2+z
1/2+x,1/2-y,-z
1/2-x,y,1/2-z
1/2-x,1/2-y,-z
1/2+x,y,1/2-z
1/2-x,1/2+y,z
1/2+x,-y,1/2+z
loop_
_atom_site_type_symbol
_atom_site_label
_atom_site_fract_x
_atom_site_fract_y
_atom_site_fract_z
Si Si1 0.320436 0.155255 0.072289
Si Si2 0.821467 0.646334 0.588244
Si Si3 0.678847 0.447619 0.331910
Si Si4 0.678319 0.748516 0.830123
Si Si5 0.177954 0.940624 0.669133
O O1 0.500000 0.154889 0.061468
O O2 0.281452 0.204879 0.117899
O O3 0.279498 0.105309 0.117205
O O4 0.237419 0.154906 0.994426
O O5 0.747128 0.596618 0.620180
O O6 0.779265 0.695297 0.635463
O O7 0.000000 0.641634 0.590061
O O8 0.500000 0.442631 0.328137
O O9 0.750000 0.443955 0.250000
O O10 0.713708 0.503736 0.359478
O O11 0.500000 0.748967 0.823154
O O12 0.750000 0.754698 0.750000
O O13 0.250000 0.935046 0.750000
O O14 0.000000 0.938770 0.677707
#
# Coordination Sequence:
#
# PCOD9482429 Si02
#       5
#    16  16  16  16  16
#     4  10  21  38  57  80 110 143 177 221 273 323
#     4  11  23  37  54  81 112 145 183 222 266 319
#     4  10  20  36  57  81 109 143 181 224 268 317
#     4  10  22  38  58  82 108 139 179 222 269 322
#     4   9  19  35  57  82 108 140 181 223 269 321
#
# _framework density 9.1449470000000002
#
# number of rings (size 3 to 8) (size 9 to 14) (size 15 to 20)
#    0.000    2.000    0.000    3.000    0.000    6.400 
#    0.000    4.000    0.000    0.000    0.000    0.000 
#    0.000    0.000    0.000    0.000    0.000    0.000 
#
# Total GULP energy -223361.597465 kJ/mol
# GULP energy per Si atom -5584.039937 kJ/mol
# Density = 0.912413 g / cm^3
# Si number density = 9.144947 Si / 1000 Ang^3
#
#
#
# Elastic Constant Matrix: (Units=GPa)
#
#
# Indices 1 2 3 4 5 6 
#
# 1 28.0710 24.0871 15.4795 0.0000 0.0000 0.0000
# 2 24.0871 91.3195 16.4063 0.0000 0.0000 0.0000
# 3 15.4795 16.4063 53.6948 0.0000 0.0000 0.0000
# 4 0.0000 0.0000 0.0000 6.9560 0.0000 0.0000
# 5 0.0000 0.0000 0.0000 0.0000 36.4944 0.0000
# 6 0.0000 0.0000 0.0000 0.0000 0.0000 26.4480
#
#
#
# Elastic Compliance Matrix: (Units=1/GPa)
#
#
# Indices 1 2 3 4 5 6 
#
# 1 0.051903 -0.011641 -0.011406 0.000000 0.000000 0.000000
# 2 -0.011641 0.014198 -0.000982 0.000000 0.000000 0.000000
# 3 -0.011406 -0.000982 0.022212 0.000000 0.000000 0.000000
# 4 0.000000 0.000000 0.000000 0.143761 0.000000 0.000000
# 5 0.000000 0.000000 0.000000 0.000000 0.027401 0.000000
# 6 0.000000 0.000000 0.000000 0.000000 0.000000 0.037810
#
#
# Mechanical properties :
#
#
# Convention : Reuss Voigt Hill
#
# Bulk Modulus (GPa) = 24.84219 31.67012 28.25615
# Shear Modulus (GPa) = 13.93685 21.78717 17.86201
#
# Velocity S-wave (km/s) = 2.76342 3.45514 3.12846
# Velocity P-wave (km/s) = 4.87791 5.76806 5.34156
#
# Compressibility (1/GPa) = 0.04025411
#
# Stress axis : x y z
#
# Youngs Moduli (GPa) = 19.26686 70.43486 45.02070
#
# Poissons Ratio (x) = 0.81993 0.51350
# Poissons Ratio (y) = 0.22429 0.04421
# Poissons Ratio (z) = 0.21976 0.06917
#
# Static dielectric constant tensor:
#      x y z
#    x 1.608230 0.000000 0.000000 
#    y 0.000000 1.634290 0.000000 
#    z 0.000000 0.000000 1.596390 
# 
# From -- ./inp_files/29784.got.cif
#   From: 2010.05.17/outbox.ucp.g08.bks.cvg/sg64_15_cif.got.tgz:29784.got - 2010.06.11 16:36:46.
