data_PCOD9482447
_publ_section_title
;
Structure prediction by ZEFSAII (Michael W. Deem and Ramdas Pophale) SiO2 
 PCOD9482447
Probable space group: C M C A
;
_chemical_formula_sum "Si O2"
_cell_formula_units_Z 40
_cell_length_a 9.000000
_cell_length_b 27.000000
_cell_length_c 18.000000
_cell_angle_alpha 90.000000
_cell_angle_beta 90.000000
_cell_angle_gamma 90.000000
_cell_volume 4374.000000
_symmetry_space_group_name_H-M "C M C A"
_symmetry_group_IT_number 64
_symmetry_cell_setting 'orthorhombic'
loop_
_space_group_symop_operation_xyz
x,y,z
-x,1/2-y,1/2+z
x,-y,-z
-x,1/2+y,1/2-z
-x,-y,-z
x,1/2+y,1/2-z
-x,y,z
x,1/2-y,1/2+z
1/2+x,1/2+y,z
1/2-x,-y,1/2+z
1/2+x,1/2-y,-z
1/2-x,y,1/2-z
1/2-x,1/2-y,-z
1/2+x,y,1/2-z
1/2-x,1/2+y,z
1/2+x,-y,1/2+z
loop_
_atom_site_type_symbol
_atom_site_label
_atom_site_fract_x
_atom_site_fract_y
_atom_site_fract_z
Si Si1 0.821295 0.890190 0.424726
Si Si2 0.178097 0.179727 0.170470
Si Si3 0.321033 0.579635 0.079787
Si Si4 0.679442 0.726169 0.573902
Si Si5 0.678698 0.487591 0.331179
O O1 0.739293 0.911118 0.497243
O O2 0.778205 0.831854 0.412767
O O3 0.790599 0.931789 0.361841
O O4 0.000000 0.890303 0.436450
O O5 0.250000 0.173986 0.250000
O O6 0.218049 0.131058 0.122401
O O7 0.221969 0.233026 0.135913
O O8 0.000000 0.179844 0.175848
O O9 0.500000 0.574033 0.080533
O O10 0.247021 0.531113 0.116963
O O11 0.500000 0.726884 0.567138
O O12 0.750000 0.750000 0.500000
O O13 0.500000 0.493735 0.328493
O O14 0.750000 0.493136 0.250000
#
# Coordination Sequence:
#
# PCOD9482447 Si02
#       5
#    16  16  16  16  16
#     4  10  22  39  62  87 117 155 196 243 297 353
#     4  10  22  37  56  86 119 150 192 239 290 347
#     4  11  22  38  61  89 118 153 198 246 293 351
#     4  10  20  38  60  85 116 152 193 240 289 344
#     4  11  24  41  59  85 119 157 198 242 295 352
#
# _framework density 9.1449470000000002
#
# number of rings (size 3 to 8) (size 9 to 14) (size 15 to 20)
#    0.000    1.600    2.000    2.400    0.000    8.800 
#    0.000    0.000    0.000    0.000    0.000    0.000 
#    0.000    0.000    0.000    0.000    0.000    0.000 
#
# Total GULP energy -223224.961797 kJ/mol
# GULP energy per Si atom -5580.624045 kJ/mol
# Density = 0.912413 g / cm^3
# Si number density = 9.144947 Si / 1000 Ang^3
#
#
#
# Elastic Constant Matrix: (Units=GPa)
#
#
# Indices 1 2 3 4 5 6 
#
# 1 30.8502 34.9338 21.3543 0.0000 0.0000 0.0000
# 2 34.9338 153.3047 24.2718 0.0000 0.0000 0.0000
# 3 21.3543 24.2718 64.2964 0.0000 0.0000 0.0000
# 4 0.0000 0.0000 0.0000 36.0601 0.0000 0.0000
# 5 0.0000 0.0000 0.0000 0.0000 33.8933 0.0000
# 6 0.0000 0.0000 0.0000 0.0000 0.0000 31.4745
#
#
#
# Elastic Compliance Matrix: (Units=1/GPa)
#
#
# Indices 1 2 3 4 5 6 
#
# 1 0.053339 -0.009944 -0.013961 0.000000 0.000000 0.000000
# 2 -0.009944 0.008791 -0.000016 0.000000 0.000000 0.000000
# 3 -0.013961 -0.000016 0.020196 0.000000 0.000000 0.000000
# 4 0.000000 0.000000 0.000000 0.027731 0.000000 0.000000
# 5 0.000000 0.000000 0.000000 0.000000 0.029504 0.000000
# 6 0.000000 0.000000 0.000000 0.000000 0.000000 0.031772
#
#
# Mechanical properties :
#
#
# Convention : Reuss Voigt Hill
#
# Bulk Modulus (GPa) = 28.99938 45.50790 37.25364
# Shear Modulus (GPa) = 21.67590 31.47834 26.57712
#
# Velocity S-wave (km/s) = 3.44631 4.15309 3.81610
# Velocity P-wave (km/s) = 5.63257 6.92337 6.31106
#
# Compressibility (1/GPa) = 0.03448350
#
# Stress axis : x y z
#
# Youngs Moduli (GPa) = 18.74808 113.74671 49.51503
#
# Poissons Ratio (x) = 1.13110 0.69129
# Poissons Ratio (y) = 0.18643 0.00080
# Poissons Ratio (z) = 0.26175 0.00183
#
# Static dielectric constant tensor:
#      x y z
#    x 1.617180 0.000000 0.000000 
#    y 0.000000 1.647860 0.000000 
#    z 0.000000 0.000000 1.623040 
# 
# From -- ./inp_files/29786.got.cif
#   From: 2010.05.17/outbox.ucp.g08.bks.cvg/sg64_15_cif.got.tgz:29786.got - 2010.06.11 16:36:46.
