data_PCOD9482139
_publ_section_title
;
Structure prediction by ZEFSAII (Michael W. Deem and Ramdas Pophale) SiO2 
 PCOD9482139
Probable space group: C M C A
;
_chemical_formula_sum "Si O2"
_cell_formula_units_Z 64
_cell_length_a 11.827003
_cell_length_b 14.183587
_cell_length_c 16.719346
_cell_angle_alpha 90.000000
_cell_angle_beta 90.000000
_cell_angle_gamma 90.000000
_cell_volume 2804.659023
_symmetry_space_group_name_H-M "C M C A"
_symmetry_group_IT_number 64
_symmetry_cell_setting 'orthorhombic'
loop_
_space_group_symop_operation_xyz
x,y,z
-x,1/2-y,1/2+z
x,-y,-z
-x,1/2+y,1/2-z
-x,-y,-z
x,1/2+y,1/2-z
-x,y,z
x,1/2-y,1/2+z
1/2+x,1/2+y,z
1/2-x,-y,1/2+z
1/2+x,1/2-y,-z
1/2-x,y,1/2-z
1/2-x,1/2-y,-z
1/2+x,y,1/2-z
1/2-x,1/2+y,z
1/2+x,-y,1/2+z
loop_
_atom_site_type_symbol
_atom_site_label
_atom_site_fract_x
_atom_site_fract_y
_atom_site_fract_z
Si Si1 0.754488 0.817267 0.122861
Si Si2 0.373284 0.333389 0.713578
Si Si3 0.631008 0.146436 0.451252
Si Si4 0.318183 0.486688 0.591174
O O1 0.843974 0.773240 0.184781
O O2 0.665463 0.733733 0.105440
O O3 0.690222 0.915003 0.137968
O O4 0.817336 0.832874 0.038388
O O5 0.500000 0.338139 0.751547
O O6 0.250000 0.364038 0.750000
O O7 0.379736 0.402976 0.637142
O O8 0.500000 0.135264 0.456902
O O9 0.691271 0.053379 0.418817
O O10 0.361251 0.500000 0.500000
#
# Coordination Sequence:
#
# PCOD9482139 Si02
#       4
#    16  16  16  16
#     4   9  19  35  56  84 115 153 195 238 297 361
#     4  11  25  43  61  86 124 166 209 257 308 370
#     4   9  17  31  55  88 121 148 184 239 297 357
#     4   9  20  38  62  94 122 152 201 259 314 366
#
# _framework density 22.819171999999998
#
# number of rings (size 3 to 8) (size 9 to 14) (size 15 to 20)
#    0.000    2.500    0.000    2.250    0.000   12.000 
#    0.000    2.500    0.000    0.000    0.000    0.000 
#    0.000    0.000    0.000    0.000    0.000    0.000 
#
# Total GULP energy -178406.737692 kJ/mol
# GULP energy per Si atom -5575.210553 kJ/mol
# Density = 2.276723 g / cm^3
# Si number density = 22.819172 Si / 1000 Ang^3
#
#
#
# Elastic Constant Matrix: (Units=GPa)
#
#
# Indices 1 2 3 4 5 6 
#
# 1 122.8695 2.6738 19.3168 0.0000 0.0000 0.0000
# 2 2.6738 118.9273 8.4508 0.0000 0.0000 0.0000
# 3 19.3168 8.4508 45.8064 0.0000 0.0000 0.0000
# 4 0.0000 0.0000 0.0000 31.1060 0.0000 0.0000
# 5 0.0000 0.0000 0.0000 0.0000 19.4673 0.0000
# 6 0.0000 0.0000 0.0000 0.0000 0.0000 -4.9323
#
#
#
# Elastic Compliance Matrix: (Units=1/GPa)
#
#
# Indices 1 2 3 4 5 6 
#
# 1 0.008717 0.000066 -0.003688 0.000000 0.000000 0.000000
# 2 0.000066 0.008521 -0.001600 0.000000 0.000000 0.000000
# 3 -0.003688 -0.001600 0.023682 0.000000 0.000000 0.000000
# 4 0.000000 0.000000 0.000000 0.032148 0.000000 0.000000
# 5 0.000000 0.000000 0.000000 0.000000 0.051368 0.000000
# 6 0.000000 0.000000 0.000000 0.000000 0.000000 -0.202745
#
#
# Mechanical properties :
#
#
# Convention : Reuss Voigt Hill
#
# Bulk Modulus (GPa) = 32.81344 38.72069 35.76706
# Shear Modulus (GPa) = -86.64475 26.27231 -30.18622
#
# Velocity S-wave (km/s) = -6.16868 3.39680 -3.64104
# Velocity P-wave (km/s) = 6.02709 5.69119 1.40288
#
# Compressibility (1/GPa) = 0.03047532
#
# Stress axis : x y z
#
# Youngs Moduli (GPa) = 114.71670 117.36132 42.22699
#
# Poissons Ratio (x) = -0.00776 0.15574
# Poissons Ratio (y) = -0.00758 0.06756
# Poissons Ratio (z) = 0.42310 0.18776
#
# Static dielectric constant tensor:
#      x y z
#    x 1.832590 0.000000 0.000000 
#    y 0.000000 1.844870 0.000000 
#    z 0.000000 0.000000 1.965190 
# 
# From -- ./inp_files/30438.got.cif
#   From: 2010.05.17/outbox.cif.g08.bks.cpg/sg64_16_cif.got.tgz:30438.got - 2010.06.03 16:29:19.
