data_PCOD9482956
_publ_section_title
;
Structure prediction by ZEFSAII (Michael W. Deem and Ramdas Pophale) SiO2 
 PCOD9482956
Probable space group: C M M M
;
_chemical_formula_sum "Si O2"
_cell_formula_units_Z 96
_cell_length_a 8.003105
_cell_length_b 24.509342
_cell_length_c 26.433242
_cell_angle_alpha 90.000000
_cell_angle_beta 90.000000
_cell_angle_gamma 90.000000
_cell_volume 5184.902556
_symmetry_space_group_name_H-M "C M M M"
_symmetry_group_IT_number 65
_symmetry_cell_setting 'orthorhombic'
loop_
_space_group_symop_operation_xyz
x,y,z
-x,-y,z
x,-y,-z
-x,y,-z
-x,-y,-z
x,y,-z
-x,y,z
x,-y,z
1/2+x,1/2+y,z
1/2-x,1/2-y,z
1/2+x,1/2-y,-z
1/2-x,1/2+y,-z
1/2-x,1/2-y,-z
1/2+x,1/2+y,-z
1/2-x,1/2+y,z
1/2+x,1/2-y,z
loop_
_atom_site_type_symbol
_atom_site_label
_atom_site_fract_x
_atom_site_fract_y
_atom_site_fract_z
Si Si1 0.796212 0.063164 0.942786
Si Si2 0.702122 0.612571 0.158983
Si Si3 0.703106 0.500000 0.210201
Si Si4 0.795755 0.000000 0.672783
Si Si5 0.298200 0.686986 0.555956
Si Si6 0.803579 0.687030 0.249745
Si Si7 0.799625 0.880401 0.651568
O O1 0.742648 0.105250 0.899286
O O2 0.000000 0.063189 0.942785
O O3 0.748373 0.000000 0.931046
O O4 0.741177 0.075573 0.000000
O O5 0.500000 0.613840 0.159324
O O6 0.758958 0.555795 0.184549
O O7 0.758560 0.661352 0.195162
O O8 0.500000 0.500000 0.206944
O O9 0.750193 0.500000 0.268383
O O10 0.736110 0.942501 0.651000
O O11 0.000000 0.000000 0.670220
O O12 0.240530 0.668675 0.500000
O O13 0.500000 0.683774 0.556151
O O14 0.250000 0.750000 0.561753
O O15 0.233332 0.653420 0.603827
O O16 0.750000 0.750000 0.253814
O O17 0.730769 0.650023 0.295158
O O18 0.000000 0.684799 0.255852
O O19 0.000000 0.883270 0.646501
#
# Coordination Sequence:
#
# PCOD9482956 Si02
#       7
#    16  16   8   8  16  16  16
#     4   8  13  22  43  78 111 136 167 205 242 289
#     4  10  17  30  52  76 105 139 170 204 246 297
#     4   9  14  24  47  75 101 134 171 196 235 295
#     4   9  16  28  49  75 103 136 169 196 239 301
#     4   9  18  32  51  75 101 131 170 214 255 295
#     4  12  25  38  52  73 100 130 169 215 260 304
#     4  10  19  34  55  77 104 136 169 204 248 303
#
# _framework density 18.515294000000001
#
# number of rings (size 3 to 8) (size 9 to 14) (size 15 to 20)
#    0.000    2.333    2.500    2.500    0.000    2.000 
#    0.000    2.083    0.000    3.500    0.000    1.167 
#    0.000    4.000    0.000    0.000    0.000    0.000 
#
# Total GULP energy -267597.467556 kJ/mol
# GULP energy per Si atom -5574.947241 kJ/mol
# Density = 1.847315 g / cm^3
# Si number density = 18.515294 Si / 1000 Ang^3
#
#
#
# Elastic Constant Matrix: (Units=GPa)
#
#
# Indices 1 2 3 4 5 6 
#
# 1 15.2215 4.2873 3.7520 0.0000 0.0000 0.0000
# 2 4.2873 116.1396 71.1375 0.0000 0.0000 0.0000
# 3 3.7520 71.1375 143.7223 0.0000 0.0000 0.0000
# 4 0.0000 0.0000 0.0000 33.6603 0.0000 0.0000
# 5 0.0000 0.0000 0.0000 0.0000 2.8028 0.0000
# 6 0.0000 0.0000 0.0000 0.0000 0.0000 10.2979
#
#
#
# Elastic Compliance Matrix: (Units=1/GPa)
#
#
# Indices 1 2 3 4 5 6 
#
# 1 0.066443 -0.001995 -0.000747 0.000000 0.000000 0.000000
# 2 -0.001995 0.012416 -0.006094 0.000000 0.000000 0.000000
# 3 -0.000747 -0.006094 0.009993 0.000000 0.000000 0.000000
# 4 0.000000 0.000000 0.000000 0.029709 0.000000 0.000000
# 5 0.000000 0.000000 0.000000 0.000000 0.356787 0.000000
# 6 0.000000 0.000000 0.000000 0.000000 0.000000 0.097108
#
#
# Mechanical properties :
#
#
# Convention : Reuss Voigt Hill
#
# Bulk Modulus (GPa) = 14.04868 48.15966 31.10417
# Shear Modulus (GPa) = 8.14525 22.41263 15.27894
#
# Velocity S-wave (km/s) = 2.09970 3.48299 2.87576
# Velocity P-wave (km/s) = 3.67184 6.49940 5.27847
#
# Compressibility (1/GPa) = 0.07118106
#
# Stress axis : x y z
#
# Youngs Moduli (GPa) = 15.05056 80.53855 100.06526
#
# Poissons Ratio (x) = 0.16069 0.07475
# Poissons Ratio (y) = 0.03003 0.60976
# Poissons Ratio (z) = 0.01124 0.49077
#
# Static dielectric constant tensor:
#      x y z
#    x 1.669450 0.000000 0.000000 
#    y 0.000000 1.598820 0.000000 
#    z 0.000000 0.000000 1.664130 
# 
# From -- ./inp_files/73484.got.cif
#   From: 2010.05.17/outbox.cif.g08.bks.cpg/sg65_37_cif.got.tgz:73484.got - 2010.06.03 17:01:31.
