data_PCOD9482105
_publ_section_title
;
Structure prediction by ZEFSAII (Michael W. Deem and Ramdas Pophale) SiO2 
 PCOD9482105
Probable space group: C M C A
;
_chemical_formula_sum "Si O2"
_cell_formula_units_Z 64
_cell_length_a 10.072127
_cell_length_b 9.774815
_cell_length_c 32.041231
_cell_angle_alpha 90.000000
_cell_angle_beta 90.000000
_cell_angle_gamma 90.000000
_cell_volume 3154.561022
_symmetry_space_group_name_H-M "C M C A"
_symmetry_group_IT_number 64
_symmetry_cell_setting 'orthorhombic'
loop_
_space_group_symop_operation_xyz
x,y,z
-x,1/2-y,1/2+z
x,-y,-z
-x,1/2+y,1/2-z
-x,-y,-z
x,1/2+y,1/2-z
-x,y,z
x,1/2-y,1/2+z
1/2+x,1/2+y,z
1/2-x,-y,1/2+z
1/2+x,1/2-y,-z
1/2-x,y,1/2-z
1/2-x,1/2-y,-z
1/2+x,y,1/2-z
1/2-x,1/2+y,z
1/2+x,-y,1/2+z
loop_
_atom_site_type_symbol
_atom_site_label
_atom_site_fract_x
_atom_site_fract_y
_atom_site_fract_z
Si Si1 0.000000 0.630396 0.285179
Si Si2 0.500000 0.368220 0.442590
Si Si3 0.000000 0.049800 0.702565
Si Si4 0.719661 0.693007 0.902271
Si Si5 0.000000 0.807593 0.539146
Si Si6 0.259105 0.550466 0.154907
O O1 0.000000 0.794413 0.281597
O O2 0.869942 0.585638 0.311035
O O3 0.000000 0.555327 0.240948
O O4 0.630458 0.322029 0.418277
O O5 0.500000 0.307991 0.489291
O O6 0.500000 0.533246 0.446753
O O7 0.868198 0.022288 0.675502
O O8 0.626573 0.733801 0.940640
O O9 0.682382 0.551536 0.879929
O O10 0.712001 0.812351 0.868042
#
# Coordination Sequence:
#
# PCOD9482105 Si02
#       6
#     8   8   8  16   8  16
#     4  12  28  46  68 101 136 174 221 273 332 399
#     4  11  24  44  65 101 141 171 222 282 330 396
#     4  12  28  47  67 102 137 174 219 275 334 397
#     4  12  23  45  70  99 131 180 223 274 331 392
#     4  11  24  43  68  98 138 181 216 276 342 390
#     4  12  25  45  72  96 137 174 224 277 326 394
#
# _framework density 20.288083
#
# number of rings (size 3 to 8) (size 9 to 14) (size 15 to 20)
#    0.000    0.250    5.000    4.500    3.500    2.000 
#    0.000    1.250    0.000    0.000    0.000    0.000 
#    0.000    0.000    0.000    0.000    0.000    0.000 
#
# Total GULP energy -179218.340476 kJ/mol
# GULP energy per Si atom -5600.573140 kJ/mol
# Density = 2.024191 g / cm^3
# Si number density = 20.288083 Si / 1000 Ang^3
#
#
#
# Elastic Constant Matrix: (Units=GPa)
#
#
# Indices 1 2 3 4 5 6 
#
# 1 95.4310 28.4620 28.8180 0.0000 0.0000 0.0000
# 2 28.4620 74.9954 7.1968 0.0000 0.0000 0.0000
# 3 28.8180 7.1968 72.7266 0.0000 0.0000 0.0000
# 4 0.0000 0.0000 0.0000 41.9899 0.0000 0.0000
# 5 0.0000 0.0000 0.0000 0.0000 -19.0566 0.0000
# 6 0.0000 0.0000 0.0000 0.0000 0.0000 24.2190
#
#
#
# Elastic Compliance Matrix: (Units=1/GPa)
#
#
# Indices 1 2 3 4 5 6 
#
# 1 0.013301 -0.004586 -0.004817 0.000000 0.000000 0.000000
# 2 -0.004586 0.015043 0.000328 0.000000 0.000000 0.000000
# 3 -0.004817 0.000328 0.015626 0.000000 0.000000 0.000000
# 4 0.000000 0.000000 0.000000 0.023815 0.000000 0.000000
# 5 0.000000 0.000000 0.000000 0.000000 -0.052475 0.000000
# 6 0.000000 0.000000 0.000000 0.000000 0.000000 0.041290
#
#
# Mechanical properties :
#
#
# Convention : Reuss Voigt Hill
#
# Bulk Modulus (GPa) = 38.72624 41.34518 40.03571
# Shear Modulus (GPa) = 59.98405 21.34221 40.66313
#
# Velocity S-wave (km/s) = 5.44338 3.24691 4.48178
# Velocity P-wave (km/s) = 7.65746 5.87195 6.82336
#
# Compressibility (1/GPa) = 0.02582228
#
# Stress axis : x y z
#
# Youngs Moduli (GPa) = 75.18239 66.47620 63.99488
#
# Poissons Ratio (x) = 0.30484 0.30825
# Poissons Ratio (y) = 0.34477 -0.02102
# Poissons Ratio (z) = 0.36213 -0.02184
#
# Static dielectric constant tensor:
#      x y z
#    x 1.724850 0.000000 0.000000 
#    y 0.000000 1.691150 0.000000 
#    z 0.000000 0.000000 1.684320 
# 
# From -- ./inp_files/51589.got.cif
#   From: 2010.05.17/outbox.cif.g08.bks.cpg/sg64_26_cif.got.tgz:51589.got - 2010.06.03 16:29:19.
