data_PCOD9482482
_publ_section_title
;
Structure prediction by ZEFSAII (Michael W. Deem and Ramdas Pophale) SiO2 
 PCOD9482482
Probable space group: C M C A
;
_chemical_formula_sum "Si O2"
_cell_formula_units_Z 48
_cell_length_a 15.000000
_cell_length_b 21.000000
_cell_length_c 15.000000
_cell_angle_alpha 90.000000
_cell_angle_beta 90.000000
_cell_angle_gamma 90.000000
_cell_volume 4725.000000
_symmetry_space_group_name_H-M "C M C A"
_symmetry_group_IT_number 64
_symmetry_cell_setting 'orthorhombic'
loop_
_space_group_symop_operation_xyz
x,y,z
-x,1/2-y,1/2+z
x,-y,-z
-x,1/2+y,1/2-z
-x,-y,-z
x,1/2+y,1/2-z
-x,y,z
x,1/2-y,1/2+z
1/2+x,1/2+y,z
1/2-x,-y,1/2+z
1/2+x,1/2-y,-z
1/2-x,y,1/2-z
1/2-x,1/2-y,-z
1/2+x,y,1/2-z
1/2-x,1/2+y,z
1/2+x,-y,1/2+z
loop_
_atom_site_type_symbol
_atom_site_label
_atom_site_fract_x
_atom_site_fract_y
_atom_site_fract_z
Si Si1 0.393672 0.995845 0.777101
Si Si2 0.104436 0.853447 0.302097
Si Si3 0.392340 0.623499 0.400434
Si Si4 0.749205 0.650937 0.943673
Si Si5 0.101700 0.269239 0.377989
Si Si6 0.395307 0.039372 0.590205
O O1 0.500000 0.991104 0.782482
O O2 0.364452 0.937078 0.839093
O O3 0.374183 0.070299 0.798818
O O4 0.369764 0.993571 0.672758
O O5 0.181336 0.828678 0.366628
O O6 0.110772 0.814700 0.209132
O O7 0.000000 0.847509 0.330998
O O8 0.500000 0.615049 0.426250
O O9 0.318201 0.629463 0.478746
O O10 0.388761 0.694059 0.355986
O O11 0.676348 0.708132 0.948763
O O12 0.681317 0.592637 0.919840
O O13 0.000000 0.277428 0.412039
O O14 0.500000 0.062416 0.606750
O O15 0.398003 0.000000 0.500000
#
# Coordination Sequence:
#
# PCOD9482482 Si02
#       6
#    16  16  16  16  16  16
#     4   9  19  40  64  89 122 165 207 263 321 370
#     4  10  21  38  65  91 123 167 217 260 314 382
#     4  10  23  41  64  96 135 164 207 271 330 379
#     4  12  22  37  64  96 128 163 218 258 321 378
#     4  10  21  41  64  89 127 181 221 258 313 384
#     4  10  22  40  62  91 126 166 213 260 311 376
#
# _framework density 10.15873
#
# number of rings (size 3 to 8) (size 9 to 14) (size 15 to 20)
#    0.000    1.833    1.667    2.000    2.333    0.000 
#    0.000    7.500    0.000    8.000    0.000    0.000 
#    0.000    0.000    0.000    0.000    0.000    0.000 
#
# Total GULP energy -267445.174082 kJ/mol
# GULP energy per Si atom -5571.774460 kJ/mol
# Density = 1.013561 g / cm^3
# Si number density = 10.158730 Si / 1000 Ang^3
#
#
#
# Elastic Constant Matrix: (Units=GPa)
#
#
# Indices 1 2 3 4 5 6 
#
# 1 134.5036 46.1957 49.9488 0.0000 0.0000 0.0000
# 2 46.1957 92.3823 27.0313 0.0000 0.0000 0.0000
# 3 49.9488 27.0313 65.6613 0.0000 0.0000 0.0000
# 4 0.0000 0.0000 0.0000 29.7913 0.0000 0.0000
# 5 0.0000 0.0000 0.0000 0.0000 29.1675 0.0000
# 6 0.0000 0.0000 0.0000 0.0000 0.0000 34.2623
#
#
#
# Elastic Compliance Matrix: (Units=1/GPa)
#
#
# Indices 1 2 3 4 5 6 
#
# 1 0.011310 -0.003568 -0.007134 0.000000 0.000000 0.000000
# 2 -0.003568 0.013433 -0.002816 0.000000 0.000000 0.000000
# 3 -0.007134 -0.002816 0.021816 0.000000 0.000000 0.000000
# 4 0.000000 0.000000 0.000000 0.033567 0.000000 0.000000
# 5 0.000000 0.000000 0.000000 0.000000 0.034285 0.000000
# 6 0.000000 0.000000 0.000000 0.000000 0.000000 0.029187
#
#
# Mechanical properties :
#
#
# Convention : Reuss Voigt Hill
#
# Bulk Modulus (GPa) = 51.22413 59.87765 55.55089
# Shear Modulus (GPa) = 28.22626 29.93563 29.08095
#
# Velocity S-wave (km/s) = 3.73132 3.84265 3.78739
# Velocity P-wave (km/s) = 6.62045 7.01590 6.82104
#
# Compressibility (1/GPa) = 0.01952205
#
# Stress axis : x y z
#
# Youngs Moduli (GPa) = 88.42100 74.44590 45.83769
#
# Poissons Ratio (x) = 0.26561 0.32703
# Poissons Ratio (y) = 0.31547 0.12907
# Poissons Ratio (z) = 0.63083 0.20963
#
# Static dielectric constant tensor:
#      x y z
#    x 1.738340 0.000000 0.000000 
#    y 0.000000 1.757770 0.000000 
#    z 0.000000 0.000000 1.772050 
# 
# From -- ./inp_files/23877.got.cif
#   From: 2010.05.17/outbox.ucp.g08.bks.cvg/sg64_12_cif.got.tgz:23877.got - 2010.06.11 16:36:46.
