data_PCOD9482245
_publ_section_title
;
Structure prediction by ZEFSAII (Michael W. Deem and Ramdas Pophale) SiO2 
 PCOD9482245
Probable space group: C M C A
;
_chemical_formula_sum "Si O2"
_cell_formula_units_Z 64
_cell_length_a 22.857207
_cell_length_b 8.880271
_cell_length_c 14.830732
_cell_angle_alpha 90.000000
_cell_angle_beta 90.000000
_cell_angle_gamma 90.000000
_cell_volume 3010.315174
_symmetry_space_group_name_H-M "C M C A"
_symmetry_group_IT_number 64
_symmetry_cell_setting 'orthorhombic'
loop_
_space_group_symop_operation_xyz
x,y,z
-x,1/2-y,1/2+z
x,-y,-z
-x,1/2+y,1/2-z
-x,-y,-z
x,1/2+y,1/2-z
-x,y,z
x,1/2-y,1/2+z
1/2+x,1/2+y,z
1/2-x,-y,1/2+z
1/2+x,1/2-y,-z
1/2-x,y,1/2-z
1/2-x,1/2-y,-z
1/2+x,y,1/2-z
1/2-x,1/2+y,z
1/2+x,-y,1/2+z
loop_
_atom_site_type_symbol
_atom_site_label
_atom_site_fract_x
_atom_site_fract_y
_atom_site_fract_z
Si Si1 0.431120 0.691846 0.667008
Si Si2 0.698183 0.756504 0.427874
Si Si3 0.365866 0.007346 0.675931
Si Si4 0.614104 0.000000 0.000000
Si Si5 0.750000 0.362857 0.750000
O O1 0.500000 0.709969 0.682094
O O2 0.402119 0.612201 0.754732
O O3 0.420548 0.589443 0.578033
O O4 0.401007 0.854868 0.654290
O O5 0.750000 0.750000 0.500000
O O6 0.657037 0.900624 0.410873
O O7 0.655523 0.618833 0.449394
O O8 0.732537 0.734853 0.335112
O O9 0.307098 0.957271 0.726726
#
# Coordination Sequence:
#
# PCOD9482245 Si02
#       5
#    16  16  16   8   8
#     4  12  26  48  76 107 150 204 258 311 364 442
#     4  12  26  44  73 112 155 188 237 304 380 457
#     4  12  25  47  73 110 148 196 249 301 380 449
#     4  12  25  48  68 110 148 192 251 310 372 432
#     4  12  22  44  72 110 150 192 234 302 380 448
#
# _framework density 21.260231999999998
#
# number of rings (size 3 to 8) (size 9 to 14) (size 15 to 20)
#    0.000    0.000    5.000    4.875    0.000    3.000 
#    0.000    5.000    0.000    0.000    0.000    0.000 
#    0.000    0.000    0.000    0.000    0.000    0.000 
#
# Total GULP energy -179099.359057 kJ/mol
# GULP energy per Si atom -5596.854971 kJ/mol
# Density = 2.121184 g / cm^3
# Si number density = 21.260232 Si / 1000 Ang^3
#
#
#
# Elastic Constant Matrix: (Units=GPa)
#
#
# Indices 1 2 3 4 5 6 
#
# 1 182.8449 91.5762 50.2472 0.0000 0.0000 0.0000
# 2 91.5762 167.7404 75.9060 0.0000 0.0000 0.0000
# 3 50.2472 75.9060 122.3760 0.0000 0.0000 0.0000
# 4 0.0000 0.0000 0.0000 39.8273 0.0000 0.0000
# 5 0.0000 0.0000 0.0000 0.0000 26.1201 0.0000
# 6 0.0000 0.0000 0.0000 0.0000 0.0000 20.2862
#
#
#
# Elastic Compliance Matrix: (Units=1/GPa)
#
#
# Indices 1 2 3 4 5 6 
#
# 1 0.007578 -0.003794 -0.000758 0.000000 0.000000 0.000000
# 2 -0.003794 0.010187 -0.004761 0.000000 0.000000 0.000000
# 3 -0.000758 -0.004761 0.011436 0.000000 0.000000 0.000000
# 4 0.000000 0.000000 0.000000 0.025108 0.000000 0.000000
# 5 0.000000 0.000000 0.000000 0.000000 0.038285 0.000000
# 6 0.000000 0.000000 0.000000 0.000000 0.000000 0.049295
#
#
# Mechanical properties :
#
#
# Convention : Reuss Voigt Hill
#
# Bulk Modulus (GPa) = 94.56542 100.93557 97.75050
# Shear Modulus (GPa) = 30.48047 34.26220 32.37133
#
# Velocity S-wave (km/s) = 3.79051 4.01878 3.90631
# Velocity P-wave (km/s) = 7.98335 8.31345 8.15007
#
# Compressibility (1/GPa) = 0.01057469
#
# Stress axis : x y z
#
# Youngs Moduli (GPa) = 131.96864 98.16148 87.44317
#
# Poissons Ratio (x) = 0.37241 0.06629
# Poissons Ratio (y) = 0.50067 0.41633
# Poissons Ratio (z) = 0.10005 0.46736
#
# Static dielectric constant tensor:
#      x y z
#    x 1.721810 0.000000 0.000000 
#    y 0.000000 1.903320 0.000000 
#    z 0.000000 0.000000 1.816390 
# 
# From -- ./inp_files/26958.got.cif
#   From: 2010.05.17/outbox.cif.g08.bks.cpg/sg64_14_cif.got.tgz:26958.got - 2010.06.03 16:29:19.
