data_PCOD9482422
_publ_section_title
;
Structure prediction by ZEFSAII (Michael W. Deem and Ramdas Pophale) SiO2 
 PCOD9482422
Probable space group: C M C A
;
_chemical_formula_sum "Si O2"
_cell_formula_units_Z 56
_cell_length_a 15.000000
_cell_length_b 15.000000
_cell_length_c 27.000000
_cell_angle_alpha 90.000000
_cell_angle_beta 90.000000
_cell_angle_gamma 90.000000
_cell_volume 6075.000000
_symmetry_space_group_name_H-M "C M C A"
_symmetry_group_IT_number 64
_symmetry_cell_setting 'orthorhombic'
loop_
_space_group_symop_operation_xyz
x,y,z
-x,1/2-y,1/2+z
x,-y,-z
-x,1/2+y,1/2-z
-x,-y,-z
x,1/2+y,1/2-z
-x,y,z
x,1/2-y,1/2+z
1/2+x,1/2+y,z
1/2-x,-y,1/2+z
1/2+x,1/2-y,-z
1/2-x,y,1/2-z
1/2-x,1/2-y,-z
1/2+x,y,1/2-z
1/2-x,1/2+y,z
1/2+x,-y,1/2+z
loop_
_atom_site_type_symbol
_atom_site_label
_atom_site_fract_x
_atom_site_fract_y
_atom_site_fract_z
Si Si1 0.107554 0.359197 0.396081
Si Si2 0.257949 0.002498 0.442407
Si Si3 0.245703 0.793128 0.902694
Si Si4 0.895815 0.956842 0.304887
Si Si5 0.606611 0.865078 0.089732
Si Si6 0.895600 0.327847 0.280272
Si Si7 0.198872 0.142426 0.298527
O O1 0.163373 0.444819 0.415665
O O2 0.165301 0.269670 0.411124
O O3 0.113579 0.361913 0.336420
O O4 0.000000 0.356230 0.408687
O O5 0.166021 0.945061 0.434645
O O6 0.279237 0.000000 0.500000
O O7 0.251811 0.107823 0.427365
O O8 0.162248 0.727964 0.916701
O O9 0.244779 0.818263 0.844298
O O10 0.889701 0.893011 0.352512
O O11 0.858249 0.899381 0.258869
O O12 0.000000 0.975764 0.294933
O O13 0.852237 0.053041 0.315595
O O14 0.500000 0.860925 0.075922
O O15 0.857253 0.228088 0.280183
O O16 0.000000 0.319916 0.268624
O O17 0.250000 0.111926 0.250000
#
# Coordination Sequence:
#
# PCOD9482422 Si02
#       7
#    16  16  16  16  16  16  16
#     4   9  21  40  63  88 119 159 199 242 300 363
#     4  11  24  42  62  89 122 153 199 260 314 364
#     4  10  22  40  60  89 120 155 199 248 296 354
#     4  10  20  35  56  83 117 156 195 240 286 348
#     4  10  22  41  63  88 121 159 201 248 302 359
#     4   9  19  36  54  80 117 152 195 240 282 347
#     4  11  21  31  56  85 115 158 193 235 287 355
#
# _framework density 9.2181069999999998
#
# number of rings (size 3 to 8) (size 9 to 14) (size 15 to 20)
#    0.000    2.000    1.429    1.286    2.000    6.286 
#    0.000    2.143    0.000    0.000    0.000    0.000 
#    0.000    0.000    0.000    0.000    0.000    0.000 
#
# Total GULP energy -312003.104427 kJ/mol
# GULP energy per Si atom -5571.484008 kJ/mol
# Density = 0.919713 g / cm^3
# Si number density = 9.218107 Si / 1000 Ang^3
#
#
#
# Elastic Constant Matrix: (Units=GPa)
#
#
# Indices 1 2 3 4 5 6 
#
# 1 92.7526 34.9120 3.8887 0.0000 0.0000 0.0000
# 2 34.9120 142.7982 10.7694 0.0000 0.0000 0.0000
# 3 3.8887 10.7694 26.3310 0.0000 0.0000 0.0000
# 4 0.0000 0.0000 0.0000 17.9398 0.0000 0.0000
# 5 0.0000 0.0000 0.0000 0.0000 16.6499 0.0000
# 6 0.0000 0.0000 0.0000 0.0000 0.0000 12.6616
#
#
#
# Elastic Compliance Matrix: (Units=1/GPa)
#
#
# Indices 1 2 3 4 5 6 
#
# 1 0.011883 -0.002861 -0.000585 0.000000 0.000000 0.000000
# 2 -0.002861 0.007915 -0.002815 0.000000 0.000000 0.000000
# 3 -0.000585 -0.002815 0.039216 0.000000 0.000000 0.000000
# 4 0.000000 0.000000 0.000000 0.055742 0.000000 0.000000
# 5 0.000000 0.000000 0.000000 0.000000 0.060060 0.000000
# 6 0.000000 0.000000 0.000000 0.000000 0.000000 0.078979
#
#
# Mechanical properties :
#
#
# Convention : Reuss Voigt Hill
#
# Bulk Modulus (GPa) = 21.50893 40.11355 30.81124
# Shear Modulus (GPa) = 17.74228 23.60436 20.67332
#
# Velocity S-wave (km/s) = 3.10556 3.58205 3.35228
# Velocity P-wave (km/s) = 4.95493 6.23805 5.63315
#
# Compressibility (1/GPa) = 0.04649232
#
# Stress axis : x y z
#
# Youngs Moduli (GPa) = 84.15531 126.34806 25.50006
#
# Poissons Ratio (x) = 0.36149 0.01491
# Poissons Ratio (y) = 0.24077 0.07177
# Poissons Ratio (z) = 0.04921 0.35562
#
# Static dielectric constant tensor:
#      x y z
#    x 1.673800 0.000000 0.000000 
#    y 0.000000 1.628710 0.000000 
#    z 0.000000 0.000000 1.648930 
# 
# From -- ./inp_files/45267.got.cif
#   From: 2010.05.17/outbox.ucp.g08.bks.cvg/sg64_23_cif.got.tgz:45267.got - 2010.06.11 16:36:46.
