data_PCOD9482451
_publ_section_title
;
Structure prediction by ZEFSAII (Michael W. Deem and Ramdas Pophale) SiO2 
 PCOD9482451
Probable space group: C M C A
;
_chemical_formula_sum "Si O2"
_cell_formula_units_Z 48
_cell_length_a 9.000000
_cell_length_b 27.000000
_cell_length_c 21.000000
_cell_angle_alpha 90.000000
_cell_angle_beta 90.000000
_cell_angle_gamma 90.000000
_cell_volume 5103.000000
_symmetry_space_group_name_H-M "C M C A"
_symmetry_group_IT_number 64
_symmetry_cell_setting 'orthorhombic'
loop_
_space_group_symop_operation_xyz
x,y,z
-x,1/2-y,1/2+z
x,-y,-z
-x,1/2+y,1/2-z
-x,-y,-z
x,1/2+y,1/2-z
-x,y,z
x,1/2-y,1/2+z
1/2+x,1/2+y,z
1/2-x,-y,1/2+z
1/2+x,1/2-y,-z
1/2-x,y,1/2-z
1/2-x,1/2-y,-z
1/2+x,y,1/2-z
1/2-x,1/2+y,z
1/2+x,-y,1/2+z
loop_
_atom_site_type_symbol
_atom_site_label
_atom_site_fract_x
_atom_site_fract_y
_atom_site_fract_z
Si Si1 0.833509 0.623924 0.505347
Si Si2 0.830131 0.226707 0.060943
Si Si3 0.831691 0.462538 0.940900
Si Si4 0.822595 0.867115 0.361137
Si Si5 0.677115 0.267353 0.184734
Si Si6 0.822102 0.523315 0.815821
O O1 0.834614 0.669671 0.457542
O O2 0.781527 0.578115 0.464136
O O3 0.723626 0.632338 0.564627
O O4 0.000000 0.617932 0.531924
O O5 0.738545 0.237837 0.124043
O O6 0.000000 0.245331 0.067748
O O7 0.750000 0.250000 0.000000
O O8 0.783714 0.490302 0.876979
O O9 0.000000 0.442558 0.931406
O O10 0.840743 0.500000 0.000000
O O11 0.735130 0.823103 0.327315
O O12 0.780460 0.920085 0.331812
O O13 0.000000 0.860337 0.354879
O O14 0.500000 0.266059 0.187822
O O15 0.750000 0.248960 0.250000
O O16 0.750000 0.507141 0.750000
O O17 0.000000 0.522023 0.810014
#
# Coordination Sequence:
#
# PCOD9482451 Si02
#       6
#    16  16  16  16  16  16
#     4  11  23  37  59  93 122 150 197 251 299 352
#     4  11  23  40  62  89 122 159 202 250 301 359
#     4  10  20  39  61  83 116 158 202 242 291 354
#     4  11  21  37  61  88 123 161 196 242 301 360
#     4  12  25  41  61  90 124 161 204 249 304 365
#     4  10  22  38  58  86 118 157 196 241 294 355
#
# _framework density 9.4062319999999993
#
# number of rings (size 3 to 8) (size 9 to 14) (size 15 to 20)
#    0.000    1.167    3.333    3.500    0.000    5.667 
#    0.000    0.833    0.000    2.000    0.000    0.000 
#    0.000    0.000    0.000    0.000    0.000    0.000 
#
# Total GULP energy -268088.030366 kJ/mol
# GULP energy per Si atom -5585.167299 kJ/mol
# Density = 0.938482 g / cm^3
# Si number density = 9.406232 Si / 1000 Ang^3
#
#
#
# Elastic Constant Matrix: (Units=GPa)
#
#
# Indices 1 2 3 4 5 6 
#
# 1 106.7392 27.5955 47.3670 0.0000 0.0000 0.0000
# 2 27.5955 46.9224 23.7414 0.0000 0.0000 0.0000
# 3 47.3670 23.7414 155.8268 0.0000 0.0000 0.0000
# 4 0.0000 0.0000 0.0000 26.8061 0.0000 0.0000
# 5 0.0000 0.0000 0.0000 0.0000 23.5029 0.0000
# 6 0.0000 0.0000 0.0000 0.0000 0.0000 27.2762
#
#
#
# Elastic Compliance Matrix: (Units=1/GPa)
#
#
# Indices 1 2 3 4 5 6 
#
# 1 0.012084 -0.005687 -0.002807 0.000000 0.000000 0.000000
# 2 -0.005687 0.025768 -0.002197 0.000000 0.000000 0.000000
# 3 -0.002807 -0.002197 0.007605 0.000000 0.000000 0.000000
# 4 0.000000 0.000000 0.000000 0.037305 0.000000 0.000000
# 5 0.000000 0.000000 0.000000 0.000000 0.042548 0.000000
# 6 0.000000 0.000000 0.000000 0.000000 0.000000 0.036662
#
#
# Mechanical properties :
#
#
# Convention : Reuss Voigt Hill
#
# Bulk Modulus (GPa) = 41.53544 56.32180 48.92862
# Shear Modulus (GPa) = 26.12602 29.56932 27.84767
#
# Velocity S-wave (km/s) = 3.73065 3.96889 3.85161
# Velocity P-wave (km/s) = 6.37837 7.14187 6.77089
#
# Compressibility (1/GPa) = 0.02407583
#
# Stress axis : x y z
#
# Youngs Moduli (GPa) = 82.75104 38.80783 131.48568
#
# Poissons Ratio (x) = 0.22069 0.36907
# Poissons Ratio (y) = 0.47058 0.28892
# Poissons Ratio (z) = 0.23228 0.08527
#
# Static dielectric constant tensor:
#      x y z
#    x 1.650230 0.000000 0.000000 
#    y 0.000000 1.645240 0.000000 
#    z 0.000000 0.000000 1.630830 
# 
# From -- ./inp_files/37047.got.cif
#   From: 2010.05.17/outbox.ucp.g08.bks.cvg/sg64_19_cif.got.tgz:37047.got - 2010.06.11 16:36:46.
