data_PCOD9482479
_publ_section_title
;
Structure prediction by ZEFSAII (Michael W. Deem and Ramdas Pophale) SiO2 
 PCOD9482479
Probable space group: C M C A
;
_chemical_formula_sum "Si O2"
_cell_formula_units_Z 48
_cell_length_a 9.000000
_cell_length_b 27.000000
_cell_length_c 21.000000
_cell_angle_alpha 90.000000
_cell_angle_beta 90.000000
_cell_angle_gamma 90.000000
_cell_volume 5103.000000
_symmetry_space_group_name_H-M "C M C A"
_symmetry_group_IT_number 64
_symmetry_cell_setting 'orthorhombic'
loop_
_space_group_symop_operation_xyz
x,y,z
-x,1/2-y,1/2+z
x,-y,-z
-x,1/2+y,1/2-z
-x,-y,-z
x,1/2+y,1/2-z
-x,y,z
x,1/2-y,1/2+z
1/2+x,1/2+y,z
1/2-x,-y,1/2+z
1/2+x,1/2-y,-z
1/2-x,y,1/2-z
1/2-x,1/2-y,-z
1/2+x,y,1/2-z
1/2-x,1/2+y,z
1/2+x,-y,1/2+z
loop_
_atom_site_type_symbol
_atom_site_label
_atom_site_fract_x
_atom_site_fract_y
_atom_site_fract_z
Si Si1 0.675957 0.303548 0.011848
Si Si2 0.177986 0.950444 0.180122
Si Si3 0.827960 0.251567 0.310362
Si Si4 0.677622 0.348419 0.364549
Si Si5 0.679512 0.937461 0.679586
Si Si6 0.674667 0.846361 0.895655
O O1 0.500000 0.298329 0.025290
O O2 0.765697 0.329570 0.067762
O O3 0.750000 0.250000 0.000000
O O4 0.709814 0.338300 0.952344
O O5 0.250000 0.951086 0.250000
O O6 0.250914 0.902182 0.148065
O O7 0.000000 0.943513 0.183696
O O8 0.203885 0.006221 0.152873
O O9 0.750000 0.227568 0.250000
O O10 0.740900 0.302755 0.322581
O O11 0.821483 0.207788 0.361918
O O12 0.000000 0.263756 0.300060
O O13 0.500000 0.351027 0.358988
O O14 0.500000 0.929439 0.681697
O O15 0.750000 0.937836 0.750000
O O16 0.764122 0.893029 0.643863
O O17 0.500000 0.854347 0.913059
#
# Coordination Sequence:
#
# PCOD9482479 Si02
#       6
#    16  16  16  16  16  16
#     4  12  24  41  63  87 119 158 201 245 295 355
#     4  10  21  39  62  89 122 159 200 247 301 357
#     4  11  23  37  56  84 120 155 193 242 297 355
#     4  12  24  39  61  87 118 156 200 247 297 354
#     4  10  21  38  62  90 122 160 200 247 300 355
#     4  11  23  39  61  88 120 157 200 246 296 354
#
# _framework density 9.4062319999999993
#
# number of rings (size 3 to 8) (size 9 to 14) (size 15 to 20)
#    0.000    1.000    1.667    6.000    0.000    5.333 
#    0.000    0.833    0.000    5.000    0.000    0.000 
#    0.000    0.000    0.000    0.000    0.000    0.000 
#
# Total GULP energy -267714.296431 kJ/mol
# GULP energy per Si atom -5577.381176 kJ/mol
# Density = 0.938482 g / cm^3
# Si number density = 9.406232 Si / 1000 Ang^3
#
#
#
# Elastic Constant Matrix: (Units=GPa)
#
#
# Indices 1 2 3 4 5 6 
#
# 1 146.2302 54.6400 15.4228 0.0000 0.0000 0.0000
# 2 54.6400 142.2709 29.2514 0.0000 0.0000 0.0000
# 3 15.4228 29.2514 50.1478 0.0000 0.0000 0.0000
# 4 0.0000 0.0000 0.0000 16.1394 0.0000 0.0000
# 5 0.0000 0.0000 0.0000 0.0000 24.5891 0.0000
# 6 0.0000 0.0000 0.0000 0.0000 0.0000 39.4508
#
#
#
# Elastic Compliance Matrix: (Units=1/GPa)
#
#
# Indices 1 2 3 4 5 6 
#
# 1 0.008010 -0.002920 -0.000760 0.000000 0.000000 0.000000
# 2 -0.002920 0.009051 -0.004382 0.000000 0.000000 0.000000
# 3 -0.000760 -0.004382 0.022731 0.000000 0.000000 0.000000
# 4 0.000000 0.000000 0.000000 0.061960 0.000000 0.000000
# 5 0.000000 0.000000 0.000000 0.000000 0.040668 0.000000
# 6 0.000000 0.000000 0.000000 0.000000 0.000000 0.025348
#
#
# Mechanical properties :
#
#
# Convention : Reuss Voigt Hill
#
# Bulk Modulus (GPa) = 42.25073 59.69745 50.97409
# Shear Modulus (GPa) = 26.07145 31.99151 29.03148
#
# Velocity S-wave (km/s) = 3.72675 4.12824 3.93263
# Velocity P-wave (km/s) = 6.40515 7.38411 6.91198
#
# Compressibility (1/GPa) = 0.02366823
#
# Stress axis : x y z
#
# Youngs Moduli (GPa) = 124.84788 110.48372 43.99355
#
# Poissons Ratio (x) = 0.32260 0.03344
# Poissons Ratio (y) = 0.36454 0.19276
# Poissons Ratio (z) = 0.09491 0.48409
#
# Static dielectric constant tensor:
#      x y z
#    x 1.615270 0.000000 0.000000 
#    y 0.000000 1.655430 0.000000 
#    z 0.000000 0.000000 1.706050 
# 
# From -- ./inp_files/37074.got.cif
#   From: 2010.05.17/outbox.ucp.g08.bks.cvg/sg64_19_cif.got.tgz:37074.got - 2010.06.11 16:36:46.
