data_PCOD9482855
_publ_section_title
;
Structure prediction by ZEFSAII (Michael W. Deem and Ramdas Pophale) SiO2 
 PCOD9482855
Probable space group: C M M M
;
_chemical_formula_sum "Si O2"
_cell_formula_units_Z 128
_cell_length_a 18.086586
_cell_length_b 18.544686
_cell_length_c 23.295348
_cell_angle_alpha 90.000000
_cell_angle_beta 90.000000
_cell_angle_gamma 90.000000
_cell_volume 7813.494028
_symmetry_space_group_name_H-M "C M M M"
_symmetry_group_IT_number 65
_symmetry_cell_setting 'orthorhombic'
loop_
_space_group_symop_operation_xyz
x,y,z
-x,-y,z
x,-y,-z
-x,y,-z
-x,-y,-z
x,y,-z
-x,y,z
x,-y,z
1/2+x,1/2+y,z
1/2-x,1/2-y,z
1/2+x,1/2-y,-z
1/2-x,1/2+y,-z
1/2-x,1/2-y,-z
1/2+x,1/2+y,-z
1/2-x,1/2+y,z
1/2+x,1/2-y,z
loop_
_atom_site_type_symbol
_atom_site_label
_atom_site_fract_x
_atom_site_fract_y
_atom_site_fract_z
Si Si1 0.418829 0.916397 0.096498
Si Si2 0.256250 0.086010 0.934089
Si Si3 0.766595 0.420285 0.273960
Si Si4 0.919434 0.394800 0.767393
Si Si5 0.915498 0.775436 0.252440
Si Si6 0.413459 0.416367 0.569135
Si Si7 0.691634 0.686617 0.641180
Si Si8 0.294500 0.325722 0.170233
O O1 0.500000 0.884190 0.082291
O O2 0.341947 0.887820 0.071742
O O3 0.410991 0.914217 0.165538
O O4 0.421643 0.000000 0.078284
O O5 0.209116 0.133099 0.889908
O O6 0.254625 0.000000 0.919180
O O7 0.233176 0.093315 0.000000
O O8 0.733585 0.500000 0.273344
O O9 0.854358 0.424370 0.270838
O O10 0.739886 0.374435 0.327418
O O11 0.745748 0.376847 0.216517
O O12 0.916918 0.308766 0.762186
O O13 0.000000 0.419175 0.748904
O O14 0.864071 0.785452 0.308606
O O15 0.874306 0.812382 0.198685
O O16 0.000000 0.800352 0.261329
O O17 0.409360 0.413737 0.500000
O O18 0.500000 0.403699 0.585223
O O19 0.395417 0.500000 0.586271
O O20 0.359298 0.355866 0.595430
O O21 0.750000 0.750000 0.623635
O O22 0.250000 0.250000 0.167505
#
# Coordination Sequence:
#
# PCOD9482855 Si02
#       8
#    16  16  16  16  16  16  16  16
#     4   9  16  26  42  64  91 124 160 198 241 295
#     4  10  20  32  47  67  91 122 161 206 256 312
#     4  11  19  30  48  72 102 137 167 202 248 300
#     4  10  17  28  45  68  96 131 164 194 236 294
#     4  10  19  32  50  71 100 133 164 202 249 300
#     4   9  19  37  59  80 105 143 190 235 275 312
#     4  11  20  33  50  81 112 141 171 214 262 316
#     4  11  19  33  49  70  94 123 162 206 251 306
#
# _framework density 16.381916
#
# number of rings (size 3 to 8) (size 9 to 14) (size 15 to 20)
#    0.000    1.875    3.750    2.625    0.000    1.500 
#    0.000    1.250    0.000    7.875    0.000    0.875 
#    0.000    0.000    0.000    8.250    0.000    0.000 
#
# Total GULP energy -356503.215700 kJ/mol
# GULP energy per Si atom -5570.362745 kJ/mol
# Density = 1.634463 g / cm^3
# Si number density = 16.381916 Si / 1000 Ang^3
#
#
#
# Elastic Constant Matrix: (Units=GPa)
#
#
# Indices 1 2 3 4 5 6 
#
# 1 100.9296 39.2392 32.0102 0.0000 0.0000 0.0000
# 2 39.2392 100.8468 35.7973 0.0000 0.0000 0.0000
# 3 32.0102 35.7973 56.6569 0.0000 0.0000 0.0000
# 4 0.0000 0.0000 0.0000 24.8489 0.0000 0.0000
# 5 0.0000 0.0000 0.0000 0.0000 21.1875 0.0000
# 6 0.0000 0.0000 0.0000 0.0000 0.0000 10.5065
#
#
#
# Elastic Compliance Matrix: (Units=1/GPa)
#
#
# Indices 1 2 3 4 5 6 
#
# 1 0.012784 -0.003107 -0.005259 0.000000 0.000000 0.000000
# 2 -0.003107 0.013538 -0.006798 0.000000 0.000000 0.000000
# 3 -0.005259 -0.006798 0.024917 0.000000 0.000000 0.000000
# 4 0.000000 0.000000 0.000000 0.040243 0.000000 0.000000
# 5 0.000000 0.000000 0.000000 0.000000 0.047198 0.000000
# 6 0.000000 0.000000 0.000000 0.000000 0.000000 0.095179
#
#
# Mechanical properties :
#
#
# Convention : Reuss Voigt Hill
#
# Bulk Modulus (GPa) = 47.82597 52.50296 50.16447
# Shear Modulus (GPa) = 18.43940 21.40103 19.92022
#
# Velocity S-wave (km/s) = 3.35863 3.61831 3.49089
# Velocity P-wave (km/s) = 6.65569 7.04096 6.85104
#
# Compressibility (1/GPa) = 0.02090914
#
# Stress axis : x y z
#
# Youngs Moduli (GPa) = 78.22281 73.86498 40.13341
#
# Poissons Ratio (x) = 0.22952 0.21108
# Poissons Ratio (y) = 0.24306 0.27284
# Poissons Ratio (z) = 0.41141 0.50215
#
# Static dielectric constant tensor:
#      x y z
#    x 1.595490 0.000000 0.000000 
#    y 0.000000 1.601730 0.000000 
#    z 0.000000 0.000000 1.534810 
# 
# From -- ./inp_files/70697.got.cif
#   From: 2010.05.17/outbox.cif.g08.bks.cpg/sg65_36_cif.got.tgz:70697.got - 2010.06.03 17:01:31.
