data_PCOD9482673
_publ_section_title
;
Structure prediction by ZEFSAII (Michael W. Deem and Ramdas Pophale) SiO2 
 PCOD9482673
Probable space group: C M M M
;
_chemical_formula_sum "Si O2"
_cell_formula_units_Z 88
_cell_length_a 24.417137
_cell_length_b 7.697326
_cell_length_c 25.858847
_cell_angle_alpha 90.000000
_cell_angle_beta 90.000000
_cell_angle_gamma 90.000000
_cell_volume 4860.084015
_symmetry_space_group_name_H-M "C M M M"
_symmetry_group_IT_number 65
_symmetry_cell_setting 'orthorhombic'
loop_
_space_group_symop_operation_xyz
x,y,z
-x,-y,z
x,-y,-z
-x,y,-z
-x,-y,-z
x,y,-z
-x,y,z
x,-y,z
1/2+x,1/2+y,z
1/2-x,1/2-y,z
1/2+x,1/2-y,-z
1/2-x,1/2+y,-z
1/2-x,1/2-y,-z
1/2+x,1/2+y,-z
1/2-x,1/2+y,z
1/2+x,1/2-y,z
loop_
_atom_site_type_symbol
_atom_site_label
_atom_site_fract_x
_atom_site_fract_y
_atom_site_fract_z
Si Si1 0.389579 0.211219 0.751083
Si Si2 0.566135 0.500000 0.058533
Si Si3 0.000000 0.709793 0.308108
Si Si4 0.500000 0.699968 0.574769
Si Si5 0.434414 0.793009 0.139972
Si Si6 0.878954 0.209159 0.444092
Si Si7 0.686484 0.794883 0.660507
O O1 0.445858 0.258019 0.722543
O O2 0.398186 0.262986 0.810542
O O3 0.341855 0.277329 0.712936
O O4 0.386881 0.000000 0.752854
O O5 0.500000 0.500000 0.055340
O O6 0.580040 0.328352 0.091586
O O7 0.587701 0.500000 0.000000
O O8 0.000000 0.794719 0.363624
O O9 0.000000 0.500000 0.314737
O O10 0.500000 0.500000 0.557036
O O11 0.558469 0.777389 0.558881
O O12 0.500000 0.769574 0.151583
O O13 0.427135 0.000000 0.130702
O O14 0.855187 0.264973 0.500000
O O15 0.845783 0.251231 0.392272
O O16 0.881943 0.000000 0.444636
O O17 0.750000 0.750000 0.656329
O O18 0.682188 0.000000 0.665308
#
# Coordination Sequence:
#
# PCOD9482673 Si02
#       7
#    16   8   8   8  16  16  16
#     4   9  17  31  52  74 101 132 165 208 260 315
#     4   9  18  30  42  70 112 150 187 217 243 298
#     4  10  16  29  51  75 100 127 160 205 258 316
#     4  10  19  32  50  80 106 126 159 203 262 315
#     4   9  16  29  48  72 103 142 180 217 261 307
#     4  10  21  37  55  75 101 132 167 208 256 316
#     4  11  23  39  56  74  99 132 169 216 268 318
#
# _framework density 18.106684000000001
#
# number of rings (size 3 to 8) (size 9 to 14) (size 15 to 20)
#    0.000    2.273    2.727    0.818    0.000    2.182 
#    4.909    1.818    0.000    1.636    0.000    0.000 
#    0.000    0.727    0.364    0.000    0.000    0.000 
#
# Total GULP energy -245226.370485 kJ/mol
# GULP energy per Si atom -5573.326602 kJ/mol
# Density = 1.806547 g / cm^3
# Si number density = 18.106684 Si / 1000 Ang^3
#
#
#
# Elastic Constant Matrix: (Units=GPa)
#
#
# Indices 1 2 3 4 5 6 
#
# 1 93.2653 17.0212 60.5745 0.0000 0.0000 0.0000
# 2 17.0212 53.7737 44.3869 0.0000 0.0000 0.0000
# 3 60.5745 44.3869 189.6142 0.0000 0.0000 0.0000
# 4 0.0000 0.0000 0.0000 22.0655 0.0000 0.0000
# 5 0.0000 0.0000 0.0000 0.0000 87.6893 0.0000
# 6 0.0000 0.0000 0.0000 0.0000 0.0000 -9.8509
#
#
#
# Elastic Compliance Matrix: (Units=1/GPa)
#
#
# Indices 1 2 3 4 5 6 
#
# 1 0.013563 -0.000888 -0.004125 0.000000 0.000000 0.000000
# 2 -0.000888 0.023109 -0.005126 0.000000 0.000000 0.000000
# 3 -0.004125 -0.005126 0.007792 0.000000 0.000000 0.000000
# 4 0.000000 0.000000 0.000000 0.045320 0.000000 0.000000
# 5 0.000000 0.000000 0.000000 0.000000 0.011404 0.000000
# 6 0.000000 0.000000 0.000000 0.000000 0.000000 -0.101514
#
#
# Mechanical properties :
#
#
# Convention : Reuss Voigt Hill
#
# Bulk Modulus (GPa) = 41.34727 64.51315 52.93021
# Shear Modulus (GPa) = 178.48948 34.29217 106.39082
#
# Velocity S-wave (km/s) = 9.93934 4.35661 7.67368
# Velocity P-wave (km/s) = 12.43405 7.81112 10.38314
#
# Compressibility (1/GPa) = 0.02418540
#
# Stress axis : x y z
#
# Youngs Moduli (GPa) = 73.72794 43.27391 128.34423
#
# Poissons Ratio (x) = 0.03844 0.52943
# Poissons Ratio (y) = 0.06549 0.65786
# Poissons Ratio (z) = 0.30413 0.22181
#
# Static dielectric constant tensor:
#      x y z
#    x 1.543340 0.000000 0.000000 
#    y 0.000000 1.657350 0.000000 
#    z 0.000000 0.000000 1.638040 
# 
# From -- ./inp_files/71108.got.cif
#   From: 2010.05.17/outbox.cif.g08.bks.cpg/sg65_36_cif.got.tgz:71108.got - 2010.06.03 17:01:31.
