data_PCOD9482038
_publ_section_title
;
Structure prediction by ZEFSAII (Michael W. Deem and Ramdas Pophale) SiO2 
 PCOD9482038
Probable space group: C M C A
;
_chemical_formula_sum "Si O2"
_cell_formula_units_Z 120
_cell_length_a 22.765017
_cell_length_b 14.003954
_cell_length_c 18.009733
_cell_angle_alpha 90.000000
_cell_angle_beta 90.000000
_cell_angle_gamma 90.000000
_cell_volume 5741.507399
_symmetry_space_group_name_H-M "C M C A"
_symmetry_group_IT_number 64
_symmetry_cell_setting 'orthorhombic'
loop_
_space_group_symop_operation_xyz
x,y,z
-x,1/2-y,1/2+z
x,-y,-z
-x,1/2+y,1/2-z
-x,-y,-z
x,1/2+y,1/2-z
-x,y,z
x,1/2-y,1/2+z
1/2+x,1/2+y,z
1/2-x,-y,1/2+z
1/2+x,1/2-y,-z
1/2-x,y,1/2-z
1/2-x,1/2-y,-z
1/2+x,y,1/2-z
1/2-x,1/2+y,z
1/2+x,-y,1/2+z
loop_
_atom_site_type_symbol
_atom_site_label
_atom_site_fract_x
_atom_site_fract_y
_atom_site_fract_z
Si Si1 0.431396 0.973229 0.659156
Si Si2 0.388343 0.755453 0.661440
Si Si3 0.432673 0.956649 0.170333
Si Si4 0.326488 0.566781 0.405093
Si Si5 0.307551 0.753748 0.799365
Si Si6 0.850893 0.122834 0.923016
Si Si7 0.680374 0.273938 0.484432
Si Si8 0.265266 0.500000 0.000000
O O1 0.500000 0.985715 0.643302
O O2 0.415981 0.860830 0.650571
O O3 0.421375 0.010880 0.743856
O O4 0.394241 0.041842 0.604896
O O5 0.426190 0.657815 0.658840
O O6 0.361846 0.756079 0.743580
O O7 0.337034 0.741357 0.600292
O O8 0.500000 0.984361 0.152752
O O9 0.383259 0.010515 0.121922
O O10 0.310010 0.650242 0.347855
O O11 0.329863 0.618628 0.485545
O O12 0.268744 0.505306 0.421987
O O13 0.250000 0.748820 0.750000
O O14 0.315007 0.663451 0.853143
O O15 0.869375 0.219541 0.964855
O O16 0.809565 0.086162 0.988824
O O17 0.750000 0.250000 0.500000
#
# Coordination Sequence:
#
# PCOD9482038 Si02
#       8
#    16  16  16  16  16  16  16   8
#     4  11  25  46  71 100 135 179 238 295 343 402
#     4  12  23  46  68 102 134 179 234 287 347 411
#     4  11  25  46  71 100 135 179 238 295 343 402
#     4  11  24  43  66 102 133 187 223 274 353 411
#     4  11  25  39  65 104 140 172 233 291 336 417
#     4  11  24  43  66 102 133 187 223 274 353 411
#     4  11  23  44  66  99 149 180 215 274 349 420
#     4  12  24  38  68  96 144 182 214 280 352 420
#
# _framework density 20.900434000000001
#
# number of rings (size 3 to 8) (size 9 to 14) (size 15 to 20)
#    0.000    0.800    4.000    3.600    3.733    0.000 
#    0.000   10.000    0.000    0.000    0.000    0.000 
#    0.000    0.000    0.000    0.000    0.000    0.000 
#
# Total GULP energy -334458.447381 kJ/mol
# GULP energy per Si atom -5574.307456 kJ/mol
# Density = 2.085286 g / cm^3
# Si number density = 20.900434 Si / 1000 Ang^3
#
#
#
# Elastic Constant Matrix: (Units=GPa)
#
#
# Indices 1 2 3 4 5 6 
#
# 1 88.0394 32.3073 28.9863 0.0000 0.0000 0.0000
# 2 32.3073 106.1846 16.3872 0.0000 0.0000 0.0000
# 3 28.9863 16.3872 84.3946 0.0000 0.0000 0.0000
# 4 0.0000 0.0000 0.0000 47.5175 0.0000 0.0000
# 5 0.0000 0.0000 0.0000 0.0000 30.8163 0.0000
# 6 0.0000 0.0000 0.0000 0.0000 0.0000 25.3379
#
#
#
# Elastic Compliance Matrix: (Units=1/GPa)
#
#
# Indices 1 2 3 4 5 6 
#
# 1 0.014050 -0.003639 -0.004119 0.000000 0.000000 0.000000
# 2 -0.003639 0.010651 -0.000818 0.000000 0.000000 0.000000
# 3 -0.004119 -0.000818 0.013423 0.000000 0.000000 0.000000
# 4 0.000000 0.000000 0.000000 0.021045 0.000000 0.000000
# 5 0.000000 0.000000 0.000000 0.000000 0.032450 0.000000
# 6 0.000000 0.000000 0.000000 0.000000 0.000000 0.039467
#
#
# Mechanical properties :
#
#
# Convention : Reuss Voigt Hill
#
# Bulk Modulus (GPa) = 47.68485 48.22002 47.95243
# Shear Modulus (GPa) = 32.21047 34.13021 33.17034
#
# Velocity S-wave (km/s) = 3.92999 4.04541 3.98812
# Velocity P-wave (km/s) = 6.59226 6.70387 6.64830
#
# Compressibility (1/GPa) = 0.02097102
#
# Stress axis : x y z
#
# Youngs Moduli (GPa) = 71.17360 93.88726 74.50053
#
# Poissons Ratio (x) = 0.34167 0.30687
# Poissons Ratio (y) = 0.25901 0.06096
# Poissons Ratio (z) = 0.29317 0.07682
#
# Static dielectric constant tensor:
#      x y z
#    x 1.906930 0.000000 0.000000 
#    y 0.000000 1.952200 0.000000 
#    z 0.000000 0.000000 1.751620 
# 
# From -- ./inp_files/41040.got.cif
#   From: 2010.05.17/outbox.cif.g08.bks.cpg/sg64_21_cif.got.tgz:41040.got - 2010.06.03 16:29:19.
