data_PCOD9482168
_publ_section_title
;
Structure prediction by ZEFSAII (Michael W. Deem and Ramdas Pophale) SiO2 
 PCOD9482168
Probable space group: C M C A
;
_chemical_formula_sum "Si O2"
_cell_formula_units_Z 80
_cell_length_a 18.071475
_cell_length_b 8.407604
_cell_length_c 24.435134
_cell_angle_alpha 90.000000
_cell_angle_beta 90.000000
_cell_angle_gamma 90.000000
_cell_volume 3712.620637
_symmetry_space_group_name_H-M "C M C A"
_symmetry_group_IT_number 64
_symmetry_cell_setting 'orthorhombic'
loop_
_space_group_symop_operation_xyz
x,y,z
-x,1/2-y,1/2+z
x,-y,-z
-x,1/2+y,1/2-z
-x,-y,-z
x,1/2+y,1/2-z
-x,y,z
x,1/2-y,1/2+z
1/2+x,1/2+y,z
1/2-x,-y,1/2+z
1/2+x,1/2-y,-z
1/2-x,y,1/2-z
1/2-x,1/2-y,-z
1/2+x,y,1/2-z
1/2-x,1/2+y,z
1/2+x,-y,1/2+z
loop_
_atom_site_type_symbol
_atom_site_label
_atom_site_fract_x
_atom_site_fract_y
_atom_site_fract_z
Si Si1 0.685402 0.819313 0.112135
Si Si2 0.844436 0.815800 0.583404
Si Si3 0.914054 0.335956 0.313825
Si Si4 0.170553 0.645630 0.276778
Si Si5 0.087642 0.178711 0.021782
O O1 0.766313 0.773722 0.090024
O O2 0.681457 0.777202 0.176053
O O3 0.668212 0.002330 0.100272
O O4 0.626745 0.712041 0.079194
O O5 0.900280 0.734479 0.626122
O O6 0.875824 0.795050 0.522808
O O7 0.884577 0.208959 0.269666
O O8 0.863625 0.490213 0.304478
O O9 0.000000 0.372431 0.305523
O O10 0.250000 0.611996 0.250000
O O11 0.000000 0.203823 0.025622
O O12 0.100950 0.000000 0.000000
#
# Coordination Sequence:
#
# PCOD9482168 Si02
#       5
#    16  16  16  16  16
#     4  12  26  44  73 102 139 188 242 296 354 429
#     4  12  25  45  70 105 140 187 239 292 358 428
#     4  12  26  44  70 104 145 185 237 299 359 422
#     4  12  25  45  72 103 139 191 241 292 357 428
#     4  11  25  46  72 103 145 189 235 296 362 428
#
# _framework density 21.548120999999998
#
# number of rings (size 3 to 8) (size 9 to 14) (size 15 to 20)
#    0.000    0.200    2.000    7.800    0.000    5.600 
#    0.000    0.000    0.000    0.000    0.000    0.000 
#    0.000    0.000    0.000    0.000    0.000    0.000 
#
# Total GULP energy -224303.271687 kJ/mol
# GULP energy per Si atom -5607.581792 kJ/mol
# Density = 2.149908 g / cm^3
# Si number density = 21.548121 Si / 1000 Ang^3
#
#
#
# Elastic Constant Matrix: (Units=GPa)
#
#
# Indices 1 2 3 4 5 6 
#
# 1 76.5771 22.2267 1.6605 0.0000 0.0000 0.0000
# 2 22.2267 88.9016 -1.6500 0.0000 0.0000 0.0000
# 3 1.6605 -1.6500 70.6091 0.0000 0.0000 0.0000
# 4 0.0000 0.0000 0.0000 35.2247 0.0000 0.0000
# 5 0.0000 0.0000 0.0000 0.0000 33.4814 0.0000
# 6 0.0000 0.0000 0.0000 0.0000 0.0000 18.7704
#
#
#
# Elastic Compliance Matrix: (Units=1/GPa)
#
#
# Indices 1 2 3 4 5 6 
#
# 1 0.014093 -0.003531 -0.000414 0.000000 0.000000 0.000000
# 2 -0.003531 0.012138 0.000367 0.000000 0.000000 0.000000
# 3 -0.000414 0.000367 0.014181 0.000000 0.000000 0.000000
# 4 0.000000 0.000000 0.000000 0.028389 0.000000 0.000000
# 5 0.000000 0.000000 0.000000 0.000000 0.029867 0.000000
# 6 0.000000 0.000000 0.000000 0.000000 0.000000 0.053275
#
#
# Mechanical properties :
#
#
# Convention : Reuss Voigt Hill
#
# Bulk Modulus (GPa) = 30.07081 31.17356 30.62219
# Shear Modulus (GPa) = 29.37985 31.75201 30.56593
#
# Velocity S-wave (km/s) = 3.69650 3.84284 3.77038
# Velocity P-wave (km/s) = 5.67489 5.84707 5.76162
#
# Compressibility (1/GPa) = 0.03325484
#
# Stress axis : x y z
#
# Youngs Moduli (GPa) = 70.95918 82.38580 70.51798
#
# Poissons Ratio (x) = 0.29091 0.02919
# Poissons Ratio (y) = 0.25056 -0.02586
# Poissons Ratio (z) = 0.02937 -0.03021
#
# Static dielectric constant tensor:
#      x y z
#    x 1.724860 0.000000 0.000000 
#    y 0.000000 1.777890 0.000000 
#    z 0.000000 0.000000 1.750050 
# 
# From -- ./inp_files/50292.got.cif
#   From: 2010.05.17/outbox.cif.g08.bks.cpg/sg64_26_cif.got.tgz:50292.got - 2010.06.03 16:29:19.
