data_PCOD9482972
_publ_section_title
;
Structure prediction by ZEFSAII (Michael W. Deem and Ramdas Pophale) SiO2 
 PCOD9482972
Probable space group: C M M M
;
_chemical_formula_sum "Si O2"
_cell_formula_units_Z 128
_cell_length_a 17.576243
_cell_length_b 17.292723
_cell_length_c 23.727163
_cell_angle_alpha 90.000000
_cell_angle_beta 90.000000
_cell_angle_gamma 90.000000
_cell_volume 7211.660060
_symmetry_space_group_name_H-M "C M M M"
_symmetry_group_IT_number 65
_symmetry_cell_setting 'orthorhombic'
loop_
_space_group_symop_operation_xyz
x,y,z
-x,-y,z
x,-y,-z
-x,y,-z
-x,-y,-z
x,y,-z
-x,y,z
x,-y,z
1/2+x,1/2+y,z
1/2-x,1/2-y,z
1/2+x,1/2-y,-z
1/2-x,1/2+y,-z
1/2-x,1/2-y,-z
1/2+x,1/2+y,-z
1/2-x,1/2+y,z
1/2+x,1/2-y,z
loop_
_atom_site_type_symbol
_atom_site_label
_atom_site_fract_x
_atom_site_fract_y
_atom_site_fract_z
Si Si1 0.781993 0.338902 0.178436
Si Si2 0.348510 0.414220 0.633043
Si Si3 0.412543 0.268107 0.566921
Si Si4 0.586738 0.411540 0.116689
Si Si5 0.302417 0.176390 0.642580
Si Si6 0.228752 0.840495 0.937551
Si Si7 0.410871 0.807523 0.744531
Si Si8 0.866348 0.128073 0.758728
O O1 0.750000 0.250000 0.175820
O O2 0.775158 0.372829 0.115926
O O3 0.866571 0.340191 0.201514
O O4 0.722427 0.375380 0.222496
O O5 0.360232 0.500000 0.610326
O O6 0.392338 0.347826 0.598812
O O7 0.259186 0.389906 0.631872
O O8 0.374352 0.411953 0.698524
O O9 0.406014 0.277597 0.500000
O O10 0.500000 0.246316 0.580550
O O11 0.351146 0.206234 0.589473
O O12 0.500000 0.398816 0.100135
O O13 0.608504 0.500000 0.103274
O O14 0.642911 0.354140 0.084289
O O15 0.593337 0.401480 0.184476
O O16 0.250000 0.250000 0.661388
O O17 0.364202 0.161752 0.690816
O O18 0.250000 0.750000 0.941220
O O19 0.239375 0.873896 0.000000
O O20 0.500000 0.822493 0.742174
O O21 0.395111 0.715343 0.747876
#
# Coordination Sequence:
#
# PCOD9482972 Si02
#       8
#    16  16  16  16  16  16  16  16
#     4   8  15  28  46  69 100 131 166 214 263 306
#     4  11  22  34  53  79 111 146 177 217 268 320
#     4  10  22  39  58  80 106 140 182 225 265 307
#     4  10  21  34  50  78 114 146 175 215 271 330
#     4  10  18  34  54  77 104 137 184 224 259 310
#     4   9  18  33  52  70  97 140 187 224 256 306
#     4  11  17  26  51  81 102 131 175 224 270 310
#     4  10  17  31  48  73 108 142 173 211 261 319
#
# _framework density 17.749034000000002
#
# number of rings (size 3 to 8) (size 9 to 14) (size 15 to 20)
#    0.000    2.125    3.750    2.250    0.000    3.750 
#    0.000    1.250    0.000    2.625    0.000    0.875 
#    0.000    1.750    0.000    9.750    0.000    0.000 
#
# Total GULP energy -356566.207247 kJ/mol
# GULP energy per Si atom -5571.346988 kJ/mol
# Density = 1.770864 g / cm^3
# Si number density = 17.749034 Si / 1000 Ang^3
#
#
#
# Elastic Constant Matrix: (Units=GPa)
#
#
# Indices 1 2 3 4 5 6 
#
# 1 104.5551 0.6881 31.9222 0.0000 0.0000 0.0000
# 2 0.6881 22.6208 0.7746 0.0000 0.0000 0.0000
# 3 31.9222 0.7746 97.0901 0.0000 0.0000 0.0000
# 4 0.0000 0.0000 0.0000 2.1277 0.0000 0.0000
# 5 0.0000 0.0000 0.0000 0.0000 8.4128 0.0000
# 6 0.0000 0.0000 0.0000 0.0000 0.0000 12.5916
#
#
#
# Elastic Compliance Matrix: (Units=1/GPa)
#
#
# Indices 1 2 3 4 5 6 
#
# 1 0.010633 -0.000204 -0.003494 0.000000 0.000000 0.000000
# 2 -0.000204 0.044223 -0.000286 0.000000 0.000000 0.000000
# 3 -0.003494 -0.000286 0.011451 0.000000 0.000000 0.000000
# 4 0.000000 0.000000 0.000000 0.469996 0.000000 0.000000
# 5 0.000000 0.000000 0.000000 0.000000 0.118867 0.000000
# 6 0.000000 0.000000 0.000000 0.000000 0.000000 0.079418
#
#
# Mechanical properties :
#
#
# Convention : Reuss Voigt Hill
#
# Bulk Modulus (GPa) = 17.14123 32.33731 24.73927
# Shear Modulus (GPa) = 6.56167 17.35182 11.95674
#
# Velocity S-wave (km/s) = 1.92482 3.13008 2.59830
# Velocity P-wave (km/s) = 3.82341 5.59660 4.79272
#
# Compressibility (1/GPa) = 0.05833888
#
# Stress axis : x y z
#
# Youngs Moduli (GPa) = 94.05118 22.61258 87.32977
#
# Poissons Ratio (x) = 0.00461 0.30515
# Poissons Ratio (y) = 0.01916 0.02496
# Poissons Ratio (z) = 0.32864 0.00646
#
# Static dielectric constant tensor:
#      x y z
#    x 1.612860 0.000000 0.000000 
#    y 0.000000 1.699600 0.000000 
#    z 0.000000 0.000000 1.637480 
# 
# From -- ./inp_files/70691.got.cif
#   From: 2010.05.17/outbox.cif.g08.bks.cpg/sg65_36_cif.got.tgz:70691.got - 2010.06.03 17:01:31.
