data_PCOD9482270
_publ_section_title
;
Structure prediction by ZEFSAII (Michael W. Deem and Ramdas Pophale) SiO2 
 PCOD9482270
Probable space group: C M C A
;
_chemical_formula_sum "Si O2"
_cell_formula_units_Z 88
_cell_length_a 15.461664
_cell_length_b 18.546635
_cell_length_c 15.513195
_cell_angle_alpha 90.000000
_cell_angle_beta 90.000000
_cell_angle_gamma 90.000000
_cell_volume 4448.592322
_symmetry_space_group_name_H-M "C M C A"
_symmetry_group_IT_number 64
_symmetry_cell_setting 'orthorhombic'
loop_
_space_group_symop_operation_xyz
x,y,z
-x,1/2-y,1/2+z
x,-y,-z
-x,1/2+y,1/2-z
-x,-y,-z
x,1/2+y,1/2-z
-x,y,z
x,1/2-y,1/2+z
1/2+x,1/2+y,z
1/2-x,-y,1/2+z
1/2+x,1/2-y,-z
1/2-x,y,1/2-z
1/2-x,1/2-y,-z
1/2+x,y,1/2-z
1/2-x,1/2+y,z
1/2+x,-y,1/2+z
loop_
_atom_site_type_symbol
_atom_site_label
_atom_site_fract_x
_atom_site_fract_y
_atom_site_fract_z
Si Si1 0.405494 0.194388 0.553654
Si Si2 0.344271 0.853109 0.920241
Si Si3 0.780126 0.861586 0.388977
Si Si4 0.341607 0.296259 0.861272
Si Si5 0.596751 0.581760 0.255640
Si Si6 0.750000 0.479359 0.250000
O O1 0.500000 0.166354 0.578664
O O2 0.397619 0.278932 0.576041
O O3 0.321248 0.156773 0.594235
O O4 0.393048 0.191327 0.450237
O O5 0.252487 0.831230 0.877684
O O6 0.388567 0.910130 0.857973
O O7 0.323299 0.875495 0.017988
O O8 0.824402 0.788977 0.350840
O O9 0.784617 0.927961 0.325210
O O10 0.386820 0.338959 0.784700
O O11 0.500000 0.557933 0.235659
O O12 0.670922 0.529544 0.220107
#
# Coordination Sequence:
#
# PCOD9482270 Si02
#       6
#    16  16  16  16  16   8
#     4   9  17  33  61  97 121 144 201 262 312 370
#     4   9  18  38  60  89 118 158 202 252 310 365
#     4   9  22  38  64  85 124 170 198 254 319 361
#     4   9  18  38  64  89 117 152 204 256 308 358
#     4  12  24  40  64  90 124 168 209 256 310 369
#     4  12  26  42  56  86 134 164 208 254 300 378
#
# _framework density 19.781538000000001
#
# number of rings (size 3 to 8) (size 9 to 14) (size 15 to 20)
#    0.000    2.182    1.818    3.273    5.091    1.455 
#    0.000    6.364    0.000    3.273    0.000    0.000 
#    0.000    0.000    0.000    0.000    0.000    0.000 
#
# Total GULP energy -245609.992510 kJ/mol
# GULP energy per Si atom -5582.045284 kJ/mol
# Density = 1.973651 g / cm^3
# Si number density = 19.781538 Si / 1000 Ang^3
#
#
#
# Elastic Constant Matrix: (Units=GPa)
#
#
# Indices 1 2 3 4 5 6 
#
# 1 88.6350 18.2103 -3.4290 0.0000 0.0000 0.0000
# 2 18.2103 66.8253 31.1016 0.0000 0.0000 0.0000
# 3 -3.4290 31.1016 43.5449 0.0000 0.0000 0.0000
# 4 0.0000 0.0000 0.0000 -1.6824 0.0000 0.0000
# 5 0.0000 0.0000 0.0000 0.0000 13.7016 0.0000
# 6 0.0000 0.0000 0.0000 0.0000 0.0000 6.3518
#
#
#
# Elastic Compliance Matrix: (Units=1/GPa)
#
#
# Indices 1 2 3 4 5 6 
#
# 1 0.012691 -0.005877 0.005197 0.000000 0.000000 0.000000
# 2 -0.005877 0.025138 -0.018417 0.000000 0.000000 0.000000
# 3 0.005197 -0.018417 0.036528 0.000000 0.000000 0.000000
# 4 0.000000 0.000000 0.000000 -0.594400 0.000000 0.000000
# 5 0.000000 0.000000 0.000000 0.000000 0.072984 0.000000
# 6 0.000000 0.000000 0.000000 0.000000 0.000000 0.157435
#
#
# Mechanical properties :
#
#
# Convention : Reuss Voigt Hill
#
# Bulk Modulus (GPa) = 27.65312 32.30789 29.98050
# Shear Modulus (GPa) = -20.88764 13.88237 -3.50264
#
# Velocity S-wave (km/s) = -3.25301 2.65200 -1.33210
# Velocity P-wave (km/s) = 0.31598 5.07398 3.58088
#
# Compressibility (1/GPa) = 0.03616229
#
# Stress axis : x y z
#
# Youngs Moduli (GPa) = 78.79767 39.78107 27.37596
#
# Poissons Ratio (x) = 0.23380 -0.14227
# Poissons Ratio (y) = 0.46310 0.50419
# Poissons Ratio (z) = -0.40951 0.73265
#
# Static dielectric constant tensor:
#      x y z
#    x 1.714110 0.000000 0.000000 
#    y 0.000000 1.673850 0.000000 
#    z 0.000000 0.000000 1.712350 
# 
# From -- ./inp_files/23738.got.cif
#   From: 2010.05.17/outbox.cif.g08.bks.cpg/sg64_12_cif.got.tgz:23738.got - 2010.06.03 16:29:19.
