data_PCOD9482702
_publ_section_title
;
Structure prediction by ZEFSAII (Michael W. Deem and Ramdas Pophale) SiO2 
 PCOD9482702
Probable space group: C M M M
;
_chemical_formula_sum "Si O2"
_cell_formula_units_Z 96
_cell_length_a 24.418979
_cell_length_b 16.970107
_cell_length_c 17.006817
_cell_angle_alpha 90.000000
_cell_angle_beta 90.000000
_cell_angle_gamma 90.000000
_cell_volume 7047.500585
_symmetry_space_group_name_H-M "C M M M"
_symmetry_group_IT_number 65
_symmetry_cell_setting 'orthorhombic'
loop_
_space_group_symop_operation_xyz
x,y,z
-x,-y,z
x,-y,-z
-x,y,-z
-x,-y,-z
x,y,-z
-x,y,z
x,-y,z
1/2+x,1/2+y,z
1/2-x,1/2-y,z
1/2+x,1/2-y,-z
1/2-x,1/2+y,-z
1/2-x,1/2-y,-z
1/2+x,1/2+y,-z
1/2-x,1/2+y,z
1/2+x,1/2-y,z
loop_
_atom_site_type_symbol
_atom_site_label
_atom_site_fract_x
_atom_site_fract_y
_atom_site_fract_z
Si Si1 0.937422 0.094747 0.195103
Si Si2 0.165161 0.904305 0.089055
Si Si3 0.150395 0.093478 0.500000
Si Si4 0.801613 0.307752 0.652004
Si Si5 0.233918 0.093104 0.236156
Si Si6 0.217828 0.406069 0.500000
Si Si7 0.369314 0.658151 0.331929
O O1 0.892895 0.117283 0.128844
O O2 0.919383 0.136996 0.275485
O O3 0.000000 0.111723 0.173495
O O4 0.932389 0.000000 0.206694
O O5 0.212682 0.880968 0.150336
O O6 0.166278 0.000000 0.087234
O O7 0.170987 0.875710 0.000000
O O8 0.216235 0.108180 0.500000
O O9 0.125642 0.129962 0.578891
O O10 0.142586 0.000000 0.500000
O O11 0.750000 0.250000 0.634288
O O12 0.783589 0.357639 0.727991
O O13 0.806400 0.365138 0.577656
O O14 0.851840 0.249518 0.667491
O O15 0.182279 0.110477 0.293779
O O16 0.244884 0.000000 0.236384
O O17 0.209660 0.500000 0.500000
#
# Coordination Sequence:
#
# PCOD9482702 Si02
#       7
#    16  16   8  16  16   8  16
#     4   9  17  29  43  57  74  97 127 162 195 226
#     4   8  14  24  39  59  78  97 126 161 191 220
#     4  11  17  23  38  54  73 103 131 157 188 218
#     4  10  17  24  35  53  78 104 131 157 186 223
#     4   9  15  24  37  53  76 103 127 153 185 223
#     4  11  18  24  36  56  79 100 130 165 188 214
#     4  10  18  26  38  53  77 103 131 158 190 225
#
# _framework density 13.62185
#
# number of rings (size 3 to 8) (size 9 to 14) (size 15 to 20)
#    0.000    2.500    3.333    3.750    0.000    0.333 
#    0.000    2.083    0.000   14.000    0.000    0.000 
#    0.000    3.333    0.000    0.000    0.000    0.000 
#
# Total GULP energy -267290.703024 kJ/mol
# GULP energy per Si atom -5568.556313 kJ/mol
# Density = 1.359085 g / cm^3
# Si number density = 13.621850 Si / 1000 Ang^3
#
#
#
# Elastic Constant Matrix: (Units=GPa)
#
#
# Indices 1 2 3 4 5 6 
#
# 1 29.1344 21.7373 30.4120 0.0000 0.0000 0.0000
# 2 21.7373 59.0658 35.5195 0.0000 0.0000 0.0000
# 3 30.4120 35.5195 132.3739 0.0000 0.0000 0.0000
# 4 0.0000 0.0000 0.0000 0.2054 0.0000 0.0000
# 5 0.0000 0.0000 0.0000 0.0000 4.3525 0.0000
# 6 0.0000 0.0000 0.0000 0.0000 0.0000 1.9154
#
#
#
# Elastic Compliance Matrix: (Units=1/GPa)
#
#
# Indices 1 2 3 4 5 6 
#
# 1 0.054270 -0.014875 -0.008477 0.000000 0.000000 0.000000
# 2 -0.014875 0.024265 -0.003093 0.000000 0.000000 0.000000
# 3 -0.008477 -0.003093 0.010332 0.000000 0.000000 0.000000
# 4 0.000000 0.000000 0.000000 4.869474 0.000000 0.000000
# 5 0.000000 0.000000 0.000000 0.000000 0.229753 0.000000
# 6 0.000000 0.000000 0.000000 0.000000 0.000000 0.522096
#
#
# Mechanical properties :
#
#
# Convention : Reuss Voigt Hill
#
# Bulk Modulus (GPa) = 27.79586 43.99019 35.89302
# Shear Modulus (GPa) = 0.86579 10.15500 5.51040
#
# Velocity S-wave (km/s) = 0.79810 2.73334 2.01347
# Velocity P-wave (km/s) = 4.61508 6.50580 5.64023
#
# Compressibility (1/GPa) = 0.03597659
#
# Stress axis : x y z
#
# Youngs Moduli (GPa) = 18.42622 41.21199 96.78721
#
# Poissons Ratio (x) = 0.61302 0.82046
# Poissons Ratio (y) = 0.27409 0.29941
# Poissons Ratio (z) = 0.15620 0.12749
#
# Static dielectric constant tensor:
#      x y z
#    x 1.430890 0.000000 0.000000 
#    y 0.000000 1.444930 0.000000 
#    z 0.000000 0.000000 1.466230 
# 
# From -- ./inp_files/55990.got.cif
#   From: 2010.05.17/outbox.cif.g08.bks.cpg/sg65_28_cif.got.tgz:55990.got - 2010.06.03 17:01:31.
