data_PCOD9482005
_publ_section_title
;
Structure prediction by ZEFSAII (Michael W. Deem and Ramdas Pophale) SiO2 
 PCOD9482005
Probable space group: C M C A
;
_chemical_formula_sum "Si O2"
_cell_formula_units_Z 72
_cell_length_a 13.144396
_cell_length_b 24.067980
_cell_length_c 12.270169
_cell_angle_alpha 90.000000
_cell_angle_beta 90.000000
_cell_angle_gamma 90.000000
_cell_volume 3881.779131
_symmetry_space_group_name_H-M "C M C A"
_symmetry_group_IT_number 64
_symmetry_cell_setting 'orthorhombic'
loop_
_space_group_symop_operation_xyz
x,y,z
-x,1/2-y,1/2+z
x,-y,-z
-x,1/2+y,1/2-z
-x,-y,-z
x,1/2+y,1/2-z
-x,y,z
x,1/2-y,1/2+z
1/2+x,1/2+y,z
1/2-x,-y,1/2+z
1/2+x,1/2-y,-z
1/2-x,y,1/2-z
1/2-x,1/2-y,-z
1/2+x,y,1/2-z
1/2-x,1/2+y,z
1/2+x,-y,1/2+z
loop_
_atom_site_type_symbol
_atom_site_label
_atom_site_fract_x
_atom_site_fract_y
_atom_site_fract_z
Si Si1 0.883061 0.931908 0.620701
Si Si2 0.771122 0.816652 0.627428
Si Si3 0.379159 0.209572 0.563053
Si Si4 0.750000 0.647310 0.750000
Si Si5 0.384429 0.945658 0.139880
O O1 0.814157 0.878597 0.639627
O O2 0.886016 0.939872 0.490402
O O3 0.000000 0.922163 0.657327
O O4 0.847747 0.991716 0.666208
O O5 0.750000 0.796656 0.750000
O O6 0.673079 0.812440 0.548512
O O7 0.853359 0.775239 0.572701
O O8 0.500000 0.199836 0.567067
O O9 0.318073 0.181534 0.663734
O O10 0.677834 0.605537 0.684446
O O11 0.500000 0.942201 0.180273
#
# Coordination Sequence:
#
# PCOD9482005 Si02
#       5
#    16  16  16   8  16
#     4   9  18  36  59  86 115 151 203 251 294 351
#     4  11  23  42  62  90 119 159 199 248 308 363
#     4  11  25  42  61  90 124 160 204 250 301 363
#     4  12  20  40  60  88 124 164 200 248 300 358
#     4   9  19  34  59  86 114 158 204 243 291 356
#
# _framework density 18.548195
#
# number of rings (size 3 to 8) (size 9 to 14) (size 15 to 20)
#    0.000    1.778    3.333    2.667    1.556    1.778 
#    0.000    0.000    0.000    1.333    0.000    0.000 
#    0.000    0.000    0.000    0.000    0.000    0.000 
#
# Total GULP energy -200694.790823 kJ/mol
# GULP energy per Si atom -5574.855301 kJ/mol
# Density = 1.850598 g / cm^3
# Si number density = 18.548195 Si / 1000 Ang^3
#
#
#
# Elastic Constant Matrix: (Units=GPa)
#
#
# Indices 1 2 3 4 5 6 
#
# 1 130.2502 61.2303 53.7573 0.0000 0.0000 0.0000
# 2 61.2303 114.9931 15.5594 0.0000 0.0000 0.0000
# 3 53.7573 15.5594 77.6062 0.0000 0.0000 0.0000
# 4 0.0000 0.0000 0.0000 14.2281 0.0000 0.0000
# 5 0.0000 0.0000 0.0000 0.0000 9.5807 0.0000
# 6 0.0000 0.0000 0.0000 0.0000 0.0000 25.7921
#
#
#
# Elastic Compliance Matrix: (Units=1/GPa)
#
#
# Indices 1 2 3 4 5 6 
#
# 1 0.014233 -0.006419 -0.008572 0.000000 0.000000 0.000000
# 2 -0.006419 0.011833 0.002074 0.000000 0.000000 0.000000
# 3 -0.008572 0.002074 0.018408 0.000000 0.000000 0.000000
# 4 0.000000 0.000000 0.000000 0.070283 0.000000 0.000000
# 5 0.000000 0.000000 0.000000 0.000000 0.104376 0.000000
# 6 0.000000 0.000000 0.000000 0.000000 0.000000 0.038771
#
#
# Mechanical properties :
#
#
# Convention : Reuss Voigt Hill
#
# Bulk Modulus (GPa) = 53.64912 64.88261 59.26586
# Shear Modulus (GPa) = 17.24422 22.74037 19.99229
#
# Velocity S-wave (km/s) = 3.05240 3.50525 3.28663
# Velocity P-wave (km/s) = 6.43505 7.17209 6.81354
#
# Compressibility (1/GPa) = 0.01863964
#
# Stress axis : x y z
#
# Youngs Moduli (GPa) = 70.26003 84.50697 54.32530
#
# Poissons Ratio (x) = 0.54242 0.46568
# Poissons Ratio (y) = 0.45098 -0.11265
# Poissons Ratio (z) = 0.60228 -0.17524
#
# Static dielectric constant tensor:
#      x y z
#    x 1.645420 0.000000 0.000000 
#    y 0.000000 1.663920 0.000000 
#    z 0.000000 0.000000 1.661360 
# 
# From -- ./inp_files/14352.got.cif
#   From: 2010.05.17/outbox.cif.g08.bks.cpg/sg64_8_cif.got.tgz:14352.got - 2010.06.03 16:29:19.
