data_PCOD9482787
_publ_section_title
;
Structure prediction by ZEFSAII (Michael W. Deem and Ramdas Pophale) SiO2 
 PCOD9482787
Probable space group: C M M M
;
_chemical_formula_sum "Si O2"
_cell_formula_units_Z 82
_cell_length_a 26.498538
_cell_length_b 14.621367
_cell_length_c 9.815504
_cell_angle_alpha 90.000000
_cell_angle_beta 90.000000
_cell_angle_gamma 90.000000
_cell_volume 3802.966466
_symmetry_space_group_name_H-M "C M M M"
_symmetry_group_IT_number 65
_symmetry_cell_setting 'orthorhombic'
loop_
_space_group_symop_operation_xyz
x,y,z
-x,-y,z
x,-y,-z
-x,y,-z
-x,-y,-z
x,y,-z
-x,y,z
x,-y,z
1/2+x,1/2+y,z
1/2-x,1/2-y,z
1/2+x,1/2-y,-z
1/2-x,1/2+y,-z
1/2-x,1/2-y,-z
1/2+x,1/2+y,-z
1/2-x,1/2+y,z
1/2+x,1/2-y,z
loop_
_atom_site_type_symbol
_atom_site_label
_atom_site_fract_x
_atom_site_fract_y
_atom_site_fract_z
Si Si1 0.607671 0.355346 0.647782
Si Si2 0.192612 0.363145 0.841099
Si Si3 0.000000 0.352682 0.166180
Si Si4 0.500000 0.500000 0.000000
Si Si5 0.500000 0.637578 0.751783
Si Si6 0.598646 0.133983 0.340462
Si Si7 0.194569 0.859641 0.155836
O O1 0.626662 0.381310 0.500000
O O2 0.550553 0.384092 0.670434
O O3 0.603992 0.244597 0.655046
O O4 0.646991 0.390122 0.757984
O O5 0.149133 0.395869 0.739499
O O6 0.193026 0.251728 0.840586
O O7 0.249535 0.389297 0.799304
O O8 0.184014 0.389384 0.000000
O O9 0.000000 0.243794 0.199563
O O10 0.050017 0.388019 0.245922
O O11 0.000000 0.367282 0.000000
O O12 0.500000 0.578250 0.884084
O O13 0.594154 0.105367 0.500000
O O14 0.188790 0.887549 0.000000
#
# Coordination Sequence:
#
# PCOD9482787 Si02
#       7
#    16  16   8   2   8  16  16
#     4   9  17  28  41  55  71  89 108 137 178 225
#     4   8  13  22  32  49  73  97 116 140 167 199
#     4  10  17  27  40  53  67  92 121 155 188 224
#     4  12  24  36  46  64  64  80 110 152 200 254
#     4  10  21  32  45  57  70  81 111 150 192 241
#     4   9  16  23  34  51  72  94 119 147 176 209
#     4   8  14  22  36  53  72  92 116 137 163 202
#
# _framework density 21.562116
#
# number of rings (size 3 to 8) (size 9 to 14) (size 15 to 20)
#    0.000    3.122    0.488    2.341    1.366    5.463 
#    0.000    4.878    0.000    0.000    0.000    0.000 
#    0.000    0.000    0.000    0.000    0.000    0.000 
#
# Total GULP energy -228458.069842 kJ/mol
# GULP energy per Si atom -5572.148045 kJ/mol
# Density = 2.151304 g / cm^3
# Si number density = 21.562116 Si / 1000 Ang^3
#
#
#
# Elastic Constant Matrix: (Units=GPa)
#
#
# Indices 1 2 3 4 5 6 
#
# 1 218.5562 5.3726 119.5491 0.0000 0.0000 0.0000
# 2 5.3726 81.1589 2.7204 0.0000 0.0000 0.0000
# 3 119.5491 2.7204 148.1752 0.0000 0.0000 0.0000
# 4 0.0000 0.0000 0.0000 -14.5222 0.0000 0.0000
# 5 0.0000 0.0000 0.0000 0.0000 -0.5130 0.0000
# 6 0.0000 0.0000 0.0000 0.0000 0.0000 -23.9443
#
#
#
# Elastic Compliance Matrix: (Units=1/GPa)
#
#
# Indices 1 2 3 4 5 6 
#
# 1 0.008198 -0.000321 -0.006608 0.000000 0.000000 0.000000
# 2 -0.000321 0.012342 0.000033 0.000000 0.000000 0.000000
# 3 -0.006608 0.000033 0.012080 0.000000 0.000000 0.000000
# 4 0.000000 0.000000 0.000000 -0.068860 0.000000 0.000000
# 5 0.000000 0.000000 0.000000 0.000000 -1.949161 0.000000
# 6 0.000000 0.000000 0.000000 0.000000 0.000000 -0.041764
#
#
# Mechanical properties :
#
#
# Convention : Reuss Voigt Hill
#
# Bulk Modulus (GPa) = 53.11918 78.13050 65.62484
# Shear Modulus (GPa) = -2.49116 13.55397 5.53140
#
# Velocity S-wave (km/s) = -1.07603 2.50991 1.60340
# Velocity P-wave (km/s) = 4.81094 6.68680 5.82488
#
# Compressibility (1/GPa) = 0.01882559
#
# Stress axis : x y z
#
# Youngs Moduli (GPa) = 121.97849 81.02624 82.78193
#
# Poissons Ratio (x) = 0.02603 0.54706
# Poissons Ratio (y) = 0.03918 -0.00270
# Poissons Ratio (z) = 0.80609 -0.00264
#
# Static dielectric constant tensor:
#      x y z
#    x 1.724730 0.000000 0.000000 
#    y 0.000000 1.818470 0.000000 
#    z 0.000000 0.000000 1.725530 
# 
# From -- ./inp_files/16289.got.cif
#   From: 2010.05.17/outbox.cif.g08.bks.cpg/sg65_9_cif.got.tgz:16289.got - 2010.06.03 17:01:31.
