data_PCOD9482641
_publ_section_title
;
Structure prediction by ZEFSAII (Michael W. Deem and Ramdas Pophale) SiO2 
 PCOD9482641
Probable space group: C M M M
;
_chemical_formula_sum "Si O2"
_cell_formula_units_Z 80
_cell_length_a 24.996902
_cell_length_b 26.819120
_cell_length_c 7.463441
_cell_angle_alpha 90.000000
_cell_angle_beta 90.000000
_cell_angle_gamma 90.000000
_cell_volume 5003.452890
_symmetry_space_group_name_H-M "C M M M"
_symmetry_group_IT_number 65
_symmetry_cell_setting 'orthorhombic'
loop_
_space_group_symop_operation_xyz
x,y,z
-x,-y,z
x,-y,-z
-x,y,-z
-x,-y,-z
x,y,-z
-x,y,z
x,-y,z
1/2+x,1/2+y,z
1/2-x,1/2-y,z
1/2+x,1/2-y,-z
1/2-x,1/2+y,-z
1/2-x,1/2-y,-z
1/2+x,1/2+y,-z
1/2-x,1/2+y,z
1/2+x,1/2-y,z
loop_
_atom_site_type_symbol
_atom_site_label
_atom_site_fract_x
_atom_site_fract_y
_atom_site_fract_z
Si Si1 0.000000 0.229398 0.704447
Si Si2 0.391044 0.443626 0.714756
Si Si3 0.716286 0.198310 0.710200
Si Si4 0.317388 0.644169 0.280608
Si Si5 0.500000 0.615361 0.791626
Si Si6 0.882420 0.243382 0.720046
O O1 0.000000 0.169063 0.698469
O O2 0.943286 0.245916 0.783882
O O3 0.000000 0.247926 0.500000
O O4 0.385519 0.446330 0.500000
O O5 0.390166 0.500000 0.784929
O O6 0.344127 0.407052 0.780061
O O7 0.447481 0.416712 0.749393
O O8 0.708741 0.186890 0.500000
O O9 0.750000 0.250000 0.719749
O O10 0.757419 0.157223 0.782721
O O11 0.658101 0.213246 0.781892
O O12 0.316166 0.644290 0.500000
O O13 0.356157 0.690206 0.229470
O O14 0.500000 0.627185 0.000000
O O15 0.882576 0.243670 0.500000
#
# Coordination Sequence:
#
# PCOD9482641 Si02
#       6
#     8  16  16  16   8  16
#     4  10  16  25  41  56  72  93 121 152 176 201
#     4  10  19  30  43  55  66  87 121 156 184 208
#     4   7  10  16  28  50  73  87 102 131 174 215
#     4   8  12  20  34  51  70  87 107 140 178 211
#     4  12  23  31  38  49  70  98 124 149 183 214
#     4   8  12  18  32  52  71  89 110 138 173 207
#
# _framework density 15.988956999999999
#
# number of rings (size 3 to 8) (size 9 to 14) (size 15 to 20)
#    0.000    3.200    2.000    3.600    0.000    1.600 
#    0.000    0.000    0.000    0.000    0.000    2.800 
#    0.000    0.000    0.000    0.900    0.000   28.800 
#
# Total GULP energy -222747.877626 kJ/mol
# GULP energy per Si atom -5568.696941 kJ/mol
# Density = 1.595257 g / cm^3
# Si number density = 15.988957 Si / 1000 Ang^3
#
#
#
# Elastic Constant Matrix: (Units=GPa)
#
#
# Indices 1 2 3 4 5 6 
#
# 1 164.8937 67.3342 4.6364 0.0000 0.0000 0.0000
# 2 67.3342 58.9058 1.6957 0.0000 0.0000 0.0000
# 3 4.6364 1.6957 48.2939 0.0000 0.0000 0.0000
# 4 0.0000 0.0000 0.0000 -16.8749 0.0000 0.0000
# 5 0.0000 0.0000 0.0000 0.0000 -42.9617 0.0000
# 6 0.0000 0.0000 0.0000 0.0000 0.0000 16.9279
#
#
#
# Elastic Compliance Matrix: (Units=1/GPa)
#
#
# Indices 1 2 3 4 5 6 
#
# 1 0.011393 -0.013005 -0.000637 0.000000 0.000000 0.000000
# 2 -0.013005 0.031838 0.000131 0.000000 0.000000 0.000000
# 3 -0.000637 0.000131 0.020763 0.000000 0.000000 0.000000
# 4 0.000000 0.000000 0.000000 -0.059260 0.000000 0.000000
# 5 0.000000 0.000000 0.000000 0.000000 -0.023277 0.000000
# 6 0.000000 0.000000 0.000000 0.000000 0.000000 0.059074
#
#
# Mechanical properties :
#
#
# Convention : Reuss Voigt Hill
#
# Bulk Modulus (GPa) = 27.04783 46.60288 36.82536
# Shear Modulus (GPa) = 62.59543 4.64672 33.62108
#
# Velocity S-wave (km/s) = 6.26372 1.70661 4.59057
# Velocity P-wave (km/s) = 8.32259 5.75270 7.15399
#
# Compressibility (1/GPa) = 0.03697155
#
# Stress axis : x y z
#
# Youngs Moduli (GPa) = 87.77425 31.40913 48.16227
#
# Poissons Ratio (x) = 0.40846 0.03069
# Poissons Ratio (y) = 1.14147 -0.00629
# Poissons Ratio (z) = 0.05593 -0.00410
#
# Static dielectric constant tensor:
#      x y z
#    x 1.575870 0.000000 0.000000 
#    y 0.000000 1.522900 0.000000 
#    z 0.000000 0.000000 1.594110 
# 
# From -- ./inp_files/14540.got.cif
#   From: 2010.05.17/outbox.cif.g08.bks.cpg/sg65_8_cif.got.tgz:14540.got - 2010.06.03 17:01:31.
