data_PCOD9482439
_publ_section_title
;
Structure prediction by ZEFSAII (Michael W. Deem and Ramdas Pophale) SiO2 
 PCOD9482439
Probable space group: C M C A
;
_chemical_formula_sum "Si O2"
_cell_formula_units_Z 48
_cell_length_a 9.000000
_cell_length_b 21.000000
_cell_length_c 27.000000
_cell_angle_alpha 90.000000
_cell_angle_beta 90.000000
_cell_angle_gamma 90.000000
_cell_volume 5103.000000
_symmetry_space_group_name_H-M "C M C A"
_symmetry_group_IT_number 64
_symmetry_cell_setting 'orthorhombic'
loop_
_space_group_symop_operation_xyz
x,y,z
-x,1/2-y,1/2+z
x,-y,-z
-x,1/2+y,1/2-z
-x,-y,-z
x,1/2+y,1/2-z
-x,y,z
x,1/2-y,1/2+z
1/2+x,1/2+y,z
1/2-x,-y,1/2+z
1/2+x,1/2-y,-z
1/2-x,y,1/2-z
1/2-x,1/2-y,-z
1/2+x,y,1/2-z
1/2-x,1/2+y,z
1/2+x,-y,1/2+z
loop_
_atom_site_type_symbol
_atom_site_label
_atom_site_fract_x
_atom_site_fract_y
_atom_site_fract_z
Si Si1 0.821612 0.352279 0.895031
Si Si2 0.680444 0.981697 0.946062
Si Si3 0.177517 0.678548 0.699362
Si Si4 0.323833 0.764905 0.051928
Si Si5 0.676846 0.892424 0.110475
Si Si6 0.177806 0.318524 0.699211
O O1 0.779788 0.410401 0.930729
O O2 0.758645 0.284851 0.912796
O O3 0.740766 0.363173 0.843345
O O4 0.000000 0.349404 0.890439
O O5 0.500000 0.982821 0.947777
O O6 0.721252 0.038062 0.908530
O O7 0.737479 0.000000 0.000000
O O8 0.250000 0.653918 0.750000
O O9 0.225422 0.632394 0.655524
O O10 0.255225 0.747385 0.691515
O O11 0.000000 0.686478 0.703041
O O12 0.500000 0.752061 0.051943
O O13 0.305057 0.838079 0.068311
O O14 0.250000 0.750000 0.000000
O O15 0.500000 0.892554 0.123169
O O16 0.250000 0.340745 0.750000
O O17 0.000000 0.315195 0.700323
#
# Coordination Sequence:
#
# PCOD9482439 Si02
#       6
#    16  16  16  16  16  16
#     4  11  21  36  59  87 117 150 194 241 292 348
#     4   9  19  37  60  84 114 157 198 237 286 346
#     4  11  21  35  58  87 118 151 190 237 293 346
#     4  11  22  35  56  83 114 149 192 244 294 344
#     4  10  20  37  59  84 115 153 196 237 286 345
#     4  11  21  36  58  86 118 152 191 236 292 348
#
# _framework density 9.4062319999999993
#
# number of rings (size 3 to 8) (size 9 to 14) (size 15 to 20)
#    0.000    1.500    1.667    6.000    0.000    3.333 
#    0.000    2.500    0.000    3.500    0.000    0.000 
#    0.000    0.000    0.000    0.000    0.000    0.000 
#
# Total GULP energy -267834.085628 kJ/mol
# GULP energy per Si atom -5579.876784 kJ/mol
# Density = 0.938482 g / cm^3
# Si number density = 9.406232 Si / 1000 Ang^3
#
#
#
# Elastic Constant Matrix: (Units=GPa)
#
#
# Indices 1 2 3 4 5 6 
#
# 1 96.9042 -6.9419 14.3650 0.0000 0.0000 0.0000
# 2 -6.9419 -3.1863 -30.2091 0.0000 0.0000 0.0000
# 3 14.3650 -30.2091 70.4591 0.0000 0.0000 0.0000
# 4 0.0000 0.0000 0.0000 79.9672 0.0000 0.0000
# 5 0.0000 0.0000 0.0000 0.0000 25.0360 0.0000
# 6 0.0000 0.0000 0.0000 0.0000 0.0000 14.5074
#
#
#
# Elastic Compliance Matrix: (Units=1/GPa)
#
#
# Indices 1 2 3 4 5 6 
#
# 1 0.010637 -0.000516 -0.002390 0.000000 0.000000 0.000000
# 2 -0.000516 -0.061939 -0.026451 0.000000 0.000000 0.000000
# 3 -0.002390 -0.026451 0.003339 0.000000 0.000000 0.000000
# 4 0.000000 0.000000 0.000000 0.012505 0.000000 0.000000
# 5 0.000000 0.000000 0.000000 0.000000 0.039942 0.000000
# 6 0.000000 0.000000 0.000000 0.000000 0.000000 0.068930
#
#
# Mechanical properties :
#
#
# Convention : Reuss Voigt Hill
#
# Bulk Modulus (GPa) = -9.37406 13.17835 1.90214
# Shear Modulus (GPa) = 51.77643 36.36633 44.07138
#
# Velocity S-wave (km/s) = 5.25187 4.40147 4.84536
# Velocity P-wave (km/s) = 5.63760 5.73157 5.68478
#
# Compressibility (1/GPa) = -0.10667737
#
# Stress axis : x y z
#
# Youngs Moduli (GPa) = 94.01353 -16.14483 299.48475
#
# Poissons Ratio (x) = -0.00833 0.71572
# Poissons Ratio (y) = 0.04851 7.92169
# Poissons Ratio (z) = 0.22468 -0.42705
#
# Static dielectric constant tensor:
#      x y z
#    x 1.629520 0.000000 0.000000 
#    y 0.000000 1.647590 0.000000 
#    z 0.000000 0.000000 1.701040 
# 
# From -- ./inp_files/48124.got.cif
#   From: 2010.05.17/outbox.ucp.g08.bks.cvg/sg64_25_cif.got.tgz:48124.got - 2010.06.11 16:36:46.
