data_PCOD9482784
_publ_section_title
;
Structure prediction by ZEFSAII (Michael W. Deem and Ramdas Pophale) SiO2 
 PCOD9482784
Probable space group: C M M M
;
_chemical_formula_sum "Si O2"
_cell_formula_units_Z 120
_cell_length_a 14.856299
_cell_length_b 19.490122
_cell_length_c 23.132489
_cell_angle_alpha 90.000000
_cell_angle_beta 90.000000
_cell_angle_gamma 90.000000
_cell_volume 6698.037173
_symmetry_space_group_name_H-M "C M M M"
_symmetry_group_IT_number 65
_symmetry_cell_setting 'orthorhombic'
loop_
_space_group_symop_operation_xyz
x,y,z
-x,-y,z
x,-y,-z
-x,y,-z
-x,-y,-z
x,y,-z
-x,y,z
x,-y,z
1/2+x,1/2+y,z
1/2-x,1/2-y,z
1/2+x,1/2-y,-z
1/2-x,1/2+y,-z
1/2-x,1/2-y,-z
1/2+x,1/2+y,-z
1/2-x,1/2+y,z
1/2+x,1/2-y,z
loop_
_atom_site_type_symbol
_atom_site_label
_atom_site_fract_x
_atom_site_fract_y
_atom_site_fract_z
Si Si1 0.601609 0.785863 0.876927
Si Si2 0.102787 0.877275 0.148587
Si Si3 0.736097 0.831685 0.352919
Si Si4 0.603863 0.080623 0.569489
Si Si5 0.401158 0.000000 0.930194
Si Si6 0.899587 0.692832 0.745759
Si Si7 0.397615 0.643142 0.720850
Si Si8 0.266379 0.119121 0.932000
O O1 0.500000 0.803409 0.898205
O O2 0.601670 0.704633 0.864682
O O3 0.615779 0.818378 0.813463
O O4 0.683288 0.809867 0.916586
O O5 0.126387 0.888344 0.216266
O O6 0.179352 0.901076 0.104999
O O7 0.000000 0.901998 0.139392
O O8 0.750000 0.750000 0.366358
O O9 0.678243 0.871425 0.400730
O O10 0.676416 0.836525 0.294774
O O11 0.830161 0.865163 0.332621
O O12 0.610009 0.086144 0.500000
O O13 0.500000 0.099146 0.585488
O O14 0.616968 0.000000 0.584473
O O15 0.344456 0.066155 0.915354
O O16 0.500000 0.000000 0.904679
O O17 0.407954 0.000000 0.000000
O O18 0.897739 0.774829 0.733994
O O19 0.000000 0.668427 0.731001
O O20 0.500000 0.622810 0.707318
O O21 0.246389 0.115580 0.000000
#
# Coordination Sequence:
#
# PCOD9482784 Si02
#       8
#    16  16  16  16   8  16  16  16
#     4   9  17  29  47  71  99 127 153 189 244 308
#     4   9  18  32  49  71  99 127 155 192 242 300
#     4  10  17  26  50  81 104 130 173 225 263 291
#     4   9  19  36  55  75 106 149 184 207 247 310
#     4   9  20  38  53  63  79 109 152 196 236 285
#     4   8  14  25  43  70 100 127 157 196 248 303
#     4   8  15  28  46  70  99 130 161 194 241 301
#     4  11  21  32  48  67  87 120 164 203 242 291
#
# _framework density 17.915697000000002
#
# number of rings (size 3 to 8) (size 9 to 14) (size 15 to 20)
#    0.000    2.867    0.000    4.000    0.000    5.067 
#    0.000    1.667    5.867    2.000    0.000    0.933 
#    0.000    0.000    0.000    0.000    0.000    0.000 
#
# Total GULP energy -334120.523852 kJ/mol
# GULP energy per Si atom -5568.675398 kJ/mol
# Density = 1.787492 g / cm^3
# Si number density = 17.915697 Si / 1000 Ang^3
#
#
#
# Elastic Constant Matrix: (Units=GPa)
#
#
# Indices 1 2 3 4 5 6 
#
# 1 123.0270 36.4357 63.1733 0.0000 0.0000 0.0000
# 2 36.4357 33.2933 22.3301 0.0000 0.0000 0.0000
# 3 63.1733 22.3301 63.2564 0.0000 0.0000 0.0000
# 4 0.0000 0.0000 0.0000 -10.3248 0.0000 0.0000
# 5 0.0000 0.0000 0.0000 0.0000 36.0657 0.0000
# 6 0.0000 0.0000 0.0000 0.0000 0.0000 44.0434
#
#
#
# Elastic Compliance Matrix: (Units=1/GPa)
#
#
# Indices 1 2 3 4 5 6 
#
# 1 0.019203 -0.010682 -0.015407 0.000000 0.000000 0.000000
# 2 -0.010682 0.045296 -0.005322 0.000000 0.000000 0.000000
# 3 -0.015407 -0.005322 0.033074 0.000000 0.000000 0.000000
# 4 0.000000 0.000000 0.000000 -0.096855 0.000000 0.000000
# 5 0.000000 0.000000 0.000000 0.000000 0.027727 0.000000
# 6 0.000000 0.000000 0.000000 0.000000 0.000000 0.022705
#
#
# Mechanical properties :
#
#
# Convention : Reuss Voigt Hill
#
# Bulk Modulus (GPa) = 28.77599 51.49498 40.13549
# Shear Modulus (GPa) = 39.82251 20.46605 30.14428
#
# Velocity S-wave (km/s) = 4.71974 3.38354 4.10636
# Velocity P-wave (km/s) = 6.76743 6.63851 6.70328
#
# Compressibility (1/GPa) = 0.03475119
#
# Stress axis : x y z
#
# Youngs Moduli (GPa) = 52.07404 22.07711 30.23490
#
# Poissons Ratio (x) = 0.23583 0.46584
# Poissons Ratio (y) = 0.55626 0.16090
# Poissons Ratio (z) = 0.80232 0.11749
#
# Static dielectric constant tensor:
#      x y z
#    x 1.665430 0.000000 0.000000 
#    y 0.000000 1.685160 0.000000 
#    z 0.000000 0.000000 1.595850 
# 
# From -- ./inp_files/63019.got.cif
#   From: 2010.05.17/outbox.cif.g08.bks.cpg/sg65_32_cif.got.tgz:63019.got - 2010.06.03 17:01:31.
