data_PCOD9482193
_publ_section_title
;
Structure prediction by ZEFSAII (Michael W. Deem and Ramdas Pophale) SiO2 
 PCOD9482193
Probable space group: C M C A
;
_chemical_formula_sum "Si O2"
_cell_formula_units_Z 88
_cell_length_a 23.065057
_cell_length_b 15.826049
_cell_length_c 11.286076
_cell_angle_alpha 90.000000
_cell_angle_beta 90.000000
_cell_angle_gamma 90.000000
_cell_volume 4119.741902
_symmetry_space_group_name_H-M "C M C A"
_symmetry_group_IT_number 64
_symmetry_cell_setting 'orthorhombic'
loop_
_space_group_symop_operation_xyz
x,y,z
-x,1/2-y,1/2+z
x,-y,-z
-x,1/2+y,1/2-z
-x,-y,-z
x,1/2+y,1/2-z
-x,y,z
x,1/2-y,1/2+z
1/2+x,1/2+y,z
1/2-x,-y,1/2+z
1/2+x,1/2-y,-z
1/2-x,y,1/2-z
1/2-x,1/2-y,-z
1/2+x,y,1/2-z
1/2-x,1/2+y,z
1/2+x,-y,1/2+z
loop_
_atom_site_type_symbol
_atom_site_label
_atom_site_fract_x
_atom_site_fract_y
_atom_site_fract_z
Si Si1 0.000000 0.195069 0.107380
Si Si2 0.845630 0.516236 0.666265
Si Si3 0.500000 0.184280 0.126265
Si Si4 0.750000 0.629321 0.750000
Si Si5 0.385159 0.129690 0.483533
Si Si6 0.614163 0.570094 0.406189
Si Si7 0.810148 0.206549 0.537064
O O1 0.055857 0.137053 0.087778
O O2 0.000000 0.229177 0.242937
O O3 0.000000 0.259138 0.994172
O O4 0.786519 0.568620 0.665558
O O5 0.891361 0.582531 0.609103
O O6 0.842972 0.432880 0.586956
O O7 0.862551 0.482048 0.794149
O O8 0.441228 0.128579 0.122919
O O9 0.796732 0.680916 0.826897
O O10 0.358026 0.221845 0.484202
O O11 0.595139 0.500000 0.500000
O O12 0.665879 0.626944 0.463028
O O13 0.750000 0.250000 0.500000
#
# Coordination Sequence:
#
# PCOD9482193 Si02
#       7
#     8  16   8   8  16  16  16
#     4  12  26  48  81 110 156 191 258 314 385 451
#     4  11  26  44  72 107 148 193 254 299 376 441
#     4  12  27  49  78 115 148 203 246 319 383 457
#     4  12  26  44  74 108 152 198 244 314 374 452
#     4  11  26  47  73 107 149 198 247 309 374 453
#     4  12  26  48  74 107 149 194 252 309 375 451
#     4  12  27  44  72 106 146 194 245 303 375 448
#
# _framework density 21.360561000000001
#
# number of rings (size 3 to 8) (size 9 to 14) (size 15 to 20)
#    0.000    0.364    7.273    0.273    5.091    5.091 
#    0.000    0.000    0.000    0.000    0.000    0.000 
#    0.000    0.000    0.000    0.000    0.000    0.000 
#
# Total GULP energy -245638.072970 kJ/mol
# GULP energy per Si atom -5582.683477 kJ/mol
# Density = 2.131194 g / cm^3
# Si number density = 21.360561 Si / 1000 Ang^3
#
#
#
# Elastic Constant Matrix: (Units=GPa)
#
#
# Indices 1 2 3 4 5 6 
#
# 1 66.4653 12.2325 16.4514 0.0000 0.0000 0.0000
# 2 12.2325 98.4255 58.9101 0.0000 0.0000 0.0000
# 3 16.4514 58.9101 143.1277 0.0000 0.0000 0.0000
# 4 0.0000 0.0000 0.0000 46.8988 0.0000 0.0000
# 5 0.0000 0.0000 0.0000 0.0000 27.5330 0.0000
# 6 0.0000 0.0000 0.0000 0.0000 0.0000 16.2755
#
#
#
# Elastic Compliance Matrix: (Units=1/GPa)
#
#
# Indices 1 2 3 4 5 6 
#
# 1 0.015583 -0.001147 -0.001319 0.000000 0.000000 0.000000
# 2 -0.001147 0.013565 -0.005452 0.000000 0.000000 0.000000
# 3 -0.001319 -0.005452 0.009382 0.000000 0.000000 0.000000
# 4 0.000000 0.000000 0.000000 0.021322 0.000000 0.000000
# 5 0.000000 0.000000 0.000000 0.000000 0.036320 0.000000
# 6 0.000000 0.000000 0.000000 0.000000 0.000000 0.061442
#
#
# Mechanical properties :
#
#
# Convention : Reuss Voigt Hill
#
# Bulk Modulus (GPa) = 44.06225 53.68960 48.87593
# Shear Modulus (GPa) = 27.62187 32.83643 30.22915
#
# Velocity S-wave (km/s) = 3.59991 3.92503 3.76598
# Velocity P-wave (km/s) = 6.16050 6.76244 6.46847
#
# Compressibility (1/GPa) = 0.02269516
#
# Stress axis : x y z
#
# Youngs Moduli (GPa) = 64.17225 73.71669 106.58496
#
# Poissons Ratio (x) = 0.08457 0.14058
# Poissons Ratio (y) = 0.07362 0.58105
# Poissons Ratio (z) = 0.08464 0.40187
#
# Static dielectric constant tensor:
#      x y z
#    x 1.805260 0.000000 0.000000 
#    y 0.000000 1.766100 0.000000 
#    z 0.000000 0.000000 1.904790 
# 
# From -- ./inp_files/19100.got.cif
#   From: 2010.05.17/outbox.cif.g08.bks.cpg/sg64_10_cif.got.tgz:19100.got - 2010.06.03 16:29:19.
