data_PCOD9482989
_publ_section_title
;
Structure prediction by ZEFSAII (Michael W. Deem and Ramdas Pophale) SiO2 
 PCOD9482989
Probable space group: C M M M
;
_chemical_formula_sum "Si O2"
_cell_formula_units_Z 104
_cell_length_a 8.574276
_cell_length_b 27.745304
_cell_length_c 23.431475
_cell_angle_alpha 90.000000
_cell_angle_beta 90.000000
_cell_angle_gamma 90.000000
_cell_volume 5574.251698
_symmetry_space_group_name_H-M "C M M M"
_symmetry_group_IT_number 65
_symmetry_cell_setting 'orthorhombic'
loop_
_space_group_symop_operation_xyz
x,y,z
-x,-y,z
x,-y,-z
-x,y,-z
-x,-y,-z
x,y,-z
-x,y,z
x,-y,z
1/2+x,1/2+y,z
1/2-x,1/2-y,z
1/2+x,1/2-y,-z
1/2-x,1/2+y,-z
1/2-x,1/2-y,-z
1/2+x,1/2+y,-z
1/2-x,1/2+y,z
1/2+x,1/2-y,z
loop_
_atom_site_type_symbol
_atom_site_label
_atom_site_fract_x
_atom_site_fract_y
_atom_site_fract_z
Si Si1 0.311859 0.903893 0.132424
Si Si2 0.690238 0.000000 0.934511
Si Si3 0.819037 0.199101 0.740828
Si Si4 0.678942 0.301532 0.121431
Si Si5 0.309486 0.944572 0.253093
Si Si6 0.314142 0.302234 0.565614
Si Si7 0.818589 0.374044 0.657194
O O1 0.500000 0.903158 0.133594
O O2 0.258156 0.852647 0.107212
O O3 0.256803 0.914226 0.197582
O O4 0.260831 0.950792 0.096698
O O5 0.500000 0.000000 0.932789
O O6 0.739680 0.000000 0.000000
O O7 0.750000 0.250000 0.722386
O O8 0.814344 0.198454 0.809257
O O9 0.707708 0.160781 0.711411
O O10 0.000000 0.192600 0.723059
O O11 0.500000 0.302810 0.103360
O O12 0.750000 0.250000 0.102720
O O13 0.500000 0.942647 0.253197
O O14 0.257867 0.923512 0.314378
O O15 0.264176 0.000000 0.245323
O O16 0.260779 0.309239 0.500000
O O17 0.500000 0.299290 0.566235
O O18 0.250000 0.250000 0.584837
O O19 0.262590 0.346307 0.605482
O O20 0.000000 0.379076 0.643071
#
# Coordination Sequence:
#
# PCOD9482989 Si02
#       7
#    16   8  16  16  16  16  16
#     4  10  17  31  55  79 111 148 183 226 273 325
#     4   9  18  32  57  91 117 145 188 233 274 322
#     4  10  19  29  42  64  98 133 165 202 244 300
#     4  10  20  32  48  73 107 144 182 220 266 327
#     4   9  17  30  49  75 103 137 175 213 264 318
#     4  10  21  37  55  74 100 134 173 215 260 312
#     4  11  20  30  49  73 100 131 169 213 257 311
#
# _framework density 18.657212000000001
#
# number of rings (size 3 to 8) (size 9 to 14) (size 15 to 20)
#    0.000    2.077    2.308    2.308    0.000    2.154 
#    0.000    0.385    0.000    5.538    0.000    3.231 
#    0.000    0.000    0.000    0.000    0.000    0.000 
#
# Total GULP energy -289786.734503 kJ/mol
# GULP energy per Si atom -5572.821817 kJ/mol
# Density = 1.861475 g / cm^3
# Si number density = 18.657212 Si / 1000 Ang^3
#
#
#
# Elastic Constant Matrix: (Units=GPa)
#
#
# Indices 1 2 3 4 5 6 
#
# 1 30.1024 21.7079 13.2052 0.0000 0.0000 0.0000
# 2 21.7079 145.0939 38.0423 0.0000 0.0000 0.0000
# 3 13.2052 38.0423 66.8907 0.0000 0.0000 0.0000
# 4 0.0000 0.0000 0.0000 25.5278 0.0000 0.0000
# 5 0.0000 0.0000 0.0000 0.0000 10.7554 0.0000
# 6 0.0000 0.0000 0.0000 0.0000 0.0000 20.1394
#
#
#
# Elastic Compliance Matrix: (Units=1/GPa)
#
#
# Indices 1 2 3 4 5 6 
#
# 1 0.038666 -0.004447 -0.005104 0.000000 0.000000 0.000000
# 2 -0.004447 0.008611 -0.004020 0.000000 0.000000 0.000000
# 3 -0.005104 -0.004020 0.018243 0.000000 0.000000 0.000000
# 4 0.000000 0.000000 0.000000 0.039173 0.000000 0.000000
# 5 0.000000 0.000000 0.000000 0.000000 0.092976 0.000000
# 6 0.000000 0.000000 0.000000 0.000000 0.000000 0.049654
#
#
# Mechanical properties :
#
#
# Convention : Reuss Voigt Hill
#
# Bulk Modulus (GPa) = 26.05566 43.11087 34.58327
# Shear Modulus (GPa) = 17.40600 22.55998 19.98299
#
# Velocity S-wave (km/s) = 3.05771 3.48110 3.27626
# Velocity P-wave (km/s) = 5.14412 6.27012 5.73482
#
# Compressibility (1/GPa) = 0.03837938
#
# Stress axis : x y z
#
# Youngs Moduli (GPa) = 25.86278 116.12709 54.81414
#
# Poissons Ratio (x) = 0.51637 0.27979
# Poissons Ratio (y) = 0.11500 0.22033
# Poissons Ratio (z) = 0.13201 0.46678
#
# Static dielectric constant tensor:
#      x y z
#    x 1.649410 0.000000 0.000000 
#    y 0.000000 1.739340 0.000000 
#    z 0.000000 0.000000 1.660690 
# 
# From -- ./inp_files/68260.got.cif
#   From: 2010.05.17/outbox.cif.g08.bks.cpg/sg65_35_cif.got.tgz:68260.got - 2010.06.03 17:01:31.
