data_PCOD9482437
_publ_section_title
;
Structure prediction by ZEFSAII (Michael W. Deem and Ramdas Pophale) SiO2 
 PCOD9482437
Probable space group: C M C A
;
_chemical_formula_sum "Si O2"
_cell_formula_units_Z 48
_cell_length_a 18.000000
_cell_length_b 24.000000
_cell_length_c 12.000000
_cell_angle_alpha 90.000000
_cell_angle_beta 90.000000
_cell_angle_gamma 90.000000
_cell_volume 5184.000000
_symmetry_space_group_name_H-M "C M C A"
_symmetry_group_IT_number 64
_symmetry_cell_setting 'orthorhombic'
loop_
_space_group_symop_operation_xyz
x,y,z
-x,1/2-y,1/2+z
x,-y,-z
-x,1/2+y,1/2-z
-x,-y,-z
x,1/2+y,1/2-z
-x,y,z
x,1/2-y,1/2+z
1/2+x,1/2+y,z
1/2-x,-y,1/2+z
1/2+x,1/2-y,-z
1/2-x,y,1/2-z
1/2-x,1/2-y,-z
1/2+x,y,1/2-z
1/2-x,1/2+y,z
1/2+x,-y,1/2+z
loop_
_atom_site_type_symbol
_atom_site_label
_atom_site_fract_x
_atom_site_fract_y
_atom_site_fract_z
Si Si1 0.328508 0.807917 0.303598
Si Si2 0.085950 0.292757 0.727404
Si Si3 0.412341 0.386660 0.364935
Si Si4 0.347092 0.120792 0.114235
Si Si5 0.710124 0.692968 0.042149
Si Si6 0.416345 0.011423 0.132621
O O1 0.250000 0.789716 0.250000
O O2 0.383497 0.755689 0.308161
O O3 0.366145 0.848583 0.216639
O O4 0.315594 0.833313 0.425063
O O5 0.100712 0.347700 0.798681
O O6 0.140395 0.293643 0.620734
O O7 0.000000 0.285117 0.698585
O O8 0.500000 0.373923 0.364808
O O9 0.381898 0.378418 0.490038
O O10 0.402948 0.449933 0.322430
O O11 0.268827 0.153003 0.104756
O O12 0.352517 0.056519 0.151416
O O13 0.750000 0.750000 0.000000
O O14 0.500000 0.030869 0.164583
O O15 0.419673 0.000000 0.000000
#
# Coordination Sequence:
#
# PCOD9482437 Si02
#       6
#    16  16  16  16  16  16
#     4  12  22  39  57  83 117 161 194 239 296 356
#     4  12  25  38  59  88 117 155 201 241 293 359
#     4  10  20  36  62  91 121 155 199 250 295 344
#     4  11  19  37  65  87 119 156 194 248 299 345
#     4  12  23  41  59  82 125 157 192 240 301 356
#     4   8  16  32  57  91 120 149 196 249 294 337
#
# _framework density 9.2592590000000001
#
# number of rings (size 3 to 8) (size 9 to 14) (size 15 to 20)
#    0.000    1.167    5.000    3.500    0.000    1.333 
#    0.000    1.667    0.000    0.000    0.000    3.500 
#    0.000    0.000    0.000    0.000    0.000    0.000 
#
# Total GULP energy -267694.137161 kJ/mol
# GULP energy per Si atom -5576.961191 kJ/mol
# Density = 0.923818 g / cm^3
# Si number density = 9.259259 Si / 1000 Ang^3
#
#
#
# Elastic Constant Matrix: (Units=GPa)
#
#
# Indices 1 2 3 4 5 6 
#
# 1 129.3346 34.2851 16.5405 0.0000 0.0000 0.0000
# 2 34.2851 54.7628 7.2692 0.0000 0.0000 0.0000
# 3 16.5405 7.2692 51.1913 0.0000 0.0000 0.0000
# 4 0.0000 0.0000 0.0000 13.4122 0.0000 0.0000
# 5 0.0000 0.0000 0.0000 0.0000 26.5037 0.0000
# 6 0.0000 0.0000 0.0000 0.0000 0.0000 24.9071
#
#
#
# Elastic Compliance Matrix: (Units=1/GPa)
#
#
# Indices 1 2 3 4 5 6 
#
# 1 0.009523 -0.005660 -0.002273 0.000000 0.000000 0.000000
# 2 -0.005660 0.021976 -0.001292 0.000000 0.000000 0.000000
# 3 -0.002273 -0.001292 0.020453 0.000000 0.000000 0.000000
# 4 0.000000 0.000000 0.000000 0.074559 0.000000 0.000000
# 5 0.000000 0.000000 0.000000 0.000000 0.037731 0.000000
# 6 0.000000 0.000000 0.000000 0.000000 0.000000 0.040149
#
#
# Mechanical properties :
#
#
# Convention : Reuss Voigt Hill
#
# Bulk Modulus (GPa) = 29.84998 39.05314 34.45156
# Shear Modulus (GPa) = 21.36685 24.77754 23.07219
#
# Velocity S-wave (km/s) = 3.40046 3.66182 3.53356
# Velocity P-wave (km/s) = 5.61885 6.24604 5.94073
#
# Compressibility (1/GPa) = 0.03350087
#
# Stress axis : x y z
#
# Youngs Moduli (GPa) = 105.00788 45.50470 48.89377
#
# Poissons Ratio (x) = 0.25757 0.11115
# Poissons Ratio (y) = 0.59438 0.06315
# Poissons Ratio (z) = 0.23871 0.05878
#
# Static dielectric constant tensor:
#      x y z
#    x 1.643800 0.000000 0.000000 
#    y 0.000000 1.768030 0.000000 
#    z 0.000000 0.000000 1.650640 
# 
# From -- ./inp_files/16210.got.cif
#   From: 2010.05.17/outbox.ucp.g08.bks.cvg/sg64_9_cif.got.tgz:16210.got - 2010.06.11 16:36:46.
