data_PCOD9482771
_publ_section_title
;
Structure prediction by ZEFSAII (Michael W. Deem and Ramdas Pophale) SiO2 
 PCOD9482771
Probable space group: C M M M
;
_chemical_formula_sum "Si O2"
_cell_formula_units_Z 72
_cell_length_a 17.955383
_cell_length_b 20.487402
_cell_length_c 12.133602
_cell_angle_alpha 90.000000
_cell_angle_beta 90.000000
_cell_angle_gamma 90.000000
_cell_volume 4463.456513
_symmetry_space_group_name_H-M "C M M M"
_symmetry_group_IT_number 65
_symmetry_cell_setting 'orthorhombic'
loop_
_space_group_symop_operation_xyz
x,y,z
-x,-y,z
x,-y,-z
-x,y,-z
-x,-y,-z
x,y,-z
-x,y,z
x,-y,z
1/2+x,1/2+y,z
1/2-x,1/2-y,z
1/2+x,1/2-y,-z
1/2-x,1/2+y,-z
1/2-x,1/2-y,-z
1/2+x,1/2+y,-z
1/2-x,1/2+y,z
1/2+x,1/2-y,z
loop_
_atom_site_type_symbol
_atom_site_label
_atom_site_fract_x
_atom_site_fract_y
_atom_site_fract_z
Si Si1 0.000000 0.077892 0.372194
Si Si2 0.350329 0.811208 0.000000
Si Si3 0.131114 0.854922 0.761161
Si Si4 0.681390 0.654827 0.000000
Si Si5 0.586070 0.798507 0.236229
Si Si6 0.773676 0.326574 0.374657
O O1 0.071415 0.103896 0.306088
O O2 0.000000 0.101348 0.500000
O O3 0.000000 0.000000 0.373769
O O4 0.394837 0.822466 0.887334
O O5 0.332881 0.733265 0.000000
O O6 0.271304 0.848732 0.000000
O O7 0.102783 0.779521 0.760185
O O8 0.210484 0.858759 0.700269
O O9 0.144917 0.872404 0.888752
O O10 0.500000 0.809644 0.263141
O O11 0.645521 0.829998 0.319234
O O12 0.773033 0.350360 0.500000
O O13 0.750000 0.250000 0.376359
#
# Coordination Sequence:
#
# PCOD9482771 Si02
#       6
#     8   8  16   8  16  16
#     4  11  24  39  53  69  91 124 171 217 248 283
#     4   9  15  26  41  66  94 125 159 191 222 283
#     4  10  18  33  48  65  90 125 163 198 246 284
#     4   9  16  27  50  65  87 122 160 195 232 285
#     4  10  17  26  42  68  97 127 159 193 232 285
#     4   9  17  27  41  61  89 125 162 194 231 287
#
# _framework density 16.130997000000001
#
# number of rings (size 3 to 8) (size 9 to 14) (size 15 to 20)
#    0.000    2.333    3.333    1.000    0.000    1.778 
#    0.000    1.111    0.000    0.000    0.000    0.000 
#    0.000    0.889    0.000    6.667    0.000    0.000 
#
# Total GULP energy -200589.329582 kJ/mol
# GULP energy per Si atom -5571.925822 kJ/mol
# Density = 1.609428 g / cm^3
# Si number density = 16.130997 Si / 1000 Ang^3
#
#
#
# Elastic Constant Matrix: (Units=GPa)
#
#
# Indices 1 2 3 4 5 6 
#
# 1 159.8344 13.6354 83.1639 0.0000 0.0000 0.0000
# 2 13.6354 15.1886 22.6750 0.0000 0.0000 0.0000
# 3 83.1639 22.6750 170.1865 0.0000 0.0000 0.0000
# 4 0.0000 0.0000 0.0000 10.8049 0.0000 0.0000
# 5 0.0000 0.0000 0.0000 0.0000 12.5811 0.0000
# 6 0.0000 0.0000 0.0000 0.0000 0.0000 4.9188
#
#
#
# Elastic Compliance Matrix: (Units=1/GPa)
#
#
# Indices 1 2 3 4 5 6 
#
# 1 0.008428 -0.001770 -0.003882 0.000000 0.000000 0.000000
# 2 -0.001770 0.082558 -0.010135 0.000000 0.000000 0.000000
# 3 -0.003882 -0.010135 0.009123 0.000000 0.000000 0.000000
# 4 0.000000 0.000000 0.000000 0.092551 0.000000 0.000000
# 5 0.000000 0.000000 0.000000 0.000000 0.079485 0.000000
# 6 0.000000 0.000000 0.000000 0.000000 0.000000 0.203301
#
#
# Mechanical properties :
#
#
# Convention : Reuss Voigt Hill
#
# Bulk Modulus (GPa) = 14.59112 64.90645 39.74879
# Shear Modulus (GPa) = 9.43638 20.70997 15.07317
#
# Velocity S-wave (km/s) = 2.42127 3.58699 3.06015
# Velocity P-wave (km/s) = 4.10874 7.58154 6.09760
#
# Compressibility (1/GPa) = 0.06853483
#
# Stress axis : x y z
#
# Youngs Moduli (GPa) = 118.65875 12.11272 109.60769
#
# Poissons Ratio (x) = 0.02144 0.42555
# Poissons Ratio (y) = 0.20999 1.11086
# Poissons Ratio (z) = 0.46069 0.12276
#
# Static dielectric constant tensor:
#      x y z
#    x 1.533950 0.000000 0.000000 
#    y 0.000000 1.505240 0.000000 
#    z 0.000000 0.000000 1.554590 
# 
# From -- ./inp_files/26363.got.cif
#   From: 2010.05.17/outbox.cif.g08.bks.cpg/sg65_14_cif.got.tgz:26363.got - 2010.06.03 17:01:31.
