data_PCOD9482493
_publ_section_title
;
Structure prediction by ZEFSAII (Michael W. Deem and Ramdas Pophale) SiO2 
 PCOD9482493
Probable space group: C M C A
;
_chemical_formula_sum "Si O2"
_cell_formula_units_Z 28
_cell_length_a 21.000000
_cell_length_b 12.000000
_cell_length_c 12.000000
_cell_angle_alpha 90.000000
_cell_angle_beta 90.000000
_cell_angle_gamma 90.000000
_cell_volume 3024.000000
_symmetry_space_group_name_H-M "C M C A"
_symmetry_group_IT_number 64
_symmetry_cell_setting 'orthorhombic'
loop_
_space_group_symop_operation_xyz
x,y,z
-x,1/2-y,1/2+z
x,-y,-z
-x,1/2+y,1/2-z
-x,-y,-z
x,1/2+y,1/2-z
-x,y,z
x,1/2-y,1/2+z
1/2+x,1/2+y,z
1/2-x,-y,1/2+z
1/2+x,1/2-y,-z
1/2-x,y,1/2-z
1/2-x,1/2-y,-z
1/2+x,y,1/2-z
1/2-x,1/2+y,z
1/2+x,-y,1/2+z
loop_
_atom_site_type_symbol
_atom_site_label
_atom_site_fract_x
_atom_site_fract_y
_atom_site_fract_z
Si Si1 0.574992 0.965437 0.666668
Si Si2 0.636539 0.658645 0.960867
Si Si3 0.749898 0.500000 0.500000
Si Si4 0.870976 0.582109 0.093649
O O1 0.500000 0.963245 0.653447
O O2 0.605527 0.881311 0.576979
O O3 0.595314 0.932067 0.789608
O O4 0.600373 0.088202 0.634353
O O5 0.631706 0.789678 0.943784
O O6 0.706730 0.604036 0.965058
O O7 0.701938 0.462178 0.597306
O O8 0.900665 0.500000 0.000000
#
# Coordination Sequence:
#
# PCOD9482493 Si02
#       4
#    16  16   8  16
#     4  10  23  41  61  86 119 163 200 240 298 352
#     4  10  21  41  64  86 120 159 197 243 299 356
#     4   8  20  40  60  92 118 156 194 244 298 356
#     4  10  23  38  60  95 117 151 201 247 297 347
#
# _framework density 9.2592590000000001
#
# number of rings (size 3 to 8) (size 9 to 14) (size 15 to 20)
#    0.857    1.714    0.000    2.571    4.000    7.429 
#    0.000    5.714    0.000    0.000    0.000    0.000 
#    0.000    0.000    0.000    0.000    0.000    0.000 
#
# Total GULP energy -155999.869051 kJ/mol
# GULP energy per Si atom -5571.423895 kJ/mol
# Density = 0.923818 g / cm^3
# Si number density = 9.259259 Si / 1000 Ang^3
#
#
#
# Elastic Constant Matrix: (Units=GPa)
#
#
# Indices 1 2 3 4 5 6 
#
# 1 54.4592 -16.6067 -7.1217 0.0000 0.0000 0.0000
# 2 -16.6067 109.8226 20.0906 0.0000 0.0000 0.0000
# 3 -7.1217 20.0906 40.9454 0.0000 0.0000 0.0000
# 4 0.0000 0.0000 0.0000 3.3246 0.0000 0.0000
# 5 0.0000 0.0000 0.0000 0.0000 30.2934 0.0000
# 6 0.0000 0.0000 0.0000 0.0000 0.0000 -11.8888
#
#
#
# Elastic Compliance Matrix: (Units=1/GPa)
#
#
# Indices 1 2 3 4 5 6 
#
# 1 0.019417 0.002547 0.002128 0.000000 0.000000 0.000000
# 2 0.002547 0.010338 -0.004629 0.000000 0.000000 0.000000
# 3 0.002128 -0.004629 0.027064 0.000000 0.000000 0.000000
# 4 0.000000 0.000000 0.000000 0.300787 0.000000 0.000000
# 5 0.000000 0.000000 0.000000 0.000000 0.033011 0.000000
# 6 0.000000 0.000000 0.000000 0.000000 0.000000 -0.084113
#
#
# Mechanical properties :
#
#
# Convention : Reuss Voigt Hill
#
# Bulk Modulus (GPa) = 17.57175 21.99461 19.78318
# Shear Modulus (GPa) = 15.36650 18.27017 16.81833
#
# Velocity S-wave (km/s) = 2.88373 3.14441 3.01689
# Velocity P-wave (km/s) = 4.53842 5.00859 4.77929
#
# Compressibility (1/GPa) = 0.05690954
#
# Stress axis : x y z
#
# Youngs Moduli (GPa) = 51.50054 96.73423 36.94912
#
# Poissons Ratio (x) = -0.24638 -0.07861
# Poissons Ratio (y) = -0.13117 0.17105
# Poissons Ratio (z) = -0.10957 0.44781
#
# Static dielectric constant tensor:
#      x y z
#    x 1.662770 0.000000 0.000000 
#    y 0.000000 1.610820 0.000000 
#    z 0.000000 0.000000 1.620250 
# 
# From -- ./inp_files/16689.got.cif
#   From: 2010.05.17/outbox.ucp.g08.bks.cvg/sg64_9_cif.got.tgz:16689.got - 2010.06.11 16:36:46.
