data_PCOD9482186
_publ_section_title
;
Structure prediction by ZEFSAII (Michael W. Deem and Ramdas Pophale) SiO2 
 PCOD9482186
Probable space group: C M C A
;
_chemical_formula_sum "Si O2"
_cell_formula_units_Z 64
_cell_length_a 25.052120
_cell_length_b 8.722689
_cell_length_c 10.084426
_cell_angle_alpha 90.000000
_cell_angle_beta 90.000000
_cell_angle_gamma 90.000000
_cell_volume 2203.667441
_symmetry_space_group_name_H-M "C M C A"
_symmetry_group_IT_number 64
_symmetry_cell_setting 'orthorhombic'
loop_
_space_group_symop_operation_xyz
x,y,z
-x,1/2-y,1/2+z
x,-y,-z
-x,1/2+y,1/2-z
-x,-y,-z
x,1/2+y,1/2-z
-x,y,z
x,1/2-y,1/2+z
1/2+x,1/2+y,z
1/2-x,-y,1/2+z
1/2+x,1/2-y,-z
1/2-x,y,1/2-z
1/2-x,1/2-y,-z
1/2+x,y,1/2-z
1/2-x,1/2+y,z
1/2+x,-y,1/2+z
loop_
_atom_site_type_symbol
_atom_site_label
_atom_site_fract_x
_atom_site_fract_y
_atom_site_fract_z
Si Si1 0.443426 0.436938 0.151269
Si Si2 0.147039 0.628668 0.298698
Si Si3 0.785213 0.337082 0.382121
Si Si4 0.062577 0.678014 0.978023
O O1 0.500000 0.480793 0.206085
O O2 0.439243 0.259744 0.121540
O O3 0.396363 0.501527 0.234606
O O4 0.440636 0.500000 0.000000
O O5 0.171948 0.712336 0.172314
O O6 0.189394 0.486349 0.624634
O O7 0.112431 0.741465 0.397199
O O8 0.750000 0.346663 0.250000
O O9 0.750000 0.250000 0.500000
O O10 0.000000 0.706559 0.928486
O O11 0.068853 0.500000 0.000000
#
# Coordination Sequence:
#
# PCOD9482186 Si02
#       4
#    16  16  16  16
#     4   8  16  35  73 122 169 224 285 361 462 574
#     4  11  25  50  84 124 179 250 308 398 483 563
#     4  12  32  56  88 132 178 243 326 408 476 552
#     4   9  19  40  82 141 192 245 308 379 478 597
#
# _framework density 29.042494000000001
#
# number of rings (size 3 to 8) (size 9 to 14) (size 15 to 20)
#    0.000    2.000    0.000    3.000   10.500    5.000 
#    0.000    5.000    0.000    0.000    0.000    0.000 
#    0.000    0.000    0.000    0.000    0.000    0.000 
#
# Total GULP energy -178418.069823 kJ/mol
# GULP energy per Si atom -5575.564682 kJ/mol
# Density = 2.897639 g / cm^3
# Si number density = 29.042494 Si / 1000 Ang^3
#
#
#
# Elastic Constant Matrix: (Units=GPa)
#
#
# Indices 1 2 3 4 5 6 
#
# 1 216.5206 99.2172 76.9367 0.0000 0.0000 0.0000
# 2 99.2172 267.5667 51.3389 0.0000 0.0000 0.0000
# 3 76.9367 51.3389 131.1137 0.0000 0.0000 0.0000
# 4 0.0000 0.0000 0.0000 48.6275 0.0000 0.0000
# 5 0.0000 0.0000 0.0000 0.0000 -118.0267 0.0000
# 6 0.0000 0.0000 0.0000 0.0000 0.0000 55.6388
#
#
#
# Elastic Compliance Matrix: (Units=1/GPa)
#
#
# Indices 1 2 3 4 5 6 
#
# 1 0.006575 -0.001836 -0.003140 0.000000 0.000000 0.000000
# 2 -0.001836 0.004554 -0.000706 0.000000 0.000000 0.000000
# 3 -0.003140 -0.000706 0.009746 0.000000 0.000000 0.000000
# 4 0.000000 0.000000 0.000000 0.020564 0.000000 0.000000
# 5 0.000000 0.000000 0.000000 0.000000 -0.008473 0.000000
# 6 0.000000 0.000000 0.000000 0.000000 0.000000 0.017973
#
#
# Mechanical properties :
#
#
# Convention : Reuss Voigt Hill
#
# Bulk Modulus (GPa) = 105.12753 118.90964 112.01858
# Shear Modulus (GPa) = 76.36831 23.09514 49.73172
#
# Velocity S-wave (km/s) = 5.13346 2.82302 4.14258
# Velocity P-wave (km/s) = 8.45062 7.18736 7.84446
#
# Compressibility (1/GPa) = 0.00951226
#
# Stress axis : x y z
#
# Youngs Moduli (GPa) = 152.08427 219.60924 102.61088
#
# Poissons Ratio (x) = 0.40316 0.32215
# Poissons Ratio (y) = 0.27920 0.07242
# Poissons Ratio (z) = 0.47747 0.15499
#
# Static dielectric constant tensor:
#      x y z
#    x 2.183700 0.000000 0.000000 
#    y 0.000000 2.458180 0.000000 
#    z 0.000000 0.000000 2.034210 
# 
# From -- ./inp_files/7761.got.cif
#   From: 2010.05.17/outbox.cif.g08.bks.cpg/sg64_4_cif.got.tgz:7761.got - 2010.06.03 16:29:19.
