data_PCOD9482805
_publ_section_title
;
Structure prediction by ZEFSAII (Michael W. Deem and Ramdas Pophale) SiO2 
 PCOD9482805
Probable space group: C M M M
;
_chemical_formula_sum "Si O2"
_cell_formula_units_Z 88
_cell_length_a 28.127089
_cell_length_b 8.460483
_cell_length_c 22.179768
_cell_angle_alpha 90.000000
_cell_angle_beta 90.000000
_cell_angle_gamma 90.000000
_cell_volume 5278.091851
_symmetry_space_group_name_H-M "C M M M"
_symmetry_group_IT_number 65
_symmetry_cell_setting 'orthorhombic'
loop_
_space_group_symop_operation_xyz
x,y,z
-x,-y,z
x,-y,-z
-x,y,-z
-x,-y,-z
x,y,-z
-x,y,z
x,-y,z
1/2+x,1/2+y,z
1/2-x,1/2-y,z
1/2+x,1/2-y,-z
1/2-x,1/2+y,-z
1/2-x,1/2-y,-z
1/2+x,1/2+y,-z
1/2-x,1/2+y,z
1/2+x,1/2-y,z
loop_
_atom_site_type_symbol
_atom_site_label
_atom_site_fract_x
_atom_site_fract_y
_atom_site_fract_z
Si Si1 0.602709 0.310730 0.432208
Si Si2 0.446905 0.809306 0.313677
Si Si3 0.195772 0.689905 0.873054
Si Si4 0.352117 0.192241 0.749918
Si Si5 0.195587 0.811974 0.000000
Si Si6 0.697573 0.189630 0.626308
O O1 0.590454 0.259712 0.500000
O O2 0.599871 0.500000 0.429101
O O3 0.569263 0.239178 0.380658
O O4 0.656364 0.258326 0.416064
O O5 0.500000 0.751756 0.300143
O O6 0.404885 0.754029 0.269098
O O7 0.447188 0.000000 0.311063
O O8 0.196745 0.500000 0.874223
O O9 0.250000 0.750000 0.867469
O O10 0.166705 0.745605 0.814566
O O11 0.175258 0.749756 0.936836
O O12 0.317342 0.237286 0.694716
O O13 0.352590 0.000000 0.751240
O O14 0.250000 0.750000 0.000000
O O15 0.195941 0.000000 0.000000
O O16 0.750000 0.250000 0.611976
O O17 0.696127 0.000000 0.622860
#
# Coordination Sequence:
#
# PCOD9482805 Si02
#       6
#    16  16  16  16   8  16
#     4  10  21  35  49  67  92 121 154 191 230 274
#     4   9  18  34  54  73  93 117 147 187 236 285
#     4  10  17  27  43  64  93 125 155 184 218 259
#     4   8  16  29  46  69  93 118 150 187 226 271
#     4  10  18  28  40  60  91 124 159 189 216 253
#     4  10  19  32  49  69  94 123 155 190 229 273
#
# _framework density 16.672692000000001
#
# number of rings (size 3 to 8) (size 9 to 14) (size 15 to 20)
#    0.000    2.545    0.000    5.182    0.000    2.545 
#    0.000   10.000    0.000    0.000    0.000    0.636 
#    0.000    5.091    0.000    0.000    0.000    0.000 
#
# Total GULP energy -245315.918957 kJ/mol
# GULP energy per Si atom -5575.361794 kJ/mol
# Density = 1.663474 g / cm^3
# Si number density = 16.672692 Si / 1000 Ang^3
#
#
#
# Elastic Constant Matrix: (Units=GPa)
#
#
# Indices 1 2 3 4 5 6 
#
# 1 75.5227 5.0880 25.7361 0.0000 0.0000 0.0000
# 2 5.0880 31.6466 12.7607 0.0000 0.0000 0.0000
# 3 25.7361 12.7607 114.4435 0.0000 0.0000 0.0000
# 4 0.0000 0.0000 0.0000 16.9028 0.0000 0.0000
# 5 0.0000 0.0000 0.0000 0.0000 9.0044 0.0000
# 6 0.0000 0.0000 0.0000 0.0000 0.0000 16.7045
#
#
#
# Elastic Compliance Matrix: (Units=1/GPa)
#
#
# Indices 1 2 3 4 5 6 
#
# 1 0.014374 -0.001055 -0.003115 0.000000 0.000000 0.000000
# 2 -0.001055 0.033164 -0.003461 0.000000 0.000000 0.000000
# 3 -0.003115 -0.003461 0.009824 0.000000 0.000000 0.000000
# 4 0.000000 0.000000 0.000000 0.059162 0.000000 0.000000
# 5 0.000000 0.000000 0.000000 0.000000 0.111057 0.000000
# 6 0.000000 0.000000 0.000000 0.000000 0.000000 0.059864
#
#
# Mechanical properties :
#
#
# Convention : Reuss Voigt Hill
#
# Bulk Modulus (GPa) = 23.75230 34.30915 29.03072
# Shear Modulus (GPa) = 15.78588 20.39087 18.08838
#
# Velocity S-wave (km/s) = 3.08037 3.50095 3.29737
# Velocity P-wave (km/s) = 5.18929 6.07988 5.65215
#
# Compressibility (1/GPa) = 0.04210118
#
# Stress axis : x y z
#
# Youngs Moduli (GPa) = 69.57228 30.15319 101.78907
#
# Poissons Ratio (x) = 0.03181 0.31704
# Poissons Ratio (y) = 0.07340 0.35225
# Poissons Ratio (z) = 0.21670 0.10435
#
# Static dielectric constant tensor:
#      x y z
#    x 1.550400 0.000000 0.000000 
#    y 0.000000 1.583270 0.000000 
#    z 0.000000 0.000000 1.580090 
# 
# From -- ./inp_files/66206.got.cif
#   From: 2010.05.17/outbox.cif.g08.bks.cpg/sg65_34_cif.got.tgz:66206.got - 2010.06.03 17:01:31.
