data_PCOD9482612
_publ_section_title
;
Structure prediction by ZEFSAII (Michael W. Deem and Ramdas Pophale) SiO2 
 PCOD9482612
Probable space group: C M M M
;
_chemical_formula_sum "Si O2"
_cell_formula_units_Z 56
_cell_length_a 8.508059
_cell_length_b 19.306902
_cell_length_c 19.155917
_cell_angle_alpha 90.000000
_cell_angle_beta 90.000000
_cell_angle_gamma 90.000000
_cell_volume 3146.632556
_symmetry_space_group_name_H-M "C M M M"
_symmetry_group_IT_number 65
_symmetry_cell_setting 'orthorhombic'
loop_
_space_group_symop_operation_xyz
x,y,z
-x,-y,z
x,-y,-z
-x,y,-z
-x,-y,-z
x,y,-z
-x,y,z
x,-y,z
1/2+x,1/2+y,z
1/2-x,1/2-y,z
1/2+x,1/2-y,-z
1/2-x,1/2+y,-z
1/2-x,1/2-y,-z
1/2+x,1/2+y,-z
1/2-x,1/2+y,z
1/2+x,1/2-y,z
loop_
_atom_site_type_symbol
_atom_site_label
_atom_site_fract_x
_atom_site_fract_y
_atom_site_fract_z
Si Si1 0.812654 0.829354 0.855116
Si Si2 0.808596 0.419882 0.577800
Si Si3 0.689130 0.171418 0.708513
Si Si4 0.187222 0.329494 0.000000
O O1 0.750000 0.750000 0.854262
O O2 0.751467 0.859029 0.781889
O O3 0.748891 0.861056 0.927359
O O4 0.000000 0.828337 0.856404
O O5 0.758152 0.397195 0.500000
O O6 0.761706 0.500000 0.587207
O O7 0.756721 0.372408 0.641671
O O8 0.000000 0.418669 0.578060
O O9 0.500000 0.172475 0.711103
O O10 0.750000 0.250000 0.702011
O O11 0.250000 0.250000 0.000000
O O12 0.000000 0.327896 0.000000
#
# Coordination Sequence:
#
# PCOD9482612 Si02
#       4
#    16  16  16   8
#     4  10  17  26  39  58  87 120 152 184 222 267
#     4   8  15  29  48  68  89 116 153 193 228 266
#     4  10  18  28  44  67  94 121 150 187 230 272
#     4  10  16  24  38  58  85 116 151 186 223 265
#
# _framework density 17.796803000000001
#
# number of rings (size 3 to 8) (size 9 to 14) (size 15 to 20)
#    0.000    2.571    0.000    9.000    0.000    0.571 
#    0.000    0.000    0.000    6.000    0.000    9.000 
#    0.000    8.000    0.000    0.000    0.000    0.000 
#
# Total GULP energy -155976.936847 kJ/mol
# GULP energy per Si atom -5570.604887 kJ/mol
# Density = 1.775630 g / cm^3
# Si number density = 17.796803 Si / 1000 Ang^3
#
#
#
# Elastic Constant Matrix: (Units=GPa)
#
#
# Indices 1 2 3 4 5 6 
#
# 1 103.0860 12.9974 52.9565 0.0000 0.0000 0.0000
# 2 12.9974 26.5101 59.7424 0.0000 0.0000 0.0000
# 3 52.9565 59.7424 235.6872 0.0000 0.0000 0.0000
# 4 0.0000 0.0000 0.0000 -10.7520 0.0000 0.0000
# 5 0.0000 0.0000 0.0000 0.0000 20.7153 0.0000
# 6 0.0000 0.0000 0.0000 0.0000 0.0000 7.8516
#
#
#
# Elastic Compliance Matrix: (Units=1/GPa)
#
#
# Indices 1 2 3 4 5 6 
#
# 1 0.010968 0.000411 -0.002569 0.000000 0.000000 0.000000
# 2 0.000411 0.087994 -0.022397 0.000000 0.000000 0.000000
# 3 -0.002569 -0.022397 0.010497 0.000000 0.000000 0.000000
# 4 0.000000 0.000000 0.000000 -0.093006 0.000000 0.000000
# 5 0.000000 0.000000 0.000000 0.000000 0.048273 0.000000
# 6 0.000000 0.000000 0.000000 0.000000 0.000000 0.127363
#
#
# Mechanical properties :
#
#
# Convention : Reuss Voigt Hill
#
# Bulk Modulus (GPa) = 16.57004 68.51955 42.54479
# Shear Modulus (GPa) = 19.13395 19.53544 19.33469
#
# Velocity S-wave (km/s) = 3.28248 3.31674 3.29965
# Velocity P-wave (km/s) = 4.86797 7.29742 6.20280
#
# Compressibility (1/GPa) = 0.06034987
#
# Stress axis : x y z
#
# Youngs Moduli (GPa) = 91.17123 11.36447 95.26217
#
# Poissons Ratio (x) = -0.00467 0.24470
# Poissons Ratio (y) = -0.03749 2.13360
# Poissons Ratio (z) = 0.23419 0.25453
#
# Static dielectric constant tensor:
#      x y z
#    x 1.592370 0.000000 0.000000 
#    y 0.000000 1.585200 0.000000 
#    z 0.000000 0.000000 1.684390 
# 
# From -- ./inp_files/48969.got.cif
#   From: 2010.05.17/outbox.cif.g08.bks.cpg/sg65_25_cif.got.tgz:48969.got - 2010.06.03 17:01:31.
