data_PCOD9482014
_publ_section_title
;
Structure prediction by ZEFSAII (Michael W. Deem and Ramdas Pophale) SiO2 
 PCOD9482014
Probable space group: C M C A
;
_chemical_formula_sum "Si O2"
_cell_formula_units_Z 96
_cell_length_a 24.638331
_cell_length_b 9.851328
_cell_length_c 19.701713
_cell_angle_alpha 90.000000
_cell_angle_beta 90.000000
_cell_angle_gamma 90.000000
_cell_volume 4782.005297
_symmetry_space_group_name_H-M "C M C A"
_symmetry_group_IT_number 64
_symmetry_cell_setting 'orthorhombic'
loop_
_space_group_symop_operation_xyz
x,y,z
-x,1/2-y,1/2+z
x,-y,-z
-x,1/2+y,1/2-z
-x,-y,-z
x,1/2+y,1/2-z
-x,y,z
x,1/2-y,1/2+z
1/2+x,1/2+y,z
1/2-x,-y,1/2+z
1/2+x,1/2-y,-z
1/2-x,y,1/2-z
1/2-x,1/2-y,-z
1/2+x,y,1/2-z
1/2-x,1/2+y,z
1/2+x,-y,1/2+z
loop_
_atom_site_type_symbol
_atom_site_label
_atom_site_fract_x
_atom_site_fract_y
_atom_site_fract_z
Si Si1 0.238394 0.542969 0.116726
Si Si2 0.634658 0.086622 0.938089
Si Si3 0.900692 0.871372 0.285194
Si Si4 0.645385 0.897268 0.560678
Si Si5 0.793337 0.704287 0.698316
Si Si6 0.940166 0.080095 0.177756
O O1 0.197242 0.457367 0.071088
O O2 0.291336 0.602146 0.080355
O O3 0.203494 0.671652 0.144928
O O4 0.265083 0.431305 0.168004
O O5 0.612265 0.074245 0.860948
O O6 0.629857 0.244032 0.956717
O O7 0.610616 0.000000 0.000000
O O8 0.846319 0.832916 0.242090
O O9 0.933176 0.732949 0.295885
O O10 0.931769 0.980000 0.240411
O O11 0.608198 0.941302 0.624070
O O12 0.636721 0.000000 0.500000
O O13 0.750000 0.765945 0.750000
O O14 0.000000 0.061524 0.147407
#
# Coordination Sequence:
#
# PCOD9482014 Si02
#       6
#    16  16  16  16  16  16
#     4  12  22  38  60  94 130 170 210 250 299 380
#     4  11  25  40  60  92 133 173 208 253 310 383
#     4  11  23  42  66  95 128 166 209 270 324 380
#     4  11  25  42  61  91 130 171 211 258 315 378
#     4  12  22  35  63  95 132 167 207 250 310 378
#     4  11  24  44  69  95 121 159 217 276 329 376
#
# _framework density 20.07526
#
# number of rings (size 3 to 8) (size 9 to 14) (size 15 to 20)
#    0.000    0.667    5.000    3.500    2.333    3.000 
#    0.000    0.000    0.000   12.500    0.000    0.000 
#    0.000    0.000    0.000    0.000    0.000    0.000 
#
# Total GULP energy -268024.555773 kJ/mol
# GULP energy per Si atom -5583.844912 kJ/mol
# Density = 2.002957 g / cm^3
# Si number density = 20.075260 Si / 1000 Ang^3
#
#
#
# Elastic Constant Matrix: (Units=GPa)
#
#
# Indices 1 2 3 4 5 6 
#
# 1 55.2499 -2.0667 10.6289 0.0000 0.0000 0.0000
# 2 -2.0667 83.6263 62.8540 0.0000 0.0000 0.0000
# 3 10.6289 62.8540 98.9674 0.0000 0.0000 0.0000
# 4 0.0000 0.0000 0.0000 42.3496 0.0000 0.0000
# 5 0.0000 0.0000 0.0000 0.0000 2.2571 0.0000
# 6 0.0000 0.0000 0.0000 0.0000 0.0000 22.4022
#
#
#
# Elastic Compliance Matrix: (Units=1/GPa)
#
#
# Indices 1 2 3 4 5 6 
#
# 1 0.019110 0.003855 -0.004501 0.000000 0.000000 0.000000
# 2 0.003855 0.023657 -0.015438 0.000000 0.000000 0.000000
# 3 -0.004501 -0.015438 0.020393 0.000000 0.000000 0.000000
# 4 0.000000 0.000000 0.000000 0.023613 0.000000 0.000000
# 5 0.000000 0.000000 0.000000 0.000000 0.443055 0.000000
# 6 0.000000 0.000000 0.000000 0.000000 0.000000 0.044638
#
#
# Mechanical properties :
#
#
# Convention : Reuss Voigt Hill
#
# Bulk Modulus (GPa) = 32.26759 42.29735 37.28247
# Shear Modulus (GPa) = 8.10420 24.49695 16.30057
#
# Velocity S-wave (km/s) = 2.01139 3.49701 2.85261
# Velocity P-wave (km/s) = 4.63707 6.11723 5.42784
#
# Compressibility (1/GPa) = 0.03099085
#
# Stress axis : x y z
#
# Youngs Moduli (GPa) = 52.32976 42.27117 49.03749
#
# Poissons Ratio (x) = -0.16295 0.22070
# Poissons Ratio (y) = -0.20173 0.75706
# Poissons Ratio (z) = 0.23551 0.65260
#
# Static dielectric constant tensor:
#      x y z
#    x 1.707010 0.000000 0.000000 
#    y 0.000000 1.723510 0.000000 
#    z 0.000000 0.000000 1.815790 
# 
# From -- ./inp_files/41801.got.cif
#   From: 2010.05.17/outbox.cif.g08.bks.cpg/sg64_21_cif.got.tgz:41801.got - 2010.06.03 16:29:19.
